0:0
     RDKit          3D

 30 31  0  0  0  0  0  0  0  0999 V2000
   57.7520   26.1360   44.7200 C   0  0  0  0  0  0  0  0  0  0  0  0
   56.6960   27.1710   45.7130 S   0  0  0  0  0  0  0  0  0  0  0  0
   57.3950   27.4690   47.0090 O   0  0  0  0  0  0  0  0  0  0  0  0
   55.4030   26.4670   46.0130 O   0  0  0  0  0  0  0  0  0  0  0  0
   56.3840   28.6660   44.8930 N   0  0  0  0  0  0  0  0  0  0  0  0
   57.0260   29.9210   45.1600 C   0  0  0  0  0  0  0  0  0  0  0  0
   58.0240   30.0610   46.1420 C   0  0  0  0  0  0  0  0  0  0  0  0
   58.6210   31.3060   46.3680 C   0  0  0  0  0  0  0  0  0  0  0  0
   58.2360   32.4220   45.6140 C   0  0  0  0  0  0  0  0  0  0  0  0
   58.9820   33.9870   45.9090 S   0  0  0  0  0  0  0  0  0  0  0  0
   58.5200   34.9690   44.8680 O   0  0  0  0  0  0  0  0  0  0  0  0
   58.5870   34.4670   47.2780 O   0  0  0  0  0  0  0  0  0  0  0  0
   60.7060   33.8250   45.8130 N   0  0  0  0  0  0  0  0  0  0  0  0
   61.5060   33.8260   46.8350 C   0  0  0  0  0  0  0  0  0  0  0  0
   61.1400   34.1070   48.1070 N   0  0  0  0  0  0  0  0  0  0  0  0
   62.1890   34.0300   48.9680 C   0  0  0  0  0  0  0  0  0  0  0  0
   63.4020   33.6870   48.3800 C   0  0  0  0  0  0  0  0  0  0  0  0
   63.1440   33.4730   46.7290 S   0  0  0  0  0  0  0  0  0  0  0  0
   57.2380   32.2850   44.6390 C   0  0  0  0  0  0  0  0  0  0  0  0
   56.6410   31.0420   44.4140 C   0  0  0  0  0  0  0  0  0  0  0  0
   58.3823   25.5182   45.3765 H   0  0  0  0  0  0  0  0  0  0  0  0
   57.1343   25.4839   44.0851 H   0  0  0  0  0  0  0  0  0  0  0  0
   58.3916   26.7667   44.0851 H   0  0  0  0  0  0  0  0  0  0  0  0
   58.3360   29.1882   46.7343 H   0  0  0  0  0  0  0  0  0  0  0  0
   59.3964   31.4090   47.1414 H   0  0  0  0  0  0  0  0  0  0  0  0
   60.1740   34.3550   48.4170 H   0  0  0  0  0  0  0  0  0  0  0  0
   62.0866   34.2239   50.0459 H   0  0  0  0  0  0  0  0  0  0  0  0
   64.3634   33.5749   48.9026 H   0  0  0  0  0  0  0  0  0  0  0  0
   56.9240   33.1589   44.0493 H   0  0  0  0  0  0  0  0  0  0  0  0
   55.8616   30.9430   43.6441 H   0  0  0  0  0  0  0  0  0  0  0  0
  1  2  1  0
  2  3  2  0
  2  4  2  0
  2  5  1  0
  5  6  1  0
  6  7  2  0
  7  8  1  0
  8  9  2  0
  9 10  1  0
 10 11  2  0
 10 12  2  0
 10 13  1  0
 13 14  2  3
 14 15  1  0
 15 16  1  0
 16 17  2  0
 17 18  1  0
  9 19  1  0
 19 20  2  0
 20  6  1  0
 18 14  1  0
  1 21  1  0
  1 22  1  0
  1 23  1  0
  7 24  1  0
  8 25  1  0
 15 26  1  0
 16 27  1  0
 17 28  1  0
 19 29  1  0
 20 30  1  0
M  CHG  1   5  -1
M  END
>  <UniqueID>  (1) 
1

>  <SMILES>  (1) 
CS(=O)(=O)[N-]c1ccc(S(=O)(=O)N=c2[nH]ccs2)cc1

>  <Energy>  (1) 
63.384610759415295

>  <Genealogy>  (1) 
CS(=O)(=O)[N-]c1ccc(S(=O)(=O)N=c2[nH]ccs2)cc1 (protonated)
CS(=O)(=O)[N-]c1ccc(S(=O)(=O)N=c2[nH]ccs2)cc1 (3D coordinates assigned)
CS(=O)(=O)[N-]c1ccc(S(=O)(=O)N=c2[nH]ccs2)cc1 (optimized conformer: 63.384610759415295 kcal/mol)

>  <smiles>  (1) 
CS(=O)(=O)Nc1ccc(S(=O)(=O)N=c2[nH]ccs2)cc1

>  <score_type>  (1) 
oracle

>  <origin>  (1) 
adg

>  <m_score__min__energy>  (1) 
-8.7300000000000004

>  <m_primary>  (1) 
energy

$$$$
1:0
     RDKit          3D

 31 33  0  0  0  0  0  0  0  0999 V2000
   58.5447   27.7643   47.5002 H   0  0  0  0  0  0  0  0  0  0  0  0
   58.3750   28.5430   46.7420 C   0  0  0  0  0  0  0  0  0  0  0  0
   57.3900   28.3760   45.8080 N   0  0  0  0  0  0  0  0  0  0  0  0
   57.1980   29.3420   44.8750 C   0  0  0  0  0  0  0  0  0  0  0  0
   57.9530   30.4810   44.8400 C   0  0  0  0  0  0  0  0  0  0  0  0
   58.9630   30.7020   45.7710 C   0  0  0  0  0  0  0  0  0  0  0  0
   59.5704   31.6188   45.7486 H   0  0  0  0  0  0  0  0  0  0  0  0
   59.1770   29.7070   46.7420 C   0  0  0  0  0  0  0  0  0  0  0  0
   59.9654   29.8342   47.4984 H   0  0  0  0  0  0  0  0  0  0  0  0
   57.4740   31.2390   43.7890 C   0  0  0  0  0  0  0  0  0  0  0  0
   57.9020   32.6180   43.3920 C   0  0  0  0  0  0  0  0  0  0  0  0
   57.1499   33.0544   42.7182 H   0  0  0  0  0  0  0  0  0  0  0  0
   58.8725   32.5639   42.8770 H   0  0  0  0  0  0  0  0  0  0  0  0
   58.0350   33.4750   44.6100 C   0  0  0  0  0  0  0  0  0  0  0  0
   57.0050   33.7910   45.2640 O   0  0  0  0  0  0  0  0  0  0  0  0
   59.3340   33.9530   44.9920 N   0  0  0  0  0  0  0  0  0  0  0  0
   59.8860   33.9580   46.1760 C   0  0  0  0  0  0  0  0  0  0  0  0
   61.2770   33.8070   46.3680 C   0  0  0  0  0  0  0  0  0  0  0  0
   61.9434   33.6675   45.5040 H   0  0  0  0  0  0  0  0  0  0  0  0
   61.8000   33.8360   47.6610 C   0  0  0  0  0  0  0  0  0  0  0  0
   62.8812   33.7104   47.8199 H   0  0  0  0  0  0  0  0  0  0  0  0
   60.9530   34.0240   48.7510 C   0  0  0  0  0  0  0  0  0  0  0  0
   61.3579   34.0413   49.7736 H   0  0  0  0  0  0  0  0  0  0  0  0
   59.5860   34.1900   48.5310 C   0  0  0  0  0  0  0  0  0  0  0  0
   58.9083   34.3456   49.3833 H   0  0  0  0  0  0  0  0  0  0  0  0
   59.0880   34.1600   47.2650 N   0  0  0  0  0  0  0  0  0  0  0  0
   58.0580   34.2910   47.1340 H   0  0  0  0  0  0  0  0  0  0  0  0
   56.4190   30.5070   43.2480 C   0  0  0  0  0  0  0  0  0  0  0  0
   55.8007   30.8329   42.3986 H   0  0  0  0  0  0  0  0  0  0  0  0
   56.2610   29.3380   43.9140 N   0  0  0  0  0  0  0  0  0  0  0  0
   55.5450   28.6010   43.7300 H   0  0  0  0  0  0  0  0  0  0  0  0
  1  2  1  0
  2  3  2  0
  3  4  1  0
  4  5  2  0
  5  6  1  0
  6  7  1  0
  6  8  2  0
  8  9  1  0
  5 10  1  0
 10 11  1  0
 11 12  1  0
 11 13  1  0
 11 14  1  0
 14 15  2  0
 14 16  1  0
 16 17  2  0
 17 18  1  0
 18 19  1  0
 18 20  2  0
 20 21  1  0
 20 22  1  0
 22 23  1  0
 22 24  2  0
 24 25  1  0
 24 26  1  0
 26 27  1  0
 10 28  2  0
 28 29  1  0
 28 30  1  0
 30 31  1  0
  8  2  1  0
 26 17  1  0
 30  4  1  0
M  END
>  <UniqueID>  (2) 
2

>  <SMILES>  (2) 
O=C(Cc1c[nH]c2ncccc12)/N=c1\cccc[nH]1

>  <Energy>  (2) 
73.52570171893919

>  <Genealogy>  (2) 
O=C(Cc1c[nH]c2ncccc12)/N=c1\cccc[nH]1 (cis-trans isomerization)
O=C(Cc1c[nH]c2ncccc12)/N=c1\cccc[nH]1 (3D coordinates assigned)
O=C(Cc1c[nH]c2ncccc12)/N=c1\cccc[nH]1 (optimized conformer: 73.52570171893919 kcal/mol)

>  <smiles>  (2) 
O=C(Cc1c[nH]c2ncccc12)N=c1cccc[nH]1

>  <score_type>  (2) 
oracle

>  <origin>  (2) 
adg

>  <m_score__min__energy>  (2) 
-7.4900000000000002

>  <m_primary>  (2) 
energy

$$$$
2:0
     RDKit          3D

 53 55  0  0  0  0  0  0  0  0999 V2000
   63.3900   33.9320   46.6860 C   0  0  0  0  0  0  0  0  0  0  0  0
   62.1600   33.1230   47.0840 C   0  0  0  0  0  0  0  0  0  0  0  0
   60.8860   33.7010   46.4550 C   0  0  0  0  0  0  0  0  0  0  0  0
   59.7560   32.7680   46.6130 N   0  0  0  0  0  0  0  0  0  0  0  0
   58.8840   32.4660   45.4950 C   0  0  0  0  0  0  0  0  0  0  0  0
   58.5980   33.4110   44.4950 C   0  0  0  0  0  0  0  0  0  0  0  0
   57.7860   33.0660   43.4140 C   0  0  0  0  0  0  0  0  0  0  0  0
   57.2300   31.7880   43.3320 C   0  0  0  0  0  0  0  0  0  0  0  0
   57.4770   30.8350   44.3340 C   0  0  0  0  0  0  0  0  0  0  0  0
   56.7760   29.5350   44.2810 C   0  0  0  0  0  0  0  0  0  0  0  0
   55.7050   29.2580   45.1820 N   0  0  0  0  0  0  0  0  0  0  0  0
   57.1450   28.6460   43.4690 O   0  0  0  0  0  0  0  0  0  0  0  0
   58.3400   31.1760   45.4020 C   0  0  0  0  0  0  0  0  0  0  0  0
   58.7210   30.2350   46.4150 N   0  0  0  0  0  0  0  0  0  0  0  0
   59.7040   29.2030   46.0420 C   0  0  0  0  0  0  0  0  0  0  0  0
   59.2060   27.7990   46.3190 C   0  0  0  0  0  0  0  0  0  0  0  0
   58.7260   27.0250   45.2480 C   0  0  0  0  0  0  0  0  0  0  0  0
   58.2310   25.7250   45.4530 C   0  0  0  0  0  0  0  0  0  0  0  0
   57.7240   24.9370   44.3020 C   0  0  0  0  0  0  0  0  0  0  0  0
   57.3950   25.5580   43.0580 N   0  0  0  0  0  0  0  0  0  0  0  0
   57.5640   23.6910   44.4220 O   0  0  0  0  0  0  0  0  0  0  0  0
   58.2070   25.2050   46.7560 C   0  0  0  0  0  0  0  0  0  0  0  0
   58.6880   25.9580   47.8270 C   0  0  0  0  0  0  0  0  0  0  0  0
   59.1920   27.2480   47.6220 C   0  0  0  0  0  0  0  0  0  0  0  0
   59.6860   27.9790   48.7650 C   0  0  0  0  0  0  0  0  0  0  0  0
   60.0800   28.5640   49.6830 N   0  0  0  0  0  0  0  0  0  0  0  0
   58.6850   30.7930   47.7700 C   0  0  0  0  0  0  0  0  0  0  0  0
   59.6430   32.0070   47.8810 C   0  0  2  0  0  0  0  0  0  0  0  0
   59.1850   32.9320   49.0170 C   0  0  0  0  0  0  0  0  0  0  0  0
   63.9119   34.2752   47.5915 H   0  0  0  0  0  0  0  0  0  0  0  0
   64.0662   33.3018   46.0897 H   0  0  0  0  0  0  0  0  0  0  0  0
   63.0791   34.8025   46.0897 H   0  0  0  0  0  0  0  0  0  0  0  0
   62.2884   32.0848   46.7439 H   0  0  0  0  0  0  0  0  0  0  0  0
   62.0565   33.1638   48.1784 H   0  0  0  0  0  0  0  0  0  0  0  0
   60.6398   34.6528   46.9484 H   0  0  0  0  0  0  0  0  0  0  0  0
   61.0638   33.8617   45.3814 H   0  0  0  0  0  0  0  0  0  0  0  0
   59.0157   34.4262   44.5647 H   0  0  0  0  0  0  0  0  0  0  0  0
   57.5832   33.8036   42.6236 H   0  0  0  0  0  0  0  0  0  0  0  0
   56.5927   31.5249   42.4749 H   0  0  0  0  0  0  0  0  0  0  0  0
   54.7710   28.9530   44.8270 H   0  0  0  0  0  0  0  0  0  0  0  0
   59.9209   29.2946   44.9675 H   0  0  0  0  0  0  0  0  0  0  0  0
   60.6050   29.3641   46.6521 H   0  0  0  0  0  0  0  0  0  0  0  0
   58.7379   27.4441   44.2310 H   0  0  0  0  0  0  0  0  0  0  0  0
   57.0970   24.9730   42.2460 H   0  0  0  0  0  0  0  0  0  0  0  0
   57.3580   26.5960   42.9530 H   0  0  0  0  0  0  0  0  0  0  0  0
   57.8060   24.1963   46.9341 H   0  0  0  0  0  0  0  0  0  0  0  0
   58.6712   25.5344   48.8420 H   0  0  0  0  0  0  0  0  0  0  0  0
   57.6598   31.1182   48.0008 H   0  0  0  0  0  0  0  0  0  0  0  0
   59.0060   30.0192   48.4829 H   0  0  0  0  0  0  0  0  0  0  0  0
   60.6446   31.6103   48.1033 H   0  0  0  0  0  0  0  0  0  0  0  0
   59.4162   32.4651   49.9858 H   0  0  0  0  0  0  0  0  0  0  0  0
   59.7102   33.8954   48.9397 H   0  0  0  0  0  0  0  0  0  0  0  0
   58.1004   33.0984   48.9397 H   0  0  0  0  0  0  0  0  0  0  0  0
  1  2  1  0
  2  3  1  0
  3  4  1  0
  4  5  1  0
  5  6  2  0
  6  7  1  0
  7  8  2  0
  8  9  1  0
  9 10  1  0
 10 11  1  0
 10 12  2  0
  9 13  2  0
 13 14  1  0
 14 15  1  0
 15 16  1  0
 16 17  2  0
 17 18  1  0
 18 19  1  0
 19 20  1  0
 19 21  2  0
 18 22  2  0
 22 23  1  0
 23 24  2  0
 24 25  1  0
 25 26  3  0
 14 27  1  0
 27 28  1  0
 28 29  1  0
 28  4  1  0
 13  5  1  0
 24 16  1  0
  1 30  1  0
  1 31  1  0
  1 32  1  0
  2 33  1  0
  2 34  1  0
  3 35  1  0
  3 36  1  0
  6 37  1  0
  7 38  1  0
  8 39  1  0
 11 40  1  0
 15 41  1  0
 15 42  1  0
 17 43  1  0
 20 44  1  0
 20 45  1  0
 22 46  1  0
 23 47  1  0
 27 48  1  0
 27 49  1  0
 28 50  1  1
 29 51  1  0
 29 52  1  0
 29 53  1  0
M  CHG  1  11  -1
M  END
>  <UniqueID>  (3) 
3

>  <SMILES>  (3) 
CCCN1c2cccc(C([NH-])=O)c2N(Cc2cc(C(N)=O)ccc2C#N)C[C@@H]1C

>  <Energy>  (3) 
63.78693532043879

>  <Genealogy>  (3) 
CCCN1c2cccc(C([NH-])=O)c2N(Cc2cc(C(N)=O)ccc2C#N)CC1C (protonated)
CCCN1c2cccc(C([NH-])=O)c2N(Cc2cc(C(N)=O)ccc2C#N)C[C@@H]1C (chirality)
CCCN1c2cccc(C([NH-])=O)c2N(Cc2cc(C(N)=O)ccc2C#N)C[C@@H]1C (3D coordinates assigned)
CCCN1c2cccc(C([NH-])=O)c2N(Cc2cc(C(N)=O)ccc2C#N)C[C@@H]1C (nonaromatic ring conformer: 63.78693532043879 kcal/mol)

>  <smiles>  (3) 
CCCN1c2cccc(C(N)=O)c2N(Cc2cc(C(N)=O)ccc2C#N)CC1C

>  <score_type>  (3) 
oracle

>  <origin>  (3) 
adg

>  <m_score__min__energy>  (3) 
-10.33

>  <m_primary>  (3) 
energy

$$$$
3:0
     RDKit          3D

 54 57  0  0  0  0  0  0  0  0999 V2000
   56.3920   22.9780   47.7980 C   0  0  0  0  0  0  0  0  0  0  0  0
   57.3740   22.5760   46.8500 O   0  0  0  0  0  0  0  0  0  0  0  0
   57.1190   22.3260   45.4920 C   0  0  0  0  0  0  0  0  0  0  0  0
   57.2130   21.0320   44.9430 C   0  0  0  0  0  0  0  0  0  0  0  0
   57.0020   20.8270   43.5760 C   0  0  0  0  0  0  0  0  0  0  0  0
   56.7040   21.9060   42.7440 C   0  0  0  0  0  0  0  0  0  0  0  0
   56.6010   23.1930   43.2770 C   0  0  0  0  0  0  0  0  0  0  0  0
   56.7800   23.4080   44.6490 C   0  0  0  0  0  0  0  0  0  0  0  0
   56.6550   24.7140   45.1420 O   0  0  0  0  0  0  0  0  0  0  0  0
   57.6650   25.4210   45.8130 C   0  0  0  0  0  0  0  0  0  0  0  0
   58.9760   24.9250   45.9210 C   0  0  0  0  0  0  0  0  0  0  0  0
   59.9070   25.6090   46.5780 O   0  0  0  0  0  0  0  0  0  0  0  0
   59.6600   26.7750   47.1670 C   0  0  0  0  0  0  0  0  0  0  0  0
   60.6870   27.4400   47.8420 C   0  0  0  0  0  0  0  0  0  0  0  0
   60.4480   28.6660   48.4720 C   0  0  0  0  0  0  0  0  0  0  0  0
   61.5200   29.2900   49.1310 O   0  0  0  0  0  0  0  0  0  0  0  0
   61.8510   30.6760   49.0490 C   0  0  0  0  0  0  0  0  0  0  0  0
   61.9200   31.1560   47.6210 C   0  0  0  0  0  0  0  0  0  0  0  0
   62.6810   32.1190   47.3460 O   0  0  0  0  0  0  0  0  0  0  0  0
   61.1260   30.5840   46.5700 N   0  0  0  0  0  0  0  0  0  0  0  0
   59.8850   31.0900   46.0590 C   0  0  0  0  0  0  0  0  0  0  0  0
   59.5860   32.4480   46.2250 C   0  0  0  0  0  0  0  0  0  0  0  0
   58.3830   32.9700   45.7420 C   0  0  0  0  0  0  0  0  0  0  0  0
   57.4770   32.1400   45.0780 C   0  0  0  0  0  0  0  0  0  0  0  0
   57.7740   30.7840   44.8860 C   0  0  0  0  0  0  0  0  0  0  0  0
   56.6430   29.7500   44.0170 S   0  0  0  0  0  0  0  0  0  0  0  0
   57.3720   28.2100   43.7260 N   0  0  0  0  0  0  0  0  0  0  0  0
   55.3900   29.5660   44.8280 O   0  0  0  0  0  0  0  0  0  0  0  0
   56.2790   30.3900   42.7060 O   0  0  0  0  0  0  0  0  0  0  0  0
   58.9860   30.2650   45.3600 C   0  0  0  0  0  0  0  0  0  0  0  0
   59.1580   29.2300   48.4220 C   0  0  0  0  0  0  0  0  0  0  0  0
   58.1250   28.5710   47.7490 C   0  0  0  0  0  0  0  0  0  0  0  0
   58.3650   27.3390   47.1160 C   0  0  0  0  0  0  0  0  0  0  0  0
   57.3580   26.6380   46.4330 C   0  0  0  0  0  0  0  0  0  0  0  0
   56.1820   27.0890   46.3740 O   0  0  0  0  0  0  0  0  0  0  0  0
   56.7784   22.8198   48.8157 H   0  0  0  0  0  0  0  0  0  0  0  0
   56.1595   24.0437   47.6556 H   0  0  0  0  0  0  0  0  0  0  0  0
   55.4790   22.3813   47.6556 H   0  0  0  0  0  0  0  0  0  0  0  0
   57.4537   20.1781   45.5933 H   0  0  0  0  0  0  0  0  0  0  0  0
   57.0712   19.8127   43.1560 H   0  0  0  0  0  0  0  0  0  0  0  0
   56.5499   21.7433   41.6671 H   0  0  0  0  0  0  0  0  0  0  0  0
   56.3779   24.0427   42.6150 H   0  0  0  0  0  0  0  0  0  0  0  0
   59.2337   23.9614   45.4572 H   0  0  0  0  0  0  0  0  0  0  0  0
   61.6925   26.9955   47.8783 H   0  0  0  0  0  0  0  0  0  0  0  0
   61.0839   31.2566   49.5823 H   0  0  0  0  0  0  0  0  0  0  0  0
   62.8430   30.8162   49.5033 H   0  0  0  0  0  0  0  0  0  0  0  0
   60.3017   33.1072   46.7382 H   0  0  0  0  0  0  0  0  0  0  0  0
   58.1495   34.0354   45.8849 H   0  0  0  0  0  0  0  0  0  0  0  0
   56.5277   32.5518   44.7047 H   0  0  0  0  0  0  0  0  0  0  0  0
   57.0860   27.9130   42.7660 H   0  0  0  0  0  0  0  0  0  0  0  0
   56.9340   27.5350   44.3930 H   0  0  0  0  0  0  0  0  0  0  0  0
   59.2353   29.2081   45.1847 H   0  0  0  0  0  0  0  0  0  0  0  0
   58.9626   30.1937   48.9150 H   0  0  0  0  0  0  0  0  0  0  0  0
   57.1206   29.0182   47.7146 H   0  0  0  0  0  0  0  0  0  0  0  0
  1  2  1  0
  2  3  1  0
  3  4  2  0
  4  5  1  0
  5  6  2  0
  6  7  1  0
  7  8  2  0
  8  9  1  0
  9 10  1  0
 10 11  2  0
 11 12  1  0
 12 13  1  0
 13 14  2  0
 14 15  1  0
 15 16  1  0
 16 17  1  0
 17 18  1  0
 18 19  2  0
 18 20  1  0
 20 21  1  0
 21 22  2  0
 22 23  1  0
 23 24  2  0
 24 25  1  0
 25 26  1  0
 26 27  1  0
 26 28  2  0
 26 29  2  0
 25 30  2  0
 15 31  2  0
 31 32  1  0
 32 33  2  0
 33 34  1  0
 34 35  2  0
  8  3  1  0
 34 10  1  0
 33 13  1  0
 30 21  1  0
  1 36  1  0
  1 37  1  0
  1 38  1  0
  4 39  1  0
  5 40  1  0
  6 41  1  0
  7 42  1  0
 11 43  1  0
 14 44  1  0
 17 45  1  0
 17 46  1  0
 22 47  1  0
 23 48  1  0
 24 49  1  0
 27 50  1  0
 27 51  1  0
 30 52  1  0
 31 53  1  0
 32 54  1  0
M  CHG  1  20  -1
M  END
>  <UniqueID>  (4) 
4

>  <SMILES>  (4) 
COc1ccccc1Oc1coc2cc(OCC(=O)[N-]c3cccc(S(N)(=O)=O)c3)ccc2c1=O

>  <Energy>  (4) 
72.66572597952172

>  <Genealogy>  (4) 
COc1ccccc1Oc1coc2cc(OCC(=O)[N-]c3cccc(S(N)(=O)=O)c3)ccc2c1=O (protonated)
COc1ccccc1Oc1coc2cc(OCC(=O)[N-]c3cccc(S(N)(=O)=O)c3)ccc2c1=O (3D coordinates assigned)
COc1ccccc1Oc1coc2cc(OCC(=O)[N-]c3cccc(S(N)(=O)=O)c3)ccc2c1=O (optimized conformer: 72.66572597952172 kcal/mol)

>  <smiles>  (4) 
COc1ccccc1Oc1coc2cc(OCC(=O)Nc3cccc(S(N)(=O)=O)c3)ccc2c1=O

>  <score_type>  (4) 
oracle

>  <origin>  (4) 
adg

>  <m_score__min__energy>  (4) 
-10.49

>  <m_primary>  (4) 
energy

$$$$
4:0
     RDKit          3D

 39 41  0  0  0  0  0  0  0  0999 V2000
   55.1130   30.1340   45.6310 H   0  0  0  0  0  0  0  0  0  0  0  0
   55.3330   29.2510   45.1870 O   0  0  0  0  0  0  0  0  0  0  0  0
   56.6300   28.7440   45.0930 C   0  0  0  0  0  0  0  0  0  0  0  0
   56.8050   27.4390   45.2830 O   0  0  0  0  0  0  0  0  0  0  0  0
   57.9850   26.8380   45.1730 C   0  0  0  0  0  0  0  0  0  0  0  0
   58.0800   25.3590   45.3900 C   0  0  0  0  0  0  0  0  0  0  0  0
   58.8926   24.9516   44.7705 H   0  0  0  0  0  0  0  0  0  0  0  0
   58.2859   25.1630   46.4526 H   0  0  0  0  0  0  0  0  0  0  0  0
   56.8730   24.7430   45.0350 O   0  0  0  0  0  0  0  0  0  0  0  0
   56.3120   25.4420   44.6060 H   0  0  0  0  0  0  0  0  0  0  0  0
   59.1180   27.5800   44.8220 C   0  0  0  0  0  0  0  0  0  0  0  0
   60.0937   27.0863   44.7026 H   0  0  0  0  0  0  0  0  0  0  0  0
   58.9920   28.9530   44.6260 C   0  0  0  0  0  0  0  0  0  0  0  0
   60.0140   29.6330   44.3330 O   0  0  0  0  0  0  0  0  0  0  0  0
   57.7360   29.5680   44.7740 C   0  0  0  0  0  0  0  0  0  0  0  0
   57.6000   31.0340   44.6170 C   0  0  0  0  0  0  0  0  0  0  0  0
   56.6840   31.6340   45.2410 O   0  0  0  0  0  0  0  0  0  0  0  0
   58.4450   31.7530   43.6370 C   0  0  0  0  0  0  0  0  0  0  0  0
   59.0785   31.1421   42.9771 H   0  0  0  0  0  0  0  0  0  0  0  0
   58.5060   33.0850   43.4830 C   0  0  0  0  0  0  0  0  0  0  0  0
   58.7440   33.4717   42.4811 H   0  0  0  0  0  0  0  0  0  0  0  0
   58.2770   34.0700   44.5600 C   0  0  0  0  0  0  0  0  0  0  0  0
   57.2583   34.4334   44.7607 H   0  0  0  0  0  0  0  0  0  0  0  0
   59.3010   34.5230   45.2930 C   0  0  0  0  0  0  0  0  0  0  0  0
   59.5940   35.5771   45.1791 H   0  0  0  0  0  0  0  0  0  0  0  0
   60.0640   33.6840   46.2510 C   0  0  0  0  0  0  0  0  0  0  0  0
   59.4440   32.6820   47.0520 C   0  0  0  0  0  0  0  0  0  0  0  0
   58.3620   32.5051   46.9626 H   0  0  0  0  0  0  0  0  0  0  0  0
   60.2030   31.9170   47.9560 C   0  0  0  0  0  0  0  0  0  0  0  0
   59.7336   31.1365   48.5728 H   0  0  0  0  0  0  0  0  0  0  0  0
   61.5660   32.1790   48.0450 C   0  0  0  0  0  0  0  0  0  0  0  0
   62.1630   33.1390   47.2980 C   0  0  0  0  0  0  0  0  0  0  0  0
   61.4510   33.9190   46.3920 C   0  0  0  0  0  0  0  0  0  0  0  0
   61.9542   34.6983   45.8008 H   0  0  0  0  0  0  0  0  0  0  0  0
   63.5110   33.1820   47.5960 O   0  0  0  0  0  0  0  0  0  0  0  0
   63.7770   32.1850   48.5930 C   0  0  0  0  0  0  0  0  0  0  0  0
   64.4965   31.4435   48.2155 H   0  0  0  0  0  0  0  0  0  0  0  0
   64.2184   32.6186   49.5025 H   0  0  0  0  0  0  0  0  0  0  0  0
   62.5080   31.5690   48.8520 O   0  0  0  0  0  0  0  0  0  0  0  0
  1  2  1  0
  2  3  1  0
  3  4  1  0
  4  5  1  0
  5  6  1  0
  6  7  1  0
  6  8  1  0
  6  9  1  0
  9 10  1  0
  5 11  2  0
 11 12  1  0
 11 13  1  0
 13 14  2  0
 13 15  1  0
 15 16  1  0
 16 17  2  0
 16 18  1  0
 18 19  1  0
 18 20  2  0
 20 21  1  0
 20 22  1  0
 22 23  1  0
 22 24  2  0
 24 25  1  0
 24 26  1  0
 26 27  2  0
 27 28  1  0
 27 29  1  0
 29 30  1  0
 29 31  2  0
 31 32  1  0
 32 33  2  0
 33 34  1  0
 32 35  1  0
 35 36  1  0
 36 37  1  0
 36 38  1  0
 36 39  1  0
 15  3  2  0
 33 26  1  0
 39 31  1  0
M  END
>  <UniqueID>  (5) 
5

>  <SMILES>  (5) 
O=C(C=C/C=C/c1ccc2c(c1)OCO2)c1c(O)oc(CO)cc1=O

>  <Energy>  (5) 
81.67776027420969

>  <Genealogy>  (5) 
O=C(C=C/C=C/c1ccc2c(c1)OCO2)c1c(O)oc(CO)cc1=O (cis-trans isomerization)
O=C(C=C/C=C/c1ccc2c(c1)OCO2)c1c(O)oc(CO)cc1=O (3D coordinates assigned)
O=C(C=C/C=C/c1ccc2c(c1)OCO2)c1c(O)oc(CO)cc1=O (nonaromatic ring conformer: 81.67776027420969 kcal/mol)

>  <smiles>  (5) 
O=C(C=CC=Cc1ccc2c(c1)OCO2)c1c(O)oc(CO)cc1=O

>  <score_type>  (5) 
oracle

>  <origin>  (5) 
adg

>  <m_score__min__energy>  (5) 
-8.8800000000000008

>  <m_primary>  (5) 
energy

$$$$
5:0
     RDKit          3D

 32 33  0  0  0  0  0  0  0  0999 V2000
   58.8790   28.3370   48.2510 N   0  0  0  0  0  0  0  0  0  0  0  0
   60.2580   29.1290   48.9290 S   0  0  0  0  0  0  0  0  0  0  0  0
   61.0710   28.1380   49.7150 O   0  0  0  0  0  0  0  0  0  0  0  0
   61.1110   29.6810   47.8220 O   0  0  0  0  0  0  0  0  0  0  0  0
   59.7270   30.4330   49.9860 C   0  0  0  0  0  0  0  0  0  0  0  0
   60.5870   31.4990   50.2780 C   0  0  0  0  0  0  0  0  0  0  0  0
   60.1550   32.5420   51.0980 C   0  0  0  0  0  0  0  0  0  0  0  0
   58.8630   32.5290   51.6310 C   0  0  0  0  0  0  0  0  0  0  0  0
   57.9870   31.4650   51.3500 C   0  0  0  0  0  0  0  0  0  0  0  0
   56.6140   31.4630   51.9110 C   0  0  0  0  0  0  0  0  0  0  0  0
   56.1270   32.5350   52.3630 O   0  0  0  0  0  0  0  0  0  0  0  0
   55.8520   30.2460   51.9890 N   0  0  0  0  0  0  0  0  0  0  0  0
   54.4210   30.2080   52.1210 C   0  0  0  0  0  0  0  0  0  0  0  0
   53.8140   29.0860   52.7030 C   0  0  0  0  0  0  0  0  0  0  0  0
   52.4250   29.0170   52.8240 C   0  0  0  0  0  0  0  0  0  0  0  0
   51.6250   30.0620   52.3540 C   0  0  0  0  0  0  0  0  0  0  0  0
   52.2110   31.1870   51.7470 C   0  0  0  0  0  0  0  0  0  0  0  0
   51.3680   32.2880   51.2320 C   0  0  0  0  0  0  0  0  0  0  0  0
   50.9560   33.1950   52.0050 O   0  0  0  0  0  0  0  0  0  0  0  0
   51.0180   32.3390   49.8870 O   0  0  0  0  0  0  0  0  0  0  0  0
   53.6110   31.2490   51.6290 C   0  0  0  0  0  0  0  0  0  0  0  0
   58.4280   30.4220   50.5150 C   0  0  0  0  0  0  0  0  0  0  0  0
   58.9700   27.3210   48.4770 H   0  0  0  0  0  0  0  0  0  0  0  0
   61.6045   31.5141   49.8603 H   0  0  0  0  0  0  0  0  0  0  0  0
   60.8335   33.3773   51.3257 H   0  0  0  0  0  0  0  0  0  0  0  0
   58.5291   33.3563   52.2745 H   0  0  0  0  0  0  0  0  0  0  0  0
   56.3740   29.3450   52.0710 H   0  0  0  0  0  0  0  0  0  0  0  0
   54.4362   28.2549   53.0665 H   0  0  0  0  0  0  0  0  0  0  0  0
   51.9586   28.1370   53.2909 H   0  0  0  0  0  0  0  0  0  0  0  0
   50.5316   30.0043   52.4594 H   0  0  0  0  0  0  0  0  0  0  0  0
   54.0782   32.1204   51.1470 H   0  0  0  0  0  0  0  0  0  0  0  0
   57.7484   29.5910   50.2750 H   0  0  0  0  0  0  0  0  0  0  0  0
  1  2  1  0
  2  3  2  0
  2  4  2  0
  2  5  1  0
  5  6  2  0
  6  7  1  0
  7  8  2  0
  8  9  1  0
  9 10  1  0
 10 11  2  0
 10 12  1  0
 12 13  1  0
 13 14  2  0
 14 15  1  0
 15 16  2  0
 16 17  1  0
 17 18  1  0
 18 19  2  0
 18 20  1  0
 17 21  2  0
  9 22  2  0
 22  5  1  0
 21 13  1  0
  1 23  1  0
  6 24  1  0
  7 25  1  0
  8 26  1  0
 12 27  1  0
 14 28  1  0
 15 29  1  0
 16 30  1  0
 21 31  1  0
 22 32  1  0
M  CHG  2   1  -1  20  -1
M  END
>  <UniqueID>  (6) 
6

>  <SMILES>  (6) 
[NH-]S(=O)(=O)c1cccc(C(=O)Nc2cccc(C(=O)[O-])c2)c1

>  <Energy>  (6) 
38.68081315281522

>  <Genealogy>  (6) 
[NH-]S(=O)(=O)c1cccc(C(=O)Nc2cccc(C(=O)[O-])c2)c1 (protonated)
[NH-]S(=O)(=O)c1cccc(C(=O)Nc2cccc(C(=O)[O-])c2)c1 (3D coordinates assigned)
[NH-]S(=O)(=O)c1cccc(C(=O)Nc2cccc(C(=O)[O-])c2)c1 (optimized conformer: 38.68081315281522 kcal/mol)

>  <smiles>  (6) 
NS(=O)(=O)c1cccc(C(=O)Nc2cccc(C(=O)O)c2)c1

>  <score_type>  (6) 
oracle

>  <origin>  (6) 
adg

>  <m_score__min__energy>  (6) 
-11.57

>  <m_primary>  (6) 
energy

$$$$
6:0
     RDKit          3D

 40 43  0  0  0  0  0  0  0  0999 V2000
   54.8110   26.3350   45.9630 N   0  0  0  0  0  0  0  0  0  0  0  0
   55.7190   25.2560   46.1750 C   0  0  0  0  0  0  0  0  0  0  0  0
   55.2580   24.1090   46.4220 O   0  0  0  0  0  0  0  0  0  0  0  0
   57.1850   25.4690   46.1080 C   0  0  0  0  0  0  0  0  0  0  0  0
   58.0860   24.3910   46.2910 C   0  0  0  0  0  0  0  0  0  0  0  0
   59.4810   24.5910   46.2180 C   0  0  0  0  0  0  0  0  0  0  0  0
   60.0040   25.8680   45.9580 C   0  0  0  0  0  0  0  0  0  0  0  0
   59.1030   26.9130   45.7820 C   0  0  0  0  0  0  0  0  0  0  0  0
   59.3880   28.1960   45.5180 N   0  0  0  0  0  0  0  0  0  0  0  0
   58.1550   28.7610   45.4400 C   0  0  0  0  0  0  0  0  0  0  0  0
   57.9480   30.1840   45.1470 C   0  0  0  0  0  0  0  0  0  0  0  0
   57.5460   30.7150   43.9260 C   0  0  0  0  0  0  0  0  0  0  0  0
   57.4040   32.1080   43.9500 C   0  0  0  0  0  0  0  0  0  0  0  0
   57.6930   32.6710   45.1890 C   0  0  0  0  0  0  0  0  0  0  0  0
   57.6220   34.0980   45.5270 C   0  0  0  0  0  0  0  0  0  0  0  0
   56.8740   34.8650   44.8650 O   0  0  0  0  0  0  0  0  0  0  0  0
   58.4020   34.6110   46.6120 N   0  0  0  0  0  0  0  0  0  0  0  0
   59.7040   35.2440   46.4410 C   0  0  0  0  0  0  0  0  0  0  0  0
   60.7600   34.4690   47.1800 C   0  0  0  0  0  0  0  0  0  0  0  0
   60.6850   34.3040   48.5740 C   0  0  0  0  0  0  0  0  0  0  0  0
   61.6600   33.5610   49.2470 C   0  0  0  0  0  0  0  0  0  0  0  0
   62.7120   32.9750   48.5370 C   0  0  0  0  0  0  0  0  0  0  0  0
   63.9320   32.0430   49.3850 Cl  0  0  0  0  0  0  0  0  0  0  0  0
   62.7900   33.1310   47.1500 C   0  0  0  0  0  0  0  0  0  0  0  0
   61.8180   33.8740   46.4730 C   0  0  0  0  0  0  0  0  0  0  0  0
   58.1230   31.4400   46.2550 S   0  0  0  0  0  0  0  0  0  0  0  0
   57.1280   27.8970   45.6390 N   0  0  0  0  0  0  0  0  0  0  0  0
   57.7540   26.7290   45.8540 C   0  0  0  0  0  0  0  0  0  0  0  0
   55.1390   27.3250   45.9870 H   0  0  0  0  0  0  0  0  0  0  0  0
   57.6925   23.3838   46.4929 H   0  0  0  0  0  0  0  0  0  0  0  0
   60.1633   23.7409   46.3657 H   0  0  0  0  0  0  0  0  0  0  0  0
   61.0893   26.0362   45.8956 H   0  0  0  0  0  0  0  0  0  0  0  0
   57.3585   30.1026   43.0317 H   0  0  0  0  0  0  0  0  0  0  0  0
   57.0944   32.6989   43.0753 H   0  0  0  0  0  0  0  0  0  0  0  0
   59.9564   35.2723   45.3707 H   0  0  0  0  0  0  0  0  0  0  0  0
   59.6614   36.2665   46.8442 H   0  0  0  0  0  0  0  0  0  0  0  0
   59.8574   34.7604   49.1368 H   0  0  0  0  0  0  0  0  0  0  0  0
   61.5990   33.4373   50.3383 H   0  0  0  0  0  0  0  0  0  0  0  0
   63.6168   32.6688   46.5907 H   0  0  0  0  0  0  0  0  0  0  0  0
   61.8822   33.9932   45.3814 H   0  0  0  0  0  0  0  0  0  0  0  0
  1  2  1  0
  2  3  2  0
  2  4  1  0
  4  5  2  0
  5  6  1  0
  6  7  2  0
  7  8  1  0
  8  9  1  0
  9 10  1  0
 10 11  1  0
 11 12  2  0
 12 13  1  0
 13 14  2  0
 14 15  1  0
 15 16  2  0
 15 17  1  0
 17 18  1  0
 18 19  1  0
 19 20  2  0
 20 21  1  0
 21 22  2  0
 22 23  1  0
 22 24  1  0
 24 25  2  0
 14 26  1  0
 10 27  2  0
 27 28  1  0
 28  4  1  0
 28  8  2  0
 26 11  1  0
 25 19  1  0
  1 29  1  0
  5 30  1  0
  6 31  1  0
  7 32  1  0
 12 33  1  0
 13 34  1  0
 18 35  1  0
 18 36  1  0
 20 37  1  0
 21 38  1  0
 24 39  1  0
 25 40  1  0
M  CHG  3   1  -1   9  -1  17  -1
M  END
>  <UniqueID>  (7) 
7

>  <SMILES>  (7) 
[NH-]C(=O)c1cccc2[n-]c(-c3ccc(C(=O)[N-]Cc4ccc(Cl)cc4)s3)nc12

>  <Energy>  (7) 
102.15995592500074

>  <Genealogy>  (7) 
[NH-]C(=O)c1cccc2[n-]c(-c3ccc(C(=O)[N-]Cc4ccc(Cl)cc4)s3)nc12 (protonated)
[NH-]C(=O)c1cccc2[n-]c(-c3ccc(C(=O)[N-]Cc4ccc(Cl)cc4)s3)nc12 (3D coordinates assigned)
[NH-]C(=O)c1cccc2[n-]c(-c3ccc(C(=O)[N-]Cc4ccc(Cl)cc4)s3)nc12 (optimized conformer: 102.15995592500074 kcal/mol)

>  <smiles>  (7) 
NC(=O)c1cccc2[nH]c(-c3ccc(C(=O)NCc4ccc(Cl)cc4)s3)nc12

>  <score_type>  (7) 
oracle

>  <origin>  (7) 
adg

>  <m_score__min__energy>  (7) 
-14.33

>  <m_primary>  (7) 
energy

$$$$
7:0
     RDKit          3D

 25 26  0  0  0  0  0  0  0  0999 V2000
   53.5784   24.8609   44.8076 H   0  0  0  0  0  0  0  0  0  0  0  0
   54.6550   24.6790   44.9410 C   0  0  0  0  0  0  0  0  0  0  0  0
   55.2420   23.5410   44.3830 C   0  0  0  0  0  0  0  0  0  0  0  0
   54.6286   22.8318   43.8079 H   0  0  0  0  0  0  0  0  0  0  0  0
   56.6080   23.3030   44.5550 C   0  0  0  0  0  0  0  0  0  0  0  0
   57.4060   21.7430   43.7970 Br  0  0  0  0  0  0  0  0  0  0  0  0
   57.3900   24.2080   45.2780 C   0  0  0  0  0  0  0  0  0  0  0  0
   58.4635   24.0120   45.4161 H   0  0  0  0  0  0  0  0  0  0  0  0
   56.8160   25.3680   45.8310 C   0  0  0  0  0  0  0  0  0  0  0  0
   57.6760   26.3200   46.5780 C   0  0  0  0  0  0  0  0  0  0  0  0
   58.6620   25.8810   47.2280 O   0  0  0  0  0  0  0  0  0  0  0  0
   57.3860   27.7250   46.6380 N   0  0  0  0  0  0  0  0  0  0  0  0
   57.2080   28.5430   45.6360 C   0  0  0  0  0  0  0  0  0  0  0  0
   58.2720   29.2620   45.0500 C   0  0  0  0  0  0  0  0  0  0  0  0
   59.2967   29.1440   45.4321 H   0  0  0  0  0  0  0  0  0  0  0  0
   58.0150   30.1240   43.9820 C   0  0  0  0  0  0  0  0  0  0  0  0
   58.8394   30.6825   43.5145 H   0  0  0  0  0  0  0  0  0  0  0  0
   56.7130   30.2760   43.5090 C   0  0  0  0  0  0  0  0  0  0  0  0
   56.5034   30.9479   42.6637 H   0  0  0  0  0  0  0  0  0  0  0  0
   55.6790   29.5670   44.1190 C   0  0  0  0  0  0  0  0  0  0  0  0
   54.6468   29.6845   43.7574 H   0  0  0  0  0  0  0  0  0  0  0  0
   55.9410   28.7300   45.1600 N   0  0  0  0  0  0  0  0  0  0  0  0
   55.1440   28.2130   45.5950 H   0  0  0  0  0  0  0  0  0  0  0  0
   55.4300   25.5890   45.6690 C   0  0  0  0  0  0  0  0  0  0  0  0
   54.8080   26.6920   46.2440 O   0  0  0  0  0  0  0  0  0  0  0  0
  1  2  1  0
  2  3  2  0
  3  4  1  0
  3  5  1  0
  5  6  1  0
  5  7  2  0
  7  8  1  0
  7  9  1  0
  9 10  1  0
 10 11  2  0
 10 12  1  0
 12 13  2  0
 13 14  1  0
 14 15  1  0
 14 16  2  0
 16 17  1  0
 16 18  1  0
 18 19  1  0
 18 20  2  0
 20 21  1  0
 20 22  1  0
 22 23  1  0
  9 24  2  0
 24 25  1  0
 24  2  1  0
 22 13  1  0
M  CHG  1  25  -1
M  END
>  <UniqueID>  (8) 
8

>  <SMILES>  (8) 
O=C(/N=c1\cccc[nH]1)c1cc(Br)ccc1[O-]

>  <Energy>  (8) 
38.470242447943264

>  <Genealogy>  (8) 
O=C(N=c1cccc[nH]1)c1cc(Br)ccc1[O-] (protonated)
O=C(/N=c1\cccc[nH]1)c1cc(Br)ccc1[O-] (cis-trans isomerization)
O=C(/N=c1\cccc[nH]1)c1cc(Br)ccc1[O-] (3D coordinates assigned)
O=C(/N=c1\cccc[nH]1)c1cc(Br)ccc1[O-] (optimized conformer: 38.470242447943264 kcal/mol)

>  <smiles>  (8) 
O=C(N=c1cccc[nH]1)c1cc(Br)ccc1O

>  <score_type>  (8) 
oracle

>  <origin>  (8) 
adg

>  <m_score__min__energy>  (8) 
-10.65

>  <m_primary>  (8) 
energy

$$$$
8:0
     RDKit          3D

 32 34  0  0  0  0  0  0  0  0999 V2000
   55.6200   25.4550   46.7450 O   0  0  0  0  0  0  0  0  0  0  0  0
   56.4050   26.3580   46.3550 C   0  0  0  0  0  0  0  0  0  0  0  0
   57.8830   26.2290   46.5880 C   0  0  0  0  0  0  0  0  0  0  0  0
   58.5390   27.5000   46.5290 O   0  0  0  0  0  0  0  0  0  0  0  0
   58.0820   28.5650   45.7410 C   0  0  0  0  0  0  0  0  0  0  0  0
   56.7620   28.5500   45.2640 C   0  0  0  0  0  0  0  0  0  0  0  0
   56.2820   29.6070   44.4860 C   0  0  0  0  0  0  0  0  0  0  0  0
   57.1190   30.6820   44.1820 C   0  0  0  0  0  0  0  0  0  0  0  0
   58.4320   30.7100   44.6620 C   0  0  0  0  0  0  0  0  0  0  0  0
   58.9300   29.6510   45.4470 C   0  0  0  0  0  0  0  0  0  0  0  0
   60.2800   29.6590   45.9500 N   0  0  0  0  0  0  0  0  0  0  0  0
   60.8280   30.7090   47.2200 S   0  0  0  0  0  0  0  0  0  0  0  0
   62.3240   30.8290   47.1510 O   0  0  0  0  0  0  0  0  0  0  0  0
   60.4470   30.1160   48.5470 O   0  0  0  0  0  0  0  0  0  0  0  0
   60.1230   32.3100   47.0250 C   0  0  0  0  0  0  0  0  0  0  0  0
   58.7650   32.5290   47.3010 C   0  0  0  0  0  0  0  0  0  0  0  0
   58.2100   33.8020   47.1330 C   0  0  0  0  0  0  0  0  0  0  0  0
   59.0100   34.8600   46.6910 C   0  0  0  0  0  0  0  0  0  0  0  0
   60.3640   34.6480   46.4190 C   0  0  0  0  0  0  0  0  0  0  0  0
   60.9220   33.3770   46.5870 C   0  0  0  0  0  0  0  0  0  0  0  0
   55.8980   27.4710   45.6170 N   0  0  0  0  0  0  0  0  0  0  0  0
   58.0505   25.7867   47.5811 H   0  0  0  0  0  0  0  0  0  0  0  0
   58.3013   25.5891   45.7971 H   0  0  0  0  0  0  0  0  0  0  0  0
   55.2469   29.5919   44.1140 H   0  0  0  0  0  0  0  0  0  0  0  0
   56.7443   31.5101   43.5625 H   0  0  0  0  0  0  0  0  0  0  0  0
   59.0814   31.5656   44.4249 H   0  0  0  0  0  0  0  0  0  0  0  0
   61.0080   29.0760   45.4810 H   0  0  0  0  0  0  0  0  0  0  0  0
   58.1351   31.6976   47.6504 H   0  0  0  0  0  0  0  0  0  0  0  0
   57.1446   33.9706   47.3486 H   0  0  0  0  0  0  0  0  0  0  0  0
   58.5729   35.8605   46.5572 H   0  0  0  0  0  0  0  0  0  0  0  0
   60.9918   35.4821   46.0722 H   0  0  0  0  0  0  0  0  0  0  0  0
   61.9890   33.2133   46.3755 H   0  0  0  0  0  0  0  0  0  0  0  0
  1  2  2  0
  2  3  1  0
  3  4  1  0
  4  5  1  0
  5  6  2  0
  6  7  1  0
  7  8  2  0
  8  9  1  0
  9 10  2  0
 10 11  1  0
 11 12  1  0
 12 13  2  0
 12 14  2  0
 12 15  1  0
 15 16  2  0
 16 17  1  0
 17 18  2  0
 18 19  1  0
 19 20  2  0
  6 21  1  0
 21  2  1  0
 10  5  1  0
 20 15  1  0
  3 22  1  0
  3 23  1  0
  7 24  1  0
  8 25  1  0
  9 26  1  0
 11 27  1  0
 16 28  1  0
 17 29  1  0
 18 30  1  0
 19 31  1  0
 20 32  1  0
M  CHG  1  21  -1
M  END
>  <UniqueID>  (9) 
9

>  <SMILES>  (9) 
O=C1COc2c(cccc2NS(=O)(=O)c2ccccc2)[N-]1

>  <Energy>  (9) 
39.35599159069949

>  <Genealogy>  (9) 
O=C1COc2c(cccc2NS(=O)(=O)c2ccccc2)[N-]1 (protonated)
O=C1COc2c(cccc2NS(=O)(=O)c2ccccc2)[N-]1 (3D coordinates assigned)
O=C1COc2c(cccc2NS(=O)(=O)c2ccccc2)[N-]1 (nonaromatic ring conformer: 39.35599159069949 kcal/mol)

>  <smiles>  (9) 
O=C1COc2c(cccc2NS(=O)(=O)c2ccccc2)N1

>  <score_type>  (9) 
oracle

>  <origin>  (9) 
adg

>  <m_score__min__energy>  (9) 
-9.1799999999999997

>  <m_primary>  (9) 
energy

$$$$
9:0
     RDKit          3D

 29 31  0  0  0  0  0  0  0  0999 V2000
   55.6031   24.2084   47.3445 H   0  0  0  0  0  0  0  0  0  0  0  0
   56.2950   24.8670   46.7990 C   0  0  0  0  0  0  0  0  0  0  0  0
   55.8640   26.0710   46.3340 N   0  0  0  0  0  0  0  0  0  0  0  0
   56.6760   26.9200   45.6470 C   0  0  0  0  0  0  0  0  0  0  0  0
   56.1840   28.0600   45.2480 N   0  0  0  0  0  0  0  0  0  0  0  0
   56.8330   29.3420   45.2500 C   0  0  0  0  0  0  0  0  0  0  0  0
   56.4160   30.3690   44.3910 C   0  0  0  0  0  0  0  0  0  0  0  0
   55.6069   30.1837   43.6692 H   0  0  0  0  0  0  0  0  0  0  0  0
   57.0230   31.6270   44.4470 C   0  0  0  0  0  0  0  0  0  0  0  0
   56.7008   32.4192   43.7552 H   0  0  0  0  0  0  0  0  0  0  0  0
   58.0440   31.8890   45.3820 C   0  0  0  0  0  0  0  0  0  0  0  0
   58.6960   33.2230   45.4470 C   0  0  0  0  0  0  0  0  0  0  0  0
   58.5340   34.1610   44.5400 O   0  0  0  0  0  0  0  0  0  0  0  0
   59.2380   35.2140   44.8820 C   0  0  0  0  0  0  0  0  0  0  0  0
   59.2951   36.1514   44.3092 H   0  0  0  0  0  0  0  0  0  0  0  0
   59.8950   34.9670   46.0680 C   0  0  0  0  0  0  0  0  0  0  0  0
   60.5605   35.6544   46.6108 H   0  0  0  0  0  0  0  0  0  0  0  0
   59.5500   33.6860   46.4360 C   0  0  0  0  0  0  0  0  0  0  0  0
   59.8837   33.1413   47.3315 H   0  0  0  0  0  0  0  0  0  0  0  0
   58.4300   30.8620   46.2680 C   0  0  0  0  0  0  0  0  0  0  0  0
   59.3970   31.0660   47.1980 F   0  0  0  0  0  0  0  0  0  0  0  0
   57.8180   29.6060   46.2060 C   0  0  0  0  0  0  0  0  0  0  0  0
   58.1143   28.8193   46.9155 H   0  0  0  0  0  0  0  0  0  0  0  0
   58.0220   26.5530   45.4310 C   0  0  0  0  0  0  0  0  0  0  0  0
   58.7040   27.2326   44.8990 H   0  0  0  0  0  0  0  0  0  0  0  0
   58.4800   25.3190   45.8990 C   0  0  0  0  0  0  0  0  0  0  0  0
   59.5242   25.0188   45.7270 H   0  0  0  0  0  0  0  0  0  0  0  0
   57.6140   24.4680   46.5840 C   0  0  0  0  0  0  0  0  0  0  0  0
   57.9670   23.4929   46.9508 H   0  0  0  0  0  0  0  0  0  0  0  0
  1  2  1  0
  2  3  1  0
  3  4  1  0
  4  5  2  0
  5  6  1  0
  6  7  2  0
  7  8  1  0
  7  9  1  0
  9 10  1  0
  9 11  2  0
 11 12  1  0
 12 13  1  0
 13 14  1  0
 14 15  1  0
 14 16  2  0
 16 17  1  0
 16 18  1  0
 18 19  1  0
 11 20  1  0
 20 21  1  0
 20 22  2  0
 22 23  1  0
  4 24  1  0
 24 25  1  0
 24 26  2  0
 26 27  1  0
 26 28  1  0
 28 29  1  0
 28  2  2  0
 22  6  1  0
 18 12  2  0
M  CHG  1   3  -1
M  END
>  <UniqueID>  (10) 
10

>  <SMILES>  (10) 
Fc1cc(/N=c2\cccc[n-]2)ccc1-c1ccco1

>  <Energy>  (10) 
70.16093881590511

>  <Genealogy>  (10) 
Fc1cc(N=c2cccc[n-]2)ccc1-c1ccco1 (protonated)
Fc1cc(/N=c2\cccc[n-]2)ccc1-c1ccco1 (cis-trans isomerization)
Fc1cc(/N=c2\cccc[n-]2)ccc1-c1ccco1 (3D coordinates assigned)
Fc1cc(/N=c2\cccc[n-]2)ccc1-c1ccco1 (optimized conformer: 70.16093881590511 kcal/mol)

>  <smiles>  (10) 
Fc1cc(N=c2cccc[nH]2)ccc1-c1ccco1

>  <score_type>  (10) 
oracle

>  <origin>  (10) 
adg

>  <m_score__min__energy>  (10) 
-7.9699999999999998

>  <m_primary>  (10) 
energy

$$$$
10:0
     RDKit          3D

 56 60  0  0  0  0  0  0  0  0999 V2000
   58.5220   33.2410   43.8460 C   0  0  0  0  0  0  0  0  0  0  0  0
   59.0290   34.0650   44.9880 C   0  0  0  0  0  0  0  0  0  0  0  0
   59.4020   35.3610   44.8790 N   0  0  0  0  0  0  0  0  0  0  0  0
   59.7520   35.7990   46.0570 O   0  0  0  0  0  0  0  0  0  0  0  0
   59.6270   34.8290   46.9280 C   0  0  0  0  0  0  0  0  0  0  0  0
   59.8620   34.8950   48.2580 N   0  0  0  0  0  0  0  0  0  0  0  0
   59.6420   33.7750   49.0070 C   0  0  0  0  0  0  0  0  0  0  0  0
   59.9930   33.8020   50.7620 S   0  0  0  0  0  0  0  0  0  0  0  0
   61.3280   32.5550   50.6770 C   0  0  0  0  0  0  0  0  0  0  0  0
   62.1010   32.6550   49.3900 C   0  0  0  0  0  0  0  0  0  0  0  0
   62.8310   33.8180   49.0900 C   0  0  0  0  0  0  0  0  0  0  0  0
   63.5800   33.8960   47.9120 C   0  0  0  0  0  0  0  0  0  0  0  0
   63.6060   32.8140   47.0260 C   0  0  0  0  0  0  0  0  0  0  0  0
   62.8850   31.6530   47.3190 C   0  0  0  0  0  0  0  0  0  0  0  0
   62.1360   31.5710   48.4980 C   0  0  0  0  0  0  0  0  0  0  0  0
   59.2080   32.6180   48.4170 N   0  0  0  0  0  0  0  0  0  0  0  0
   58.9830   32.5340   47.0720 C   0  0  0  0  0  0  0  0  0  0  0  0
   58.6150   31.2370   46.4840 C   0  0  0  0  0  0  0  0  0  0  0  0
   57.5340   31.1530   45.5950 C   0  0  0  0  0  0  0  0  0  0  0  0
   57.1180   29.9120   45.1080 C   0  0  0  0  0  0  0  0  0  0  0  0
   57.7600   28.7370   45.5290 C   0  0  0  0  0  0  0  0  0  0  0  0
   57.2460   27.4270   45.0940 C   0  0  0  0  0  0  0  0  0  0  0  0
   57.8390   26.8110   44.1710 O   0  0  0  0  0  0  0  0  0  0  0  0
   56.0500   26.8620   45.6530 N   0  0  0  0  0  0  0  0  0  0  0  0
   55.9420   25.5480   46.2860 C   0  0  0  0  0  0  0  0  0  0  0  0
   56.4690   24.4610   45.3830 C   0  0  0  0  0  0  0  0  0  0  0  0
   57.6660   23.7910   45.6930 C   0  0  0  0  0  0  0  0  0  0  0  0
   58.1230   22.7490   44.8800 C   0  0  0  0  0  0  0  0  0  0  0  0
   57.3990   22.3790   43.7440 C   0  0  0  0  0  0  0  0  0  0  0  0
   56.2190   23.0540   43.4160 C   0  0  0  0  0  0  0  0  0  0  0  0
   55.7560   24.0940   44.2290 C   0  0  0  0  0  0  0  0  0  0  0  0
   58.8510   28.8210   46.4060 C   0  0  0  0  0  0  0  0  0  0  0  0
   59.2660   30.0640   46.8920 C   0  0  0  0  0  0  0  0  0  0  0  0
   59.1910   33.6910   46.3140 C   0  0  0  0  0  0  0  0  0  0  0  0
   57.9831   32.3652   44.2366 H   0  0  0  0  0  0  0  0  0  0  0  0
   57.8402   33.8468   43.2310 H   0  0  0  0  0  0  0  0  0  0  0  0
   59.3701   32.9054   43.2310 H   0  0  0  0  0  0  0  0  0  0  0  0
   59.3990   35.9390   44.0090 H   0  0  0  0  0  0  0  0  0  0  0  0
   62.0170   32.7122   51.5199 H   0  0  0  0  0  0  0  0  0  0  0  0
   60.8686   31.5567   50.7247 H   0  0  0  0  0  0  0  0  0  0  0  0
   62.8130   34.6705   49.7850 H   0  0  0  0  0  0  0  0  0  0  0  0
   64.1491   34.8088   47.6819 H   0  0  0  0  0  0  0  0  0  0  0  0
   64.1940   32.8768   46.0985 H   0  0  0  0  0  0  0  0  0  0  0  0
   62.9064   30.8025   46.6217 H   0  0  0  0  0  0  0  0  0  0  0  0
   61.5727   30.6543   48.7269 H   0  0  0  0  0  0  0  0  0  0  0  0
   57.0115   32.0683   45.2799 H   0  0  0  0  0  0  0  0  0  0  0  0
   56.2846   29.8552   44.3923 H   0  0  0  0  0  0  0  0  0  0  0  0
   56.5230   25.5512   47.2201 H   0  0  0  0  0  0  0  0  0  0  0  0
   54.8800   25.3464   46.4896 H   0  0  0  0  0  0  0  0  0  0  0  0
   58.2457   24.0881   46.5794 H   0  0  0  0  0  0  0  0  0  0  0  0
   59.0533   22.2203   45.1352 H   0  0  0  0  0  0  0  0  0  0  0  0
   57.7572   21.5565   43.1074 H   0  0  0  0  0  0  0  0  0  0  0  0
   55.6539   22.7667   42.5171 H   0  0  0  0  0  0  0  0  0  0  0  0
   54.8306   24.6264   43.9640 H   0  0  0  0  0  0  0  0  0  0  0  0
   59.3811   27.9070   46.7120 H   0  0  0  0  0  0  0  0  0  0  0  0
   60.1075   30.1224   47.5981 H   0  0  0  0  0  0  0  0  0  0  0  0
  1  2  1  0
  2  3  2  0
  3  4  1  0
  4  5  1  0
  5  6  2  0
  6  7  1  0
  7  8  1  0
  8  9  1  0
  9 10  1  0
 10 11  2  0
 11 12  1  0
 12 13  2  0
 13 14  1  0
 14 15  2  0
  7 16  2  0
 16 17  1  0
 17 18  1  0
 18 19  2  0
 19 20  1  0
 20 21  2  0
 21 22  1  0
 22 23  2  0
 22 24  1  0
 24 25  1  0
 25 26  1  0
 26 27  2  0
 27 28  1  0
 28 29  2  0
 29 30  1  0
 30 31  2  0
 21 32  1  0
 32 33  2  0
 17 34  2  0
 34  2  1  0
 34  5  1  0
 15 10  1  0
 33 18  1  0
 31 26  1  0
  1 35  1  0
  1 36  1  0
  1 37  1  0
  3 38  1  0
  9 39  1  0
  9 40  1  0
 11 41  1  0
 12 42  1  0
 13 43  1  0
 14 44  1  0
 15 45  1  0
 19 46  1  0
 20 47  1  0
 25 48  1  0
 25 49  1  0
 27 50  1  0
 28 51  1  0
 29 52  1  0
 30 53  1  0
 31 54  1  0
 32 55  1  0
 33 56  1  0
M  CHG  2   3   1  24  -1
M  END
>  <UniqueID>  (11) 
11

>  <SMILES>  (11) 
Cc1[nH+]oc2nc(SCc3ccccc3)nc(-c3ccc(C(=O)[N-]Cc4ccccc4)cc3)c12

>  <Energy>  (11) 
107.60204284394952

>  <Genealogy>  (11) 
Cc1[nH+]oc2nc(SCc3ccccc3)nc(-c3ccc(C(=O)[N-]Cc4ccccc4)cc3)c12 (protonated)
Cc1[nH+]oc2nc(SCc3ccccc3)nc(-c3ccc(C(=O)[N-]Cc4ccccc4)cc3)c12 (3D coordinates assigned)
Cc1[nH+]oc2nc(SCc3ccccc3)nc(-c3ccc(C(=O)[N-]Cc4ccccc4)cc3)c12 (optimized conformer: 107.60204284394952 kcal/mol)

>  <smiles>  (11) 
Cc1noc2nc(SCc3ccccc3)nc(-c3ccc(C(=O)NCc4ccccc4)cc3)c12

>  <score_type>  (11) 
oracle

>  <origin>  (11) 
adg

>  <m_score__min__energy>  (11) 
-9.7699999999999996

>  <m_primary>  (11) 
energy

$$$$
11:0
     RDKit          3D

 39 42  0  0  0  0  0  0  0  0999 V2000
   56.4090   30.5110   42.9060 C   0  0  0  0  0  0  0  0  0  0  0  0
   57.3620   31.5110   42.7100 C   0  0  0  0  0  0  0  0  0  0  0  0
   58.1760   31.9160   43.7710 C   0  0  0  0  0  0  0  0  0  0  0  0
   58.0230   31.3080   45.0290 C   0  0  0  0  0  0  0  0  0  0  0  0
   58.8600   31.7020   46.1800 C   0  0  0  0  0  0  0  0  0  0  0  0
   58.4800   31.3570   47.4390 N   0  0  0  0  0  0  0  0  0  0  0  0
   59.2180   31.7000   48.5270 C   0  0  0  0  0  0  0  0  0  0  0  0
   58.7560   31.3130   49.8270 N   0  0  0  0  0  0  0  0  0  0  0  0
   58.3280   32.3360   50.7850 C   0  0  0  0  0  0  0  0  0  0  0  0
   57.0670   31.8860   51.5560 C   0  0  0  0  0  0  0  0  0  0  0  0
   56.9060   30.4210   51.6610 N   0  0  0  0  0  0  0  0  0  0  0  0
   58.1820   29.7010   51.5940 C   0  0  0  0  0  0  0  0  0  0  0  0
   58.8350   29.9070   50.2240 C   0  0  0  0  0  0  0  0  0  0  0  0
   60.4120   32.4250   48.3560 C   0  0  0  0  0  0  0  0  0  0  0  0
   61.2320   32.8020   49.4340 C   0  0  0  0  0  0  0  0  0  0  0  0
   62.4080   33.5240   49.2000 C   0  0  0  0  0  0  0  0  0  0  0  0
   62.7720   33.8710   47.8960 C   0  0  0  0  0  0  0  0  0  0  0  0
   61.9660   33.4980   46.8180 C   0  0  0  0  0  0  0  0  0  0  0  0
   60.7880   32.7740   47.0410 C   0  0  0  0  0  0  0  0  0  0  0  0
   60.0080   32.4070   45.9920 N   0  0  0  0  0  0  0  0  0  0  0  0
   57.0840   30.3330   45.1890 N   0  0  0  0  0  0  0  0  0  0  0  0
   56.2830   29.9280   44.1680 C   0  0  0  0  0  0  0  0  0  0  0  0
   55.7646   30.1859   42.0759 H   0  0  0  0  0  0  0  0  0  0  0  0
   57.4724   31.9801   41.7212 H   0  0  0  0  0  0  0  0  0  0  0  0
   58.9297   32.7035   43.6231 H   0  0  0  0  0  0  0  0  0  0  0  0
   59.1414   32.5184   51.5027 H   0  0  0  0  0  0  0  0  0  0  0  0
   58.0877   33.2547   50.2298 H   0  0  0  0  0  0  0  0  0  0  0  0
   57.1200   32.3001   52.5737 H   0  0  0  0  0  0  0  0  0  0  0  0
   56.2020   32.2568   50.9866 H   0  0  0  0  0  0  0  0  0  0  0  0
   56.2960   30.0900   50.8750 H   0  0  0  0  0  0  0  0  0  0  0  0
   58.8545   30.0800   52.3776 H   0  0  0  0  0  0  0  0  0  0  0  0
   57.9963   28.6273   51.7450 H   0  0  0  0  0  0  0  0  0  0  0  0
   59.8912   29.6042   50.2768 H   0  0  0  0  0  0  0  0  0  0  0  0
   58.3031   29.2959   49.4799 H   0  0  0  0  0  0  0  0  0  0  0  0
   60.9493   32.5295   50.4615 H   0  0  0  0  0  0  0  0  0  0  0  0
   63.0476   33.8192   50.0449 H   0  0  0  0  0  0  0  0  0  0  0  0
   63.6965   34.4399   47.7180 H   0  0  0  0  0  0  0  0  0  0  0  0
   62.2566   33.7730   45.7933 H   0  0  0  0  0  0  0  0  0  0  0  0
   55.5345   29.1397   44.3366 H   0  0  0  0  0  0  0  0  0  0  0  0
  1  2  2  0
  2  3  1  0
  3  4  2  0
  4  5  1  0
  5  6  2  0
  6  7  1  0
  7  8  1  0
  8  9  1  0
  9 10  1  0
 10 11  1  0
 11 12  1  0
 12 13  1  0
  7 14  2  0
 14 15  1  0
 15 16  2  0
 16 17  1  0
 17 18  2  0
 18 19  1  0
 19 20  2  0
  4 21  1  0
 21 22  2  0
 22  1  1  0
 20  5  1  0
 13  8  1  0
 19 14  1  0
  1 23  1  0
  2 24  1  0
  3 25  1  0
  9 26  1  0
  9 27  1  0
 10 28  1  0
 10 29  1  0
 11 30  1  0
 12 31  1  0
 12 32  1  0
 13 33  1  0
 13 34  1  0
 15 35  1  0
 16 36  1  0
 17 37  1  0
 18 38  1  0
 22 39  1  0
M  END
>  <UniqueID>  (12) 
12

>  <SMILES>  (12) 
c1ccc(-c2nc(N3CCNCC3)c3ccccc3n2)nc1

>  <Energy>  (12) 
57.582328039965944

>  <Genealogy>  (12) 
c1ccc(-c2nc(N3CCNCC3)c3ccccc3n2)nc1 (3D coordinates assigned)
c1ccc(-c2nc(N3CCNCC3)c3ccccc3n2)nc1 (nonaromatic ring conformer: 57.582328039965944 kcal/mol)

>  <smiles>  (12) 
c1ccc(-c2nc(N3CCNCC3)c3ccccc3n2)nc1

>  <score_type>  (12) 
oracle

>  <origin>  (12) 
adg

>  <m_score__min__energy>  (12) 
-7.1900000000000004

>  <m_primary>  (12) 
energy

$$$$
12:0
     RDKit          3D

 56 59  0  0  0  0  0  0  0  0999 V2000
   58.8900   34.2700   45.0480 C   0  0  0  0  0  0  0  0  0  0  0  0
   59.0450   33.9970   46.5140 C   0  0  0  0  0  0  0  0  0  0  0  0
   58.2890   32.9810   47.1170 C   0  0  0  0  0  0  0  0  0  0  0  0
   58.4110   32.7300   48.4860 C   0  0  0  0  0  0  0  0  0  0  0  0
   59.2860   33.4940   49.2690 C   0  0  0  0  0  0  0  0  0  0  0  0
   59.4010   33.1850   50.9980 S   0  0  0  0  0  0  0  0  0  0  0  0
   58.6320   34.2420   51.7410 O   0  0  0  0  0  0  0  0  0  0  0  0
   58.8220   31.8420   51.3420 O   0  0  0  0  0  0  0  0  0  0  0  0
   61.0640   33.2520   51.4670 N   0  0  0  0  0  0  0  0  0  0  0  0
   61.7940   32.0720   51.8080 C   0  0  0  0  0  0  0  0  0  0  0  0
   61.7010   31.5380   53.1020 C   0  0  0  0  0  0  0  0  0  0  0  0
   62.3970   30.3730   53.4340 C   0  0  0  0  0  0  0  0  0  0  0  0
   63.1840   29.7310   52.4750 C   0  0  0  0  0  0  0  0  0  0  0  0
   63.2790   30.2530   51.1830 C   0  0  0  0  0  0  0  0  0  0  0  0
   62.5930   31.4300   50.8420 C   0  0  0  0  0  0  0  0  0  0  0  0
   62.6450   31.9300   49.4530 C   0  0  0  0  0  0  0  0  0  0  0  0
   63.2940   33.1420   49.1710 C   0  0  0  0  0  0  0  0  0  0  0  0
   63.3080   33.6450   47.8690 C   0  0  0  0  0  0  0  0  0  0  0  0
   62.6610   32.9530   46.8440 C   0  0  0  0  0  0  0  0  0  0  0  0
   62.0070   31.7490   47.1140 C   0  0  0  0  0  0  0  0  0  0  0  0
   62.0040   31.2170   48.4200 C   0  0  0  0  0  0  0  0  0  0  0  0
   61.3220   30.0340   48.7480 O   0  0  0  0  0  0  0  0  0  0  0  0
   59.9580   29.7730   48.5670 C   0  0  0  0  0  0  0  0  0  0  0  0
   59.1200   30.0520   49.4680 O   0  0  0  0  0  0  0  0  0  0  0  0
   59.4980   29.2130   47.2800 C   0  0  0  0  0  0  0  0  0  0  0  0
   60.0790   28.0400   46.7740 C   0  0  0  0  0  0  0  0  0  0  0  0
   59.6270   27.4890   45.5760 C   0  0  0  0  0  0  0  0  0  0  0  0
   58.5870   28.0950   44.8640 C   0  0  0  0  0  0  0  0  0  0  0  0
   58.0470   27.3350   43.3700 Cl  0  0  0  0  0  0  0  0  0  0  0  0
   57.9990   29.2800   45.3520 C   0  0  0  0  0  0  0  0  0  0  0  0
   56.6760   30.0680   44.4820 S   0  0  0  0  0  0  0  0  0  0  0  0
   55.1600   29.3260   44.8630 N   0  0  0  0  0  0  0  0  0  0  0  0
   56.6100   31.5180   44.8700 O   0  0  0  0  0  0  0  0  0  0  0  0
   56.9130   29.9530   43.0030 O   0  0  0  0  0  0  0  0  0  0  0  0
   58.4630   29.8310   46.5580 C   0  0  0  0  0  0  0  0  0  0  0  0
   60.0340   34.5180   48.6720 C   0  0  0  0  0  0  0  0  0  0  0  0
   59.9190   34.7640   47.3010 C   0  0  0  0  0  0  0  0  0  0  0  0
   58.3514   35.2186   44.9066 H   0  0  0  0  0  0  0  0  0  0  0  0
   59.8835   34.3393   44.5809 H   0  0  0  0  0  0  0  0  0  0  0  0
   58.3214   33.4524   44.5809 H   0  0  0  0  0  0  0  0  0  0  0  0
   57.5971   32.3792   46.5094 H   0  0  0  0  0  0  0  0  0  0  0  0
   57.8174   31.9291   48.9510 H   0  0  0  0  0  0  0  0  0  0  0  0
   61.0779   32.0384   53.8579 H   0  0  0  0  0  0  0  0  0  0  0  0
   62.3252   29.9610   54.4514 H   0  0  0  0  0  0  0  0  0  0  0  0
   63.7298   28.8128   52.7378 H   0  0  0  0  0  0  0  0  0  0  0  0
   63.8940   29.7398   50.4291 H   0  0  0  0  0  0  0  0  0  0  0  0
   63.7933   33.6974   49.9786 H   0  0  0  0  0  0  0  0  0  0  0  0
   63.8298   34.5884   47.6504 H   0  0  0  0  0  0  0  0  0  0  0  0
   62.6662   33.3570   45.8209 H   0  0  0  0  0  0  0  0  0  0  0  0
   61.4915   31.2128   46.3036 H   0  0  0  0  0  0  0  0  0  0  0  0
   60.8960   27.5525   47.3261 H   0  0  0  0  0  0  0  0  0  0  0  0
   60.0918   26.5707   45.1878 H   0  0  0  0  0  0  0  0  0  0  0  0
   55.3240   28.6960   45.6800 H   0  0  0  0  0  0  0  0  0  0  0  0
   58.0107   30.7574   46.9418 H   0  0  0  0  0  0  0  0  0  0  0  0
   60.7133   35.1296   49.2840 H   0  0  0  0  0  0  0  0  0  0  0  0
   60.5161   35.5624   46.8362 H   0  0  0  0  0  0  0  0  0  0  0  0
  1  2  1  0
  2  3  2  0
  3  4  1  0
  4  5  2  0
  5  6  1  0
  6  7  2  0
  6  8  2  0
  6  9  1  0
  9 10  1  0
 10 11  2  0
 11 12  1  0
 12 13  2  0
 13 14  1  0
 14 15  2  0
 15 16  1  0
 16 17  2  0
 17 18  1  0
 18 19  2  0
 19 20  1  0
 20 21  2  0
 21 22  1  0
 22 23  1  0
 23 24  2  0
 23 25  1  0
 25 26  2  0
 26 27  1  0
 27 28  2  0
 28 29  1  0
 28 30  1  0
 30 31  1  0
 31 32  1  0
 31 33  2  0
 31 34  2  0
 30 35  2  0
  5 36  1  0
 36 37  2  0
 37  2  1  0
 15 10  1  0
 21 16  1  0
 35 25  1  0
  1 38  1  0
  1 39  1  0
  1 40  1  0
  3 41  1  0
  4 42  1  0
 11 43  1  0
 12 44  1  0
 13 45  1  0
 14 46  1  0
 17 47  1  0
 18 48  1  0
 19 49  1  0
 20 50  1  0
 26 51  1  0
 27 52  1  0
 32 53  1  0
 35 54  1  0
 36 55  1  0
 37 56  1  0
M  CHG  2   9  -1  32  -1
M  END
>  <UniqueID>  (13) 
13

>  <SMILES>  (13) 
Cc1ccc(S(=O)(=O)[N-]c2ccccc2-c2ccccc2OC(=O)c2ccc(Cl)c(S([NH-])(=O)=O)c2)cc1

>  <Energy>  (13) 
74.24910478906007

>  <Genealogy>  (13) 
Cc1ccc(S(=O)(=O)[N-]c2ccccc2-c2ccccc2OC(=O)c2ccc(Cl)c(S([NH-])(=O)=O)c2)cc1 (protonated)
Cc1ccc(S(=O)(=O)[N-]c2ccccc2-c2ccccc2OC(=O)c2ccc(Cl)c(S([NH-])(=O)=O)c2)cc1 (3D coordinates assigned)
Cc1ccc(S(=O)(=O)[N-]c2ccccc2-c2ccccc2OC(=O)c2ccc(Cl)c(S([NH-])(=O)=O)c2)cc1 (optimized conformer: 74.24910478906007 kcal/mol)

>  <smiles>  (13) 
Cc1ccc(S(=O)(=O)Nc2ccccc2-c2ccccc2OC(=O)c2ccc(Cl)c(S(N)(=O)=O)c2)cc1

>  <score_type>  (13) 
oracle

>  <origin>  (13) 
adg

>  <m_score__min__energy>  (13) 
-14.699999999999999

>  <m_primary>  (13) 
energy

$$$$
13:0
     RDKit          3D

 33 35  0  0  1  0  0  0  0  0999 V2000
   64.8880   33.0720   49.4610 C   0  0  0  0  0  0  0  0  0  0  0  0
   63.5430   33.4190   48.8780 C   0  0  0  0  0  0  0  0  0  0  0  0
   62.5680   33.9830   49.0900 N   0  0  0  0  0  0  0  0  0  0  0  0
   61.5000   34.1370   48.3770 N   0  0  0  0  0  0  0  0  0  0  0  0
   61.5020   33.5610   47.2080 C   0  0  0  0  0  0  0  0  0  0  0  0
   60.6500   33.4850   46.2370 N   0  0  0  0  0  0  0  0  0  0  0  0
   59.6840   34.5230   46.1610 C   0  0  0  0  0  0  0  0  0  0  0  0
   59.5070   35.3540   47.0900 O   0  0  0  0  0  0  0  0  0  0  0  0
   58.8750   34.5700   44.8900 C   0  0  0  0  0  0  0  0  0  0  0  0
   57.2520   33.8080   45.1570 S   0  0  0  0  0  0  0  0  0  0  0  0
   57.4430   32.0390   45.0640 C   0  0  0  0  0  0  0  0  0  0  0  0
   56.3260   31.3150   44.8320 N   0  0  0  0  0  0  0  0  0  0  0  0
   56.4290   29.9800   44.7570 C   0  0  0  0  0  0  0  0  0  0  0  0
   55.3620   29.3400   44.5390 O   0  0  0  0  0  0  0  0  0  0  0  0
   57.6180   29.3060   44.9060 C   0  0  0  0  0  0  0  0  0  0  0  0
   57.7020   27.9280   44.8260 C   0  0  0  0  0  0  0  0  0  0  0  0
   58.9300   27.3230   44.9850 C   0  0  0  0  0  0  0  0  0  0  0  0
   60.0560   28.0900   45.2210 C   0  0  0  0  0  0  0  0  0  0  0  0
   60.0070   29.4670   45.3070 C   0  0  0  0  0  0  0  0  0  0  0  0
   58.7630   30.0730   45.1450 C   0  0  0  0  0  0  0  0  0  0  0  0
   58.6200   31.4110   45.2130 N   0  0  0  0  0  0  0  0  0  0  0  0
   63.1540   32.7420   47.1300 S   0  0  0  0  0  0  0  0  0  0  0  0
   64.8267   33.0878   50.5592 H   0  0  0  0  0  0  0  0  0  0  0  0
   65.1853   32.0677   49.1248 H   0  0  0  0  0  0  0  0  0  0  0  0
   65.6341   33.8071   49.1248 H   0  0  0  0  0  0  0  0  0  0  0  0
   60.6650   34.7080   48.7380 H   0  0  0  0  0  0  0  0  0  0  0  0
   58.7392   35.6177   44.5836 H   0  0  0  0  0  0  0  0  0  0  0  0
   59.4079   34.0163   44.1030 H   0  0  0  0  0  0  0  0  0  0  0  0
   56.8021   27.3238   44.6383 H   0  0  0  0  0  0  0  0  0  0  0  0
   59.0145   26.2279   44.9241 H   0  0  0  0  0  0  0  0  0  0  0  0
   61.0254   27.5850   45.3446 H   0  0  0  0  0  0  0  0  0  0  0  0
   60.9131   30.0614   45.4957 H   0  0  0  0  0  0  0  0  0  0  0  0
   59.4530   32.0130   45.3890 H   0  0  0  0  0  0  0  0  0  0  0  0
  1  2  1  0
  2  3  2  0
  3  4  1  0
  4  5  1  0
  5  6  2  0
  6  7  1  0
  7  8  2  0
  7  9  1  0
  9 10  1  0
 10 11  1  0
 11 12  2  0
 12 13  1  0
 13 14  2  0
 13 15  1  0
 15 16  2  0
 16 17  1  0
 17 18  2  0
 18 19  1  0
 19 20  2  0
 20 21  1  0
  5 22  1  0
 22  2  1  0
 21 11  1  0
 20 15  1  0
  1 23  1  0
  1 24  1  0
  1 25  1  0
  4 26  1  0
  9 27  1  0
  9 28  1  0
 16 29  1  0
 17 30  1  0
 18 31  1  0
 19 32  1  0
 21 33  1  0
M  END
>  <smiles>  (14) 
Cc1n[nH]c(=NC(=O)CSc2nc(=O)c3ccccc3[nH]2)s1

>  <score_type>  (14) 
oracle

>  <origin>  (14) 
adg

>  <m_score__min__energy>  (14) 
-8.4600000000000009

>  <m_primary>  (14) 
energy

$$$$
14:0
     RDKit          3D

 42 44  0  0  0  0  0  0  0  0999 V2000
   56.1590   19.6800   45.0550 C   0  0  0  0  0  0  0  0  0  0  0  0
   55.5320   20.8480   44.5330 O   0  0  0  0  0  0  0  0  0  0  0  0
   55.7420   22.1450   45.0220 C   0  0  0  0  0  0  0  0  0  0  0  0
   55.2740   22.4570   46.3030 C   0  0  0  0  0  0  0  0  0  0  0  0
   55.4600   23.7350   46.8380 C   0  0  0  0  0  0  0  0  0  0  0  0
   56.1390   24.7200   46.0970 C   0  0  0  0  0  0  0  0  0  0  0  0
   56.3180   26.0580   46.5930 N   0  0  0  0  0  0  0  0  0  0  0  0
   56.7500   27.0880   45.9250 C   0  0  0  0  0  0  0  0  0  0  0  0
   55.8950   27.9020   45.2490 N   0  0  0  0  0  0  0  0  0  0  0  0
   56.3350   28.9970   44.5750 C   0  0  0  0  0  0  0  0  0  0  0  0
   55.3800   29.8320   43.9140 N   0  0  0  0  0  0  0  0  0  0  0  0
   57.7070   29.3100   44.5830 C   0  0  0  0  0  0  0  0  0  0  0  0
   58.2090   30.4640   43.8940 N   0  0  0  0  0  0  0  0  0  0  0  0
   57.5970   32.0490   44.2350 S   0  0  0  0  0  0  0  0  0  0  0  0
   57.4750   32.8220   42.9510 O   0  0  0  0  0  0  0  0  0  0  0  0
   56.2390   31.9360   44.8700 O   0  0  0  0  0  0  0  0  0  0  0  0
   58.6770   32.8700   45.3580 C   0  0  0  0  0  0  0  0  0  0  0  0
   58.6590   34.2660   45.4840 C   0  0  0  0  0  0  0  0  0  0  0  0
   59.5590   34.9050   46.3420 C   0  0  0  0  0  0  0  0  0  0  0  0
   60.4830   34.1520   47.0750 C   0  0  0  0  0  0  0  0  0  0  0  0
   60.5050   32.7590   46.9530 C   0  0  0  0  0  0  0  0  0  0  0  0
   61.6720   31.8140   47.8630 Cl  0  0  0  0  0  0  0  0  0  0  0  0
   59.6030   32.1190   46.0970 C   0  0  0  0  0  0  0  0  0  0  0  0
   58.5720   28.4570   45.2890 C   0  0  0  0  0  0  0  0  0  0  0  0
   59.8120   28.6760   45.3110 O   0  0  0  0  0  0  0  0  0  0  0  0
   58.0750   27.3770   45.9440 N   0  0  0  0  0  0  0  0  0  0  0  0
   56.5810   24.4180   44.8050 C   0  0  0  0  0  0  0  0  0  0  0  0
   56.3980   23.1390   44.2710 C   0  0  0  0  0  0  0  0  0  0  0  0
   56.1406   19.7142   46.1543 H   0  0  0  0  0  0  0  0  0  0  0  0
   55.6189   18.7872   44.7069 H   0  0  0  0  0  0  0  0  0  0  0  0
   57.2016   19.6368   44.7069 H   0  0  0  0  0  0  0  0  0  0  0  0
   54.7546   21.6891   46.8950 H   0  0  0  0  0  0  0  0  0  0  0  0
   55.0746   23.9713   47.8408 H   0  0  0  0  0  0  0  0  0  0  0  0
   54.7270   30.4530   44.4410 H   0  0  0  0  0  0  0  0  0  0  0  0
   55.2920   29.7980   42.8750 H   0  0  0  0  0  0  0  0  0  0  0  0
   58.7960   30.3400   43.0390 H   0  0  0  0  0  0  0  0  0  0  0  0
   57.9352   34.8599   44.9066 H   0  0  0  0  0  0  0  0  0  0  0  0
   59.5408   36.0004   46.4409 H   0  0  0  0  0  0  0  0  0  0  0  0
   61.1925   34.6561   47.7476 H   0  0  0  0  0  0  0  0  0  0  0  0
   59.6198   31.0232   46.0029 H   0  0  0  0  0  0  0  0  0  0  0  0
   57.0772   25.1939   44.2035 H   0  0  0  0  0  0  0  0  0  0  0  0
   56.7677   22.9085   43.2609 H   0  0  0  0  0  0  0  0  0  0  0  0
  1  2  1  0
  2  3  1  0
  3  4  2  0
  4  5  1  0
  5  6  2  0
  6  7  1  0
  7  8  2  3
  8  9  1  0
  9 10  1  0
 10 11  1  0
 10 12  2  0
 12 13  1  0
 13 14  1  0
 14 15  2  0
 14 16  2  0
 14 17  1  0
 17 18  2  0
 18 19  1  0
 19 20  2  0
 20 21  1  0
 21 22  1  0
 21 23  2  0
 12 24  1  0
 24 25  2  0
 24 26  1  0
  6 27  1  0
 27 28  2  0
 28  3  1  0
 26  8  1  0
 23 17  1  0
  1 29  1  0
  1 30  1  0
  1 31  1  0
  4 32  1  0
  5 33  1  0
 11 34  1  0
 11 35  1  0
 13 36  1  0
 18 37  1  0
 19 38  1  0
 20 39  1  0
 23 40  1  0
 27 41  1  0
 28 42  1  0
M  CHG  2   9  -1  26  -1
M  END
>  <UniqueID>  (15) 
14

>  <SMILES>  (15) 
COc1ccc(N=c2[n-]c(N)c(NS(=O)(=O)c3cccc(Cl)c3)c(=O)[n-]2)cc1

>  <Energy>  (15) 
56.91536974238025

>  <Genealogy>  (15) 
COc1ccc(N=c2[n-]c(N)c(NS(=O)(=O)c3cccc(Cl)c3)c(=O)[n-]2)cc1 (protonated)
COc1ccc(N=c2[n-]c(N)c(NS(=O)(=O)c3cccc(Cl)c3)c(=O)[n-]2)cc1 (3D coordinates assigned)
COc1ccc(N=c2[n-]c(N)c(NS(=O)(=O)c3cccc(Cl)c3)c(=O)[n-]2)cc1 (optimized conformer: 56.91536974238025 kcal/mol)

>  <smiles>  (15) 
COc1ccc(N=c2[nH]c(N)c(NS(=O)(=O)c3cccc(Cl)c3)c(=O)[nH]2)cc1

>  <score_type>  (15) 
oracle

>  <origin>  (15) 
adg

>  <m_score__min__energy>  (15) 
-12.31

>  <m_primary>  (15) 
energy

$$$$
15:0
     RDKit          3D

 36 38  0  0  0  0  0  0  0  0999 V2000
   58.7770   35.6271   45.2974 H   0  0  0  0  0  0  0  0  0  0  0  0
   58.5790   34.5710   45.5330 C   0  0  0  0  0  0  0  0  0  0  0  0
   57.9490   33.7530   44.5900 C   0  0  0  0  0  0  0  0  0  0  0  0
   57.6523   34.1698   43.6162 H   0  0  0  0  0  0  0  0  0  0  0  0
   57.6930   32.4040   44.8780 C   0  0  0  0  0  0  0  0  0  0  0  0
   56.9930   31.5370   43.8660 C   0  0  0  0  0  0  0  0  0  0  0  0
   56.2580   32.1438   43.3169 H   0  0  0  0  0  0  0  0  0  0  0  0
   57.7417   31.1264   43.1726 H   0  0  0  0  0  0  0  0  0  0  0  0
   56.3030   30.4270   44.5270 N   0  0  0  0  0  0  0  0  0  0  0  0
   56.8440   29.2870   44.8460 C   0  0  0  0  0  0  0  0  0  0  0  0
   58.1890   29.1500   44.7450 N   0  0  0  0  0  0  0  0  0  0  0  0
   59.0460   28.1360   44.9940 C   0  0  0  0  0  0  0  0  0  0  0  0
   60.2710   28.3510   44.7890 O   0  0  0  0  0  0  0  0  0  0  0  0
   58.6750   26.8790   45.4600 C   0  0  0  0  0  0  0  0  0  0  0  0
   59.6010   25.9200   45.6860 N   0  0  0  0  0  0  0  0  0  0  0  0
   58.9050   24.8560   46.1190 C   0  0  0  0  0  0  0  0  0  0  0  0
   59.3644   23.8954   46.3951 H   0  0  0  0  0  0  0  0  0  0  0  0
   57.5840   25.0970   46.1770 N   0  0  0  0  0  0  0  0  0  0  0  0
   56.5820   24.1230   46.6130 C   0  0  0  0  0  0  0  0  0  0  0  0
   56.5525   24.0943   47.7122 H   0  0  0  0  0  0  0  0  0  0  0  0
   55.5942   24.4154   46.2272 H   0  0  0  0  0  0  0  0  0  0  0  0
   56.8463   23.1274   46.2272 H   0  0  0  0  0  0  0  0  0  0  0  0
   57.4150   26.3800   45.7610 C   0  0  0  0  0  0  0  0  0  0  0  0
   56.1750   27.0300   45.6720 C   0  0  0  0  0  0  0  0  0  0  0  0
   55.1340   26.4010   45.9920 O   0  0  0  0  0  0  0  0  0  0  0  0
   56.0070   28.3080   45.2620 N   0  0  0  0  0  0  0  0  0  0  0  0
   58.0730   31.8840   46.1250 C   0  0  0  0  0  0  0  0  0  0  0  0
   57.8745   30.8282   46.3615 H   0  0  0  0  0  0  0  0  0  0  0  0
   58.7020   32.7010   47.0670 C   0  0  0  0  0  0  0  0  0  0  0  0
   58.9967   32.2826   48.0407 H   0  0  0  0  0  0  0  0  0  0  0  0
   58.9610   34.0470   46.7840 C   0  0  0  0  0  0  0  0  0  0  0  0
   59.5950   34.8260   47.7630 O   0  0  0  0  0  0  0  0  0  0  0  0
   60.2440   34.2970   48.9150 C   0  0  0  0  0  0  0  0  0  0  0  0
   59.7608   34.6908   49.8213 H   0  0  0  0  0  0  0  0  0  0  0  0
   60.1688   33.1996   48.9067 H   0  0  0  0  0  0  0  0  0  0  0  0
   61.3037   34.5920   48.9067 H   0  0  0  0  0  0  0  0  0  0  0  0
  1  2  1  0
  2  3  2  0
  3  4  1  0
  3  5  1  0
  5  6  1  0
  6  7  1  0
  6  8  1  0
  6  9  1  0
  9 10  2  0
 10 11  1  0
 11 12  1  0
 12 13  2  0
 12 14  1  0
 14 15  1  0
 15 16  2  0
 16 17  1  0
 16 18  1  0
 18 19  1  0
 19 20  1  0
 19 21  1  0
 19 22  1  0
 18 23  1  0
 23 24  1  0
 24 25  2  0
 24 26  1  0
  5 27  2  0
 27 28  1  0
 27 29  1  0
 29 30  1  0
 29 31  2  0
 31 32  1  0
 32 33  1  0
 33 34  1  0
 33 35  1  0
 33 36  1  0
 31  2  1  0
 26 10  1  0
 23 14  2  0
M  CHG  2  11  -1  26  -1
M  END
>  <UniqueID>  (16) 
15

>  <SMILES>  (16) 
COc1ccc(C/N=c2\[n-]c(=O)c3ncn(C)c3c(=O)[n-]2)cc1

>  <Energy>  (16) 
87.55279352422694

>  <Genealogy>  (16) 
COc1ccc(CN=c2[n-]c(=O)c3ncn(C)c3c(=O)[n-]2)cc1 (protonated)
COc1ccc(C/N=c2\[n-]c(=O)c3ncn(C)c3c(=O)[n-]2)cc1 (cis-trans isomerization)
COc1ccc(C/N=c2\[n-]c(=O)c3ncn(C)c3c(=O)[n-]2)cc1 (3D coordinates assigned)
COc1ccc(C/N=c2\[n-]c(=O)c3ncn(C)c3c(=O)[n-]2)cc1 (optimized conformer: 87.55279352422694 kcal/mol)

>  <smiles>  (16) 
COc1ccc(CN=c2[nH]c(=O)c3ncn(C)c3c(=O)[nH]2)cc1

>  <score_type>  (16) 
oracle

>  <origin>  (16) 
adg

>  <m_score__min__energy>  (16) 
-10.130000000000001

>  <m_primary>  (16) 
energy

$$$$
16:0
     RDKit          3D

 23 24  0  0  0  0  0  0  0  0999 V2000
   59.2080   35.3070   44.8710 C   0  0  0  0  0  0  0  0  0  0  0  0
   58.7390   33.8930   45.0510 C   0  0  0  0  0  0  0  0  0  0  0  0
   58.5020   33.0800   43.9320 C   0  0  0  0  0  0  0  0  0  0  0  0
   58.1010   31.7510   44.0990 C   0  0  0  0  0  0  0  0  0  0  0  0
   57.9480   31.2140   45.3860 C   0  0  0  0  0  0  0  0  0  0  0  0
   57.5160   29.8070   45.5650 C   0  0  0  0  0  0  0  0  0  0  0  0
   58.3320   28.8630   46.2180 C   0  0  0  0  0  0  0  0  0  0  0  0
   59.8880   29.2990   46.9130 Cl  0  0  0  0  0  0  0  0  0  0  0  0
   57.9020   27.5820   46.3600 N   0  0  0  0  0  0  0  0  0  0  0  0
   56.6940   27.1880   45.8830 C   0  0  0  0  0  0  0  0  0  0  0  0
   56.3210   25.9950   46.0260 O   0  0  0  0  0  0  0  0  0  0  0  0
   55.8880   28.0800   45.2550 N   0  0  0  0  0  0  0  0  0  0  0  0
   56.2670   29.3720   45.0860 C   0  0  0  0  0  0  0  0  0  0  0  0
   55.4940   30.1670   44.4870 O   0  0  0  0  0  0  0  0  0  0  0  0
   58.1960   32.0250   46.5050 C   0  0  0  0  0  0  0  0  0  0  0  0
   58.5970   33.3530   46.3380 C   0  0  0  0  0  0  0  0  0  0  0  0
   59.3618   35.7706   45.8566 H   0  0  0  0  0  0  0  0  0  0  0  0
   60.1555   35.3107   44.3122 H   0  0  0  0  0  0  0  0  0  0  0  0
   58.4505   35.8762   44.3122 H   0  0  0  0  0  0  0  0  0  0  0  0
   58.6322   33.4899   42.9196 H   0  0  0  0  0  0  0  0  0  0  0  0
   57.9046   31.1235   43.2171 H   0  0  0  0  0  0  0  0  0  0  0  0
   58.0741   31.6131   47.5176 H   0  0  0  0  0  0  0  0  0  0  0  0
   58.8023   33.9779   47.2197 H   0  0  0  0  0  0  0  0  0  0  0  0
  1  2  1  0
  2  3  2  0
  3  4  1  0
  4  5  2  0
  5  6  1  0
  6  7  2  0
  7  8  1  0
  7  9  1  0
  9 10  1  0
 10 11  2  0
 10 12  1  0
 12 13  1  0
 13 14  2  0
  5 15  1  0
 15 16  2  0
 16  2  1  0
 13  6  1  0
  1 17  1  0
  1 18  1  0
  1 19  1  0
  3 20  1  0
  4 21  1  0
 15 22  1  0
 16 23  1  0
M  CHG  2   9  -1  12  -1
M  END
>  <UniqueID>  (17) 
16

>  <SMILES>  (17) 
Cc1ccc(-c2c(Cl)[n-]c(=O)[n-]c2=O)cc1

>  <Energy>  (17) 
32.757048708413656

>  <Genealogy>  (17) 
Cc1ccc(-c2c(Cl)[n-]c(=O)[n-]c2=O)cc1 (protonated)
Cc1ccc(-c2c(Cl)[n-]c(=O)[n-]c2=O)cc1 (3D coordinates assigned)
Cc1ccc(-c2c(Cl)[n-]c(=O)[n-]c2=O)cc1 (optimized conformer: 32.757048708413656 kcal/mol)

>  <smiles>  (17) 
Cc1ccc(-c2c(Cl)[nH]c(=O)[nH]c2=O)cc1

>  <score_type>  (17) 
oracle

>  <origin>  (17) 
adg

>  <m_score__min__energy>  (17) 
-10.26

>  <m_primary>  (17) 
energy

$$$$
17:0
     RDKit          3D

 52 54  0  0  0  0  0  0  0  0999 V2000
   64.6830   32.9780   51.7620 C   0  0  0  0  0  0  0  0  0  0  0  0
   64.7480   31.6780   50.5460 S   0  0  0  0  0  0  0  0  0  0  0  0
   63.6100   30.7310   50.7940 O   0  0  0  0  0  0  0  0  0  0  0  0
   66.0430   30.9230   50.6620 O   0  0  0  0  0  0  0  0  0  0  0  0
   64.5860   32.3280   48.9710 O   0  0  0  0  0  0  0  0  0  0  0  0
   63.4420   32.9650   48.4690 C   0  0  0  0  0  0  0  0  0  0  0  0
   62.4180   33.4660   49.2990 C   0  0  0  0  0  0  0  0  0  0  0  0
   61.2990   34.0880   48.7390 C   0  0  0  0  0  0  0  0  0  0  0  0
   61.1780   34.2140   47.3470 C   0  0  0  0  0  0  0  0  0  0  0  0
   59.9890   34.9150   46.7490 C   0  0  0  0  0  0  0  0  0  0  0  0
   59.0420   33.9120   46.1470 C   0  0  0  0  0  0  0  0  0  0  0  0
   58.4750   34.1430   44.8840 C   0  0  0  0  0  0  0  0  0  0  0  0
   57.5740   33.2250   44.3370 C   0  0  0  0  0  0  0  0  0  0  0  0
   57.2350   32.0600   45.0430 C   0  0  0  0  0  0  0  0  0  0  0  0
   56.3070   31.1050   44.5100 N   0  0  0  0  0  0  0  0  0  0  0  0
   56.4390   29.6760   44.5520 C   0  0  0  0  0  0  0  0  0  0  0  0
   55.5140   28.9960   45.0680 O   0  0  0  0  0  0  0  0  0  0  0  0
   57.6580   28.9690   44.0310 C   0  0  0  0  0  0  0  0  0  0  0  0
   58.8060   29.7600   44.2710 O   0  0  0  0  0  0  0  0  0  0  0  0
   59.8260   28.9860   44.8700 C   0  0  0  0  0  0  0  0  0  0  0  0
   59.9520   29.3200   46.3320 C   0  0  0  0  0  0  0  0  0  0  0  0
   59.0540   28.7800   47.2670 C   0  0  0  0  0  0  0  0  0  0  0  0
   59.1590   29.1200   48.6190 C   0  0  0  0  0  0  0  0  0  0  0  0
   60.1570   30.0060   49.0450 C   0  0  0  0  0  0  0  0  0  0  0  0
   61.0500   30.5520   48.1180 C   0  0  0  0  0  0  0  0  0  0  0  0
   60.9480   30.2120   46.7630 C   0  0  0  0  0  0  0  0  0  0  0  0
   57.7650   31.8530   46.3220 C   0  0  0  0  0  0  0  0  0  0  0  0
   58.6670   32.7700   46.8700 C   0  0  0  0  0  0  0  0  0  0  0  0
   62.2050   33.7300   46.5220 C   0  0  0  0  0  0  0  0  0  0  0  0
   63.3250   33.1100   47.0820 C   0  0  0  0  0  0  0  0  0  0  0  0
   64.7050   32.5385   52.7701 H   0  0  0  0  0  0  0  0  0  0  0  0
   65.5490   33.6440   51.6334 H   0  0  0  0  0  0  0  0  0  0  0  0
   63.7549   33.5543   51.6334 H   0  0  0  0  0  0  0  0  0  0  0  0
   62.5004   33.3668   50.3914 H   0  0  0  0  0  0  0  0  0  0  0  0
   60.5077   34.4815   49.3940 H   0  0  0  0  0  0  0  0  0  0  0  0
   59.4675   35.4805   47.5352 H   0  0  0  0  0  0  0  0  0  0  0  0
   60.3353   35.5994   45.9605 H   0  0  0  0  0  0  0  0  0  0  0  0
   58.7409   35.0505   44.3221 H   0  0  0  0  0  0  0  0  0  0  0  0
   57.1288   33.4162   43.3494 H   0  0  0  0  0  0  0  0  0  0  0  0
   57.7667   28.0016   44.5432 H   0  0  0  0  0  0  0  0  0  0  0  0
   57.5490   28.8034   42.9490 H   0  0  0  0  0  0  0  0  0  0  0  0
   59.5811   27.9190   44.7623 H   0  0  0  0  0  0  0  0  0  0  0  0
   60.7807   29.2085   44.3709 H   0  0  0  0  0  0  0  0  0  0  0  0
   58.2662   28.0879   46.9348 H   0  0  0  0  0  0  0  0  0  0  0  0
   58.4570   28.6912   49.3493 H   0  0  0  0  0  0  0  0  0  0  0  0
   60.2381   30.2722   50.1092 H   0  0  0  0  0  0  0  0  0  0  0  0
   61.8327   31.2486   48.4528 H   0  0  0  0  0  0  0  0  0  0  0  0
   61.6496   30.6446   46.0345 H   0  0  0  0  0  0  0  0  0  0  0  0
   57.4702   30.9641   46.8990 H   0  0  0  0  0  0  0  0  0  0  0  0
   59.0844   32.5951   47.8726 H   0  0  0  0  0  0  0  0  0  0  0  0
   62.1279   33.8392   45.4301 H   0  0  0  0  0  0  0  0  0  0  0  0
   64.1229   32.7320   46.4259 H   0  0  0  0  0  0  0  0  0  0  0  0
  1  2  1  0
  2  3  2  0
  2  4  2  0
  2  5  1  0
  5  6  1  0
  6  7  2  0
  7  8  1  0
  8  9  2  0
  9 10  1  0
 10 11  1  0
 11 12  2  0
 12 13  1  0
 13 14  2  0
 14 15  1  0
 15 16  1  0
 16 17  2  0
 16 18  1  0
 18 19  1  0
 19 20  1  0
 20 21  1  0
 21 22  2  0
 22 23  1  0
 23 24  2  0
 24 25  1  0
 25 26  2  0
 14 27  1  0
 27 28  2  0
  9 29  1  0
 29 30  2  0
 30  6  1  0
 28 11  1  0
 26 21  1  0
  1 31  1  0
  1 32  1  0
  1 33  1  0
  7 34  1  0
  8 35  1  0
 10 36  1  0
 10 37  1  0
 12 38  1  0
 13 39  1  0
 18 40  1  0
 18 41  1  0
 20 42  1  0
 20 43  1  0
 22 44  1  0
 23 45  1  0
 24 46  1  0
 25 47  1  0
 26 48  1  0
 27 49  1  0
 28 50  1  0
 29 51  1  0
 30 52  1  0
M  CHG  1  15  -1
M  END
>  <UniqueID>  (18) 
17

>  <SMILES>  (18) 
CS(=O)(=O)Oc1ccc(Cc2ccc([N-]C(=O)COCc3ccccc3)cc2)cc1

>  <Energy>  (18) 
54.396088906344254

>  <Genealogy>  (18) 
CS(=O)(=O)Oc1ccc(Cc2ccc([N-]C(=O)COCc3ccccc3)cc2)cc1 (protonated)
CS(=O)(=O)Oc1ccc(Cc2ccc([N-]C(=O)COCc3ccccc3)cc2)cc1 (3D coordinates assigned)
CS(=O)(=O)Oc1ccc(Cc2ccc([N-]C(=O)COCc3ccccc3)cc2)cc1 (optimized conformer: 54.396088906344254 kcal/mol)

>  <smiles>  (18) 
CS(=O)(=O)Oc1ccc(Cc2ccc(NC(=O)COCc3ccccc3)cc2)cc1

>  <score_type>  (18) 
oracle

>  <origin>  (18) 
adg

>  <m_score__min__energy>  (18) 
-10.380000000000001

>  <m_primary>  (18) 
energy

$$$$
18:0
     RDKit          3D

 34 35  0  0  0  0  0  0  0  0999 V2000
   55.9630   29.3370   42.6350 N   0  0  0  0  0  0  0  0  0  0  0  0
   56.5700   30.5520   43.0640 C   0  0  0  0  0  0  0  0  0  0  0  0
   57.0410   31.3520   42.2110 O   0  0  0  0  0  0  0  0  0  0  0  0
   56.6390   30.8430   44.4310 O   0  0  0  0  0  0  0  0  0  0  0  0
   57.0320   32.1180   44.9380 C   0  0  0  0  0  0  0  0  0  0  0  0
   58.3080   32.0160   45.7440 C   0  0  0  0  0  0  0  0  0  0  0  0
   59.1450   33.1440   45.8420 C   0  0  0  0  0  0  0  0  0  0  0  0
   60.3560   33.0740   46.5320 C   0  0  0  0  0  0  0  0  0  0  0  0
   60.7470   31.8810   47.1400 C   0  0  0  0  0  0  0  0  0  0  0  0
   59.9150   30.7630   47.0820 C   0  0  0  0  0  0  0  0  0  0  0  0
   58.6810   30.8240   46.4160 C   0  0  0  0  0  0  0  0  0  0  0  0
   57.8340   29.6630   46.4330 N   0  0  0  0  0  0  0  0  0  0  0  0
   58.3380   28.3180   46.3250 C   0  0  0  0  0  0  0  0  0  0  0  0
   59.6930   28.0560   46.6040 C   0  0  0  0  0  0  0  0  0  0  0  0
   60.2210   26.7770   46.4310 C   0  0  0  0  0  0  0  0  0  0  0  0
   59.4080   25.7420   45.9700 C   0  0  0  0  0  0  0  0  0  0  0  0
   59.9250   24.5010   45.7980 F   0  0  0  0  0  0  0  0  0  0  0  0
   58.0620   25.9820   45.6920 C   0  0  0  0  0  0  0  0  0  0  0  0
   57.5040   27.2620   45.8760 C   0  0  0  0  0  0  0  0  0  0  0  0
   56.0520   27.4510   45.6390 C   0  0  0  0  0  0  0  0  0  0  0  0
   55.2330   26.5580   45.9830 O   0  0  0  0  0  0  0  0  0  0  0  0
   55.5670   28.6260   45.0790 O   0  0  0  0  0  0  0  0  0  0  0  0
   55.5700   28.6700   43.3350 H   0  0  0  0  0  0  0  0  0  0  0  0
   55.9030   29.1050   41.6180 H   0  0  0  0  0  0  0  0  0  0  0  0
   57.1943   32.8052   44.0945 H   0  0  0  0  0  0  0  0  0  0  0  0
   56.2336   32.4929   45.5953 H   0  0  0  0  0  0  0  0  0  0  0  0
   58.8413   34.0900   45.3699 H   0  0  0  0  0  0  0  0  0  0  0  0
   61.0033   33.9611   46.5965 H   0  0  0  0  0  0  0  0  0  0  0  0
   61.7117   31.8219   47.6653 H   0  0  0  0  0  0  0  0  0  0  0  0
   60.2289   29.8247   47.5627 H   0  0  0  0  0  0  0  0  0  0  0  0
   56.8100   29.8110   46.2860 H   0  0  0  0  0  0  0  0  0  0  0  0
   60.3419   28.8688   46.9622 H   0  0  0  0  0  0  0  0  0  0  0  0
   61.2798   26.5843   46.6584 H   0  0  0  0  0  0  0  0  0  0  0  0
   57.4286   25.1612   45.3245 H   0  0  0  0  0  0  0  0  0  0  0  0
  1  2  1  0
  2  3  2  0
  2  4  1  0
  4  5  1  0
  5  6  1  0
  6  7  2  0
  7  8  1  0
  8  9  2  0
  9 10  1  0
 10 11  2  0
 11 12  1  0
 12 13  1  0
 13 14  2  0
 14 15  1  0
 15 16  2  0
 16 17  1  0
 16 18  1  0
 18 19  2  0
 19 20  1  0
 20 21  2  0
 20 22  1  0
 11  6  1  0
 19 13  1  0
  1 23  1  0
  1 24  1  0
  5 25  1  0
  5 26  1  0
  7 27  1  0
  8 28  1  0
  9 29  1  0
 10 30  1  0
 12 31  1  0
 14 32  1  0
 15 33  1  0
 18 34  1  0
M  CHG  1  22  -1
M  END
>  <UniqueID>  (19) 
18

>  <SMILES>  (19) 
NC(=O)OCc1ccccc1Nc1ccc(F)cc1C(=O)[O-]

>  <Energy>  (19) 
43.97432117957802

>  <Genealogy>  (19) 
NC(=O)OCc1ccccc1Nc1ccc(F)cc1C(=O)[O-] (protonated)
NC(=O)OCc1ccccc1Nc1ccc(F)cc1C(=O)[O-] (3D coordinates assigned)
NC(=O)OCc1ccccc1Nc1ccc(F)cc1C(=O)[O-] (optimized conformer: 43.97432117957802 kcal/mol)

>  <smiles>  (19) 
NC(=O)OCc1ccccc1Nc1ccc(F)cc1C(=O)O

>  <score_type>  (19) 
oracle

>  <origin>  (19) 
adg

>  <m_score__min__energy>  (19) 
-9.8399999999999999

>  <m_primary>  (19) 
energy

$$$$
19:0
     RDKit          3D

 56 59  0  0  0  0  0  0  0  0999 V2000
   57.4110   34.2100   45.2500 C   0  0  0  0  0  0  0  0  0  0  0  0
   57.9220   33.7510   46.6130 C   0  0  0  0  0  0  0  0  0  0  0  0
   59.1710   32.9980   46.4550 N   0  0  0  0  0  0  0  0  0  0  0  0
   60.4000   33.6850   46.0470 C   0  0  0  0  0  0  0  0  0  0  0  0
   61.4420   33.5890   47.1280 C   0  0  0  0  0  0  0  0  0  0  0  0
   61.1310   33.9840   48.4400 C   0  0  0  0  0  0  0  0  0  0  0  0
   62.1030   33.9200   49.4440 C   0  0  0  0  0  0  0  0  0  0  0  0
   63.3940   33.4620   49.1470 C   0  0  0  0  0  0  0  0  0  0  0  0
   64.6250   33.3860   50.4020 S   0  0  0  0  0  0  0  0  0  0  0  0
   64.3640   31.9400   51.4040 C   0  0  0  0  0  0  0  0  0  0  0  0
   64.5530   34.6140   51.2680 O   0  0  0  0  0  0  0  0  0  0  0  0
   65.9870   33.3230   49.7690 O   0  0  0  0  0  0  0  0  0  0  0  0
   63.6980   33.0450   47.8440 C   0  0  0  0  0  0  0  0  0  0  0  0
   62.7280   33.1060   46.8410 C   0  0  0  0  0  0  0  0  0  0  0  0
   59.1930   31.5880   46.7380 C   0  0  0  0  0  0  0  0  0  0  0  0
   60.1180   31.0450   47.6540 C   0  0  0  0  0  0  0  0  0  0  0  0
   60.1390   29.6570   47.9140 C   0  0  0  0  0  0  0  0  0  0  0  0
   59.2340   28.7950   47.2700 C   0  0  0  0  0  0  0  0  0  0  0  0
   58.3090   29.3590   46.3840 C   0  0  0  0  0  0  0  0  0  0  0  0
   58.3080   30.7020   46.1170 C   0  0  0  0  0  0  0  0  0  0  0  0
   57.3520   30.8860   45.1410 C   0  0  0  0  0  0  0  0  0  0  0  0
   56.8000   29.6850   44.8520 N   0  0  0  0  0  0  0  0  0  0  0  0
   57.3740   28.7600   45.6170 N   0  0  0  0  0  0  0  0  0  0  0  0
   57.0170   27.3720   45.5620 C   0  0  0  0  0  0  0  0  0  0  0  0
   55.8090   27.0420   45.7210 O   0  0  0  0  0  0  0  0  0  0  0  0
   58.0270   26.3600   45.4330 N   0  0  0  0  0  0  0  0  0  0  0  0
   57.7720   25.0260   44.9590 C   0  0  0  0  0  0  0  0  0  0  0  0
   56.9480   24.8400   43.8360 C   0  0  0  0  0  0  0  0  0  0  0  0
   56.6590   23.5520   43.3730 C   0  0  0  0  0  0  0  0  0  0  0  0
   57.1780   22.4380   44.0390 C   0  0  0  0  0  0  0  0  0  0  0  0
   57.9850   22.6080   45.1660 C   0  0  0  0  0  0  0  0  0  0  0  0
   58.2760   23.8950   45.6310 C   0  0  0  0  0  0  0  0  0  0  0  0
   56.5992   34.9391   45.3893 H   0  0  0  0  0  0  0  0  0  0  0  0
   58.2329   34.6790   44.6892 H   0  0  0  0  0  0  0  0  0  0  0  0
   57.0326   33.3427   44.6892 H   0  0  0  0  0  0  0  0  0  0  0  0
   58.1050   34.6303   47.2480 H   0  0  0  0  0  0  0  0  0  0  0  0
   57.1670   33.1023   47.0811 H   0  0  0  0  0  0  0  0  0  0  0  0
   60.7872   33.2191   45.1288 H   0  0  0  0  0  0  0  0  0  0  0  0
   60.1712   34.7458   45.8671 H   0  0  0  0  0  0  0  0  0  0  0  0
   60.1196   34.3449   48.6785 H   0  0  0  0  0  0  0  0  0  0  0  0
   61.8535   34.2300   50.4695 H   0  0  0  0  0  0  0  0  0  0  0  0
   64.4140   32.2169   52.4674 H   0  0  0  0  0  0  0  0  0  0  0  0
   63.3744   31.5139   51.1822 H   0  0  0  0  0  0  0  0  0  0  0  0
   65.1422   31.1948   51.1822 H   0  0  0  0  0  0  0  0  0  0  0  0
   64.7047   32.6681   47.6103 H   0  0  0  0  0  0  0  0  0  0  0  0
   62.9732   32.7739   45.8214 H   0  0  0  0  0  0  0  0  0  0  0  0
   60.8285   31.7077   48.1698 H   0  0  0  0  0  0  0  0  0  0  0  0
   60.8697   29.2468   48.6265 H   0  0  0  0  0  0  0  0  0  0  0  0
   59.2524   27.7111   47.4567 H   0  0  0  0  0  0  0  0  0  0  0  0
   57.0836   31.8461   44.6761 H   0  0  0  0  0  0  0  0  0  0  0  0
   58.9830   26.5830   45.7920 H   0  0  0  0  0  0  0  0  0  0  0  0
   56.5271   25.7138   43.3171 H   0  0  0  0  0  0  0  0  0  0  0  0
   56.0237   23.4159   42.4854 H   0  0  0  0  0  0  0  0  0  0  0  0
   56.9503   21.4254   43.6747 H   0  0  0  0  0  0  0  0  0  0  0  0
   58.3920   21.7296   45.6883 H   0  0  0  0  0  0  0  0  0  0  0  0
   58.9018   24.0246   46.5263 H   0  0  0  0  0  0  0  0  0  0  0  0
  1  2  1  0
  2  3  1  0
  3  4  1  0
  4  5  1  0
  5  6  2  0
  6  7  1  0
  7  8  2  0
  8  9  1  0
  9 10  1  0
  9 11  2  0
  9 12  2  0
  8 13  1  0
 13 14  2  0
  3 15  1  0
 15 16  2  0
 16 17  1  0
 17 18  2  0
 18 19  1  0
 19 20  2  0
 20 21  1  0
 21 22  2  0
 22 23  1  0
 23 24  1  0
 24 25  2  0
 24 26  1  0
 26 27  1  0
 27 28  2  0
 28 29  1  0
 29 30  2  0
 30 31  1  0
 31 32  2  0
 14  5  1  0
 20 15  1  0
 32 27  1  0
 23 19  1  0
  1 33  1  0
  1 34  1  0
  1 35  1  0
  2 36  1  0
  2 37  1  0
  4 38  1  0
  4 39  1  0
  6 40  1  0
  7 41  1  0
 10 42  1  0
 10 43  1  0
 10 44  1  0
 13 45  1  0
 14 46  1  0
 16 47  1  0
 17 48  1  0
 18 49  1  0
 21 50  1  0
 26 51  1  0
 28 52  1  0
 29 53  1  0
 30 54  1  0
 31 55  1  0
 32 56  1  0
M  END
>  <UniqueID>  (20) 
19

>  <SMILES>  (20) 
CCN(Cc1ccc(S(C)(=O)=O)cc1)c1cccc2c1cnn2C(=O)Nc1ccccc1

>  <Energy>  (20) 
102.37275476527638

>  <Genealogy>  (20) 
CCN(Cc1ccc(S(C)(=O)=O)cc1)c1cccc2c1cnn2C(=O)Nc1ccccc1 (3D coordinates assigned)
CCN(Cc1ccc(S(C)(=O)=O)cc1)c1cccc2c1cnn2C(=O)Nc1ccccc1 (optimized conformer: 102.37275476527638 kcal/mol)

>  <smiles>  (20) 
CCN(Cc1ccc(S(C)(=O)=O)cc1)c1cccc2c1cnn2C(=O)Nc1ccccc1

>  <score_type>  (20) 
oracle

>  <origin>  (20) 
adg

>  <m_score__min__energy>  (20) 
-9.6300000000000008

>  <m_primary>  (20) 
energy

$$$$
20:0
     RDKit          3D

 40 41  0  0  0  0  0  0  0  0999 V2000
   59.7480   29.1470   48.6750 C   0  0  0  0  0  0  0  0  0  0  0  0
   58.7880   30.1360   49.0270 O   0  0  0  0  0  0  0  0  0  0  0  0
   59.1310   31.4710   49.2670 C   0  0  0  0  0  0  0  0  0  0  0  0
   59.6330   31.8010   50.3760 O   0  0  0  0  0  0  0  0  0  0  0  0
   58.9240   32.4730   48.2010 C   0  0  0  0  0  0  0  0  0  0  0  0
   58.3930   32.1160   46.9490 C   0  0  0  0  0  0  0  0  0  0  0  0
   58.2990   33.1800   46.0580 C   0  0  0  0  0  0  0  0  0  0  0  0
   57.7140   33.1150   44.6820 C   0  0  0  0  0  0  0  0  0  0  0  0
   56.7560   31.9270   44.5630 C   0  0  0  0  0  0  0  0  0  0  0  0
   57.3050   30.8710   43.5980 C   0  0  0  0  0  0  0  0  0  0  0  0
   57.7560   29.6450   44.3520 C   0  0  0  0  0  0  0  0  0  0  0  0
   59.1290   29.3900   44.4940 C   0  0  0  0  0  0  0  0  0  0  0  0
   59.5710   28.2810   45.2130 C   0  0  0  0  0  0  0  0  0  0  0  0
   58.6500   27.4170   45.8060 C   0  0  0  0  0  0  0  0  0  0  0  0
   57.2710   27.6580   45.6910 C   0  0  0  0  0  0  0  0  0  0  0  0
   56.3000   26.7160   46.3500 C   0  0  0  0  0  0  0  0  0  0  0  0
   56.8200   28.7850   44.9650 C   0  0  0  0  0  0  0  0  0  0  0  0
   55.4560   29.0710   44.8390 O   0  0  0  0  0  0  0  0  0  0  0  0
   58.8350   34.5800   46.8160 S   0  0  0  0  0  0  0  0  0  0  0  0
   59.2210   33.8420   48.2770 C   0  0  0  0  0  0  0  0  0  0  0  0
   59.7130   34.5610   49.4110 N   0  0  0  0  0  0  0  0  0  0  0  0
   60.1742   28.7079   49.5891 H   0  0  0  0  0  0  0  0  0  0  0  0
   59.2616   28.3586   48.0818 H   0  0  0  0  0  0  0  0  0  0  0  0
   60.5505   29.6097   48.0818 H   0  0  0  0  0  0  0  0  0  0  0  0
   58.0812   31.0915   46.6977 H   0  0  0  0  0  0  0  0  0  0  0  0
   57.1640   34.0455   44.4780 H   0  0  0  0  0  0  0  0  0  0  0  0
   58.5291   32.9893   43.9541 H   0  0  0  0  0  0  0  0  0  0  0  0
   56.6226   31.4721   45.5556 H   0  0  0  0  0  0  0  0  0  0  0  0
   55.7942   32.2911   44.1726 H   0  0  0  0  0  0  0  0  0  0  0  0
   56.5161   30.5874   42.8858 H   0  0  0  0  0  0  0  0  0  0  0  0
   58.1673   31.2947   43.0624 H   0  0  0  0  0  0  0  0  0  0  0  0
   59.8612   30.0703   44.0345 H   0  0  0  0  0  0  0  0  0  0  0  0
   60.6490   28.0864   45.3132 H   0  0  0  0  0  0  0  0  0  0  0  0
   59.0063   26.5408   46.3676 H   0  0  0  0  0  0  0  0  0  0  0  0
   56.3894   26.8027   47.4429 H   0  0  0  0  0  0  0  0  0  0  0  0
   55.2750   26.9730   46.0444 H   0  0  0  0  0  0  0  0  0  0  0  0
   56.5258   25.6837   46.0444 H   0  0  0  0  0  0  0  0  0  0  0  0
   54.7740   28.3940   44.5210 H   0  0  0  0  0  0  0  0  0  0  0  0
   60.1080   34.0850   50.2490 H   0  0  0  0  0  0  0  0  0  0  0  0
   59.6170   35.6000   49.4420 H   0  0  0  0  0  0  0  0  0  0  0  0
  1  2  1  0
  2  3  1  0
  3  4  2  0
  3  5  1  0
  5  6  1  0
  6  7  2  0
  7  8  1  0
  8  9  1  0
  9 10  1  0
 10 11  1  0
 11 12  2  0
 12 13  1  0
 13 14  2  0
 14 15  1  0
 15 16  1  0
 15 17  2  0
 17 18  1  0
  7 19  1  0
 19 20  1  0
 20 21  1  0
 20  5  2  0
 17 11  1  0
  1 22  1  0
  1 23  1  0
  1 24  1  0
  6 25  1  0
  8 26  1  0
  8 27  1  0
  9 28  1  0
  9 29  1  0
 10 30  1  0
 10 31  1  0
 12 32  1  0
 13 33  1  0
 14 34  1  0
 16 35  1  0
 16 36  1  0
 16 37  1  0
 18 38  1  0
 21 39  1  0
 21 40  1  0
M  END
>  <UniqueID>  (21) 
20

>  <SMILES>  (21) 
COC(=O)c1cc(CCCc2cccc(C)c2O)sc1N

>  <Energy>  (21) 
60.363726071552065

>  <Genealogy>  (21) 
COC(=O)c1cc(CCCc2cccc(C)c2O)sc1N (3D coordinates assigned)
COC(=O)c1cc(CCCc2cccc(C)c2O)sc1N (optimized conformer: 60.363726071552065 kcal/mol)

>  <smiles>  (21) 
COC(=O)c1cc(CCCc2cccc(C)c2O)sc1N

>  <score_type>  (21) 
oracle

>  <origin>  (21) 
adg

>  <m_score__min__energy>  (21) 
-7.6600000000000001

>  <m_primary>  (21) 
energy

$$$$
21:0
     RDKit          3D

 53 55  0  0  0  0  0  0  0  0999 V2000
   59.0350   29.4970   48.9550 C   0  0  0  0  0  0  0  0  0  0  0  0
   60.3230   29.9680   48.2890 C   0  0  0  0  0  0  0  0  0  0  0  0
   60.1360   31.0100   47.1560 C   0  0  0  0  0  0  0  0  0  0  0  0
   58.7970   31.0650   46.4890 N   0  0  0  0  0  0  0  0  0  0  0  0
   58.1070   32.3690   46.6870 C   0  0  0  0  0  0  0  0  0  0  0  0
   58.7920   33.5380   45.9490 C   0  0  0  0  0  0  0  0  0  0  0  0
   59.4590   34.5810   46.8680 C   0  0  0  0  0  0  0  0  0  0  0  0
   60.8540   34.2070   47.3040 C   0  0  0  0  0  0  0  0  0  0  0  0
   61.1840   34.1860   48.6720 C   0  0  0  0  0  0  0  0  0  0  0  0
   62.4670   33.8150   49.0820 C   0  0  0  0  0  0  0  0  0  0  0  0
   63.4280   33.4530   48.1360 C   0  0  0  0  0  0  0  0  0  0  0  0
   63.1050   33.4490   46.7770 C   0  0  0  0  0  0  0  0  0  0  0  0
   61.8200   33.8160   46.3610 C   0  0  0  0  0  0  0  0  0  0  0  0
   58.6990   30.5840   45.0690 C   0  0  2  0  0  0  0  0  0  0  0  0
   57.1930   30.4950   44.6170 C   0  0  0  0  0  0  0  0  0  0  0  0
   56.6040   29.0720   44.4580 C   0  0  0  0  0  0  0  0  0  0  0  0
   57.2580   28.0780   45.3840 C   0  0  0  0  0  0  0  0  0  0  0  0
   58.6540   28.1240   45.5110 C   0  0  0  0  0  0  0  0  0  0  0  0
   59.3220   27.1700   46.2910 C   0  0  0  0  0  0  0  0  0  0  0  0
   58.5940   26.1800   46.9550 C   0  0  0  0  0  0  0  0  0  0  0  0
   57.2020   26.1240   46.8350 C   0  0  0  0  0  0  0  0  0  0  0  0
   56.5040   25.1210   47.5070 O   0  0  0  0  0  0  0  0  0  0  0  0
   56.5290   27.0670   46.0370 C   0  0  0  0  0  0  0  0  0  0  0  0
   55.1470   26.9930   45.8940 O   0  0  0  0  0  0  0  0  0  0  0  0
   59.3910   29.2200   44.7940 C   0  0  0  0  0  0  0  0  0  0  0  0
   59.1507   29.5393   50.0481 H   0  0  0  0  0  0  0  0  0  0  0  0
   58.2040   30.1494   48.6487 H   0  0  0  0  0  0  0  0  0  0  0  0
   58.8209   28.4624   48.6487 H   0  0  0  0  0  0  0  0  0  0  0  0
   60.9620   30.4177   49.0632 H   0  0  0  0  0  0  0  0  0  0  0  0
   60.7660   29.0788   47.8167 H   0  0  0  0  0  0  0  0  0  0  0  0
   60.3327   32.0036   47.5849 H   0  0  0  0  0  0  0  0  0  0  0  0
   60.8331   30.6960   46.3652 H   0  0  0  0  0  0  0  0  0  0  0  0
   57.0753   32.2783   46.3164 H   0  0  0  0  0  0  0  0  0  0  0  0
   58.1415   32.5968   47.7626 H   0  0  0  0  0  0  0  0  0  0  0  0
   59.5657   33.1193   45.2886 H   0  0  0  0  0  0  0  0  0  0  0  0
   57.9971   34.0686   45.4044 H   0  0  0  0  0  0  0  0  0  0  0  0
   59.5097   35.5375   46.3270 H   0  0  0  0  0  0  0  0  0  0  0  0
   58.8454   34.6436   47.7788 H   0  0  0  0  0  0  0  0  0  0  0  0
   60.4283   34.4630   49.4218 H   0  0  0  0  0  0  0  0  0  0  0  0
   62.7206   33.8081   50.1523 H   0  0  0  0  0  0  0  0  0  0  0  0
   64.4402   33.1707   48.4611 H   0  0  0  0  0  0  0  0  0  0  0  0
   63.8611   33.1572   46.0332 H   0  0  0  0  0  0  0  0  0  0  0  0
   61.5650   33.7983   45.2911 H   0  0  0  0  0  0  0  0  0  0  0  0
   59.2447   31.3358   44.4799 H   0  0  0  0  0  0  0  0  0  0  0  0
   56.5871   31.0261   45.3659 H   0  0  0  0  0  0  0  0  0  0  0  0
   57.1639   30.9370   43.6101 H   0  0  0  0  0  0  0  0  0  0  0  0
   55.5272   29.1075   44.6799 H   0  0  0  0  0  0  0  0  0  0  0  0
   56.7893   28.7434   43.4247 H   0  0  0  0  0  0  0  0  0  0  0  0
   60.4180   27.2009   46.3801 H   0  0  0  0  0  0  0  0  0  0  0  0
   59.1191   25.4396   47.5763 H   0  0  0  0  0  0  0  0  0  0  0  0
   55.5170   25.2000   47.7180 H   0  0  0  0  0  0  0  0  0  0  0  0
   60.4298   29.2580   45.1537 H   0  0  0  0  0  0  0  0  0  0  0  0
   59.3814   29.0183   43.7127 H   0  0  0  0  0  0  0  0  0  0  0  0
  1  2  1  0
  2  3  1  0
  3  4  1  0
  4  5  1  0
  5  6  1  0
  6  7  1  0
  7  8  1  0
  8  9  2  0
  9 10  1  0
 10 11  2  0
 11 12  1  0
 12 13  2  0
  4 14  1  0
 14 15  1  0
 15 16  1  0
 16 17  1  0
 17 18  2  0
 18 19  1  0
 19 20  2  0
 20 21  1  0
 21 22  1  0
 21 23  2  0
 23 24  1  0
 18 25  1  0
 13  8  1  0
 25 14  1  0
 23 17  1  0
  1 26  1  0
  1 27  1  0
  1 28  1  0
  2 29  1  0
  2 30  1  0
  3 31  1  0
  3 32  1  0
  5 33  1  0
  5 34  1  0
  6 35  1  0
  6 36  1  0
  7 37  1  0
  7 38  1  0
  9 39  1  0
 10 40  1  0
 11 41  1  0
 12 42  1  0
 13 43  1  0
 14 44  1  6
 15 45  1  0
 15 46  1  0
 16 47  1  0
 16 48  1  0
 19 49  1  0
 20 50  1  0
 22 51  1  0
 25 52  1  0
 25 53  1  0
M  CHG  1  24  -1
M  END
>  <UniqueID>  (22) 
21

>  <SMILES>  (22) 
CCCN(CCCc1ccccc1)[C@@H]1CCc2c(ccc(O)c2[O-])C1

>  <Energy>  (22) 
71.54711642578545

>  <Genealogy>  (22) 
CCCN(CCCc1ccccc1)C1CCc2c(ccc(O)c2[O-])C1 (protonated)
CCCN(CCCc1ccccc1)[C@@H]1CCc2c(ccc(O)c2[O-])C1 (chirality)
CCCN(CCCc1ccccc1)[C@@H]1CCc2c(ccc(O)c2[O-])C1 (3D coordinates assigned)
CCCN(CCCc1ccccc1)[C@@H]1CCc2c(ccc(O)c2[O-])C1 (nonaromatic ring conformer: 71.54711642578545 kcal/mol)

>  <smiles>  (22) 
CCCN(CCCc1ccccc1)C1CCc2c(ccc(O)c2O)C1

>  <score_type>  (22) 
oracle

>  <origin>  (22) 
adg

>  <m_score__min__energy>  (22) 
-13.26

>  <m_primary>  (22) 
energy

$$$$
22:0
     RDKit          3D

 44 46  0  0  0  0  0  0  0  0999 V2000
   57.8160   32.4750   42.4530 C   0  0  0  0  0  0  0  0  0  0  0  0
   58.1770   32.6810   43.9300 C   0  0  1  0  0  0  0  0  0  0  0  0
   57.4460   33.8960   44.5140 C   0  0  0  0  0  0  0  0  0  0  0  0
   57.9700   34.2180   45.9220 C   0  0  0  0  0  0  0  0  0  0  0  0
   58.2300   32.9900   46.7680 C   0  0  0  0  0  0  0  0  0  0  0  0
   58.5330   33.1540   48.1300 C   0  0  0  0  0  0  0  0  0  0  0  0
   58.8800   32.0530   48.9150 C   0  0  0  0  0  0  0  0  0  0  0  0
   58.9580   30.7830   48.3420 C   0  0  0  0  0  0  0  0  0  0  0  0
   58.6690   30.6060   46.9880 C   0  0  0  0  0  0  0  0  0  0  0  0
   58.2700   31.6980   46.1950 C   0  0  0  0  0  0  0  0  0  0  0  0
   57.9140   31.5230   44.8070 N   0  0  0  0  0  0  0  0  0  0  0  0
   57.0270   30.0910   44.3150 S   0  0  0  0  0  0  0  0  0  0  0  0
   56.9590   30.0520   42.8140 O   0  0  0  0  0  0  0  0  0  0  0  0
   55.6320   30.0840   44.8710 O   0  0  0  0  0  0  0  0  0  0  0  0
   57.8150   28.6390   44.9330 C   0  0  0  0  0  0  0  0  0  0  0  0
   59.2060   28.4890   44.8570 C   0  0  0  0  0  0  0  0  0  0  0  0
   59.8150   27.3450   45.3790 C   0  0  0  0  0  0  0  0  0  0  0  0
   59.0410   26.3460   45.9750 C   0  0  0  0  0  0  0  0  0  0  0  0
   57.6420   26.4820   46.0480 C   0  0  0  0  0  0  0  0  0  0  0  0
   56.8050   25.4860   46.6500 N   0  0  0  0  0  0  0  0  0  0  0  0
   55.3570   24.8260   45.9620 S   0  0  0  0  0  0  0  0  0  0  0  0
   55.7270   24.0050   44.4260 C   0  0  0  0  0  0  0  0  0  0  0  0
   54.3970   25.9490   45.6890 O   0  0  0  0  0  0  0  0  0  0  0  0
   54.7170   23.8680   46.9280 O   0  0  0  0  0  0  0  0  0  0  0  0
   57.0390   27.6310   45.5220 C   0  0  0  0  0  0  0  0  0  0  0  0
   56.8627   31.9310   42.3810 H   0  0  0  0  0  0  0  0  0  0  0  0
   57.7181   33.4532   41.9596 H   0  0  0  0  0  0  0  0  0  0  0  0
   58.6084   31.8931   41.9596 H   0  0  0  0  0  0  0  0  0  0  0  0
   59.2660   32.8356   43.9150 H   0  0  0  0  0  0  0  0  0  0  0  0
   57.6099   34.7651   43.8599 H   0  0  0  0  0  0  0  0  0  0  0  0
   56.3724   33.6657   44.5796 H   0  0  0  0  0  0  0  0  0  0  0  0
   58.9118   34.7776   45.8229 H   0  0  0  0  0  0  0  0  0  0  0  0
   57.1883   34.8007   46.4314 H   0  0  0  0  0  0  0  0  0  0  0  0
   58.4966   34.1567   48.5809 H   0  0  0  0  0  0  0  0  0  0  0  0
   59.0921   32.1867   49.9861 H   0  0  0  0  0  0  0  0  0  0  0  0
   59.2479   29.9195   48.9587 H   0  0  0  0  0  0  0  0  0  0  0  0
   58.7537   29.6060   46.5376 H   0  0  0  0  0  0  0  0  0  0  0  0
   59.8187   29.2720   44.3863 H   0  0  0  0  0  0  0  0  0  0  0  0
   60.9075   27.2304   45.3206 H   0  0  0  0  0  0  0  0  0  0  0  0
   59.5268   25.4500   46.3887 H   0  0  0  0  0  0  0  0  0  0  0  0
   56.1708   23.0203   44.6342 H   0  0  0  0  0  0  0  0  0  0  0  0
   54.8006   23.8747   43.8474 H   0  0  0  0  0  0  0  0  0  0  0  0
   56.4382   24.6128   43.8474 H   0  0  0  0  0  0  0  0  0  0  0  0
   55.9459   27.7438   45.5714 H   0  0  0  0  0  0  0  0  0  0  0  0
  1  2  1  0
  2  3  1  0
  3  4  1  0
  4  5  1  0
  5  6  2  0
  6  7  1  0
  7  8  2  0
  8  9  1  0
  9 10  2  0
 10 11  1  0
 11 12  1  0
 12 13  2  0
 12 14  2  0
 12 15  1  0
 15 16  2  0
 16 17  1  0
 17 18  2  0
 18 19  1  0
 19 20  1  0
 20 21  1  0
 21 22  1  0
 21 23  2  0
 21 24  2  0
 19 25  2  0
 11  2  1  0
 25 15  1  0
 10  5  1  0
  1 26  1  0
  1 27  1  0
  1 28  1  0
  2 29  1  6
  3 30  1  0
  3 31  1  0
  4 32  1  0
  4 33  1  0
  6 34  1  0
  7 35  1  0
  8 36  1  0
  9 37  1  0
 16 38  1  0
 17 39  1  0
 18 40  1  0
 22 41  1  0
 22 42  1  0
 22 43  1  0
 25 44  1  0
M  CHG  1  20  -1
M  END
>  <UniqueID>  (23) 
22

>  <SMILES>  (23) 
C[C@H]1CCc2ccccc2N1S(=O)(=O)c1cccc([N-]S(C)(=O)=O)c1

>  <Energy>  (23) 
52.785472182332356

>  <Genealogy>  (23) 
CC1CCc2ccccc2N1S(=O)(=O)c1cccc([N-]S(C)(=O)=O)c1 (protonated)
C[C@H]1CCc2ccccc2N1S(=O)(=O)c1cccc([N-]S(C)(=O)=O)c1 (chirality)
C[C@H]1CCc2ccccc2N1S(=O)(=O)c1cccc([N-]S(C)(=O)=O)c1 (3D coordinates assigned)
C[C@H]1CCc2ccccc2N1S(=O)(=O)c1cccc([N-]S(C)(=O)=O)c1 (nonaromatic ring conformer: 52.785472182332356 kcal/mol)

>  <smiles>  (23) 
CC1CCc2ccccc2N1S(=O)(=O)c1cccc(NS(C)(=O)=O)c1

>  <score_type>  (23) 
oracle

>  <origin>  (23) 
adg

>  <m_score__min__energy>  (23) 
-11.630000000000001

>  <m_primary>  (23) 
energy

$$$$
23:0
     RDKit          3D

 57 60  0  0  0  0  0  0  0  0999 V2000
   57.8760   21.0260   42.5800 O   0  0  0  0  0  0  0  0  0  0  0  0
   57.1590   21.6010   43.4400 C   0  0  0  0  0  0  0  0  0  0  0  0
   55.9200   20.9880   43.8230 N   0  0  0  0  0  0  0  0  0  0  0  0
   55.5750   20.4850   45.1530 C   0  0  0  0  0  0  0  0  0  0  0  0
   54.5700   21.4000   45.8640 C   0  0  0  0  0  0  0  0  0  0  0  0
   55.1960   22.7110   46.2640 C   0  0  0  0  0  0  0  0  0  0  0  0
   56.2650   22.7340   47.1750 C   0  0  0  0  0  0  0  0  0  0  0  0
   56.8320   23.9510   47.5660 C   0  0  0  0  0  0  0  0  0  0  0  0
   56.3300   25.1570   47.0580 C   0  0  0  0  0  0  0  0  0  0  0  0
   56.8890   26.3730   47.4460 O   0  0  0  0  0  0  0  0  0  0  0  0
   55.2600   25.1390   46.1560 C   0  0  0  0  0  0  0  0  0  0  0  0
   54.7530   26.3300   45.6500 O   0  0  0  0  0  0  0  0  0  0  0  0
   54.6940   23.9220   45.7620 C   0  0  0  0  0  0  0  0  0  0  0  0
   57.6070   22.8940   43.9840 C   0  0  0  0  0  0  0  0  0  0  0  0
   58.6080   22.9730   44.9560 C   0  0  0  0  0  0  0  0  0  0  0  0
   59.0070   24.2210   45.4260 C   0  0  0  0  0  0  0  0  0  0  0  0
   58.4090   25.3770   44.9030 C   0  0  0  0  0  0  0  0  0  0  0  0
   58.7910   26.6930   45.3520 N   0  0  0  0  0  0  0  0  0  0  0  0
   57.8720   27.8350   45.1980 C   0  0  0  0  0  0  0  0  0  0  0  0
   58.6590   29.1230   44.9410 C   0  0  0  0  0  0  0  0  0  0  0  0
   59.7270   29.2440   45.9380 N   0  0  0  0  0  0  0  0  0  0  0  0
   59.6400   30.1920   47.0230 C   0  0  0  0  0  0  0  0  0  0  0  0
   60.5250   30.2050   47.9210 O   0  0  0  0  0  0  0  0  0  0  0  0
   58.5780   31.1550   47.0570 N   0  0  0  0  0  0  0  0  0  0  0  0
   58.5130   32.3840   46.3170 C   0  0  0  0  0  0  0  0  0  0  0  0
   57.6650   32.5410   45.2050 C   0  0  0  0  0  0  0  0  0  0  0  0
   57.6530   33.7470   44.4950 C   0  0  0  0  0  0  0  0  0  0  0  0
   58.4940   34.7950   44.8800 C   0  0  0  0  0  0  0  0  0  0  0  0
   59.3540   34.6360   45.9690 C   0  0  0  0  0  0  0  0  0  0  0  0
   59.3700   33.4320   46.6800 C   0  0  0  0  0  0  0  0  0  0  0  0
   60.6920   28.1410   45.9690 C   0  0  0  0  0  0  0  0  0  0  0  0
   59.9480   26.8350   46.2540 C   0  0  0  0  0  0  0  0  0  0  0  0
   57.4650   25.2410   43.9330 N   0  0  0  0  0  0  0  0  0  0  0  0
   57.0800   24.0440   43.4870 N   0  0  0  0  0  0  0  0  0  0  0  0
   55.1340   19.4824   45.0513 H   0  0  0  0  0  0  0  0  0  0  0  0
   56.4945   20.4526   45.7559 H   0  0  0  0  0  0  0  0  0  0  0  0
   53.7276   21.5996   45.1854 H   0  0  0  0  0  0  0  0  0  0  0  0
   54.2285   20.8903   46.7770 H   0  0  0  0  0  0  0  0  0  0  0  0
   56.6577   21.7908   47.5825 H   0  0  0  0  0  0  0  0  0  0  0  0
   57.6739   23.9619   48.2739 H   0  0  0  0  0  0  0  0  0  0  0  0
   56.4820   27.2580   47.1610 H   0  0  0  0  0  0  0  0  0  0  0  0
   53.8512   23.9139   45.0552 H   0  0  0  0  0  0  0  0  0  0  0  0
   59.0763   22.0573   45.3461 H   0  0  0  0  0  0  0  0  0  0  0  0
   59.7842   24.2999   46.2005 H   0  0  0  0  0  0  0  0  0  0  0  0
   57.1986   27.6463   44.3490 H   0  0  0  0  0  0  0  0  0  0  0  0
   57.2897   27.9516   46.1239 H   0  0  0  0  0  0  0  0  0  0  0  0
   59.0988   29.0903   43.9333 H   0  0  0  0  0  0  0  0  0  0  0  0
   57.9845   29.9887   45.0159 H   0  0  0  0  0  0  0  0  0  0  0  0
   57.0101   31.7140   44.8931 H   0  0  0  0  0  0  0  0  0  0  0  0
   56.9809   33.8703   43.6329 H   0  0  0  0  0  0  0  0  0  0  0  0
   58.4785   35.7448   44.3254 H   0  0  0  0  0  0  0  0  0  0  0  0
   60.0197   35.4591   46.2678 H   0  0  0  0  0  0  0  0  0  0  0  0
   60.0587   33.3067   47.5285 H   0  0  0  0  0  0  0  0  0  0  0  0
   61.2022   28.0701   44.9970 H   0  0  0  0  0  0  0  0  0  0  0  0
   61.4383   28.3226   46.7565 H   0  0  0  0  0  0  0  0  0  0  0  0
   60.6325   25.9876   46.1011 H   0  0  0  0  0  0  0  0  0  0  0  0
   59.5891   26.8495   47.2937 H   0  0  0  0  0  0  0  0  0  0  0  0
  1  2  2  0
  2  3  1  0
  3  4  1  0
  4  5  1  0
  5  6  1  0
  6  7  2  0
  7  8  1  0
  8  9  2  0
  9 10  1  0
  9 11  1  0
 11 12  1  0
 11 13  2  0
  2 14  1  0
 14 15  2  0
 15 16  1  0
 16 17  2  0
 17 18  1  0
 18 19  1  0
 19 20  1  0
 20 21  1  0
 21 22  1  0
 22 23  2  0
 22 24  1  0
 24 25  1  0
 25 26  2  0
 26 27  1  0
 27 28  2  0
 28 29  1  0
 29 30  2  0
 21 31  1  0
 31 32  1  0
 17 33  1  0
 33 34  2  0
 13  6  1  0
 34 14  1  0
 32 18  1  0
 30 25  1  0
  4 35  1  0
  4 36  1  0
  5 37  1  0
  5 38  1  0
  7 39  1  0
  8 40  1  0
 10 41  1  0
 13 42  1  0
 15 43  1  0
 16 44  1  0
 19 45  1  0
 19 46  1  0
 20 47  1  0
 20 48  1  0
 26 49  1  0
 27 50  1  0
 28 51  1  0
 29 52  1  0
 30 53  1  0
 31 54  1  0
 31 55  1  0
 32 56  1  0
 32 57  1  0
M  CHG  3   3  -1  12  -1  24  -1
M  END
>  <UniqueID>  (24) 
23

>  <SMILES>  (24) 
O=C([N-]CCc1ccc(O)c([O-])c1)c1ccc(N2CCN(C(=O)[N-]c3ccccc3)CC2)nn1

>  <Energy>  (24) 
69.59169776424164

>  <Genealogy>  (24) 
O=C([N-]CCc1ccc(O)c([O-])c1)c1ccc(N2CCN(C(=O)[N-]c3ccccc3)CC2)nn1 (protonated)
O=C([N-]CCc1ccc(O)c([O-])c1)c1ccc(N2CCN(C(=O)[N-]c3ccccc3)CC2)nn1 (3D coordinates assigned)
O=C([N-]CCc1ccc(O)c([O-])c1)c1ccc(N2CCN(C(=O)[N-]c3ccccc3)CC2)nn1 (nonaromatic ring conformer: 69.59169776424164 kcal/mol)

>  <smiles>  (24) 
O=C(NCCc1ccc(O)c(O)c1)c1ccc(N2CCN(C(=O)Nc3ccccc3)CC2)nn1

>  <score_type>  (24) 
oracle

>  <origin>  (24) 
adg

>  <m_score__min__energy>  (24) 
-15.98

>  <m_primary>  (24) 
energy

$$$$
24:0
     RDKit          3D

 63 67  0  0  0  0  0  0  0  0999 V2000
   61.5320   27.7900   51.8870 C   0  0  0  0  0  0  0  0  0  0  0  0
   62.1720   29.0970   51.5110 C   0  0  0  0  0  0  0  0  0  0  0  0
   63.5640   29.2480   51.6080 C   0  0  0  0  0  0  0  0  0  0  0  0
   64.1690   30.4610   51.2620 C   0  0  0  0  0  0  0  0  0  0  0  0
   63.3870   31.5380   50.8270 C   0  0  0  0  0  0  0  0  0  0  0  0
   64.1540   33.0650   50.4040 S   0  0  0  0  0  0  0  0  0  0  0  0
   63.9590   34.0680   51.5090 O   0  0  0  0  0  0  0  0  0  0  0  0
   65.6300   32.8340   50.2250 O   0  0  0  0  0  0  0  0  0  0  0  0
   63.5050   33.7030   48.9290 N   0  0  0  0  0  0  0  0  0  0  0  0
   62.1130   33.6360   48.6030 C   0  0  0  0  0  0  0  0  0  0  0  0
   61.2390   34.5930   49.1300 C   0  0  0  0  0  0  0  0  0  0  0  0
   59.8710   34.5040   48.8890 C   0  0  0  0  0  0  0  0  0  0  0  0
   59.3580   33.4480   48.1360 C   0  0  0  0  0  0  0  0  0  0  0  0
   60.2130   32.4710   47.5930 C   0  0  0  0  0  0  0  0  0  0  0  0
   59.6310   31.3740   46.7750 C   0  0  0  0  0  0  0  0  0  0  0  0
   58.8820   31.6540   45.8030 O   0  0  0  0  0  0  0  0  0  0  0  0
   59.8490   29.9980   47.1270 N   0  0  0  0  0  0  0  0  0  0  0  0
   58.7640   29.0140   47.0130 C   0  0  2  0  0  0  0  0  0  0  0  0
   59.2490   27.5750   47.3390 C   0  0  2  0  0  0  0  0  0  0  0  0
   60.2420   27.0650   46.2640 C   0  0  0  0  0  0  0  0  0  0  0  0
   59.5600   27.0750   44.8820 C   0  0  2  0  0  0  0  0  0  0  0  0
   59.1190   28.5140   44.5400 C   0  0  0  0  0  0  0  0  0  0  0  0
   58.1150   29.0210   45.6010 C   0  0  1  0  0  0  0  0  0  0  0  0
   56.8810   28.0900   45.6170 C   0  0  0  0  0  0  0  0  0  0  0  0
   57.3060   26.6410   45.9810 C   0  0  1  0  0  0  0  0  0  0  0  0
   56.0710   25.7620   46.0180 C   0  0  0  0  0  0  0  0  0  0  0  0
   54.7730   26.3550   46.0260 N   0  0  0  0  0  0  0  0  0  0  0  0
   56.1740   24.5060   45.9480 O   0  0  0  0  0  0  0  0  0  0  0  0
   58.3260   26.1430   44.9130 C   0  0  0  0  0  0  0  0  0  0  0  0
   58.0170   26.6410   47.3680 C   0  0  0  0  0  0  0  0  0  0  0  0
   61.6140   32.5720   47.8160 C   0  0  0  0  0  0  0  0  0  0  0  0
   62.5740   31.5610   47.2240 C   0  0  0  0  0  0  0  0  0  0  0  0
   61.9950   31.3900   50.7240 C   0  0  0  0  0  0  0  0  0  0  0  0
   61.3910   30.1760   51.0660 C   0  0  0  0  0  0  0  0  0  0  0  0
   61.4900   27.7042   52.9828 H   0  0  0  0  0  0  0  0  0  0  0  0
   60.5122   27.7496   51.4767 H   0  0  0  0  0  0  0  0  0  0  0  0
   62.1255   26.9597   51.4767 H   0  0  0  0  0  0  0  0  0  0  0  0
   64.1824   28.4083   51.9579 H   0  0  0  0  0  0  0  0  0  0  0  0
   65.2615   30.5689   51.3318 H   0  0  0  0  0  0  0  0  0  0  0  0
   61.6349   35.4199   49.7379 H   0  0  0  0  0  0  0  0  0  0  0  0
   59.1922   35.2691   49.2938 H   0  0  0  0  0  0  0  0  0  0  0  0
   58.2737   33.3781   47.9648 H   0  0  0  0  0  0  0  0  0  0  0  0
   60.6590   29.7710   47.7410 H   0  0  0  0  0  0  0  0  0  0  0  0
   58.0087   29.3149   47.7539 H   0  0  0  0  0  0  0  0  0  0  0  0
   59.7635   27.5822   48.3112 H   0  0  0  0  0  0  0  0  0  0  0  0
   61.1249   27.7207   46.2410 H   0  0  0  0  0  0  0  0  0  0  0  0
   60.5512   26.0386   46.5107 H   0  0  0  0  0  0  0  0  0  0  0  0
   60.2656   26.7192   44.1168 H   0  0  0  0  0  0  0  0  0  0  0  0
   60.0000   29.1725   44.5271 H   0  0  0  0  0  0  0  0  0  0  0  0
   58.6365   28.5204   43.5515 H   0  0  0  0  0  0  0  0  0  0  0  0
   57.8194   30.0491   45.3450 H   0  0  0  0  0  0  0  0  0  0  0  0
   56.1600   28.4553   46.3631 H   0  0  0  0  0  0  0  0  0  0  0  0
   56.4201   28.0883   44.6182 H   0  0  0  0  0  0  0  0  0  0  0  0
   54.5230   27.0890   46.7180 H   0  0  0  0  0  0  0  0  0  0  0  0
   58.6475   25.1217   45.1652 H   0  0  0  0  0  0  0  0  0  0  0  0
   57.8444   26.1500   43.9241 H   0  0  0  0  0  0  0  0  0  0  0  0
   57.3131   26.9925   48.1367 H   0  0  0  0  0  0  0  0  0  0  0  0
   58.3485   25.6182   47.6004 H   0  0  0  0  0  0  0  0  0  0  0  0
   63.0855   31.0223   48.0353 H   0  0  0  0  0  0  0  0  0  0  0  0
   62.0155   30.8448   46.6034 H   0  0  0  0  0  0  0  0  0  0  0  0
   63.3181   32.0817   46.6034 H   0  0  0  0  0  0  0  0  0  0  0  0
   61.3780   32.2306   50.3736 H   0  0  0  0  0  0  0  0  0  0  0  0
   60.2995   30.0657   50.9861 H   0  0  0  0  0  0  0  0  0  0  0  0
  1  2  1  0
  2  3  2  0
  3  4  1  0
  4  5  2  0
  5  6  1  0
  6  7  2  0
  6  8  2  0
  6  9  1  0
  9 10  1  0
 10 11  2  0
 11 12  1  0
 12 13  2  0
 13 14  1  0
 14 15  1  0
 15 16  2  0
 15 17  1  0
 17 18  1  0
 18 19  1  0
 19 20  1  0
 20 21  1  0
 21 22  1  0
 22 23  1  0
 23 24  1  0
 24 25  1  0
 25 26  1  1
 26 27  1  0
 26 28  2  0
 25 29  1  0
 25 30  1  0
 14 31  2  0
 31 32  1  0
  5 33  1  0
 33 34  2  0
 34  2  1  0
 31 10  1  0
 23 18  1  0
 30 19  1  0
 29 21  1  0
  1 35  1  0
  1 36  1  0
  1 37  1  0
  3 38  1  0
  4 39  1  0
 11 40  1  0
 12 41  1  0
 13 42  1  0
 17 43  1  0
 18 44  1  1
 19 45  1  1
 20 46  1  0
 20 47  1  0
 21 48  1  6
 22 49  1  0
 22 50  1  0
 23 51  1  6
 24 52  1  0
 24 53  1  0
 27 54  1  0
 29 55  1  0
 29 56  1  0
 30 57  1  0
 30 58  1  0
 32 59  1  0
 32 60  1  0
 32 61  1  0
 33 62  1  0
 34 63  1  0
M  CHG  2   9  -1  27  -1
M  END
>  <UniqueID>  (25) 
24

>  <SMILES>  (25) 
Cc1ccc(S(=O)(=O)[N-]c2cccc(C(=O)NC3[C@@H]4CC5C[C@H]3CC(C([NH-])=O)(C5)C4)c2C)cc1

>  <Energy>  (25) 
83.95377758576176

>  <Genealogy>  (25) 
Cc1ccc(S(=O)(=O)[N-]c2cccc(C(=O)NC3C4CC5CC3CC(C([NH-])=O)(C5)C4)c2C)cc1 (protonated)
Cc1ccc(S(=O)(=O)[N-]c2cccc(C(=O)NC3[C@@H]4CC5C[C@H]3CC(C([NH-])=O)(C5)C4)c2C)cc1 (chirality)
Cc1ccc(S(=O)(=O)[N-]c2cccc(C(=O)NC3[C@@H]4CC5C[C@H]3CC(C([NH-])=O)(C5)C4)c2C)cc1 (3D coordinates assigned)
Cc1ccc(S(=O)(=O)[N-]c2cccc(C(=O)NC3[C@@H]4CC5C[C@H]3CC(C([NH-])=O)(C5)C4)c2C)cc1 (nonaromatic ring conformer: 83.95377758576176 kcal/mol)

>  <smiles>  (25) 
Cc1ccc(S(=O)(=O)Nc2cccc(C(=O)NC3C4CC5CC3CC(C(N)=O)(C5)C4)c2C)cc1

>  <score_type>  (25) 
oracle

>  <origin>  (25) 
adg

>  <m_score__min__energy>  (25) 
-13.380000000000001

>  <m_primary>  (25) 
energy

$$$$
25:0
     RDKit          3D

 41 43  0  0  0  0  0  0  0  0999 V2000
   59.9020   24.3560   45.6530 H   0  0  0  0  0  0  0  0  0  0  0  0
   59.5100   24.9760   46.3520 O   0  0  0  0  0  0  0  0  0  0  0  0
   58.7180   26.0650   45.9960 C   0  0  0  0  0  0  0  0  0  0  0  0
   59.2970   27.2260   45.4670 C   0  0  0  0  0  0  0  0  0  0  0  0
   60.3870   27.2821   45.3300 H   0  0  0  0  0  0  0  0  0  0  0  0
   58.4930   28.3130   45.1130 C   0  0  0  0  0  0  0  0  0  0  0  0
   58.9523   29.2173   44.6872 H   0  0  0  0  0  0  0  0  0  0  0  0
   57.1010   28.2570   45.2980 C   0  0  0  0  0  0  0  0  0  0  0  0
   56.2580   29.3980   44.8900 C   0  0  0  0  0  0  0  0  0  0  0  0
   55.0730   29.1860   44.5220 O   0  0  0  0  0  0  0  0  0  0  0  0
   56.7560   30.7410   44.8740 N   0  0  0  0  0  0  0  0  0  0  0  0
   57.4040   31.3800   43.7320 C   0  0  0  0  0  0  0  0  0  0  0  0
   57.9385   30.6195   43.1438 H   0  0  0  0  0  0  0  0  0  0  0  0
   56.6394   31.8649   43.1073 H   0  0  0  0  0  0  0  0  0  0  0  0
   58.4010   32.4380   44.2200 C   0  0  0  0  0  0  0  0  0  0  0  0
   59.2888   31.9272   44.6211 H   0  0  0  0  0  0  0  0  0  0  0  0
   58.6546   33.0781   43.3621 H   0  0  0  0  0  0  0  0  0  0  0  0
   57.8140   33.3410   45.3180 C   0  0  0  0  0  0  0  0  0  0  0  0
   57.3634   34.2274   44.8477 H   0  0  0  0  0  0  0  0  0  0  0  0
   57.0596   32.7624   45.8713 H   0  0  0  0  0  0  0  0  0  0  0  0
   58.8410   33.7770   46.2660 N   0  0  0  0  0  0  0  0  0  0  0  0
   59.1370   33.2550   47.4270 C   0  0  0  0  0  0  0  0  0  0  0  0
   58.1480   32.7300   48.2840 C   0  0  0  0  0  0  0  0  0  0  0  0
   57.0909   32.7478   47.9804 H   0  0  0  0  0  0  0  0  0  0  0  0
   58.5110   32.1880   49.5170 C   0  0  0  0  0  0  0  0  0  0  0  0
   57.7379   31.7762   50.1824 H   0  0  0  0  0  0  0  0  0  0  0  0
   59.8120   32.1660   49.9000 N   0  0  0  0  0  0  0  0  0  0  0  0
   60.7990   32.6630   49.1110 C   0  0  0  0  0  0  0  0  0  0  0  0
   62.1260   32.6240   49.5560 C   0  0  0  0  0  0  0  0  0  0  0  0
   62.3632   32.1840   50.5359 H   0  0  0  0  0  0  0  0  0  0  0  0
   63.1510   33.1430   48.7580 C   0  0  0  0  0  0  0  0  0  0  0  0
   64.8110   33.0960   49.3230 Cl  0  0  0  0  0  0  0  0  0  0  0  0
   62.8520   33.7010   47.5120 C   0  0  0  0  0  0  0  0  0  0  0  0
   63.6598   34.1099   46.8873 H   0  0  0  0  0  0  0  0  0  0  0  0
   61.5320   33.7420   47.0560 C   0  0  0  0  0  0  0  0  0  0  0  0
   61.3064   34.1833   46.0740 H   0  0  0  0  0  0  0  0  0  0  0  0
   60.4870   33.2210   47.8470 C   0  0  0  0  0  0  0  0  0  0  0  0
   56.5220   27.0830   45.8150 C   0  0  0  0  0  0  0  0  0  0  0  0
   55.1450   26.9920   45.9940 O   0  0  0  0  0  0  0  0  0  0  0  0
   57.3320   25.9960   46.1660 C   0  0  0  0  0  0  0  0  0  0  0  0
   56.8757   25.0836   46.5774 H   0  0  0  0  0  0  0  0  0  0  0  0
  1  2  1  0
  2  3  1  0
  3  4  2  0
  4  5  1  0
  4  6  1  0
  6  7  1  0
  6  8  2  0
  8  9  1  0
  9 10  2  0
  9 11  1  0
 11 12  1  0
 12 13  1  0
 12 14  1  0
 12 15  1  0
 15 16  1  0
 15 17  1  0
 15 18  1  0
 18 19  1  0
 18 20  1  0
 18 21  1  0
 21 22  2  0
 22 23  1  0
 23 24  1  0
 23 25  2  0
 25 26  1  0
 25 27  1  0
 27 28  1  0
 28 29  2  0
 29 30  1  0
 29 31  1  0
 31 32  1  0
 31 33  2  0
 33 34  1  0
 33 35  1  0
 35 36  1  0
 35 37  2  0
  8 38  1  0
 38 39  1  0
 38 40  2  0
 40 41  1  0
 40  3  1  0
 37 22  1  0
 37 28  1  0
M  CHG  3  11  -1  27  -1  39  -1
M  END
>  <UniqueID>  (26) 
25

>  <SMILES>  (26) 
O=C([N-]CCC/N=c1\cc[n-]c2cc(Cl)ccc12)c1ccc(O)cc1[O-]

>  <Energy>  (26) 
51.32026296847406

>  <Genealogy>  (26) 
O=C([N-]CCCN=c1cc[n-]c2cc(Cl)ccc12)c1ccc(O)cc1[O-] (protonated)
O=C([N-]CCC/N=c1\cc[n-]c2cc(Cl)ccc12)c1ccc(O)cc1[O-] (cis-trans isomerization)
O=C([N-]CCC/N=c1\cc[n-]c2cc(Cl)ccc12)c1ccc(O)cc1[O-] (3D coordinates assigned)
O=C([N-]CCC/N=c1\cc[n-]c2cc(Cl)ccc12)c1ccc(O)cc1[O-] (optimized conformer: 51.32026296847406 kcal/mol)

>  <smiles>  (26) 
O=C(NCCCN=c1cc[nH]c2cc(Cl)ccc12)c1ccc(O)cc1O

>  <score_type>  (26) 
oracle

>  <origin>  (26) 
adg

>  <m_score__min__energy>  (26) 
-14.91

>  <m_primary>  (26) 
energy

$$$$
26:0
     RDKit          3D

 43 45  0  0  0  0  0  0  0  0999 V2000
   62.5730   33.8290   46.4810 N   0  0  0  0  0  0  0  0  0  0  0  0
   61.2200   33.1500   47.3170 S   0  0  0  0  0  0  0  0  0  0  0  0
   60.9830   33.9040   48.5950 O   0  0  0  0  0  0  0  0  0  0  0  0
   61.5090   31.7140   47.6490 O   0  0  0  0  0  0  0  0  0  0  0  0
   59.7890   33.2560   46.2960 C   0  0  0  0  0  0  0  0  0  0  0  0
   59.4340   34.4790   45.7110 C   0  0  0  0  0  0  0  0  0  0  0  0
   58.3100   34.5620   44.8850 C   0  0  0  0  0  0  0  0  0  0  0  0
   57.5280   33.4280   44.6490 C   0  0  0  0  0  0  0  0  0  0  0  0
   57.8540   32.2070   45.2510 C   0  0  0  0  0  0  0  0  0  0  0  0
   57.0580   31.0460   44.9640 N   0  0  0  0  0  0  0  0  0  0  0  0
   57.4360   29.7980   45.0020 C   0  0  0  0  0  0  0  0  0  0  0  0
   56.6430   28.7800   45.5740 C   0  0  0  0  0  0  0  0  0  0  0  0
   57.1160   27.4580   45.6070 C   0  0  0  0  0  0  0  0  0  0  0  0
   56.3110   26.3890   46.2410 C   0  0  0  0  0  0  0  0  0  0  0  0
   56.8390   25.6150   47.0850 O   0  0  0  0  0  0  0  0  0  0  0  0
   54.9280   26.2350   45.9000 N   0  0  0  0  0  0  0  0  0  0  0  0
   54.3020   24.9480   45.6200 C   0  0  0  0  0  0  0  0  0  0  0  0
   55.3330   23.9800   45.1120 C   0  0  0  0  0  0  0  0  0  0  0  0
   55.7390   24.0310   43.7680 C   0  0  0  0  0  0  0  0  0  0  0  0
   56.6720   23.1100   43.2790 C   0  0  0  0  0  0  0  0  0  0  0  0
   57.2000   22.1320   44.1260 C   0  0  0  0  0  0  0  0  0  0  0  0
   56.7940   22.0690   45.4620 C   0  0  0  0  0  0  0  0  0  0  0  0
   55.8610   22.9870   45.9550 C   0  0  0  0  0  0  0  0  0  0  0  0
   58.3670   27.1710   45.0390 C   0  0  0  0  0  0  0  0  0  0  0  0
   59.1060   28.1950   44.4460 C   0  0  0  0  0  0  0  0  0  0  0  0
   58.6290   29.4670   44.4410 N   0  0  0  0  0  0  0  0  0  0  0  0
   59.0120   32.1170   46.0450 C   0  0  0  0  0  0  0  0  0  0  0  0
   63.3820   33.1870   46.6380 H   0  0  0  0  0  0  0  0  0  0  0  0
   62.3520   33.7910   45.4610 H   0  0  0  0  0  0  0  0  0  0  0  0
   60.0416   35.3757   45.9025 H   0  0  0  0  0  0  0  0  0  0  0  0
   58.0402   35.5215   44.4197 H   0  0  0  0  0  0  0  0  0  0  0  0
   56.6521   33.4952   43.9870 H   0  0  0  0  0  0  0  0  0  0  0  0
   55.6554   29.0219   45.9936 H   0  0  0  0  0  0  0  0  0  0  0  0
   53.8527   24.5521   46.5427 H   0  0  0  0  0  0  0  0  0  0  0  0
   53.5222   25.0821   44.8558 H   0  0  0  0  0  0  0  0  0  0  0  0
   55.3221   24.7974   43.0980 H   0  0  0  0  0  0  0  0  0  0  0  0
   56.9901   23.1559   42.2270 H   0  0  0  0  0  0  0  0  0  0  0  0
   57.9360   21.4109   43.7409 H   0  0  0  0  0  0  0  0  0  0  0  0
   57.2087   21.2966   46.1264 H   0  0  0  0  0  0  0  0  0  0  0  0
   55.5395   22.9317   47.0055 H   0  0  0  0  0  0  0  0  0  0  0  0
   58.7624   26.1448   45.0613 H   0  0  0  0  0  0  0  0  0  0  0  0
   60.0777   27.9718   43.9812 H   0  0  0  0  0  0  0  0  0  0  0  0
   59.3091   31.1474   46.4711 H   0  0  0  0  0  0  0  0  0  0  0  0
  1  2  1  0
  2  3  2  0
  2  4  2  0
  2  5  1  0
  5  6  2  0
  6  7  1  0
  7  8  2  0
  8  9  1  0
  9 10  1  0
 10 11  2  3
 11 12  1  0
 12 13  2  0
 13 14  1  0
 14 15  2  0
 14 16  1  0
 16 17  1  0
 17 18  1  0
 18 19  2  0
 19 20  1  0
 20 21  2  0
 21 22  1  0
 22 23  2  0
 13 24  1  0
 24 25  2  0
 25 26  1  0
  9 27  2  0
 27  5  1  0
 26 11  1  0
 23 18  1  0
  1 28  1  0
  1 29  1  0
  6 30  1  0
  7 31  1  0
  8 32  1  0
 12 33  1  0
 17 34  1  0
 17 35  1  0
 19 36  1  0
 20 37  1  0
 21 38  1  0
 22 39  1  0
 23 40  1  0
 24 41  1  0
 25 42  1  0
 27 43  1  0
M  CHG  2  16  -1  26  -1
M  END
>  <UniqueID>  (27) 
26

>  <SMILES>  (27) 
NS(=O)(=O)c1cccc(N=c2cc(C(=O)[N-]Cc3ccccc3)cc[n-]2)c1

>  <Energy>  (27) 
52.025410787703734

>  <Genealogy>  (27) 
NS(=O)(=O)c1cccc(N=c2cc(C(=O)[N-]Cc3ccccc3)cc[n-]2)c1 (protonated)
NS(=O)(=O)c1cccc(N=c2cc(C(=O)[N-]Cc3ccccc3)cc[n-]2)c1 (3D coordinates assigned)
NS(=O)(=O)c1cccc(N=c2cc(C(=O)[N-]Cc3ccccc3)cc[n-]2)c1 (optimized conformer: 52.025410787703734 kcal/mol)

>  <smiles>  (27) 
NS(=O)(=O)c1cccc(N=c2cc(C(=O)NCc3ccccc3)cc[nH]2)c1

>  <score_type>  (27) 
oracle

>  <origin>  (27) 
adg

>  <m_score__min__energy>  (27) 
-12.029999999999999

>  <m_primary>  (27) 
energy

$$$$
27:0
     RDKit          3D

 68 71  0  0  0  0  0  0  0  0999 V2000
   55.1390   28.5570   44.5860 H   0  0  0  0  0  0  0  0  0  0  0  0
   55.4390   29.5050   44.9090 N   0  0  0  0  0  0  0  0  0  0  0  0
   56.7960   29.9590   43.9400 S   0  0  0  0  0  0  0  0  0  0  0  0
   57.7970   28.8390   43.9290 O   0  0  0  0  0  0  0  0  0  0  0  0
   56.3430   30.2150   42.5300 O   0  0  0  0  0  0  0  0  0  0  0  0
   57.5290   31.4180   44.6000 C   0  0  0  0  0  0  0  0  0  0  0  0
   57.9390   32.4540   43.7500 C   0  0  0  0  0  0  0  0  0  0  0  0
   57.7938   32.3614   42.6636 H   0  0  0  0  0  0  0  0  0  0  0  0
   58.5320   33.6050   44.2780 C   0  0  0  0  0  0  0  0  0  0  0  0
   58.8480   34.4161   43.6055 H   0  0  0  0  0  0  0  0  0  0  0  0
   58.7260   33.7300   45.6650 C   0  0  0  0  0  0  0  0  0  0  0  0
   59.3800   34.9580   46.2390 C   0  0  0  0  0  0  0  0  0  0  0  0
   59.3465   35.7702   45.4980 H   0  0  0  0  0  0  0  0  0  0  0  0
   58.8430   35.2651   47.1485 H   0  0  0  0  0  0  0  0  0  0  0  0
   60.7720   34.6640   46.5750 N   0  0  0  0  0  0  0  0  0  0  0  0
   61.1840   33.6500   47.2770 C   0  0  0  0  0  0  0  0  0  0  0  0
   61.1560   32.4110   46.7270 N   0  0  0  0  0  0  0  0  0  0  0  0
   61.5620   31.3290   47.4430 C   0  0  0  0  0  0  0  0  0  0  0  0
   61.4880   30.1310   46.9480 N   0  0  0  0  0  0  0  0  0  0  0  0
   60.2860   29.5270   46.3730 C   0  0  0  0  0  0  0  0  0  0  0  0
   59.6306   30.3272   45.9986 H   0  0  0  0  0  0  0  0  0  0  0  0
   60.5986   28.8558   45.5595 H   0  0  0  0  0  0  0  0  0  0  0  0
   59.5100   28.6920   47.4070 C   0  0  0  0  0  0  0  0  0  0  0  0
   58.7791   28.0695   46.8700 H   0  0  0  0  0  0  0  0  0  0  0  0
   60.2537   28.0958   47.9560 H   0  0  0  0  0  0  0  0  0  0  0  0
   58.7520   29.5340   48.4560 C   0  0  0  0  0  0  0  0  0  0  0  0
   58.1426   30.2830   47.9290 H   0  0  0  0  0  0  0  0  0  0  0  0
   58.1352   28.8413   49.0474 H   0  0  0  0  0  0  0  0  0  0  0  0
   59.6600   30.2450   49.4090 N   0  0  0  0  0  0  0  0  0  0  0  0
   60.5570   30.4820   48.9230 H   0  0  0  0  0  0  0  0  0  0  0  0
   59.0920   31.5350   49.8580 C   0  0  0  0  0  0  0  0  0  0  0  0
   59.8665   32.0940   50.4036 H   0  0  0  0  0  0  0  0  0  0  0  0
   58.7566   32.0881   48.9683 H   0  0  0  0  0  0  0  0  0  0  0  0
   57.8700   31.3350   50.7880 C   0  0  0  0  0  0  0  0  0  0  0  0
   57.9977   31.9681   51.6784 H   0  0  0  0  0  0  0  0  0  0  0  0
   56.9700   31.6112   50.2190 H   0  0  0  0  0  0  0  0  0  0  0  0
   57.7170   29.9900   51.2060 O   0  0  0  0  0  0  0  0  0  0  0  0
   58.9420   29.5010   51.7070 C   0  0  0  0  0  0  0  0  0  0  0  0
   59.3070   30.1810   52.4909 H   0  0  0  0  0  0  0  0  0  0  0  0
   58.7756   28.4938   52.1168 H   0  0  0  0  0  0  0  0  0  0  0  0
   60.0020   29.4070   50.5860 C   0  0  0  0  0  0  0  0  0  0  0  0
   60.9704   29.7405   50.9872 H   0  0  0  0  0  0  0  0  0  0  0  0
   60.0423   28.3601   50.2508 H   0  0  0  0  0  0  0  0  0  0  0  0
   62.0170   31.4970   48.7090 N   0  0  0  0  0  0  0  0  0  0  0  0
   62.0510   32.7310   49.2710 C   0  0  0  0  0  0  0  0  0  0  0  0
   62.4730   32.8600   50.4930 N   0  0  0  0  0  0  0  0  0  0  0  0
   62.5920   34.1220   51.2250 C   0  0  0  0  0  0  0  0  0  0  0  0
   62.1348   34.9242   50.6272 H   0  0  0  0  0  0  0  0  0  0  0  0
   62.0788   34.0052   52.1909 H   0  0  0  0  0  0  0  0  0  0  0  0
   64.0580   34.4860   51.5060 C   0  0  0  0  0  0  0  0  0  0  0  0
   64.3829   35.2408   50.7748 H   0  0  0  0  0  0  0  0  0  0  0  0
   64.1206   34.8741   52.5333 H   0  0  0  0  0  0  0  0  0  0  0  0
   64.9670   33.2880   51.4050 C   0  0  0  0  0  0  0  0  0  0  0  0
   65.0010   32.3320   52.4350 C   0  0  0  0  0  0  0  0  0  0  0  0
   64.3834   32.4738   53.3341 H   0  0  0  0  0  0  0  0  0  0  0  0
   65.8160   31.2020   52.3220 C   0  0  0  0  0  0  0  0  0  0  0  0
   65.8395   30.4583   53.1322 H   0  0  0  0  0  0  0  0  0  0  0  0
   66.6010   31.0160   51.1810 C   0  0  0  0  0  0  0  0  0  0  0  0
   67.3910   29.9200   51.0720 F   0  0  0  0  0  0  0  0  0  0  0  0
   66.5690   31.9590   50.1490 C   0  0  0  0  0  0  0  0  0  0  0  0
   67.1880   31.8122   49.2516 H   0  0  0  0  0  0  0  0  0  0  0  0
   65.7510   33.0890   50.2560 C   0  0  0  0  0  0  0  0  0  0  0  0
   65.7215   33.8240   49.4381 H   0  0  0  0  0  0  0  0  0  0  0  0
   61.6280   33.8070   48.5530 N   0  0  0  0  0  0  0  0  0  0  0  0
   58.3250   32.6820   46.5090 C   0  0  0  0  0  0  0  0  0  0  0  0
   58.4807   32.7658   47.5947 H   0  0  0  0  0  0  0  0  0  0  0  0
   57.7300   31.5340   45.9810 C   0  0  0  0  0  0  0  0  0  0  0  0
   57.4186   30.7193   46.6513 H   0  0  0  0  0  0  0  0  0  0  0  0
  1  2  1  0
  2  3  1  0
  3  4  2  0
  3  5  2  0
  3  6  1  0
  6  7  2  0
  7  8  1  0
  7  9  1  0
  9 10  1  0
  9 11  2  0
 11 12  1  0
 12 13  1  0
 12 14  1  0
 12 15  1  0
 15 16  2  3
 16 17  1  0
 17 18  1  0
 18 19  2  3
 19 20  1  0
 20 21  1  0
 20 22  1  0
 20 23  1  0
 23 24  1  0
 23 25  1  0
 23 26  1  0
 26 27  1  0
 26 28  1  0
 26 29  1  0
 29 30  1  0
 29 31  1  0
 31 32  1  0
 31 33  1  0
 31 34  1  0
 34 35  1  0
 34 36  1  0
 34 37  1  0
 37 38  1  0
 38 39  1  0
 38 40  1  0
 38 41  1  0
 41 42  1  0
 41 43  1  0
 18 44  1  0
 44 45  1  0
 45 46  2  0
 46 47  1  0
 47 48  1  0
 47 49  1  0
 47 50  1  0
 50 51  1  0
 50 52  1  0
 50 53  1  0
 53 54  2  0
 54 55  1  0
 54 56  1  0
 56 57  1  0
 56 58  2  0
 58 59  1  0
 58 60  1  0
 60 61  1  0
 60 62  2  0
 62 63  1  0
 45 64  1  0
 11 65  1  0
 65 66  1  0
 65 67  2  0
 67 68  1  0
 67  6  1  0
 64 16  1  0
 41 29  1  0
 62 53  1  0
M  CHG  5   2  -1  17  -1  29   1  44  -1  64  -1
M  END
>  <UniqueID>  (28) 
27

>  <SMILES>  (28) 
[NH-]S(=O)(=O)c1ccc(CN=c2[n-]c(=NCCC[NH+]3CCOCC3)[n-]/c(=N/CCc3ccc(F)cc3)[n-]2)cc1

>  <Energy>  (28) 
79.7268389815572

>  <Genealogy>  (28) 
[NH-]S(=O)(=O)c1ccc(CN=c2[n-]c(=NCCC[NH+]3CCOCC3)[n-]c(=NCCc3ccc(F)cc3)[n-]2)cc1 (protonated)
[NH-]S(=O)(=O)c1ccc(CN=c2[n-]c(=NCCC[NH+]3CCOCC3)[n-]/c(=N/CCc3ccc(F)cc3)[n-]2)cc1 (cis-trans isomerization)
[NH-]S(=O)(=O)c1ccc(CN=c2[n-]c(=NCCC[NH+]3CCOCC3)[n-]/c(=N/CCc3ccc(F)cc3)[n-]2)cc1 (3D coordinates assigned)
[NH-]S(=O)(=O)c1ccc(CN=c2[n-]c(=NCCC[NH+]3CCOCC3)[n-]/c(=N/CCc3ccc(F)cc3)[n-]2)cc1 (nonaromatic ring conformer: 79.7268389815572 kcal/mol)

>  <smiles>  (28) 
NS(=O)(=O)c1ccc(CN=c2[nH]c(=NCCCN3CCOCC3)[nH]c(=NCCc3ccc(F)cc3)[nH]2)cc1

>  <score_type>  (28) 
oracle

>  <origin>  (28) 
adg

>  <m_score__min__energy>  (28) 
-12.23

>  <m_primary>  (28) 
energy

$$$$
28:0
     RDKit          3D

 38 39  0  0  0  0  0  0  0  0999 V2000
   59.5750   35.3220   47.0950 C   0  0  0  0  0  0  0  0  0  0  0  0
   59.4400   33.9110   46.4860 C   0  0  0  0  0  0  0  0  0  0  0  0
   58.2610   33.1910   47.1730 C   0  0  0  0  0  0  0  0  0  0  0  0
   60.7450   33.1320   46.7550 C   0  0  0  0  0  0  0  0  0  0  0  0
   59.1850   34.0570   44.9580 C   0  0  0  0  0  0  0  0  0  0  0  0
   57.8650   33.4770   44.5000 C   0  0  0  0  0  0  0  0  0  0  0  0
   56.8250   34.1800   44.5960 O   0  0  0  0  0  0  0  0  0  0  0  0
   57.7760   32.1990   43.8590 N   0  0  0  0  0  0  0  0  0  0  0  0
   57.6190   30.9360   44.5160 C   0  0  0  0  0  0  0  0  0  0  0  0
   58.7280   30.3430   45.1280 C   0  0  0  0  0  0  0  0  0  0  0  0
   58.6080   29.1000   45.7560 C   0  0  0  0  0  0  0  0  0  0  0  0
   57.3760   28.4320   45.7760 C   0  0  0  0  0  0  0  0  0  0  0  0
   57.2790   27.1440   46.4080 N   0  0  0  0  0  0  0  0  0  0  0  0
   56.3180   26.1410   46.0500 C   0  0  0  0  0  0  0  0  0  0  0  0
   56.5880   24.8900   45.5380 C   0  0  0  0  0  0  0  0  0  0  0  0
   55.4230   24.2760   45.2650 N   0  0  0  0  0  0  0  0  0  0  0  0
   54.4930   25.1890   45.6150 C   0  0  0  0  0  0  0  0  0  0  0  0
   53.2580   24.9780   45.5010 O   0  0  0  0  0  0  0  0  0  0  0  0
   54.9910   26.3490   46.0910 N   0  0  0  0  0  0  0  0  0  0  0  0
   56.2770   29.0010   45.1090 C   0  0  0  0  0  0  0  0  0  0  0  0
   56.3990   30.2430   44.4820 C   0  0  0  0  0  0  0  0  0  0  0  0
   59.5681   35.2498   48.1926 H   0  0  0  0  0  0  0  0  0  0  0  0
   60.5206   35.7756   46.7633 H   0  0  0  0  0  0  0  0  0  0  0  0
   58.7325   35.9467   46.7633 H   0  0  0  0  0  0  0  0  0  0  0  0
   58.3749   33.2606   48.2649 H   0  0  0  0  0  0  0  0  0  0  0  0
   57.3156   33.6661   46.8720 H   0  0  0  0  0  0  0  0  0  0  0  0
   58.2518   32.1330   46.8720 H   0  0  0  0  0  0  0  0  0  0  0  0
   60.8998   33.0396   47.8401 H   0  0  0  0  0  0  0  0  0  0  0  0
   60.6723   32.1294   46.3083 H   0  0  0  0  0  0  0  0  0  0  0  0
   61.5930   33.6718   46.3083 H   0  0  0  0  0  0  0  0  0  0  0  0
   59.1997   35.1274   44.7049 H   0  0  0  0  0  0  0  0  0  0  0  0
   59.9776   33.4917   44.4460 H   0  0  0  0  0  0  0  0  0  0  0  0
   59.7001   30.8577   45.1151 H   0  0  0  0  0  0  0  0  0  0  0  0
   59.4855   28.6435   46.2373 H   0  0  0  0  0  0  0  0  0  0  0  0
   57.9090   26.9420   47.2170 H   0  0  0  0  0  0  0  0  0  0  0  0
   57.5899   24.4646   45.3791 H   0  0  0  0  0  0  0  0  0  0  0  0
   55.3166   28.4655   45.0808 H   0  0  0  0  0  0  0  0  0  0  0  0
   55.5353   30.6799   43.9593 H   0  0  0  0  0  0  0  0  0  0  0  0
  1  2  1  0
  2  3  1  0
  2  4  1  0
  2  5  1  0
  5  6  1  0
  6  7  2  0
  6  8  1  0
  8  9  1  0
  9 10  2  0
 10 11  1  0
 11 12  2  0
 12 13  1  0
 13 14  1  0
 14 15  2  0
 15 16  1  0
 16 17  1  0
 17 18  2  0
 17 19  1  0
 12 20  1  0
 20 21  2  0
 21  9  1  0
 19 14  1  0
  1 22  1  0
  1 23  1  0
  1 24  1  0
  3 25  1  0
  3 26  1  0
  3 27  1  0
  4 28  1  0
  4 29  1  0
  4 30  1  0
  5 31  1  0
  5 32  1  0
 10 33  1  0
 11 34  1  0
 13 35  1  0
 15 36  1  0
 20 37  1  0
 21 38  1  0
M  CHG  3   8  -1  16  -1  19  -1
M  END
>  <UniqueID>  (29) 
28

>  <SMILES>  (29) 
CC(C)(C)CC(=O)[N-]c1ccc(Nc2c[n-]c(=O)[n-]2)cc1

>  <Energy>  (29) 
70.34539081984622

>  <Genealogy>  (29) 
CC(C)(C)CC(=O)[N-]c1ccc(Nc2c[n-]c(=O)[n-]2)cc1 (protonated)
CC(C)(C)CC(=O)[N-]c1ccc(Nc2c[n-]c(=O)[n-]2)cc1 (3D coordinates assigned)
CC(C)(C)CC(=O)[N-]c1ccc(Nc2c[n-]c(=O)[n-]2)cc1 (optimized conformer: 70.34539081984622 kcal/mol)

>  <smiles>  (29) 
CC(C)(C)CC(=O)Nc1ccc(Nc2c[nH]c(=O)[nH]2)cc1

>  <score_type>  (29) 
oracle

>  <origin>  (29) 
adg

>  <m_score__min__energy>  (29) 
-11.59

>  <m_primary>  (29) 
energy

$$$$
29:0
     RDKit          3D

 50 52  0  0  0  0  0  0  0  0999 V2000
   59.6490   25.8410   46.3770 C   0  0  0  0  0  0  0  0  0  0  0  0
   59.6820   27.0320   47.2980 C   0  0  0  0  0  0  0  0  0  0  0  0
   60.6910   27.1000   48.2750 C   0  0  0  0  0  0  0  0  0  0  0  0
   60.7440   28.1710   49.1700 C   0  0  0  0  0  0  0  0  0  0  0  0
   59.7880   29.1830   49.1040 C   0  0  0  0  0  0  0  0  0  0  0  0
   58.7800   29.1320   48.1420 C   0  0  0  0  0  0  0  0  0  0  0  0
   58.7050   28.0600   47.2330 C   0  0  0  0  0  0  0  0  0  0  0  0
   57.5690   28.0350   46.2300 C   0  0  0  0  0  0  0  0  0  0  0  0
   57.8380   28.9310   45.0940 N   0  0  0  0  0  0  0  0  0  0  0  0
   58.8960   28.5780   44.1400 C   0  0  0  0  0  0  0  0  0  0  0  0
   57.0500   30.1300   44.9020 C   0  0  0  0  0  0  0  0  0  0  0  0
   55.7960   30.0540   44.7860 O   0  0  0  0  0  0  0  0  0  0  0  0
   57.6610   31.4700   44.9100 C   0  0  0  0  0  0  0  0  0  0  0  0
   57.9440   32.1400   43.7110 C   0  0  0  0  0  0  0  0  0  0  0  0
   58.4810   33.4300   43.7410 C   0  0  0  0  0  0  0  0  0  0  0  0
   58.7090   34.0670   44.9650 C   0  0  0  0  0  0  0  0  0  0  0  0
   58.4040   33.4200   46.1760 C   0  0  0  0  0  0  0  0  0  0  0  0
   58.6110   34.1160   47.4180 N   0  0  0  0  0  0  0  0  0  0  0  0
   59.5200   33.4640   48.7470 S   0  0  0  0  0  0  0  0  0  0  0  0
   59.2810   34.3320   49.9520 O   0  0  0  0  0  0  0  0  0  0  0  0
   59.0330   32.0750   49.0470 O   0  0  0  0  0  0  0  0  0  0  0  0
   61.2300   33.3690   48.2860 C   0  0  0  0  0  0  0  0  0  0  0  0
   61.5640   33.8020   46.9930 C   0  0  0  0  0  0  0  0  0  0  0  0
   62.8880   33.8100   46.5650 C   0  0  0  0  0  0  0  0  0  0  0  0
   63.9010   33.3810   47.4230 C   0  0  0  0  0  0  0  0  0  0  0  0
   63.5950   32.9380   48.7140 C   0  0  0  0  0  0  0  0  0  0  0  0
   64.9140   32.4110   49.7570 Cl  0  0  0  0  0  0  0  0  0  0  0  0
   62.2570   32.9230   49.1560 C   0  0  0  0  0  0  0  0  0  0  0  0
   61.9170   32.3460   50.7840 Cl  0  0  0  0  0  0  0  0  0  0  0  0
   57.8970   32.1070   46.1360 C   0  0  0  0  0  0  0  0  0  0  0  0
   59.6234   24.9170   46.9733 H   0  0  0  0  0  0  0  0  0  0  0  0
   58.7519   25.8929   45.7425 H   0  0  0  0  0  0  0  0  0  0  0  0
   60.5475   25.8431   45.7425 H   0  0  0  0  0  0  0  0  0  0  0  0
   61.4458   26.3021   48.3350 H   0  0  0  0  0  0  0  0  0  0  0  0
   61.5406   28.2158   49.9273 H   0  0  0  0  0  0  0  0  0  0  0  0
   59.8288   30.0236   49.8123 H   0  0  0  0  0  0  0  0  0  0  0  0
   58.0344   29.9393   48.0929 H   0  0  0  0  0  0  0  0  0  0  0  0
   57.4449   27.0084   45.8549 H   0  0  0  0  0  0  0  0  0  0  0  0
   56.6537   28.3789   46.7339 H   0  0  0  0  0  0  0  0  0  0  0  0
   59.7998   28.2765   44.6898 H   0  0  0  0  0  0  0  0  0  0  0  0
   58.5563   27.7445   43.5076 H   0  0  0  0  0  0  0  0  0  0  0  0
   59.1248   29.4485   43.5076 H   0  0  0  0  0  0  0  0  0  0  0  0
   57.7433   31.6502   42.7467 H   0  0  0  0  0  0  0  0  0  0  0  0
   58.7248   33.9452   42.8002 H   0  0  0  0  0  0  0  0  0  0  0  0
   59.1305   35.0829   44.9807 H   0  0  0  0  0  0  0  0  0  0  0  0
   58.1330   35.0330   47.5730 H   0  0  0  0  0  0  0  0  0  0  0  0
   60.7699   34.1388   46.3104 H   0  0  0  0  0  0  0  0  0  0  0  0
   63.1359   34.1546   45.5502 H   0  0  0  0  0  0  0  0  0  0  0  0
   64.9468   33.3912   47.0821 H   0  0  0  0  0  0  0  0  0  0  0  0
   57.6842   31.5762   47.0757 H   0  0  0  0  0  0  0  0  0  0  0  0
  1  2  1  0
  2  3  2  0
  3  4  1  0
  4  5  2  0
  5  6  1  0
  6  7  2  0
  7  8  1  0
  8  9  1  0
  9 10  1  0
  9 11  1  0
 11 12  2  0
 11 13  1  0
 13 14  2  0
 14 15  1  0
 15 16  2  0
 16 17  1  0
 17 18  1  0
 18 19  1  0
 19 20  2  0
 19 21  2  0
 19 22  1  0
 22 23  2  0
 23 24  1  0
 24 25  2  0
 25 26  1  0
 26 27  1  0
 26 28  2  0
 28 29  1  0
 17 30  2  0
  7  2  1  0
 30 13  1  0
 28 22  1  0
  1 31  1  0
  1 32  1  0
  1 33  1  0
  3 34  1  0
  4 35  1  0
  5 36  1  0
  6 37  1  0
  8 38  1  0
  8 39  1  0
 10 40  1  0
 10 41  1  0
 10 42  1  0
 14 43  1  0
 15 44  1  0
 16 45  1  0
 18 46  1  0
 23 47  1  0
 24 48  1  0
 25 49  1  0
 30 50  1  0
M  END
>  <UniqueID>  (30) 
29

>  <SMILES>  (30) 
Cc1ccccc1CN(C)C(=O)c1cccc(NS(=O)(=O)c2cccc(Cl)c2Cl)c1

>  <Energy>  (30) 
64.50446872041182

>  <Genealogy>  (30) 
Cc1ccccc1CN(C)C(=O)c1cccc(NS(=O)(=O)c2cccc(Cl)c2Cl)c1 (3D coordinates assigned)
Cc1ccccc1CN(C)C(=O)c1cccc(NS(=O)(=O)c2cccc(Cl)c2Cl)c1 (optimized conformer: 64.50446872041182 kcal/mol)

>  <smiles>  (30) 
Cc1ccccc1CN(C)C(=O)c1cccc(NS(=O)(=O)c2cccc(Cl)c2Cl)c1

>  <score_type>  (30) 
oracle

>  <origin>  (30) 
adg

>  <m_score__min__energy>  (30) 
-10.49

>  <m_primary>  (30) 
energy

$$$$
30:0
     RDKit          3D

 45 46  0  0  0  0  0  0  0  0999 V2000
   59.6980   33.8160   49.8410 C   0  0  0  0  0  0  0  0  0  0  0  0
   58.9490   32.7390   49.0660 C   0  0  0  0  0  0  0  0  0  0  0  0
   58.3600   31.7220   49.9740 N   0  0  0  0  0  0  0  0  0  0  0  0
   58.8880   30.3800   49.6150 C   0  0  0  0  0  0  0  0  0  0  0  0
   59.4670   29.6970   50.8500 C   0  0  0  0  0  0  0  0  0  0  0  0
   58.6600   32.0540   51.3890 C   0  0  0  0  0  0  0  0  0  0  0  0
   57.4280   31.9010   52.3150 C   0  0  0  0  0  0  0  0  0  0  0  0
   56.1600   31.6910   51.5910 N   0  0  0  0  0  0  0  0  0  0  0  0
   55.3550   30.6270   52.1610 C   0  0  0  0  0  0  0  0  0  0  0  0
   56.0260   29.5520   52.7780 C   0  0  0  0  0  0  0  0  0  0  0  0
   55.3280   28.4850   53.3610 C   0  0  0  0  0  0  0  0  0  0  0  0
   55.9790   27.3950   53.9590 O   0  0  0  0  0  0  0  0  0  0  0  0
   57.3720   27.3500   54.2540 C   0  0  0  0  0  0  0  0  0  0  0  0
   53.9370   28.4970   53.3560 C   0  0  0  0  0  0  0  0  0  0  0  0
   53.2300   29.5630   52.7870 C   0  0  0  0  0  0  0  0  0  0  0  0
   51.8270   29.5490   52.8200 C   0  0  0  0  0  0  0  0  0  0  0  0
   51.0970   30.5980   52.2660 C   0  0  0  0  0  0  0  0  0  0  0  0
   51.7590   31.6680   51.6710 C   0  0  0  0  0  0  0  0  0  0  0  0
   51.0240   32.7080   51.1120 O   0  0  0  0  0  0  0  0  0  0  0  0
   53.1550   31.6990   51.6240 C   0  0  0  0  0  0  0  0  0  0  0  0
   53.9250   30.6470   52.1810 C   0  0  0  0  0  0  0  0  0  0  0  0
   59.5771   33.6421   50.9204 H   0  0  0  0  0  0  0  0  0  0  0  0
   60.7662   33.7789   49.5810 H   0  0  0  0  0  0  0  0  0  0  0  0
   59.2915   34.8045   49.5810 H   0  0  0  0  0  0  0  0  0  0  0  0
   58.1415   33.2117   48.4877 H   0  0  0  0  0  0  0  0  0  0  0  0
   59.6644   32.2333   48.4008 H   0  0  0  0  0  0  0  0  0  0  0  0
   58.0719   29.7649   49.2080 H   0  0  0  0  0  0  0  0  0  0  0  0
   59.6814   30.4949   48.8618 H   0  0  0  0  0  0  0  0  0  0  0  0
   59.0632   30.1733   51.7556 H   0  0  0  0  0  0  0  0  0  0  0  0
   59.1925   28.6318   50.8425 H   0  0  0  0  0  0  0  0  0  0  0  0
   60.5627   29.7934   50.8425 H   0  0  0  0  0  0  0  0  0  0  0  0
   59.4543   31.3825   51.7469 H   0  0  0  0  0  0  0  0  0  0  0  0
   58.9714   33.1085   51.4232 H   0  0  0  0  0  0  0  0  0  0  0  0
   57.5965   31.0383   52.9763 H   0  0  0  0  0  0  0  0  0  0  0  0
   57.3264   32.8448   52.8708 H   0  0  0  0  0  0  0  0  0  0  0  0
   56.3570   31.5850   50.5760 H   0  0  0  0  0  0  0  0  0  0  0  0
   55.6060   32.5770   51.6630 H   0  0  0  0  0  0  0  0  0  0  0  0
   57.1257   29.5501   52.8028 H   0  0  0  0  0  0  0  0  0  0  0  0
   57.5159   27.3454   55.3445 H   0  0  0  0  0  0  0  0  0  0  0  0
   57.8089   26.4373   53.8226 H   0  0  0  0  0  0  0  0  0  0  0  0
   57.8669   28.2326   53.8226 H   0  0  0  0  0  0  0  0  0  0  0  0
   53.3853   27.6579   53.8050 H   0  0  0  0  0  0  0  0  0  0  0  0
   51.3001   28.7036   53.2867 H   0  0  0  0  0  0  0  0  0  0  0  0
   49.9976   30.5808   52.2987 H   0  0  0  0  0  0  0  0  0  0  0  0
   53.6633   32.5508   51.1486 H   0  0  0  0  0  0  0  0  0  0  0  0
  1  2  1  0
  2  3  1  0
  3  4  1  0
  4  5  1  0
  3  6  1  0
  6  7  1  0
  7  8  1  0
  8  9  1  0
  9 10  2  0
 10 11  1  0
 11 12  1  0
 12 13  1  0
 11 14  2  0
 14 15  1  0
 15 16  2  0
 16 17  1  0
 17 18  2  0
 18 19  1  0
 18 20  1  0
 20 21  2  0
 21  9  1  0
 21 15  1  0
  1 22  1  0
  1 23  1  0
  1 24  1  0
  2 25  1  0
  2 26  1  0
  4 27  1  0
  4 28  1  0
  5 29  1  0
  5 30  1  0
  5 31  1  0
  6 32  1  0
  6 33  1  0
  7 34  1  0
  7 35  1  0
  8 36  1  0
  8 37  1  0
 10 38  1  0
 13 39  1  0
 13 40  1  0
 13 41  1  0
 14 42  1  0
 16 43  1  0
 17 44  1  0
 20 45  1  0
M  CHG  2   8   1  19  -1
M  END
>  <UniqueID>  (31) 
30

>  <SMILES>  (31) 
CCN(CC)CC[NH2+]c1cc(OC)cc2ccc([O-])cc12

>  <Energy>  (31) 
50.54583766810385

>  <Genealogy>  (31) 
CCN(CC)CC[NH2+]c1cc(OC)cc2ccc([O-])cc12 (protonated)
CCN(CC)CC[NH2+]c1cc(OC)cc2ccc([O-])cc12 (3D coordinates assigned)
CCN(CC)CC[NH2+]c1cc(OC)cc2ccc([O-])cc12 (optimized conformer: 50.54583766810385 kcal/mol)

>  <smiles>  (31) 
CCN(CC)CCNc1cc(OC)cc2ccc(O)cc12

>  <score_type>  (31) 
oracle

>  <origin>  (31) 
adg

>  <m_score__min__energy>  (31) 
-8.1099999999999994

>  <m_primary>  (31) 
energy

$$$$
31:0
     RDKit          3D

 44 45  0  0  0  0  0  0  0  0999 V2000
   60.7690   28.3930   50.2330 C   0  0  0  0  0  0  0  0  0  0  0  0
   61.1080   29.4030   49.1250 C   0  0  0  0  0  0  0  0  0  0  0  0
   59.9050   29.9750   48.2810 C   0  0  0  0  0  0  0  0  0  0  0  0
   59.2580   31.1880   49.0410 C   0  0  0  0  0  0  0  0  0  0  0  0
   60.0860   32.4740   49.1100 C   0  0  0  0  0  0  0  0  0  0  0  0
   60.3770   30.3710   46.8450 C   0  0  0  0  0  0  0  0  0  0  0  0
   59.2930   30.9650   45.9750 C   0  0  0  0  0  0  0  0  0  0  0  0
   59.1230   32.3580   45.9070 C   0  0  0  0  0  0  0  0  0  0  0  0
   58.1440   32.9080   45.0790 C   0  0  0  0  0  0  0  0  0  0  0  0
   57.3130   32.0770   44.3240 C   0  0  0  0  0  0  0  0  0  0  0  0
   57.4390   30.6800   44.4100 C   0  0  0  0  0  0  0  0  0  0  0  0
   56.5770   29.7810   43.5600 C   0  0  0  0  0  0  0  0  0  0  0  0
   56.2840   30.4220   42.3710 F   0  0  0  0  0  0  0  0  0  0  0  0
   55.3950   29.4740   44.2110 F   0  0  0  0  0  0  0  0  0  0  0  0
   57.2360   28.5950   43.2810 F   0  0  0  0  0  0  0  0  0  0  0  0
   58.4440   30.1320   45.2260 C   0  0  0  0  0  0  0  0  0  0  0  0
   58.9260   28.8660   48.1530 N   0  0  0  0  0  0  0  0  0  0  0  0
   58.9860   27.7310   47.2640 C   0  0  0  0  0  0  0  0  0  0  0  0
   60.0810   27.3460   46.7760 O   0  0  0  0  0  0  0  0  0  0  0  0
   57.7650   26.9620   46.9610 C   0  0  0  0  0  0  0  0  0  0  0  0
   57.5240   25.6440   47.3070 C   0  0  0  0  0  0  0  0  0  0  0  0
   56.3140   25.2470   46.8630 N   0  0  0  0  0  0  0  0  0  0  0  0
   55.8000   26.3240   46.2370 C   0  0  0  0  0  0  0  0  0  0  0  0
   54.5510   26.3260   45.6320 O   0  0  0  0  0  0  0  0  0  0  0  0
   56.6550   27.4020   46.2700 C   0  0  0  0  0  0  0  0  0  0  0  0
   60.9260   28.8608   51.2161 H   0  0  0  0  0  0  0  0  0  0  0  0
   59.7177   28.0835   50.1379 H   0  0  0  0  0  0  0  0  0  0  0  0
   61.4207   27.5119   50.1379 H   0  0  0  0  0  0  0  0  0  0  0  0
   61.6157   30.2562   49.5986 H   0  0  0  0  0  0  0  0  0  0  0  0
   61.7187   28.8398   48.4040 H   0  0  0  0  0  0  0  0  0  0  0  0
   58.3091   31.4285   48.5392 H   0  0  0  0  0  0  0  0  0  0  0  0
   59.1530   30.8543   50.0839 H   0  0  0  0  0  0  0  0  0  0  0  0
   60.2590   32.7427   50.1626 H   0  0  0  0  0  0  0  0  0  0  0  0
   61.0521   32.3154   48.6085 H   0  0  0  0  0  0  0  0  0  0  0  0
   59.5418   33.2878   48.6085 H   0  0  0  0  0  0  0  0  0  0  0  0
   61.1860   31.1102   46.9400 H   0  0  0  0  0  0  0  0  0  0  0  0
   60.7017   29.4422   46.3531 H   0  0  0  0  0  0  0  0  0  0  0  0
   59.7647   33.0179   46.5093 H   0  0  0  0  0  0  0  0  0  0  0  0
   58.0261   34.0001   45.0205 H   0  0  0  0  0  0  0  0  0  0  0  0
   56.5562   32.5183   43.6588 H   0  0  0  0  0  0  0  0  0  0  0  0
   58.5672   29.0402   45.2789 H   0  0  0  0  0  0  0  0  0  0  0  0
   58.1810   28.8130   48.8840 H   0  0  0  0  0  0  0  0  0  0  0  0
   58.2239   25.0070   47.8677 H   0  0  0  0  0  0  0  0  0  0  0  0
   56.4890   28.4000   45.8382 H   0  0  0  0  0  0  0  0  0  0  0  0
  1  2  1  0
  2  3  1  0
  3  4  1  0
  4  5  1  0
  3  6  1  0
  6  7  1  0
  7  8  2  0
  8  9  1  0
  9 10  2  0
 10 11  1  0
 11 12  1  0
 12 13  1  0
 12 14  1  0
 12 15  1  0
 11 16  2  0
  3 17  1  0
 17 18  1  0
 18 19  2  0
 18 20  1  0
 20 21  2  0
 21 22  1  0
 22 23  1  0
 23 24  1  0
 23 25  2  0
 16  7  1  0
 25 20  1  0
  1 26  1  0
  1 27  1  0
  1 28  1  0
  2 29  1  0
  2 30  1  0
  4 31  1  0
  4 32  1  0
  5 33  1  0
  5 34  1  0
  5 35  1  0
  6 36  1  0
  6 37  1  0
  8 38  1  0
  9 39  1  0
 10 40  1  0
 16 41  1  0
 17 42  1  0
 21 43  1  0
 25 44  1  0
M  CHG  2  22  -1  24  -1
M  END
>  <UniqueID>  (32) 
31

>  <SMILES>  (32) 
CCC(CC)(Cc1cccc(C(F)(F)F)c1)NC(=O)c1c[n-]c([O-])c1

>  <Energy>  (32) 
76.79953218504686

>  <Genealogy>  (32) 
CCC(CC)(Cc1cccc(C(F)(F)F)c1)NC(=O)c1c[n-]c([O-])c1 (protonated)
CCC(CC)(Cc1cccc(C(F)(F)F)c1)NC(=O)c1c[n-]c([O-])c1 (3D coordinates assigned)
CCC(CC)(Cc1cccc(C(F)(F)F)c1)NC(=O)c1c[n-]c([O-])c1 (optimized conformer: 76.79953218504686 kcal/mol)

>  <smiles>  (32) 
CCC(CC)(Cc1cccc(C(F)(F)F)c1)NC(=O)c1c[nH]c(O)c1

>  <score_type>  (32) 
oracle

>  <origin>  (32) 
adg

>  <m_score__min__energy>  (32) 
-12.17

>  <m_primary>  (32) 
energy

$$$$
32:0
     RDKit          3D

 44 46  0  0  1  0  0  0  0  0999 V2000
   59.6470   30.9330   49.6650 C   0  0  0  0  0  0  0  0  0  0  0  0
   60.8240   31.4230   48.9150 C   0  0  0  0  0  0  0  0  0  0  0  0
   61.4810   32.5580   49.3540 C   0  0  0  0  0  0  0  0  0  0  0  0
   62.5720   33.0800   48.7190 C   0  0  0  0  0  0  0  0  0  0  0  0
   63.0190   32.4140   47.5840 C   0  0  0  0  0  0  0  0  0  0  0  0
   62.3730   31.2750   47.1310 C   0  0  0  0  0  0  0  0  0  0  0  0
   61.2730   30.7750   47.7940 C   0  0  0  0  0  0  0  0  0  0  0  0
   60.5800   29.5990   47.3530 N   0  0  0  0  0  0  0  0  0  0  0  0
   59.5720   29.6980   46.5330 C   0  0  0  0  0  0  0  0  0  0  0  0
   58.6810   28.6920   46.5810 N   0  0  0  0  0  0  0  0  0  0  0  0
   57.5990   28.6810   45.7830 C   0  0  0  0  0  0  0  0  0  0  0  0
   56.6420   27.6280   45.8150 N   0  0  0  0  0  0  0  0  0  0  0  0
   57.4530   29.7540   44.9190 C   0  0  0  0  0  0  0  0  0  0  0  0
   56.2990   29.7320   44.0750 N   0  0  0  0  0  0  0  0  0  0  0  0
   55.1740   29.3450   44.5090 O   0  0  0  0  0  0  0  0  0  0  0  0
   56.3570   30.1260   42.7730 O   0  0  0  0  0  0  0  0  0  0  0  0
   58.3670   30.7840   44.8710 C   0  0  0  0  0  0  0  0  0  0  0  0
   58.1460   31.7320   44.0370 N   0  0  0  0  0  0  0  0  0  0  0  0
   57.3910   32.8800   44.4770 C   0  0  0  0  0  0  0  0  0  0  0  0
   58.2680   33.5800   45.4840 C   0  0  0  0  0  0  0  0  0  0  0  0
   59.2370   34.4780   45.0470 C   0  0  0  0  0  0  0  0  0  0  0  0
   60.0230   35.1020   46.0010 C   0  0  0  0  0  0  0  0  0  0  0  0
   59.8570   34.8420   47.3650 C   0  0  0  0  0  0  0  0  0  0  0  0
   58.8690   33.9320   47.7590 C   0  0  0  0  0  0  0  0  0  0  0  0
   58.0700   33.2960   46.8190 C   0  0  0  0  0  0  0  0  0  0  0  0
   59.4250   30.7300   45.6960 N   0  0  0  0  0  0  0  0  0  0  0  0
   59.8407   31.0136   50.7448 H   0  0  0  0  0  0  0  0  0  0  0  0
   58.7673   31.5396   49.4040 H   0  0  0  0  0  0  0  0  0  0  0  0
   59.4577   29.8813   49.4040 H   0  0  0  0  0  0  0  0  0  0  0  0
   61.1076   33.0640   50.2565 H   0  0  0  0  0  0  0  0  0  0  0  0
   63.0739   33.9862   49.0891 H   0  0  0  0  0  0  0  0  0  0  0  0
   63.8953   32.7953   47.0393 H   0  0  0  0  0  0  0  0  0  0  0  0
   62.7429   30.7631   46.2304 H   0  0  0  0  0  0  0  0  0  0  0  0
   58.7790   27.8710   47.2330 H   0  0  0  0  0  0  0  0  0  0  0  0
   56.4060   27.0850   46.6740 H   0  0  0  0  0  0  0  0  0  0  0  0
   56.1650   27.4110   44.9000 H   0  0  0  0  0  0  0  0  0  0  0  0
   57.1742   33.5454   43.6283 H   0  0  0  0  0  0  0  0  0  0  0  0
   56.4237   32.5887   44.9123 H   0  0  0  0  0  0  0  0  0  0  0  0
   59.3745   34.6860   43.9756 H   0  0  0  0  0  0  0  0  0  0  0  0
   60.7942   35.8173   45.6792 H   0  0  0  0  0  0  0  0  0  0  0  0
   60.4898   35.3423   48.1129 H   0  0  0  0  0  0  0  0  0  0  0  0
   58.7238   33.7180   48.8282 H   0  0  0  0  0  0  0  0  0  0  0  0
   57.2953   32.5806   47.1322 H   0  0  0  0  0  0  0  0  0  0  0  0
   60.1290   31.5000   45.6770 H   0  0  0  0  0  0  0  0  0  0  0  0
  1  2  1  0
  2  3  2  0
  3  4  1  0
  4  5  2  0
  5  6  1  0
  6  7  2  0
  7  8  1  0
  8  9  2  0
  9 10  1  0
 10 11  1  0
 11 12  1  0
 11 13  2  0
 13 14  1  0
 14 15  2  0
 14 16  1  0
 13 17  1  0
 17 18  2  0
 18 19  1  0
 19 20  1  0
 20 21  2  0
 21 22  1  0
 22 23  2  0
 23 24  1  0
 24 25  2  0
 17 26  1  0
  7  2  1  0
 26  9  1  0
 25 20  1  0
  1 27  1  0
  1 28  1  0
  1 29  1  0
  3 30  1  0
  4 31  1  0
  5 32  1  0
  6 33  1  0
 10 34  1  0
 12 35  1  0
 12 36  1  0
 19 37  1  0
 19 38  1  0
 21 39  1  0
 22 40  1  0
 23 41  1  0
 24 42  1  0
 25 43  1  0
 26 44  1  0
M  CHG  2  14   1  16  -1
M  END
>  <smiles>  (33) 
Cc1ccccc1N=c1[nH]c(N)c([N+](=O)[O-])c(=NCc2ccccc2)[nH]1

>  <score_type>  (33) 
oracle

>  <origin>  (33) 
adg

>  <m_score__min__energy>  (33) 
-7.9400000000000004

>  <m_primary>  (33) 
energy

$$$$
33:0
     RDKit          3D

 30 31  0  0  0  0  0  0  0  0999 V2000
   57.3240   31.3420   43.1390 O   0  0  0  0  0  0  0  0  0  0  0  0
   56.9540   30.6940   44.1530 C   0  0  0  0  0  0  0  0  0  0  0  0
   56.3800   29.3180   43.9490 C   0  0  0  0  0  0  0  0  0  0  0  0
   55.9570   28.7460   45.2220 N   0  0  0  0  0  0  0  0  0  0  0  0
   56.2530   27.4040   45.6240 C   0  0  0  0  0  0  0  0  0  0  0  0
   55.3460   26.6600   46.0850 O   0  0  0  0  0  0  0  0  0  0  0  0
   57.6400   26.8710   45.4500 C   0  0  0  0  0  0  0  0  0  0  0  0
   58.6460   27.9040   45.8710 C   0  0  0  0  0  0  0  0  0  0  0  0
   58.5570   28.5070   47.1360 C   0  0  0  0  0  0  0  0  0  0  0  0
   59.4750   29.4930   47.5140 C   0  0  0  0  0  0  0  0  0  0  0  0
   60.4810   29.8880   46.6280 C   0  0  0  0  0  0  0  0  0  0  0  0
   60.5700   29.3020   45.3620 C   0  0  0  0  0  0  0  0  0  0  0  0
   59.6530   28.3170   44.9810 C   0  0  0  0  0  0  0  0  0  0  0  0
   57.0780   31.3210   45.4430 N   0  0  0  0  0  0  0  0  0  0  0  0
   57.7700   32.3710   45.7740 C   0  0  0  0  0  0  0  0  0  0  0  0
   58.4960   32.4950   46.9050 N   0  0  0  0  0  0  0  0  0  0  0  0
   59.1130   33.7040   46.9740 C   0  0  0  0  0  0  0  0  0  0  0  0
   58.8800   34.5480   45.8940 C   0  0  0  0  0  0  0  0  0  0  0  0
   57.8660   33.7470   44.8160 S   0  0  0  0  0  0  0  0  0  0  0  0
   55.5125   29.3840   43.2759 H   0  0  0  0  0  0  0  0  0  0  0  0
   57.1538   28.6719   43.5088 H   0  0  0  0  0  0  0  0  0  0  0  0
   57.7636   25.9695   46.0681 H   0  0  0  0  0  0  0  0  0  0  0  0
   57.8003   26.6229   44.3904 H   0  0  0  0  0  0  0  0  0  0  0  0
   57.7621   28.2029   47.8329 H   0  0  0  0  0  0  0  0  0  0  0  0
   59.4048   29.9573   48.5087 H   0  0  0  0  0  0  0  0  0  0  0  0
   61.2039   30.6612   46.9273 H   0  0  0  0  0  0  0  0  0  0  0  0
   61.3614   29.6156   44.6653 H   0  0  0  0  0  0  0  0  0  0  0  0
   59.7199   27.8636   43.9810 H   0  0  0  0  0  0  0  0  0  0  0  0
   59.7503   33.9937   47.8225 H   0  0  0  0  0  0  0  0  0  0  0  0
   59.2872   35.5619   45.7665 H   0  0  0  0  0  0  0  0  0  0  0  0
  1  2  2  0
  2  3  1  0
  3  4  1  0
  4  5  1  0
  5  6  2  0
  5  7  1  0
  7  8  1  0
  8  9  2  0
  9 10  1  0
 10 11  2  0
 11 12  1  0
 12 13  2  0
  2 14  1  0
 14 15  2  3
 15 16  1  0
 16 17  1  0
 17 18  2  0
 18 19  1  0
 13  8  1  0
 19 15  1  0
  3 20  1  0
  3 21  1  0
  7 22  1  0
  7 23  1  0
  9 24  1  0
 10 25  1  0
 11 26  1  0
 12 27  1  0
 13 28  1  0
 17 29  1  0
 18 30  1  0
M  CHG  2   4  -1  16  -1
M  END
>  <UniqueID>  (34) 
32

>  <SMILES>  (34) 
O=C(C[N-]C(=O)Cc1ccccc1)N=c1[n-]ccs1

>  <Energy>  (34) 
59.29285049375148

>  <Genealogy>  (34) 
O=C(C[N-]C(=O)Cc1ccccc1)N=c1[n-]ccs1 (protonated)
O=C(C[N-]C(=O)Cc1ccccc1)N=c1[n-]ccs1 (3D coordinates assigned)
O=C(C[N-]C(=O)Cc1ccccc1)N=c1[n-]ccs1 (optimized conformer: 59.29285049375148 kcal/mol)

>  <smiles>  (34) 
O=C(CNC(=O)Cc1ccccc1)N=c1[nH]ccs1

>  <score_type>  (34) 
oracle

>  <origin>  (34) 
adg

>  <m_score__min__energy>  (34) 
-11.01

>  <m_primary>  (34) 
energy

$$$$
34:0
     RDKit          3D

 22 23  0  0  0  0  0  0  0  0999 V2000
   59.7834   35.3167   48.0551 H   0  0  0  0  0  0  0  0  0  0  0  0
   59.3550   34.7260   47.2320 C   0  0  0  0  0  0  0  0  0  0  0  0
   58.5540   33.6160   47.5120 C   0  0  0  0  0  0  0  0  0  0  0  0
   58.3509   33.3346   48.5558 H   0  0  0  0  0  0  0  0  0  0  0  0
   58.0100   32.8620   46.4670 C   0  0  0  0  0  0  0  0  0  0  0  0
   57.3756   31.9919   46.6915 H   0  0  0  0  0  0  0  0  0  0  0  0
   58.2710   33.2120   45.1320 C   0  0  0  0  0  0  0  0  0  0  0  0
   57.6760   32.4010   44.0100 C   0  0  0  0  0  0  0  0  0  0  0  0
   58.4725   31.8163   43.5264 H   0  0  0  0  0  0  0  0  0  0  0  0
   57.2114   33.0881   43.2875 H   0  0  0  0  0  0  0  0  0  0  0  0
   56.6510   31.4890   44.5130 N   0  0  0  0  0  0  0  0  0  0  0  0
   56.7620   30.1950   44.5680 C   0  0  0  0  0  0  0  0  0  0  0  0
   55.8960   29.4170   45.2500 N   0  0  0  0  0  0  0  0  0  0  0  0
   56.3280   28.2010   45.0700 O   0  0  0  0  0  0  0  0  0  0  0  0
   57.4000   28.2270   44.3180 C   0  0  0  0  0  0  0  0  0  0  0  0
   58.0440   27.2020   43.9700 O   0  0  0  0  0  0  0  0  0  0  0  0
   57.7310   29.4770   43.9610 N   0  0  0  0  0  0  0  0  0  0  0  0
   58.5270   29.7910   43.3640 H   0  0  0  0  0  0  0  0  0  0  0  0
   59.0690   34.3350   44.8580 C   0  0  0  0  0  0  0  0  0  0  0  0
   59.2677   34.6250   43.8157 H   0  0  0  0  0  0  0  0  0  0  0  0
   59.6120   35.0860   45.9060 C   0  0  0  0  0  0  0  0  0  0  0  0
   60.2418   35.9607   45.6863 H   0  0  0  0  0  0  0  0  0  0  0  0
  1  2  1  0
  2  3  2  0
  3  4  1  0
  3  5  1  0
  5  6  1  0
  5  7  2  0
  7  8  1  0
  8  9  1  0
  8 10  1  0
  8 11  1  0
 11 12  2  0
 12 13  1  0
 13 14  1  0
 14 15  1  0
 15 16  2  0
 15 17  1  0
 17 18  1  0
  7 19  1  0
 19 20  1  0
 19 21  2  0
 21 22  1  0
 21  2  1  0
 17 12  1  0
M  CHG  1  13  -1
M  END
>  <UniqueID>  (35) 
33

>  <SMILES>  (35) 
O=c1[nH]/c(=N\Cc2ccccc2)[n-]o1

>  <Energy>  (35) 
58.84688492566634

>  <Genealogy>  (35) 
O=c1[nH]c(=NCc2ccccc2)[n-]o1 (protonated)
O=c1[nH]/c(=N\Cc2ccccc2)[n-]o1 (cis-trans isomerization)
O=c1[nH]/c(=N\Cc2ccccc2)[n-]o1 (3D coordinates assigned)
O=c1[nH]/c(=N\Cc2ccccc2)[n-]o1 (optimized conformer: 58.84688492566634 kcal/mol)

>  <smiles>  (35) 
O=c1[nH]c(=NCc2ccccc2)[nH]o1

>  <score_type>  (35) 
oracle

>  <origin>  (35) 
adg

>  <m_score__min__energy>  (35) 
-7.6900000000000004

>  <m_primary>  (35) 
energy

$$$$
35:0
     RDKit          3D

 52 54  0  0  0  0  0  0  0  0999 V2000
   50.5850   32.3950   53.1870 C   0  0  0  0  0  0  0  0  0  0  0  0
   51.1170   31.7350   51.9600 C   0  0  0  0  0  0  0  0  0  0  0  0
   51.0240   32.3240   50.8500 O   0  0  0  0  0  0  0  0  0  0  0  0
   51.8230   30.4940   52.0800 N   0  0  0  0  0  0  0  0  0  0  0  0
   53.2300   30.3230   52.3030 C   0  0  0  0  0  0  0  0  0  0  0  0
   54.1850   31.2270   51.8010 C   0  0  0  0  0  0  0  0  0  0  0  0
   55.5480   31.0070   52.0220 C   0  0  0  0  0  0  0  0  0  0  0  0
   55.9840   29.8690   52.7170 C   0  0  0  0  0  0  0  0  0  0  0  0
   57.3900   29.6800   52.9460 N   0  0  0  0  0  0  0  0  0  0  0  0
   58.2040   30.5640   53.7300 C   0  0  0  0  0  0  0  0  0  0  0  0
   57.6800   31.4720   54.4300 O   0  0  0  0  0  0  0  0  0  0  0  0
   59.6850   30.3530   53.7900 C   0  0  0  0  0  0  0  0  0  0  0  0
   60.0550   29.2440   52.9730 O   0  0  0  0  0  0  0  0  0  0  0  0
   60.0110   29.2730   51.5730 C   0  0  0  0  0  0  0  0  0  0  0  0
   60.0140   28.1940   50.9180 O   0  0  0  0  0  0  0  0  0  0  0  0
   59.9710   30.5710   50.8640 C   0  0  0  0  0  0  0  0  0  0  0  0
   61.1550   31.2770   50.5910 C   0  0  0  0  0  0  0  0  0  0  0  0
   61.1140   32.5020   49.9180 C   0  0  0  0  0  0  0  0  0  0  0  0
   59.8850   33.0420   49.5060 C   0  0  0  0  0  0  0  0  0  0  0  0
   59.7940   34.2940   48.8120 N   0  0  0  0  0  0  0  0  0  0  0  0
   59.9840   34.5020   47.1010 S   0  0  0  0  0  0  0  0  0  0  0  0
   59.6250   35.9130   46.7270 O   0  0  0  0  0  0  0  0  0  0  0  0
   61.4190   34.2530   46.7300 O   0  0  0  0  0  0  0  0  0  0  0  0
   58.9660   33.3450   46.2500 C   0  0  0  0  0  0  0  0  0  0  0  0
   59.2830   31.9800   46.2950 C   0  0  0  0  0  0  0  0  0  0  0  0
   58.4730   31.0480   45.6390 C   0  0  0  0  0  0  0  0  0  0  0  0
   57.3410   31.4750   44.9380 C   0  0  0  0  0  0  0  0  0  0  0  0
   56.5530   30.5710   44.3040 F   0  0  0  0  0  0  0  0  0  0  0  0
   57.0220   32.8350   44.8880 C   0  0  0  0  0  0  0  0  0  0  0  0
   57.8330   33.7700   45.5400 C   0  0  0  0  0  0  0  0  0  0  0  0
   58.7040   32.3410   49.7790 C   0  0  0  0  0  0  0  0  0  0  0  0
   58.7430   31.1170   50.4530 C   0  0  0  0  0  0  0  0  0  0  0  0
   55.0290   28.9660   53.2150 C   0  0  0  0  0  0  0  0  0  0  0  0
   53.6660   29.1880   52.9970 C   0  0  0  0  0  0  0  0  0  0  0  0
   50.9897   31.8930   54.0782 H   0  0  0  0  0  0  0  0  0  0  0  0
   50.8857   33.4531   53.1939 H   0  0  0  0  0  0  0  0  0  0  0  0
   49.4872   32.3258   53.1939 H   0  0  0  0  0  0  0  0  0  0  0  0
   53.8577   32.1100   51.2326 H   0  0  0  0  0  0  0  0  0  0  0  0
   56.2850   31.7327   51.6476 H   0  0  0  0  0  0  0  0  0  0  0  0
   57.8290   28.7990   52.5970 H   0  0  0  0  0  0  0  0  0  0  0  0
   60.1964   31.2576   53.4291 H   0  0  0  0  0  0  0  0  0  0  0  0
   59.9778   30.1477   54.8302 H   0  0  0  0  0  0  0  0  0  0  0  0
   62.1227   30.8622   50.9096 H   0  0  0  0  0  0  0  0  0  0  0  0
   62.0480   33.0447   49.7105 H   0  0  0  0  0  0  0  0  0  0  0  0
   60.1715   31.6413   46.8480 H   0  0  0  0  0  0  0  0  0  0  0  0
   58.7265   29.9782   45.6744 H   0  0  0  0  0  0  0  0  0  0  0  0
   56.1321   33.1705   44.3353 H   0  0  0  0  0  0  0  0  0  0  0  0
   57.5820   34.8401   45.4959 H   0  0  0  0  0  0  0  0  0  0  0  0
   57.7370   32.7572   49.4602 H   0  0  0  0  0  0  0  0  0  0  0  0
   57.8073   30.5782   50.6629 H   0  0  0  0  0  0  0  0  0  0  0  0
   55.3557   28.0800   53.7792 H   0  0  0  0  0  0  0  0  0  0  0  0
   52.9290   28.4638   53.3744 H   0  0  0  0  0  0  0  0  0  0  0  0
  1  2  1  0
  2  3  2  0
  2  4  1  0
  4  5  1  0
  5  6  2  0
  6  7  1  0
  7  8  2  0
  8  9  1  0
  9 10  1  0
 10 11  2  0
 10 12  1  0
 12 13  1  0
 13 14  1  0
 14 15  2  0
 14 16  1  0
 16 17  2  0
 17 18  1  0
 18 19  2  0
 19 20  1  0
 20 21  1  0
 21 22  2  0
 21 23  2  0
 21 24  1  0
 24 25  2  0
 25 26  1  0
 26 27  2  0
 27 28  1  0
 27 29  1  0
 29 30  2  0
 19 31  1  0
 31 32  2  0
  8 33  1  0
 33 34  2  0
 34  5  1  0
 32 16  1  0
 30 24  1  0
  1 35  1  0
  1 36  1  0
  1 37  1  0
  6 38  1  0
  7 39  1  0
  9 40  1  0
 12 41  1  0
 12 42  1  0
 17 43  1  0
 18 44  1  0
 25 45  1  0
 26 46  1  0
 29 47  1  0
 30 48  1  0
 31 49  1  0
 32 50  1  0
 33 51  1  0
 34 52  1  0
M  CHG  2   4  -1  20  -1
M  END
>  <UniqueID>  (36) 
34

>  <SMILES>  (36) 
CC(=O)[N-]c1ccc(NC(=O)COC(=O)c2ccc([N-]S(=O)(=O)c3ccc(F)cc3)cc2)cc1

>  <Energy>  (36) 
60.66419434054606

>  <Genealogy>  (36) 
CC(=O)[N-]c1ccc(NC(=O)COC(=O)c2ccc([N-]S(=O)(=O)c3ccc(F)cc3)cc2)cc1 (protonated)
CC(=O)[N-]c1ccc(NC(=O)COC(=O)c2ccc([N-]S(=O)(=O)c3ccc(F)cc3)cc2)cc1 (3D coordinates assigned)
CC(=O)[N-]c1ccc(NC(=O)COC(=O)c2ccc([N-]S(=O)(=O)c3ccc(F)cc3)cc2)cc1 (optimized conformer: 60.66419434054606 kcal/mol)

>  <smiles>  (36) 
CC(=O)Nc1ccc(NC(=O)COC(=O)c2ccc(NS(=O)(=O)c3ccc(F)cc3)cc2)cc1

>  <score_type>  (36) 
oracle

>  <origin>  (36) 
adg

>  <m_score__min__energy>  (36) 
-11.630000000000001

>  <m_primary>  (36) 
energy

$$$$
36:0
     RDKit          3D

 67 71  0  0  0  0  0  0  0  0999 V2000
   55.6650   23.2310   48.6230 C   0  0  0  0  0  0  0  0  0  0  0  0
   56.3960   22.2390   47.7070 C   0  0  1  0  0  0  0  0  0  0  0  0
   55.3980   21.6550   46.6610 C   0  0  0  0  0  0  0  0  0  0  0  0
   55.7880   21.9330   45.2310 C   0  0  0  0  0  0  0  0  0  0  0  0
   56.7830   21.1650   44.6030 C   0  0  0  0  0  0  0  0  0  0  0  0
   57.1870   21.4650   43.3020 C   0  0  0  0  0  0  0  0  0  0  0  0
   56.5940   22.5270   42.6120 C   0  0  0  0  0  0  0  0  0  0  0  0
   55.5820   23.2750   43.2170 C   0  0  0  0  0  0  0  0  0  0  0  0
   55.1710   22.9720   44.5150 C   0  0  0  0  0  0  0  0  0  0  0  0
   57.4650   22.9630   47.0680 O   0  0  0  0  0  0  0  0  0  0  0  0
   57.4790   24.3040   46.6430 C   0  0  0  0  0  0  0  0  0  0  0  0
   56.3000   25.0870   46.4760 C   0  0  0  0  0  0  0  0  0  0  0  0
   56.3870   26.4520   46.1590 C   0  0  0  0  0  0  0  0  0  0  0  0
   57.6530   27.0100   45.9810 C   0  0  0  0  0  0  0  0  0  0  0  0
   58.7790   26.2420   46.0560 C   0  0  0  0  0  0  0  0  0  0  0  0
   59.8560   27.0580   45.7960 C   0  0  0  0  0  0  0  0  0  0  0  0
   59.3200   28.3240   45.5900 C   0  0  0  0  0  0  0  0  0  0  0  0
   57.9700   28.2990   45.7240 N   0  0  0  0  0  0  0  0  0  0  0  0
   57.0230   29.4230   45.6200 C   0  0  2  0  0  0  0  0  0  0  0  0
   56.1780   29.3440   44.3750 C   0  0  0  0  0  0  0  0  0  0  0  0
   56.7290   29.3350   43.2430 O   0  0  0  0  0  0  0  0  0  0  0  0
   54.7870   29.3320   44.4590 O   0  0  0  0  0  0  0  0  0  0  0  0
   57.7550   30.7480   45.6720 C   0  0  0  0  0  0  0  0  0  0  0  0
   57.7360   31.6290   44.5770 C   0  0  0  0  0  0  0  0  0  0  0  0
   58.4290   32.8430   44.6340 C   0  0  0  0  0  0  0  0  0  0  0  0
   59.1580   33.1940   45.7870 C   0  0  0  0  0  0  0  0  0  0  0  0
   59.8750   34.3990   45.8990 O   0  0  0  0  0  0  0  0  0  0  0  0
   60.3790   34.9530   47.1120 C   0  0  0  0  0  0  0  0  0  0  0  0
   61.5960   34.1990   47.5800 C   0  0  0  0  0  0  0  0  0  0  0  0
   62.5920   33.8040   46.6700 C   0  0  0  0  0  0  0  0  0  0  0  0
   63.7160   33.1040   47.1180 C   0  0  0  0  0  0  0  0  0  0  0  0
   63.8570   32.7980   48.4720 C   0  0  0  0  0  0  0  0  0  0  0  0
   62.8770   33.1950   49.3850 C   0  0  0  0  0  0  0  0  0  0  0  0
   61.7450   33.8880   48.9420 C   0  0  0  0  0  0  0  0  0  0  0  0
   59.1640   32.3210   46.8800 C   0  0  0  0  0  0  0  0  0  0  0  0
   58.4660   31.1110   46.8280 C   0  0  0  0  0  0  0  0  0  0  0  0
   58.7320   24.8890   46.3870 C   0  0  0  0  0  0  0  0  0  0  0  0
   56.9630   21.1530   48.5920 C   0  0  0  0  0  0  0  0  0  0  0  0
   56.7150   19.9440   48.3390 O   0  0  0  0  0  0  0  0  0  0  0  0
   57.7770   21.4630   49.6760 O   0  0  0  0  0  0  0  0  0  0  0  0
   55.8575   22.9698   49.6741 H   0  0  0  0  0  0  0  0  0  0  0  0
   56.0300   24.2497   48.4256 H   0  0  0  0  0  0  0  0  0  0  0  0
   54.5839   23.1841   48.4256 H   0  0  0  0  0  0  0  0  0  0  0  0
   55.3459   20.5652   46.8013 H   0  0  0  0  0  0  0  0  0  0  0  0
   54.4289   22.1466   46.8316 H   0  0  0  0  0  0  0  0  0  0  0  0
   57.2454   20.3235   45.1397 H   0  0  0  0  0  0  0  0  0  0  0  0
   57.9726   20.8658   42.8185 H   0  0  0  0  0  0  0  0  0  0  0  0
   56.9249   22.7732   41.5923 H   0  0  0  0  0  0  0  0  0  0  0  0
   55.1087   24.1036   42.6698 H   0  0  0  0  0  0  0  0  0  0  0  0
   54.3591   23.5500   44.9805 H   0  0  0  0  0  0  0  0  0  0  0  0
   55.3126   24.6175   46.5966 H   0  0  0  0  0  0  0  0  0  0  0  0
   55.4801   27.0656   46.0537 H   0  0  0  0  0  0  0  0  0  0  0  0
   60.9169   26.7695   45.7590 H   0  0  0  0  0  0  0  0  0  0  0  0
   59.9089   29.2219   45.3514 H   0  0  0  0  0  0  0  0  0  0  0  0
   56.3460   29.3517   46.4841 H   0  0  0  0  0  0  0  0  0  0  0  0
   57.1732   31.3625   43.6702 H   0  0  0  0  0  0  0  0  0  0  0  0
   58.4044   33.5275   43.7733 H   0  0  0  0  0  0  0  0  0  0  0  0
   60.6501   36.0055   46.9424 H   0  0  0  0  0  0  0  0  0  0  0  0
   59.5994   34.8778   47.8843 H   0  0  0  0  0  0  0  0  0  0  0  0
   62.4866   34.0465   45.6022 H   0  0  0  0  0  0  0  0  0  0  0  0
   64.4909   32.7938   46.4016 H   0  0  0  0  0  0  0  0  0  0  0  0
   64.7407   32.2436   48.8209 H   0  0  0  0  0  0  0  0  0  0  0  0
   62.9954   32.9625   50.4536 H   0  0  0  0  0  0  0  0  0  0  0  0
   60.9699   34.1900   49.6618 H   0  0  0  0  0  0  0  0  0  0  0  0
   59.7230   32.5891   47.7886 H   0  0  0  0  0  0  0  0  0  0  0  0
   58.4735   30.4383   47.6983 H   0  0  0  0  0  0  0  0  0  0  0  0
   59.6541   24.2922   46.4467 H   0  0  0  0  0  0  0  0  0  0  0  0
  1  2  1  0
  2  3  1  0
  3  4  1  0
  4  5  2  0
  5  6  1  0
  6  7  2  0
  7  8  1  0
  8  9  2  0
  2 10  1  6
 10 11  1  0
 11 12  2  0
 12 13  1  0
 13 14  2  0
 14 15  1  0
 15 16  1  0
 16 17  2  0
 17 18  1  0
 18 19  1  0
 19 20  1  0
 20 21  2  0
 20 22  1  0
 19 23  1  0
 23 24  2  0
 24 25  1  0
 25 26  2  0
 26 27  1  0
 27 28  1  0
 28 29  1  0
 29 30  2  0
 30 31  1  0
 31 32  2  0
 32 33  1  0
 33 34  2  0
 26 35  1  0
 35 36  2  0
 15 37  2  0
  2 38  1  0
 38 39  2  0
 38 40  1  0
  9  4  1  0
 37 11  1  0
 18 14  1  0
 36 23  1  0
 34 29  1  0
  1 41  1  0
  1 42  1  0
  1 43  1  0
  3 44  1  0
  3 45  1  0
  5 46  1  0
  6 47  1  0
  7 48  1  0
  8 49  1  0
  9 50  1  0
 12 51  1  0
 13 52  1  0
 16 53  1  0
 17 54  1  0
 19 55  1  1
 24 56  1  0
 25 57  1  0
 28 58  1  0
 28 59  1  0
 30 60  1  0
 31 61  1  0
 32 62  1  0
 33 63  1  0
 34 64  1  0
 35 65  1  0
 36 66  1  0
 37 67  1  0
M  CHG  2  22  -1  40  -1
M  END
>  <UniqueID>  (37) 
35

>  <SMILES>  (37) 
C[C@@](Cc1ccccc1)(Oc1ccc2c(ccn2[C@H](C(=O)[O-])c2ccc(OCc3ccccc3)cc2)c1)C(=O)[O-]

>  <Energy>  (37) 
106.98222957768914

>  <Genealogy>  (37) 
CC(Cc1ccccc1)(Oc1ccc2c(ccn2C(C(=O)[O-])c2ccc(OCc3ccccc3)cc2)c1)C(=O)[O-] (protonated)
C[C@@](Cc1ccccc1)(Oc1ccc2c(ccn2[C@H](C(=O)[O-])c2ccc(OCc3ccccc3)cc2)c1)C(=O)[O-] (chirality)
C[C@@](Cc1ccccc1)(Oc1ccc2c(ccn2[C@H](C(=O)[O-])c2ccc(OCc3ccccc3)cc2)c1)C(=O)[O-] (3D coordinates assigned)
C[C@@](Cc1ccccc1)(Oc1ccc2c(ccn2[C@H](C(=O)[O-])c2ccc(OCc3ccccc3)cc2)c1)C(=O)[O-] (optimized conformer: 106.98222957768914 kcal/mol)

>  <smiles>  (37) 
CC(Cc1ccccc1)(Oc1ccc2c(ccn2C(C(=O)O)c2ccc(OCc3ccccc3)cc2)c1)C(=O)O

>  <score_type>  (37) 
oracle

>  <origin>  (37) 
adg

>  <m_score__min__energy>  (37) 
-13.82

>  <m_primary>  (37) 
energy

$$$$
37:0
     RDKit          3D

 35 37  0  0  0  0  0  0  0  0999 V2000
   55.6030   29.3140   44.8470 O   0  0  0  0  0  0  0  0  0  0  0  0
   56.6040   28.6720   45.2680 C   0  0  0  0  0  0  0  0  0  0  0  0
   57.9060   29.2760   45.2680 N   0  0  0  0  0  0  0  0  0  0  0  0
   58.1320   30.6690   44.9860 C   0  0  0  0  0  0  0  0  0  0  0  0
   57.5400   31.2610   43.8560 C   0  0  0  0  0  0  0  0  0  0  0  0
   57.6860   32.6270   43.6110 C   0  0  0  0  0  0  0  0  0  0  0  0
   58.4160   33.4220   44.4940 C   0  0  0  0  0  0  0  0  0  0  0  0
   59.0010   32.8530   45.6250 C   0  0  0  0  0  0  0  0  0  0  0  0
   58.8630   31.4790   45.8900 C   0  0  0  0  0  0  0  0  0  0  0  0
   59.5260   30.9030   47.0850 C   0  0  0  0  0  0  0  0  0  0  0  0
   59.6030   29.6520   47.2080 O   0  0  0  0  0  0  0  0  0  0  0  0
   60.1580   31.7320   48.0700 N   0  0  0  0  0  0  0  0  0  0  0  0
   61.4690   32.3070   47.9790 C   0  0  0  0  0  0  0  0  0  0  0  0
   61.7800   33.1130   46.8770 C   0  0  0  0  0  0  0  0  0  0  0  0
   63.0520   33.6800   46.7510 C   0  0  0  0  0  0  0  0  0  0  0  0
   64.0270   33.4320   47.7200 C   0  0  0  0  0  0  0  0  0  0  0  0
   63.7350   32.6070   48.8110 C   0  0  0  0  0  0  0  0  0  0  0  0
   65.0740   32.2510   50.1260 Br  0  0  0  0  0  0  0  0  0  0  0  0
   62.4640   32.0360   48.9370 C   0  0  0  0  0  0  0  0  0  0  0  0
   56.4330   27.2890   45.7340 C   0  0  0  0  0  0  0  0  0  0  0  0
   57.4420   26.3820   45.9950 C   0  0  0  0  0  0  0  0  0  0  0  0
   56.7470   25.2640   46.3930 C   0  0  0  0  0  0  0  0  0  0  0  0
   57.2640   24.1700   46.7360 O   0  0  0  0  0  0  0  0  0  0  0  0
   55.4210   25.4890   46.3690 N   0  0  0  0  0  0  0  0  0  0  0  0
   55.2710   26.7180   45.9670 O   0  0  0  0  0  0  0  0  0  0  0  0
   58.7360   28.6630   45.4330 H   0  0  0  0  0  0  0  0  0  0  0  0
   56.9565   30.6416   43.1589 H   0  0  0  0  0  0  0  0  0  0  0  0
   57.2245   33.0774   42.7199 H   0  0  0  0  0  0  0  0  0  0  0  0
   58.5305   34.4984   44.2984 H   0  0  0  0  0  0  0  0  0  0  0  0
   59.5763   33.4857   46.3169 H   0  0  0  0  0  0  0  0  0  0  0  0
   61.0188   33.3013   46.1055 H   0  0  0  0  0  0  0  0  0  0  0  0
   63.2849   34.3216   45.8884 H   0  0  0  0  0  0  0  0  0  0  0  0
   65.0246   33.8856   47.6250 H   0  0  0  0  0  0  0  0  0  0  0  0
   62.2418   31.3737   49.7867 H   0  0  0  0  0  0  0  0  0  0  0  0
   58.5298   26.5197   45.9065 H   0  0  0  0  0  0  0  0  0  0  0  0
  1  2  2  0
  2  3  1  0
  3  4  1  0
  4  5  2  0
  5  6  1  0
  6  7  2  0
  7  8  1  0
  8  9  2  0
  9 10  1  0
 10 11  2  0
 10 12  1  0
 12 13  1  0
 13 14  2  0
 14 15  1  0
 15 16  2  0
 16 17  1  0
 17 18  1  0
 17 19  2  0
  2 20  1  0
 20 21  2  0
 21 22  1  0
 22 23  2  0
 22 24  1  0
 24 25  1  0
  9  4  1  0
 19 13  1  0
 25 20  1  0
  3 26  1  0
  5 27  1  0
  6 28  1  0
  7 29  1  0
  8 30  1  0
 14 31  1  0
 15 32  1  0
 16 33  1  0
 19 34  1  0
 21 35  1  0
M  CHG  2  12  -1  24  -1
M  END
>  <UniqueID>  (38) 
36

>  <SMILES>  (38) 
O=C(Nc1ccccc1C(=O)[N-]c1cccc(Br)c1)c1cc(=O)[n-]o1

>  <Energy>  (38) 
80.41286563255407

>  <Genealogy>  (38) 
O=C(Nc1ccccc1C(=O)[N-]c1cccc(Br)c1)c1cc(=O)[n-]o1 (protonated)
O=C(Nc1ccccc1C(=O)[N-]c1cccc(Br)c1)c1cc(=O)[n-]o1 (3D coordinates assigned)
O=C(Nc1ccccc1C(=O)[N-]c1cccc(Br)c1)c1cc(=O)[n-]o1 (optimized conformer: 80.41286563255407 kcal/mol)

>  <smiles>  (38) 
O=C(Nc1ccccc1C(=O)Nc1cccc(Br)c1)c1cc(=O)[nH]o1

>  <score_type>  (38) 
oracle

>  <origin>  (38) 
adg

>  <m_score__min__energy>  (38) 
-13.140000000000001

>  <m_primary>  (38) 
energy

$$$$
38:0
     RDKit          3D

 58 61  0  0  1  0  0  0  0  0999 V2000
   51.4170   28.1960   52.3290 N   0  0  0  0  0  0  0  0  0  0  0  0
   51.9570   29.5140   52.3300 C   0  0  0  0  0  0  0  0  0  0  0  0
   51.1290   30.4600   52.2960 O   0  0  0  0  0  0  0  0  0  0  0  0
   53.3840   29.7560   52.3660 C   0  0  0  0  0  0  0  0  0  0  0  0
   54.3060   28.8310   52.8190 C   0  0  0  0  0  0  0  0  0  0  0  0
   55.6560   29.0520   52.8570 C   0  0  0  0  0  0  0  0  0  0  0  0
   56.1190   30.2680   52.4150 C   0  0  0  0  0  0  0  0  0  0  0  0
   58.8980   33.4410   49.0490 N   0  0  0  0  0  0  0  0  0  0  0  0
   58.7230   32.3210   49.5480 C   0  0  0  0  0  0  0  0  0  0  0  0
   58.4100   29.7760   50.5110 N   0  0  0  0  0  0  0  0  0  0  0  0
   58.9600   29.9440   49.2970 C   0  0  0  0  0  0  0  0  0  0  0  0
   59.3730   28.8740   48.4600 N   0  0  0  0  0  0  0  0  0  0  0  0
   59.1340   28.7920   47.0730 C   0  0  0  0  0  0  0  0  0  0  0  0
   60.0740   28.1310   46.2920 C   0  0  0  0  0  0  0  0  0  0  0  0
   59.9430   28.0100   44.9270 C   0  0  0  0  0  0  0  0  0  0  0  0
   58.8340   28.5720   44.3310 C   0  0  0  0  0  0  0  0  0  0  0  0
   57.8670   29.2400   45.0500 C   0  0  0  0  0  0  0  0  0  0  0  0
   56.4510   29.9560   44.3200 S   0  0  0  0  0  0  0  0  0  0  0  0
   56.5090   29.8720   42.6010 N   0  0  0  0  0  0  0  0  0  0  0  0
   56.4820   31.4200   44.6800 O   0  0  0  0  0  0  0  0  0  0  0  0
   55.2030   29.3690   44.8950 O   0  0  0  0  0  0  0  0  0  0  0  0
   58.0490   29.3320   46.4280 C   0  0  0  0  0  0  0  0  0  0  0  0
   59.1080   31.2100   48.8340 C   0  0  0  0  0  0  0  0  0  0  0  0
   58.0290   30.8490   51.2220 C   0  0  0  0  0  0  0  0  0  0  0  0
   57.4990   30.6250   52.4000 N   0  0  0  0  0  0  0  0  0  0  0  0
   59.9040   34.2440   48.5750 C   0  0  0  0  0  0  0  0  0  0  0  0
   61.2370   33.8490   48.1970 C   0  0  0  0  0  0  0  0  0  0  0  0
   62.2020   33.3310   49.0720 C   0  0  0  0  0  0  0  0  0  0  0  0
   63.4470   32.9530   48.6140 C   0  0  0  0  0  0  0  0  0  0  0  0
   63.8140   33.0610   47.2860 C   0  0  0  0  0  0  0  0  0  0  0  0
   62.8690   33.5700   46.4210 C   0  0  0  0  0  0  0  0  0  0  0  0
   61.6270   33.9480   46.8700 C   0  0  0  0  0  0  0  0  0  0  0  0
   58.1700   32.1160   50.7740 N   0  0  0  0  0  0  0  0  0  0  0  0
   55.2270   31.2040   51.9600 C   0  0  0  0  0  0  0  0  0  0  0  0
   53.8690   30.9680   51.9290 C   0  0  0  0  0  0  0  0  0  0  0  0
   51.7240   27.4880   51.6260 H   0  0  0  0  0  0  0  0  0  0  0  0
   50.7040   27.9950   53.0740 H   0  0  0  0  0  0  0  0  0  0  0  0
   53.9318   27.8581   53.1703 H   0  0  0  0  0  0  0  0  0  0  0  0
   56.3476   28.2818   53.2290 H   0  0  0  0  0  0  0  0  0  0  0  0
   58.2840   28.8350   50.9200 H   0  0  0  0  0  0  0  0  0  0  0  0
   59.9050   28.0570   48.8820 H   0  0  0  0  0  0  0  0  0  0  0  0
   60.9541   27.6887   46.7818 H   0  0  0  0  0  0  0  0  0  0  0  0
   60.7002   27.4809   44.3298 H   0  0  0  0  0  0  0  0  0  0  0  0
   58.7169   28.4838   43.2408 H   0  0  0  0  0  0  0  0  0  0  0  0
   55.7040   29.4000   42.1770 H   0  0  0  0  0  0  0  0  0  0  0  0
   57.4380   29.6760   42.2160 H   0  0  0  0  0  0  0  0  0  0  0  0
   57.2908   29.8600   47.0250 H   0  0  0  0  0  0  0  0  0  0  0  0
   59.5572   31.3554   47.8405 H   0  0  0  0  0  0  0  0  0  0  0  0
   59.4852   34.7170   47.6745 H   0  0  0  0  0  0  0  0  0  0  0  0
   60.1422   34.7856   49.5023 H   0  0  0  0  0  0  0  0  0  0  0  0
   61.9627   33.2243   50.1403 H   0  0  0  0  0  0  0  0  0  0  0  0
   64.1754   32.5503   49.3331 H   0  0  0  0  0  0  0  0  0  0  0  0
   64.8113   32.7558   46.9364 H   0  0  0  0  0  0  0  0  0  0  0  0
   63.1135   33.6752   45.3537 H   0  0  0  0  0  0  0  0  0  0  0  0
   60.9068   34.3487   46.1414 H   0  0  0  0  0  0  0  0  0  0  0  0
   57.8780   32.9390   51.3160 H   0  0  0  0  0  0  0  0  0  0  0  0
   55.6068   32.1746   51.6083 H   0  0  0  0  0  0  0  0  0  0  0  0
   53.1795   31.7409   51.5586 H   0  0  0  0  0  0  0  0  0  0  0  0
  1  2  1  0
  2  3  2  0
  2  4  1  0
  4  5  2  0
  5  6  1  0
  6  7  2  0
  7  8  1  0
  8  9  2  0
  9 10  1  0
 10 11  1  0
 11 12  1  0
 12 13  1  0
 13 14  2  0
 14 15  1  0
 15 16  2  0
 16 17  1  0
 17 18  1  0
 18 19  1  0
 18 20  2  0
 18 21  2  0
 17 22  2  0
 11 23  2  0
 23 24  1  0
 24 25  2  0
 25 26  1  0
 26 27  1  0
 27 28  2  0
 28 29  1  0
 29 30  2  0
 30 31  1  0
 31 32  2  0
 24 33  1  0
  7 34  1  0
 34 35  2  0
 35  4  1  0
 33  9  1  0
 22 13  1  0
 32 27  1  0
  1 36  1  0
  1 37  1  0
  5 38  1  0
  6 39  1  0
 10 40  1  0
 12 41  1  0
 14 42  1  0
 15 43  1  0
 16 44  1  0
 19 45  1  0
 19 46  1  0
 22 47  1  0
 23 48  1  0
 26 49  1  0
 26 50  1  0
 28 51  1  0
 29 52  1  0
 30 53  1  0
 31 54  1  0
 32 55  1  0
 33 56  1  0
 34 57  1  0
 35 58  1  0
M  END
>  <smiles>  (39) 
NC(=O)c1ccc(N=c2[nH]c(Nc3cccc(S(N)(=O)=O)c3)cc(=NCc3ccccc3)[nH]2)cc1

>  <score_type>  (39) 
oracle

>  <origin>  (39) 
adg

>  <m_score__min__energy>  (39) 
-11.050000000000001

>  <m_primary>  (39) 
energy

$$$$
39:0
     RDKit          3D

 60 63  0  0  0  0  0  0  0  0999 V2000
   58.5010   32.3550   50.9830 C   0  0  0  0  0  0  0  0  0  0  0  0
   58.5620   31.0470   50.2540 C   0  0  0  0  0  0  0  0  0  0  0  0
   57.8060   30.1090   50.6270 O   0  0  0  0  0  0  0  0  0  0  0  0
   59.4350   30.8630   49.1190 N   0  0  0  0  0  0  0  0  0  0  0  0
   60.0910   29.5730   48.8760 C   0  0  0  0  0  0  0  0  0  0  0  0
   59.5500   28.9420   47.6220 C   0  0  0  0  0  0  0  0  0  0  0  0
   60.3930   28.1900   46.7890 C   0  0  0  0  0  0  0  0  0  0  0  0
   59.8830   27.5620   45.6500 C   0  0  0  0  0  0  0  0  0  0  0  0
   58.5180   27.6680   45.3310 C   0  0  0  0  0  0  0  0  0  0  0  0
   57.9650   26.9650   44.1550 C   0  0  0  0  0  0  0  0  0  0  0  0
   57.8030   27.5760   43.0670 O   0  0  0  0  0  0  0  0  0  0  0  0
   57.6360   25.5780   44.2270 N   0  0  0  0  0  0  0  0  0  0  0  0
   56.9550   24.9080   45.6680 S   0  0  0  0  0  0  0  0  0  0  0  0
   55.6680   25.6170   45.9730 O   0  0  0  0  0  0  0  0  0  0  0  0
   57.8950   25.1350   46.8150 O   0  0  0  0  0  0  0  0  0  0  0  0
   56.6460   23.1780   45.4550 C   0  0  0  0  0  0  0  0  0  0  0  0
   56.8820   22.6070   44.1940 C   0  0  0  0  0  0  0  0  0  0  0  0
   56.6820   21.2410   43.9820 C   0  0  0  0  0  0  0  0  0  0  0  0
   56.2470   20.4300   45.0290 C   0  0  0  0  0  0  0  0  0  0  0  0
   56.0240   20.9770   46.2920 C   0  0  0  0  0  0  0  0  0  0  0  0
   56.2210   22.3460   46.5180 C   0  0  0  0  0  0  0  0  0  0  0  0
   55.9590   22.9520   48.1480 Cl  0  0  0  0  0  0  0  0  0  0  0  0
   57.6800   28.4350   46.1570 C   0  0  0  0  0  0  0  0  0  0  0  0
   58.1900   29.0610   47.2970 C   0  0  0  0  0  0  0  0  0  0  0  0
   59.7360   31.9650   48.2490 C   0  0  0  0  0  0  0  0  0  0  0  0
   60.8780   32.7440   48.4680 C   0  0  0  0  0  0  0  0  0  0  0  0
   61.1760   33.8070   47.6130 C   0  0  0  0  0  0  0  0  0  0  0  0
   60.3310   34.1030   46.5400 C   0  0  0  0  0  0  0  0  0  0  0  0
   59.1700   33.3390   46.3160 C   0  0  0  0  0  0  0  0  0  0  0  0
   58.2670   33.6360   45.1800 C   0  0  0  0  0  0  0  0  0  0  0  0
   57.9600   34.8350   44.9440 O   0  0  0  0  0  0  0  0  0  0  0  0
   57.7210   32.5730   44.3000 C   0  0  0  0  0  0  0  0  0  0  0  0
   57.0190   31.4780   44.8380 C   0  0  0  0  0  0  0  0  0  0  0  0
   56.5310   30.4710   43.9980 C   0  0  0  0  0  0  0  0  0  0  0  0
   56.7470   30.5410   42.6200 C   0  0  0  0  0  0  0  0  0  0  0  0
   57.4510   31.6160   42.0790 C   0  0  0  0  0  0  0  0  0  0  0  0
   57.9370   32.6290   42.9120 C   0  0  0  0  0  0  0  0  0  0  0  0
   58.8920   32.2550   47.1690 C   0  0  0  0  0  0  0  0  0  0  0  0
   58.5096   32.1711   52.0675 H   0  0  0  0  0  0  0  0  0  0  0  0
   59.3715   32.9688   50.7083 H   0  0  0  0  0  0  0  0  0  0  0  0
   57.5772   32.8851   50.7083 H   0  0  0  0  0  0  0  0  0  0  0  0
   61.1738   29.7315   48.7648 H   0  0  0  0  0  0  0  0  0  0  0  0
   59.8942   28.9047   49.7273 H   0  0  0  0  0  0  0  0  0  0  0  0
   61.4610   28.0946   47.0343 H   0  0  0  0  0  0  0  0  0  0  0  0
   60.5533   26.9814   44.9992 H   0  0  0  0  0  0  0  0  0  0  0  0
   57.2278   23.2418   43.3649 H   0  0  0  0  0  0  0  0  0  0  0  0
   56.8677   20.8053   42.9892 H   0  0  0  0  0  0  0  0  0  0  0  0
   56.0793   19.3563   44.8585 H   0  0  0  0  0  0  0  0  0  0  0  0
   55.6912   20.3296   47.1167 H   0  0  0  0  0  0  0  0  0  0  0  0
   56.6149   28.5435   45.9045 H   0  0  0  0  0  0  0  0  0  0  0  0
   57.5224   29.6500   47.9430 H   0  0  0  0  0  0  0  0  0  0  0  0
   61.5421   32.5184   49.3154 H   0  0  0  0  0  0  0  0  0  0  0  0
   62.0780   34.4128   47.7844 H   0  0  0  0  0  0  0  0  0  0  0  0
   60.5745   34.9379   45.8665 H   0  0  0  0  0  0  0  0  0  0  0  0
   56.8533   31.4137   45.9235 H   0  0  0  0  0  0  0  0  0  0  0  0
   55.9759   29.6222   44.4240 H   0  0  0  0  0  0  0  0  0  0  0  0
   56.3619   29.7483   41.9617 H   0  0  0  0  0  0  0  0  0  0  0  0
   57.6247   31.6676   40.9940 H   0  0  0  0  0  0  0  0  0  0  0  0
   58.4914   33.4744   42.4786 H   0  0  0  0  0  0  0  0  0  0  0  0
   58.0051   31.6304   46.9864 H   0  0  0  0  0  0  0  0  0  0  0  0
  1  2  1  0
  2  3  2  0
  2  4  1  0
  4  5  1  0
  5  6  1  0
  6  7  2  0
  7  8  1  0
  8  9  2  0
  9 10  1  0
 10 11  2  0
 10 12  1  0
 12 13  1  0
 13 14  2  0
 13 15  2  0
 13 16  1  0
 16 17  2  0
 17 18  1  0
 18 19  2  0
 19 20  1  0
 20 21  2  0
 21 22  1  0
  9 23  1  0
 23 24  2  0
  4 25  1  0
 25 26  2  0
 26 27  1  0
 27 28  2  0
 28 29  1  0
 29 30  1  0
 30 31  2  0
 30 32  1  0
 32 33  2  0
 33 34  1  0
 34 35  2  0
 35 36  1  0
 36 37  2  0
 29 38  2  0
 24  6  1  0
 38 25  1  0
 21 16  1  0
 37 32  1  0
  1 39  1  0
  1 40  1  0
  1 41  1  0
  5 42  1  0
  5 43  1  0
  7 44  1  0
  8 45  1  0
 17 46  1  0
 18 47  1  0
 19 48  1  0
 20 49  1  0
 23 50  1  0
 24 51  1  0
 26 52  1  0
 27 53  1  0
 28 54  1  0
 33 55  1  0
 34 56  1  0
 35 57  1  0
 36 58  1  0
 37 59  1  0
 38 60  1  0
M  CHG  1  12  -1
M  END
>  <UniqueID>  (40) 
37

>  <SMILES>  (40) 
CC(=O)N(Cc1ccc(C(=O)[N-]S(=O)(=O)c2ccccc2Cl)cc1)c1cccc(C(=O)c2ccccc2)c1

>  <Energy>  (40) 
82.65690260276581

>  <Genealogy>  (40) 
CC(=O)N(Cc1ccc(C(=O)[N-]S(=O)(=O)c2ccccc2Cl)cc1)c1cccc(C(=O)c2ccccc2)c1 (protonated)
CC(=O)N(Cc1ccc(C(=O)[N-]S(=O)(=O)c2ccccc2Cl)cc1)c1cccc(C(=O)c2ccccc2)c1 (3D coordinates assigned)
CC(=O)N(Cc1ccc(C(=O)[N-]S(=O)(=O)c2ccccc2Cl)cc1)c1cccc(C(=O)c2ccccc2)c1 (optimized conformer: 82.65690260276581 kcal/mol)

>  <smiles>  (40) 
CC(=O)N(Cc1ccc(C(=O)NS(=O)(=O)c2ccccc2Cl)cc1)c1cccc(C(=O)c2ccccc2)c1

>  <score_type>  (40) 
oracle

>  <origin>  (40) 
adg

>  <m_score__min__energy>  (40) 
-13.119999999999999

>  <m_primary>  (40) 
energy

$$$$
40:0
     RDKit          3D

 40 42  0  0  0  0  0  0  0  0999 V2000
   64.2847   31.9309   46.6263 H   0  0  0  0  0  0  0  0  0  0  0  0
   63.3420   32.2330   47.1060 C   0  0  0  0  0  0  0  0  0  0  0  0
   62.7570   33.4560   46.7830 C   0  0  0  0  0  0  0  0  0  0  0  0
   63.2360   34.1159   46.0447 H   0  0  0  0  0  0  0  0  0  0  0  0
   61.5640   33.8450   47.3950 C   0  0  0  0  0  0  0  0  0  0  0  0
   61.1152   34.8166   47.1409 H   0  0  0  0  0  0  0  0  0  0  0  0
   60.9280   33.0100   48.3330 C   0  0  0  0  0  0  0  0  0  0  0  0
   59.6890   33.4440   48.9370 N   0  0  0  0  0  0  0  0  0  0  0  0
   59.6190   34.5130   49.5770 O   0  0  0  0  0  0  0  0  0  0  0  0
   58.5700   32.6450   48.8690 O   0  0  0  0  0  0  0  0  0  0  0  0
   61.5160   31.7570   48.6440 C   0  0  0  0  0  0  0  0  0  0  0  0
   60.9150   30.8910   49.6190 N   0  0  0  0  0  0  0  0  0  0  0  0
   60.4010   29.5750   49.3730 C   0  0  0  0  0  0  0  0  0  0  0  0
   60.4370   28.7310   50.3060 O   0  0  0  0  0  0  0  0  0  0  0  0
   59.7630   29.2210   48.0850 C   0  0  0  0  0  0  0  0  0  0  0  0
   58.8860   30.2870   47.1210 S   0  0  0  0  0  0  0  0  0  0  0  0
   58.5100   29.1210   45.9660 C   0  0  0  0  0  0  0  0  0  0  0  0
   57.8200   29.2960   44.8770 N   0  0  0  0  0  0  0  0  0  0  0  0
   56.4960   29.8400   44.7480 C   0  0  0  0  0  0  0  0  0  0  0  0
   55.5120   29.0640   44.8710 O   0  0  0  0  0  0  0  0  0  0  0  0
   56.2870   31.2390   44.5090 N   0  0  0  0  0  0  0  0  0  0  0  0
   57.1600   32.3230   44.8550 C   0  0  0  0  0  0  0  0  0  0  0  0
   58.1290   32.7230   43.9250 C   0  0  0  0  0  0  0  0  0  0  0  0
   58.2165   32.1922   42.9655 H   0  0  0  0  0  0  0  0  0  0  0  0
   58.9850   33.7910   44.2070 C   0  0  0  0  0  0  0  0  0  0  0  0
   59.7509   34.0897   43.4762 H   0  0  0  0  0  0  0  0  0  0  0  0
   58.8680   34.4800   45.4180 C   0  0  0  0  0  0  0  0  0  0  0  0
   59.6960   35.5180   45.6900 F   0  0  0  0  0  0  0  0  0  0  0  0
   57.8890   34.1040   46.3420 C   0  0  0  0  0  0  0  0  0  0  0  0
   57.7932   34.6498   47.2922 H   0  0  0  0  0  0  0  0  0  0  0  0
   57.0310   33.0360   46.0620 C   0  0  0  0  0  0  0  0  0  0  0  0
   56.2534   32.7523   46.7865 H   0  0  0  0  0  0  0  0  0  0  0  0
   59.0210   27.9170   46.3010 N   0  0  0  0  0  0  0  0  0  0  0  0
   59.7180   27.9600   47.4720 C   0  0  0  0  0  0  0  0  0  0  0  0
   60.3680   26.7310   48.0250 C   0  0  0  0  0  0  0  0  0  0  0  0
   60.3481   26.7687   49.1242 H   0  0  0  0  0  0  0  0  0  0  0  0
   59.8229   25.8405   47.6787 H   0  0  0  0  0  0  0  0  0  0  0  0
   61.4108   26.6803   47.6787 H   0  0  0  0  0  0  0  0  0  0  0  0
   62.7330   31.3920   48.0370 C   0  0  0  0  0  0  0  0  0  0  0  0
   63.2076   30.4350   48.2995 H   0  0  0  0  0  0  0  0  0  0  0  0
  1  2  1  0
  2  3  2  0
  3  4  1  0
  3  5  1  0
  5  6  1  0
  5  7  2  0
  7  8  1  0
  8  9  2  0
  8 10  1  0
  7 11  1  0
 11 12  1  0
 12 13  1  0
 13 14  2  0
 13 15  1  0
 15 16  1  0
 16 17  1  0
 17 18  2  0
 18 19  1  0
 19 20  2  0
 19 21  1  0
 21 22  1  0
 22 23  2  0
 23 24  1  0
 23 25  1  0
 25 26  1  0
 25 27  2  0
 27 28  1  0
 27 29  1  0
 29 30  1  0
 29 31  2  0
 31 32  1  0
 17 33  1  0
 33 34  1  0
 34 35  1  0
 35 36  1  0
 35 37  1  0
 35 38  1  0
 11 39  2  0
 39 40  1  0
 39  2  1  0
 34 15  2  0
 31 22  1  0
M  CHG  5   8   1  10  -1  12  -1  21  -1  33  -1
M  END
>  <UniqueID>  (41) 
38

>  <SMILES>  (41) 
Cc1[n-]/c(=N/C(=O)[N-]c2ccc(F)cc2)sc1C(=O)[N-]c1ccccc1[N+](=O)[O-]

>  <Energy>  (41) 
88.1351816196737

>  <Genealogy>  (41) 
Cc1[n-]c(=NC(=O)[N-]c2ccc(F)cc2)sc1C(=O)[N-]c1ccccc1[N+](=O)[O-] (protonated)
Cc1[n-]/c(=N/C(=O)[N-]c2ccc(F)cc2)sc1C(=O)[N-]c1ccccc1[N+](=O)[O-] (cis-trans isomerization)
Cc1[n-]/c(=N/C(=O)[N-]c2ccc(F)cc2)sc1C(=O)[N-]c1ccccc1[N+](=O)[O-] (3D coordinates assigned)
Cc1[n-]/c(=N/C(=O)[N-]c2ccc(F)cc2)sc1C(=O)[N-]c1ccccc1[N+](=O)[O-] (optimized conformer: 88.1351816196737 kcal/mol)

>  <smiles>  (41) 
Cc1[nH]c(=NC(=O)Nc2ccc(F)cc2)sc1C(=O)Nc1ccccc1[N+](=O)[O-]

>  <score_type>  (41) 
oracle

>  <origin>  (41) 
adg

>  <m_score__min__energy>  (41) 
-12.380000000000001

>  <m_primary>  (41) 
energy

$$$$
41:0
     RDKit          3D

 30 30  0  0  0  0  0  0  0  0999 V2000
   59.1860   34.5630   45.8770 C   0  0  0  0  0  0  0  0  0  0  0  0
   57.8560   33.8700   46.1610 C   0  0  0  0  0  0  0  0  0  0  0  0
   57.1910   33.3960   44.8600 C   0  0  0  0  0  0  0  0  0  0  0  0
   58.1670   32.6680   43.9210 C   0  0  0  0  0  0  0  0  0  0  0  0
   57.5900   31.4070   43.2460 C   0  0  0  0  0  0  0  0  0  0  0  0
   57.6490   30.2280   44.1340 N   0  0  0  0  0  0  0  0  0  0  0  0
   58.8700   29.8820   44.6500 C   0  0  0  0  0  0  0  0  0  0  0  0
   59.0080   28.7940   45.5070 C   0  0  0  0  0  0  0  0  0  0  0  0
   57.8930   28.0330   45.8330 C   0  0  0  0  0  0  0  0  0  0  0  0
   58.0120   27.0420   46.6020 O   0  0  0  0  0  0  0  0  0  0  0  0
   56.6470   28.3660   45.2990 C   0  0  0  0  0  0  0  0  0  0  0  0
   55.5400   27.5800   45.6120 O   0  0  0  0  0  0  0  0  0  0  0  0
   56.5250   29.4860   44.4480 C   0  0  0  0  0  0  0  0  0  0  0  0
   55.1780   29.7890   43.8250 C   0  0  0  0  0  0  0  0  0  0  0  0
   59.6766   34.8186   46.8278 H   0  0  0  0  0  0  0  0  0  0  0  0
   59.8350   33.8884   45.2993 H   0  0  0  0  0  0  0  0  0  0  0  0
   59.0049   35.4814   45.2993 H   0  0  0  0  0  0  0  0  0  0  0  0
   58.0354   33.0004   46.8104 H   0  0  0  0  0  0  0  0  0  0  0  0
   57.1855   34.5890   46.6544 H   0  0  0  0  0  0  0  0  0  0  0  0
   56.3707   32.7090   45.1150 H   0  0  0  0  0  0  0  0  0  0  0  0
   56.8269   34.2888   44.3306 H   0  0  0  0  0  0  0  0  0  0  0  0
   58.4717   33.3706   43.1314 H   0  0  0  0  0  0  0  0  0  0  0  0
   59.0067   32.3300   44.5460 H   0  0  0  0  0  0  0  0  0  0  0  0
   56.5404   31.5969   42.9770 H   0  0  0  0  0  0  0  0  0  0  0  0
   58.1965   31.1913   42.3540 H   0  0  0  0  0  0  0  0  0  0  0  0
   59.7572   30.4746   44.3822 H   0  0  0  0  0  0  0  0  0  0  0  0
   59.9936   28.5386   45.9233 H   0  0  0  0  0  0  0  0  0  0  0  0
   54.4358   29.9560   44.6195 H   0  0  0  0  0  0  0  0  0  0  0  0
   55.2571   30.6918   43.2015 H   0  0  0  0  0  0  0  0  0  0  0  0
   54.8629   28.9393   43.2015 H   0  0  0  0  0  0  0  0  0  0  0  0
  1  2  1  0
  2  3  1  0
  3  4  1  0
  4  5  1  0
  5  6  1  0
  6  7  1  0
  7  8  2  0
  8  9  1  0
  9 10  2  0
  9 11  1  0
 11 12  1  0
 11 13  2  0
 13 14  1  0
 13  6  1  0
  1 15  1  0
  1 16  1  0
  1 17  1  0
  2 18  1  0
  2 19  1  0
  3 20  1  0
  3 21  1  0
  4 22  1  0
  4 23  1  0
  5 24  1  0
  5 25  1  0
  7 26  1  0
  8 27  1  0
 14 28  1  0
 14 29  1  0
 14 30  1  0
M  CHG  1  12  -1
M  END
>  <UniqueID>  (42) 
39

>  <SMILES>  (42) 
CCCCCn1ccc(=O)c([O-])c1C

>  <Energy>  (42) 
25.389805651851027

>  <Genealogy>  (42) 
CCCCCn1ccc(=O)c([O-])c1C (protonated)
CCCCCn1ccc(=O)c([O-])c1C (3D coordinates assigned)
CCCCCn1ccc(=O)c([O-])c1C (optimized conformer: 25.389805651851027 kcal/mol)

>  <smiles>  (42) 
CCCCCn1ccc(=O)c(O)c1C

>  <score_type>  (42) 
oracle

>  <origin>  (42) 
adg

>  <m_score__min__energy>  (42) 
-9.5

>  <m_primary>  (42) 
energy

$$$$
42:0
     RDKit          3D

 45 47  0  0  0  0  0  0  0  0999 V2000
   61.1851   33.3908   51.4992 H   0  0  0  0  0  0  0  0  0  0  0  0
   60.8310   32.6300   50.7880 C   0  0  0  0  0  0  0  0  0  0  0  0
   61.7160   31.6700   50.2930 C   0  0  0  0  0  0  0  0  0  0  0  0
   62.7669   31.6734   50.6178 H   0  0  0  0  0  0  0  0  0  0  0  0
   61.2700   30.7050   49.3860 C   0  0  0  0  0  0  0  0  0  0  0  0
   61.9735   29.9529   48.9995 H   0  0  0  0  0  0  0  0  0  0  0  0
   59.9270   30.6880   48.9630 C   0  0  0  0  0  0  0  0  0  0  0  0
   59.4490   29.6630   48.0080 C   0  0  0  0  0  0  0  0  0  0  0  0
   60.1320   28.6200   47.8150 O   0  0  0  0  0  0  0  0  0  0  0  0
   58.2480   29.8940   47.2570 N   0  0  0  0  0  0  0  0  0  0  0  0
   58.1300   30.2280   45.9990 C   0  0  0  0  0  0  0  0  0  0  0  0
   56.9170   29.9380   45.2010 C   0  0  0  0  0  0  0  0  0  0  0  0
   56.2190   30.8840   44.7460 O   0  0  0  0  0  0  0  0  0  0  0  0
   56.6110   28.5840   44.8520 N   0  0  0  0  0  0  0  0  0  0  0  0
   57.0550   27.4130   45.5530 C   0  0  0  0  0  0  0  0  0  0  0  0
   58.4300   27.2380   45.7560 C   0  0  0  0  0  0  0  0  0  0  0  0
   59.1370   27.9861   45.3681 H   0  0  0  0  0  0  0  0  0  0  0  0
   58.9140   26.1200   46.4480 C   0  0  0  0  0  0  0  0  0  0  0  0
   60.3200   25.9470   46.6450 N   0  0  0  0  0  0  0  0  0  0  0  0
   60.8850   26.6730   47.1400 H   0  0  0  0  0  0  0  0  0  0  0  0
   60.8100   25.0970   46.2860 H   0  0  0  0  0  0  0  0  0  0  0  0
   58.0110   25.1740   46.9510 C   0  0  0  0  0  0  0  0  0  0  0  0
   58.3852   24.2881   47.4850 H   0  0  0  0  0  0  0  0  0  0  0  0
   56.6370   25.3530   46.7760 C   0  0  0  0  0  0  0  0  0  0  0  0
   55.9328   24.6080   47.1749 H   0  0  0  0  0  0  0  0  0  0  0  0
   56.1520   26.4750   46.0960 C   0  0  0  0  0  0  0  0  0  0  0  0
   54.7790   26.6620   46.0010 O   0  0  0  0  0  0  0  0  0  0  0  0
   59.2330   31.0420   45.3830 C   0  0  0  0  0  0  0  0  0  0  0  0
   60.1989   30.5545   45.5812 H   0  0  0  0  0  0  0  0  0  0  0  0
   59.0647   31.1131   44.2983 H   0  0  0  0  0  0  0  0  0  0  0  0
   59.2450   32.4300   45.9720 C   0  0  0  0  0  0  0  0  0  0  0  0
   58.1220   33.2620   45.8210 C   0  0  0  0  0  0  0  0  0  0  0  0
   57.2293   32.8862   45.2995 H   0  0  0  0  0  0  0  0  0  0  0  0
   58.1330   34.5650   46.3300 C   0  0  0  0  0  0  0  0  0  0  0  0
   57.2487   35.2086   46.2126 H   0  0  0  0  0  0  0  0  0  0  0  0
   59.2660   35.0490   46.9870 C   0  0  0  0  0  0  0  0  0  0  0  0
   59.2701   36.0706   47.3949 H   0  0  0  0  0  0  0  0  0  0  0  0
   60.3950   34.2370   47.1270 C   0  0  0  0  0  0  0  0  0  0  0  0
   61.2895   34.6241   47.6370 H   0  0  0  0  0  0  0  0  0  0  0  0
   60.3900   32.9330   46.6200 C   0  0  0  0  0  0  0  0  0  0  0  0
   61.5310   32.1450   46.7590 O   0  0  0  0  0  0  0  0  0  0  0  0
   59.0420   31.6600   49.4720 C   0  0  0  0  0  0  0  0  0  0  0  0
   57.9889   31.6611   49.1542 H   0  0  0  0  0  0  0  0  0  0  0  0
   59.4960   32.6230   50.3790 C   0  0  0  0  0  0  0  0  0  0  0  0
   58.7987   33.3777   50.7716 H   0  0  0  0  0  0  0  0  0  0  0  0
  1  2  1  0
  2  3  2  0
  3  4  1  0
  3  5  1  0
  5  6  1  0
  5  7  2  0
  7  8  1  0
  8  9  2  0
  8 10  1  0
 10 11  2  0
 11 12  1  0
 12 13  2  0
 12 14  1  0
 14 15  1  0
 15 16  2  0
 16 17  1  0
 16 18  1  0
 18 19  1  0
 19 20  1  0
 19 21  1  0
 18 22  2  0
 22 23  1  0
 22 24  1  0
 24 25  1  0
 24 26  2  0
 26 27  1  0
 11 28  1  0
 28 29  1  0
 28 30  1  0
 28 31  1  0
 31 32  2  0
 32 33  1  0
 32 34  1  0
 34 35  1  0
 34 36  2  0
 36 37  1  0
 36 38  1  0
 38 39  1  0
 38 40  2  0
 40 41  1  0
  7 42  1  0
 42 43  1  0
 42 44  2  0
 44 45  1  0
 44  2  1  0
 26 15  1  0
 40 31  1  0
M  CHG  3  14  -1  27  -1  41  -1
M  END
>  <UniqueID>  (43) 
40

>  <SMILES>  (43) 
Nc1ccc([O-])c([N-]C(=O)/C(Cc2ccccc2[O-])=N\C(=O)c2ccccc2)c1

>  <Energy>  (43) 
59.87144371555377

>  <Genealogy>  (43) 
Nc1ccc([O-])c([N-]C(=O)C(Cc2ccccc2[O-])=NC(=O)c2ccccc2)c1 (protonated)
Nc1ccc([O-])c([N-]C(=O)/C(Cc2ccccc2[O-])=N\C(=O)c2ccccc2)c1 (cis-trans isomerization)
Nc1ccc([O-])c([N-]C(=O)/C(Cc2ccccc2[O-])=N\C(=O)c2ccccc2)c1 (3D coordinates assigned)
Nc1ccc([O-])c([N-]C(=O)/C(Cc2ccccc2[O-])=N\C(=O)c2ccccc2)c1 (optimized conformer: 59.87144371555377 kcal/mol)

>  <smiles>  (43) 
Nc1ccc(O)c(NC(=O)C(Cc2ccccc2O)=NC(=O)c2ccccc2)c1

>  <score_type>  (43) 
oracle

>  <origin>  (43) 
adg

>  <m_score__min__energy>  (43) 
-16.23

>  <m_primary>  (43) 
energy

$$$$
43:0
     RDKit          3D

 51 53  0  0  0  0  0  0  0  0999 V2000
   54.8510   29.3280   44.5050 O   0  0  0  0  0  0  0  0  0  0  0  0
   56.0680   29.6470   44.4280 C   0  0  0  0  0  0  0  0  0  0  0  0
   56.6480   30.0430   43.1060 C   0  0  0  0  0  0  0  0  0  0  0  0
   57.6750   31.0670   43.2860 N   0  0  0  0  0  0  0  0  0  0  0  0
   57.4970   32.1530   44.2060 C   0  0  0  0  0  0  0  0  0  0  0  0
   56.4390   32.2430   44.8870 O   0  0  0  0  0  0  0  0  0  0  0  0
   58.5420   33.2180   44.3220 C   0  0  0  0  0  0  0  0  0  0  0  0
   58.8690   33.4620   45.7690 C   0  0  0  0  0  0  0  0  0  0  0  0
   59.3440   34.7150   46.1890 C   0  0  0  0  0  0  0  0  0  0  0  0
   59.6170   34.9500   47.5410 C   0  0  0  0  0  0  0  0  0  0  0  0
   59.4100   33.9370   48.4830 C   0  0  0  0  0  0  0  0  0  0  0  0
   59.6850   34.1700   49.8260 O   0  0  0  0  0  0  0  0  0  0  0  0
   58.9240   32.6910   48.0750 C   0  0  0  0  0  0  0  0  0  0  0  0
   58.6490   32.4550   46.7240 C   0  0  0  0  0  0  0  0  0  0  0  0
   56.9070   29.6400   45.5890 N   0  0  0  0  0  0  0  0  0  0  0  0
   57.5960   28.5070   46.1370 C   0  0  0  0  0  0  0  0  0  0  0  0
   58.7110   28.6480   46.9820 C   0  0  0  0  0  0  0  0  0  0  0  0
   59.3350   27.5180   47.5180 C   0  0  0  0  0  0  0  0  0  0  0  0
   58.8430   26.2420   47.2320 C   0  0  0  0  0  0  0  0  0  0  0  0
   57.7160   26.0910   46.4140 C   0  0  0  0  0  0  0  0  0  0  0  0
   57.0760   24.4930   46.0430 S   0  0  0  0  0  0  0  0  0  0  0  0
   55.5810   24.5970   45.9200 O   0  0  0  0  0  0  0  0  0  0  0  0
   57.4040   23.5380   47.1580 O   0  0  0  0  0  0  0  0  0  0  0  0
   57.7720   23.9380   44.5360 N   0  0  0  0  0  0  0  0  0  0  0  0
   58.1220   22.5010   44.5860 C   0  0  0  0  0  0  0  0  0  0  0  0
   57.0640   21.6060   43.9140 C   0  0  0  0  0  0  0  0  0  0  0  0
   55.7790   22.1660   44.0720 O   0  0  0  0  0  0  0  0  0  0  0  0
   55.6640   23.3530   43.3070 C   0  0  0  0  0  0  0  0  0  0  0  0
   56.9110   24.2650   43.3850 C   0  0  0  0  0  0  0  0  0  0  0  0
   57.0950   27.2250   45.8740 C   0  0  0  0  0  0  0  0  0  0  0  0
   57.0968   29.1598   42.6280 H   0  0  0  0  0  0  0  0  0  0  0  0
   55.8462   30.4496   42.4722 H   0  0  0  0  0  0  0  0  0  0  0  0
   58.5560   31.0270   42.7230 H   0  0  0  0  0  0  0  0  0  0  0  0
   59.4508   32.8959   43.7925 H   0  0  0  0  0  0  0  0  0  0  0  0
   58.1604   34.1484   43.8762 H   0  0  0  0  0  0  0  0  0  0  0  0
   59.5022   35.5156   45.4515 H   0  0  0  0  0  0  0  0  0  0  0  0
   59.9945   35.9317   47.8632 H   0  0  0  0  0  0  0  0  0  0  0  0
   58.7579   31.8960   48.8169 H   0  0  0  0  0  0  0  0  0  0  0  0
   58.2587   31.4765   46.4077 H   0  0  0  0  0  0  0  0  0  0  0  0
   59.0935   29.6510   47.2220 H   0  0  0  0  0  0  0  0  0  0  0  0
   60.2158   27.6336   48.1667 H   0  0  0  0  0  0  0  0  0  0  0  0
   59.3413   25.3548   47.6498 H   0  0  0  0  0  0  0  0  0  0  0  0
   59.0835   22.3553   44.0720 H   0  0  0  0  0  0  0  0  0  0  0  0
   58.1778   22.2101   45.6454 H   0  0  0  0  0  0  0  0  0  0  0  0
   57.2919   21.5169   42.8416 H   0  0  0  0  0  0  0  0  0  0  0  0
   57.0826   20.6127   44.3863 H   0  0  0  0  0  0  0  0  0  0  0  0
   55.5026   23.0743   42.2552 H   0  0  0  0  0  0  0  0  0  0  0  0
   54.8210   23.9240   43.7234 H   0  0  0  0  0  0  0  0  0  0  0  0
   57.4953   24.1451   42.4608 H   0  0  0  0  0  0  0  0  0  0  0  0
   56.5630   25.3011   43.5086 H   0  0  0  0  0  0  0  0  0  0  0  0
   56.2056   27.1078   45.2374 H   0  0  0  0  0  0  0  0  0  0  0  0
  1  2  2  0
  2  3  1  0
  3  4  1  0
  4  5  1  0
  5  6  2  0
  5  7  1  0
  7  8  1  0
  8  9  2  0
  9 10  1  0
 10 11  2  0
 11 12  1  0
 11 13  1  0
 13 14  2  0
  2 15  1  0
 15 16  1  0
 16 17  2  0
 17 18  1  0
 18 19  2  0
 19 20  1  0
 20 21  1  0
 21 22  2  0
 21 23  2  0
 21 24  1  0
 24 25  1  0
 25 26  1  0
 26 27  1  0
 27 28  1  0
 28 29  1  0
 20 30  2  0
 14  8  1  0
 30 16  1  0
 29 24  1  0
  3 31  1  0
  3 32  1  0
  4 33  1  0
  7 34  1  0
  7 35  1  0
  9 36  1  0
 10 37  1  0
 13 38  1  0
 14 39  1  0
 17 40  1  0
 18 41  1  0
 19 42  1  0
 25 43  1  0
 25 44  1  0
 26 45  1  0
 26 46  1  0
 28 47  1  0
 28 48  1  0
 29 49  1  0
 29 50  1  0
 30 51  1  0
M  CHG  2  12  -1  15  -1
M  END
>  <UniqueID>  (44) 
41

>  <SMILES>  (44) 
O=C(CNC(=O)Cc1ccc([O-])cc1)[N-]c1cccc(S(=O)(=O)N2CCOCC2)c1

>  <Energy>  (44) 
61.331139786102774

>  <Genealogy>  (44) 
O=C(CNC(=O)Cc1ccc([O-])cc1)[N-]c1cccc(S(=O)(=O)N2CCOCC2)c1 (protonated)
O=C(CNC(=O)Cc1ccc([O-])cc1)[N-]c1cccc(S(=O)(=O)N2CCOCC2)c1 (3D coordinates assigned)
O=C(CNC(=O)Cc1ccc([O-])cc1)[N-]c1cccc(S(=O)(=O)N2CCOCC2)c1 (nonaromatic ring conformer: 61.331139786102774 kcal/mol)

>  <smiles>  (44) 
O=C(Cc1ccc(O)cc1)NCC(=O)Nc1cccc(S(=O)(=O)N2CCOCC2)c1

>  <score_type>  (44) 
oracle

>  <origin>  (44) 
adg

>  <m_score__min__energy>  (44) 
-14.42

>  <m_primary>  (44) 
energy

$$$$
44:0
     RDKit          3D

 29 30  0  0  0  0  0  0  0  0999 V2000
   55.1860   26.6890   45.9800 N   0  0  0  0  0  0  0  0  0  0  0  0
   56.9100   26.7930   46.0170 S   0  0  0  0  0  0  0  0  0  0  0  0
   57.4920   25.4910   45.5450 O   0  0  0  0  0  0  0  0  0  0  0  0
   57.3820   27.0610   47.4190 O   0  0  0  0  0  0  0  0  0  0  0  0
   57.4450   28.0630   44.9660 N   0  0  0  0  0  0  0  0  0  0  0  0
   57.6170   29.4360   45.3460 C   0  0  0  0  0  0  0  0  0  0  0  0
   58.3070   29.7990   46.5180 C   0  0  0  0  0  0  0  0  0  0  0  0
   58.4620   31.1450   46.8590 C   0  0  0  0  0  0  0  0  0  0  0  0
   57.9320   32.1440   46.0350 C   0  0  0  0  0  0  0  0  0  0  0  0
   58.1400   33.8700   46.4700 S   0  0  0  0  0  0  0  0  0  0  0  0
   59.8510   33.6390   46.9530 C   0  0  0  0  0  0  0  0  0  0  0  0
   60.8750   33.8210   46.0160 C   0  0  0  0  0  0  0  0  0  0  0  0
   62.2100   33.6470   46.3950 C   0  0  0  0  0  0  0  0  0  0  0  0
   62.5270   33.2890   47.7100 C   0  0  0  0  0  0  0  0  0  0  0  0
   63.8610   33.1210   48.0750 O   0  0  0  0  0  0  0  0  0  0  0  0
   61.5010   33.1040   48.6470 C   0  0  0  0  0  0  0  0  0  0  0  0
   60.1650   33.2780   48.2680 C   0  0  0  0  0  0  0  0  0  0  0  0
   57.2410   31.7920   44.8720 C   0  0  0  0  0  0  0  0  0  0  0  0
   57.0850   30.4450   44.5250 C   0  0  0  0  0  0  0  0  0  0  0  0
   56.2160   30.0410   43.0510 Cl  0  0  0  0  0  0  0  0  0  0  0  0
   54.8360   27.0860   46.8810 H   0  0  0  0  0  0  0  0  0  0  0  0
   58.7267   29.0182   47.1693 H   0  0  0  0  0  0  0  0  0  0  0  0
   59.0018   31.4199   47.7772 H   0  0  0  0  0  0  0  0  0  0  0  0
   60.6295   34.1010   44.9810 H   0  0  0  0  0  0  0  0  0  0  0  0
   63.0130   33.7920   45.6573 H   0  0  0  0  0  0  0  0  0  0  0  0
   64.5370   32.7160   47.4390 H   0  0  0  0  0  0  0  0  0  0  0  0
   61.7462   32.8217   49.6815 H   0  0  0  0  0  0  0  0  0  0  0  0
   59.3612   33.1309   49.0044 H   0  0  0  0  0  0  0  0  0  0  0  0
   56.8183   32.5765   44.2271 H   0  0  0  0  0  0  0  0  0  0  0  0
  1  2  1  0
  2  3  2  0
  2  4  2  0
  2  5  1  0
  5  6  1  0
  6  7  2  0
  7  8  1  0
  8  9  2  0
  9 10  1  0
 10 11  1  0
 11 12  2  0
 12 13  1  0
 13 14  2  0
 14 15  1  0
 14 16  1  0
 16 17  2  0
  9 18  1  0
 18 19  2  0
 19 20  1  0
 19  6  1  0
 17 11  1  0
  1 21  1  0
  7 22  1  0
  8 23  1  0
 12 24  1  0
 13 25  1  0
 15 26  1  0
 16 27  1  0
 17 28  1  0
 18 29  1  0
M  CHG  2   1  -1   5  -1
M  END
>  <UniqueID>  (45) 
42

>  <SMILES>  (45) 
[NH-]S(=O)(=O)[N-]c1ccc(Sc2ccc(O)cc2)cc1Cl

>  <Energy>  (45) 
26.152648767472336

>  <Genealogy>  (45) 
[NH-]S(=O)(=O)[N-]c1ccc(Sc2ccc(O)cc2)cc1Cl (protonated)
[NH-]S(=O)(=O)[N-]c1ccc(Sc2ccc(O)cc2)cc1Cl (3D coordinates assigned)
[NH-]S(=O)(=O)[N-]c1ccc(Sc2ccc(O)cc2)cc1Cl (optimized conformer: 26.152648767472336 kcal/mol)

>  <smiles>  (45) 
NS(=O)(=O)Nc1ccc(Sc2ccc(O)cc2)cc1Cl

>  <score_type>  (45) 
oracle

>  <origin>  (45) 
adg

>  <m_score__min__energy>  (45) 
-12.359999999999999

>  <m_primary>  (45) 
energy

$$$$
45:0
     RDKit          3D

 65 69  0  0  0  0  0  0  0  0999 V2000
   58.8460   32.6480   50.8160 C   0  0  0  0  0  0  0  0  0  0  0  0
   60.3050   33.0020   50.9480 C   0  0  0  0  0  0  0  0  0  0  0  0
   60.9880   32.6460   52.1240 C   0  0  0  0  0  0  0  0  0  0  0  0
   62.3430   32.9510   52.2780 C   0  0  0  0  0  0  0  0  0  0  0  0
   63.0280   33.6250   51.2670 C   0  0  0  0  0  0  0  0  0  0  0  0
   62.3600   34.0000   50.1000 C   0  0  0  0  0  0  0  0  0  0  0  0
   60.9960   33.7110   49.9370 C   0  0  0  0  0  0  0  0  0  0  0  0
   60.3330   34.1410   48.6940 C   0  0  0  0  0  0  0  0  0  0  0  0
   59.2700   34.9670   48.6720 N   0  0  0  0  0  0  0  0  0  0  0  0
   58.9070   35.0940   47.4030 N   0  0  0  0  0  0  0  0  0  0  0  0
   59.7420   34.3280   46.6770 C   0  0  0  0  0  0  0  0  0  0  0  0
   59.6410   34.1870   44.8860 S   0  0  0  0  0  0  0  0  0  0  0  0
   57.8800   33.6810   44.8110 C   0  0  0  0  0  0  0  0  0  0  0  0
   57.7400   32.1820   44.8720 C   0  0  0  0  0  0  0  0  0  0  0  0
   57.3940   31.4530   43.7220 C   0  0  0  0  0  0  0  0  0  0  0  0
   57.3150   30.0570   43.7680 C   0  0  0  0  0  0  0  0  0  0  0  0
   57.5730   29.3750   44.9640 C   0  0  0  0  0  0  0  0  0  0  0  0
   57.6030   27.6160   44.9990 S   0  0  0  0  0  0  0  0  0  0  0  0
   57.7590   27.1100   43.5930 O   0  0  0  0  0  0  0  0  0  0  0  0
   58.7490   27.1420   45.8480 O   0  0  0  0  0  0  0  0  0  0  0  0
   56.1050   27.0320   45.6500 N   0  0  0  0  0  0  0  0  0  0  0  0
   55.8560   25.6830   46.0670 C   0  0  0  0  0  0  0  0  0  0  0  0
   56.6720   25.1280   47.0630 C   0  0  0  0  0  0  0  0  0  0  0  0
   56.4590   23.8180   47.5040 C   0  0  0  0  0  0  0  0  0  0  0  0
   55.4380   23.0480   46.9410 C   0  0  0  0  0  0  0  0  0  0  0  0
   54.6280   23.5890   45.9380 C   0  0  0  0  0  0  0  0  0  0  0  0
   54.8360   24.9000   45.4980 C   0  0  0  0  0  0  0  0  0  0  0  0
   57.8500   30.1040   46.1290 C   0  0  0  0  0  0  0  0  0  0  0  0
   57.9150   31.4990   46.0880 C   0  0  0  0  0  0  0  0  0  0  0  0
   60.6640   33.7260   47.4560 N   0  0  0  0  0  0  0  0  0  0  0  0
   61.6850   32.7480   47.0650 C   0  0  0  0  0  0  0  0  0  0  0  0
   61.0310   31.3980   46.7670 C   0  0  0  0  0  0  0  0  0  0  0  0
   61.0640   30.4710   47.9560 C   0  0  0  0  0  0  0  0  0  0  0  0
   61.8390   30.7870   49.0840 C   0  0  0  0  0  0  0  0  0  0  0  0
   61.8190   29.9560   50.2100 C   0  0  0  0  0  0  0  0  0  0  0  0
   61.0280   28.8040   50.2180 C   0  0  0  0  0  0  0  0  0  0  0  0
   60.2550   28.4800   49.1010 C   0  0  0  0  0  0  0  0  0  0  0  0
   60.2620   29.3150   47.9790 C   0  0  0  0  0  0  0  0  0  0  0  0
   58.4028   32.5405   51.8170 H   0  0  0  0  0  0  0  0  0  0  0  0
   58.3234   33.4454   50.2673 H   0  0  0  0  0  0  0  0  0  0  0  0
   58.7470   31.6998   50.2673 H   0  0  0  0  0  0  0  0  0  0  0  0
   60.4515   32.1231   52.9295 H   0  0  0  0  0  0  0  0  0  0  0  0
   62.8703   32.6590   53.1981 H   0  0  0  0  0  0  0  0  0  0  0  0
   64.0953   33.8612   51.3894 H   0  0  0  0  0  0  0  0  0  0  0  0
   62.9061   34.5255   49.3028 H   0  0  0  0  0  0  0  0  0  0  0  0
   57.3423   34.1263   45.6611 H   0  0  0  0  0  0  0  0  0  0  0  0
   57.4575   34.0315   43.8578 H   0  0  0  0  0  0  0  0  0  0  0  0
   57.1842   31.9824   42.7809 H   0  0  0  0  0  0  0  0  0  0  0  0
   57.0493   29.4929   42.8618 H   0  0  0  0  0  0  0  0  0  0  0  0
   57.4847   25.7266   47.5002 H   0  0  0  0  0  0  0  0  0  0  0  0
   57.0955   23.3937   48.2944 H   0  0  0  0  0  0  0  0  0  0  0  0
   55.2716   22.0170   47.2866 H   0  0  0  0  0  0  0  0  0  0  0  0
   53.8253   22.9820   45.4940 H   0  0  0  0  0  0  0  0  0  0  0  0
   54.2000   25.3198   44.7047 H   0  0  0  0  0  0  0  0  0  0  0  0
   58.0168   29.5755   47.0792 H   0  0  0  0  0  0  0  0  0  0  0  0
   58.1040   32.0655   47.0117 H   0  0  0  0  0  0  0  0  0  0  0  0
   62.2067   33.1063   46.1653 H   0  0  0  0  0  0  0  0  0  0  0  0
   62.4027   32.6267   47.8897 H   0  0  0  0  0  0  0  0  0  0  0  0
   59.9828   31.5684   46.4803 H   0  0  0  0  0  0  0  0  0  0  0  0
   61.5978   30.9219   45.9533 H   0  0  0  0  0  0  0  0  0  0  0  0
   62.4646   31.6918   49.0824 H   0  0  0  0  0  0  0  0  0  0  0  0
   62.4272   30.2102   51.0906 H   0  0  0  0  0  0  0  0  0  0  0  0
   61.0142   28.1524   51.1041 H   0  0  0  0  0  0  0  0  0  0  0  0
   59.6404   27.5677   49.1036 H   0  0  0  0  0  0  0  0  0  0  0  0
   59.6365   29.0664   47.1089 H   0  0  0  0  0  0  0  0  0  0  0  0
  1  2  1  0
  2  3  2  0
  3  4  1  0
  4  5  2  0
  5  6  1  0
  6  7  2  0
  7  8  1  0
  8  9  2  0
  9 10  1  0
 10 11  2  0
 11 12  1  0
 12 13  1  0
 13 14  1  0
 14 15  2  0
 15 16  1  0
 16 17  2  0
 17 18  1  0
 18 19  2  0
 18 20  2  0
 18 21  1  0
 21 22  1  0
 22 23  2  0
 23 24  1  0
 24 25  2  0
 25 26  1  0
 26 27  2  0
 17 28  1  0
 28 29  2  0
 11 30  1  0
 30 31  1  0
 31 32  1  0
 32 33  1  0
 33 34  2  0
 34 35  1  0
 35 36  2  0
 36 37  1  0
 37 38  2  0
  7  2  1  0
 30  8  1  0
 38 33  1  0
 29 14  1  0
 27 22  1  0
  1 39  1  0
  1 40  1  0
  1 41  1  0
  3 42  1  0
  4 43  1  0
  5 44  1  0
  6 45  1  0
 13 46  1  0
 13 47  1  0
 15 48  1  0
 16 49  1  0
 23 50  1  0
 24 51  1  0
 25 52  1  0
 26 53  1  0
 27 54  1  0
 28 55  1  0
 29 56  1  0
 31 57  1  0
 31 58  1  0
 32 59  1  0
 32 60  1  0
 34 61  1  0
 35 62  1  0
 36 63  1  0
 37 64  1  0
 38 65  1  0
M  CHG  1  21  -1
M  END
>  <UniqueID>  (46) 
43

>  <SMILES>  (46) 
Cc1ccccc1-c1nnc(SCc2ccc(S(=O)(=O)[N-]c3ccccc3)cc2)n1CCc1ccccc1

>  <Energy>  (46) 
107.81443001860873

>  <Genealogy>  (46) 
Cc1ccccc1-c1nnc(SCc2ccc(S(=O)(=O)[N-]c3ccccc3)cc2)n1CCc1ccccc1 (protonated)
Cc1ccccc1-c1nnc(SCc2ccc(S(=O)(=O)[N-]c3ccccc3)cc2)n1CCc1ccccc1 (3D coordinates assigned)
Cc1ccccc1-c1nnc(SCc2ccc(S(=O)(=O)[N-]c3ccccc3)cc2)n1CCc1ccccc1 (optimized conformer: 107.81443001860873 kcal/mol)

>  <smiles>  (46) 
Cc1ccccc1-c1nnc(SCc2ccc(S(=O)(=O)Nc3ccccc3)cc2)n1CCc1ccccc1

>  <score_type>  (46) 
oracle

>  <origin>  (46) 
adg

>  <m_score__min__energy>  (46) 
-11.220000000000001

>  <m_primary>  (46) 
energy

$$$$
46:0
     RDKit          3D

 36 38  0  0  0  0  0  0  0  0999 V2000
   59.4240   29.6830   48.7720 S   0  0  0  0  0  0  0  0  0  0  0  0
   58.9700   30.8210   47.6820 C   0  0  0  0  0  0  0  0  0  0  0  0
   59.2770   30.5850   46.3030 N   0  0  0  0  0  0  0  0  0  0  0  0
   58.2670   30.4190   45.2970 C   0  0  0  0  0  0  0  0  0  0  0  0
   58.3280   31.1810   44.1190 C   0  0  0  0  0  0  0  0  0  0  0  0
   57.3430   31.0440   43.1370 C   0  0  0  0  0  0  0  0  0  0  0  0
   56.2960   30.1340   43.3160 C   0  0  0  0  0  0  0  0  0  0  0  0
   56.2410   29.3530   44.4730 C   0  0  0  0  0  0  0  0  0  0  0  0
   57.2260   29.4860   45.4560 C   0  0  0  0  0  0  0  0  0  0  0  0
   58.6820   32.1600   48.1370 N   0  0  0  0  0  0  0  0  0  0  0  0
   58.6500   33.0850   47.0250 C   0  0  0  0  0  0  0  0  0  0  0  0
   57.4210   33.3210   46.3790 C   0  0  0  0  0  0  0  0  0  0  0  0
   57.3300   34.2110   45.3100 C   0  0  0  0  0  0  0  0  0  0  0  0
   58.4590   34.9050   44.8840 C   0  0  0  0  0  0  0  0  0  0  0  0
   59.6800   34.7200   45.5330 C   0  0  0  0  0  0  0  0  0  0  0  0
   59.7980   33.8150   46.6020 C   0  0  0  0  0  0  0  0  0  0  0  0
   61.1090   33.7230   47.2770 C   0  0  0  0  0  0  0  0  0  0  0  0
   62.3430   33.4940   46.6790 C   0  0  0  0  0  0  0  0  0  0  0  0
   63.4130   33.5360   47.5780 C   0  0  0  0  0  0  0  0  0  0  0  0
   63.0340   33.8170   48.8850 C   0  0  0  0  0  0  0  0  0  0  0  0
   61.3650   34.0140   48.9150 S   0  0  0  0  0  0  0  0  0  0  0  0
   60.2820   30.6110   46.0180 H   0  0  0  0  0  0  0  0  0  0  0  0
   59.1557   31.8897   43.9683 H   0  0  0  0  0  0  0  0  0  0  0  0
   57.3912   31.6527   42.2220 H   0  0  0  0  0  0  0  0  0  0  0  0
   55.5165   30.0334   42.5464 H   0  0  0  0  0  0  0  0  0  0  0  0
   55.4214   28.6323   44.6107 H   0  0  0  0  0  0  0  0  0  0  0  0
   57.1870   28.8581   46.3583 H   0  0  0  0  0  0  0  0  0  0  0  0
   57.7440   32.1870   48.6010 H   0  0  0  0  0  0  0  0  0  0  0  0
   59.3810   32.4250   48.8630 H   0  0  0  0  0  0  0  0  0  0  0  0
   56.5186   32.7947   46.7235 H   0  0  0  0  0  0  0  0  0  0  0  0
   56.3660   34.3649   44.8030 H   0  0  0  0  0  0  0  0  0  0  0  0
   58.3883   35.6002   44.0345 H   0  0  0  0  0  0  0  0  0  0  0  0
   60.5616   35.2896   45.2040 H   0  0  0  0  0  0  0  0  0  0  0  0
   62.4656   33.2988   45.6034 H   0  0  0  0  0  0  0  0  0  0  0  0
   64.4572   33.3628   47.2786 H   0  0  0  0  0  0  0  0  0  0  0  0
   63.7090   33.8967   49.7499 H   0  0  0  0  0  0  0  0  0  0  0  0
  1  2  2  0
  2  3  1  0
  3  4  1  0
  4  5  2  0
  5  6  1  0
  6  7  2  0
  7  8  1  0
  8  9  2  0
  2 10  1  0
 10 11  1  0
 11 12  2  0
 12 13  1  0
 13 14  2  0
 14 15  1  0
 15 16  2  0
 16 17  1  0
 17 18  2  0
 18 19  1  0
 19 20  2  0
 20 21  1  0
  9  4  1  0
 16 11  1  0
 21 17  1  0
  3 22  1  0
  5 23  1  0
  6 24  1  0
  7 25  1  0
  8 26  1  0
  9 27  1  0
 10 28  1  0
 10 29  1  0
 12 30  1  0
 13 31  1  0
 14 32  1  0
 15 33  1  0
 18 34  1  0
 19 35  1  0
 20 36  1  0
M  CHG  1  10   1
M  END
>  <UniqueID>  (47) 
44

>  <SMILES>  (47) 
S=C(Nc1ccccc1)[NH2+]c1ccccc1-c1cccs1

>  <Energy>  (47) 
80.57122863623282

>  <Genealogy>  (47) 
S=C(Nc1ccccc1)[NH2+]c1ccccc1-c1cccs1 (protonated)
S=C(Nc1ccccc1)[NH2+]c1ccccc1-c1cccs1 (3D coordinates assigned)
S=C(Nc1ccccc1)[NH2+]c1ccccc1-c1cccs1 (optimized conformer: 80.57122863623282 kcal/mol)

>  <smiles>  (47) 
S=C(Nc1ccccc1)Nc1ccccc1-c1cccs1

>  <score_type>  (47) 
oracle

>  <origin>  (47) 
adg

>  <m_score__min__energy>  (47) 
-6.0700000000000003

>  <m_primary>  (47) 
energy

$$$$
47:0
     RDKit          3D

 48 51  0  0  0  0  0  0  0  0999 V2000
   56.6230   29.2610   42.7330 C   0  0  0  0  0  0  0  0  0  0  0  0
   56.8180   30.5040   43.5340 C   0  0  0  0  0  0  0  0  0  0  0  0
   57.5780   31.5950   43.1740 C   0  0  0  0  0  0  0  0  0  0  0  0
   57.4260   32.4420   44.2470 C   0  0  0  0  0  0  0  0  0  0  0  0
   57.9370   33.6360   44.3220 N   0  0  0  0  0  0  0  0  0  0  0  0
   58.5110   34.2280   45.4980 C   0  0  0  0  0  0  0  0  0  0  0  0
   59.5310   34.9630   45.4170 O   0  0  0  0  0  0  0  0  0  0  0  0
   57.9010   34.0310   46.7760 N   0  0  0  0  0  0  0  0  0  0  0  0
   58.0160   32.8010   47.5510 C   0  0  0  0  0  0  0  0  0  0  0  0
   59.4700   32.4340   47.7150 C   0  0  0  0  0  0  0  0  0  0  0  0
   60.4210   33.4620   47.8300 C   0  0  0  0  0  0  0  0  0  0  0  0
   61.7800   33.1640   47.9440 C   0  0  0  0  0  0  0  0  0  0  0  0
   62.2050   31.8350   47.9490 C   0  0  0  0  0  0  0  0  0  0  0  0
   63.5250   31.5470   48.0700 F   0  0  0  0  0  0  0  0  0  0  0  0
   61.2730   30.8020   47.8380 C   0  0  0  0  0  0  0  0  0  0  0  0
   59.9010   31.0900   47.7090 C   0  0  0  0  0  0  0  0  0  0  0  0
   58.9590   30.0550   47.6240 O   0  0  0  0  0  0  0  0  0  0  0  0
   58.8370   29.1670   46.5460 C   0  0  0  0  0  0  0  0  0  0  0  0
   59.8360   29.1530   45.5690 C   0  0  0  0  0  0  0  0  0  0  0  0
   59.7710   28.2500   44.5070 C   0  0  0  0  0  0  0  0  0  0  0  0
   58.7190   27.3340   44.4260 C   0  0  0  0  0  0  0  0  0  0  0  0
   57.7130   27.3150   45.4100 C   0  0  0  0  0  0  0  0  0  0  0  0
   56.6280   26.3020   45.3880 C   0  0  0  0  0  0  0  0  0  0  0  0
   56.6970   25.0350   44.8260 C   0  0  0  0  0  0  0  0  0  0  0  0
   55.4820   24.4410   45.0880 C   0  0  0  0  0  0  0  0  0  0  0  0
   55.0700   23.0840   44.7070 C   0  0  0  0  0  0  0  0  0  0  0  0
   54.0410   22.5670   45.2160 O   0  0  0  0  0  0  0  0  0  0  0  0
   55.8140   22.3630   43.7820 O   0  0  0  0  0  0  0  0  0  0  0  0
   54.7300   25.3590   45.7900 C   0  0  0  0  0  0  0  0  0  0  0  0
   55.4280   26.4940   45.9780 N   0  0  0  0  0  0  0  0  0  0  0  0
   57.7720   28.2510   46.4590 C   0  0  0  0  0  0  0  0  0  0  0  0
   56.6430   31.8780   45.1880 N   0  0  0  0  0  0  0  0  0  0  0  0
   56.2990   30.7110   44.7240 O   0  0  0  0  0  0  0  0  0  0  0  0
   56.4887   28.4052   43.4109 H   0  0  0  0  0  0  0  0  0  0  0  0
   55.7309   29.3697   42.0987 H   0  0  0  0  0  0  0  0  0  0  0  0
   57.5055   29.0913   42.0987 H   0  0  0  0  0  0  0  0  0  0  0  0
   58.1623   31.7505   42.2551 H   0  0  0  0  0  0  0  0  0  0  0  0
   57.5631   32.9503   48.5422 H   0  0  0  0  0  0  0  0  0  0  0  0
   57.4940   31.9892   47.0233 H   0  0  0  0  0  0  0  0  0  0  0  0
   60.0915   34.5115   47.8302 H   0  0  0  0  0  0  0  0  0  0  0  0
   62.5159   33.9770   48.0299 H   0  0  0  0  0  0  0  0  0  0  0  0
   61.6127   29.7559   47.8514 H   0  0  0  0  0  0  0  0  0  0  0  0
   60.6781   29.8575   45.6374 H   0  0  0  0  0  0  0  0  0  0  0  0
   60.5506   28.2594   43.7310 H   0  0  0  0  0  0  0  0  0  0  0  0
   58.6768   26.6231   43.5877 H   0  0  0  0  0  0  0  0  0  0  0  0
   57.5468   24.5956   44.2831 H   0  0  0  0  0  0  0  0  0  0  0  0
   53.7035   25.1876   46.1464 H   0  0  0  0  0  0  0  0  0  0  0  0
   56.9772   28.2670   47.2193 H   0  0  0  0  0  0  0  0  0  0  0  0
  1  2  1  0
  2  3  2  0
  3  4  1  0
  4  5  2  3
  5  6  1  0
  6  7  2  0
  6  8  1  0
  8  9  1  0
  9 10  1  0
 10 11  2  0
 11 12  1  0
 12 13  2  0
 13 14  1  0
 13 15  1  0
 15 16  2  0
 16 17  1  0
 17 18  1  0
 18 19  2  0
 19 20  1  0
 20 21  2  0
 21 22  1  0
 22 23  1  0
 23 24  2  0
 24 25  1  0
 25 26  1  0
 26 27  2  0
 26 28  1  0
 25 29  2  0
 29 30  1  0
 22 31  2  0
  4 32  1  0
 32 33  1  0
 33  2  1  0
 16 10  1  0
 31 18  1  0
 30 23  1  0
  1 34  1  0
  1 35  1  0
  1 36  1  0
  3 37  1  0
  9 38  1  0
  9 39  1  0
 11 40  1  0
 12 41  1  0
 15 42  1  0
 19 43  1  0
 20 44  1  0
 21 45  1  0
 24 46  1  0
 29 47  1  0
 31 48  1  0
M  CHG  4   8  -1  28  -1  30  -1  32  -1
M  END
>  <UniqueID>  (48) 
45

>  <SMILES>  (48) 
Cc1cc(=NC(=O)[N-]Cc2ccc(F)cc2Oc2cccc(-c3cc(C(=O)[O-])c[n-]3)c2)[n-]o1

>  <Energy>  (48) 
109.19549103104494

>  <Genealogy>  (48) 
Cc1cc(=NC(=O)[N-]Cc2ccc(F)cc2Oc2cccc(-c3cc(C(=O)[O-])c[n-]3)c2)[n-]o1 (protonated)
Cc1cc(=NC(=O)[N-]Cc2ccc(F)cc2Oc2cccc(-c3cc(C(=O)[O-])c[n-]3)c2)[n-]o1 (3D coordinates assigned)
Cc1cc(=NC(=O)[N-]Cc2ccc(F)cc2Oc2cccc(-c3cc(C(=O)[O-])c[n-]3)c2)[n-]o1 (optimized conformer: 109.19549103104494 kcal/mol)

>  <smiles>  (48) 
Cc1cc(=NC(=O)NCc2ccc(F)cc2Oc2cccc(-c3cc(C(=O)O)c[nH]3)c2)[nH]o1

>  <score_type>  (48) 
oracle

>  <origin>  (48) 
adg

>  <m_score__min__energy>  (48) 
-15.91

>  <m_primary>  (48) 
energy

$$$$
48:0
     RDKit          3D

 48 49  0  0  0  0  0  0  0  0999 V2000
   54.7290   27.0880   46.7240 H   0  0  0  0  0  0  0  0  0  0  0  0
   54.7930   26.3410   45.9940 N   0  0  0  0  0  0  0  0  0  0  0  0
   56.2920   25.5170   46.2520 S   0  0  0  0  0  0  0  0  0  0  0  0
   56.2980   24.8890   47.6210 O   0  0  0  0  0  0  0  0  0  0  0  0
   56.4510   24.4310   45.2200 O   0  0  0  0  0  0  0  0  0  0  0  0
   57.6170   26.6690   46.1260 C   0  0  0  0  0  0  0  0  0  0  0  0
   58.9470   26.2260   46.0900 C   0  0  0  0  0  0  0  0  0  0  0  0
   59.1683   25.1493   46.1327 H   0  0  0  0  0  0  0  0  0  0  0  0
   59.9910   27.1490   46.0000 C   0  0  0  0  0  0  0  0  0  0  0  0
   61.0335   26.7982   45.9857 H   0  0  0  0  0  0  0  0  0  0  0  0
   59.7150   28.5180   45.9280 C   0  0  0  0  0  0  0  0  0  0  0  0
   60.5418   29.2411   45.8688 H   0  0  0  0  0  0  0  0  0  0  0  0
   58.3850   28.9740   45.9310 C   0  0  0  0  0  0  0  0  0  0  0  0
   58.0710   30.3780   45.8890 N   0  0  0  0  0  0  0  0  0  0  0  0
   58.5050   30.9950   46.6130 H   0  0  0  0  0  0  0  0  0  0  0  0
   57.1140   30.9640   44.9880 C   0  0  0  0  0  0  0  0  0  0  0  0
   56.3520   30.2340   44.2980 O   0  0  0  0  0  0  0  0  0  0  0  0
   57.0030   32.4510   44.8680 C   0  0  0  0  0  0  0  0  0  0  0  0
   55.9428   32.7429   44.8942 H   0  0  0  0  0  0  0  0  0  0  0  0
   57.4494   32.7766   43.9168 H   0  0  0  0  0  0  0  0  0  0  0  0
   57.6930   33.0680   45.9530 O   0  0  0  0  0  0  0  0  0  0  0  0
   58.6070   34.1110   45.7680 C   0  0  0  0  0  0  0  0  0  0  0  0
   58.4400   34.9490   44.8400 O   0  0  0  0  0  0  0  0  0  0  0  0
   59.7710   34.2490   46.6570 C   0  0  0  0  0  0  0  0  0  0  0  0
   59.6374   34.7244   47.6399 H   0  0  0  0  0  0  0  0  0  0  0  0
   60.9880   33.8140   46.3070 C   0  0  0  0  0  0  0  0  0  0  0  0
   61.3179   33.9515   45.2667 H   0  0  0  0  0  0  0  0  0  0  0  0
   61.9090   33.1550   47.2630 C   0  0  0  0  0  0  0  0  0  0  0  0
   63.2160   33.6510   47.3570 C   0  0  0  0  0  0  0  0  0  0  0  0
   63.5253   34.4952   46.7233 H   0  0  0  0  0  0  0  0  0  0  0  0
   64.1260   33.0860   48.2440 C   0  0  0  0  0  0  0  0  0  0  0  0
   65.1477   33.4879   48.3121 H   0  0  0  0  0  0  0  0  0  0  0  0
   63.7470   32.0130   49.0460 C   0  0  0  0  0  0  0  0  0  0  0  0
   64.4677   31.5863   49.7592 H   0  0  0  0  0  0  0  0  0  0  0  0
   62.4510   31.4670   48.9550 C   0  0  0  0  0  0  0  0  0  0  0  0
   62.0740   30.3760   49.7560 O   0  0  0  0  0  0  0  0  0  0  0  0
   62.5660   30.1150   51.0670 C   0  0  0  0  0  0  0  0  0  0  0  0
   61.8494   30.4951   51.8100 H   0  0  0  0  0  0  0  0  0  0  0  0
   62.6934   29.0307   51.2017 H   0  0  0  0  0  0  0  0  0  0  0  0
   63.5352   30.6176   51.2017 H   0  0  0  0  0  0  0  0  0  0  0  0
   61.5220   32.0320   48.0370 C   0  0  0  0  0  0  0  0  0  0  0  0
   60.2300   31.5080   47.8290 O   0  0  0  0  0  0  0  0  0  0  0  0
   59.2990   31.1080   48.8270 C   0  0  0  0  0  0  0  0  0  0  0  0
   59.7276   31.2922   49.8232 H   0  0  0  0  0  0  0  0  0  0  0  0
   58.3701   31.6864   48.7149 H   0  0  0  0  0  0  0  0  0  0  0  0
   59.0792   30.0360   48.7149 H   0  0  0  0  0  0  0  0  0  0  0  0
   57.3430   28.0410   46.0460 C   0  0  0  0  0  0  0  0  0  0  0  0
   56.3003   28.3903   46.0736 H   0  0  0  0  0  0  0  0  0  0  0  0
  1  2  1  0
  2  3  1  0
  3  4  2  0
  3  5  2  0
  3  6  1  0
  6  7  2  0
  7  8  1  0
  7  9  1  0
  9 10  1  0
  9 11  2  0
 11 12  1  0
 11 13  1  0
 13 14  1  0
 14 15  1  0
 14 16  1  0
 16 17  2  0
 16 18  1  0
 18 19  1  0
 18 20  1  0
 18 21  1  0
 21 22  1  0
 22 23  2  0
 22 24  1  0
 24 25  1  0
 24 26  2  0
 26 27  1  0
 26 28  1  0
 28 29  2  0
 29 30  1  0
 29 31  1  0
 31 32  1  0
 31 33  2  0
 33 34  1  0
 33 35  1  0
 35 36  1  0
 36 37  1  0
 37 38  1  0
 37 39  1  0
 37 40  1  0
 35 41  2  0
 41 42  1  0
 42 43  1  0
 43 44  1  0
 43 45  1  0
 43 46  1  0
 13 47  2  0
 47 48  1  0
 47  6  1  0
 41 28  1  0
M  CHG  1   2  -1
M  END
>  <UniqueID>  (49) 
46

>  <SMILES>  (49) 
COc1cccc(/C=C/C(=O)OCC(=O)Nc2cccc(S([NH-])(=O)=O)c2)c1OC

>  <Energy>  (49) 
53.99113617252011

>  <Genealogy>  (49) 
COc1cccc(C=CC(=O)OCC(=O)Nc2cccc(S([NH-])(=O)=O)c2)c1OC (protonated)
COc1cccc(/C=C/C(=O)OCC(=O)Nc2cccc(S([NH-])(=O)=O)c2)c1OC (cis-trans isomerization)
COc1cccc(/C=C/C(=O)OCC(=O)Nc2cccc(S([NH-])(=O)=O)c2)c1OC (3D coordinates assigned)
COc1cccc(/C=C/C(=O)OCC(=O)Nc2cccc(S([NH-])(=O)=O)c2)c1OC (optimized conformer: 53.99113617252011 kcal/mol)

>  <smiles>  (49) 
COc1cccc(C=CC(=O)OCC(=O)Nc2cccc(S(N)(=O)=O)c2)c1OC

>  <score_type>  (49) 
oracle

>  <origin>  (49) 
adg

>  <m_score__min__energy>  (49) 
-11.58

>  <m_primary>  (49) 
energy

$$$$
49:0
     RDKit          3D

 21 22  0  0  0  0  0  0  0  0999 V2000
   55.4150   29.1410   44.8640 N   0  0  0  0  0  0  0  0  0  0  0  0
   56.0590   29.7670   43.7580 C   0  0  0  0  0  0  0  0  0  0  0  0
   55.8950   29.3060   42.5970 O   0  0  0  0  0  0  0  0  0  0  0  0
   56.9090   30.9460   43.9760 C   0  0  0  0  0  0  0  0  0  0  0  0
   57.3910   31.7470   42.9410 C   0  0  0  0  0  0  0  0  0  0  0  0
   58.3110   32.9720   43.6300 S   0  0  0  0  0  0  0  0  0  0  0  0
   58.0630   32.4400   45.2120 C   0  0  0  0  0  0  0  0  0  0  0  0
   58.6070   33.0730   46.4350 C   0  0  0  0  0  0  0  0  0  0  0  0
   58.5890   32.3760   47.6570 C   0  0  0  0  0  0  0  0  0  0  0  0
   59.1010   32.9670   48.8170 C   0  0  0  0  0  0  0  0  0  0  0  0
   59.6360   34.2560   48.7700 C   0  0  0  0  0  0  0  0  0  0  0  0
   59.6600   34.9580   47.5620 C   0  0  0  0  0  0  0  0  0  0  0  0
   59.1490   34.3720   46.3990 C   0  0  0  0  0  0  0  0  0  0  0  0
   57.2840   31.3350   45.2260 N   0  0  0  0  0  0  0  0  0  0  0  0
   54.4150   29.3410   45.0870 H   0  0  0  0  0  0  0  0  0  0  0  0
   57.2026   31.6026   41.8669 H   0  0  0  0  0  0  0  0  0  0  0  0
   58.1697   31.3600   47.7006 H   0  0  0  0  0  0  0  0  0  0  0  0
   59.0821   32.4151   49.7683 H   0  0  0  0  0  0  0  0  0  0  0  0
   60.0383   34.7185   49.6834 H   0  0  0  0  0  0  0  0  0  0  0  0
   60.0815   35.9734   47.5255 H   0  0  0  0  0  0  0  0  0  0  0  0
   59.1708   34.9293   45.4509 H   0  0  0  0  0  0  0  0  0  0  0  0
  1  2  1  0
  2  3  2  0
  2  4  1  0
  4  5  2  0
  5  6  1  0
  6  7  1  0
  7  8  1  0
  8  9  2  0
  9 10  1  0
 10 11  2  0
 11 12  1  0
 12 13  2  0
  7 14  2  0
 14  4  1  0
 13  8  1  0
  1 15  1  0
  5 16  1  0
  9 17  1  0
 10 18  1  0
 11 19  1  0
 12 20  1  0
 13 21  1  0
M  CHG  1   1  -1
M  END
>  <UniqueID>  (50) 
47

>  <SMILES>  (50) 
[NH-]C(=O)c1csc(-c2ccccc2)n1

>  <Energy>  (50) 
50.62137850090559

>  <Genealogy>  (50) 
[NH-]C(=O)c1csc(-c2ccccc2)n1 (protonated)
[NH-]C(=O)c1csc(-c2ccccc2)n1 (3D coordinates assigned)
[NH-]C(=O)c1csc(-c2ccccc2)n1 (optimized conformer: 50.62137850090559 kcal/mol)

>  <smiles>  (50) 
NC(=O)c1csc(-c2ccccc2)n1

>  <score_type>  (50) 
oracle

>  <origin>  (50) 
adg

>  <m_score__min__energy>  (50) 
-9.5899999999999999

>  <m_primary>  (50) 
energy

$$$$
50:0
     RDKit          3D

 88 92  0  0  0  0  0  0  0  0999 V2000
   59.1950   34.9940   45.0090 C   0  0  0  0  0  0  0  0  0  0  0  0
   58.3610   33.7940   45.2390 N   0  0  0  0  0  0  0  0  0  0  0  0
   57.4340   33.3870   44.1570 C   0  0  0  0  0  0  0  0  0  0  0  0
   58.0090   32.2520   43.2740 C   0  0  0  0  0  0  0  0  0  0  0  0
   57.4070   30.8980   43.5700 C   0  0  0  0  0  0  0  0  0  0  0  0
   58.2450   30.0350   44.2880 O   0  0  0  0  0  0  0  0  0  0  0  0
   58.8720   29.9600   45.5290 C   0  0  0  0  0  0  0  0  0  0  0  0
   60.2670   29.6870   45.5010 C   0  0  0  0  0  0  0  0  0  0  0  0
   61.0010   29.6280   46.6720 C   0  0  0  0  0  0  0  0  0  0  0  0
   60.3590   29.7890   47.9220 C   0  0  0  0  0  0  0  0  0  0  0  0
   61.1260   29.7430   49.1430 N   0  0  0  0  0  0  0  0  0  0  0  0
   60.6470   29.3110   50.4310 C   0  0  0  0  0  0  0  0  0  0  0  0
   60.1610   28.1550   50.5300 O   0  0  0  0  0  0  0  0  0  0  0  0
   60.9480   30.1270   51.6720 C   0  0  0  0  0  0  0  0  0  0  0  0
   59.7040   30.7530   52.2740 C   0  0  0  0  0  0  0  0  0  0  0  0
   59.8140   31.8970   53.1100 C   0  0  0  0  0  0  0  0  0  0  0  0
   58.6680   32.5850   53.5200 C   0  0  0  0  0  0  0  0  0  0  0  0
   57.4100   32.1480   53.1160 C   0  0  0  0  0  0  0  0  0  0  0  0
   57.2450   30.9920   52.2970 C   0  0  0  0  0  0  0  0  0  0  0  0
   55.9940   30.6230   51.7760 N   0  0  0  0  0  0  0  0  0  0  0  0
   54.8000   30.3020   52.5430 C   0  0  0  0  0  0  0  0  0  0  0  0
   54.6130   30.8970   53.6410 O   0  0  0  0  0  0  0  0  0  0  0  0
   53.8640   29.2000   52.1410 C   0  0  0  0  0  0  0  0  0  0  0  0
   53.9460   27.9870   53.1110 C   0  0  0  0  0  0  0  0  0  0  0  0
   52.8930   28.0420   54.2170 C   0  0  0  0  0  0  0  0  0  0  0  0
   51.5650   28.1330   53.6300 N   0  0  0  0  0  0  0  0  0  0  0  0
   50.6020   27.0540   53.7150 C   0  0  0  0  0  0  0  0  0  0  0  0
   50.5160   26.4510   54.8780 O   0  0  0  0  0  0  0  0  0  0  0  0
   50.0210   26.2840   52.5560 C   0  0  0  0  0  0  0  0  0  0  0  0
   50.5140   26.7290   51.1770 C   0  0  0  0  0  0  0  0  0  0  0  0
   50.8640   25.3570   51.6990 C   0  0  0  0  0  0  0  0  0  0  0  0
   51.3240   29.4000   52.8710 C   0  0  0  0  0  0  0  0  0  0  0  0
   52.4330   29.7160   51.8230 C   0  0  0  0  0  0  0  0  0  0  0  0
   58.4290   30.3400   51.8620 C   0  0  0  0  0  0  0  0  0  0  0  0
   58.9860   30.0870   47.9540 C   0  0  0  0  0  0  0  0  0  0  0  0
   58.2450   30.1510   46.7750 C   0  0  0  0  0  0  0  0  0  0  0  0
   57.9300   33.5030   46.6410 C   0  0  0  0  0  0  0  0  0  0  0  0
   59.0710   33.4330   47.6380 C   0  0  0  0  0  0  0  0  0  0  0  0
   58.8230   33.0880   48.9830 C   0  0  0  0  0  0  0  0  0  0  0  0
   59.8620   33.0540   49.9160 C   0  0  0  0  0  0  0  0  0  0  0  0
   61.1710   33.3090   49.5100 C   0  0  0  0  0  0  0  0  0  0  0  0
   61.4610   33.6010   48.1650 C   0  0  0  0  0  0  0  0  0  0  0  0
   62.7750   33.8430   47.7550 O   0  0  0  0  0  0  0  0  0  0  0  0
   63.7380   32.8060   47.6300 C   0  0  0  0  0  0  0  0  0  0  0  0
   64.8220   33.1030   48.4540 F   0  0  0  0  0  0  0  0  0  0  0  0
   63.1880   31.5780   47.9750 F   0  0  0  0  0  0  0  0  0  0  0  0
   64.1830   32.7760   46.3110 F   0  0  0  0  0  0  0  0  0  0  0  0
   60.4040   33.6680   47.2320 C   0  0  0  0  0  0  0  0  0  0  0  0
   59.4937   35.4238   45.9765 H   0  0  0  0  0  0  0  0  0  0  0  0
   60.0932   34.7127   44.4398 H   0  0  0  0  0  0  0  0  0  0  0  0
   58.6182   35.7378   44.4398 H   0  0  0  0  0  0  0  0  0  0  0  0
   56.4946   33.0384   44.6108 H   0  0  0  0  0  0  0  0  0  0  0  0
   57.2727   34.2622   43.5104 H   0  0  0  0  0  0  0  0  0  0  0  0
   57.8137   32.4975   42.2197 H   0  0  0  0  0  0  0  0  0  0  0  0
   59.0849   32.1839   43.4926 H   0  0  0  0  0  0  0  0  0  0  0  0
   56.4883   31.0508   44.1553 H   0  0  0  0  0  0  0  0  0  0  0  0
   57.2221   30.4180   42.5977 H   0  0  0  0  0  0  0  0  0  0  0  0
   60.7688   29.5207   44.5363 H   0  0  0  0  0  0  0  0  0  0  0  0
   62.0866   29.4555   46.6310 H   0  0  0  0  0  0  0  0  0  0  0  0
   61.4101   29.4691   52.4228 H   0  0  0  0  0  0  0  0  0  0  0  0
   61.6234   30.9439   51.3781 H   0  0  0  0  0  0  0  0  0  0  0  0
   60.8059   32.2430   53.4362 H   0  0  0  0  0  0  0  0  0  0  0  0
   58.7608   33.4729   54.1627 H   0  0  0  0  0  0  0  0  0  0  0  0
   56.5197   32.7088   53.4367 H   0  0  0  0  0  0  0  0  0  0  0  0
   56.0370   30.1600   50.8290 H   0  0  0  0  0  0  0  0  0  0  0  0
   54.2072   28.7978   51.1764 H   0  0  0  0  0  0  0  0  0  0  0  0
   53.7998   27.0632   52.5320 H   0  0  0  0  0  0  0  0  0  0  0  0
   54.9345   28.0140   53.5928 H   0  0  0  0  0  0  0  0  0  0  0  0
   52.9595   27.1311   54.8300 H   0  0  0  0  0  0  0  0  0  0  0  0
   53.0731   28.9263   54.8459 H   0  0  0  0  0  0  0  0  0  0  0  0
   49.0662   26.1398   53.0829 H   0  0  0  0  0  0  0  0  0  0  0  0
   49.8012   26.8362   50.3461 H   0  0  0  0  0  0  0  0  0  0  0  0
   51.0879   27.5861   50.7949 H   0  0  0  0  0  0  0  0  0  0  0  0
   50.4079   24.4651   51.2446 H   0  0  0  0  0  0  0  0  0  0  0  0
   51.8024   24.8035   51.8508 H   0  0  0  0  0  0  0  0  0  0  0  0
   50.3619   29.3132   52.3448 H   0  0  0  0  0  0  0  0  0  0  0  0
   51.3261   30.2214   53.6026 H   0  0  0  0  0  0  0  0  0  0  0  0
   52.1234   29.2705   50.8661 H   0  0  0  0  0  0  0  0  0  0  0  0
   52.5174   30.8127   51.8145 H   0  0  0  0  0  0  0  0  0  0  0  0
   58.3431   29.4821   51.1789 H   0  0  0  0  0  0  0  0  0  0  0  0
   58.4911   30.2716   48.9189 H   0  0  0  0  0  0  0  0  0  0  0  0
   57.1644   30.3519   46.8184 H   0  0  0  0  0  0  0  0  0  0  0  0
   57.2392   34.2967   46.9618 H   0  0  0  0  0  0  0  0  0  0  0  0
   57.4588   32.5091   46.6281 H   0  0  0  0  0  0  0  0  0  0  0  0
   57.7989   32.8427   49.3010 H   0  0  0  0  0  0  0  0  0  0  0  0
   59.6474   32.8261   50.9705 H   0  0  0  0  0  0  0  0  0  0  0  0
   61.9853   33.2816   50.2490 H   0  0  0  0  0  0  0  0  0  0  0  0
   60.6197   33.9052   46.1798 H   0  0  0  0  0  0  0  0  0  0  0  0
  1  2  1  0
  2  3  1  0
  3  4  1  0
  4  5  1  0
  5  6  1  0
  6  7  1  0
  7  8  2  0
  8  9  1  0
  9 10  2  0
 10 11  1  0
 11 12  1  0
 12 13  2  0
 12 14  1  0
 14 15  1  0
 15 16  2  0
 16 17  1  0
 17 18  2  0
 18 19  1  0
 19 20  1  0
 20 21  1  0
 21 22  2  0
 21 23  1  0
 23 24  1  0
 24 25  1  0
 25 26  1  0
 26 27  1  0
 27 28  2  0
 27 29  1  0
 29 30  1  0
 30 31  1  0
 26 32  1  0
 32 33  1  0
 19 34  2  0
 10 35  1  0
 35 36  2  0
  2 37  1  0
 37 38  1  0
 38 39  2  0
 39 40  1  0
 40 41  2  0
 41 42  1  0
 42 43  1  0
 43 44  1  0
 44 45  1  0
 44 46  1  0
 44 47  1  0
 42 48  2  0
 36  7  1  0
 48 38  1  0
 34 15  1  0
 33 23  1  0
 31 29  1  0
  1 49  1  0
  1 50  1  0
  1 51  1  0
  3 52  1  0
  3 53  1  0
  4 54  1  0
  4 55  1  0
  5 56  1  0
  5 57  1  0
  8 58  1  0
  9 59  1  0
 14 60  1  0
 14 61  1  0
 16 62  1  0
 17 63  1  0
 18 64  1  0
 20 65  1  0
 23 66  1  0
 24 67  1  0
 24 68  1  0
 25 69  1  0
 25 70  1  0
 29 71  1  0
 30 72  1  0
 30 73  1  0
 31 74  1  0
 31 75  1  0
 32 76  1  0
 32 77  1  0
 33 78  1  0
 33 79  1  0
 34 80  1  0
 35 81  1  0
 36 82  1  0
 37 83  1  0
 37 84  1  0
 39 85  1  0
 40 86  1  0
 41 87  1  0
 48 88  1  0
M  CHG  1  11  -1
M  END
>  <UniqueID>  (51) 
48

>  <SMILES>  (51) 
CN(CCCOc1ccc([N-]C(=O)Cc2cccc(NC(=O)C3CCN(C(=O)C4CC4)CC3)c2)cc1)Cc1cccc(OC(F)(F)F)c1

>  <Energy>  (51) 
428.9270840546855

>  <Genealogy>  (51) 
CN(CCCOc1ccc([N-]C(=O)Cc2cccc(NC(=O)C3CCN(C(=O)C4CC4)CC3)c2)cc1)Cc1cccc(OC(F)(F)F)c1 (protonated)
CN(CCCOc1ccc([N-]C(=O)Cc2cccc(NC(=O)C3CCN(C(=O)C4CC4)CC3)c2)cc1)Cc1cccc(OC(F)(F)F)c1 (3D coordinates assigned)
CN(CCCOc1ccc([N-]C(=O)Cc2cccc(NC(=O)C3CCN(C(=O)C4CC4)CC3)c2)cc1)Cc1cccc(OC(F)(F)F)c1 (nonaromatic ring conformer: 428.9270840546855 kcal/mol)

>  <smiles>  (51) 
CN(CCCOc1ccc(NC(=O)Cc2cccc(NC(=O)C3CCN(C(=O)C4CC4)CC3)c2)cc1)Cc1cccc(OC(F)(F)F)c1

>  <score_type>  (51) 
oracle

>  <origin>  (51) 
adg

>  <m_score__min__energy>  (51) 
-11.02

>  <m_primary>  (51) 
energy

$$$$
51:0
     RDKit          3D

 39 41  0  0  0  0  0  0  0  0999 V2000
   58.1350   27.2040   43.4430 C   0  0  0  0  0  0  0  0  0  0  0  0
   57.5330   27.6410   44.7760 C   0  0  0  0  0  0  0  0  0  0  0  0
   57.4980   29.1520   44.8830 C   0  0  0  0  0  0  0  0  0  0  0  0
   58.6680   29.9260   45.0940 C   0  0  0  0  0  0  0  0  0  0  0  0
   60.0350   29.3140   45.2670 C   0  0  0  0  0  0  0  0  0  0  0  0
   60.0890   28.4460   46.4850 C   0  0  0  0  0  0  0  0  0  0  0  0
   59.7730   28.8290   47.7670 C   0  0  0  0  0  0  0  0  0  0  0  0
   59.8880   27.7640   48.5790 N   0  0  0  0  0  0  0  0  0  0  0  0
   60.2640   26.7610   47.7580 C   0  0  0  0  0  0  0  0  0  0  0  0
   60.3900   27.1360   46.4670 N   0  0  0  0  0  0  0  0  0  0  0  0
   58.5660   31.2800   45.1640 N   0  0  0  0  0  0  0  0  0  0  0  0
   57.3780   31.9140   45.0090 C   0  0  0  0  0  0  0  0  0  0  0  0
   57.3080   33.7030   45.0660 S   0  0  0  0  0  0  0  0  0  0  0  0
   59.1130   33.9410   44.9220 C   0  0  0  0  0  0  0  0  0  0  0  0
   59.7810   33.9680   46.2700 C   0  0  0  0  0  0  0  0  0  0  0  0
   59.0270   34.2130   47.4310 C   0  0  0  0  0  0  0  0  0  0  0  0
   59.6560   34.2750   48.6780 C   0  0  0  0  0  0  0  0  0  0  0  0
   61.0350   34.0780   48.7790 C   0  0  0  0  0  0  0  0  0  0  0  0
   61.6400   34.1240   49.9920 F   0  0  0  0  0  0  0  0  0  0  0  0
   61.7910   33.8290   47.6300 C   0  0  0  0  0  0  0  0  0  0  0  0
   61.1690   33.7800   46.3790 C   0  0  0  0  0  0  0  0  0  0  0  0
   56.2520   31.1980   44.7770 N   0  0  0  0  0  0  0  0  0  0  0  0
   56.2820   29.8420   44.7160 C   0  0  0  0  0  0  0  0  0  0  0  0
   55.2090   29.2150   44.5060 O   0  0  0  0  0  0  0  0  0  0  0  0
   59.0125   26.5670   43.6282 H   0  0  0  0  0  0  0  0  0  0  0  0
   57.3855   26.6382   42.8701 H   0  0  0  0  0  0  0  0  0  0  0  0
   58.4408   28.0919   42.8701 H   0  0  0  0  0  0  0  0  0  0  0  0
   56.5076   27.2504   44.8536 H   0  0  0  0  0  0  0  0  0  0  0  0
   58.1572   27.2450   45.5906 H   0  0  0  0  0  0  0  0  0  0  0  0
   60.2702   28.7050   44.3817 H   0  0  0  0  0  0  0  0  0  0  0  0
   60.7678   30.1259   45.3850 H   0  0  0  0  0  0  0  0  0  0  0  0
   59.4749   29.8413   48.0774 H   0  0  0  0  0  0  0  0  0  0  0  0
   60.4502   25.7348   48.1076 H   0  0  0  0  0  0  0  0  0  0  0  0
   59.5354   33.1146   44.3315 H   0  0  0  0  0  0  0  0  0  0  0  0
   59.2928   34.9089   44.4312 H   0  0  0  0  0  0  0  0  0  0  0  0
   57.9388   34.3564   47.3580 H   0  0  0  0  0  0  0  0  0  0  0  0
   59.0633   34.4794   49.5819 H   0  0  0  0  0  0  0  0  0  0  0  0
   62.8767   33.6714   47.7102 H   0  0  0  0  0  0  0  0  0  0  0  0
   61.7689   33.5934   45.4761 H   0  0  0  0  0  0  0  0  0  0  0  0
  1  2  1  0
  2  3  1  0
  3  4  2  0
  4  5  1  0
  5  6  1  0
  6  7  2  0
  7  8  1  0
  8  9  1  0
  9 10  2  0
  4 11  1  0
 11 12  1  0
 12 13  1  0
 13 14  1  0
 14 15  1  0
 15 16  2  0
 16 17  1  0
 17 18  2  0
 18 19  1  0
 18 20  1  0
 20 21  2  0
 12 22  2  0
 22 23  1  0
 23 24  2  0
 23  3  1  0
 10  6  1  0
 21 15  1  0
  1 25  1  0
  1 26  1  0
  1 27  1  0
  2 28  1  0
  2 29  1  0
  5 30  1  0
  5 31  1  0
  7 32  1  0
  9 33  1  0
 14 34  1  0
 14 35  1  0
 16 36  1  0
 17 37  1  0
 20 38  1  0
 21 39  1  0
M  CHG  2   8  -1  11  -1
M  END
>  <UniqueID>  (52) 
49

>  <SMILES>  (52) 
CCc1c(Cc2c[n-]cn2)[n-]c(SCc2ccc(F)cc2)nc1=O

>  <Energy>  (52) 
61.28341052522829

>  <Genealogy>  (52) 
CCc1c(Cc2c[n-]cn2)[n-]c(SCc2ccc(F)cc2)nc1=O (protonated)
CCc1c(Cc2c[n-]cn2)[n-]c(SCc2ccc(F)cc2)nc1=O (3D coordinates assigned)
CCc1c(Cc2c[n-]cn2)[n-]c(SCc2ccc(F)cc2)nc1=O (optimized conformer: 61.28341052522829 kcal/mol)

>  <smiles>  (52) 
CCc1c(Cc2c[nH]cn2)[nH]c(SCc2ccc(F)cc2)nc1=O

>  <score_type>  (52) 
oracle

>  <origin>  (52) 
adg

>  <m_score__min__energy>  (52) 
-10.890000000000001

>  <m_primary>  (52) 
energy

$$$$
52:0
     RDKit          3D

 62 66  0  0  0  0  0  0  0  0999 V2000
   54.2320   24.9310   45.5630 C   0  0  0  0  0  0  0  0  0  0  0  0
   54.8410   26.1730   45.8990 O   0  0  0  0  0  0  0  0  0  0  0  0
   56.2100   26.3420   46.1540 C   0  0  0  0  0  0  0  0  0  0  0  0
   56.9900   25.3350   46.7570 C   0  0  0  0  0  0  0  0  0  0  0  0
   58.3510   25.5410   46.9910 C   0  0  0  0  0  0  0  0  0  0  0  0
   58.9500   26.7480   46.6270 C   0  0  0  0  0  0  0  0  0  0  0  0
   58.1860   27.7570   46.0350 C   0  0  0  0  0  0  0  0  0  0  0  0
   56.8180   27.5610   45.8040 C   0  0  0  0  0  0  0  0  0  0  0  0
   56.0420   28.6240   45.2470 N   0  0  0  0  0  0  0  0  0  0  0  0
   56.5600   29.4460   43.8140 S   0  0  0  0  0  0  0  0  0  0  0  0
   55.3510   29.8670   43.0260 O   0  0  0  0  0  0  0  0  0  0  0  0
   57.3910   28.5210   42.9670 O   0  0  0  0  0  0  0  0  0  0  0  0
   57.5080   30.8660   44.2520 C   0  0  0  0  0  0  0  0  0  0  0  0
   57.6870   31.9180   43.3430 C   0  0  0  0  0  0  0  0  0  0  0  0
   58.3370   33.0890   43.7410 C   0  0  0  0  0  0  0  0  0  0  0  0
   58.7990   33.2330   45.0600 C   0  0  0  0  0  0  0  0  0  0  0  0
   59.3960   34.5070   45.5150 C   0  0  0  0  0  0  0  0  0  0  0  0
   59.2460   35.5500   44.8250 O   0  0  0  0  0  0  0  0  0  0  0  0
   60.1230   34.5360   46.7520 N   0  0  0  0  0  0  0  0  0  0  0  0
   61.2790   33.7990   47.1840 C   0  0  0  0  0  0  0  0  0  0  0  0
   62.5030   33.8140   46.4830 C   0  0  0  0  0  0  0  0  0  0  0  0
   63.5870   33.0650   46.9420 C   0  0  0  0  0  0  0  0  0  0  0  0
   63.4720   32.2990   48.1010 C   0  0  0  0  0  0  0  0  0  0  0  0
   62.2730   32.2850   48.8130 C   0  0  0  0  0  0  0  0  0  0  0  0
   61.1750   33.0340   48.3660 C   0  0  0  0  0  0  0  0  0  0  0  0
   59.9530   33.0300   49.1290 N   0  0  0  0  0  0  0  0  0  0  0  0
   59.6390   34.1280   50.0460 C   0  0  0  0  0  0  0  0  0  0  0  0
   59.7410   33.6220   51.4820 C   0  0  0  0  0  0  0  0  0  0  0  0
   59.0430   32.2930   51.6700 C   0  0  0  0  0  0  0  0  0  0  0  0
   58.7230   31.8700   52.9700 C   0  0  0  0  0  0  0  0  0  0  0  0
   58.1360   30.6220   53.1850 C   0  0  0  0  0  0  0  0  0  0  0  0
   57.8740   29.7770   52.1070 C   0  0  0  0  0  0  0  0  0  0  0  0
   58.1990   30.1780   50.8080 C   0  0  0  0  0  0  0  0  0  0  0  0
   58.7970   31.4250   50.5770 C   0  0  0  0  0  0  0  0  0  0  0  0
   59.0840   31.8500   49.1560 C   0  0  0  0  0  0  0  0  0  0  0  0
   58.6370   32.1640   45.9600 C   0  0  0  0  0  0  0  0  0  0  0  0
   58.0050   30.9870   45.5550 C   0  0  0  0  0  0  0  0  0  0  0  0
   53.9674   24.3913   46.4842 H   0  0  0  0  0  0  0  0  0  0  0  0
   53.3226   25.1164   44.9726 H   0  0  0  0  0  0  0  0  0  0  0  0
   54.9354   24.3256   44.9726 H   0  0  0  0  0  0  0  0  0  0  0  0
   56.5239   24.3812   47.0450 H   0  0  0  0  0  0  0  0  0  0  0  0
   58.9525   24.7503   47.4633 H   0  0  0  0  0  0  0  0  0  0  0  0
   60.0239   26.9049   46.8063 H   0  0  0  0  0  0  0  0  0  0  0  0
   58.6598   28.7078   45.7495 H   0  0  0  0  0  0  0  0  0  0  0  0
   57.3144   31.8212   42.3126 H   0  0  0  0  0  0  0  0  0  0  0  0
   58.4880   33.9033   43.0171 H   0  0  0  0  0  0  0  0  0  0  0  0
   62.6034   34.4192   45.5700 H   0  0  0  0  0  0  0  0  0  0  0  0
   64.5365   33.0790   46.3869 H   0  0  0  0  0  0  0  0  0  0  0  0
   64.3278   31.7050   48.4543 H   0  0  0  0  0  0  0  0  0  0  0  0
   62.1881   31.6833   49.7299 H   0  0  0  0  0  0  0  0  0  0  0  0
   60.3527   34.9510   49.8936 H   0  0  0  0  0  0  0  0  0  0  0  0
   58.6195   34.4931   49.8526 H   0  0  0  0  0  0  0  0  0  0  0  0
   60.8034   33.5041   51.7415 H   0  0  0  0  0  0  0  0  0  0  0  0
   59.2488   34.3576   52.1352 H   0  0  0  0  0  0  0  0  0  0  0  0
   58.9366   32.5273   53.8258 H   0  0  0  0  0  0  0  0  0  0  0  0
   57.8796   30.3045   54.2065 H   0  0  0  0  0  0  0  0  0  0  0  0
   57.4112   28.7941   52.2791 H   0  0  0  0  0  0  0  0  0  0  0  0
   57.9840   29.5103   49.9607 H   0  0  0  0  0  0  0  0  0  0  0  0
   59.5814   31.0241   48.6264 H   0  0  0  0  0  0  0  0  0  0  0  0
   58.1324   32.1027   48.6655 H   0  0  0  0  0  0  0  0  0  0  0  0
   59.0110   32.2562   46.9903 H   0  0  0  0  0  0  0  0  0  0  0  0
   57.8972   30.1516   46.2624 H   0  0  0  0  0  0  0  0  0  0  0  0
  1  2  1  0
  2  3  1  0
  3  4  2  0
  4  5  1  0
  5  6  2  0
  6  7  1  0
  7  8  2  0
  8  9  1  0
  9 10  1  0
 10 11  2  0
 10 12  2  0
 10 13  1  0
 13 14  2  0
 14 15  1  0
 15 16  2  0
 16 17  1  0
 17 18  2  0
 17 19  1  0
 19 20  1  0
 20 21  2  0
 21 22  1  0
 22 23  2  0
 23 24  1  0
 24 25  2  0
 25 26  1  0
 26 27  1  0
 27 28  1  0
 28 29  1  0
 29 30  2  0
 30 31  1  0
 31 32  2  0
 32 33  1  0
 33 34  2  0
 34 35  1  0
 16 36  1  0
 36 37  2  0
  8  3  1  0
 37 13  1  0
 25 20  1  0
 35 26  1  0
 34 29  1  0
  1 38  1  0
  1 39  1  0
  1 40  1  0
  4 41  1  0
  5 42  1  0
  6 43  1  0
  7 44  1  0
 14 45  1  0
 15 46  1  0
 21 47  1  0
 22 48  1  0
 23 49  1  0
 24 50  1  0
 27 51  1  0
 27 52  1  0
 28 53  1  0
 28 54  1  0
 30 55  1  0
 31 56  1  0
 32 57  1  0
 33 58  1  0
 35 59  1  0
 35 60  1  0
 36 61  1  0
 37 62  1  0
M  CHG  2   9  -1  19  -1
M  END
>  <UniqueID>  (53) 
50

>  <SMILES>  (53) 
COc1ccccc1[N-]S(=O)(=O)c1ccc(C(=O)[N-]c2ccccc2N2CCc3ccccc3C2)cc1

>  <Energy>  (53) 
87.22043105594396

>  <Genealogy>  (53) 
COc1ccccc1[N-]S(=O)(=O)c1ccc(C(=O)[N-]c2ccccc2N2CCc3ccccc3C2)cc1 (protonated)
COc1ccccc1[N-]S(=O)(=O)c1ccc(C(=O)[N-]c2ccccc2N2CCc3ccccc3C2)cc1 (3D coordinates assigned)
COc1ccccc1[N-]S(=O)(=O)c1ccc(C(=O)[N-]c2ccccc2N2CCc3ccccc3C2)cc1 (nonaromatic ring conformer: 87.22043105594396 kcal/mol)

>  <smiles>  (53) 
COc1ccccc1NS(=O)(=O)c1ccc(C(=O)Nc2ccccc2N2CCc3ccccc3C2)cc1

>  <score_type>  (53) 
oracle

>  <origin>  (53) 
adg

>  <m_score__min__energy>  (53) 
-14.199999999999999

>  <m_primary>  (53) 
energy

$$$$
53:0
     RDKit          3D

 31 33  0  0  0  0  0  0  0  0999 V2000
   64.2410   32.3370   49.5740 C   0  0  0  0  0  0  0  0  0  0  0  0
   63.2850   32.8840   48.5550 C   0  0  0  0  0  0  0  0  0  0  0  0
   63.7610   33.3630   47.3260 C   0  0  0  0  0  0  0  0  0  0  0  0
   62.8680   33.8440   46.3660 C   0  0  0  0  0  0  0  0  0  0  0  0
   61.4950   33.8320   46.6170 C   0  0  0  0  0  0  0  0  0  0  0  0
   60.9990   33.3240   47.8290 C   0  0  0  0  0  0  0  0  0  0  0  0
   59.5150   33.3060   48.0940 C   0  0  0  0  0  0  0  0  0  0  0  0
   58.7910   32.6830   46.9730 N   0  0  0  0  0  0  0  0  0  0  0  0
   57.8020   33.4950   46.2890 C   0  0  0  0  0  0  0  0  0  0  0  0
   57.1480   33.1000   45.2360 N   0  0  0  0  0  0  0  0  0  0  0  0
   57.3540   31.5570   44.4940 S   0  0  0  0  0  0  0  0  0  0  0  0
   57.8600   31.7280   43.0910 O   0  0  0  0  0  0  0  0  0  0  0  0
   56.0490   30.8110   44.4990 O   0  0  0  0  0  0  0  0  0  0  0  0
   58.5230   30.7170   45.4540 C   0  0  0  0  0  0  0  0  0  0  0  0
   58.9490   29.4210   45.2050 C   0  0  0  0  0  0  0  0  0  0  0  0
   60.0740   29.0310   46.3880 S   0  0  0  0  0  0  0  0  0  0  0  0
   60.0230   30.4960   47.2130 C   0  0  0  0  0  0  0  0  0  0  0  0
   59.1090   31.3290   46.5620 C   0  0  0  0  0  0  0  0  0  0  0  0
   61.9030   32.8570   48.7990 C   0  0  0  0  0  0  0  0  0  0  0  0
   63.8633   32.5531   50.5843 H   0  0  0  0  0  0  0  0  0  0  0  0
   64.3342   31.2489   49.4424 H   0  0  0  0  0  0  0  0  0  0  0  0
   65.2263   32.8080   49.4424 H   0  0  0  0  0  0  0  0  0  0  0  0
   64.8410   33.3599   47.1174 H   0  0  0  0  0  0  0  0  0  0  0  0
   63.2476   34.2333   45.4098 H   0  0  0  0  0  0  0  0  0  0  0  0
   60.7975   34.2226   45.8614 H   0  0  0  0  0  0  0  0  0  0  0  0
   59.3196   32.7330   49.0124 H   0  0  0  0  0  0  0  0  0  0  0  0
   59.1645   34.3425   48.2075 H   0  0  0  0  0  0  0  0  0  0  0  0
   57.5935   34.5007   46.6828 H   0  0  0  0  0  0  0  0  0  0  0  0
   58.6123   28.7698   44.3849 H   0  0  0  0  0  0  0  0  0  0  0  0
   60.6072   30.7535   48.1088 H   0  0  0  0  0  0  0  0  0  0  0  0
   61.5247   32.4678   49.7558 H   0  0  0  0  0  0  0  0  0  0  0  0
  1  2  1  0
  2  3  2  0
  3  4  1  0
  4  5  2  0
  5  6  1  0
  6  7  1  0
  7  8  1  0
  8  9  1  0
  9 10  2  0
 10 11  1  0
 11 12  2  0
 11 13  2  0
 11 14  1  0
 14 15  2  0
 15 16  1  0
 16 17  1  0
 17 18  2  0
  6 19  2  0
 19  2  1  0
 18  8  1  0
 18 14  1  0
  1 20  1  0
  1 21  1  0
  1 22  1  0
  3 23  1  0
  4 24  1  0
  5 25  1  0
  7 26  1  0
  7 27  1  0
  9 28  1  0
 15 29  1  0
 17 30  1  0
 19 31  1  0
M  END
>  <UniqueID>  (54) 
51

>  <SMILES>  (54) 
Cc1cccc(CN2C=NS(=O)(=O)c3cscc32)c1

>  <Energy>  (54) 
64.68903015011549

>  <Genealogy>  (54) 
Cc1cccc(CN2C=NS(=O)(=O)c3cscc32)c1 (3D coordinates assigned)
Cc1cccc(CN2C=NS(=O)(=O)c3cscc32)c1 (nonaromatic ring conformer: 64.68903015011549 kcal/mol)

>  <smiles>  (54) 
Cc1cccc(CN2C=NS(=O)(=O)c3cscc32)c1

>  <score_type>  (54) 
oracle

>  <origin>  (54) 
adg

>  <m_score__min__energy>  (54) 
-7.6500000000000004

>  <m_primary>  (54) 
energy

$$$$
54:0
     RDKit          3D

 38 39  0  0  0  0  0  0  0  0999 V2000
   63.0670   33.1820   51.3820 C   0  0  0  0  0  0  0  0  0  0  0  0
   62.4750   34.1610   50.5340 O   0  0  0  0  0  0  0  0  0  0  0  0
   62.2270   33.9790   49.1640 C   0  0  0  0  0  0  0  0  0  0  0  0
   60.9520   34.1760   48.5970 C   0  0  0  0  0  0  0  0  0  0  0  0
   60.7500   33.9990   47.2190 C   0  0  0  0  0  0  0  0  0  0  0  0
   59.4040   34.1920   46.6450 C   0  0  0  0  0  0  0  0  0  0  0  0
   58.4080   34.2140   47.4160 O   0  0  0  0  0  0  0  0  0  0  0  0
   59.1930   34.3930   45.2410 N   0  0  0  0  0  0  0  0  0  0  0  0
   57.9630   34.0710   44.5280 C   0  0  0  0  0  0  0  0  0  0  0  0
   58.1110   32.7380   43.8550 C   0  0  0  0  0  0  0  0  0  0  0  0
   58.4740   32.7180   42.6480 O   0  0  0  0  0  0  0  0  0  0  0  0
   57.8700   31.4530   44.5710 C   0  0  0  0  0  0  0  0  0  0  0  0
   58.8500   30.8750   45.3960 C   0  0  0  0  0  0  0  0  0  0  0  0
   58.6020   29.6680   46.0540 C   0  0  0  0  0  0  0  0  0  0  0  0
   57.3790   29.0030   45.9110 C   0  0  0  0  0  0  0  0  0  0  0  0
   57.2340   27.7940   46.6160 O   0  0  0  0  0  0  0  0  0  0  0  0
   56.5410   26.3370   46.0430 S   0  0  0  0  0  0  0  0  0  0  0  0
   57.0260   26.0470   44.6500 O   0  0  0  0  0  0  0  0  0  0  0  0
   56.8990   25.2000   46.9580 O   0  0  0  0  0  0  0  0  0  0  0  0
   54.8710   26.5080   46.0140 O   0  0  0  0  0  0  0  0  0  0  0  0
   56.3870   29.5780   45.0820 C   0  0  0  0  0  0  0  0  0  0  0  0
   55.1480   28.9810   44.8920 O   0  0  0  0  0  0  0  0  0  0  0  0
   56.6390   30.7890   44.4250 C   0  0  0  0  0  0  0  0  0  0  0  0
   61.8210   33.5900   46.4120 C   0  0  0  0  0  0  0  0  0  0  0  0
   63.0860   33.3900   46.9700 C   0  0  0  0  0  0  0  0  0  0  0  0
   63.2900   33.5850   48.3380 C   0  0  0  0  0  0  0  0  0  0  0  0
   64.5540   33.3800   48.8800 O   0  0  0  0  0  0  0  0  0  0  0  0
   62.8999   33.4584   52.4335 H   0  0  0  0  0  0  0  0  0  0  0  0
   62.6107   32.2010   51.1838 H   0  0  0  0  0  0  0  0  0  0  0  0
   64.1478   33.1304   51.1838 H   0  0  0  0  0  0  0  0  0  0  0  0
   60.1087   34.4707   49.2389 H   0  0  0  0  0  0  0  0  0  0  0  0
   57.1256   34.0315   45.2402 H   0  0  0  0  0  0  0  0  0  0  0  0
   57.7638   34.8443   43.7715 H   0  0  0  0  0  0  0  0  0  0  0  0
   59.8202   31.3771   45.5246 H   0  0  0  0  0  0  0  0  0  0  0  0
   59.3819   29.2325   46.6960 H   0  0  0  0  0  0  0  0  0  0  0  0
   55.8606   31.2283   43.7838 H   0  0  0  0  0  0  0  0  0  0  0  0
   61.6647   33.4260   45.3356 H   0  0  0  0  0  0  0  0  0  0  0  0
   63.9243   33.0779   46.3298 H   0  0  0  0  0  0  0  0  0  0  0  0
  1  2  1  0
  2  3  1  0
  3  4  2  0
  4  5  1  0
  5  6  1  0
  6  7  2  0
  6  8  1  0
  8  9  1  0
  9 10  1  0
 10 11  2  0
 10 12  1  0
 12 13  2  0
 13 14  1  0
 14 15  2  0
 15 16  1  0
 16 17  1  0
 17 18  2  0
 17 19  2  0
 17 20  1  0
 15 21  1  0
 21 22  1  0
 21 23  2  0
  5 24  2  0
 24 25  1  0
 25 26  2  0
 26 27  1  0
 26  3  1  0
 23 12  1  0
  1 28  1  0
  1 29  1  0
  1 30  1  0
  4 31  1  0
  9 32  1  0
  9 33  1  0
 13 34  1  0
 14 35  1  0
 23 36  1  0
 24 37  1  0
 25 38  1  0
M  CHG  4   8  -1  20  -1  22  -1  27  -1
M  END
>  <UniqueID>  (55) 
52

>  <SMILES>  (55) 
COc1cc(C(=O)[N-]CC(=O)c2ccc(OS(=O)(=O)[O-])c([O-])c2)ccc1[O-]

>  <Energy>  (55) 
46.00368789577972

>  <Genealogy>  (55) 
COc1cc(C(=O)[N-]CC(=O)c2ccc(OS(=O)(=O)[O-])c([O-])c2)ccc1[O-] (protonated)
COc1cc(C(=O)[N-]CC(=O)c2ccc(OS(=O)(=O)[O-])c([O-])c2)ccc1[O-] (3D coordinates assigned)
COc1cc(C(=O)[N-]CC(=O)c2ccc(OS(=O)(=O)[O-])c([O-])c2)ccc1[O-] (optimized conformer: 46.00368789577972 kcal/mol)

>  <smiles>  (55) 
COc1cc(C(=O)NCC(=O)c2ccc(OS(=O)(=O)O)c(O)c2)ccc1O

>  <score_type>  (55) 
oracle

>  <origin>  (55) 
adg

>  <m_score__min__energy>  (55) 
-16.109999999999999

>  <m_primary>  (55) 
energy

$$$$
55:0
     RDKit          3D

 40 42  0  0  0  0  0  0  0  0999 V2000
   55.1440   28.0320   44.8840 H   0  0  0  0  0  0  0  0  0  0  0  0
   55.2290   29.0410   44.9090 O   0  0  0  0  0  0  0  0  0  0  0  0
   56.4750   29.6570   44.8180 C   0  0  0  0  0  0  0  0  0  0  0  0
   56.5420   30.9930   44.5790 N   0  0  0  0  0  0  0  0  0  0  0  0
   57.7340   31.6340   44.4920 C   0  0  0  0  0  0  0  0  0  0  0  0
   57.7750   33.3900   44.1380 S   0  0  0  0  0  0  0  0  0  0  0  0
   57.8060   33.9110   45.8920 C   0  0  0  0  0  0  0  0  0  0  0  0
   57.4493   33.0793   46.5173 H   0  0  0  0  0  0  0  0  0  0  0  0
   57.1561   34.7919   45.9998 H   0  0  0  0  0  0  0  0  0  0  0  0
   59.1860   34.2920   46.3320 C   0  0  0  0  0  0  0  0  0  0  0  0
   59.5290   35.5050   46.3110 O   0  0  0  0  0  0  0  0  0  0  0  0
   60.1080   33.2690   46.7380 N   0  0  0  0  0  0  0  0  0  0  0  0
   59.8640   32.2900   47.5610 C   0  0  0  0  0  0  0  0  0  0  0  0
   60.3300   31.0420   47.3440 N   0  0  0  0  0  0  0  0  0  0  0  0
   59.9060   30.1690   48.2980 C   0  0  0  0  0  0  0  0  0  0  0  0
   60.2870   28.7230   48.2620 C   0  0  0  0  0  0  0  0  0  0  0  0
   60.3868   28.3444   49.2900 H   0  0  0  0  0  0  0  0  0  0  0  0
   59.5087   28.1518   47.7348 H   0  0  0  0  0  0  0  0  0  0  0  0
   61.2457   28.6094   47.7348 H   0  0  0  0  0  0  0  0  0  0  0  0
   59.0980   30.7320   49.2890 C   0  0  0  0  0  0  0  0  0  0  0  0
   58.4400   30.0090   50.4200 C   0  0  0  0  0  0  0  0  0  0  0  0
   58.8067   30.4119   51.3756 H   0  0  0  0  0  0  0  0  0  0  0  0
   57.3503   30.1461   50.3583 H   0  0  0  0  0  0  0  0  0  0  0  0
   58.6788   28.9370   50.3583 H   0  0  0  0  0  0  0  0  0  0  0  0
   58.8930   32.3650   48.9410 S   0  0  0  0  0  0  0  0  0  0  0  0
   58.8900   30.9440   44.6550 N   0  0  0  0  0  0  0  0  0  0  0  0
   58.8820   29.6070   44.8960 C   0  0  0  0  0  0  0  0  0  0  0  0
   59.9770   28.9980   45.0220 O   0  0  0  0  0  0  0  0  0  0  0  0
   57.6580   28.9150   44.9820 C   0  0  0  0  0  0  0  0  0  0  0  0
   57.6120   27.4530   45.2290 C   0  0  0  0  0  0  0  0  0  0  0  0
   57.7980   26.5450   44.1720 C   0  0  0  0  0  0  0  0  0  0  0  0
   57.9782   26.9198   43.1537 H   0  0  0  0  0  0  0  0  0  0  0  0
   57.7550   25.1680   44.4090 C   0  0  0  0  0  0  0  0  0  0  0  0
   57.9040   24.4628   43.5780 H   0  0  0  0  0  0  0  0  0  0  0  0
   57.5230   24.6860   45.7000 C   0  0  0  0  0  0  0  0  0  0  0  0
   57.4884   23.6022   45.8846 H   0  0  0  0  0  0  0  0  0  0  0  0
   57.3350   25.5810   46.7560 C   0  0  0  0  0  0  0  0  0  0  0  0
   57.1520   25.2009   47.7719 H   0  0  0  0  0  0  0  0  0  0  0  0
   57.3790   26.9590   46.5240 C   0  0  0  0  0  0  0  0  0  0  0  0
   57.2306   27.6598   47.3588 H   0  0  0  0  0  0  0  0  0  0  0  0
  1  2  1  0
  2  3  1  0
  3  4  1  0
  4  5  1  0
  5  6  1  0
  6  7  1  0
  7  8  1  0
  7  9  1  0
  7 10  1  0
 10 11  2  0
 10 12  1  0
 12 13  2  0
 13 14  1  0
 14 15  1  0
 15 16  1  0
 16 17  1  0
 16 18  1  0
 16 19  1  0
 15 20  2  0
 20 21  1  0
 21 22  1  0
 21 23  1  0
 21 24  1  0
 20 25  1  0
  5 26  2  0
 26 27  1  0
 27 28  2  0
 27 29  1  0
 29 30  1  0
 30 31  2  0
 31 32  1  0
 31 33  1  0
 33 34  1  0
 33 35  2  0
 35 36  1  0
 35 37  1  0
 37 38  1  0
 37 39  2  0
 39 40  1  0
 29  3  2  0
 39 30  1  0
 25 13  1  0
M  CHG  2   4  -1  14  -1
M  END
>  <UniqueID>  (56) 
53

>  <SMILES>  (56) 
Cc1[n-]/c(=N/C(=O)CSc2nc(=O)c(-c3ccccc3)c(O)[n-]2)sc1C

>  <Energy>  (56) 
75.9730816856256

>  <Genealogy>  (56) 
Cc1[n-]c(=NC(=O)CSc2nc(=O)c(-c3ccccc3)c(O)[n-]2)sc1C (protonated)
Cc1[n-]/c(=N/C(=O)CSc2nc(=O)c(-c3ccccc3)c(O)[n-]2)sc1C (cis-trans isomerization)
Cc1[n-]/c(=N/C(=O)CSc2nc(=O)c(-c3ccccc3)c(O)[n-]2)sc1C (3D coordinates assigned)
Cc1[n-]/c(=N/C(=O)CSc2nc(=O)c(-c3ccccc3)c(O)[n-]2)sc1C (optimized conformer: 75.9730816856256 kcal/mol)

>  <smiles>  (56) 
Cc1[nH]c(=NC(=O)CSc2nc(=O)c(-c3ccccc3)c(O)[nH]2)sc1C

>  <score_type>  (56) 
oracle

>  <origin>  (56) 
adg

>  <m_score__min__energy>  (56) 
-12.1

>  <m_primary>  (56) 
energy

$$$$
56:0
     RDKit          3D

 48 50  0  0  0  0  0  0  0  0999 V2000
   57.3490   30.6280   44.2390 C   0  0  0  0  0  0  0  0  0  0  0  0
   57.5110   31.6760   45.2610 N   0  0  0  0  0  0  0  0  0  0  0  0
   57.4980   33.0080   44.6150 C   0  0  0  0  0  0  0  0  0  0  0  0
   57.5880   34.1600   45.6230 C   0  0  0  0  0  0  0  0  0  0  0  0
   58.8710   34.2160   46.4200 C   0  0  0  0  0  0  0  0  0  0  0  0
   59.7720   34.9280   45.9940 O   0  0  0  0  0  0  0  0  0  0  0  0
   59.0990   33.4350   47.6330 N   0  0  2  0  0  0  0  0  0  0  0  0
   60.5280   33.5120   48.0720 C   0  0  1  0  0  0  0  0  0  0  0  0
   60.7270   33.0090   49.5300 C   0  0  0  0  0  0  0  0  0  0  0  0
   62.0460   33.2040   50.0220 O   0  0  0  0  0  0  0  0  0  0  0  0
   63.0800   33.0160   49.0570 C   0  0  1  0  0  0  0  0  0  0  0  0
   64.2980   32.4590   49.7640 C   0  0  0  0  0  0  0  0  0  0  0  0
   65.5470   33.0900   49.6100 C   0  0  0  0  0  0  0  0  0  0  0  0
   66.6740   32.6030   50.2770 C   0  0  0  0  0  0  0  0  0  0  0  0
   66.5670   31.4870   51.1100 C   0  0  0  0  0  0  0  0  0  0  0  0
   67.6620   31.0170   51.7570 F   0  0  0  0  0  0  0  0  0  0  0  0
   65.3320   30.8580   51.2810 C   0  0  0  0  0  0  0  0  0  0  0  0
   64.1980   31.3410   50.6170 C   0  0  0  0  0  0  0  0  0  0  0  0
   63.0080   30.7190   50.8120 F   0  0  0  0  0  0  0  0  0  0  0  0
   62.6790   32.1010   47.8720 C   0  0  2  0  0  0  0  0  0  0  0  0
   63.8060   31.9110   46.9530 N   0  0  0  0  0  0  0  0  0  0  0  0
   61.4560   32.6900   47.1350 C   0  0  0  0  0  0  0  0  0  0  0  0
   58.6110   32.0240   47.5330 C   0  0  0  0  0  0  0  0  0  0  0  0
   58.6970   31.4000   46.1170 C   0  0  0  0  0  0  0  0  0  0  0  0
   57.1987   29.6559   44.7313 H   0  0  0  0  0  0  0  0  0  0  0  0
   56.4760   30.8599   43.6112 H   0  0  0  0  0  0  0  0  0  0  0  0
   58.2512   30.5855   43.6112 H   0  0  0  0  0  0  0  0  0  0  0  0
   58.3553   33.0739   43.9290 H   0  0  0  0  0  0  0  0  0  0  0  0
   56.5402   33.1081   44.0834 H   0  0  0  0  0  0  0  0  0  0  0  0
   57.4891   35.1055   45.0696 H   0  0  0  0  0  0  0  0  0  0  0  0
   56.7816   33.9927   46.3521 H   0  0  0  0  0  0  0  0  0  0  0  0
   58.5290   33.8890   48.3880 H   0  0  0  0  0  0  0  0  0  0  0  0
   60.7984   34.5771   48.0233 H   0  0  0  0  0  0  0  0  0  0  0  0
   60.0279   33.5510   50.1838 H   0  0  0  0  0  0  0  0  0  0  0  0
   60.5399   31.9250   49.5266 H   0  0  0  0  0  0  0  0  0  0  0  0
   63.2928   33.9971   48.6075 H   0  0  0  0  0  0  0  0  0  0  0  0
   65.6363   33.9728   48.9599 H   0  0  0  0  0  0  0  0  0  0  0  0
   67.6469   33.0992   50.1459 H   0  0  0  0  0  0  0  0  0  0  0  0
   65.2499   29.9805   51.9393 H   0  0  0  0  0  0  0  0  0  0  0  0
   62.4029   31.1133   48.2699 H   0  0  0  0  0  0  0  0  0  0  0  0
   64.3300   31.0440   47.2180 H   0  0  0  0  0  0  0  0  0  0  0  0
   64.4620   32.7190   47.0560 H   0  0  0  0  0  0  0  0  0  0  0  0
   61.8142   33.3478   46.3294 H   0  0  0  0  0  0  0  0  0  0  0  0
   60.8682   31.8474   46.7420 H   0  0  0  0  0  0  0  0  0  0  0  0
   59.2126   31.4057   48.2155 H   0  0  0  0  0  0  0  0  0  0  0  0
   57.5426   32.0490   47.7935 H   0  0  0  0  0  0  0  0  0  0  0  0
   59.5880   31.8042   45.6144 H   0  0  0  0  0  0  0  0  0  0  0  0
   58.7452   30.3094   46.2521 H   0  0  0  0  0  0  0  0  0  0  0  0
  1  2  1  0
  2  3  1  0
  3  4  1  0
  4  5  1  0
  5  6  2  0
  5  7  1  0
  7  8  1  0
  8  9  1  0
  9 10  1  0
 10 11  1  0
 11 12  1  0
 12 13  2  0
 13 14  1  0
 14 15  2  0
 15 16  1  0
 15 17  1  0
 17 18  2  0
 18 19  1  0
 11 20  1  0
 20 21  1  0
 20 22  1  0
  7 23  1  0
 23 24  1  0
 24  2  1  0
 22  8  1  0
 18 12  1  0
  1 25  1  0
  1 26  1  0
  1 27  1  0
  3 28  1  0
  3 29  1  0
  4 30  1  0
  4 31  1  0
  7 32  1  1
  8 33  1  1
  9 34  1  0
  9 35  1  0
 11 36  1  6
 13 37  1  0
 14 38  1  0
 17 39  1  0
 20 40  1  1
 21 41  1  0
 21 42  1  0
 22 43  1  0
 22 44  1  0
 23 45  1  0
 23 46  1  0
 24 47  1  0
 24 48  1  0
M  CHG  1   7   1
M  END
>  <UniqueID>  (57) 
54

>  <SMILES>  (57) 
CN1CCC(=O)[N@H+]([C@H]2COC(c3ccc(F)cc3F)C(N)C2)CC1

>  <Energy>  (57) 
83.24424648867118

>  <Genealogy>  (57) 
CN1CCC(=O)[NH+](C2COC(c3ccc(F)cc3F)C(N)C2)CC1 (protonated)
CN1CCC(=O)[N@H+]([C@H]2COC(c3ccc(F)cc3F)C(N)C2)CC1 (chirality)
CN1CCC(=O)[N@H+]([C@H]2COC(c3ccc(F)cc3F)C(N)C2)CC1 (3D coordinates assigned)
CN1CCC(=O)[N@H+]([C@H]2COC(c3ccc(F)cc3F)C(N)C2)CC1 (nonaromatic ring conformer: 83.24424648867118 kcal/mol)

>  <smiles>  (57) 
CN1CCC(=O)N(C2COC(c3ccc(F)cc3F)C(N)C2)CC1

>  <score_type>  (57) 
oracle

>  <origin>  (57) 
adg

>  <m_score__min__energy>  (57) 
-4.4800000000000004

>  <m_primary>  (57) 
energy

$$$$
57:0
     RDKit          3D

 44 45  0  0  0  0  0  0  0  0999 V2000
   62.4140   33.0730   47.1290 C   0  0  0  0  0  0  0  0  0  0  0  0
   61.6100   34.1990   47.4580 O   0  0  0  0  0  0  0  0  0  0  0  0
   60.2210   34.1180   47.6090 C   0  0  0  0  0  0  0  0  0  0  0  0
   59.6700   34.5940   48.6380 O   0  0  0  0  0  0  0  0  0  0  0  0
   59.4330   33.4870   46.5850 N   0  0  0  0  0  0  0  0  0  0  0  0
   58.9840   32.2160   46.6360 C   0  0  0  0  0  0  0  0  0  0  0  0
   58.2560   31.9280   45.4950 C   0  0  0  0  0  0  0  0  0  0  0  0
   57.5530   30.6670   45.1760 C   0  0  0  0  0  0  0  0  0  0  0  0
   56.4290   30.7270   44.6090 O   0  0  0  0  0  0  0  0  0  0  0  0
   58.1190   29.3410   45.5130 C   0  0  0  0  0  0  0  0  0  0  0  0
   59.4920   29.0820   45.3650 C   0  0  0  0  0  0  0  0  0  0  0  0
   60.0060   27.8150   45.6510 C   0  0  0  0  0  0  0  0  0  0  0  0
   59.1580   26.7950   46.0850 C   0  0  0  0  0  0  0  0  0  0  0  0
   57.7880   27.0310   46.2430 C   0  0  0  0  0  0  0  0  0  0  0  0
   56.9740   25.9710   46.6660 O   0  0  0  0  0  0  0  0  0  0  0  0
   55.8010   25.5430   46.0300 C   0  0  0  0  0  0  0  0  0  0  0  0
   54.7810   26.2820   45.9970 O   0  0  0  0  0  0  0  0  0  0  0  0
   55.7240   24.2320   45.4590 N   0  0  0  0  0  0  0  0  0  0  0  0
   56.4960   23.7480   44.3130 C   0  0  0  0  0  0  0  0  0  0  0  0
   55.5870   23.0940   43.2690 C   0  0  0  0  0  0  0  0  0  0  0  0
   57.3480   24.8660   43.7060 C   0  0  0  0  0  0  0  0  0  0  0  0
   57.2680   28.3030   45.9330 C   0  0  0  0  0  0  0  0  0  0  0  0
   58.2460   33.0760   44.7260 C   0  0  0  0  0  0  0  0  0  0  0  0
   58.9850   34.0150   45.4200 C   0  0  0  0  0  0  0  0  0  0  0  0
   59.2320   35.4150   44.9450 C   0  0  0  0  0  0  0  0  0  0  0  0
   62.7607   32.5874   48.0531 H   0  0  0  0  0  0  0  0  0  0  0  0
   61.8206   32.3584   46.5397 H   0  0  0  0  0  0  0  0  0  0  0  0
   63.2825   33.4022   46.5397 H   0  0  0  0  0  0  0  0  0  0  0  0
   59.1690   31.5131   47.4617 H   0  0  0  0  0  0  0  0  0  0  0  0
   60.1657   29.8811   45.0221 H   0  0  0  0  0  0  0  0  0  0  0  0
   61.0823   27.6206   45.5338 H   0  0  0  0  0  0  0  0  0  0  0  0
   59.5695   25.7987   46.3043 H   0  0  0  0  0  0  0  0  0  0  0  0
   57.1871   22.9724   44.6749 H   0  0  0  0  0  0  0  0  0  0  0  0
   54.7952   22.5243   43.7775 H   0  0  0  0  0  0  0  0  0  0  0  0
   55.1318   23.8729   42.6397 H   0  0  0  0  0  0  0  0  0  0  0  0
   56.1809   22.4148   42.6397 H   0  0  0  0  0  0  0  0  0  0  0  0
   57.8012   25.4607   44.5128 H   0  0  0  0  0  0  0  0  0  0  0  0
   58.1418   24.4258   43.0846 H   0  0  0  0  0  0  0  0  0  0  0  0
   56.7131   25.5146   43.0846 H   0  0  0  0  0  0  0  0  0  0  0  0
   56.1868   28.4860   46.0202 H   0  0  0  0  0  0  0  0  0  0  0  0
   57.7487   33.2148   43.7547 H   0  0  0  0  0  0  0  0  0  0  0  0
   59.3495   36.0811   45.8124 H   0  0  0  0  0  0  0  0  0  0  0  0
   60.1484   35.4396   44.3370 H   0  0  0  0  0  0  0  0  0  0  0  0
   58.3794   35.7517   44.3370 H   0  0  0  0  0  0  0  0  0  0  0  0
  1  2  1  0
  2  3  1  0
  3  4  2  0
  3  5  1  0
  5  6  1  0
  6  7  2  0
  7  8  1  0
  8  9  2  0
  8 10  1  0
 10 11  2  0
 11 12  1  0
 12 13  2  0
 13 14  1  0
 14 15  1  0
 15 16  1  0
 16 17  2  0
 16 18  1  0
 18 19  1  0
 19 20  1  0
 19 21  1  0
 14 22  2  0
  7 23  1  0
 23 24  2  0
 24 25  1  0
 24  5  1  0
 22 10  1  0
  1 26  1  0
  1 27  1  0
  1 28  1  0
  6 29  1  0
 11 30  1  0
 12 31  1  0
 13 32  1  0
 19 33  1  0
 20 34  1  0
 20 35  1  0
 20 36  1  0
 21 37  1  0
 21 38  1  0
 21 39  1  0
 22 40  1  0
 23 41  1  0
 25 42  1  0
 25 43  1  0
 25 44  1  0
M  CHG  1  18  -1
M  END
>  <UniqueID>  (58) 
55

>  <SMILES>  (58) 
COC(=O)n1cc(C(=O)c2cccc(OC(=O)[N-]C(C)C)c2)cc1C

>  <Energy>  (58) 
70.91498576911896

>  <Genealogy>  (58) 
COC(=O)n1cc(C(=O)c2cccc(OC(=O)[N-]C(C)C)c2)cc1C (protonated)
COC(=O)n1cc(C(=O)c2cccc(OC(=O)[N-]C(C)C)c2)cc1C (3D coordinates assigned)
COC(=O)n1cc(C(=O)c2cccc(OC(=O)[N-]C(C)C)c2)cc1C (optimized conformer: 70.91498576911896 kcal/mol)

>  <smiles>  (58) 
COC(=O)n1cc(C(=O)c2cccc(OC(=O)NC(C)C)c2)cc1C

>  <score_type>  (58) 
oracle

>  <origin>  (58) 
adg

>  <m_score__min__energy>  (58) 
-9.5399999999999991

>  <m_primary>  (58) 
energy

$$$$
58:0
     RDKit          3D

 41 44  0  0  0  0  0  0  0  0999 V2000
   52.2000   24.4200   45.0560 C   0  0  0  0  0  0  0  0  0  0  0  0
   53.6840   24.4580   45.2020 C   0  0  0  0  0  0  0  0  0  0  0  0
   54.5450   23.4170   44.9210 C   0  0  0  0  0  0  0  0  0  0  0  0
   55.8100   23.8940   45.1970 C   0  0  0  0  0  0  0  0  0  0  0  0
   55.6340   25.1970   45.6280 C   0  0  0  0  0  0  0  0  0  0  0  0
   56.7000   26.1210   46.0410 C   0  0  0  0  0  0  0  0  0  0  0  0
   57.3270   25.9050   47.1140 O   0  0  0  0  0  0  0  0  0  0  0  0
   57.0500   27.2370   45.2060 N   0  0  0  0  0  0  0  0  0  0  0  0
   57.9080   28.3140   45.6190 C   0  0  0  0  0  0  0  0  0  0  0  0
   59.2010   28.0740   46.1150 C   0  0  0  0  0  0  0  0  0  0  0  0
   60.0080   29.1370   46.5320 C   0  0  0  0  0  0  0  0  0  0  0  0
   59.5310   30.4560   46.4740 C   0  0  0  0  0  0  0  0  0  0  0  0
   60.3880   31.5740   46.9160 C   0  0  0  0  0  0  0  0  0  0  0  0
   60.3860   32.8020   46.3630 N   0  0  0  0  0  0  0  0  0  0  0  0
   61.2820   33.5130   47.0290 N   0  0  0  0  0  0  0  0  0  0  0  0
   61.7980   32.6920   47.9650 C   0  0  0  0  0  0  0  0  0  0  0  0
   62.8390   33.0800   48.9370 C   0  0  0  0  0  0  0  0  0  0  0  0
   62.5460   33.9740   49.9820 C   0  0  0  0  0  0  0  0  0  0  0  0
   63.5370   34.3370   50.8990 C   0  0  0  0  0  0  0  0  0  0  0  0
   64.8270   33.8110   50.7810 C   0  0  0  0  0  0  0  0  0  0  0  0
   65.1270   32.9230   49.7450 C   0  0  0  0  0  0  0  0  0  0  0  0
   64.1380   32.5570   48.8270 C   0  0  0  0  0  0  0  0  0  0  0  0
   61.2520   31.5010   47.9000 O   0  0  0  0  0  0  0  0  0  0  0  0
   58.2310   30.6940   46.0000 C   0  0  0  0  0  0  0  0  0  0  0  0
   57.4250   29.6300   45.5840 C   0  0  0  0  0  0  0  0  0  0  0  0
   54.3570   25.5050   45.6210 O   0  0  0  0  0  0  0  0  0  0  0  0
   51.7337   24.4081   46.0522 H   0  0  0  0  0  0  0  0  0  0  0  0
   51.8630   25.3098   44.5041 H   0  0  0  0  0  0  0  0  0  0  0  0
   51.9089   23.5141   44.5041 H   0  0  0  0  0  0  0  0  0  0  0  0
   54.2784   22.4151   44.5534 H   0  0  0  0  0  0  0  0  0  0  0  0
   56.7612   23.3510   45.0954 H   0  0  0  0  0  0  0  0  0  0  0  0
   56.7310   27.2210   44.2110 H   0  0  0  0  0  0  0  0  0  0  0  0
   59.5805   27.0433   46.1755 H   0  0  0  0  0  0  0  0  0  0  0  0
   61.0226   28.9385   46.9077 H   0  0  0  0  0  0  0  0  0  0  0  0
   61.5322   34.3898   50.0785 H   0  0  0  0  0  0  0  0  0  0  0  0
   63.3015   35.0371   51.7141 H   0  0  0  0  0  0  0  0  0  0  0  0
   65.6056   34.0963   51.5037 H   0  0  0  0  0  0  0  0  0  0  0  0
   66.1427   32.5112   49.6514 H   0  0  0  0  0  0  0  0  0  0  0  0
   64.3784   31.8558   48.0143 H   0  0  0  0  0  0  0  0  0  0  0  0
   57.8446   31.7230   45.9557 H   0  0  0  0  0  0  0  0  0  0  0  0
   56.4036   29.8268   45.2263 H   0  0  0  0  0  0  0  0  0  0  0  0
  1  2  1  0
  2  3  2  0
  3  4  1  0
  4  5  2  0
  5  6  1  0
  6  7  2  0
  6  8  1  0
  8  9  1  0
  9 10  2  0
 10 11  1  0
 11 12  2  0
 12 13  1  0
 13 14  2  0
 14 15  1  0
 15 16  2  0
 16 17  1  0
 17 18  2  0
 18 19  1  0
 19 20  2  0
 20 21  1  0
 21 22  2  0
 16 23  1  0
 12 24  1  0
 24 25  2  0
  5 26  1  0
 26  2  1  0
 25  9  1  0
 23 13  1  0
 22 17  1  0
  1 27  1  0
  1 28  1  0
  1 29  1  0
  3 30  1  0
  4 31  1  0
  8 32  1  0
 10 33  1  0
 11 34  1  0
 18 35  1  0
 19 36  1  0
 20 37  1  0
 21 38  1  0
 22 39  1  0
 24 40  1  0
 25 41  1  0
M  END
>  <UniqueID>  (59) 
56

>  <SMILES>  (59) 
Cc1ccc(C(=O)Nc2ccc(-c3nnc(-c4ccccc4)o3)cc2)o1

>  <Energy>  (59) 
107.52451058880524

>  <Genealogy>  (59) 
Cc1ccc(C(=O)Nc2ccc(-c3nnc(-c4ccccc4)o3)cc2)o1 (3D coordinates assigned)
Cc1ccc(C(=O)Nc2ccc(-c3nnc(-c4ccccc4)o3)cc2)o1 (optimized conformer: 107.52451058880524 kcal/mol)

>  <smiles>  (59) 
Cc1ccc(C(=O)Nc2ccc(-c3nnc(-c4ccccc4)o3)cc2)o1

>  <score_type>  (59) 
oracle

>  <origin>  (59) 
adg

>  <m_score__min__energy>  (59) 
-7.4800000000000004

>  <m_primary>  (59) 
energy

$$$$
59:0
     RDKit          3D

 33 34  0  0  0  0  0  0  0  0999 V2000
   55.1540   28.9660   44.8490 O   0  0  0  0  0  0  0  0  0  0  0  0
   56.0770   29.7400   44.4830 C   0  0  0  0  0  0  0  0  0  0  0  0
   55.8880   31.1130   44.5460 O   0  0  0  0  0  0  0  0  0  0  0  0
   57.3550   29.1830   43.9430 C   0  0  0  0  0  0  0  0  0  0  0  0
   58.4710   29.4000   44.9290 C   0  0  0  0  0  0  0  0  0  0  0  0
   59.7530   28.8920   44.6690 C   0  0  0  0  0  0  0  0  0  0  0  0
   60.7810   29.0690   45.5970 C   0  0  0  0  0  0  0  0  0  0  0  0
   60.5360   29.7430   46.7950 C   0  0  0  0  0  0  0  0  0  0  0  0
   59.2600   30.2440   47.0810 C   0  0  0  0  0  0  0  0  0  0  0  0
   59.0640   30.9040   48.3020 O   0  0  0  0  0  0  0  0  0  0  0  0
   59.9990   31.7970   48.8970 C   0  0  0  0  0  0  0  0  0  0  0  0
   59.6530   33.2060   48.5160 C   0  0  0  0  0  0  0  0  0  0  0  0
   59.8920   34.1210   49.3500 O   0  0  0  0  0  0  0  0  0  0  0  0
   59.0320   33.5580   47.2080 C   0  0  0  0  0  0  0  0  0  0  0  0
   57.6440   33.3800   47.0410 C   0  0  0  0  0  0  0  0  0  0  0  0
   57.0220   33.7020   45.8320 C   0  0  0  0  0  0  0  0  0  0  0  0
   57.7750   34.2020   44.7690 C   0  0  0  0  0  0  0  0  0  0  0  0
   59.1520   34.3750   44.9110 C   0  0  0  0  0  0  0  0  0  0  0  0
   59.7860   34.0540   46.1170 C   0  0  0  0  0  0  0  0  0  0  0  0
   61.1320   34.2020   46.1900 F   0  0  0  0  0  0  0  0  0  0  0  0
   58.2250   30.0660   46.1410 C   0  0  0  0  0  0  0  0  0  0  0  0
   57.2341   28.1048   43.7618 H   0  0  0  0  0  0  0  0  0  0  0  0
   57.6017   29.6954   43.0014 H   0  0  0  0  0  0  0  0  0  0  0  0
   59.9487   28.3524   43.7306 H   0  0  0  0  0  0  0  0  0  0  0  0
   61.7863   28.6766   45.3838 H   0  0  0  0  0  0  0  0  0  0  0  0
   61.3517   29.8815   47.5199 H   0  0  0  0  0  0  0  0  0  0  0  0
   59.9610   31.6927   49.9914 H   0  0  0  0  0  0  0  0  0  0  0  0
   61.0125   31.5584   48.5422 H   0  0  0  0  0  0  0  0  0  0  0  0
   57.0431   32.9828   47.8724 H   0  0  0  0  0  0  0  0  0  0  0  0
   55.9370   33.5611   45.7180 H   0  0  0  0  0  0  0  0  0  0  0  0
   57.2831   34.4596   43.8195 H   0  0  0  0  0  0  0  0  0  0  0  0
   59.7433   34.7661   44.0699 H   0  0  0  0  0  0  0  0  0  0  0  0
   57.2178   30.4512   46.3580 H   0  0  0  0  0  0  0  0  0  0  0  0
  1  2  2  0
  2  3  1  0
  2  4  1  0
  4  5  1  0
  5  6  2  0
  6  7  1  0
  7  8  2  0
  8  9  1  0
  9 10  1  0
 10 11  1  0
 11 12  1  0
 12 13  2  0
 12 14  1  0
 14 15  2  0
 15 16  1  0
 16 17  2  0
 17 18  1  0
 18 19  2  0
 19 20  1  0
  9 21  2  0
 21  5  1  0
 19 14  1  0
  4 22  1  0
  4 23  1  0
  6 24  1  0
  7 25  1  0
  8 26  1  0
 11 27  1  0
 11 28  1  0
 15 29  1  0
 16 30  1  0
 17 31  1  0
 18 32  1  0
 21 33  1  0
M  CHG  1   3  -1
M  END
>  <UniqueID>  (60) 
57

>  <SMILES>  (60) 
O=C([O-])Cc1cccc(OCC(=O)c2ccccc2F)c1

>  <Energy>  (60) 
34.44481552299591

>  <Genealogy>  (60) 
O=C([O-])Cc1cccc(OCC(=O)c2ccccc2F)c1 (protonated)
O=C([O-])Cc1cccc(OCC(=O)c2ccccc2F)c1 (3D coordinates assigned)
O=C([O-])Cc1cccc(OCC(=O)c2ccccc2F)c1 (optimized conformer: 34.44481552299591 kcal/mol)

>  <smiles>  (60) 
O=C(O)Cc1cccc(OCC(=O)c2ccccc2F)c1

>  <score_type>  (60) 
oracle

>  <origin>  (60) 
adg

>  <m_score__min__energy>  (60) 
-10.369999999999999

>  <m_primary>  (60) 
energy

$$$$
60:0
     RDKit          3D

 33 34  0  0  0  0  0  0  0  0999 V2000
   57.8790   26.6160   45.5240 C   0  0  0  0  0  0  0  0  0  0  0  0
   56.4530   26.9610   45.7850 C   0  0  0  0  0  0  0  0  0  0  0  0
   55.7150   26.1360   46.3890 O   0  0  0  0  0  0  0  0  0  0  0  0
   55.9120   28.1750   45.2500 N   0  0  0  0  0  0  0  0  0  0  0  0
   56.6350   29.3810   44.9660 C   0  0  0  0  0  0  0  0  0  0  0  0
   57.6020   29.8160   45.8800 C   0  0  0  0  0  0  0  0  0  0  0  0
   58.3170   30.9940   45.6530 C   0  0  0  0  0  0  0  0  0  0  0  0
   58.0620   31.7720   44.5090 C   0  0  0  0  0  0  0  0  0  0  0  0
   58.7730   32.9960   44.2440 N   0  0  0  0  0  0  0  0  0  0  0  0
   58.7940   34.3580   45.3200 S   0  0  0  0  0  0  0  0  0  0  0  0
   59.1840   35.5880   44.5480 O   0  0  0  0  0  0  0  0  0  0  0  0
   57.4200   34.5570   45.8930 O   0  0  0  0  0  0  0  0  0  0  0  0
   59.9220   34.0690   46.6400 C   0  0  0  0  0  0  0  0  0  0  0  0
   59.4760   34.1370   47.9690 C   0  0  0  0  0  0  0  0  0  0  0  0
   60.3660   33.8990   49.0200 C   0  0  0  0  0  0  0  0  0  0  0  0
   61.7030   33.5950   48.7510 C   0  0  0  0  0  0  0  0  0  0  0  0
   62.1530   33.5310   47.4290 C   0  0  0  0  0  0  0  0  0  0  0  0
   61.2650   33.7680   46.3750 C   0  0  0  0  0  0  0  0  0  0  0  0
   57.0790   31.3440   43.6030 C   0  0  0  0  0  0  0  0  0  0  0  0
   56.3660   30.1640   43.8300 C   0  0  0  0  0  0  0  0  0  0  0  0
   58.4064   26.4884   46.4808 H   0  0  0  0  0  0  0  0  0  0  0  0
   57.9304   25.6795   44.9492 H   0  0  0  0  0  0  0  0  0  0  0  0
   58.3528   27.4254   44.9492 H   0  0  0  0  0  0  0  0  0  0  0  0
   57.8006   29.2242   46.7858 H   0  0  0  0  0  0  0  0  0  0  0  0
   59.0841   31.3154   46.3730 H   0  0  0  0  0  0  0  0  0  0  0  0
   59.2590   33.1120   43.3280 H   0  0  0  0  0  0  0  0  0  0  0  0
   58.4244   34.3780   48.1837 H   0  0  0  0  0  0  0  0  0  0  0  0
   60.0134   33.9511   50.0606 H   0  0  0  0  0  0  0  0  0  0  0  0
   62.4015   33.4060   49.5795 H   0  0  0  0  0  0  0  0  0  0  0  0
   63.2062   33.2941   47.2177 H   0  0  0  0  0  0  0  0  0  0  0  0
   61.6214   33.7181   45.3355 H   0  0  0  0  0  0  0  0  0  0  0  0
   56.8679   31.9436   42.7053 H   0  0  0  0  0  0  0  0  0  0  0  0
   55.5910   29.8465   43.1168 H   0  0  0  0  0  0  0  0  0  0  0  0
  1  2  1  0
  2  3  2  0
  2  4  1  0
  4  5  1  0
  5  6  2  0
  6  7  1  0
  7  8  2  0
  8  9  1  0
  9 10  1  0
 10 11  2  0
 10 12  2  0
 10 13  1  0
 13 14  2  0
 14 15  1  0
 15 16  2  0
 16 17  1  0
 17 18  2  0
  8 19  1  0
 19 20  2  0
 20  5  1  0
 18 13  1  0
  1 21  1  0
  1 22  1  0
  1 23  1  0
  6 24  1  0
  7 25  1  0
  9 26  1  0
 14 27  1  0
 15 28  1  0
 16 29  1  0
 17 30  1  0
 18 31  1  0
 19 32  1  0
 20 33  1  0
M  CHG  1   4  -1
M  END
>  <UniqueID>  (61) 
58

>  <SMILES>  (61) 
CC(=O)[N-]c1ccc(NS(=O)(=O)c2ccccc2)cc1

>  <Energy>  (61) 
37.7205066643281

>  <Genealogy>  (61) 
CC(=O)[N-]c1ccc(NS(=O)(=O)c2ccccc2)cc1 (protonated)
CC(=O)[N-]c1ccc(NS(=O)(=O)c2ccccc2)cc1 (3D coordinates assigned)
CC(=O)[N-]c1ccc(NS(=O)(=O)c2ccccc2)cc1 (optimized conformer: 37.7205066643281 kcal/mol)

>  <smiles>  (61) 
CC(=O)Nc1ccc(NS(=O)(=O)c2ccccc2)cc1

>  <score_type>  (61) 
oracle

>  <origin>  (61) 
adg

>  <m_score__min__energy>  (61) 
-9.6500000000000004

>  <m_primary>  (61) 
energy

$$$$
61:0
     RDKit          3D

 45 47  0  0  0  0  0  0  0  0999 V2000
   61.6000   30.0800   49.6370 C   0  0  0  0  0  0  0  0  0  0  0  0
   60.5750   29.0920   49.6080 O   0  0  0  0  0  0  0  0  0  0  0  0
   59.7280   28.8570   48.5130 C   0  0  0  0  0  0  0  0  0  0  0  0
   59.5140   27.5640   47.9990 C   0  0  0  0  0  0  0  0  0  0  0  0
   58.6680   27.3700   46.9060 C   0  0  0  0  0  0  0  0  0  0  0  0
   58.0380   28.4570   46.2970 C   0  0  0  0  0  0  0  0  0  0  0  0
   57.1520   28.2160   45.1940 N   0  0  0  0  0  0  0  0  0  0  0  0
   56.3530   29.1940   44.5140 C   0  0  0  0  0  0  0  0  0  0  0  0
   55.1460   29.3300   44.8490 O   0  0  0  0  0  0  0  0  0  0  0  0
   56.9070   30.0310   43.3920 C   0  0  0  0  0  0  0  0  0  0  0  0
   57.3650   31.3570   43.9080 C   0  0  0  0  0  0  0  0  0  0  0  0
   57.8370   32.3500   43.1280 N   0  0  0  0  0  0  0  0  0  0  0  0
   58.1000   33.3630   43.9380 N   0  0  0  0  0  0  0  0  0  0  0  0
   57.7720   32.9470   45.1760 C   0  0  0  0  0  0  0  0  0  0  0  0
   57.9230   33.9570   46.6460 S   0  0  0  0  0  0  0  0  0  0  0  0
   59.5220   34.6940   46.1550 C   0  0  0  0  0  0  0  0  0  0  0  0
   60.6480   34.1450   46.9900 C   0  0  0  0  0  0  0  0  0  0  0  0
   61.7670   33.5760   46.3600 C   0  0  0  0  0  0  0  0  0  0  0  0
   62.8300   33.0810   47.1200 C   0  0  0  0  0  0  0  0  0  0  0  0
   62.7880   33.1530   48.5160 C   0  0  0  0  0  0  0  0  0  0  0  0
   63.8210   32.6740   49.2510 F   0  0  0  0  0  0  0  0  0  0  0  0
   61.6810   33.7220   49.1520 C   0  0  0  0  0  0  0  0  0  0  0  0
   60.6130   34.2180   48.3960 C   0  0  0  0  0  0  0  0  0  0  0  0
   59.5530   34.7720   49.0380 F   0  0  0  0  0  0  0  0  0  0  0  0
   57.3220   31.7180   45.1670 O   0  0  0  0  0  0  0  0  0  0  0  0
   58.2240   29.7460   46.8230 C   0  0  0  0  0  0  0  0  0  0  0  0
   59.0770   29.9520   47.9240 C   0  0  0  0  0  0  0  0  0  0  0  0
   59.3000   31.2290   48.4660 O   0  0  0  0  0  0  0  0  0  0  0  0
   58.5770   31.7780   49.5630 C   0  0  0  0  0  0  0  0  0  0  0  0
   61.8487   30.3198   50.6813 H   0  0  0  0  0  0  0  0  0  0  0  0
   62.4948   29.6951   49.1260 H   0  0  0  0  0  0  0  0  0  0  0  0
   61.2482   30.9884   49.1260 H   0  0  0  0  0  0  0  0  0  0  0  0
   60.0164   26.7016   48.4615 H   0  0  0  0  0  0  0  0  0  0  0  0
   58.4964   26.3537   46.5217 H   0  0  0  0  0  0  0  0  0  0  0  0
   57.7588   29.5062   42.9348 H   0  0  0  0  0  0  0  0  0  0  0  0
   56.1169   30.1928   42.6439 H   0  0  0  0  0  0  0  0  0  0  0  0
   59.7140   34.4644   45.0965 H   0  0  0  0  0  0  0  0  0  0  0  0
   59.4689   35.7818   46.3098 H   0  0  0  0  0  0  0  0  0  0  0  0
   61.8068   33.5197   45.2622 H   0  0  0  0  0  0  0  0  0  0  0  0
   63.7014   32.6339   46.6193 H   0  0  0  0  0  0  0  0  0  0  0  0
   61.6493   33.7801   50.2500 H   0  0  0  0  0  0  0  0  0  0  0  0
   57.6993   30.6009   46.3714 H   0  0  0  0  0  0  0  0  0  0  0  0
   59.0272   31.4362   50.5067 H   0  0  0  0  0  0  0  0  0  0  0  0
   58.6158   32.8763   49.5149 H   0  0  0  0  0  0  0  0  0  0  0  0
   57.5295   31.4457   49.5149 H   0  0  0  0  0  0  0  0  0  0  0  0
  1  2  1  0
  2  3  1  0
  3  4  2  0
  4  5  1  0
  5  6  2  0
  6  7  1  0
  7  8  1  0
  8  9  2  0
  8 10  1  0
 10 11  1  0
 11 12  2  0
 12 13  1  0
 13 14  2  0
 14 15  1  0
 15 16  1  0
 16 17  1  0
 17 18  2  0
 18 19  1  0
 19 20  2  0
 20 21  1  0
 20 22  1  0
 22 23  2  0
 23 24  1  0
 14 25  1  0
  6 26  1  0
 26 27  2  0
 27 28  1  0
 28 29  1  0
 27  3  1  0
 25 11  1  0
 23 17  1  0
  1 30  1  0
  1 31  1  0
  1 32  1  0
  4 33  1  0
  5 34  1  0
 10 35  1  0
 10 36  1  0
 16 37  1  0
 16 38  1  0
 18 39  1  0
 19 40  1  0
 22 41  1  0
 26 42  1  0
 29 43  1  0
 29 44  1  0
 29 45  1  0
M  CHG  1   7  -1
M  END
>  <UniqueID>  (62) 
59

>  <SMILES>  (62) 
COc1ccc([N-]C(=O)Cc2nnc(SCc3ccc(F)cc3F)o2)cc1OC

>  <Energy>  (62) 
79.74568686479319

>  <Genealogy>  (62) 
COc1ccc([N-]C(=O)Cc2nnc(SCc3ccc(F)cc3F)o2)cc1OC (protonated)
COc1ccc([N-]C(=O)Cc2nnc(SCc3ccc(F)cc3F)o2)cc1OC (3D coordinates assigned)
COc1ccc([N-]C(=O)Cc2nnc(SCc3ccc(F)cc3F)o2)cc1OC (optimized conformer: 79.74568686479319 kcal/mol)

>  <smiles>  (62) 
COc1ccc(NC(=O)Cc2nnc(SCc3ccc(F)cc3F)o2)cc1OC

>  <score_type>  (62) 
oracle

>  <origin>  (62) 
adg

>  <m_score__min__energy>  (62) 
-10.58

>  <m_primary>  (62) 
energy

$$$$
62:0
     RDKit          3D

 59 62  0  0  1  0  0  0  0  0999 V2000
   58.6740   32.9330   49.1420 O   0  0  0  0  0  0  0  0  0  0  0  0
   59.2960   33.9010   48.5880 C   0  0  0  0  0  0  0  0  0  0  0  0
   60.6570   34.2940   48.9650 C   0  0  0  0  0  0  0  0  0  0  0  0
   61.6160   33.3310   48.3180 C   0  0  0  0  0  0  0  0  0  0  0  0
   62.8760   33.8020   47.9200 C   0  0  0  0  0  0  0  0  0  0  0  0
   63.7770   32.9570   47.3300 C   0  0  0  0  0  0  0  0  0  0  0  0
   63.4320   31.6190   47.1270 C   0  0  0  0  0  0  0  0  0  0  0  0
   62.1980   31.1490   47.5130 C   0  0  0  0  0  0  0  0  0  0  0  0
   61.2750   32.0040   48.1150 C   0  0  0  0  0  0  0  0  0  0  0  0
   58.5320   34.5710   47.5540 N   0  0  0  0  0  0  0  0  0  0  0  0
   58.0380   33.8710   46.5920 C   0  0  0  0  0  0  0  0  0  0  0  0
   56.8280   33.4690   46.2680 N   0  0  0  0  0  0  0  0  0  0  0  0
   56.7450   32.7230   45.2060 N   0  0  0  0  0  0  0  0  0  0  0  0
   57.5740   32.3510   44.4940 C   0  0  0  0  0  0  0  0  0  0  0  0
   57.7660   31.4590   43.2310 C   0  0  0  0  0  0  0  0  0  0  0  0
   56.5610   30.5360   43.3730 C   0  0  0  0  0  0  0  0  0  0  0  0
   56.9880   29.1880   44.4200 S   0  0  0  0  0  0  0  0  0  0  0  0
   58.5000   28.3330   44.2620 C   0  0  0  0  0  0  0  0  0  0  0  0
   59.6960   28.8300   45.0150 C   0  0  0  0  0  0  0  0  0  0  0  0
   59.2790   29.4610   46.3150 C   0  0  0  0  0  0  0  0  0  0  0  0
   58.8550   30.2650   46.9830 N   0  0  0  0  0  0  0  0  0  0  0  0
   58.6680   30.4020   48.2530 N   0  0  0  0  0  0  0  0  0  0  0  0
   59.0620   29.3520   48.9790 C   0  0  0  0  0  0  0  0  0  0  0  0
   59.0540   29.0720   50.2160 N   0  0  0  0  0  0  0  0  0  0  0  0
   58.6160   29.8680   51.2830 C   0  0  0  0  0  0  0  0  0  0  0  0
   57.4130   30.3000   51.1860 O   0  0  0  0  0  0  0  0  0  0  0  0
   59.3510   30.2720   52.4790 C   0  0  0  0  0  0  0  0  0  0  0  0
   60.6760   30.8140   51.9980 C   0  0  0  0  0  0  0  0  0  0  0  0
   60.9130   32.1440   51.7840 C   0  0  0  0  0  0  0  0  0  0  0  0
   59.9480   33.0410   52.0050 F   0  0  0  0  0  0  0  0  0  0  0  0
   62.1760   32.5130   51.3330 C   0  0  0  0  0  0  0  0  0  0  0  0
   63.1680   31.5520   51.1090 C   0  0  0  0  0  0  0  0  0  0  0  0
   62.9200   30.2070   51.3290 C   0  0  0  0  0  0  0  0  0  0  0  0
   61.6780   29.8630   51.7700 C   0  0  0  0  0  0  0  0  0  0  0  0
   61.3500   28.1530   52.0540 Cl  0  0  0  0  0  0  0  0  0  0  0  0
   59.7220   28.1590   47.6900 S   0  0  0  0  0  0  0  0  0  0  0  0
   59.1020   33.1080   45.2640 S   0  0  0  0  0  0  0  0  0  0  0  0
   60.8610   35.3163   48.6139 H   0  0  0  0  0  0  0  0  0  0  0  0
   60.7721   34.2706   50.0587 H   0  0  0  0  0  0  0  0  0  0  0  0
   63.1417   34.8569   48.0830 H   0  0  0  0  0  0  0  0  0  0  0  0
   64.7643   33.3287   47.0185 H   0  0  0  0  0  0  0  0  0  0  0  0
   64.1528   30.9354   46.6546 H   0  0  0  0  0  0  0  0  0  0  0  0
   61.9379   30.0933   47.3460 H   0  0  0  0  0  0  0  0  0  0  0  0
   60.2884   31.6290   48.4248 H   0  0  0  0  0  0  0  0  0  0  0  0
   55.9750   33.7440   46.8510 H   0  0  0  0  0  0  0  0  0  0  0  0
   57.7211   32.0491   42.3038 H   0  0  0  0  0  0  0  0  0  0  0  0
   58.7374   30.9465   43.1691 H   0  0  0  0  0  0  0  0  0  0  0  0
   55.7206   31.0926   43.8135 H   0  0  0  0  0  0  0  0  0  0  0  0
   56.2658   30.1573   42.3833 H   0  0  0  0  0  0  0  0  0  0  0  0
   58.3208   27.2978   44.5880 H   0  0  0  0  0  0  0  0  0  0  0  0
   58.7747   28.4744   43.2063 H   0  0  0  0  0  0  0  0  0  0  0  0
   60.3690   27.9851   45.2228 H   0  0  0  0  0  0  0  0  0  0  0  0
   60.2110   29.5855   44.4035 H   0  0  0  0  0  0  0  0  0  0  0  0
   58.2500   31.2440   48.7630 H   0  0  0  0  0  0  0  0  0  0  0  0
   58.7957   31.0504   53.0228 H   0  0  0  0  0  0  0  0  0  0  0  0
   59.4910   29.4258   53.1677 H   0  0  0  0  0  0  0  0  0  0  0  0
   62.3980   33.5747   51.1500 H   0  0  0  0  0  0  0  0  0  0  0  0
   64.1593   31.8692   50.7530 H   0  0  0  0  0  0  0  0  0  0  0  0
   63.6955   29.4467   51.1544 H   0  0  0  0  0  0  0  0  0  0  0  0
  1  2  2  0
  2  3  1  0
  3  4  1  0
  4  5  2  0
  5  6  1  0
  6  7  2  0
  7  8  1  0
  8  9  2  0
  2 10  1  0
 10 11  2  0
 11 12  1  0
 12 13  1  0
 13 14  2  0
 14 15  1  0
 15 16  1  0
 16 17  1  0
 17 18  1  0
 18 19  1  0
 19 20  1  0
 20 21  2  0
 21 22  1  0
 22 23  1  0
 23 24  2  0
 24 25  1  0
 25 26  2  0
 25 27  1  0
 27 28  1  0
 28 29  2  0
 29 30  1  0
 29 31  1  0
 31 32  2  0
 32 33  1  0
 33 34  2  0
 34 35  1  0
 23 36  1  0
 14 37  1  0
  9  4  1  0
 37 11  1  0
 36 20  1  0
 34 28  1  0
  3 38  1  0
  3 39  1  0
  5 40  1  0
  6 41  1  0
  7 42  1  0
  8 43  1  0
  9 44  1  0
 12 45  1  0
 15 46  1  0
 15 47  1  0
 16 48  1  0
 16 49  1  0
 18 50  1  0
 18 51  1  0
 19 52  1  0
 19 53  1  0
 22 54  1  0
 27 55  1  0
 27 56  1  0
 31 57  1  0
 32 58  1  0
 33 59  1  0
M  END
>  <smiles>  (63) 
O=C(Cc1ccccc1)N=c1[nH]nc(CCSCCc2n[nH]c(=NC(=O)Cc3c(F)cccc3Cl)s2)s1

>  <score_type>  (63) 
oracle

>  <origin>  (63) 
adg

>  <m_score__min__energy>  (63) 
-10.48

>  <m_primary>  (63) 
energy

$$$$
63:0
     RDKit          3D

 66 70  0  0  0  0  0  0  0  0999 V2000
   54.7010   27.0910   46.7680 H   0  0  0  0  0  0  0  0  0  0  0  0
   55.1470   26.5540   45.9890 N   0  0  0  0  0  0  0  0  0  0  0  0
   56.8140   27.0110   45.9390 S   0  0  0  0  0  0  0  0  0  0  0  0
   57.3850   26.9960   47.3280 O   0  0  0  0  0  0  0  0  0  0  0  0
   57.5670   26.0140   45.1020 O   0  0  0  0  0  0  0  0  0  0  0  0
   56.9690   28.6290   45.2440 C   0  0  0  0  0  0  0  0  0  0  0  0
   55.8870   29.1850   44.5430 C   0  0  0  0  0  0  0  0  0  0  0  0
   54.9548   28.6117   44.4324 H   0  0  0  0  0  0  0  0  0  0  0  0
   55.9870   30.4620   43.9850 C   0  0  0  0  0  0  0  0  0  0  0  0
   55.1381   30.8864   43.4289 H   0  0  0  0  0  0  0  0  0  0  0  0
   57.1610   31.1990   44.1320 C   0  0  0  0  0  0  0  0  0  0  0  0
   57.2363   32.2053   43.6941 H   0  0  0  0  0  0  0  0  0  0  0  0
   58.2410   30.6620   44.8340 C   0  0  0  0  0  0  0  0  0  0  0  0
   59.1580   31.2559   44.9625 H   0  0  0  0  0  0  0  0  0  0  0  0
   58.1660   29.3660   45.3790 C   0  0  0  0  0  0  0  0  0  0  0  0
   59.2510   28.8230   46.1520 N   0  0  0  0  0  0  0  0  0  0  0  0
   59.8140   29.3680   47.1920 C   0  0  0  0  0  0  0  0  0  0  0  0
   60.8080   30.2850   47.0570 N   0  0  0  0  0  0  0  0  0  0  0  0
   61.4010   30.8270   48.1500 C   0  0  0  0  0  0  0  0  0  0  0  0
   62.3240   31.7300   47.9900 N   0  0  0  0  0  0  0  0  0  0  0  0
   62.9400   32.5190   49.0220 C   0  0  0  0  0  0  0  0  0  0  0  0
   64.0100   31.9770   49.7360 C   0  0  0  0  0  0  0  0  0  0  0  0
   64.3670   30.9647   49.4956 H   0  0  0  0  0  0  0  0  0  0  0  0
   64.6330   32.7060   50.7530 C   0  0  0  0  0  0  0  0  0  0  0  0
   65.4877   32.2675   51.2889 H   0  0  0  0  0  0  0  0  0  0  0  0
   64.1800   34.0000   51.1030 C   0  0  0  0  0  0  0  0  0  0  0  0
   64.8350   34.7750   52.1500 N   0  0  0  0  0  0  0  0  0  0  0  0
   66.2630   35.1120   52.0040 C   0  0  0  0  0  0  0  0  0  0  0  0
   66.8525   34.1864   52.0797 H   0  0  0  0  0  0  0  0  0  0  0  0
   66.3914   35.5972   51.0252 H   0  0  0  0  0  0  0  0  0  0  0  0
   66.7500   36.0900   53.0710 C   0  0  0  0  0  0  0  0  0  0  0  0
   67.8497   36.1137   53.0687 H   0  0  0  0  0  0  0  0  0  0  0  0
   66.3548   37.0924   52.8494 H   0  0  0  0  0  0  0  0  0  0  0  0
   66.2950   35.6840   54.3400 O   0  0  0  0  0  0  0  0  0  0  0  0
   64.9060   35.9050   54.4090 C   0  0  0  0  0  0  0  0  0  0  0  0
   64.5633   35.6986   55.4337 H   0  0  0  0  0  0  0  0  0  0  0  0
   64.7125   36.9513   54.1300 H   0  0  0  0  0  0  0  0  0  0  0  0
   64.1340   35.0010   53.4350 C   0  0  0  0  0  0  0  0  0  0  0  0
   63.9732   34.0264   53.9190 H   0  0  0  0  0  0  0  0  0  0  0  0
   63.1896   35.5138   53.2002 H   0  0  0  0  0  0  0  0  0  0  0  0
   63.0670   34.5190   50.3990 C   0  0  0  0  0  0  0  0  0  0  0  0
   62.6793   35.5151   50.6586 H   0  0  0  0  0  0  0  0  0  0  0  0
   62.4530   33.7870   49.3800 C   0  0  0  0  0  0  0  0  0  0  0  0
   61.5824   34.2063   48.8544 H   0  0  0  0  0  0  0  0  0  0  0  0
   60.9840   30.4530   49.3900 N   0  0  0  0  0  0  0  0  0  0  0  0
   59.9990   29.5330   49.5370 C   0  0  0  0  0  0  0  0  0  0  0  0
   59.6150   29.1960   50.7310 N   0  0  0  0  0  0  0  0  0  0  0  0
   58.6680   29.9640   51.5330 C   0  0  0  0  0  0  0  0  0  0  0  0
   58.4742   29.4354   52.4780 H   0  0  0  0  0  0  0  0  0  0  0  0
   57.7253   30.0791   50.9779 H   0  0  0  0  0  0  0  0  0  0  0  0
   59.2470   31.3220   51.8270 C   0  0  0  0  0  0  0  0  0  0  0  0
   60.1080   31.4940   52.9240 C   0  0  0  0  0  0  0  0  0  0  0  0
   60.3455   30.6373   53.5719 H   0  0  0  0  0  0  0  0  0  0  0  0
   60.6640   32.7450   53.1970 C   0  0  0  0  0  0  0  0  0  0  0  0
   61.3308   32.8730   54.0624 H   0  0  0  0  0  0  0  0  0  0  0  0
   60.3750   33.8320   52.3740 C   0  0  0  0  0  0  0  0  0  0  0  0
   60.8135   34.8170   52.5920 H   0  0  0  0  0  0  0  0  0  0  0  0
   59.5300   33.6740   51.2730 C   0  0  0  0  0  0  0  0  0  0  0  0
   59.3071   34.5361   50.6272 H   0  0  0  0  0  0  0  0  0  0  0  0
   58.9610   32.4170   50.9840 C   0  0  0  0  0  0  0  0  0  0  0  0
   58.1180   32.2230   49.8770 O   0  0  0  0  0  0  0  0  0  0  0  0
   58.5070   32.4110   48.5210 C   0  0  0  0  0  0  0  0  0  0  0  0
   59.4969   32.8894   48.4865 H   0  0  0  0  0  0  0  0  0  0  0  0
   58.5532   31.4358   48.0142 H   0  0  0  0  0  0  0  0  0  0  0  0
   57.7716   33.0531   48.0142 H   0  0  0  0  0  0  0  0  0  0  0  0
   59.4200   28.9870   48.4340 N   0  0  0  0  0  0  0  0  0  0  0  0
  1  2  1  0
  2  3  1  0
  3  4  2  0
  3  5  2  0
  3  6  1  0
  6  7  2  0
  7  8  1  0
  7  9  1  0
  9 10  1  0
  9 11  2  0
 11 12  1  0
 11 13  1  0
 13 14  1  0
 13 15  2  0
 15 16  1  0
 16 17  2  0
 17 18  1  0
 18 19  1  0
 19 20  2  3
 20 21  1  0
 21 22  2  0
 22 23  1  0
 22 24  1  0
 24 25  1  0
 24 26  2  0
 26 27  1  0
 27 28  1  0
 28 29  1  0
 28 30  1  0
 28 31  1  0
 31 32  1  0
 31 33  1  0
 31 34  1  0
 34 35  1  0
 35 36  1  0
 35 37  1  0
 35 38  1  0
 38 39  1  0
 38 40  1  0
 26 41  1  0
 41 42  1  0
 41 43  2  0
 43 44  1  0
 19 45  1  0
 45 46  1  0
 46 47  2  0
 47 48  1  0
 48 49  1  0
 48 50  1  0
 48 51  1  0
 51 52  2  0
 52 53  1  0
 52 54  1  0
 54 55  1  0
 54 56  2  0
 56 57  1  0
 56 58  1  0
 58 59  1  0
 58 60  2  0
 60 61  1  0
 61 62  1  0
 62 63  1  0
 62 64  1  0
 62 65  1  0
 46 66  1  0
 15  6  1  0
 66 17  1  0
 43 21  1  0
 60 51  1  0
 38 27  1  0
M  CHG  4   2  -1  18  -1  45  -1  66  -1
M  END
>  <UniqueID>  (64) 
60

>  <SMILES>  (64) 
COc1ccccc1C/N=c1/[n-]c(=Nc2ccc(N3CCOCC3)cc2)[n-]/c(=N\c2ccccc2S([NH-])(=O)=O)[n-]1

>  <Energy>  (64) 
92.06288898420235

>  <Genealogy>  (64) 
COc1ccccc1CN=c1[n-]c(=Nc2ccc(N3CCOCC3)cc2)[n-]c(=Nc2ccccc2S([NH-])(=O)=O)[n-]1 (protonated)
COc1ccccc1C/N=c1/[n-]c(=Nc2ccc(N3CCOCC3)cc2)[n-]/c(=N\c2ccccc2S([NH-])(=O)=O)[n-]1 (cis-trans isomerization)
COc1ccccc1C/N=c1/[n-]c(=Nc2ccc(N3CCOCC3)cc2)[n-]/c(=N\c2ccccc2S([NH-])(=O)=O)[n-]1 (3D coordinates assigned)
COc1ccccc1C/N=c1/[n-]c(=Nc2ccc(N3CCOCC3)cc2)[n-]/c(=N\c2ccccc2S([NH-])(=O)=O)[n-]1 (nonaromatic ring conformer: 92.06288898420235 kcal/mol)

>  <smiles>  (64) 
COc1ccccc1CN=c1[nH]c(=Nc2ccc(N3CCOCC3)cc2)[nH]c(=Nc2ccccc2S(N)(=O)=O)[nH]1

>  <score_type>  (64) 
oracle

>  <origin>  (64) 
adg

>  <m_score__min__energy>  (64) 
-16.09

>  <m_primary>  (64) 
energy

$$$$
64:0
     RDKit          3D

 46 47  0  0  0  0  0  0  0  0999 V2000
   56.2520   30.9110   44.5020 O   0  0  0  0  0  0  0  0  0  0  0  0
   57.4750   31.1580   44.3270 C   0  0  0  0  0  0  0  0  0  0  0  0
   57.8760   32.4570   43.6860 C   0  0  0  0  0  0  0  0  0  0  0  0
   57.3800   33.6610   44.4990 C   0  0  0  0  0  0  0  0  0  0  0  0
   58.2370   33.9070   45.7160 C   0  0  0  0  0  0  0  0  0  0  0  0
   59.3230   34.7950   45.6470 C   0  0  0  0  0  0  0  0  0  0  0  0
   60.1530   34.9800   46.7580 C   0  0  0  0  0  0  0  0  0  0  0  0
   59.9090   34.2760   47.9400 C   0  0  0  0  0  0  0  0  0  0  0  0
   58.8340   33.3860   48.0140 C   0  0  0  0  0  0  0  0  0  0  0  0
   58.0000   33.2000   46.9070 C   0  0  0  0  0  0  0  0  0  0  0  0
   58.4850   30.2420   44.7810 N   0  0  0  0  0  0  0  0  0  0  0  0
   58.2140   29.0880   45.5980 C   0  0  0  0  0  0  0  0  0  0  0  0
   57.0260   28.7960   45.8960 O   0  0  0  0  0  0  0  0  0  0  0  0
   59.3360   28.2510   46.0890 C   0  0  0  0  0  0  0  0  0  0  0  0
   60.2090   27.8620   45.2700 O   0  0  0  0  0  0  0  0  0  0  0  0
   59.4830   27.8620   47.4630 N   0  0  0  0  0  0  0  0  0  0  0  0
   59.8410   28.7310   48.5780 C   0  0  0  0  0  0  0  0  0  0  0  0
   59.9530   30.1840   48.1040 C   0  0  0  0  0  0  0  0  0  0  0  0
   61.2580   30.4800   47.3450 C   0  0  0  0  0  0  0  0  0  0  0  0
   61.9950   31.6610   47.9230 C   0  0  0  0  0  0  0  0  0  0  0  0
   61.9500   31.9150   49.3040 C   0  0  0  0  0  0  0  0  0  0  0  0
   62.6560   32.9950   49.8450 C   0  0  0  0  0  0  0  0  0  0  0  0
   63.4140   33.8240   49.0130 C   0  0  0  0  0  0  0  0  0  0  0  0
   63.4680   33.5740   47.6390 C   0  0  0  0  0  0  0  0  0  0  0  0
   62.7640   32.4950   47.0940 C   0  0  0  0  0  0  0  0  0  0  0  0
   58.9731   32.4987   43.6183 H   0  0  0  0  0  0  0  0  0  0  0  0
   57.4204   32.5040   42.6859 H   0  0  0  0  0  0  0  0  0  0  0  0
   57.4037   34.5561   43.8601 H   0  0  0  0  0  0  0  0  0  0  0  0
   56.3566   33.4452   44.8396 H   0  0  0  0  0  0  0  0  0  0  0  0
   59.5216   35.3468   44.7164 H   0  0  0  0  0  0  0  0  0  0  0  0
   60.9990   35.6808   46.7009 H   0  0  0  0  0  0  0  0  0  0  0  0
   60.5630   34.4223   48.8123 H   0  0  0  0  0  0  0  0  0  0  0  0
   58.6436   32.8310   48.9444 H   0  0  0  0  0  0  0  0  0  0  0  0
   57.1555   32.4978   46.9688 H   0  0  0  0  0  0  0  0  0  0  0  0
   59.4780   30.4690   44.5510 H   0  0  0  0  0  0  0  0  0  0  0  0
   59.0662   28.6615   49.3557 H   0  0  0  0  0  0  0  0  0  0  0  0
   60.8118   28.4109   48.9842 H   0  0  0  0  0  0  0  0  0  0  0  0
   59.1052   30.3996   47.4371 H   0  0  0  0  0  0  0  0  0  0  0  0
   59.9480   30.8198   49.0016 H   0  0  0  0  0  0  0  0  0  0  0  0
   61.9086   29.5947   47.3995 H   0  0  0  0  0  0  0  0  0  0  0  0
   60.9971   30.7202   46.3037 H   0  0  0  0  0  0  0  0  0  0  0  0
   61.3576   31.2625   49.9623 H   0  0  0  0  0  0  0  0  0  0  0  0
   62.6145   33.1920   50.9264 H   0  0  0  0  0  0  0  0  0  0  0  0
   63.9680   34.6731   49.4397 H   0  0  0  0  0  0  0  0  0  0  0  0
   64.0650   34.2267   46.9851 H   0  0  0  0  0  0  0  0  0  0  0  0
   62.8126   32.2988   46.0127 H   0  0  0  0  0  0  0  0  0  0  0  0
  1  2  2  0
  2  3  1  0
  3  4  1  0
  4  5  1  0
  5  6  2  0
  6  7  1  0
  7  8  2  0
  8  9  1  0
  9 10  2  0
  2 11  1  0
 11 12  1  0
 12 13  2  0
 12 14  1  0
 14 15  2  0
 14 16  1  0
 16 17  1  0
 17 18  1  0
 18 19  1  0
 19 20  1  0
 20 21  2  0
 21 22  1  0
 22 23  2  0
 23 24  1  0
 24 25  2  0
 10  5  1  0
 25 20  1  0
  3 26  1  0
  3 27  1  0
  4 28  1  0
  4 29  1  0
  6 30  1  0
  7 31  1  0
  8 32  1  0
  9 33  1  0
 10 34  1  0
 11 35  1  0
 17 36  1  0
 17 37  1  0
 18 38  1  0
 18 39  1  0
 19 40  1  0
 19 41  1  0
 21 42  1  0
 22 43  1  0
 23 44  1  0
 24 45  1  0
 25 46  1  0
M  CHG  1  16  -1
M  END
>  <UniqueID>  (65) 
61

>  <SMILES>  (65) 
O=C(CCc1ccccc1)NC(=O)C(=O)[N-]CCCc1ccccc1

>  <Energy>  (65) 
36.62305684939181

>  <Genealogy>  (65) 
O=C(CCc1ccccc1)NC(=O)C(=O)[N-]CCCc1ccccc1 (protonated)
O=C(CCc1ccccc1)NC(=O)C(=O)[N-]CCCc1ccccc1 (3D coordinates assigned)
O=C(CCc1ccccc1)NC(=O)C(=O)[N-]CCCc1ccccc1 (optimized conformer: 36.62305684939181 kcal/mol)

>  <smiles>  (65) 
O=C(CCc1ccccc1)NC(=O)C(=O)NCCCc1ccccc1

>  <score_type>  (65) 
oracle

>  <origin>  (65) 
adg

>  <m_score__min__energy>  (65) 
-9.5800000000000001

>  <m_primary>  (65) 
energy

$$$$
65:0
     RDKit          3D

 47 49  0  0  0  0  0  0  0  0999 V2000
   62.7511   34.0582   45.3378 H   0  0  0  0  0  0  0  0  0  0  0  0
   62.9360   33.8000   46.3910 C   0  0  0  0  0  0  0  0  0  0  0  0
   62.0720   34.1350   47.3860 N   0  0  0  0  0  0  0  0  0  0  0  0
   62.5100   33.7120   48.5900 C   0  0  0  0  0  0  0  0  0  0  0  0
   61.8450   33.9270   49.6830 N   0  0  0  0  0  0  0  0  0  0  0  0
   60.2040   33.4260   49.9450 S   0  0  0  0  0  0  0  0  0  0  0  0
   59.2880   34.3180   49.1540 O   0  0  0  0  0  0  0  0  0  0  0  0
   59.8760   33.5570   51.4050 O   0  0  0  0  0  0  0  0  0  0  0  0
   60.0010   31.7440   49.4630 C   0  0  0  0  0  0  0  0  0  0  0  0
   60.5970   31.2660   48.2880 C   0  0  0  0  0  0  0  0  0  0  0  0
   61.1867   31.9463   47.6561 H   0  0  0  0  0  0  0  0  0  0  0  0
   60.4440   29.9270   47.9170 C   0  0  0  0  0  0  0  0  0  0  0  0
   60.9068   29.5603   46.9889 H   0  0  0  0  0  0  0  0  0  0  0  0
   59.7050   29.0500   48.7200 C   0  0  0  0  0  0  0  0  0  0  0  0
   59.5670   27.7160   48.3110 O   0  0  0  0  0  0  0  0  0  0  0  0
   58.9940   27.2920   47.1020 C   0  0  0  0  0  0  0  0  0  0  0  0
   58.9820   25.9400   46.7190 C   0  0  0  0  0  0  0  0  0  0  0  0
   59.4266   25.1794   47.3777 H   0  0  0  0  0  0  0  0  0  0  0  0
   58.4070   25.5590   45.5040 C   0  0  0  0  0  0  0  0  0  0  0  0
   58.3840   24.4975   45.2166 H   0  0  0  0  0  0  0  0  0  0  0  0
   57.8610   26.5240   44.6530 C   0  0  0  0  0  0  0  0  0  0  0  0
   57.3970   26.2184   43.7036 H   0  0  0  0  0  0  0  0  0  0  0  0
   57.9030   27.8850   45.0070 C   0  0  0  0  0  0  0  0  0  0  0  0
   57.3660   28.8900   44.1890 O   0  0  0  0  0  0  0  0  0  0  0  0
   56.3130   29.7460   44.5370 C   0  0  0  0  0  0  0  0  0  0  0  0
   55.1210   29.3370   44.5460 O   0  0  0  0  0  0  0  0  0  0  0  0
   56.5780   31.1180   44.8360 N   0  0  0  0  0  0  0  0  0  0  0  0
   57.8610   31.7620   44.5710 C   0  0  0  0  0  0  0  0  0  0  0  0
   58.1864   31.5066   43.5517 H   0  0  0  0  0  0  0  0  0  0  0  0
   58.5893   31.4035   45.3133 H   0  0  0  0  0  0  0  0  0  0  0  0
   57.7550   33.2850   44.6940 C   0  0  0  0  0  0  0  0  0  0  0  0
   56.8926   33.5339   45.3298 H   0  0  0  0  0  0  0  0  0  0  0  0
   57.6300   33.7068   43.6858 H   0  0  0  0  0  0  0  0  0  0  0  0
   58.9960   33.8710   45.3020 C   0  0  0  0  0  0  0  0  0  0  0  0
   59.8850   34.3660   44.5590 O   0  0  0  0  0  0  0  0  0  0  0  0
   59.1950   33.8350   46.7150 N   0  0  0  0  0  0  0  0  0  0  0  0
   58.4780   33.4110   47.3450 H   0  0  0  0  0  0  0  0  0  0  0  0
   60.0670   34.2290   47.1340 H   0  0  0  0  0  0  0  0  0  0  0  0
   58.4630   28.2550   46.2360 C   0  0  0  0  0  0  0  0  0  0  0  0
   58.4859   29.3162   46.5246 H   0  0  0  0  0  0  0  0  0  0  0  0
   59.0840   29.5380   49.8840 C   0  0  0  0  0  0  0  0  0  0  0  0
   58.4765   28.8637   50.5055 H   0  0  0  0  0  0  0  0  0  0  0  0
   59.2370   30.8780   50.2530 C   0  0  0  0  0  0  0  0  0  0  0  0
   58.7549   31.2528   51.1679 H   0  0  0  0  0  0  0  0  0  0  0  0
   63.9870   32.9070   48.4690 S   0  0  0  0  0  0  0  0  0  0  0  0
   64.0710   33.1070   46.8010 C   0  0  0  0  0  0  0  0  0  0  0  0
   64.8819   32.7519   46.1480 H   0  0  0  0  0  0  0  0  0  0  0  0
  1  2  1  0
  2  3  1  0
  3  4  1  0
  4  5  2  0
  5  6  1  0
  6  7  2  0
  6  8  2  0
  6  9  1  0
  9 10  2  0
 10 11  1  0
 10 12  1  0
 12 13  1  0
 12 14  2  0
 14 15  1  0
 15 16  1  0
 16 17  2  0
 17 18  1  0
 17 19  1  0
 19 20  1  0
 19 21  2  0
 21 22  1  0
 21 23  1  0
 23 24  1  0
 24 25  1  0
 25 26  2  0
 25 27  1  0
 27 28  1  0
 28 29  1  0
 28 30  1  0
 28 31  1  0
 31 32  1  0
 31 33  1  0
 31 34  1  0
 34 35  2  0
 34 36  1  0
 36 37  1  0
 36 38  1  0
 23 39  2  0
 39 40  1  0
 14 41  1  0
 41 42  1  0
 41 43  2  0
 43 44  1  0
  4 45  1  0
 45 46  1  0
 46 47  1  0
 46  2  2  0
 43  9  1  0
 39 16  1  0
M  CHG  2   3  -1  27  -1
M  END
>  <UniqueID>  (66) 
62

>  <SMILES>  (66) 
NC(=O)CC[N-]C(=O)Oc1cccc(Oc2ccc(S(=O)(=O)/N=c3/[n-]ccs3)cc2)c1

>  <Energy>  (66) 
86.44156355015281

>  <Genealogy>  (66) 
NC(=O)CC[N-]C(=O)Oc1cccc(Oc2ccc(S(=O)(=O)N=c3[n-]ccs3)cc2)c1 (protonated)
NC(=O)CC[N-]C(=O)Oc1cccc(Oc2ccc(S(=O)(=O)/N=c3/[n-]ccs3)cc2)c1 (cis-trans isomerization)
NC(=O)CC[N-]C(=O)Oc1cccc(Oc2ccc(S(=O)(=O)/N=c3/[n-]ccs3)cc2)c1 (3D coordinates assigned)
NC(=O)CC[N-]C(=O)Oc1cccc(Oc2ccc(S(=O)(=O)/N=c3/[n-]ccs3)cc2)c1 (optimized conformer: 86.44156355015281 kcal/mol)

>  <smiles>  (66) 
NC(=O)CCNC(=O)Oc1cccc(Oc2ccc(S(=O)(=O)N=c3[nH]ccs3)cc2)c1

>  <score_type>  (66) 
oracle

>  <origin>  (66) 
adg

>  <m_score__min__energy>  (66) 
-10.960000000000001

>  <m_primary>  (66) 
energy

$$$$
66:0
     RDKit          3D

 52 55  0  0  1  0  0  0  0  0999 V2000
   58.0590   20.6190   50.5630 C   0  0  0  0  0  0  0  0  0  0  0  0
   56.9910   21.2620   49.7590 C   0  0  0  0  0  0  0  0  0  0  0  0
   55.6690   21.3270   50.0620 C   0  0  0  0  0  0  0  0  0  0  0  0
   55.0890   22.0250   49.0060 C   0  0  0  0  0  0  0  0  0  0  0  0
   56.0540   22.3570   48.1120 C   0  0  0  0  0  0  0  0  0  0  0  0
   56.0870   23.0620   46.8520 C   0  0  0  0  0  0  0  0  0  0  0  0
   55.8960   24.4230   46.8890 N   0  0  0  0  0  0  0  0  0  0  0  0
   55.8700   25.1910   45.8060 C   0  0  0  0  0  0  0  0  0  0  0  0
   55.6810   26.4550   45.9690 N   0  0  0  0  0  0  0  0  0  0  0  0
   56.8340   27.3160   46.0800 C   0  0  0  0  0  0  0  0  0  0  0  0
   57.7790   27.0980   47.0650 C   0  0  0  0  0  0  0  0  0  0  0  0
   58.8860   27.9240   47.1740 C   0  0  0  0  0  0  0  0  0  0  0  0
   59.0820   28.9800   46.3140 C   0  0  0  0  0  0  0  0  0  0  0  0
   60.2270   29.8780   46.3870 C   0  0  0  0  0  0  0  0  0  0  0  0
   61.2540   29.7120   45.6460 O   0  0  0  0  0  0  0  0  0  0  0  0
   60.2840   30.9840   47.2730 N   0  0  0  0  0  0  0  0  0  0  0  0
   61.4370   31.8360   47.3040 C   0  0  0  0  0  0  0  0  0  0  0  0
   62.6170   31.4250   47.8760 C   0  0  0  0  0  0  0  0  0  0  0  0
   63.7240   32.2440   47.9060 C   0  0  0  0  0  0  0  0  0  0  0  0
   63.6090   33.5100   47.3360 C   0  0  0  0  0  0  0  0  0  0  0  0
   62.4130   33.9320   46.7540 C   0  0  0  0  0  0  0  0  0  0  0  0
   61.3330   33.1040   46.7370 C   0  0  0  0  0  0  0  0  0  0  0  0
   60.0520   33.5480   46.1180 C   0  0  0  0  0  0  0  0  0  0  0  0
   58.1430   29.2050   45.3290 C   0  0  0  0  0  0  0  0  0  0  0  0
   57.0340   28.3760   45.2210 C   0  0  0  0  0  0  0  0  0  0  0  0
   56.0290   24.6860   44.5840 N   0  0  0  0  0  0  0  0  0  0  0  0
   56.2210   23.3570   44.4910 C   0  0  0  0  0  0  0  0  0  0  0  0
   56.2510   22.5300   45.6210 C   0  0  0  0  0  0  0  0  0  0  0  0
   56.4850   21.0980   45.3790 C   0  0  0  0  0  0  0  0  0  0  0  0
   57.7590   20.6710   45.7290 F   0  0  0  0  0  0  0  0  0  0  0  0
   56.5050   20.8820   43.9640 F   0  0  0  0  0  0  0  0  0  0  0  0
   55.4940   20.2670   45.7980 F   0  0  0  0  0  0  0  0  0  0  0  0
   57.1740   21.8600   48.6410 O   0  0  0  0  0  0  0  0  0  0  0  0
   57.8414   20.7500   51.6333 H   0  0  0  0  0  0  0  0  0  0  0  0
   58.1005   19.5456   50.3260 H   0  0  0  0  0  0  0  0  0  0  0  0
   59.0270   21.0846   50.3260 H   0  0  0  0  0  0  0  0  0  0  0  0
   55.1652   20.9169   50.9497 H   0  0  0  0  0  0  0  0  0  0  0  0
   54.0204   22.2681   48.9118 H   0  0  0  0  0  0  0  0  0  0  0  0
   57.6511   26.2618   47.7681 H   0  0  0  0  0  0  0  0  0  0  0  0
   59.6248   27.7312   47.9659 H   0  0  0  0  0  0  0  0  0  0  0  0
   59.4860   31.1910   47.9140 H   0  0  0  0  0  0  0  0  0  0  0  0
   62.6788   30.4203   48.3195 H   0  0  0  0  0  0  0  0  0  0  0  0
   64.6665   31.9099   48.3643 H   0  0  0  0  0  0  0  0  0  0  0  0
   64.4751   34.1880   47.3449 H   0  0  0  0  0  0  0  0  0  0  0  0
   62.3430   34.9352   46.3084 H   0  0  0  0  0  0  0  0  0  0  0  0
   59.3299   33.7983   46.9091 H   0  0  0  0  0  0  0  0  0  0  0  0
   60.2345   34.4353   45.4940 H   0  0  0  0  0  0  0  0  0  0  0  0
   59.6462   32.7381   45.4940 H   0  0  0  0  0  0  0  0  0  0  0  0
   58.2728   30.0425   44.6278 H   0  0  0  0  0  0  0  0  0  0  0  0
   56.2955   28.5701   44.4292 H   0  0  0  0  0  0  0  0  0  0  0  0
   56.0120   25.2760   43.7060 H   0  0  0  0  0  0  0  0  0  0  0  0
   56.3586   22.9065   43.4969 H   0  0  0  0  0  0  0  0  0  0  0  0
  1  2  1  0
  2  3  2  0
  3  4  1  0
  4  5  2  0
  5  6  1  0
  6  7  2  0
  7  8  1  0
  8  9  2  0
  9 10  1  0
 10 11  2  0
 11 12  1  0
 12 13  2  0
 13 14  1  0
 14 15  2  0
 14 16  1  0
 16 17  1  0
 17 18  2  0
 18 19  1  0
 19 20  2  0
 20 21  1  0
 21 22  2  0
 22 23  1  0
 13 24  1  0
 24 25  2  0
  8 26  1  0
 26 27  1  0
 27 28  2  0
 28 29  1  0
 29 30  1  0
 29 31  1  0
 29 32  1  0
  5 33  1  0
 33  2  1  0
 28  6  1  0
 25 10  1  0
 22 17  1  0
  1 34  1  0
  1 35  1  0
  1 36  1  0
  3 37  1  0
  4 38  1  0
 11 39  1  0
 12 40  1  0
 16 41  1  0
 18 42  1  0
 19 43  1  0
 20 44  1  0
 21 45  1  0
 23 46  1  0
 23 47  1  0
 23 48  1  0
 24 49  1  0
 25 50  1  0
 26 51  1  0
 27 52  1  0
M  END
>  <smiles>  (67) 
Cc1ccc(-c2nc(=Nc3ccc(C(=O)Nc4ccccc4C)cc3)[nH]cc2C(F)(F)F)o1

>  <score_type>  (67) 
oracle

>  <origin>  (67) 
adg

>  <m_score__min__energy>  (67) 
-8.2200000000000006

>  <m_primary>  (67) 
energy

$$$$
67:0
     RDKit          3D

 31 34  0  0  0  0  0  0  0  0999 V2000
   56.3580   30.1820   45.1120 O   0  0  0  0  0  0  0  0  0  0  0  0
   57.0680   29.2220   45.5070 C   0  0  0  0  0  0  0  0  0  0  0  0
   56.6340   27.9440   45.3200 N   0  0  0  0  0  0  0  0  0  0  0  0
   57.3370   26.8610   45.7720 C   0  0  0  0  0  0  0  0  0  0  0  0
   56.8290   25.4780   45.5530 C   0  0  0  0  0  0  0  0  0  0  0  0
   57.7390   24.4480   45.2380 C   0  0  0  0  0  0  0  0  0  0  0  0
   57.2950   23.1380   45.0320 C   0  0  0  0  0  0  0  0  0  0  0  0
   58.4470   21.8720   44.6440 Cl  0  0  0  0  0  0  0  0  0  0  0  0
   55.9380   22.8350   45.1360 C   0  0  0  0  0  0  0  0  0  0  0  0
   55.0210   23.8400   45.4430 C   0  0  0  0  0  0  0  0  0  0  0  0
   55.4520   25.1600   45.6500 C   0  0  0  0  0  0  0  0  0  0  0  0
   54.5070   26.1440   45.9420 O   0  0  0  0  0  0  0  0  0  0  0  0
   58.5040   27.0600   46.4520 N   0  0  0  0  0  0  0  0  0  0  0  0
   58.9570   28.3200   46.6420 C   0  0  0  0  0  0  0  0  0  0  0  0
   60.3300   28.7690   47.4850 S   0  0  0  0  0  0  0  0  0  0  0  0
   60.1010   30.4270   47.2530 C   0  0  0  0  0  0  0  0  0  0  0  0
   58.9450   30.6390   46.4940 C   0  0  0  0  0  0  0  0  0  0  0  0
   58.5340   31.9910   46.0770 C   0  0  0  0  0  0  0  0  0  0  0  0
   58.2430   33.0600   46.9180 C   0  0  0  0  0  0  0  0  0  0  0  0
   57.7830   34.1920   46.2360 C   0  0  0  0  0  0  0  0  0  0  0  0
   57.6880   34.0150   44.8620 C   0  0  0  0  0  0  0  0  0  0  0  0
   58.1720   32.4470   44.4990 S   0  0  0  0  0  0  0  0  0  0  0  0
   58.2870   29.4310   46.1680 C   0  0  0  0  0  0  0  0  0  0  0  0
   58.8114   24.6777   45.1532 H   0  0  0  0  0  0  0  0  0  0  0  0
   55.5908   21.8036   44.9760 H   0  0  0  0  0  0  0  0  0  0  0  0
   53.9513   23.5964   45.5236 H   0  0  0  0  0  0  0  0  0  0  0  0
   54.7570   27.1250   45.9940 H   0  0  0  0  0  0  0  0  0  0  0  0
   60.7599   31.2185   47.6395 H   0  0  0  0  0  0  0  0  0  0  0  0
   58.3626   33.0196   48.0107 H   0  0  0  0  0  0  0  0  0  0  0  0
   57.5213   35.1336   46.7409 H   0  0  0  0  0  0  0  0  0  0  0  0
   57.3536   34.7709   44.1362 H   0  0  0  0  0  0  0  0  0  0  0  0
  1  2  2  0
  2  3  1  0
  3  4  1  0
  4  5  1  0
  5  6  2  0
  6  7  1  0
  7  8  1  0
  7  9  2  0
  9 10  1  0
 10 11  2  0
 11 12  1  0
  4 13  2  0
 13 14  1  0
 14 15  1  0
 15 16  1  0
 16 17  2  0
 17 18  1  0
 18 19  2  0
 19 20  1  0
 20 21  2  0
 21 22  1  0
 17 23  1  0
 23  2  1  0
 11  5  1  0
 23 14  2  0
 22 18  1  0
  6 24  1  0
  9 25  1  0
 10 26  1  0
 12 27  1  0
 16 28  1  0
 19 29  1  0
 20 30  1  0
 21 31  1  0
M  CHG  1   3  -1
M  END
>  <UniqueID>  (68) 
63

>  <SMILES>  (68) 
O=c1[n-]c(-c2cc(Cl)ccc2O)nc2scc(-c3cccs3)c12

>  <Energy>  (68) 
105.07248675643056

>  <Genealogy>  (68) 
O=c1[n-]c(-c2cc(Cl)ccc2O)nc2scc(-c3cccs3)c12 (protonated)
O=c1[n-]c(-c2cc(Cl)ccc2O)nc2scc(-c3cccs3)c12 (3D coordinates assigned)
O=c1[n-]c(-c2cc(Cl)ccc2O)nc2scc(-c3cccs3)c12 (optimized conformer: 105.07248675643056 kcal/mol)

>  <smiles>  (68) 
O=c1[nH]c(-c2cc(Cl)ccc2O)nc2scc(-c3cccs3)c12

>  <score_type>  (68) 
oracle

>  <origin>  (68) 
adg

>  <m_score__min__energy>  (68) 
-11.08

>  <m_primary>  (68) 
energy

$$$$
68:0
     RDKit          3D

 46 48  0  0  0  0  0  0  0  0999 V2000
   63.8070   33.4010   47.4960 C   0  0  0  0  0  0  0  0  0  0  0  0
   62.8120   32.4130   48.0230 C   0  0  0  0  0  0  0  0  0  0  0  0
   62.0560   31.6200   47.1440 C   0  0  0  0  0  0  0  0  0  0  0  0
   61.1560   30.6740   47.6440 C   0  0  0  0  0  0  0  0  0  0  0  0
   61.0160   30.4970   49.0280 C   0  0  0  0  0  0  0  0  0  0  0  0
   59.8440   29.3450   49.6620 S   0  0  0  0  0  0  0  0  0  0  0  0
   59.3280   29.8290   50.9880 O   0  0  0  0  0  0  0  0  0  0  0  0
   60.4900   28.0030   49.8670 O   0  0  0  0  0  0  0  0  0  0  0  0
   58.5220   29.1940   48.5580 N   0  0  0  0  0  0  0  0  0  0  0  0
   58.6810   28.4980   47.3200 C   0  0  0  0  0  0  0  0  0  0  0  0
   59.2280   27.2090   47.3360 C   0  0  0  0  0  0  0  0  0  0  0  0
   59.4510   26.5210   46.1420 C   0  0  0  0  0  0  0  0  0  0  0  0
   59.1320   27.1180   44.9230 C   0  0  0  0  0  0  0  0  0  0  0  0
   58.5830   28.4030   44.8930 C   0  0  0  0  0  0  0  0  0  0  0  0
   58.3390   29.1050   46.0890 C   0  0  0  0  0  0  0  0  0  0  0  0
   57.7570   30.4660   46.0200 C   0  0  0  0  0  0  0  0  0  0  0  0
   56.8130   30.7100   45.2210 O   0  0  0  0  0  0  0  0  0  0  0  0
   58.2370   31.4790   46.9150 N   0  0  0  0  0  0  0  0  0  0  0  0
   58.7280   32.7920   46.5930 C   0  0  0  0  0  0  0  0  0  0  0  0
   58.8070   33.2400   45.2600 C   0  0  0  0  0  0  0  0  0  0  0  0
   59.2290   34.5390   44.9710 C   0  0  0  0  0  0  0  0  0  0  0  0
   59.5870   35.4020   46.0040 C   0  0  0  0  0  0  0  0  0  0  0  0
   59.5480   34.9650   47.3290 C   0  0  0  0  0  0  0  0  0  0  0  0
   59.1420   33.6540   47.6370 C   0  0  0  0  0  0  0  0  0  0  0  0
   59.1240   33.2290   49.0580 C   0  0  0  0  0  0  0  0  0  0  0  0
   58.4910   32.0130   49.4610 N   0  0  0  0  0  0  0  0  0  0  0  0
   59.7100   33.9300   49.9240 O   0  0  0  0  0  0  0  0  0  0  0  0
   61.7750   31.2810   49.9060 C   0  0  0  0  0  0  0  0  0  0  0  0
   62.6710   32.2300   49.4070 C   0  0  0  0  0  0  0  0  0  0  0  0
   64.3095   33.8999   48.3378 H   0  0  0  0  0  0  0  0  0  0  0  0
   64.5539   32.8770   46.8816 H   0  0  0  0  0  0  0  0  0  0  0  0
   63.2883   34.1516   46.8816 H   0  0  0  0  0  0  0  0  0  0  0  0
   62.1726   31.7438   46.0572 H   0  0  0  0  0  0  0  0  0  0  0  0
   60.5562   30.0670   46.9499 H   0  0  0  0  0  0  0  0  0  0  0  0
   59.4836   26.7356   48.2955 H   0  0  0  0  0  0  0  0  0  0  0  0
   59.8785   25.5077   46.1628 H   0  0  0  0  0  0  0  0  0  0  0  0
   59.3128   26.5764   43.9828 H   0  0  0  0  0  0  0  0  0  0  0  0
   58.3395   28.8698   43.9272 H   0  0  0  0  0  0  0  0  0  0  0  0
   58.5338   32.5603   44.4394 H   0  0  0  0  0  0  0  0  0  0  0  0
   59.2788   34.8812   43.9268 H   0  0  0  0  0  0  0  0  0  0  0  0
   59.9014   36.4309   45.7749 H   0  0  0  0  0  0  0  0  0  0  0  0
   59.8370   35.6512   48.1387 H   0  0  0  0  0  0  0  0  0  0  0  0
   58.1610   31.3160   48.7590 H   0  0  0  0  0  0  0  0  0  0  0  0
   58.4370   31.7630   50.4740 H   0  0  0  0  0  0  0  0  0  0  0  0
   61.6653   31.1492   50.9925 H   0  0  0  0  0  0  0  0  0  0  0  0
   63.2690   32.8368   50.1028 H   0  0  0  0  0  0  0  0  0  0  0  0
  1  2  1  0
  2  3  2  0
  3  4  1  0
  4  5  2  0
  5  6  1  0
  6  7  2  0
  6  8  2  0
  6  9  1  0
  9 10  1  0
 10 11  2  0
 11 12  1  0
 12 13  2  0
 13 14  1  0
 14 15  2  0
 15 16  1  0
 16 17  2  0
 16 18  1  0
 18 19  1  0
 19 20  2  0
 20 21  1  0
 21 22  2  0
 22 23  1  0
 23 24  2  0
 24 25  1  0
 25 26  1  0
 25 27  2  0
  5 28  1  0
 28 29  2  0
 29  2  1  0
 15 10  1  0
 24 19  1  0
  1 30  1  0
  1 31  1  0
  1 32  1  0
  3 33  1  0
  4 34  1  0
 11 35  1  0
 12 36  1  0
 13 37  1  0
 14 38  1  0
 20 39  1  0
 21 40  1  0
 22 41  1  0
 23 42  1  0
 26 43  1  0
 26 44  1  0
 28 45  1  0
 29 46  1  0
M  CHG  2   9  -1  18  -1
M  END
>  <UniqueID>  (69) 
64

>  <SMILES>  (69) 
Cc1ccc(S(=O)(=O)[N-]c2ccccc2C(=O)[N-]c2ccccc2C(N)=O)cc1

>  <Energy>  (69) 
62.475231558338

>  <Genealogy>  (69) 
Cc1ccc(S(=O)(=O)[N-]c2ccccc2C(=O)[N-]c2ccccc2C(N)=O)cc1 (protonated)
Cc1ccc(S(=O)(=O)[N-]c2ccccc2C(=O)[N-]c2ccccc2C(N)=O)cc1 (3D coordinates assigned)
Cc1ccc(S(=O)(=O)[N-]c2ccccc2C(=O)[N-]c2ccccc2C(N)=O)cc1 (optimized conformer: 62.475231558338 kcal/mol)

>  <smiles>  (69) 
Cc1ccc(S(=O)(=O)Nc2ccccc2C(=O)Nc2ccccc2C(N)=O)cc1

>  <score_type>  (69) 
oracle

>  <origin>  (69) 
adg

>  <m_score__min__energy>  (69) 
-13

>  <m_primary>  (69) 
energy

$$$$
69:0
     RDKit          3D

 45 49  0  0  0  0  0  0  0  0999 V2000
   59.8760   35.8100   46.3460 N   0  0  0  0  0  0  0  0  0  0  0  0
   60.1120   34.1110   46.5580 S   0  0  0  0  0  0  0  0  0  0  0  0
   59.3190   33.3610   45.5250 O   0  0  0  0  0  0  0  0  0  0  0  0
   61.5670   33.7820   46.3790 O   0  0  0  0  0  0  0  0  0  0  0  0
   59.5860   33.6370   48.1690 C   0  0  0  0  0  0  0  0  0  0  0  0
   58.5850   32.6690   48.3310 C   0  0  0  0  0  0  0  0  0  0  0  0
   58.1680   32.2970   49.6140 C   0  0  0  0  0  0  0  0  0  0  0  0
   58.7310   32.8990   50.7450 C   0  0  0  0  0  0  0  0  0  0  0  0
   58.2930   32.4810   52.0480 N   0  0  0  0  0  0  0  0  0  0  0  0
   57.5340   31.4570   52.3080 C   0  0  0  0  0  0  0  0  0  0  0  0
   56.1720   31.5610   52.2610 N   0  0  0  0  0  0  0  0  0  0  0  0
   55.4320   30.4590   52.5160 C   0  0  0  0  0  0  0  0  0  0  0  0
   54.0580   30.3230   52.5870 C   0  0  0  0  0  0  0  0  0  0  0  0
   53.0750   31.2100   52.3620 C   0  0  0  0  0  0  0  0  0  0  0  0
   52.2910   31.3020   51.1160 C   0  0  0  0  0  0  0  0  0  0  0  0
   52.2700   30.3730   50.1440 N   0  0  0  0  0  0  0  0  0  0  0  0
   51.3260   30.8290   49.2930 C   0  0  0  0  0  0  0  0  0  0  0  0
   51.0160   30.2230   48.2350 O   0  0  0  0  0  0  0  0  0  0  0  0
   50.7310   31.9810   49.6720 N   0  0  0  0  0  0  0  0  0  0  0  0
   51.3460   32.2590   50.8330 C   0  0  0  0  0  0  0  0  0  0  0  0
   51.0430   33.3620   51.6220 O   0  0  0  0  0  0  0  0  0  0  0  0
   53.8850   29.0020   53.0000 C   0  0  0  0  0  0  0  0  0  0  0  0
   55.0890   28.3960   53.1440 N   0  0  0  0  0  0  0  0  0  0  0  0
   56.0080   29.3010   52.8460 N   0  0  0  0  0  0  0  0  0  0  0  0
   57.3550   29.1600   52.8890 C   0  0  0  0  0  0  0  0  0  0  0  0
   57.8790   28.0050   53.2000 N   0  0  0  0  0  0  0  0  0  0  0  0
   59.1680   27.6250   53.8090 C   0  0  0  0  0  0  0  0  0  0  0  0
   60.4320   28.0030   53.0530 C   0  0  0  0  0  0  0  0  0  0  0  0
   59.9750   26.5440   53.1080 C   0  0  0  0  0  0  0  0  0  0  0  0
   58.1140   30.2570   52.6050 N   0  0  0  0  0  0  0  0  0  0  0  0
   59.7660   33.8390   50.5800 C   0  0  0  0  0  0  0  0  0  0  0  0
   60.1870   34.2070   49.2990 C   0  0  0  0  0  0  0  0  0  0  0  0
   59.2300   36.1250   47.1050 H   0  0  0  0  0  0  0  0  0  0  0  0
   59.3640   35.9370   45.4440 H   0  0  0  0  0  0  0  0  0  0  0  0
   58.1263   32.2008   47.4476 H   0  0  0  0  0  0  0  0  0  0  0  0
   57.3925   31.5262   49.7343 H   0  0  0  0  0  0  0  0  0  0  0  0
   52.8368   31.9209   53.1669 H   0  0  0  0  0  0  0  0  0  0  0  0
   52.9124   28.5216   53.1824 H   0  0  0  0  0  0  0  0  0  0  0  0
   58.8025   27.7784   54.8351 H   0  0  0  0  0  0  0  0  0  0  0  0
   60.3624   28.5667   52.1110 H   0  0  0  0  0  0  0  0  0  0  0  0
   61.3592   28.5390   53.3042 H   0  0  0  0  0  0  0  0  0  0  0  0
   59.5765   26.0575   52.2055 H   0  0  0  0  0  0  0  0  0  0  0  0
   60.4369   25.5941   53.4152 H   0  0  0  0  0  0  0  0  0  0  0  0
   60.2456   34.2859   51.4633 H   0  0  0  0  0  0  0  0  0  0  0  0
   60.9925   34.9462   49.1777 H   0  0  0  0  0  0  0  0  0  0  0  0
  1  2  1  0
  2  3  2  0
  2  4  2  0
  2  5  1  0
  5  6  2  0
  6  7  1  0
  7  8  2  0
  8  9  1  0
  9 10  2  3
 10 11  1  0
 11 12  2  0
 12 13  1  0
 13 14  2  3
 14 15  1  0
 15 16  1  0
 16 17  1  0
 17 18  2  0
 17 19  1  0
 19 20  1  0
 20 21  1  0
 13 22  1  0
 22 23  2  0
 23 24  1  0
 24 25  1  0
 25 26  2  3
 26 27  1  0
 27 28  1  0
 28 29  1  0
 25 30  1  0
  8 31  1  0
 31 32  2  0
 32  5  1  0
 30 10  1  0
 24 12  1  0
 29 27  1  0
 20 15  2  0
  1 33  1  0
  1 34  1  0
  6 35  1  0
  7 36  1  0
 14 37  1  0
 22 38  1  0
 27 39  1  0
 28 40  1  0
 28 41  1  0
 29 42  1  0
 29 43  1  0
 31 44  1  0
 32 45  1  0
M  CHG  4  16  -1  19  -1  21  -1  30  -1
M  END
>  <UniqueID>  (70) 
65

>  <SMILES>  (70) 
NS(=O)(=O)c1ccc(N=c2nc3c(=Cc4[n-]c(=O)[n-]c4[O-])cnn3c(=NC3CC3)[n-]2)cc1

>  <Energy>  (70) 
400.263475820037

>  <Genealogy>  (70) 
NS(=O)(=O)c1ccc(N=c2nc3c(=Cc4[n-]c(=O)[n-]c4[O-])cnn3c(=NC3CC3)[n-]2)cc1 (protonated)
NS(=O)(=O)c1ccc(N=c2nc3c(=Cc4[n-]c(=O)[n-]c4[O-])cnn3c(=NC3CC3)[n-]2)cc1 (3D coordinates assigned)
NS(=O)(=O)c1ccc(N=c2nc3c(=Cc4[n-]c(=O)[n-]c4[O-])cnn3c(=NC3CC3)[n-]2)cc1 (nonaromatic ring conformer: 400.263475820037 kcal/mol)

>  <smiles>  (70) 
NS(=O)(=O)c1ccc(N=c2nc3c(=Cc4[nH]c(=O)[nH]c4O)cnn3c(=NC3CC3)[nH]2)cc1

>  <score_type>  (70) 
oracle

>  <origin>  (70) 
adg

>  <m_score__min__energy>  (70) 
-18.449999999999999

>  <m_primary>  (70) 
energy

$$$$
70:0
     RDKit          3D

 31 32  0  0  0  0  0  0  0  0999 V2000
   64.1870   33.4360   48.8250 C   0  0  0  0  0  0  0  0  0  0  0  0
   63.1130   33.0250   47.4680 S   0  0  0  0  0  0  0  0  0  0  0  0
   63.0760   34.1780   46.5050 O   0  0  0  0  0  0  0  0  0  0  0  0
   63.6400   31.7970   46.7800 O   0  0  0  0  0  0  0  0  0  0  0  0
   61.5220   32.7200   48.0840 N   0  0  0  0  0  0  0  0  0  0  0  0
   60.3010   33.0610   47.4160 C   0  0  0  0  0  0  0  0  0  0  0  0
   59.3470   33.8180   48.1070 C   0  0  0  0  0  0  0  0  0  0  0  0
   58.1390   34.1660   47.4960 C   0  0  0  0  0  0  0  0  0  0  0  0
   57.8690   33.7570   46.1830 C   0  0  0  0  0  0  0  0  0  0  0  0
   56.6650   34.1050   45.5740 O   0  0  0  0  0  0  0  0  0  0  0  0
   58.8190   32.9960   45.4830 C   0  0  0  0  0  0  0  0  0  0  0  0
   58.4940   32.4480   43.8040 S   0  0  0  0  0  0  0  0  0  0  0  0
   57.6040   30.9910   44.3520 C   0  0  0  0  0  0  0  0  0  0  0  0
   58.2560   30.0140   45.1150 C   0  0  0  0  0  0  0  0  0  0  0  0
   57.5610   28.8760   45.5370 C   0  0  0  0  0  0  0  0  0  0  0  0
   56.2130   28.7120   45.1980 C   0  0  0  0  0  0  0  0  0  0  0  0
   55.5240   27.5800   45.6150 O   0  0  0  0  0  0  0  0  0  0  0  0
   55.5600   29.6900   44.4400 C   0  0  0  0  0  0  0  0  0  0  0  0
   56.2530   30.8290   44.0190 C   0  0  0  0  0  0  0  0  0  0  0  0
   60.0310   32.6560   46.0960 C   0  0  0  0  0  0  0  0  0  0  0  0
   63.6694   33.2379   49.7752 H   0  0  0  0  0  0  0  0  0  0  0  0
   65.0989   32.8233   48.7695 H   0  0  0  0  0  0  0  0  0  0  0  0
   64.4569   34.5009   48.7695 H   0  0  0  0  0  0  0  0  0  0  0  0
   59.5498   34.1413   49.1387 H   0  0  0  0  0  0  0  0  0  0  0  0
   57.3977   34.7629   48.0476 H   0  0  0  0  0  0  0  0  0  0  0  0
   56.5480   34.0650   44.5680 H   0  0  0  0  0  0  0  0  0  0  0  0
   59.3153   30.1418   45.3825 H   0  0  0  0  0  0  0  0  0  0  0  0
   58.0743   28.1092   46.1358 H   0  0  0  0  0  0  0  0  0  0  0  0
   54.5000   29.5626   44.1749 H   0  0  0  0  0  0  0  0  0  0  0  0
   55.7370   31.5984   43.4259 H   0  0  0  0  0  0  0  0  0  0  0  0
   60.7774   32.0681   45.5416 H   0  0  0  0  0  0  0  0  0  0  0  0
  1  2  1  0
  2  3  2  0
  2  4  2  0
  2  5  1  0
  5  6  1  0
  6  7  2  0
  7  8  1  0
  8  9  2  0
  9 10  1  0
  9 11  1  0
 11 12  1  0
 12 13  1  0
 13 14  2  0
 14 15  1  0
 15 16  2  0
 16 17  1  0
 16 18  1  0
 18 19  2  0
 11 20  2  0
 20  6  1  0
 19 13  1  0
  1 21  1  0
  1 22  1  0
  1 23  1  0
  7 24  1  0
  8 25  1  0
 10 26  1  0
 14 27  1  0
 15 28  1  0
 18 29  1  0
 19 30  1  0
 20 31  1  0
M  CHG  2   5  -1  17  -1
M  END
>  <UniqueID>  (71) 
66

>  <SMILES>  (71) 
CS(=O)(=O)[N-]c1ccc(O)c(Sc2ccc([O-])cc2)c1

>  <Energy>  (71) 
25.513052437363257

>  <Genealogy>  (71) 
CS(=O)(=O)[N-]c1ccc(O)c(Sc2ccc([O-])cc2)c1 (protonated)
CS(=O)(=O)[N-]c1ccc(O)c(Sc2ccc([O-])cc2)c1 (3D coordinates assigned)
CS(=O)(=O)[N-]c1ccc(O)c(Sc2ccc([O-])cc2)c1 (optimized conformer: 25.513052437363257 kcal/mol)

>  <smiles>  (71) 
CS(=O)(=O)Nc1ccc(O)c(Sc2ccc(O)cc2)c1

>  <score_type>  (71) 
oracle

>  <origin>  (71) 
adg

>  <m_score__min__energy>  (71) 
-10.52

>  <m_primary>  (71) 
energy

$$$$
71:0
     RDKit          3D

 39 42  0  0  1  0  0  0  0  0999 V2000
   55.3500   29.0910   44.8630 O   0  0  0  0  0  0  0  0  0  0  0  0
   56.1920   30.0280   44.3020 C   0  0  0  0  0  0  0  0  0  0  0  0
   56.1730   30.1500   42.9250 C   0  0  0  0  0  0  0  0  0  0  0  0
   57.0030   31.0760   42.3640 C   0  0  0  0  0  0  0  0  0  0  0  0
   57.8430   31.8750   43.1460 C   0  0  0  0  0  0  0  0  0  0  0  0
   57.8740   31.7660   44.5250 C   0  0  0  0  0  0  0  0  0  0  0  0
   58.7510   32.5990   45.3260 C   0  0  0  0  0  0  0  0  0  0  0  0
   58.5460   33.9610   45.4240 C   0  0  0  0  0  0  0  0  0  0  0  0
   59.3790   34.7820   46.1910 C   0  0  0  0  0  0  0  0  0  0  0  0
   60.4410   34.2350   46.8750 C   0  0  0  0  0  0  0  0  0  0  0  0
   60.6190   32.8720   46.7590 C   0  0  0  0  0  0  0  0  0  0  0  0
   61.6060   32.3510   47.3940 N   0  0  0  0  0  0  0  0  0  0  0  0
   61.5220   31.6360   48.6360 C   0  0  0  0  0  0  0  0  0  0  0  0
   60.4070   30.6770   48.6320 C   0  0  0  0  0  0  0  0  0  0  0  0
   59.4140   30.4970   49.5490 N   0  0  0  0  0  0  0  0  0  0  0  0
   58.6130   29.5180   49.1520 N   0  0  0  0  0  0  0  0  0  0  0  0
   59.0360   29.0200   47.9780 C   0  0  0  0  0  0  0  0  0  0  0  0
   58.5330   27.9970   47.1730 C   0  0  0  0  0  0  0  0  0  0  0  0
   59.2370   27.7500   46.0140 C   0  0  0  0  0  0  0  0  0  0  0  0
   60.3670   28.4510   45.6460 C   0  0  0  0  0  0  0  0  0  0  0  0
   60.7940   29.4230   46.4700 N   0  0  0  0  0  0  0  0  0  0  0  0
   60.1630   29.7370   47.6370 C   0  0  0  0  0  0  0  0  0  0  0  0
   59.7960   32.1000   46.0090 N   0  0  0  0  0  0  0  0  0  0  0  0
   57.0330   30.8290   45.0840 C   0  0  0  0  0  0  0  0  0  0  0  0
   54.3920   28.9360   44.5670 H   0  0  0  0  0  0  0  0  0  0  0  0
   55.5138   29.5243   42.3054 H   0  0  0  0  0  0  0  0  0  0  0  0
   57.0117   31.1970   41.2707 H   0  0  0  0  0  0  0  0  0  0  0  0
   58.4962   32.6093   42.6519 H   0  0  0  0  0  0  0  0  0  0  0  0
   57.7023   34.4139   44.8826 H   0  0  0  0  0  0  0  0  0  0  0  0
   59.1857   35.8634   46.2476 H   0  0  0  0  0  0  0  0  0  0  0  0
   61.1151   34.8548   47.4846 H   0  0  0  0  0  0  0  0  0  0  0  0
   62.4628   31.0895   48.7981 H   0  0  0  0  0  0  0  0  0  0  0  0
   61.3479   32.3640   49.4420 H   0  0  0  0  0  0  0  0  0  0  0  0
   59.3000   31.0390   50.4210 H   0  0  0  0  0  0  0  0  0  0  0  0
   57.6337   27.4252   47.4456 H   0  0  0  0  0  0  0  0  0  0  0  0
   58.8790   26.9518   45.3472 H   0  0  0  0  0  0  0  0  0  0  0  0
   60.8996   28.2223   44.7111 H   0  0  0  0  0  0  0  0  0  0  0  0
   60.0320   31.0840   45.9990 H   0  0  0  0  0  0  0  0  0  0  0  0
   57.0218   30.7065   46.1771 H   0  0  0  0  0  0  0  0  0  0  0  0
  1  2  1  0
  2  3  2  0
  3  4  1  0
  4  5  2  0
  5  6  1  0
  6  7  1  0
  7  8  2  0
  8  9  1  0
  9 10  2  0
 10 11  1  0
 11 12  2  0
 12 13  1  0
 13 14  1  0
 14 15  1  0
 15 16  1  0
 16 17  2  0
 17 18  1  0
 18 19  2  0
 19 20  1  0
 20 21  2  0
 21 22  1  0
 11 23  1  0
  6 24  2  0
 24  2  1  0
 23  7  1  0
 22 14  2  0
 22 17  1  0
  1 25  1  0
  3 26  1  0
  4 27  1  0
  5 28  1  0
  8 29  1  0
  9 30  1  0
 10 31  1  0
 13 32  1  0
 13 33  1  0
 15 34  1  0
 18 35  1  0
 19 36  1  0
 20 37  1  0
 23 38  1  0
 24 39  1  0
M  END
>  <smiles>  (72) 
Oc1cccc(-c2cccc(=NCc3[nH]nc4cccnc34)[nH]2)c1

>  <score_type>  (72) 
oracle

>  <origin>  (72) 
adg

>  <m_score__min__energy>  (72) 
-8.9800000000000004

>  <m_primary>  (72) 
energy

$$$$
72:0
     RDKit          3D

 89 91  0  0  0  0  0  0  0  0999 V2000
   56.9170   30.7340   43.6910 C   0  0  0  0  0  0  0  0  0  0  0  0
   57.4080   30.1110   44.9940 C   0  0  0  0  0  0  0  0  0  0  0  0
   58.8240   30.5900   45.3350 C   0  0  0  0  0  0  0  0  0  0  0  0
   59.3420   29.8770   46.5560 C   0  0  0  0  0  0  0  0  0  0  0  0
   58.7590   28.6670   46.9680 C   0  0  0  0  0  0  0  0  0  0  0  0
   59.2200   28.0160   48.1160 C   0  0  0  0  0  0  0  0  0  0  0  0
   60.2630   28.5720   48.8740 C   0  0  0  0  0  0  0  0  0  0  0  0
   60.7810   27.8560   50.0930 C   0  0  0  0  0  0  0  0  0  0  0  0
   61.7460   28.7510   50.8760 C   0  0  0  0  0  0  0  0  0  0  0  0
   60.9920   29.6140   51.8430 C   0  0  0  0  0  0  0  0  0  0  0  0
   61.6270   30.4170   52.5800 O   0  0  0  0  0  0  0  0  0  0  0  0
   59.5680   29.4880   51.9610 N   0  0  0  0  0  0  0  0  0  0  0  0
   58.7950   30.2200   52.9690 C   0  0  1  0  0  0  0  0  0  0  0  0
   59.1020   31.7270   52.8650 C   0  0  0  0  0  0  0  0  0  0  0  0
   59.0700   32.2040   51.4340 C   0  0  0  0  0  0  0  0  0  0  0  0
   59.7950   33.3440   51.0540 C   0  0  0  0  0  0  0  0  0  0  0  0
   59.7040   33.8360   49.7490 C   0  0  0  0  0  0  0  0  0  0  0  0
   58.8870   33.2000   48.8000 C   0  0  0  0  0  0  0  0  0  0  0  0
   58.7740   33.7340   47.4180 C   0  0  0  0  0  0  0  0  0  0  0  0
   59.7710   34.5770   46.8920 C   0  0  0  0  0  0  0  0  0  0  0  0
   59.6700   35.0690   45.5890 C   0  0  0  0  0  0  0  0  0  0  0  0
   58.5710   34.7320   44.7960 C   0  0  0  0  0  0  0  0  0  0  0  0
   57.5720   33.8990   45.3060 C   0  0  0  0  0  0  0  0  0  0  0  0
   57.6700   33.4010   46.6080 C   0  0  0  0  0  0  0  0  0  0  0  0
   58.1660   32.0530   49.1840 C   0  0  0  0  0  0  0  0  0  0  0  0
   58.2540   31.5610   50.4890 C   0  0  0  0  0  0  0  0  0  0  0  0
   57.3210   29.9520   52.7590 C   0  0  0  0  0  0  0  0  0  0  0  0
   56.9550   28.8090   52.3750 O   0  0  0  0  0  0  0  0  0  0  0  0
   56.3250   30.9710   52.9160 N   0  0  0  0  0  0  0  0  0  0  0  0
   55.2040   31.2020   52.0140 C   0  0  0  0  0  0  0  0  0  0  0  0
   53.9330   30.8620   52.7140 C   0  0  0  0  0  0  0  0  0  0  0  0
   53.9060   30.8120   53.9720 O   0  0  0  0  0  0  0  0  0  0  0  0
   52.7610   30.5730   51.9380 N   0  0  0  0  0  0  0  0  0  0  0  0
   51.3770   30.9360   52.2510 C   0  0  1  0  0  0  0  0  0  0  0  0
   51.1350   30.9870   53.7770 C   0  0  0  0  0  0  0  0  0  0  0  0
   50.3060   29.8030   54.3060 C   0  0  0  0  0  0  0  0  0  0  0  0
   51.0270   28.4550   54.1440 C   0  0  0  0  0  0  0  0  0  0  0  0
   52.4660   28.6600   53.9710 N   0  0  0  0  0  0  0  0  0  0  0  0
   53.3840   27.6790   53.4530 C   0  0  0  0  0  0  0  0  0  0  0  0
   54.7410   28.0620   53.2100 N   0  0  0  0  0  0  0  0  0  0  0  0
   53.0130   26.4540   53.2160 N   0  0  0  0  0  0  0  0  0  0  0  0
   50.9990   32.2280   51.5750 C   0  0  0  0  0  0  0  0  0  0  0  0
   51.0270   32.3430   50.1560 N   0  0  0  0  0  0  0  0  0  0  0  0
   50.6790   33.2300   52.2720 O   0  0  0  0  0  0  0  0  0  0  0  0
   60.8440   29.7830   48.4630 C   0  0  0  0  0  0  0  0  0  0  0  0
   60.3800   30.4370   47.3180 C   0  0  0  0  0  0  0  0  0  0  0  0
   56.2506   31.5795   43.9171 H   0  0  0  0  0  0  0  0  0  0  0  0
   57.7785   31.0918   43.1082 H   0  0  0  0  0  0  0  0  0  0  0  0
   56.3677   29.9799   43.1082 H   0  0  0  0  0  0  0  0  0  0  0  0
   56.7261   30.3969   45.8084 H   0  0  0  0  0  0  0  0  0  0  0  0
   57.4284   29.0179   44.8730 H   0  0  0  0  0  0  0  0  0  0  0  0
   59.4907   30.3831   44.4849 H   0  0  0  0  0  0  0  0  0  0  0  0
   58.7946   31.6704   45.5396 H   0  0  0  0  0  0  0  0  0  0  0  0
   57.9356   28.2296   46.3843 H   0  0  0  0  0  0  0  0  0  0  0  0
   58.7639   27.0645   48.4267 H   0  0  0  0  0  0  0  0  0  0  0  0
   59.9338   27.5852   50.7402 H   0  0  0  0  0  0  0  0  0  0  0  0
   61.3188   26.9521   49.7709 H   0  0  0  0  0  0  0  0  0  0  0  0
   62.4559   28.1200   51.4309 H   0  0  0  0  0  0  0  0  0  0  0  0
   62.2867   29.3969   50.1685 H   0  0  0  0  0  0  0  0  0  0  0  0
   59.0910   28.7420   51.4060 H   0  0  0  0  0  0  0  0  0  0  0  0
   59.0746   29.8803   53.9772 H   0  0  0  0  0  0  0  0  0  0  0  0
   58.3512   32.2848   53.4439 H   0  0  0  0  0  0  0  0  0  0  0  0
   60.1131   31.8999   53.2622 H   0  0  0  0  0  0  0  0  0  0  0  0
   60.4382   33.8529   51.7870 H   0  0  0  0  0  0  0  0  0  0  0  0
   60.2777   34.7298   49.4625 H   0  0  0  0  0  0  0  0  0  0  0  0
   60.6370   34.8505   47.5126 H   0  0  0  0  0  0  0  0  0  0  0  0
   60.4575   35.7231   45.1865 H   0  0  0  0  0  0  0  0  0  0  0  0
   58.4919   35.1221   43.7705 H   0  0  0  0  0  0  0  0  0  0  0  0
   56.7062   33.6345   44.6811 H   0  0  0  0  0  0  0  0  0  0  0  0
   56.8804   32.7449   47.0031 H   0  0  0  0  0  0  0  0  0  0  0  0
   57.5276   31.5395   48.4499 H   0  0  0  0  0  0  0  0  0  0  0  0
   57.6820   30.6667   50.7771 H   0  0  0  0  0  0  0  0  0  0  0  0
   55.1863   32.2598   51.7126 H   0  0  0  0  0  0  0  0  0  0  0  0
   55.3134   30.5709   51.1197 H   0  0  0  0  0  0  0  0  0  0  0  0
   50.7191   30.1491   51.8536 H   0  0  0  0  0  0  0  0  0  0  0  0
   52.1108   30.9835   54.2848 H   0  0  0  0  0  0  0  0  0  0  0  0
   50.5611   31.9024   53.9836 H   0  0  0  0  0  0  0  0  0  0  0  0
   50.1010   29.9663   55.3743 H   0  0  0  0  0  0  0  0  0  0  0  0
   49.3785   29.7568   53.7164 H   0  0  0  0  0  0  0  0  0  0  0  0
   50.8541   27.8421   55.0409 H   0  0  0  0  0  0  0  0  0  0  0  0
   50.6311   27.9449   53.2535 H   0  0  0  0  0  0  0  0  0  0  0  0
   52.8550   29.5860   54.2610 H   0  0  0  0  0  0  0  0  0  0  0  0
   55.4410   27.3700   52.8610 H   0  0  0  0  0  0  0  0  0  0  0  0
   55.0530   29.0420   53.3850 H   0  0  0  0  0  0  0  0  0  0  0  0
   52.6300   26.1860   52.2820 H   0  0  0  0  0  0  0  0  0  0  0  0
   53.0860   25.6990   53.9300 H   0  0  0  0  0  0  0  0  0  0  0  0
   51.7440   32.9340   49.6800 H   0  0  0  0  0  0  0  0  0  0  0  0
   61.6689   30.2192   49.0455 H   0  0  0  0  0  0  0  0  0  0  0  0
   60.8295   31.3935   47.0129 H   0  0  0  0  0  0  0  0  0  0  0  0
  1  2  1  0
  2  3  1  0
  3  4  1  0
  4  5  2  0
  5  6  1  0
  6  7  2  0
  7  8  1  0
  8  9  1  0
  9 10  1  0
 10 11  2  0
 10 12  1  0
 12 13  1  0
 13 14  1  0
 14 15  1  0
 15 16  2  0
 16 17  1  0
 17 18  2  0
 18 19  1  0
 19 20  2  0
 20 21  1  0
 21 22  2  0
 22 23  1  0
 23 24  2  0
 18 25  1  0
 25 26  2  0
 13 27  1  0
 27 28  2  0
 27 29  1  0
 29 30  1  0
 30 31  1  0
 31 32  2  0
 31 33  1  0
 33 34  1  0
 34 35  1  0
 35 36  1  0
 36 37  1  0
 37 38  1  0
 38 39  1  0
 39 40  1  0
 39 41  2  0
 34 42  1  0
 42 43  1  0
 42 44  2  0
  7 45  1  0
 45 46  2  0
 46  4  1  0
 26 15  1  0
 24 19  1  0
  1 47  1  0
  1 48  1  0
  1 49  1  0
  2 50  1  0
  2 51  1  0
  3 52  1  0
  3 53  1  0
  5 54  1  0
  6 55  1  0
  8 56  1  0
  8 57  1  0
  9 58  1  0
  9 59  1  0
 12 60  1  0
 13 61  1  1
 14 62  1  0
 14 63  1  0
 16 64  1  0
 17 65  1  0
 20 66  1  0
 21 67  1  0
 22 68  1  0
 23 69  1  0
 24 70  1  0
 25 71  1  0
 26 72  1  0
 30 73  1  0
 30 74  1  0
 34 75  1  6
 35 76  1  0
 35 77  1  0
 36 78  1  0
 36 79  1  0
 37 80  1  0
 37 81  1  0
 38 82  1  0
 40 83  1  0
 40 84  1  0
 41 85  1  0
 41 86  1  0
 43 87  1  0
 45 88  1  0
 46 89  1  0
M  CHG  4  29  -1  33  -1  41   1  43  -1
M  END
>  <UniqueID>  (73) 
67

>  <SMILES>  (73) 
CCCc1ccc(CCC(=O)N[C@@H](Cc2ccc(-c3ccccc3)cc2)C(=O)[N-]CC(=O)[N-][C@@H](CCCNC(N)=[NH2+])C([NH-])=O)cc1

>  <Energy>  (73) 
67.9738774493905

>  <Genealogy>  (73) 
CCCc1ccc(CCC(=O)NC(Cc2ccc(-c3ccccc3)cc2)C(=O)[N-]CC(=O)[N-]C(CCCNC(N)=[NH2+])C([NH-])=O)cc1 (protonated)
CCCc1ccc(CCC(=O)N[C@@H](Cc2ccc(-c3ccccc3)cc2)C(=O)[N-]CC(=O)[N-][C@@H](CCCNC(N)=[NH2+])C([NH-])=O)cc1 (chirality)
CCCc1ccc(CCC(=O)N[C@@H](Cc2ccc(-c3ccccc3)cc2)C(=O)[N-]CC(=O)[N-][C@@H](CCCNC(N)=[NH2+])C([NH-])=O)cc1 (3D coordinates assigned)
CCCc1ccc(CCC(=O)N[C@@H](Cc2ccc(-c3ccccc3)cc2)C(=O)[N-]CC(=O)[N-][C@@H](CCCNC(N)=[NH2+])C([NH-])=O)cc1 (optimized conformer: 67.9738774493905 kcal/mol)

>  <smiles>  (73) 
CCCc1ccc(CCC(=O)NC(Cc2ccc(-c3ccccc3)cc2)C(=O)NCC(=O)NC(CCCNC(=N)N)C(N)=O)cc1

>  <score_type>  (73) 
oracle

>  <origin>  (73) 
adg

>  <m_score__min__energy>  (73) 
-15.039999999999999

>  <m_primary>  (73) 
energy

$$$$
73:0
     RDKit          3D

 39 41  0  0  0  0  0  0  0  0999 V2000
   56.0196   28.1480   45.0579 H   0  0  0  0  0  0  0  0  0  0  0  0
   56.8650   27.7380   45.6300 C   0  0  0  0  0  0  0  0  0  0  0  0
   56.7060   26.5990   46.3530 N   0  0  0  0  0  0  0  0  0  0  0  0
   57.7270   26.0410   47.0600 C   0  0  0  0  0  0  0  0  0  0  0  0
   57.5430   24.9720   47.7790 N   0  0  0  0  0  0  0  0  0  0  0  0
   57.2030   23.6640   47.2850 C   0  0  0  0  0  0  0  0  0  0  0  0
   57.0270   22.7320   48.1130 O   0  0  0  0  0  0  0  0  0  0  0  0
   56.9570   23.4080   45.8450 C   0  0  0  0  0  0  0  0  0  0  0  0
   57.9420   22.7310   45.1020 C   0  0  0  0  0  0  0  0  0  0  0  0
   58.8507   22.3697   45.6058 H   0  0  0  0  0  0  0  0  0  0  0  0
   57.7790   22.5130   43.7340 C   0  0  0  0  0  0  0  0  0  0  0  0
   58.5490   21.9675   43.1687 H   0  0  0  0  0  0  0  0  0  0  0  0
   56.6410   22.9860   43.0830 C   0  0  0  0  0  0  0  0  0  0  0  0
   56.5187   22.8226   42.0021 H   0  0  0  0  0  0  0  0  0  0  0  0
   55.6560   23.6670   43.8010 C   0  0  0  0  0  0  0  0  0  0  0  0
   54.7652   24.0451   43.2779 H   0  0  0  0  0  0  0  0  0  0  0  0
   55.7900   23.8750   45.1860 C   0  0  0  0  0  0  0  0  0  0  0  0
   54.7200   24.5100   45.9090 N   0  0  0  0  0  0  0  0  0  0  0  0
   54.3940   25.6850   45.6440 O   0  0  0  0  0  0  0  0  0  0  0  0
   53.9220   23.7780   46.7580 O   0  0  0  0  0  0  0  0  0  0  0  0
   59.0000   26.6210   47.0010 C   0  0  0  0  0  0  0  0  0  0  0  0
   59.8473   26.1521   47.5228 H   0  0  0  0  0  0  0  0  0  0  0  0
   59.1860   27.7990   46.2750 C   0  0  0  0  0  0  0  0  0  0  0  0
   60.1828   28.2614   46.2242 H   0  0  0  0  0  0  0  0  0  0  0  0
   58.1060   28.3920   45.6120 C   0  0  0  0  0  0  0  0  0  0  0  0
   58.2960   29.6370   44.9250 N   0  0  0  0  0  0  0  0  0  0  0  0
   57.4460   30.7890   45.0300 C   0  0  0  0  0  0  0  0  0  0  0  0
   56.2290   30.6710   44.7230 O   0  0  0  0  0  0  0  0  0  0  0  0
   57.9770   32.1170   45.4180 C   0  0  0  0  0  0  0  0  0  0  0  0
   57.8070   33.2080   44.5460 C   0  0  0  0  0  0  0  0  0  0  0  0
   57.2578   33.0716   43.6027 H   0  0  0  0  0  0  0  0  0  0  0  0
   58.3300   34.4640   44.8680 C   0  0  0  0  0  0  0  0  0  0  0  0
   58.2002   35.3077   44.1742 H   0  0  0  0  0  0  0  0  0  0  0  0
   59.0160   34.6480   46.0680 C   0  0  0  0  0  0  0  0  0  0  0  0
   59.4268   35.6368   46.3198 H   0  0  0  0  0  0  0  0  0  0  0  0
   59.1820   33.5790   46.9500 C   0  0  0  0  0  0  0  0  0  0  0  0
   59.7203   33.7304   47.8973 H   0  0  0  0  0  0  0  0  0  0  0  0
   58.6670   32.3140   46.6360 C   0  0  0  0  0  0  0  0  0  0  0  0
   58.9690   30.9940   47.7610 Cl  0  0  0  0  0  0  0  0  0  0  0  0
  1  2  1  0
  2  3  1  0
  3  4  1  0
  4  5  2  0
  5  6  1  0
  6  7  2  0
  6  8  1  0
  8  9  2  0
  9 10  1  0
  9 11  1  0
 11 12  1  0
 11 13  2  0
 13 14  1  0
 13 15  1  0
 15 16  1  0
 15 17  2  0
 17 18  1  0
 18 19  2  0
 18 20  1  0
  4 21  1  0
 21 22  1  0
 21 23  2  0
 23 24  1  0
 23 25  1  0
 25 26  1  0
 26 27  1  0
 27 28  2  0
 27 29  1  0
 29 30  2  0
 30 31  1  0
 30 32  1  0
 32 33  1  0
 32 34  2  0
 34 35  1  0
 34 36  1  0
 36 37  1  0
 36 38  2  0
 38 39  1  0
 25  2  2  0
 38 29  1  0
 17  8  1  0
M  CHG  4   3  -1  18   1  20  -1  26  -1
M  END
>  <UniqueID>  (74) 
68

>  <SMILES>  (74) 
O=C([N-]c1cc/c(=N/C(=O)c2ccccc2[N+](=O)[O-])[n-]c1)c1ccccc1Cl

>  <Energy>  (74) 
64.6990039812706

>  <Genealogy>  (74) 
O=C([N-]c1ccc(=NC(=O)c2ccccc2[N+](=O)[O-])[n-]c1)c1ccccc1Cl (protonated)
O=C([N-]c1cc/c(=N/C(=O)c2ccccc2[N+](=O)[O-])[n-]c1)c1ccccc1Cl (cis-trans isomerization)
O=C([N-]c1cc/c(=N/C(=O)c2ccccc2[N+](=O)[O-])[n-]c1)c1ccccc1Cl (3D coordinates assigned)
O=C([N-]c1cc/c(=N/C(=O)c2ccccc2[N+](=O)[O-])[n-]c1)c1ccccc1Cl (optimized conformer: 64.6990039812706 kcal/mol)

>  <smiles>  (74) 
O=C(Nc1ccc(=NC(=O)c2ccccc2[N+](=O)[O-])[nH]c1)c1ccccc1Cl

>  <score_type>  (74) 
oracle

>  <origin>  (74) 
adg

>  <m_score__min__energy>  (74) 
-12.06

>  <m_primary>  (74) 
energy

$$$$
74:0
     RDKit          3D

 52 54  0  0  0  0  0  0  0  0999 V2000
   58.3120   32.4730   51.0960 C   0  0  0  0  0  0  0  0  0  0  0  0
   59.3970   33.5250   50.8930 C   0  0  0  0  0  0  0  0  0  0  0  0
   59.2730   34.1390   49.6090 O   0  0  0  0  0  0  0  0  0  0  0  0
   60.1880   34.0150   48.5480 C   0  0  0  0  0  0  0  0  0  0  0  0
   61.5750   33.8790   48.7580 C   0  0  0  0  0  0  0  0  0  0  0  0
   62.4440   33.7650   47.6700 C   0  0  0  0  0  0  0  0  0  0  0  0
   61.9440   33.7870   46.3680 C   0  0  0  0  0  0  0  0  0  0  0  0
   60.5720   33.9200   46.1460 C   0  0  0  0  0  0  0  0  0  0  0  0
   59.6850   34.0350   47.2360 C   0  0  0  0  0  0  0  0  0  0  0  0
   58.2990   34.1670   47.0550 O   0  0  0  0  0  0  0  0  0  0  0  0
   57.4090   33.0860   46.7870 C   0  0  0  0  0  0  0  0  0  0  0  0
   57.4260   32.7580   45.3290 C   0  0  0  0  0  0  0  0  0  0  0  0
   58.0240   33.5170   44.5180 O   0  0  0  0  0  0  0  0  0  0  0  0
   56.7580   31.5800   44.8660 N   0  0  0  0  0  0  0  0  0  0  0  0
   57.1820   30.2300   45.1040 C   0  0  0  0  0  0  0  0  0  0  0  0
   58.5250   29.9990   45.4280 C   0  0  0  0  0  0  0  0  0  0  0  0
   58.9870   28.7000   45.6750 C   0  0  0  0  0  0  0  0  0  0  0  0
   60.6770   28.4360   46.0960 S   0  0  0  0  0  0  0  0  0  0  0  0
   61.5260   29.3080   45.2110 O   0  0  0  0  0  0  0  0  0  0  0  0
   61.0460   27.0010   45.8400 O   0  0  0  0  0  0  0  0  0  0  0  0
   60.9420   28.8670   47.7740 N   0  0  0  0  0  0  0  0  0  0  0  0
   60.9950   30.3280   47.9830 C   0  0  0  0  0  0  0  0  0  0  0  0
   59.5950   30.9530   48.0930 C   0  0  0  0  0  0  0  0  0  0  0  0
   58.8400   30.3160   49.1030 O   0  0  0  0  0  0  0  0  0  0  0  0
   58.6420   28.9600   48.7580 C   0  0  0  0  0  0  0  0  0  0  0  0
   59.9830   28.2090   48.6830 C   0  0  0  0  0  0  0  0  0  0  0  0
   58.0890   27.6240   45.6210 C   0  0  0  0  0  0  0  0  0  0  0  0
   56.7410   27.8500   45.3350 C   0  0  0  0  0  0  0  0  0  0  0  0
   56.2780   29.1480   45.0930 C   0  0  0  0  0  0  0  0  0  0  0  0
   54.9190   29.3500   44.8850 O   0  0  0  0  0  0  0  0  0  0  0  0
   58.1502   32.3161   52.1727 H   0  0  0  0  0  0  0  0  0  0  0  0
   57.3763   32.8168   50.6309 H   0  0  0  0  0  0  0  0  0  0  0  0
   58.6267   31.5272   50.6309 H   0  0  0  0  0  0  0  0  0  0  0  0
   59.3026   34.2957   51.6721 H   0  0  0  0  0  0  0  0  0  0  0  0
   60.3799   33.0353   50.9567 H   0  0  0  0  0  0  0  0  0  0  0  0
   61.9749   33.8626   49.7826 H   0  0  0  0  0  0  0  0  0  0  0  0
   63.5254   33.6576   47.8406 H   0  0  0  0  0  0  0  0  0  0  0  0
   62.6321   33.6994   45.5143 H   0  0  0  0  0  0  0  0  0  0  0  0
   60.1819   33.9351   45.1176 H   0  0  0  0  0  0  0  0  0  0  0  0
   57.7247   32.2033   47.3625 H   0  0  0  0  0  0  0  0  0  0  0  0
   56.3894   33.3774   47.0792 H   0  0  0  0  0  0  0  0  0  0  0  0
   59.2239   30.8463   45.4891 H   0  0  0  0  0  0  0  0  0  0  0  0
   61.5476   30.5326   48.9118 H   0  0  0  0  0  0  0  0  0  0  0  0
   61.4952   30.7746   47.1111 H   0  0  0  0  0  0  0  0  0  0  0  0
   59.6948   32.0210   48.3366 H   0  0  0  0  0  0  0  0  0  0  0  0
   59.0757   30.8269   47.1316 H   0  0  0  0  0  0  0  0  0  0  0  0
   58.0054   28.4845   49.5186 H   0  0  0  0  0  0  0  0  0  0  0  0
   58.1599   28.9163   47.7702 H   0  0  0  0  0  0  0  0  0  0  0  0
   60.4221   28.1670   49.6907 H   0  0  0  0  0  0  0  0  0  0  0  0
   59.7834   27.2011   48.2902 H   0  0  0  0  0  0  0  0  0  0  0  0
   58.4472   26.6002   45.8043 H   0  0  0  0  0  0  0  0  0  0  0  0
   56.0396   27.0033   45.2998 H   0  0  0  0  0  0  0  0  0  0  0  0
  1  2  1  0
  2  3  1  0
  3  4  1  0
  4  5  2  0
  5  6  1  0
  6  7  2  0
  7  8  1  0
  8  9  2  0
  9 10  1  0
 10 11  1  0
 11 12  1  0
 12 13  2  0
 12 14  1  0
 14 15  1  0
 15 16  2  0
 16 17  1  0
 17 18  1  0
 18 19  2  0
 18 20  2  0
 18 21  1  0
 21 22  1  0
 22 23  1  0
 23 24  1  0
 24 25  1  0
 25 26  1  0
 17 27  2  0
 27 28  1  0
 28 29  2  0
 29 30  1  0
  9  4  1  0
 29 15  1  0
 26 21  1  0
  1 31  1  0
  1 32  1  0
  1 33  1  0
  2 34  1  0
  2 35  1  0
  5 36  1  0
  6 37  1  0
  7 38  1  0
  8 39  1  0
 11 40  1  0
 11 41  1  0
 16 42  1  0
 22 43  1  0
 22 44  1  0
 23 45  1  0
 23 46  1  0
 25 47  1  0
 25 48  1  0
 26 49  1  0
 26 50  1  0
 27 51  1  0
 28 52  1  0
M  CHG  2  14  -1  30  -1
M  END
>  <UniqueID>  (75) 
69

>  <SMILES>  (75) 
CCOc1ccccc1OCC(=O)[N-]c1cc(S(=O)(=O)N2CCOCC2)ccc1[O-]

>  <Energy>  (75) 
60.511085358249204

>  <Genealogy>  (75) 
CCOc1ccccc1OCC(=O)[N-]c1cc(S(=O)(=O)N2CCOCC2)ccc1[O-] (protonated)
CCOc1ccccc1OCC(=O)[N-]c1cc(S(=O)(=O)N2CCOCC2)ccc1[O-] (3D coordinates assigned)
CCOc1ccccc1OCC(=O)[N-]c1cc(S(=O)(=O)N2CCOCC2)ccc1[O-] (nonaromatic ring conformer: 60.511085358249204 kcal/mol)

>  <smiles>  (75) 
CCOc1ccccc1OCC(=O)Nc1cc(S(=O)(=O)N2CCOCC2)ccc1O

>  <score_type>  (75) 
oracle

>  <origin>  (75) 
adg

>  <m_score__min__energy>  (75) 
-14.050000000000001

>  <m_primary>  (75) 
energy

$$$$
75:0
     RDKit          3D

 40 44  0  0  0  0  0  0  0  0999 V2000
   58.4382   26.8025   44.3356 H   0  0  0  0  0  0  0  0  0  0  0  0
   57.7510   27.1340   45.1280 C   0  0  0  0  0  0  0  0  0  0  0  0
   57.2390   26.1010   46.0500 C   0  0  0  0  0  0  0  0  0  0  0  0
   57.9670   25.1100   46.5970 N   0  0  0  0  0  0  0  0  0  0  0  0
   57.0520   24.3800   47.2690 C   0  0  0  0  0  0  0  0  0  0  0  0
   57.3570   23.3550   47.9310 O   0  0  0  0  0  0  0  0  0  0  0  0
   55.7830   24.8300   47.1670 N   0  0  0  0  0  0  0  0  0  0  0  0
   55.9190   25.9130   46.3850 C   0  0  0  0  0  0  0  0  0  0  0  0
   54.8570   26.7110   45.9810 O   0  0  0  0  0  0  0  0  0  0  0  0
   57.4520   28.4430   45.1710 C   0  0  0  0  0  0  0  0  0  0  0  0
   56.3240   29.0280   44.6010 C   0  0  0  0  0  0  0  0  0  0  0  0
   55.5548   28.4872   44.0301 H   0  0  0  0  0  0  0  0  0  0  0  0
   56.3110   30.3580   44.8510 N   0  0  0  0  0  0  0  0  0  0  0  0
   57.3920   30.6310   45.5660 N   0  0  0  0  0  0  0  0  0  0  0  0
   57.7900   31.8250   46.0930 C   0  0  0  0  0  0  0  0  0  0  0  0
   57.1390   32.9390   45.9090 N   0  0  0  0  0  0  0  0  0  0  0  0
   57.6560   34.1580   45.2990 C   0  0  0  0  0  0  0  0  0  0  0  0
   56.6905   34.6364   45.0776 H   0  0  0  0  0  0  0  0  0  0  0  0
   58.9700   34.6350   45.8910 C   0  0  0  0  0  0  0  0  0  0  0  0
   59.1925   35.7111   45.9409 H   0  0  0  0  0  0  0  0  0  0  0  0
   59.4940   34.4826   46.8461 H   0  0  0  0  0  0  0  0  0  0  0  0
   58.9540   33.9230   44.5470 C   0  0  0  0  0  0  0  0  0  0  0  0
   59.1648   34.4840   43.6246 H   0  0  0  0  0  0  0  0  0  0  0  0
   59.4615   33.0421   44.1269 H   0  0  0  0  0  0  0  0  0  0  0  0
   58.9170   31.8390   46.8530 N   0  0  0  0  0  0  0  0  0  0  0  0
   59.6320   30.6930   47.0800 C   0  0  0  0  0  0  0  0  0  0  0  0
   60.6940   30.6990   47.8320 N   0  0  0  0  0  0  0  0  0  0  0  0
   61.6530   31.7620   47.9650 C   0  0  0  0  0  0  0  0  0  0  0  0
   62.8020   31.8390   47.1540 C   0  0  0  0  0  0  0  0  0  0  0  0
   62.9715   31.0855   46.3708 H   0  0  0  0  0  0  0  0  0  0  0  0
   63.7280   32.8700   47.3410 C   0  0  0  0  0  0  0  0  0  0  0  0
   64.6157   32.9349   46.6947 H   0  0  0  0  0  0  0  0  0  0  0  0
   63.5270   33.8180   48.3480 C   0  0  0  0  0  0  0  0  0  0  0  0
   64.2517   34.6337   48.4879 H   0  0  0  0  0  0  0  0  0  0  0  0
   62.4060   33.7300   49.1770 C   0  0  0  0  0  0  0  0  0  0  0  0
   62.2190   34.6410   50.1640 F   0  0  0  0  0  0  0  0  0  0  0  0
   61.4780   32.6990   48.9930 C   0  0  0  0  0  0  0  0  0  0  0  0
   60.6058   32.6233   49.6590 H   0  0  0  0  0  0  0  0  0  0  0  0
   59.2040   29.5140   46.5500 N   0  0  0  0  0  0  0  0  0  0  0  0
   58.0930   29.5100   45.7800 C   0  0  0  0  0  0  0  0  0  0  0  0
  1  2  1  0
  2  3  1  0
  3  4  1  0
  4  5  1  0
  5  6  2  0
  5  7  1  0
  7  8  1  0
  8  9  1  0
  2 10  2  3
 10 11  1  0
 11 12  1  0
 11 13  2  0
 13 14  1  0
 14 15  1  0
 15 16  2  3
 16 17  1  0
 17 18  1  0
 17 19  1  0
 19 20  1  0
 19 21  1  0
 19 22  1  0
 22 23  1  0
 22 24  1  0
 15 25  1  0
 25 26  1  0
 26 27  2  0
 27 28  1  0
 28 29  2  0
 29 30  1  0
 29 31  1  0
 31 32  1  0
 31 33  2  0
 33 34  1  0
 33 35  1  0
 35 36  1  0
 35 37  2  0
 37 38  1  0
 26 39  1  0
 39 40  2  0
  8  3  2  0
 40 10  1  0
 40 14  1  0
 22 17  1  0
 37 28  1  0
M  CHG  4   4  -1   7  -1   9  -1  25  -1
M  END
>  <UniqueID>  (76) 
70

>  <SMILES>  (76) 
O=c1[n-]c([O-])c(C=c2cnn3c(=NC4CC4)[n-]/c(=N\c4cccc(F)c4)nc23)[n-]1

>  <Energy>  (76) 
392.0809484045386

>  <Genealogy>  (76) 
O=c1[n-]c([O-])c(C=c2cnn3c(=NC4CC4)[n-]c(=Nc4cccc(F)c4)nc23)[n-]1 (protonated)
O=c1[n-]c([O-])c(C=c2cnn3c(=NC4CC4)[n-]/c(=N\c4cccc(F)c4)nc23)[n-]1 (cis-trans isomerization)
O=c1[n-]c([O-])c(C=c2cnn3c(=NC4CC4)[n-]/c(=N\c4cccc(F)c4)nc23)[n-]1 (3D coordinates assigned)
O=c1[n-]c([O-])c(C=c2cnn3c(=NC4CC4)[n-]/c(=N\c4cccc(F)c4)nc23)[n-]1 (nonaromatic ring conformer: 392.0809484045386 kcal/mol)

>  <smiles>  (76) 
O=c1[nH]c(O)c(C=c2cnn3c(=NC4CC4)[nH]c(=Nc4cccc(F)c4)nc23)[nH]1

>  <score_type>  (76) 
oracle

>  <origin>  (76) 
adg

>  <m_score__min__energy>  (76) 
-17.609999999999999

>  <m_primary>  (76) 
energy

$$$$
76:0
     RDKit          3D

 42 44  0  0  0  0  0  0  0  0999 V2000
   57.5310   31.3970   44.9650 C   0  0  0  0  0  0  0  0  0  0  0  0
   58.3540   32.5930   45.3450 C   0  0  0  0  0  0  0  0  0  0  0  0
   58.0380   33.8600   44.8320 C   0  0  0  0  0  0  0  0  0  0  0  0
   58.8230   34.9650   45.1610 C   0  0  0  0  0  0  0  0  0  0  0  0
   59.9390   34.8130   45.9870 C   0  0  0  0  0  0  0  0  0  0  0  0
   60.2810   33.5480   46.5020 C   0  0  0  0  0  0  0  0  0  0  0  0
   61.4390   33.3870   47.3480 N   0  0  0  0  0  0  0  0  0  0  0  0
   62.7920   33.4100   46.7750 C   0  0  0  0  0  0  0  0  0  0  0  0
   63.7430   32.5770   47.6440 C   0  0  0  0  0  0  0  0  0  0  0  0
   63.7920   33.0590   49.0510 N   0  0  0  0  0  0  0  0  0  0  0  0
   64.3000   32.0150   49.9770 C   0  0  0  0  0  0  0  0  0  0  0  0
   65.7050   32.2620   50.4730 C   0  0  0  0  0  0  0  0  0  0  0  0
   66.3820   31.3860   51.3200 C   0  0  0  0  0  0  0  0  0  0  0  0
   67.9080   32.0250   51.6190 S   0  0  0  0  0  0  0  0  0  0  0  0
   67.6330   33.3960   50.6890 C   0  0  0  0  0  0  0  0  0  0  0  0
   68.6440   34.4610   50.4240 C   0  0  0  0  0  0  0  0  0  0  0  0
   66.4060   33.3760   50.1270 N   0  0  0  0  0  0  0  0  0  0  0  0
   62.5360   33.7020   49.5320 C   0  0  0  0  0  0  0  0  0  0  0  0
   61.2850   33.1990   48.7960 C   0  0  0  0  0  0  0  0  0  0  0  0
   59.4850   32.4390   46.1640 C   0  0  0  0  0  0  0  0  0  0  0  0
   57.1811   30.8885   45.8754 H   0  0  0  0  0  0  0  0  0  0  0  0
   56.6645   31.7221   44.3705 H   0  0  0  0  0  0  0  0  0  0  0  0
   58.1442   30.7038   44.3705 H   0  0  0  0  0  0  0  0  0  0  0  0
   57.1690   33.9822   44.1687 H   0  0  0  0  0  0  0  0  0  0  0  0
   58.5624   35.9591   44.7688 H   0  0  0  0  0  0  0  0  0  0  0  0
   60.5558   35.6888   46.2372 H   0  0  0  0  0  0  0  0  0  0  0  0
   62.7646   32.9898   45.7588 H   0  0  0  0  0  0  0  0  0  0  0  0
   63.1517   34.4489   46.7390 H   0  0  0  0  0  0  0  0  0  0  0  0
   63.4011   31.5315   47.6401 H   0  0  0  0  0  0  0  0  0  0  0  0
   64.7541   32.6711   47.2211 H   0  0  0  0  0  0  0  0  0  0  0  0
   64.5220   33.8120   49.0660 H   0  0  0  0  0  0  0  0  0  0  0  0
   63.6293   31.9694   50.8476 H   0  0  0  0  0  0  0  0  0  0  0  0
   64.3246   31.0727   49.4101 H   0  0  0  0  0  0  0  0  0  0  0  0
   65.9868   30.4416   51.7224 H   0  0  0  0  0  0  0  0  0  0  0  0
   69.0192   34.8563   51.3795 H   0  0  0  0  0  0  0  0  0  0  0  0
   69.4804   34.0376   49.8486 H   0  0  0  0  0  0  0  0  0  0  0  0
   68.1776   35.2743   49.8486 H   0  0  0  0  0  0  0  0  0  0  0  0
   62.4213   33.4883   50.6049 H   0  0  0  0  0  0  0  0  0  0  0  0
   62.6222   34.7809   49.3355 H   0  0  0  0  0  0  0  0  0  0  0  0
   61.1426   32.1296   49.0105 H   0  0  0  0  0  0  0  0  0  0  0  0
   60.4110   33.7708   49.1413 H   0  0  0  0  0  0  0  0  0  0  0  0
   59.7504   31.4416   46.5445 H   0  0  0  0  0  0  0  0  0  0  0  0
  1  2  1  0
  2  3  2  0
  3  4  1  0
  4  5  2  0
  5  6  1  0
  6  7  1  0
  7  8  1  0
  8  9  1  0
  9 10  1  0
 10 11  1  0
 11 12  1  0
 12 13  2  0
 13 14  1  0
 14 15  1  0
 15 16  1  0
 15 17  2  0
 10 18  1  0
 18 19  1  0
  6 20  2  0
 20  2  1  0
 19  7  1  0
 17 12  1  0
  1 21  1  0
  1 22  1  0
  1 23  1  0
  3 24  1  0
  4 25  1  0
  5 26  1  0
  8 27  1  0
  8 28  1  0
  9 29  1  0
  9 30  1  0
 10 31  1  0
 11 32  1  0
 11 33  1  0
 13 34  1  0
 16 35  1  0
 16 36  1  0
 16 37  1  0
 18 38  1  0
 18 39  1  0
 19 40  1  0
 19 41  1  0
 20 42  1  0
M  CHG  1  10   1
M  END
>  <UniqueID>  (77) 
71

>  <SMILES>  (77) 
Cc1cccc(N2CC[NH+](Cc3csc(C)n3)CC2)c1

>  <Energy>  (77) 
81.95389160153309

>  <Genealogy>  (77) 
Cc1cccc(N2CC[NH+](Cc3csc(C)n3)CC2)c1 (protonated)
Cc1cccc(N2CC[NH+](Cc3csc(C)n3)CC2)c1 (3D coordinates assigned)
Cc1cccc(N2CC[NH+](Cc3csc(C)n3)CC2)c1 (nonaromatic ring conformer: 81.95389160153309 kcal/mol)

>  <smiles>  (77) 
Cc1cccc(N2CCN(Cc3csc(C)n3)CC2)c1

>  <score_type>  (77) 
oracle

>  <origin>  (77) 
adg

>  <m_score__min__energy>  (77) 
-5.0800000000000001

>  <m_primary>  (77) 
energy

$$$$
77:0
     RDKit          3D

 14 14  0  0  0  0  0  0  0  0999 V2000
   56.1990   30.4690   44.5240 O   0  0  0  0  0  0  0  0  0  0  0  0
   57.0120   31.2730   43.9980 C   0  0  0  0  0  0  0  0  0  0  0  0
   57.6410   32.3480   44.7870 C   0  0  0  0  0  0  0  0  0  0  0  0
   58.3420   33.3910   44.1570 C   0  0  0  0  0  0  0  0  0  0  0  0
   58.9250   34.3940   44.9320 C   0  0  0  0  0  0  0  0  0  0  0  0
   58.8080   34.3540   46.3210 C   0  0  0  0  0  0  0  0  0  0  0  0
   58.1050   33.3070   46.9170 C   0  0  0  0  0  0  0  0  0  0  0  0
   57.5410   32.3340   46.1490 N   0  0  0  0  0  0  0  0  0  0  0  0
   57.2577   31.1718   42.9306 H   0  0  0  0  0  0  0  0  0  0  0  0
   58.4302   33.4162   43.0608 H   0  0  0  0  0  0  0  0  0  0  0  0
   59.4756   35.2144   44.4485 H   0  0  0  0  0  0  0  0  0  0  0  0
   59.2653   35.1398   46.9401 H   0  0  0  0  0  0  0  0  0  0  0  0
   58.0058   33.2671   48.0118 H   0  0  0  0  0  0  0  0  0  0  0  0
   57.0210   31.5620   46.6260 H   0  0  0  0  0  0  0  0  0  0  0  0
  1  2  2  0
  2  3  1  0
  3  4  2  0
  4  5  1  0
  5  6  2  0
  6  7  1  0
  7  8  2  0
  8  3  1  0
  2  9  1  0
  4 10  1  0
  5 11  1  0
  6 12  1  0
  7 13  1  0
  8 14  1  0
M  CHG  1   8   1
M  END
>  <UniqueID>  (78) 
72

>  <SMILES>  (78) 
O=Cc1cccc[nH+]1

>  <Energy>  (78) 
12.498004774670617

>  <Genealogy>  (78) 
O=Cc1cccc[nH+]1 (protonated)
O=Cc1cccc[nH+]1 (3D coordinates assigned)
O=Cc1cccc[nH+]1 (optimized conformer: 12.498004774670617 kcal/mol)

>  <smiles>  (78) 
O=Cc1ccccn1

>  <score_type>  (78) 
oracle

>  <origin>  (78) 
adg

>  <m_score__min__energy>  (78) 
-2.6600000000000001

>  <m_primary>  (78) 
energy

$$$$
78:0
     RDKit          3D

 59 62  0  0  0  0  0  0  0  0999 V2000
   67.6150   33.4170   50.4830 C   0  0  0  0  0  0  0  0  0  0  0  0
   66.4440   32.4490   50.4220 C   0  0  0  0  0  0  0  0  0  0  0  0
   65.5290   32.8710   49.4140 O   0  0  0  0  0  0  0  0  0  0  0  0
   64.2750   32.2760   49.2410 C   0  0  0  0  0  0  0  0  0  0  0  0
   63.8990   31.3420   50.0020 O   0  0  0  0  0  0  0  0  0  0  0  0
   63.3930   32.7540   48.1630 C   0  0  0  0  0  0  0  0  0  0  0  0
   63.0430   33.9640   48.1430 O   0  0  0  0  0  0  0  0  0  0  0  0
   62.8640   31.8190   47.1120 C   0  0  0  0  0  0  0  0  0  0  0  0
   61.5730   31.2010   47.5620 C   0  0  0  0  0  0  0  0  0  0  0  0
   61.4790   30.7340   48.7280 O   0  0  0  0  0  0  0  0  0  0  0  0
   60.3920   31.1800   46.6850 C   0  0  0  0  0  0  0  0  0  0  0  0
   60.0220   30.1140   45.8760 C   0  0  0  0  0  0  0  0  0  0  0  0
   58.8810   30.4040   45.2110 N   0  0  0  0  0  0  0  0  0  0  0  0
   58.2080   29.5310   44.2480 C   0  0  0  0  0  0  0  0  0  0  0  0
   58.0290   28.1530   44.8150 C   0  0  0  0  0  0  0  0  0  0  0  0
   57.7960   27.8180   46.4480 S   0  0  0  0  0  0  0  0  0  0  0  0
   57.6500   26.1520   46.2890 C   0  0  0  0  0  0  0  0  0  0  0  0
   57.7820   25.8310   44.9450 C   0  0  0  0  0  0  0  0  0  0  0  0
   58.0030   26.9430   44.1150 C   0  0  0  0  0  0  0  0  0  0  0  0
   58.1320   26.8240   42.6280 C   0  0  0  0  0  0  0  0  0  0  0  0
   58.5290   31.6540   45.5830 C   0  0  0  0  0  0  0  0  0  0  0  0
   57.4330   32.3970   45.1430 C   0  0  0  0  0  0  0  0  0  0  0  0
   57.2900   33.7080   45.6220 C   0  0  0  0  0  0  0  0  0  0  0  0
   58.2330   34.2530   46.5150 C   0  0  0  0  0  0  0  0  0  0  0  0
   59.3350   33.4840   46.9600 C   0  0  0  0  0  0  0  0  0  0  0  0
   60.3190   33.9970   47.8230 O   0  0  0  0  0  0  0  0  0  0  0  0
   60.1150   34.3390   49.1950 C   0  0  0  0  0  0  0  0  0  0  0  0
   60.0120   33.1030   50.0620 C   0  0  0  0  0  0  0  0  0  0  0  0
   58.9590   32.1980   49.8390 C   0  0  0  0  0  0  0  0  0  0  0  0
   58.8370   31.0420   50.6160 C   0  0  0  0  0  0  0  0  0  0  0  0
   57.8020   30.1910   50.4050 F   0  0  0  0  0  0  0  0  0  0  0  0
   59.7790   30.7640   51.6070 C   0  0  0  0  0  0  0  0  0  0  0  0
   60.8480   31.6360   51.8190 C   0  0  0  0  0  0  0  0  0  0  0  0
   60.9790   32.8000   51.0510 C   0  0  0  0  0  0  0  0  0  0  0  0
   62.3730   33.8360   51.3560 Cl  0  0  0  0  0  0  0  0  0  0  0  0
   59.4360   32.1680   46.4840 C   0  0  0  0  0  0  0  0  0  0  0  0
   67.8653   33.6239   51.5340 H   0  0  0  0  0  0  0  0  0  0  0  0
   68.4857   32.9714   49.9796 H   0  0  0  0  0  0  0  0  0  0  0  0
   67.3412   34.3559   49.9796 H   0  0  0  0  0  0  0  0  0  0  0  0
   66.8139   31.4411   50.1824 H   0  0  0  0  0  0  0  0  0  0  0  0
   65.9329   32.4309   51.3959 H   0  0  0  0  0  0  0  0  0  0  0  0
   62.6921   32.3799   46.1815 H   0  0  0  0  0  0  0  0  0  0  0  0
   63.6011   31.0204   46.9419 H   0  0  0  0  0  0  0  0  0  0  0  0
   60.5777   29.1687   45.7886 H   0  0  0  0  0  0  0  0  0  0  0  0
   57.2213   29.9529   44.0065 H   0  0  0  0  0  0  0  0  0  0  0  0
   58.8265   29.4623   43.3410 H   0  0  0  0  0  0  0  0  0  0  0  0
   57.4792   25.4385   47.1086 H   0  0  0  0  0  0  0  0  0  0  0  0
   57.7194   24.8007   44.5647 H   0  0  0  0  0  0  0  0  0  0  0  0
   58.9206   26.0965   42.3854 H   0  0  0  0  0  0  0  0  0  0  0  0
   57.1761   26.4839   42.2031 H   0  0  0  0  0  0  0  0  0  0  0  0
   58.3941   27.8042   42.2031 H   0  0  0  0  0  0  0  0  0  0  0  0
   56.7027   31.9676   44.4414 H   0  0  0  0  0  0  0  0  0  0  0  0
   56.4330   34.3161   45.2969 H   0  0  0  0  0  0  0  0  0  0  0  0
   58.1119   35.2870   46.8703 H   0  0  0  0  0  0  0  0  0  0  0  0
   60.9617   34.9498   49.5414 H   0  0  0  0  0  0  0  0  0  0  0  0
   59.1715   34.8987   49.2760 H   0  0  0  0  0  0  0  0  0  0  0  0
   58.2244   32.4015   49.0459 H   0  0  0  0  0  0  0  0  0  0  0  0
   59.6791   29.8571   52.2215 H   0  0  0  0  0  0  0  0  0  0  0  0
   61.5933   31.4074   52.5951 H   0  0  0  0  0  0  0  0  0  0  0  0
  1  2  1  0
  2  3  1  0
  3  4  1  0
  4  5  2  0
  4  6  1  0
  6  7  2  0
  6  8  1  0
  8  9  1  0
  9 10  2  0
  9 11  1  0
 11 12  2  0
 12 13  1  0
 13 14  1  0
 14 15  1  0
 15 16  1  0
 16 17  1  0
 17 18  2  0
 18 19  1  0
 19 20  1  0
 13 21  1  0
 21 22  2  0
 22 23  1  0
 23 24  2  0
 24 25  1  0
 25 26  1  0
 26 27  1  0
 27 28  1  0
 28 29  2  0
 29 30  1  0
 30 31  1  0
 30 32  2  0
 32 33  1  0
 33 34  2  0
 34 35  1  0
 25 36  2  0
 36 11  1  0
 19 15  2  0
 36 21  1  0
 34 28  1  0
  1 37  1  0
  1 38  1  0
  1 39  1  0
  2 40  1  0
  2 41  1  0
  8 42  1  0
  8 43  1  0
 12 44  1  0
 14 45  1  0
 14 46  1  0
 17 47  1  0
 18 48  1  0
 20 49  1  0
 20 50  1  0
 20 51  1  0
 22 52  1  0
 23 53  1  0
 24 54  1  0
 27 55  1  0
 27 56  1  0
 29 57  1  0
 32 58  1  0
 33 59  1  0
M  END
>  <UniqueID>  (79) 
73

>  <SMILES>  (79) 
CCOC(=O)C(=O)CC(=O)c1cn(Cc2sccc2C)c2cccc(OCc3cc(F)ccc3Cl)c12

>  <Energy>  (79) 
117.57987043245846

>  <Genealogy>  (79) 
CCOC(=O)C(=O)CC(=O)c1cn(Cc2sccc2C)c2cccc(OCc3cc(F)ccc3Cl)c12 (3D coordinates assigned)
CCOC(=O)C(=O)CC(=O)c1cn(Cc2sccc2C)c2cccc(OCc3cc(F)ccc3Cl)c12 (optimized conformer: 117.57987043245846 kcal/mol)

>  <smiles>  (79) 
CCOC(=O)C(=O)CC(=O)c1cn(Cc2sccc2C)c2cccc(OCc3cc(F)ccc3Cl)c12

>  <score_type>  (79) 
oracle

>  <origin>  (79) 
adg

>  <m_score__min__energy>  (79) 
-9.1300000000000008

>  <m_primary>  (79) 
energy

$$$$
79:0
     RDKit          3D

 27 29  0  0  0  0  0  0  0  0999 V2000
   57.7902   31.7182   43.2663 H   0  0  0  0  0  0  0  0  0  0  0  0
   57.8980   31.4180   44.3190 C   0  0  0  0  0  0  0  0  0  0  0  0
   57.5240   30.1710   44.6480 C   0  0  0  0  0  0  0  0  0  0  0  0
   58.6390   28.8600   45.1800 S   0  0  0  0  0  0  0  0  0  0  0  0
   57.1910   27.8570   45.5300 C   0  0  0  0  0  0  0  0  0  0  0  0
   57.3000   26.4530   46.3550 S   0  0  0  0  0  0  0  0  0  0  0  0
   55.9320   28.4530   45.2530 N   0  0  0  0  0  0  0  0  0  0  0  0
   56.1250   29.7600   44.7450 C   0  0  0  0  0  0  0  0  0  0  0  0
   55.1550   30.4940   44.4190 O   0  0  0  0  0  0  0  0  0  0  0  0
   58.4420   32.4170   45.2580 C   0  0  0  0  0  0  0  0  0  0  0  0
   59.6450   32.3210   45.7730 O   0  0  0  0  0  0  0  0  0  0  0  0
   59.8390   33.3300   46.5940 C   0  0  0  0  0  0  0  0  0  0  0  0
   61.0830   33.5170   47.3710 C   0  0  0  0  0  0  0  0  0  0  0  0
   62.2920   33.6520   46.6660 C   0  0  0  0  0  0  0  0  0  0  0  0
   62.2868   33.6314   45.5662 H   0  0  0  0  0  0  0  0  0  0  0  0
   63.4990   33.8120   47.3490 C   0  0  0  0  0  0  0  0  0  0  0  0
   64.4395   33.9067   46.7864 H   0  0  0  0  0  0  0  0  0  0  0  0
   63.5150   33.8520   48.7430 C   0  0  0  0  0  0  0  0  0  0  0  0
   64.4684   33.9678   49.2793 H   0  0  0  0  0  0  0  0  0  0  0  0
   62.3210   33.7450   49.4570 C   0  0  0  0  0  0  0  0  0  0  0  0
   62.3365   33.7882   50.5560 H   0  0  0  0  0  0  0  0  0  0  0  0
   61.1030   33.5830   48.7850 C   0  0  0  0  0  0  0  0  0  0  0  0
   59.6330   33.5680   49.7560 Cl  0  0  0  0  0  0  0  0  0  0  0  0
   58.7000   34.1150   46.6410 C   0  0  0  0  0  0  0  0  0  0  0  0
   58.5460   35.0236   47.2417 H   0  0  0  0  0  0  0  0  0  0  0  0
   57.7990   33.5260   45.7820 C   0  0  0  0  0  0  0  0  0  0  0  0
   56.7774   33.8668   45.5579 H   0  0  0  0  0  0  0  0  0  0  0  0
  1  2  1  0
  2  3  2  0
  3  4  1  0
  4  5  1  0
  5  6  2  0
  5  7  1  0
  7  8  1  0
  8  9  2  0
  2 10  1  0
 10 11  1  0
 11 12  1  0
 12 13  1  0
 13 14  2  0
 14 15  1  0
 14 16  1  0
 16 17  1  0
 16 18  2  0
 18 19  1  0
 18 20  1  0
 20 21  1  0
 20 22  2  0
 22 23  1  0
 12 24  2  0
 24 25  1  0
 24 26  1  0
 26 27  1  0
  8  3  1  0
 26 10  2  0
 22 13  1  0
M  CHG  1   7  -1
M  END
>  <UniqueID>  (80) 
74

>  <SMILES>  (80) 
O=C1[N-]C(=S)S/C1=C\c1ccc(-c2ccccc2Cl)o1

>  <Energy>  (80) 
83.97581096419556

>  <Genealogy>  (80) 
O=C1[N-]C(=S)SC1=Cc1ccc(-c2ccccc2Cl)o1 (protonated)
O=C1[N-]C(=S)S/C1=C\c1ccc(-c2ccccc2Cl)o1 (cis-trans isomerization)
O=C1[N-]C(=S)S/C1=C\c1ccc(-c2ccccc2Cl)o1 (3D coordinates assigned)
O=C1[N-]C(=S)S/C1=C\c1ccc(-c2ccccc2Cl)o1 (nonaromatic ring conformer: 83.97581096419556 kcal/mol)

>  <smiles>  (80) 
O=C1NC(=S)SC1=Cc1ccc(-c2ccccc2Cl)o1

>  <score_type>  (80) 
oracle

>  <origin>  (80) 
adg

>  <m_score__min__energy>  (80) 
-10.17

>  <m_primary>  (80) 
energy

$$$$
80:0
     RDKit          3D

 32 33  0  0  0  0  0  0  0  0999 V2000
   56.8330   21.8900   42.7300 C   0  0  0  0  0  0  0  0  0  0  0  0
   56.3880   22.0270   44.1590 C   0  0  0  0  0  0  0  0  0  0  0  0
   56.4810   23.2680   44.8060 C   0  0  0  0  0  0  0  0  0  0  0  0
   56.0660   23.4120   46.1380 C   0  0  0  0  0  0  0  0  0  0  0  0
   56.1510   24.6710   46.8210 N   0  0  0  0  0  0  0  0  0  0  0  0
   55.9320   25.9660   46.2440 C   0  0  0  0  0  0  0  0  0  0  0  0
   54.7500   26.3220   45.9950 O   0  0  0  0  0  0  0  0  0  0  0  0
   57.0570   26.8590   45.8760 C   0  0  0  0  0  0  0  0  0  0  0  0
   58.3830   26.4150   46.0230 C   0  0  0  0  0  0  0  0  0  0  0  0
   59.4510   27.2460   45.6790 C   0  0  0  0  0  0  0  0  0  0  0  0
   59.2100   28.5250   45.1770 C   0  0  0  0  0  0  0  0  0  0  0  0
   57.8990   28.9800   45.0140 C   0  0  0  0  0  0  0  0  0  0  0  0
   57.6190   30.5940   44.3810 Cl  0  0  0  0  0  0  0  0  0  0  0  0
   56.8190   28.1520   45.3610 C   0  0  0  0  0  0  0  0  0  0  0  0
   55.5190   28.6230   45.2090 O   0  0  0  0  0  0  0  0  0  0  0  0
   55.6050   22.2950   46.8380 C   0  0  0  0  0  0  0  0  0  0  0  0
   55.5140   21.0400   46.2140 C   0  0  0  0  0  0  0  0  0  0  0  0
   55.0010   19.8610   46.9960 C   0  0  0  0  0  0  0  0  0  0  0  0
   55.9070   20.9060   44.8630 C   0  0  0  0  0  0  0  0  0  0  0  0
   55.8350   19.6750   44.2020 O   0  0  0  0  0  0  0  0  0  0  0  0
   57.8840   21.5664   42.7027 H   0  0  0  0  0  0  0  0  0  0  0  0
   56.2061   21.1433   42.2207 H   0  0  0  0  0  0  0  0  0  0  0  0
   56.7346   22.8600   42.2207 H   0  0  0  0  0  0  0  0  0  0  0  0
   56.8832   24.1364   44.2637 H   0  0  0  0  0  0  0  0  0  0  0  0
   58.5805   25.4052   46.4120 H   0  0  0  0  0  0  0  0  0  0  0  0
   60.4847   26.8913   45.8041 H   0  0  0  0  0  0  0  0  0  0  0  0
   60.0543   29.1771   44.9088 H   0  0  0  0  0  0  0  0  0  0  0  0
   55.3092   22.3995   47.8923 H   0  0  0  0  0  0  0  0  0  0  0  0
   55.0910   20.0679   48.0726 H   0  0  0  0  0  0  0  0  0  0  0  0
   53.9449   19.6850   46.7435 H   0  0  0  0  0  0  0  0  0  0  0  0
   55.5921   18.9683   46.7435 H   0  0  0  0  0  0  0  0  0  0  0  0
   56.6430   19.2080   43.8100 H   0  0  0  0  0  0  0  0  0  0  0  0
  1  2  1  0
  2  3  2  0
  3  4  1  0
  4  5  1  0
  5  6  1  0
  6  7  2  0
  6  8  1  0
  8  9  2  0
  9 10  1  0
 10 11  2  0
 11 12  1  0
 12 13  1  0
 12 14  2  0
 14 15  1  0
  4 16  2  0
 16 17  1  0
 17 18  1  0
 17 19  2  0
 19 20  1  0
 19  2  1  0
 14  8  1  0
  1 21  1  0
  1 22  1  0
  1 23  1  0
  3 24  1  0
  9 25  1  0
 10 26  1  0
 11 27  1  0
 16 28  1  0
 18 29  1  0
 18 30  1  0
 18 31  1  0
 20 32  1  0
M  CHG  2   5  -1  15  -1
M  END
>  <UniqueID>  (81) 
75

>  <SMILES>  (81) 
Cc1cc([N-]C(=O)c2cccc(Cl)c2[O-])cc(C)c1O

>  <Energy>  (81) 
41.15946834293205

>  <Genealogy>  (81) 
Cc1cc([N-]C(=O)c2cccc(Cl)c2[O-])cc(C)c1O (protonated)
Cc1cc([N-]C(=O)c2cccc(Cl)c2[O-])cc(C)c1O (3D coordinates assigned)
Cc1cc([N-]C(=O)c2cccc(Cl)c2[O-])cc(C)c1O (optimized conformer: 41.15946834293205 kcal/mol)

>  <smiles>  (81) 
Cc1cc(NC(=O)c2cccc(Cl)c2O)cc(C)c1O

>  <score_type>  (81) 
oracle

>  <origin>  (81) 
adg

>  <m_score__min__energy>  (81) 
-12.550000000000001

>  <m_primary>  (81) 
energy

$$$$
81:0
     RDKit          3D

 43 47  0  0  0  0  0  0  0  0999 V2000
   53.8654   24.3967   45.9129 H   0  0  0  0  0  0  0  0  0  0  0  0
   54.8630   24.8360   45.7650 C   0  0  0  0  0  0  0  0  0  0  0  0
   55.1250   26.1490   46.0070 N   0  0  0  0  0  0  0  0  0  0  0  0
   56.4140   26.4540   45.7530 C   0  0  0  0  0  0  0  0  0  0  0  0
   56.8860   27.6510   45.9140 N   0  0  0  0  0  0  0  0  0  0  0  0
   56.6280   28.9610   44.8060 S   0  0  0  0  0  0  0  0  0  0  0  0
   57.0420   28.5320   43.4260 O   0  0  0  0  0  0  0  0  0  0  0  0
   55.1760   29.3510   44.7970 O   0  0  0  0  0  0  0  0  0  0  0  0
   57.5890   30.3440   45.3250 C   0  0  0  0  0  0  0  0  0  0  0  0
   57.5290   31.5550   44.6210 C   0  0  0  0  0  0  0  0  0  0  0  0
   56.8845   31.6415   43.7338 H   0  0  0  0  0  0  0  0  0  0  0  0
   58.2850   32.6530   45.0420 C   0  0  0  0  0  0  0  0  0  0  0  0
   59.1440   32.5440   46.1490 C   0  0  0  0  0  0  0  0  0  0  0  0
   59.1810   31.3350   46.8700 C   0  0  0  0  0  0  0  0  0  0  0  0
   59.8194   31.2489   47.7617 H   0  0  0  0  0  0  0  0  0  0  0  0
   58.4100   30.2430   46.4580 C   0  0  0  0  0  0  0  0  0  0  0  0
   58.4670   29.0860   47.1660 F   0  0  0  0  0  0  0  0  0  0  0  0
   59.9590   33.6850   46.5110 N   0  0  0  0  0  0  0  0  0  0  0  0
   60.9150   33.6180   47.5810 C   0  0  0  0  0  0  0  0  0  0  0  0
   60.5070   33.8920   48.9080 C   0  0  0  0  0  0  0  0  0  0  0  0
   59.4564   34.1449   49.1138 H   0  0  0  0  0  0  0  0  0  0  0  0
   61.4320   33.8440   49.9660 C   0  0  0  0  0  0  0  0  0  0  0  0
   61.1230   34.0498   51.0015 H   0  0  0  0  0  0  0  0  0  0  0  0
   62.7530   33.5270   49.6580 C   0  0  0  0  0  0  0  0  0  0  0  0
   63.8600   33.4070   50.4700 C   0  0  0  0  0  0  0  0  0  0  0  0
   63.9070   33.5434   51.5605 H   0  0  0  0  0  0  0  0  0  0  0  0
   64.9060   33.0760   49.6130 C   0  0  0  0  0  0  0  0  0  0  0  0
   65.9450   32.9053   49.9314 H   0  0  0  0  0  0  0  0  0  0  0  0
   64.4700   32.9930   48.3350 N   0  0  0  0  0  0  0  0  0  0  0  0
   65.0410   32.7610   47.4920 H   0  0  0  0  0  0  0  0  0  0  0  0
   63.1560   33.2690   48.3760 C   0  0  0  0  0  0  0  0  0  0  0  0
   62.2650   33.3090   47.3050 C   0  0  0  0  0  0  0  0  0  0  0  0
   62.6025   33.1064   46.2778 H   0  0  0  0  0  0  0  0  0  0  0  0
   60.0260   34.8420   45.6090 C   0  0  0  0  0  0  0  0  0  0  0  0
   60.3022   35.7357   46.1877 H   0  0  0  0  0  0  0  0  0  0  0  0
   60.7795   34.6426   44.8328 H   0  0  0  0  0  0  0  0  0  0  0  0
   58.6730   35.0790   44.9330 C   0  0  0  0  0  0  0  0  0  0  0  0
   57.9521   35.4408   45.6810 H   0  0  0  0  0  0  0  0  0  0  0  0
   58.7974   35.8273   44.1364 H   0  0  0  0  0  0  0  0  0  0  0  0
   58.1870   33.8670   44.3590 O   0  0  0  0  0  0  0  0  0  0  0  0
   57.2810   25.1100   45.2190 S   0  0  0  0  0  0  0  0  0  0  0  0
   55.9480   24.0890   45.3170 C   0  0  0  0  0  0  0  0  0  0  0  0
   55.9361   23.0172   45.0699 H   0  0  0  0  0  0  0  0  0  0  0  0
  1  2  1  0
  2  3  1  0
  3  4  1  0
  4  5  2  0
  5  6  1  0
  6  7  2  0
  6  8  2  0
  6  9  1  0
  9 10  2  0
 10 11  1  0
 10 12  1  0
 12 13  2  0
 13 14  1  0
 14 15  1  0
 14 16  2  0
 16 17  1  0
 13 18  1  0
 18 19  1  0
 19 20  2  0
 20 21  1  0
 20 22  1  0
 22 23  1  0
 22 24  2  0
 24 25  1  0
 25 26  1  0
 25 27  2  0
 27 28  1  0
 27 29  1  0
 29 30  1  0
 29 31  1  0
 31 32  2  0
 32 33  1  0
 18 34  1  0
 34 35  1  0
 34 36  1  0
 34 37  1  0
 37 38  1  0
 37 39  1  0
 37 40  1  0
  4 41  1  0
 41 42  1  0
 42 43  1  0
 42  2  2  0
 16  9  1  0
 32 19  1  0
 40 12  1  0
 31 24  1  0
M  CHG  1   3  -1
M  END
>  <UniqueID>  (82) 
76

>  <SMILES>  (82) 
O=S(=O)(/N=c1/[n-]ccs1)c1cc2c(cc1F)N(c1ccc3cc[nH]c3c1)CCO2

>  <Energy>  (82) 
125.00602865964275

>  <Genealogy>  (82) 
O=S(=O)(N=c1[n-]ccs1)c1cc2c(cc1F)N(c1ccc3cc[nH]c3c1)CCO2 (protonated)
O=S(=O)(/N=c1/[n-]ccs1)c1cc2c(cc1F)N(c1ccc3cc[nH]c3c1)CCO2 (cis-trans isomerization)
O=S(=O)(/N=c1/[n-]ccs1)c1cc2c(cc1F)N(c1ccc3cc[nH]c3c1)CCO2 (3D coordinates assigned)
O=S(=O)(/N=c1/[n-]ccs1)c1cc2c(cc1F)N(c1ccc3cc[nH]c3c1)CCO2 (nonaromatic ring conformer: 125.00602865964275 kcal/mol)

>  <smiles>  (82) 
O=S(=O)(N=c1[nH]ccs1)c1cc2c(cc1F)N(c1ccc3cc[nH]c3c1)CCO2

>  <score_type>  (82) 
oracle

>  <origin>  (82) 
adg

>  <m_score__min__energy>  (82) 
-11.470000000000001

>  <m_primary>  (82) 
energy

$$$$
82:0
     RDKit          3D

 41 43  0  0  0  0  0  0  0  0999 V2000
   58.9200   30.9970   49.5210 C   0  0  0  0  0  0  0  0  0  0  0  0
   59.7550   29.7310   49.6740 C   0  0  0  0  0  0  0  0  0  0  0  0
   59.0780   28.6110   49.1080 O   0  0  0  0  0  0  0  0  0  0  0  0
   59.0170   28.3650   47.7320 C   0  0  0  0  0  0  0  0  0  0  0  0
   59.3510   29.2590   46.9060 O   0  0  0  0  0  0  0  0  0  0  0  0
   58.5200   27.0230   47.2470 C   0  0  2  0  0  0  0  0  0  0  0  0
   59.5550   26.2460   46.4450 C   0  0  0  0  0  0  0  0  0  0  0  0
   61.0260   26.4680   46.6470 C   0  0  0  0  0  0  0  0  0  0  0  0
   59.1750   25.2620   45.6810 N   0  0  0  0  0  0  0  0  0  0  0  0
   57.7980   24.9350   45.4550 C   0  0  0  0  0  0  0  0  0  0  0  0
   57.4630   23.7470   44.8030 C   0  0  0  0  0  0  0  0  0  0  0  0
   56.1180   23.4400   44.5830 C   0  0  0  0  0  0  0  0  0  0  0  0
   55.8070   22.3670   44.0020 O   0  0  0  0  0  0  0  0  0  0  0  0
   55.1440   24.3000   44.9940 N   0  0  0  0  0  0  0  0  0  0  0  0
   55.4430   25.4730   45.6190 C   0  0  0  0  0  0  0  0  0  0  0  0
   54.4150   26.3330   45.9920 O   0  0  0  0  0  0  0  0  0  0  0  0
   56.7830   25.8110   45.8770 C   0  0  0  0  0  0  0  0  0  0  0  0
   57.1680   27.1410   46.4880 C   0  0  2  0  0  0  0  0  0  0  0  0
   57.1790   28.2050   45.4170 C   0  0  0  0  0  0  0  0  0  0  0  0
   57.5400   28.0410   44.0890 C   0  0  0  0  0  0  0  0  0  0  0  0
   57.4140   29.2850   43.5100 C   0  0  0  0  0  0  0  0  0  0  0  0
   56.9820   30.1240   44.5170 C   0  0  0  0  0  0  0  0  0  0  0  0
   56.7270   31.5870   44.3790 C   0  0  0  0  0  0  0  0  0  0  0  0
   56.8560   29.4580   45.6410 O   0  0  0  0  0  0  0  0  0  0  0  0
   58.6618   31.3884   50.5160 H   0  0  0  0  0  0  0  0  0  0  0  0
   59.4975   31.7526   48.9683 H   0  0  0  0  0  0  0  0  0  0  0  0
   57.9980   30.7636   48.9683 H   0  0  0  0  0  0  0  0  0  0  0  0
   60.7178   29.8688   49.1601 H   0  0  0  0  0  0  0  0  0  0  0  0
   59.9187   29.5418   50.7452 H   0  0  0  0  0  0  0  0  0  0  0  0
   58.3378   26.4293   48.1550 H   0  0  0  0  0  0  0  0  0  0  0  0
   61.2473   26.5014   47.7240 H   0  0  0  0  0  0  0  0  0  0  0  0
   61.5883   25.6445   46.1825 H   0  0  0  0  0  0  0  0  0  0  0  0
   61.3202   27.4207   46.1825 H   0  0  0  0  0  0  0  0  0  0  0  0
   58.2515   23.0583   44.4653 H   0  0  0  0  0  0  0  0  0  0  0  0
   54.1420   24.0620   44.8160 H   0  0  0  0  0  0  0  0  0  0  0  0
   56.4212   27.4409   47.2379 H   0  0  0  0  0  0  0  0  0  0  0  0
   57.8608   27.1101   43.5986 H   0  0  0  0  0  0  0  0  0  0  0  0
   57.6158   29.5536   42.4626 H   0  0  0  0  0  0  0  0  0  0  0  0
   56.6478   32.0412   45.3777 H   0  0  0  0  0  0  0  0  0  0  0  0
   57.5574   32.0536   43.8288 H   0  0  0  0  0  0  0  0  0  0  0  0
   55.7877   31.7452   43.8288 H   0  0  0  0  0  0  0  0  0  0  0  0
  1  2  1  0
  2  3  1  0
  3  4  1  0
  4  5  2  0
  4  6  1  0
  6  7  1  0
  7  8  1  0
  7  9  2  0
  9 10  1  0
 10 11  2  0
 11 12  1  0
 12 13  2  0
 12 14  1  0
 14 15  1  0
 15 16  1  0
 15 17  2  0
 17 18  1  0
 18 19  1  0
 19 20  2  0
 20 21  1  0
 21 22  2  0
 22 23  1  0
 22 24  1  0
 18  6  1  0
 24 19  1  0
 17 10  1  0
  1 25  1  0
  1 26  1  0
  1 27  1  0
  2 28  1  0
  2 29  1  0
  6 30  1  1
  8 31  1  0
  8 32  1  0
  8 33  1  0
 11 34  1  0
 14 35  1  0
 18 36  1  1
 20 37  1  0
 21 38  1  0
 23 39  1  0
 23 40  1  0
 23 41  1  0
M  CHG  1  16  -1
M  END
>  <UniqueID>  (83) 
77

>  <SMILES>  (83) 
CCOC(=O)[C@@H]1C(C)=Nc2cc(=O)[nH]c([O-])c2[C@@H]1c1ccc(C)o1

>  <Energy>  (83) 
67.24457954419614

>  <Genealogy>  (83) 
CCOC(=O)C1C(C)=Nc2cc(=O)[nH]c([O-])c2C1c1ccc(C)o1 (protonated)
CCOC(=O)[C@@H]1C(C)=Nc2cc(=O)[nH]c([O-])c2[C@@H]1c1ccc(C)o1 (chirality)
CCOC(=O)[C@@H]1C(C)=Nc2cc(=O)[nH]c([O-])c2[C@@H]1c1ccc(C)o1 (3D coordinates assigned)
CCOC(=O)[C@@H]1C(C)=Nc2cc(=O)[nH]c([O-])c2[C@@H]1c1ccc(C)o1 (nonaromatic ring conformer: 67.24457954419614 kcal/mol)

>  <smiles>  (83) 
CCOC(=O)C1C(C)=Nc2cc(=O)[nH]c(O)c2C1c1ccc(C)o1

>  <score_type>  (83) 
oracle

>  <origin>  (83) 
adg

>  <m_score__min__energy>  (83) 
-10.81

>  <m_primary>  (83) 
energy

$$$$
83:0
     RDKit          3D

 34 35  0  0  0  0  0  0  0  0999 V2000
   61.1100   33.9400   47.8570 O   0  0  0  0  0  0  0  0  0  0  0  0
   60.9340   32.7040   47.6950 C   0  0  0  0  0  0  0  0  0  0  0  0
   60.6890   32.1780   46.3870 N   0  0  0  0  0  0  0  0  0  0  0  0
   59.5050   31.4030   46.0290 C   0  0  0  0  0  0  0  0  0  0  0  0
   59.8500   29.9240   45.8080 C   0  0  0  0  0  0  0  0  0  0  0  0
   58.6180   29.0460   45.8370 C   0  0  0  0  0  0  0  0  0  0  0  0
   57.4180   29.5510   45.3030 C   0  0  0  0  0  0  0  0  0  0  0  0
   56.2630   28.7640   45.2750 C   0  0  0  0  0  0  0  0  0  0  0  0
   55.0890   29.2810   44.7390 O   0  0  0  0  0  0  0  0  0  0  0  0
   56.2910   27.4640   45.7830 C   0  0  0  0  0  0  0  0  0  0  0  0
   55.1460   26.6770   45.7550 O   0  0  0  0  0  0  0  0  0  0  0  0
   57.4720   26.9510   46.3230 C   0  0  0  0  0  0  0  0  0  0  0  0
   58.6360   27.7290   46.3560 C   0  0  0  0  0  0  0  0  0  0  0  0
   60.2070   26.9290   47.1170 Br  0  0  0  0  0  0  0  0  0  0  0  0
   61.0420   31.8330   48.8260 N   0  0  0  0  0  0  0  0  0  0  0  0
   59.9800   31.4290   49.7030 C   0  0  0  0  0  0  0  0  0  0  0  0
   59.8710   30.1160   50.1930 C   0  0  0  0  0  0  0  0  0  0  0  0
   58.8050   29.7550   51.0190 C   0  0  0  0  0  0  0  0  0  0  0  0
   57.8160   30.6940   51.3620 C   0  0  0  0  0  0  0  0  0  0  0  0
   56.7150   30.3260   52.2120 N   0  0  0  0  0  0  0  0  0  0  0  0
   56.1350   31.1830   52.9100 O   0  0  0  0  0  0  0  0  0  0  0  0
   56.2830   29.0210   52.2690 O   0  0  0  0  0  0  0  0  0  0  0  0
   57.9150   32.0000   50.8500 C   0  0  0  0  0  0  0  0  0  0  0  0
   58.9830   32.3580   50.0220 C   0  0  0  0  0  0  0  0  0  0  0  0
   58.7671   31.4810   46.8411 H   0  0  0  0  0  0  0  0  0  0  0  0
   59.0970   31.8074   45.0909 H   0  0  0  0  0  0  0  0  0  0  0  0
   60.3407   29.8158   44.8295 H   0  0  0  0  0  0  0  0  0  0  0  0
   60.5155   29.6040   46.6233 H   0  0  0  0  0  0  0  0  0  0  0  0
   57.3885   30.5755   44.9035 H   0  0  0  0  0  0  0  0  0  0  0  0
   57.4883   25.9275   46.7258 H   0  0  0  0  0  0  0  0  0  0  0  0
   60.6310   29.3677   49.9237 H   0  0  0  0  0  0  0  0  0  0  0  0
   58.7381   28.7271   51.4049 H   0  0  0  0  0  0  0  0  0  0  0  0
   57.1465   32.7453   51.1028 H   0  0  0  0  0  0  0  0  0  0  0  0
   59.0403   33.3793   49.6175 H   0  0  0  0  0  0  0  0  0  0  0  0
  1  2  2  0
  2  3  1  0
  3  4  1  0
  4  5  1  0
  5  6  1  0
  6  7  2  0
  7  8  1  0
  8  9  1  0
  8 10  2  0
 10 11  1  0
 10 12  1  0
 12 13  2  0
 13 14  1  0
  2 15  1  0
 15 16  1  0
 16 17  2  0
 17 18  1  0
 18 19  2  0
 19 20  1  0
 20 21  2  0
 20 22  1  0
 19 23  1  0
 23 24  2  0
 13  6  1  0
 24 16  1  0
  4 25  1  0
  4 26  1  0
  5 27  1  0
  5 28  1  0
  7 29  1  0
 12 30  1  0
 17 31  1  0
 18 32  1  0
 23 33  1  0
 24 34  1  0
M  CHG  6   3  -1   9  -1  11  -1  15  -1  20   1  22  -1
M  END
>  <UniqueID>  (84) 
78

>  <SMILES>  (84) 
O=C([N-]CCc1cc([O-])c([O-])cc1Br)[N-]c1ccc([N+](=O)[O-])cc1

>  <Energy>  (84) 
35.569906928605825

>  <Genealogy>  (84) 
O=C([N-]CCc1cc([O-])c([O-])cc1Br)[N-]c1ccc([N+](=O)[O-])cc1 (protonated)
O=C([N-]CCc1cc([O-])c([O-])cc1Br)[N-]c1ccc([N+](=O)[O-])cc1 (3D coordinates assigned)
O=C([N-]CCc1cc([O-])c([O-])cc1Br)[N-]c1ccc([N+](=O)[O-])cc1 (optimized conformer: 35.569906928605825 kcal/mol)

>  <smiles>  (84) 
O=C(NCCc1cc(O)c(O)cc1Br)Nc1ccc([N+](=O)[O-])cc1

>  <score_type>  (84) 
oracle

>  <origin>  (84) 
adg

>  <m_score__min__energy>  (84) 
-16.219999999999999

>  <m_primary>  (84) 
energy

$$$$
84:0
     RDKit          3D

 39 40  0  0  0  0  0  0  0  0999 V2000
   60.1770   34.5810   48.2910 C   0  0  0  0  0  0  0  0  0  0  0  0
   59.3330   34.0370   47.1670 C   0  0  0  0  0  0  0  0  0  0  0  0
   59.2260   34.7780   45.9760 C   0  0  0  0  0  0  0  0  0  0  0  0
   58.4340   34.3200   44.9220 C   0  0  0  0  0  0  0  0  0  0  0  0
   57.7420   33.1160   45.0400 C   0  0  0  0  0  0  0  0  0  0  0  0
   57.8440   32.3600   46.2090 C   0  0  0  0  0  0  0  0  0  0  0  0
   58.6420   32.8010   47.2800 C   0  0  0  0  0  0  0  0  0  0  0  0
   58.7410   31.9560   48.4930 C   0  0  0  0  0  0  0  0  0  0  0  0
   58.1990   32.3380   49.5660 O   0  0  0  0  0  0  0  0  0  0  0  0
   59.4460   30.7050   48.4540 N   0  0  0  0  0  0  0  0  0  0  0  0
   59.4600   29.7840   49.5870 C   0  0  0  0  0  0  0  0  0  0  0  0
   60.2290   28.5520   49.2320 C   0  0  0  0  0  0  0  0  0  0  0  0
   60.6330   27.7840   50.1460 O   0  0  0  0  0  0  0  0  0  0  0  0
   60.4960   28.2530   47.8570 N   0  0  0  0  0  0  0  0  0  0  0  0
   59.5070   28.0990   46.8270 C   0  0  0  0  0  0  0  0  0  0  0  0
   59.4430   28.9720   45.7280 C   0  0  0  0  0  0  0  0  0  0  0  0
   58.4510   28.8060   44.7580 C   0  0  0  0  0  0  0  0  0  0  0  0
   57.5110   27.7810   44.8810 C   0  0  0  0  0  0  0  0  0  0  0  0
   57.5480   26.9220   45.9890 C   0  0  0  0  0  0  0  0  0  0  0  0
   56.3710   25.6210   46.1500 S   0  0  0  0  0  0  0  0  0  0  0  0
   54.7630   26.2380   45.9940 N   0  0  0  0  0  0  0  0  0  0  0  0
   56.5070   24.9870   47.5060 O   0  0  0  0  0  0  0  0  0  0  0  0
   56.6210   24.5880   45.0880 O   0  0  0  0  0  0  0  0  0  0  0  0
   58.5450   27.0890   46.9600 C   0  0  0  0  0  0  0  0  0  0  0  0
   59.7322   34.2943   49.2554 H   0  0  0  0  0  0  0  0  0  0  0  0
   61.1939   34.1679   48.2190 H   0  0  0  0  0  0  0  0  0  0  0  0
   60.2208   35.6778   48.2190 H   0  0  0  0  0  0  0  0  0  0  0  0
   59.7718   35.7276   45.8744 H   0  0  0  0  0  0  0  0  0  0  0  0
   58.3559   34.9101   43.9970 H   0  0  0  0  0  0  0  0  0  0  0  0
   57.1139   32.7606   44.2099 H   0  0  0  0  0  0  0  0  0  0  0  0
   57.2951   31.4105   46.2934 H   0  0  0  0  0  0  0  0  0  0  0  0
   59.9100   30.4020   47.5680 H   0  0  0  0  0  0  0  0  0  0  0  0
   59.9347   30.2743   50.4497 H   0  0  0  0  0  0  0  0  0  0  0  0
   58.4264   29.5053   49.8399 H   0  0  0  0  0  0  0  0  0  0  0  0
   60.1749   29.7874   45.6310 H   0  0  0  0  0  0  0  0  0  0  0  0
   58.4105   29.4856   43.8940 H   0  0  0  0  0  0  0  0  0  0  0  0
   56.7402   27.6470   44.1077 H   0  0  0  0  0  0  0  0  0  0  0  0
   54.6980   27.0910   46.5930 H   0  0  0  0  0  0  0  0  0  0  0  0
   58.5724   26.4215   47.8339 H   0  0  0  0  0  0  0  0  0  0  0  0
  1  2  1  0
  2  3  2  0
  3  4  1  0
  4  5  2  0
  5  6  1  0
  6  7  2  0
  7  8  1  0
  8  9  2  0
  8 10  1  0
 10 11  1  0
 11 12  1  0
 12 13  2  0
 12 14  1  0
 14 15  1  0
 15 16  2  0
 16 17  1  0
 17 18  2  0
 18 19  1  0
 19 20  1  0
 20 21  1  0
 20 22  2  0
 20 23  2  0
 19 24  2  0
  7  2  1  0
 24 15  1  0
  1 25  1  0
  1 26  1  0
  1 27  1  0
  3 28  1  0
  4 29  1  0
  5 30  1  0
  6 31  1  0
 10 32  1  0
 11 33  1  0
 11 34  1  0
 16 35  1  0
 17 36  1  0
 18 37  1  0
 21 38  1  0
 24 39  1  0
M  CHG  2  14  -1  21  -1
M  END
>  <UniqueID>  (85) 
79

>  <SMILES>  (85) 
Cc1ccccc1C(=O)NCC(=O)[N-]c1cccc(S([NH-])(=O)=O)c1

>  <Energy>  (85) 
44.140106046704815

>  <Genealogy>  (85) 
Cc1ccccc1C(=O)NCC(=O)[N-]c1cccc(S([NH-])(=O)=O)c1 (protonated)
Cc1ccccc1C(=O)NCC(=O)[N-]c1cccc(S([NH-])(=O)=O)c1 (3D coordinates assigned)
Cc1ccccc1C(=O)NCC(=O)[N-]c1cccc(S([NH-])(=O)=O)c1 (optimized conformer: 44.140106046704815 kcal/mol)

>  <smiles>  (85) 
Cc1ccccc1C(=O)NCC(=O)Nc1cccc(S(N)(=O)=O)c1

>  <score_type>  (85) 
oracle

>  <origin>  (85) 
adg

>  <m_score__min__energy>  (85) 
-12.59

>  <m_primary>  (85) 
energy

$$$$
85:0
     RDKit          3D

 65 67  0  0  0  0  0  0  0  0999 V2000
   57.0400   27.5220   45.4050 C   0  0  0  0  0  0  0  0  0  0  0  0
   57.2700   28.9410   44.9680 C   0  0  0  0  0  0  0  0  0  0  0  0
   56.8090   29.3680   43.7110 C   0  0  0  0  0  0  0  0  0  0  0  0
   56.9930   30.6900   43.3040 C   0  0  0  0  0  0  0  0  0  0  0  0
   57.6250   31.6000   44.1500 C   0  0  0  0  0  0  0  0  0  0  0  0
   58.0740   31.1940   45.4080 C   0  0  0  0  0  0  0  0  0  0  0  0
   57.9050   29.8590   45.8300 C   0  0  0  0  0  0  0  0  0  0  0  0
   58.3330   29.4080   47.0920 O   0  0  0  0  0  0  0  0  0  0  0  0
   59.3640   29.9890   47.8930 C   0  0  0  0  0  0  0  0  0  0  0  0
   58.7870   30.6100   49.1670 C   0  0  0  0  0  0  0  0  0  0  0  0
   59.2200   29.8730   50.3560 N   0  0  0  0  0  0  0  0  0  0  0  0
   58.3270   30.3660   51.7670 S   0  0  0  0  0  0  0  0  0  0  0  0
   58.9020   29.7270   52.9990 O   0  0  0  0  0  0  0  0  0  0  0  0
   56.8950   29.9350   51.6160 O   0  0  0  0  0  0  0  0  0  0  0  0
   58.3940   32.1440   51.9300 C   0  0  0  0  0  0  0  0  0  0  0  0
   59.8210   32.6620   51.6990 C   0  0  0  0  0  0  0  0  0  0  0  0
   60.8110   32.1270   52.7540 C   0  0  0  0  0  0  0  0  0  0  0  0
   61.1890   30.7240   52.4890 N   0  0  0  0  0  0  0  0  0  0  0  0
   62.6150   30.5890   52.1190 C   0  0  0  0  0  0  0  0  0  0  0  0
   62.8700   31.1300   50.7360 C   0  0  0  0  0  0  0  0  0  0  0  0
   63.8300   32.1350   50.5380 C   0  0  0  0  0  0  0  0  0  0  0  0
   64.0370   32.6740   49.2660 C   0  0  0  0  0  0  0  0  0  0  0  0
   63.2770   32.2200   48.1710 C   0  0  0  0  0  0  0  0  0  0  0  0
   63.4510   32.7200   46.8700 O   0  0  0  0  0  0  0  0  0  0  0  0
   62.8980   33.9410   46.3760 C   0  0  0  0  0  0  0  0  0  0  0  0
   61.4320   34.0310   46.7080 C   0  0  0  0  0  0  0  0  0  0  0  0
   60.4610   33.9590   45.6960 C   0  0  0  0  0  0  0  0  0  0  0  0
   59.1020   34.0350   46.0180 C   0  0  0  0  0  0  0  0  0  0  0  0
   58.7040   34.1920   47.3480 C   0  0  0  0  0  0  0  0  0  0  0  0
   59.6650   34.2750   48.3590 C   0  0  0  0  0  0  0  0  0  0  0  0
   59.2780   34.4290   49.6500 F   0  0  0  0  0  0  0  0  0  0  0  0
   61.0250   34.1960   48.0420 C   0  0  0  0  0  0  0  0  0  0  0  0
   62.3030   31.2350   48.3770 C   0  0  0  0  0  0  0  0  0  0  0  0
   62.0980   30.6940   49.6500 C   0  0  0  0  0  0  0  0  0  0  0  0
   57.0321   27.4735   46.5039 H   0  0  0  0  0  0  0  0  0  0  0  0
   56.0732   27.1705   45.0155 H   0  0  0  0  0  0  0  0  0  0  0  0
   57.8463   26.8831   45.0155 H   0  0  0  0  0  0  0  0  0  0  0  0
   56.3003   28.6562   43.0443 H   0  0  0  0  0  0  0  0  0  0  0  0
   56.6389   31.0144   42.3144 H   0  0  0  0  0  0  0  0  0  0  0  0
   57.7703   32.6409   43.8254 H   0  0  0  0  0  0  0  0  0  0  0  0
   58.5627   31.9200   46.0743 H   0  0  0  0  0  0  0  0  0  0  0  0
   60.0873   29.2078   48.1697 H   0  0  0  0  0  0  0  0  0  0  0  0
   59.8555   30.7814   47.3094 H   0  0  0  0  0  0  0  0  0  0  0  0
   59.1299   31.6522   49.2457 H   0  0  0  0  0  0  0  0  0  0  0  0
   57.6893   30.5672   49.1101 H   0  0  0  0  0  0  0  0  0  0  0  0
   57.7211   32.5993   51.1884 H   0  0  0  0  0  0  0  0  0  0  0  0
   58.0823   32.4155   52.9494 H   0  0  0  0  0  0  0  0  0  0  0  0
   60.1576   32.3413   50.7021 H   0  0  0  0  0  0  0  0  0  0  0  0
   59.8002   33.7588   51.7798 H   0  0  0  0  0  0  0  0  0  0  0  0
   61.7180   32.7491   52.7391 H   0  0  0  0  0  0  0  0  0  0  0  0
   60.3192   32.1690   53.7371 H   0  0  0  0  0  0  0  0  0  0  0  0
   60.5680   30.3250   51.7470 H   0  0  0  0  0  0  0  0  0  0  0  0
   61.0200   30.1680   53.3600 H   0  0  0  0  0  0  0  0  0  0  0  0
   63.2281   31.1472   52.8418 H   0  0  0  0  0  0  0  0  0  0  0  0
   62.8795   29.5213   52.1308 H   0  0  0  0  0  0  0  0  0  0  0  0
   64.4228   32.5002   51.3896 H   0  0  0  0  0  0  0  0  0  0  0  0
   64.7965   33.4560   49.1192 H   0  0  0  0  0  0  0  0  0  0  0  0
   63.4257   34.7893   46.8363 H   0  0  0  0  0  0  0  0  0  0  0  0
   63.0165   33.9674   45.2827 H   0  0  0  0  0  0  0  0  0  0  0  0
   60.7702   33.8425   44.6468 H   0  0  0  0  0  0  0  0  0  0  0  0
   58.3450   33.9710   45.2225 H   0  0  0  0  0  0  0  0  0  0  0  0
   57.6346   34.2502   47.5992 H   0  0  0  0  0  0  0  0  0  0  0  0
   61.7786   34.2634   48.8405 H   0  0  0  0  0  0  0  0  0  0  0  0
   61.6944   30.8841   47.5306 H   0  0  0  0  0  0  0  0  0  0  0  0
   61.3278   29.9231   49.8000 H   0  0  0  0  0  0  0  0  0  0  0  0
  1  2  1  0
  2  3  2  0
  3  4  1  0
  4  5  2  0
  5  6  1  0
  6  7  2  0
  7  8  1  0
  8  9  1  0
  9 10  1  0
 10 11  1  0
 11 12  1  0
 12 13  2  0
 12 14  2  0
 12 15  1  0
 15 16  1  0
 16 17  1  0
 17 18  1  0
 18 19  1  0
 19 20  1  0
 20 21  2  0
 21 22  1  0
 22 23  2  0
 23 24  1  0
 24 25  1  0
 25 26  1  0
 26 27  2  0
 27 28  1  0
 28 29  2  0
 29 30  1  0
 30 31  1  0
 30 32  2  0
 23 33  1  0
 33 34  2  0
  7  2  1  0
 34 20  1  0
 32 26  1  0
  1 35  1  0
  1 36  1  0
  1 37  1  0
  3 38  1  0
  4 39  1  0
  5 40  1  0
  6 41  1  0
  9 42  1  0
  9 43  1  0
 10 44  1  0
 10 45  1  0
 15 46  1  0
 15 47  1  0
 16 48  1  0
 16 49  1  0
 17 50  1  0
 17 51  1  0
 18 52  1  0
 18 53  1  0
 19 54  1  0
 19 55  1  0
 21 56  1  0
 22 57  1  0
 25 58  1  0
 25 59  1  0
 27 60  1  0
 28 61  1  0
 29 62  1  0
 32 63  1  0
 33 64  1  0
 34 65  1  0
M  CHG  2  11  -1  18   1
M  END
>  <UniqueID>  (86) 
80

>  <SMILES>  (86) 
Cc1ccccc1OCC[N-]S(=O)(=O)CCC[NH2+]Cc1ccc(OCc2cccc(F)c2)cc1

>  <Energy>  (86) 
57.4035273373507

>  <Genealogy>  (86) 
Cc1ccccc1OCC[N-]S(=O)(=O)CCC[NH2+]Cc1ccc(OCc2cccc(F)c2)cc1 (protonated)
Cc1ccccc1OCC[N-]S(=O)(=O)CCC[NH2+]Cc1ccc(OCc2cccc(F)c2)cc1 (3D coordinates assigned)
Cc1ccccc1OCC[N-]S(=O)(=O)CCC[NH2+]Cc1ccc(OCc2cccc(F)c2)cc1 (optimized conformer: 57.4035273373507 kcal/mol)

>  <smiles>  (86) 
Cc1ccccc1OCCNS(=O)(=O)CCCNCc1ccc(OCc2cccc(F)c2)cc1

>  <score_type>  (86) 
oracle

>  <origin>  (86) 
adg

>  <m_score__min__energy>  (86) 
-9.1600000000000001

>  <m_primary>  (86) 
energy

$$$$
86:0
     RDKit          3D

 51 54  0  0  1  0  0  0  0  0999 V2000
   61.8570   33.8250   46.4020 C   0  0  0  0  0  0  0  0  0  0  0  0
   62.2450   32.6630   47.1660 N   0  0  0  0  0  0  0  0  0  0  0  0
   63.6560   32.4780   47.4560 C   0  0  0  0  0  0  0  0  0  0  0  0
   61.3210   31.6930   47.6480 C   0  0  0  0  0  0  0  0  0  0  0  0
   61.2840   30.4890   46.9510 C   0  0  0  0  0  0  0  0  0  0  0  0
   60.3910   29.5090   47.3910 C   0  0  0  0  0  0  0  0  0  0  0  0
   60.3850   28.2910   46.6490 N   0  0  0  0  0  0  0  0  0  0  0  0
   59.5390   28.1300   45.7150 C   0  0  0  0  0  0  0  0  0  0  0  0
   59.2260   26.8500   45.2500 C   0  0  0  0  0  0  0  0  0  0  0  0
   58.3030   26.7710   44.2390 C   0  0  0  0  0  0  0  0  0  0  0  0
   57.6980   27.8370   43.6850 N   0  0  0  0  0  0  0  0  0  0  0  0
   58.0190   29.0780   44.1560 C   0  0  0  0  0  0  0  0  0  0  0  0
   57.2220   30.5020   43.4300 S   0  0  0  0  0  0  0  0  0  0  0  0
   57.7920   31.9470   44.3260 C   0  0  0  0  0  0  0  0  0  0  0  0
   58.1930   33.1040   43.6840 C   0  0  0  0  0  0  0  0  0  0  0  0
   58.6120   34.1500   44.4880 C   0  0  0  0  0  0  0  0  0  0  0  0
   58.6390   34.0740   45.8640 C   0  0  0  0  0  0  0  0  0  0  0  0
   58.2340   32.9100   46.4630 C   0  0  0  0  0  0  0  0  0  0  0  0
   57.8080   31.8390   45.7110 C   0  0  0  0  0  0  0  0  0  0  0  0
   57.4070   30.6790   46.3710 O   0  0  0  0  0  0  0  0  0  0  0  0
   58.9230   29.1820   45.1480 N   0  0  0  0  0  0  0  0  0  0  0  0
   59.5720   29.7280   48.4810 C   0  0  0  0  0  0  0  0  0  0  0  0
   59.6110   30.9260   49.1690 C   0  0  0  0  0  0  0  0  0  0  0  0
   60.5000   31.9090   48.7370 C   0  0  0  0  0  0  0  0  0  0  0  0
   60.5700   33.1840   49.4380 C   0  0  0  0  0  0  0  0  0  0  0  0
   59.6830   34.0340   49.3040 O   0  0  0  0  0  0  0  0  0  0  0  0
   61.6890   33.4870   50.3130 C   0  0  0  0  0  0  0  0  0  0  0  0
   62.7860   34.2460   50.1260 C   0  0  0  0  0  0  0  0  0  0  0  0
   63.6870   34.3650   51.1080 C   0  0  0  0  0  0  0  0  0  0  0  0
   63.4360   33.6900   52.2840 C   0  0  0  0  0  0  0  0  0  0  0  0
   61.8160   32.8170   51.9990 S   0  0  0  0  0  0  0  0  0  0  0  0
   61.5846   34.6406   47.0880 H   0  0  0  0  0  0  0  0  0  0  0  0
   62.6973   34.1443   45.7680 H   0  0  0  0  0  0  0  0  0  0  0  0
   60.9935   33.5754   45.7680 H   0  0  0  0  0  0  0  0  0  0  0  0
   63.8069   32.4582   48.5454 H   0  0  0  0  0  0  0  0  0  0  0  0
   63.9981   31.5273   47.0211 H   0  0  0  0  0  0  0  0  0  0  0  0
   64.2317   33.3084   47.0211 H   0  0  0  0  0  0  0  0  0  0  0  0
   61.9362   30.3148   46.0825 H   0  0  0  0  0  0  0  0  0  0  0  0
   59.6966   25.9506   45.6738 H   0  0  0  0  0  0  0  0  0  0  0  0
   58.0409   25.7733   43.8571 H   0  0  0  0  0  0  0  0  0  0  0  0
   57.0030   27.7010   42.9180 H   0  0  0  0  0  0  0  0  0  0  0  0
   58.1797   33.1892   42.5874 H   0  0  0  0  0  0  0  0  0  0  0  0
   58.9381   35.0840   44.0071 H   0  0  0  0  0  0  0  0  0  0  0  0
   58.9781   34.9287   46.4678 H   0  0  0  0  0  0  0  0  0  0  0  0
   58.2496   32.8305   47.5600 H   0  0  0  0  0  0  0  0  0  0  0  0
   57.9670   29.8300   46.3960 H   0  0  0  0  0  0  0  0  0  0  0  0
   58.8790   28.9381   48.8062 H   0  0  0  0  0  0  0  0  0  0  0  0
   58.9567   31.0995   50.0361 H   0  0  0  0  0  0  0  0  0  0  0  0
   62.9406   34.7662   49.1692 H   0  0  0  0  0  0  0  0  0  0  0  0
   64.5922   34.9771   50.9822 H   0  0  0  0  0  0  0  0  0  0  0  0
   64.0569   33.6713   53.1918 H   0  0  0  0  0  0  0  0  0  0  0  0
  1  2  1  0
  2  3  1  0
  2  4  1  0
  4  5  2  0
  5  6  1  0
  6  7  1  0
  7  8  2  0
  8  9  1  0
  9 10  2  0
 10 11  1  0
 11 12  1  0
 12 13  1  0
 13 14  1  0
 14 15  2  0
 15 16  1  0
 16 17  2  0
 17 18  1  0
 18 19  2  0
 19 20  1  0
 12 21  2  0
  6 22  2  0
 22 23  1  0
 23 24  2  0
 24 25  1  0
 25 26  2  0
 25 27  1  0
 27 28  2  0
 28 29  1  0
 29 30  2  0
 30 31  1  0
 24  4  1  0
 31 27  1  0
 21  8  1  0
 19 14  1  0
  1 32  1  0
  1 33  1  0
  1 34  1  0
  3 35  1  0
  3 36  1  0
  3 37  1  0
  5 38  1  0
  9 39  1  0
 10 40  1  0
 11 41  1  0
 15 42  1  0
 16 43  1  0
 17 44  1  0
 18 45  1  0
 20 46  1  0
 22 47  1  0
 23 48  1  0
 28 49  1  0
 29 50  1  0
 30 51  1  0
M  END
>  <smiles>  (87) 
CN(C)c1cc(N=c2cc[nH]c(Sc3ccccc3O)n2)ccc1C(=O)c1cccs1

>  <score_type>  (87) 
oracle

>  <origin>  (87) 
adg

>  <m_score__min__energy>  (87) 
-11.23

>  <m_primary>  (87) 
energy

$$$$
87:0
     RDKit          3D

 33 35  0  0  1  0  0  0  0  0999 V2000
   54.9440   24.6560   46.3230 O   0  0  0  0  0  0  0  0  0  0  0  0
   55.9540   25.4140   46.1750 C   0  0  0  0  0  0  0  0  0  0  0  0
   57.2080   24.9330   46.1880 N   0  0  0  0  0  0  0  0  0  0  0  0
   58.2360   25.7600   46.0340 C   0  0  0  0  0  0  0  0  0  0  0  0
   58.0660   27.1460   45.8540 C   0  0  0  0  0  0  0  0  0  0  0  0
   59.2680   27.9140   45.7270 C   0  0  0  0  0  0  0  0  0  0  0  0
   60.1070   28.2550   44.6660 C   0  0  0  0  0  0  0  0  0  0  0  0
   61.0550   29.1700   44.8920 C   0  0  0  0  0  0  0  0  0  0  0  0
   61.1870   29.7360   46.0960 C   0  0  0  0  0  0  0  0  0  0  0  0
   59.9020   28.9810   47.0850 S   0  0  0  0  0  0  0  0  0  0  0  0
   56.7770   27.5720   45.8410 C   0  0  0  0  0  0  0  0  0  0  0  0
   56.5060   28.7450   45.4560 N   0  0  0  0  0  0  0  0  0  0  0  0
   56.7100   29.2520   44.1290 C   0  0  0  0  0  0  0  0  0  0  0  0
   57.3550   30.6060   44.4600 C   0  0  0  0  0  0  0  0  0  0  0  0
   57.4590   31.4580   43.4030 C   0  0  0  0  0  0  0  0  0  0  0  0
   58.0420   32.6860   43.6400 C   0  0  0  0  0  0  0  0  0  0  0  0
   58.4840   32.9960   44.9070 C   0  0  0  0  0  0  0  0  0  0  0  0
   59.0460   34.2180   45.0770 F   0  0  0  0  0  0  0  0  0  0  0  0
   58.3850   32.1470   45.9830 C   0  0  0  0  0  0  0  0  0  0  0  0
   57.7910   30.9020   45.7280 C   0  0  0  0  0  0  0  0  0  0  0  0
   55.7160   26.7360   46.0020 N   0  0  0  0  0  0  0  0  0  0  0  0
   57.3780   23.9100   46.3190 H   0  0  0  0  0  0  0  0  0  0  0  0
   59.2557   25.3476   46.0476 H   0  0  0  0  0  0  0  0  0  0  0  0
   59.9924   27.7870   43.6772 H   0  0  0  0  0  0  0  0  0  0  0  0
   61.7347   29.4608   44.0775 H   0  0  0  0  0  0  0  0  0  0  0  0
   61.9201   30.4945   46.4079 H   0  0  0  0  0  0  0  0  0  0  0  0
   57.3855   28.6093   43.5453 H   0  0  0  0  0  0  0  0  0  0  0  0
   55.8030   29.3089   43.5092 H   0  0  0  0  0  0  0  0  0  0  0  0
   57.0941   31.1794   42.4034 H   0  0  0  0  0  0  0  0  0  0  0  0
   58.1531   33.4129   42.8219 H   0  0  0  0  0  0  0  0  0  0  0  0
   58.7491   32.4264   46.9827 H   0  0  0  0  0  0  0  0  0  0  0  0
   57.6752   30.1675   46.5387 H   0  0  0  0  0  0  0  0  0  0  0  0
   54.7420   27.1050   45.9920 H   0  0  0  0  0  0  0  0  0  0  0  0
  1  2  2  0
  2  3  1  0
  3  4  1  0
  4  5  2  0
  5  6  1  0
  6  7  2  0
  7  8  1  0
  8  9  2  0
  9 10  1  0
  5 11  1  0
 11 12  2  0
 12 13  1  0
 13 14  1  0
 14 15  2  0
 15 16  1  0
 16 17  2  0
 17 18  1  0
 17 19  1  0
 19 20  2  0
 11 21  1  0
 21  2  1  0
 10  6  1  0
 20 14  1  0
  3 22  1  0
  4 23  1  0
  7 24  1  0
  8 25  1  0
  9 26  1  0
 13 27  1  0
 13 28  1  0
 15 29  1  0
 16 30  1  0
 19 31  1  0
 20 32  1  0
 21 33  1  0
M  END
>  <smiles>  (88) 
O=c1[nH]cc(-c2cccs2)c(=NCc2ccc(F)cc2)[nH]1

>  <score_type>  (88) 
oracle

>  <origin>  (88) 
adg

>  <m_score__min__energy>  (88) 
-6.96

>  <m_primary>  (88) 
energy

$$$$
88:0
     RDKit          3D

 45 47  0  0  0  0  0  0  0  0999 V2000
   59.7740   29.6790   50.3010 O   0  0  0  0  0  0  0  0  0  0  0  0
   59.3780   29.8060   49.1080 C   0  0  0  0  0  0  0  0  0  0  0  0
   58.9350   31.0900   48.6450 N   0  0  0  0  0  0  0  0  0  0  0  0
   59.1440   32.3000   49.4410 C   0  0  0  0  0  0  0  0  0  0  0  0
   59.8070   33.4090   48.6160 C   0  0  0  0  0  0  0  0  0  0  0  0
   59.0310   33.6980   47.3610 C   0  0  0  0  0  0  0  0  0  0  0  0
   59.6100   34.4280   46.3130 C   0  0  0  0  0  0  0  0  0  0  0  0
   58.8760   34.6510   45.1460 C   0  0  0  0  0  0  0  0  0  0  0  0
   57.5810   34.1450   45.0330 C   0  0  0  0  0  0  0  0  0  0  0  0
   57.0370   33.4170   46.0930 C   0  0  0  0  0  0  0  0  0  0  0  0
   57.7670   33.2100   47.2220 N   0  0  0  0  0  0  0  0  0  0  0  0
   59.3690   28.6230   48.2140 C   0  0  0  0  0  0  0  0  0  0  0  0
   60.4930   27.7850   48.1090 C   0  0  0  0  0  0  0  0  0  0  0  0
   60.4660   26.6690   47.2690 C   0  0  0  0  0  0  0  0  0  0  0  0
   59.3180   26.3700   46.5340 C   0  0  0  0  0  0  0  0  0  0  0  0
   58.1850   27.1830   46.6410 C   0  0  0  0  0  0  0  0  0  0  0  0
   56.7260   26.7980   45.7320 S   0  0  0  0  0  0  0  0  0  0  0  0
   55.7780   25.9880   46.5730 O   0  0  0  0  0  0  0  0  0  0  0  0
   57.1080   26.0020   44.5160 O   0  0  0  0  0  0  0  0  0  0  0  0
   55.9320   28.2550   45.2290 N   0  0  0  0  0  0  0  0  0  0  0  0
   56.5570   29.3350   44.5240 C   0  0  0  0  0  0  0  0  0  0  0  0
   56.0590   29.6910   43.2630 C   0  0  0  0  0  0  0  0  0  0  0  0
   56.6450   30.7340   42.5380 C   0  0  0  0  0  0  0  0  0  0  0  0
   57.7340   31.4290   43.0690 C   0  0  0  0  0  0  0  0  0  0  0  0
   58.2360   31.0840   44.3260 C   0  0  0  0  0  0  0  0  0  0  0  0
   57.6530   30.0420   45.0550 C   0  0  0  0  0  0  0  0  0  0  0  0
   58.2130   28.3080   47.4770 C   0  0  0  0  0  0  0  0  0  0  0  0
   58.4170   31.1530   47.7390 H   0  0  0  0  0  0  0  0  0  0  0  0
   58.1708   32.6598   49.8064 H   0  0  0  0  0  0  0  0  0  0  0  0
   59.8098   32.0498   50.2801 H   0  0  0  0  0  0  0  0  0  0  0  0
   59.8589   34.3246   49.2235 H   0  0  0  0  0  0  0  0  0  0  0  0
   60.8145   33.0725   48.3302 H   0  0  0  0  0  0  0  0  0  0  0  0
   60.6328   34.8213   46.4092 H   0  0  0  0  0  0  0  0  0  0  0  0
   59.3180   35.2243   44.3178 H   0  0  0  0  0  0  0  0  0  0  0  0
   56.9946   34.3177   44.1185 H   0  0  0  0  0  0  0  0  0  0  0  0
   56.0178   33.0107   46.0151 H   0  0  0  0  0  0  0  0  0  0  0  0
   61.3987   28.0093   48.6915 H   0  0  0  0  0  0  0  0  0  0  0  0
   61.3529   26.0236   47.1867 H   0  0  0  0  0  0  0  0  0  0  0  0
   59.3042   25.4935   45.8695 H   0  0  0  0  0  0  0  0  0  0  0  0
   55.2016   29.1465   42.8407 H   0  0  0  0  0  0  0  0  0  0  0  0
   56.2479   31.0070   41.5491 H   0  0  0  0  0  0  0  0  0  0  0  0
   58.1960   32.2476   42.4976 H   0  0  0  0  0  0  0  0  0  0  0  0
   59.0924   31.6334   44.7440 H   0  0  0  0  0  0  0  0  0  0  0  0
   58.0514   29.7745   46.0448 H   0  0  0  0  0  0  0  0  0  0  0  0
   57.3234   28.9499   47.5573 H   0  0  0  0  0  0  0  0  0  0  0  0
  1  2  2  0
  2  3  1  0
  3  4  1  0
  4  5  1  0
  5  6  1  0
  6  7  2  0
  7  8  1  0
  8  9  2  0
  9 10  1  0
 10 11  2  0
  2 12  1  0
 12 13  2  0
 13 14  1  0
 14 15  2  0
 15 16  1  0
 16 17  1  0
 17 18  2  0
 17 19  2  0
 17 20  1  0
 20 21  1  0
 21 22  2  0
 22 23  1  0
 23 24  2  0
 24 25  1  0
 25 26  2  0
 16 27  2  0
 11  6  1  0
 27 12  1  0
 26 21  1  0
  3 28  1  0
  4 29  1  0
  4 30  1  0
  5 31  1  0
  5 32  1  0
  7 33  1  0
  8 34  1  0
  9 35  1  0
 10 36  1  0
 13 37  1  0
 14 38  1  0
 15 39  1  0
 22 40  1  0
 23 41  1  0
 24 42  1  0
 25 43  1  0
 26 44  1  0
 27 45  1  0
M  CHG  1  20  -1
M  END
>  <UniqueID>  (89) 
81

>  <SMILES>  (89) 
O=C(NCCc1ccccn1)c1cccc(S(=O)(=O)[N-]c2ccccc2)c1

>  <Energy>  (89) 
48.663381663274734

>  <Genealogy>  (89) 
O=C(NCCc1ccccn1)c1cccc(S(=O)(=O)[N-]c2ccccc2)c1 (protonated)
O=C(NCCc1ccccn1)c1cccc(S(=O)(=O)[N-]c2ccccc2)c1 (3D coordinates assigned)
O=C(NCCc1ccccn1)c1cccc(S(=O)(=O)[N-]c2ccccc2)c1 (optimized conformer: 48.663381663274734 kcal/mol)

>  <smiles>  (89) 
O=C(NCCc1ccccn1)c1cccc(S(=O)(=O)Nc2ccccc2)c1

>  <score_type>  (89) 
oracle

>  <origin>  (89) 
adg

>  <m_score__min__energy>  (89) 
-10.49

>  <m_primary>  (89) 
energy

$$$$
89:0
     RDKit          3D

 21 22  0  0  0  0  0  0  0  0999 V2000
   54.7920   26.3280   45.9930 O   0  0  0  0  0  0  0  0  0  0  0  0
   56.0510   26.3070   45.9200 C   0  0  0  0  0  0  0  0  0  0  0  0
   56.7990   27.5340   45.9710 N   0  0  0  0  0  0  0  0  0  0  0  0
   56.6800   28.5430   45.1610 C   0  0  0  0  0  0  0  0  0  0  0  0
   55.5090   29.1530   44.8650 N   0  0  0  0  0  0  0  0  0  0  0  0
   55.6910   30.1780   43.9900 C   0  0  0  0  0  0  0  0  0  0  0  0
   57.0060   30.3840   43.5870 C   0  0  0  0  0  0  0  0  0  0  0  0
   57.9740   29.2420   44.3560 S   0  0  0  0  0  0  0  0  0  0  0  0
   56.7710   25.0100   45.7810 C   0  0  0  0  0  0  0  0  0  0  0  0
   57.2780   24.6230   44.5270 C   0  0  0  0  0  0  0  0  0  0  0  0
   57.9540   23.4140   44.3800 C   0  0  0  0  0  0  0  0  0  0  0  0
   58.1260   22.5860   45.4870 C   0  0  0  0  0  0  0  0  0  0  0  0
   57.6370   22.9580   46.6990 N   0  0  0  0  0  0  0  0  0  0  0  0
   56.9710   24.1350   46.8760 C   0  0  0  0  0  0  0  0  0  0  0  0
   56.5390   24.4270   48.0240 O   0  0  0  0  0  0  0  0  0  0  0  0
   54.8586   30.7990   43.6274 H   0  0  0  0  0  0  0  0  0  0  0  0
   57.3531   31.1586   42.8873 H   0  0  0  0  0  0  0  0  0  0  0  0
   57.1395   25.2802   43.6559 H   0  0  0  0  0  0  0  0  0  0  0  0
   58.3489   23.1155   43.3977 H   0  0  0  0  0  0  0  0  0  0  0  0
   58.6585   21.6295   45.3798 H   0  0  0  0  0  0  0  0  0  0  0  0
   57.7780   22.3180   47.5140 H   0  0  0  0  0  0  0  0  0  0  0  0
  1  2  2  0
  2  3  1  0
  3  4  2  3
  4  5  1  0
  5  6  1  0
  6  7  2  0
  7  8  1  0
  2  9  1  0
  9 10  2  0
 10 11  1  0
 11 12  2  0
 12 13  1  0
 13 14  1  0
 14 15  2  0
  8  4  1  0
 14  9  1  0
  6 16  1  0
  7 17  1  0
 10 18  1  0
 11 19  1  0
 12 20  1  0
 13 21  1  0
M  CHG  1   5  -1
M  END
>  <UniqueID>  (90) 
82

>  <SMILES>  (90) 
O=C(N=c1[n-]ccs1)c1ccc[nH]c1=O

>  <Energy>  (90) 
56.847154773908734

>  <Genealogy>  (90) 
O=C(N=c1[n-]ccs1)c1ccc[nH]c1=O (protonated)
O=C(N=c1[n-]ccs1)c1ccc[nH]c1=O (3D coordinates assigned)
O=C(N=c1[n-]ccs1)c1ccc[nH]c1=O (optimized conformer: 56.847154773908734 kcal/mol)

>  <smiles>  (90) 
O=C(N=c1[nH]ccs1)c1ccc[nH]c1=O

>  <score_type>  (90) 
oracle

>  <origin>  (90) 
adg

>  <m_score__min__energy>  (90) 
-7.7699999999999996

>  <m_primary>  (90) 
energy

$$$$
90:0
     RDKit          3D

 47 50  0  0  1  0  0  0  0  0999 V2000
   65.0280   33.7320   50.9260 N   0  0  0  0  0  0  0  0  0  0  0  0
   64.1350   33.8070   50.1770 C   0  0  0  0  0  0  0  0  0  0  0  0
   63.0360   33.9090   49.2300 C   0  0  0  0  0  0  0  0  0  0  0  0
   61.7420   34.1550   49.6680 C   0  0  0  0  0  0  0  0  0  0  0  0
   60.7150   34.2500   48.7600 C   0  0  0  0  0  0  0  0  0  0  0  0
   61.0180   34.0920   47.4230 C   0  0  0  0  0  0  0  0  0  0  0  0
   59.9550   34.1900   46.5050 O   0  0  0  0  0  0  0  0  0  0  0  0
   59.2100   33.0790   46.1460 C   0  0  0  0  0  0  0  0  0  0  0  0
   59.3180   31.8550   46.7760 C   0  0  0  0  0  0  0  0  0  0  0  0
   58.5470   30.7750   46.3750 C   0  0  0  0  0  0  0  0  0  0  0  0
   57.6540   30.9370   45.3220 C   0  0  0  0  0  0  0  0  0  0  0  0
   56.8300   29.8750   44.8560 N   0  0  0  0  0  0  0  0  0  0  0  0
   57.0750   28.6540   45.1670 C   0  0  0  0  0  0  0  0  0  0  0  0
   58.3490   28.0930   45.0690 C   0  0  0  0  0  0  0  0  0  0  0  0
   58.5590   26.7640   45.4200 C   0  0  0  0  0  0  0  0  0  0  0  0
   57.5510   25.9760   45.8630 N   0  0  0  0  0  0  0  0  0  0  0  0
   57.8520   24.6210   46.2030 C   0  0  0  0  0  0  0  0  0  0  0  0
   57.5110   23.6300   45.1740 C   0  0  0  0  0  0  0  0  0  0  0  0
   58.0230   22.3490   45.2620 C   0  0  0  0  0  0  0  0  0  0  0  0
   57.7190   21.3850   44.3030 C   0  0  0  0  0  0  0  0  0  0  0  0
   56.8960   21.6980   43.2420 C   0  0  0  0  0  0  0  0  0  0  0  0
   56.5620   20.8030   42.2740 F   0  0  0  0  0  0  0  0  0  0  0  0
   56.3770   22.9820   43.1460 C   0  0  0  0  0  0  0  0  0  0  0  0
   56.6860   23.9410   44.1100 C   0  0  0  0  0  0  0  0  0  0  0  0
   56.3400   26.5450   45.9460 C   0  0  0  0  0  0  0  0  0  0  0  0
   55.3870   25.8140   46.3610 O   0  0  0  0  0  0  0  0  0  0  0  0
   56.1090   27.8290   45.6130 N   0  0  0  0  0  0  0  0  0  0  0  0
   57.5540   32.1830   44.6920 C   0  0  0  0  0  0  0  0  0  0  0  0
   58.3190   33.2610   45.0860 C   0  0  0  0  0  0  0  0  0  0  0  0
   62.2880   33.8500   46.9920 N   0  0  0  0  0  0  0  0  0  0  0  0
   63.3170   33.7540   47.8730 C   0  0  0  0  0  0  0  0  0  0  0  0
   61.5386   34.2739   50.7425 H   0  0  0  0  0  0  0  0  0  0  0  0
   59.6837   34.4459   49.0886 H   0  0  0  0  0  0  0  0  0  0  0  0
   60.0266   31.7351   47.6088 H   0  0  0  0  0  0  0  0  0  0  0  0
   58.6405   29.8037   46.8828 H   0  0  0  0  0  0  0  0  0  0  0  0
   59.1908   28.7048   44.7125 H   0  0  0  0  0  0  0  0  0  0  0  0
   59.5711   26.3415   45.3355 H   0  0  0  0  0  0  0  0  0  0  0  0
   58.9321   24.5507   46.3991 H   0  0  0  0  0  0  0  0  0  0  0  0
   57.2312   24.3797   47.0784 H   0  0  0  0  0  0  0  0  0  0  0  0
   58.6814   22.0863   46.1031 H   0  0  0  0  0  0  0  0  0  0  0  0
   58.1368   20.3714   44.3926 H   0  0  0  0  0  0  0  0  0  0  0  0
   55.7184   23.2443   42.3049 H   0  0  0  0  0  0  0  0  0  0  0  0
   56.2689   24.9551   44.0226 H   0  0  0  0  0  0  0  0  0  0  0  0
   55.1430   28.1820   45.7090 H   0  0  0  0  0  0  0  0  0  0  0  0
   56.8456   32.3059   43.8595 H   0  0  0  0  0  0  0  0  0  0  0  0
   58.2301   34.2341   44.5809 H   0  0  0  0  0  0  0  0  0  0  0  0
   64.3426   33.5596   47.5261 H   0  0  0  0  0  0  0  0  0  0  0  0
  1  2  3  0
  2  3  1  0
  3  4  2  0
  4  5  1  0
  5  6  2  0
  6  7  1  0
  7  8  1  0
  8  9  2  0
  9 10  1  0
 10 11  2  0
 11 12  1  0
 12 13  2  0
 13 14  1  0
 14 15  2  0
 15 16  1  0
 16 17  1  0
 17 18  1  0
 18 19  2  0
 19 20  1  0
 20 21  2  0
 21 22  1  0
 21 23  1  0
 23 24  2  0
 16 25  1  0
 25 26  2  0
 25 27  1  0
 11 28  1  0
 28 29  2  0
  6 30  1  0
 30 31  2  0
 31  3  1  0
 29  8  1  0
 27 13  1  0
 24 18  1  0
  4 32  1  0
  5 33  1  0
  9 34  1  0
 10 35  1  0
 14 36  1  0
 15 37  1  0
 17 38  1  0
 17 39  1  0
 19 40  1  0
 20 41  1  0
 23 42  1  0
 24 43  1  0
 27 44  1  0
 28 45  1  0
 29 46  1  0
 31 47  1  0
M  END
>  <smiles>  (91) 
N#Cc1ccc(Oc2ccc(N=c3ccn(Cc4ccc(F)cc4)c(=O)[nH]3)cc2)nc1

>  <score_type>  (91) 
oracle

>  <origin>  (91) 
adg

>  <m_score__min__energy>  (91) 
-9.8399999999999999

>  <m_primary>  (91) 
energy

$$$$
91:0
     RDKit          3D

 46 48  0  0  0  0  0  0  0  0999 V2000
   55.0210   26.4170   46.0250 N   0  0  0  0  0  0  0  0  0  0  0  0
   56.6000   25.7190   45.9810 S   0  0  0  0  0  0  0  0  0  0  0  0
   56.6480   24.5220   46.8900 O   0  0  0  0  0  0  0  0  0  0  0  0
   56.9070   25.2720   44.5790 O   0  0  0  0  0  0  0  0  0  0  0  0
   57.7850   26.9110   46.5050 C   0  0  0  0  0  0  0  0  0  0  0  0
   58.7340   26.5840   47.4820 C   0  0  0  0  0  0  0  0  0  0  0  0
   59.6720   27.5330   47.8930 C   0  0  0  0  0  0  0  0  0  0  0  0
   59.6770   28.8090   47.3230 C   0  0  0  0  0  0  0  0  0  0  0  0
   58.7490   29.1410   46.3200 C   0  0  0  0  0  0  0  0  0  0  0  0
   58.7190   30.4520   45.7290 N   0  0  0  0  0  0  0  0  0  0  0  0
   57.6280   30.9540   44.9410 C   0  0  0  0  0  0  0  0  0  0  0  0
   56.5370   30.3240   44.8760 O   0  0  0  0  0  0  0  0  0  0  0  0
   57.7550   32.2670   44.2260 C   0  0  0  0  0  0  0  0  0  0  0  0
   57.3500   33.3760   45.1180 N   0  0  0  0  0  0  0  0  0  0  0  0
   58.1310   34.6050   44.8570 C   0  0  0  0  0  0  0  0  0  0  0  0
   59.6150   34.4170   45.2110 C   0  0  0  0  0  0  0  0  0  0  0  0
   59.7600   33.5960   46.4180 N   0  0  0  0  0  0  0  0  0  0  0  0
   61.0520   33.0590   46.7550 C   0  0  0  0  0  0  0  0  0  0  0  0
   62.2070   33.8580   46.7030 C   0  0  0  0  0  0  0  0  0  0  0  0
   63.4400   33.3080   47.0600 C   0  0  0  0  0  0  0  0  0  0  0  0
   63.5150   31.9780   47.4740 C   0  0  0  0  0  0  0  0  0  0  0  0
   62.3470   31.2160   47.5340 C   0  0  0  0  0  0  0  0  0  0  0  0
   61.1540   31.7680   47.1820 N   0  0  0  0  0  0  0  0  0  0  0  0
   58.6120   33.4720   47.3220 C   0  0  0  0  0  0  0  0  0  0  0  0
   57.3670   32.9860   46.5530 C   0  0  0  0  0  0  0  0  0  0  0  0
   57.7940   28.1890   45.9290 C   0  0  0  0  0  0  0  0  0  0  0  0
   55.1450   27.4550   45.9980 H   0  0  0  0  0  0  0  0  0  0  0  0
   58.7403   25.5777   47.9262 H   0  0  0  0  0  0  0  0  0  0  0  0
   60.4092   27.2756   48.6677 H   0  0  0  0  0  0  0  0  0  0  0  0
   60.4099   29.5567   47.6603 H   0  0  0  0  0  0  0  0  0  0  0  0
   59.4950   31.1100   45.9660 H   0  0  0  0  0  0  0  0  0  0  0  0
   58.8006   32.4127   43.9168 H   0  0  0  0  0  0  0  0  0  0  0  0
   57.0997   32.2594   43.3426 H   0  0  0  0  0  0  0  0  0  0  0  0
   58.0479   34.8612   43.7905 H   0  0  0  0  0  0  0  0  0  0  0  0
   57.7260   35.4108   45.4868 H   0  0  0  0  0  0  0  0  0  0  0  0
   60.1261   33.9205   44.3730 H   0  0  0  0  0  0  0  0  0  0  0  0
   60.0616   35.4045   45.3991 H   0  0  0  0  0  0  0  0  0  0  0  0
   62.1403   34.9085   46.3836 H   0  0  0  0  0  0  0  0  0  0  0  0
   64.3510   33.9228   47.0148 H   0  0  0  0  0  0  0  0  0  0  0  0
   64.4832   31.5349   47.7499 H   0  0  0  0  0  0  0  0  0  0  0  0
   62.3910   30.1683   47.8661 H   0  0  0  0  0  0  0  0  0  0  0  0
   58.8525   32.7486   48.1150 H   0  0  0  0  0  0  0  0  0  0  0  0
   58.3966   34.4579   47.7596 H   0  0  0  0  0  0  0  0  0  0  0  0
   57.3303   31.8883   46.6132 H   0  0  0  0  0  0  0  0  0  0  0  0
   56.4960   33.4662   47.0229 H   0  0  0  0  0  0  0  0  0  0  0  0
   57.0468   28.4481   45.1645 H   0  0  0  0  0  0  0  0  0  0  0  0
  1  2  1  0
  2  3  2  0
  2  4  2  0
  2  5  1  0
  5  6  2  0
  6  7  1  0
  7  8  2  0
  8  9  1  0
  9 10  1  0
 10 11  1  0
 11 12  2  0
 11 13  1  0
 13 14  1  0
 14 15  1  0
 15 16  1  0
 16 17  1  0
 17 18  1  0
 18 19  2  0
 19 20  1  0
 20 21  2  0
 21 22  1  0
 22 23  2  0
 17 24  1  0
 24 25  1  0
  9 26  2  0
 26  5  1  0
 25 14  1  0
 23 18  1  0
  1 27  1  0
  6 28  1  0
  7 29  1  0
  8 30  1  0
 10 31  1  0
 13 32  1  0
 13 33  1  0
 15 34  1  0
 15 35  1  0
 16 36  1  0
 16 37  1  0
 19 38  1  0
 20 39  1  0
 21 40  1  0
 22 41  1  0
 24 42  1  0
 24 43  1  0
 25 44  1  0
 25 45  1  0
 26 46  1  0
M  CHG  1   1  -1
M  END
>  <UniqueID>  (92) 
83

>  <SMILES>  (92) 
[NH-]S(=O)(=O)c1cccc(NC(=O)CN2CCN(c3ccccn3)CC2)c1

>  <Energy>  (92) 
61.33412379457869

>  <Genealogy>  (92) 
[NH-]S(=O)(=O)c1cccc(NC(=O)CN2CCN(c3ccccn3)CC2)c1 (protonated)
[NH-]S(=O)(=O)c1cccc(NC(=O)CN2CCN(c3ccccn3)CC2)c1 (3D coordinates assigned)
[NH-]S(=O)(=O)c1cccc(NC(=O)CN2CCN(c3ccccn3)CC2)c1 (nonaromatic ring conformer: 61.33412379457869 kcal/mol)

>  <smiles>  (92) 
NS(=O)(=O)c1cccc(NC(=O)CN2CCN(c3ccccn3)CC2)c1

>  <score_type>  (92) 
oracle

>  <origin>  (92) 
adg

>  <m_score__min__energy>  (92) 
-12.25

>  <m_primary>  (92) 
energy

$$$$
92:0
     RDKit          3D

 35 37  0  0  0  0  0  0  0  0999 V2000
   61.7580   33.8360   45.9640 O   0  0  0  0  0  0  0  0  0  0  0  0
   61.8200   33.7730   47.2230 C   0  0  0  0  0  0  0  0  0  0  0  0
   62.9370   33.1790   47.8320 C   0  0  0  0  0  0  0  0  0  0  0  0
   63.8760   32.7340   47.1140 O   0  0  0  0  0  0  0  0  0  0  0  0
   63.0060   33.0980   49.1970 N   0  0  0  0  0  0  0  0  0  0  0  0
   64.1350   32.4860   49.8480 C   0  0  0  0  0  0  0  0  0  0  0  0
   65.4080   33.0710   49.7470 C   0  0  0  0  0  0  0  0  0  0  0  0
   66.5070   32.4840   50.3810 C   0  0  0  0  0  0  0  0  0  0  0  0
   66.3430   31.3120   51.1250 C   0  0  0  0  0  0  0  0  0  0  0  0
   65.0790   30.7290   51.2390 C   0  0  0  0  0  0  0  0  0  0  0  0
   63.9760   31.3110   50.6060 C   0  0  0  0  0  0  0  0  0  0  0  0
   62.7500   30.7450   50.7490 F   0  0  0  0  0  0  0  0  0  0  0  0
   61.9990   33.6070   49.9620 C   0  0  0  0  0  0  0  0  0  0  0  0
   60.8910   34.2000   49.3590 C   0  0  0  0  0  0  0  0  0  0  0  0
   60.8110   34.2830   47.9980 N   0  0  0  0  0  0  0  0  0  0  0  0
   59.6110   34.8800   47.3870 C   0  0  0  0  0  0  0  0  0  0  0  0
   58.9190   33.8750   46.5060 C   0  0  0  0  0  0  0  0  0  0  0  0
   58.7720   32.5450   46.9330 C   0  0  0  0  0  0  0  0  0  0  0  0
   58.1610   31.6000   46.1020 C   0  0  0  0  0  0  0  0  0  0  0  0
   57.6970   31.9750   44.8370 C   0  0  0  0  0  0  0  0  0  0  0  0
   56.9320   30.7890   43.7970 Cl  0  0  0  0  0  0  0  0  0  0  0  0
   57.8470   33.2960   44.4030 C   0  0  0  0  0  0  0  0  0  0  0  0
   58.4590   34.2420   45.2320 C   0  0  0  0  0  0  0  0  0  0  0  0
   65.5408   33.9956   49.1661 H   0  0  0  0  0  0  0  0  0  0  0  0
   67.5020   32.9449   50.2943 H   0  0  0  0  0  0  0  0  0  0  0  0
   67.2091   30.8491   51.6205 H   0  0  0  0  0  0  0  0  0  0  0  0
   64.9506   29.8092   51.8285 H   0  0  0  0  0  0  0  0  0  0  0  0
   62.0610   33.5496   51.0587 H   0  0  0  0  0  0  0  0  0  0  0  0
   60.0782   34.6025   49.9814 H   0  0  0  0  0  0  0  0  0  0  0  0
   58.9214   35.2022   48.1811 H   0  0  0  0  0  0  0  0  0  0  0  0
   59.9123   35.7440   46.7764 H   0  0  0  0  0  0  0  0  0  0  0  0
   59.1391   32.2451   47.9256 H   0  0  0  0  0  0  0  0  0  0  0  0
   58.0454   30.5609   46.4438 H   0  0  0  0  0  0  0  0  0  0  0  0
   57.4831   33.5916   43.4079 H   0  0  0  0  0  0  0  0  0  0  0  0
   58.5803   35.2783   44.8837 H   0  0  0  0  0  0  0  0  0  0  0  0
  1  2  2  0
  2  3  1  0
  3  4  2  0
  3  5  1  0
  5  6  1  0
  6  7  2  0
  7  8  1  0
  8  9  2  0
  9 10  1  0
 10 11  2  0
 11 12  1  0
  5 13  1  0
 13 14  2  0
 14 15  1  0
 15 16  1  0
 16 17  1  0
 17 18  2  0
 18 19  1  0
 19 20  2  0
 20 21  1  0
 20 22  1  0
 22 23  2  0
 15  2  1  0
 23 17  1  0
 11  6  1  0
  7 24  1  0
  8 25  1  0
  9 26  1  0
 10 27  1  0
 13 28  1  0
 14 29  1  0
 16 30  1  0
 16 31  1  0
 18 32  1  0
 19 33  1  0
 22 34  1  0
 23 35  1  0
M  END
>  <UniqueID>  (93) 
84

>  <SMILES>  (93) 
O=c1c(=O)n(-c2ccccc2F)ccn1Cc1ccc(Cl)cc1

>  <Energy>  (93) 
49.366887561391465

>  <Genealogy>  (93) 
O=c1c(=O)n(-c2ccccc2F)ccn1Cc1ccc(Cl)cc1 (3D coordinates assigned)
O=c1c(=O)n(-c2ccccc2F)ccn1Cc1ccc(Cl)cc1 (optimized conformer: 49.366887561391465 kcal/mol)

>  <smiles>  (93) 
O=c1c(=O)n(-c2ccccc2F)ccn1Cc1ccc(Cl)cc1

>  <score_type>  (93) 
oracle

>  <origin>  (93) 
adg

>  <m_score__min__energy>  (93) 
-7.21

>  <m_primary>  (93) 
energy

$$$$
93:0
     RDKit          3D

 57 59  0  0  0  0  0  0  0  0999 V2000
   54.3800   25.6320   45.9400 N   0  0  0  0  0  0  0  0  0  0  0  0
   53.9240   24.1120   45.2570 S   0  0  0  0  0  0  0  0  0  0  0  0
   54.4420   24.0110   43.8480 O   0  0  0  0  0  0  0  0  0  0  0  0
   52.4230   24.0210   45.2140 O   0  0  0  0  0  0  0  0  0  0  0  0
   54.5720   22.7950   46.2510 C   0  0  0  0  0  0  0  0  0  0  0  0
   53.7700   21.6610   46.4600 C   0  0  0  0  0  0  0  0  0  0  0  0
   54.2550   20.5680   47.1800 C   0  0  0  0  0  0  0  0  0  0  0  0
   55.5500   20.5890   47.6950 C   0  0  0  0  0  0  0  0  0  0  0  0
   56.3570   21.7130   47.5110 C   0  0  0  0  0  0  0  0  0  0  0  0
   55.8790   22.8290   46.8030 C   0  0  0  0  0  0  0  0  0  0  0  0
   56.7660   24.0030   46.6620 C   0  0  0  0  0  0  0  0  0  0  0  0
   57.1630   24.7360   47.7900 C   0  0  0  0  0  0  0  0  0  0  0  0
   57.9900   25.8520   47.6510 C   0  0  0  0  0  0  0  0  0  0  0  0
   58.4620   26.2320   46.3830 C   0  0  0  0  0  0  0  0  0  0  0  0
   59.3440   27.4450   46.2250 C   0  0  0  0  0  0  0  0  0  0  0  0
   58.7130   28.4490   45.3720 N   0  0  0  0  0  0  0  0  0  0  0  0
   59.3530   29.6870   45.0290 C   0  0  0  0  0  0  0  0  0  0  0  0
   60.4490   29.9980   45.5630 O   0  0  0  0  0  0  0  0  0  0  0  0
   58.7060   30.6260   44.0450 C   0  0  0  0  0  0  0  0  0  0  0  0
   57.7150   31.6670   44.6690 C   0  0  0  0  0  0  0  0  0  0  0  0
   56.2570   31.1310   44.4690 C   0  0  0  0  0  0  0  0  0  0  0  0
   56.1570   29.6350   44.3460 C   0  0  0  0  0  0  0  0  0  0  0  0
   55.5810   28.9610   45.2420 O   0  0  0  0  0  0  0  0  0  0  0  0
   56.7020   28.9840   43.2440 O   0  0  0  0  0  0  0  0  0  0  0  0
   57.8480   33.0710   43.9810 C   0  0  0  0  0  0  0  0  0  0  0  0
   58.7860   34.0270   44.7330 C   0  0  0  0  0  0  0  0  0  0  0  0
   58.2980   34.2990   46.1690 C   0  0  0  0  0  0  0  0  0  0  0  0
   57.5130   33.1250   46.7830 C   0  0  0  0  0  0  0  0  0  0  0  0
   57.9730   31.7780   46.2110 C   0  0  0  0  0  0  0  0  0  0  0  0
   58.0690   25.4930   45.2540 C   0  0  0  0  0  0  0  0  0  0  0  0
   57.2330   24.3820   45.3940 C   0  0  0  0  0  0  0  0  0  0  0  0
   53.6400   26.3210   45.6740 H   0  0  0  0  0  0  0  0  0  0  0  0
   52.7488   21.6340   46.0519 H   0  0  0  0  0  0  0  0  0  0  0  0
   53.6141   19.6886   47.3412 H   0  0  0  0  0  0  0  0  0  0  0  0
   55.9363   19.7193   48.2468 H   0  0  0  0  0  0  0  0  0  0  0  0
   57.3765   21.7254   47.9240 H   0  0  0  0  0  0  0  0  0  0  0  0
   56.8208   24.4298   48.7896 H   0  0  0  0  0  0  0  0  0  0  0  0
   58.2736   26.4369   48.5384 H   0  0  0  0  0  0  0  0  0  0  0  0
   59.5323   27.8833   47.2162 H   0  0  0  0  0  0  0  0  0  0  0  0
   60.2874   27.1310   45.7544 H   0  0  0  0  0  0  0  0  0  0  0  0
   57.7570   28.2490   44.9970 H   0  0  0  0  0  0  0  0  0  0  0  0
   59.5035   31.1817   43.5300 H   0  0  0  0  0  0  0  0  0  0  0  0
   58.1043   29.9967   43.3727 H   0  0  0  0  0  0  0  0  0  0  0  0
   55.6529   31.4465   45.3324 H   0  0  0  0  0  0  0  0  0  0  0  0
   55.8961   31.5493   43.5178 H   0  0  0  0  0  0  0  0  0  0  0  0
   58.2393   32.9259   42.9633 H   0  0  0  0  0  0  0  0  0  0  0  0
   56.8481   33.5294   43.9778 H   0  0  0  0  0  0  0  0  0  0  0  0
   59.7896   33.5789   44.7773 H   0  0  0  0  0  0  0  0  0  0  0  0
   58.8028   34.9843   44.1915 H   0  0  0  0  0  0  0  0  0  0  0  0
   59.1744   34.5011   46.8023 H   0  0  0  0  0  0  0  0  0  0  0  0
   57.6118   35.1574   46.1207 H   0  0  0  0  0  0  0  0  0  0  0  0
   57.6684   33.1223   47.8720 H   0  0  0  0  0  0  0  0  0  0  0  0
   56.4487   33.2573   46.5386 H   0  0  0  0  0  0  0  0  0  0  0  0
   59.0509   31.6637   46.3984 H   0  0  0  0  0  0  0  0  0  0  0  0
   57.3927   30.9861   46.7070 H   0  0  0  0  0  0  0  0  0  0  0  0
   58.4212   25.7906   44.2553 H   0  0  0  0  0  0  0  0  0  0  0  0
   56.9397   23.8020   44.5065 H   0  0  0  0  0  0  0  0  0  0  0  0
  1  2  1  0
  2  3  2  0
  2  4  2  0
  2  5  1  0
  5  6  2  0
  6  7  1  0
  7  8  2  0
  8  9  1  0
  9 10  2  0
 10 11  1  0
 11 12  2  0
 12 13  1  0
 13 14  2  0
 14 15  1  0
 15 16  1  0
 16 17  1  0
 17 18  2  0
 17 19  1  0
 19 20  1  0
 20 21  1  0
 21 22  1  0
 22 23  2  0
 22 24  1  0
 20 25  1  0
 25 26  1  0
 26 27  1  0
 27 28  1  0
 28 29  1  0
 14 30  1  0
 30 31  2  0
 10  5  1  0
 31 11  1  0
 29 20  1  0
  1 32  1  0
  6 33  1  0
  7 34  1  0
  8 35  1  0
  9 36  1  0
 12 37  1  0
 13 38  1  0
 15 39  1  0
 15 40  1  0
 16 41  1  0
 19 42  1  0
 19 43  1  0
 21 44  1  0
 21 45  1  0
 25 46  1  0
 25 47  1  0
 26 48  1  0
 26 49  1  0
 27 50  1  0
 27 51  1  0
 28 52  1  0
 28 53  1  0
 29 54  1  0
 29 55  1  0
 30 56  1  0
 31 57  1  0
M  CHG  2   1  -1  24  -1
M  END
>  <UniqueID>  (94) 
85

>  <SMILES>  (94) 
[NH-]S(=O)(=O)c1ccccc1-c1ccc(CNC(=O)CC2(CC(=O)[O-])CCCCC2)cc1

>  <Energy>  (94) 
68.99848539995979

>  <Genealogy>  (94) 
[NH-]S(=O)(=O)c1ccccc1-c1ccc(CNC(=O)CC2(CC(=O)[O-])CCCCC2)cc1 (protonated)
[NH-]S(=O)(=O)c1ccccc1-c1ccc(CNC(=O)CC2(CC(=O)[O-])CCCCC2)cc1 (3D coordinates assigned)
[NH-]S(=O)(=O)c1ccccc1-c1ccc(CNC(=O)CC2(CC(=O)[O-])CCCCC2)cc1 (nonaromatic ring conformer: 68.99848539995979 kcal/mol)

>  <smiles>  (94) 
NS(=O)(=O)c1ccccc1-c1ccc(CNC(=O)CC2(CC(=O)O)CCCCC2)cc1

>  <score_type>  (94) 
oracle

>  <origin>  (94) 
adg

>  <m_score__min__energy>  (94) 
-13.94

>  <m_primary>  (94) 
energy

$$$$
94:0
     RDKit          3D

 49 51  0  0  0  0  0  0  0  0999 V2000
   60.7630   29.0180   50.3070 C   0  0  0  0  0  0  0  0  0  0  0  0
   60.9550   28.7260   48.9270 O   0  0  0  0  0  0  0  0  0  0  0  0
   59.9810   28.9060   47.9310 C   0  0  0  0  0  0  0  0  0  0  0  0
   59.1710   27.8450   47.4830 C   0  0  0  0  0  0  0  0  0  0  0  0
   58.2020   28.0640   46.4990 C   0  0  0  0  0  0  0  0  0  0  0  0
   58.0350   29.3370   45.9430 C   0  0  0  0  0  0  0  0  0  0  0  0
   56.7670   29.6200   44.7500 S   0  0  0  0  0  0  0  0  0  0  0  0
   55.5800   28.7630   45.0980 O   0  0  0  0  0  0  0  0  0  0  0  0
   57.2650   29.2270   43.3830 O   0  0  0  0  0  0  0  0  0  0  0  0
   56.2740   31.2880   44.7230 N   0  0  0  0  0  0  0  0  0  0  0  0
   57.1670   32.3870   44.9360 C   0  0  0  0  0  0  0  0  0  0  0  0
   57.1760   33.0810   46.1590 C   0  0  0  0  0  0  0  0  0  0  0  0
   58.0230   34.1810   46.3410 C   0  0  0  0  0  0  0  0  0  0  0  0
   58.8930   34.5730   45.3180 C   0  0  0  0  0  0  0  0  0  0  0  0
   58.9290   33.8570   44.1180 C   0  0  0  0  0  0  0  0  0  0  0  0
   58.0700   32.7630   43.9150 C   0  0  0  0  0  0  0  0  0  0  0  0
   58.1610   31.9740   42.6300 C   0  0  0  0  0  0  0  0  0  0  0  0
   56.8760   31.5900   42.2090 O   0  0  0  0  0  0  0  0  0  0  0  0
   58.8470   30.3920   46.3770 C   0  0  0  0  0  0  0  0  0  0  0  0
   59.8100   30.1870   47.3730 C   0  0  0  0  0  0  0  0  0  0  0  0
   60.6210   31.2900   47.8080 N   0  0  0  0  0  0  0  0  0  0  0  0
   62.0810   31.2350   47.6710 C   0  0  0  0  0  0  0  0  0  0  0  0
   62.6410   32.5690   47.1250 C   0  0  0  0  0  0  0  0  0  0  0  0
   61.7580   33.7280   47.3690 N   0  0  0  0  0  0  0  0  0  0  0  0
   60.9850   33.5950   48.6120 C   0  0  0  0  0  0  0  0  0  0  0  0
   59.9910   32.4330   48.4810 C   0  0  0  0  0  0  0  0  0  0  0  0
   61.2659   28.2532   50.9170 H   0  0  0  0  0  0  0  0  0  0  0  0
   61.1878   30.0067   50.5352 H   0  0  0  0  0  0  0  0  0  0  0  0
   59.6869   29.0198   50.5352 H   0  0  0  0  0  0  0  0  0  0  0  0
   59.3011   26.8392   47.9090 H   0  0  0  0  0  0  0  0  0  0  0  0
   57.5679   27.2314   46.1604 H   0  0  0  0  0  0  0  0  0  0  0  0
   56.5146   32.7582   46.9765 H   0  0  0  0  0  0  0  0  0  0  0  0
   58.0043   34.7376   47.2896 H   0  0  0  0  0  0  0  0  0  0  0  0
   59.5489   35.4449   45.4580 H   0  0  0  0  0  0  0  0  0  0  0  0
   59.6344   34.1517   43.3271 H   0  0  0  0  0  0  0  0  0  0  0  0
   58.6280   32.5966   41.8527 H   0  0  0  0  0  0  0  0  0  0  0  0
   58.7686   31.0733   42.8019 H   0  0  0  0  0  0  0  0  0  0  0  0
   56.4290   31.1890   43.0010 H   0  0  0  0  0  0  0  0  0  0  0  0
   58.7274   31.3907   45.9317 H   0  0  0  0  0  0  0  0  0  0  0  0
   62.5268   31.0351   48.6566 H   0  0  0  0  0  0  0  0  0  0  0  0
   62.3348   30.4337   46.9614 H   0  0  0  0  0  0  0  0  0  0  0  0
   63.6099   32.7627   47.6085 H   0  0  0  0  0  0  0  0  0  0  0  0
   62.7310   32.4574   46.0344 H   0  0  0  0  0  0  0  0  0  0  0  0
   62.3460   34.5970   47.4240 H   0  0  0  0  0  0  0  0  0  0  0  0
   61.0970   33.8420   46.5620 H   0  0  0  0  0  0  0  0  0  0  0  0
   61.6703   33.3973   49.4494 H   0  0  0  0  0  0  0  0  0  0  0  0
   60.4326   34.5277   48.7991 H   0  0  0  0  0  0  0  0  0  0  0  0
   59.6601   32.1251   49.4838 H   0  0  0  0  0  0  0  0  0  0  0  0
   59.1302   32.7672   47.8833 H   0  0  0  0  0  0  0  0  0  0  0  0
  1  2  1  0
  2  3  1  0
  3  4  2  0
  4  5  1  0
  5  6  2  0
  6  7  1  0
  7  8  2  0
  7  9  2  0
  7 10  1  0
 10 11  1  0
 11 12  2  0
 12 13  1  0
 13 14  2  0
 14 15  1  0
 15 16  2  0
 16 17  1  0
 17 18  1  0
  6 19  1  0
 19 20  2  0
 20 21  1  0
 21 22  1  0
 22 23  1  0
 23 24  1  0
 24 25  1  0
 25 26  1  0
 20  3  1  0
 26 21  1  0
 16 11  1  0
  1 27  1  0
  1 28  1  0
  1 29  1  0
  4 30  1  0
  5 31  1  0
 12 32  1  0
 13 33  1  0
 14 34  1  0
 15 35  1  0
 17 36  1  0
 17 37  1  0
 18 38  1  0
 19 39  1  0
 22 40  1  0
 22 41  1  0
 23 42  1  0
 23 43  1  0
 24 44  1  0
 24 45  1  0
 25 46  1  0
 25 47  1  0
 26 48  1  0
 26 49  1  0
M  CHG  2  10  -1  24   1
M  END
>  <UniqueID>  (95) 
86

>  <SMILES>  (95) 
COc1ccc(S(=O)(=O)[N-]c2ccccc2CO)cc1N1CC[NH2+]CC1

>  <Energy>  (95) 
66.09140498112518

>  <Genealogy>  (95) 
COc1ccc(S(=O)(=O)[N-]c2ccccc2CO)cc1N1CC[NH2+]CC1 (protonated)
COc1ccc(S(=O)(=O)[N-]c2ccccc2CO)cc1N1CC[NH2+]CC1 (3D coordinates assigned)
COc1ccc(S(=O)(=O)[N-]c2ccccc2CO)cc1N1CC[NH2+]CC1 (nonaromatic ring conformer: 66.09140498112518 kcal/mol)

>  <smiles>  (95) 
COc1ccc(S(=O)(=O)Nc2ccccc2CO)cc1N1CCNCC1

>  <score_type>  (95) 
oracle

>  <origin>  (95) 
adg

>  <m_score__min__energy>  (95) 
-8.7899999999999991

>  <m_primary>  (95) 
energy

$$$$
95:0
     RDKit          3D

 57 58  0  0  0  0  0  0  0  0999 V2000
   59.1780   34.2360   44.5600 C   0  0  0  0  0  0  0  0  0  0  0  0
   57.7690   33.6570   44.4950 C   0  0  0  0  0  0  0  0  0  0  0  0
   57.7750   32.2500   43.8840 C   0  0  0  0  0  0  0  0  0  0  0  0
   57.6200   31.1840   44.9710 C   0  0  0  0  0  0  0  0  0  0  0  0
   56.6400   29.7640   44.3640 S   0  0  0  0  0  0  0  0  0  0  0  0
   58.0200   28.5850   44.1190 C   0  0  0  0  0  0  0  0  0  0  0  0
   59.2990   29.1380   44.7590 C   0  0  0  0  0  0  0  0  0  0  0  0
   59.7000   28.3550   46.0160 C   0  0  0  0  0  0  0  0  0  0  0  0
   59.2640   29.0380   47.2320 N   0  0  0  0  0  0  0  0  0  0  0  0
   59.8010   30.3040   47.6370 C   0  0  0  0  0  0  0  0  0  0  0  0
   60.5910   30.9350   46.8810 O   0  0  0  0  0  0  0  0  0  0  0  0
   59.4500   30.8760   48.9510 C   0  0  0  0  0  0  0  0  0  0  0  0
   59.7010   30.1650   50.1450 C   0  0  0  0  0  0  0  0  0  0  0  0
   60.3450   28.8030   50.1270 C   0  0  0  0  0  0  0  0  0  0  0  0
   59.3610   30.7470   51.3760 C   0  0  0  0  0  0  0  0  0  0  0  0
   58.8040   32.0290   51.4070 C   0  0  0  0  0  0  0  0  0  0  0  0
   58.4620   32.6750   52.7110 C   0  0  0  0  0  0  0  0  0  0  0  0
   58.5840   32.6980   50.2460 N   0  0  0  0  0  0  0  0  0  0  0  0
   58.8740   32.1590   49.0330 C   0  0  0  0  0  0  0  0  0  0  0  0
   58.4670   33.0990   47.5560 S   0  0  0  0  0  0  0  0  0  0  0  0
   59.5590   34.5040   47.9820 C   0  0  0  0  0  0  0  0  0  0  0  0
   60.9960   34.0650   47.9870 C   0  0  0  0  0  0  0  0  0  0  0  0
   61.6500   33.7920   46.7750 C   0  0  0  0  0  0  0  0  0  0  0  0
   62.9730   33.3400   46.7760 C   0  0  0  0  0  0  0  0  0  0  0  0
   63.6520   33.1620   47.9850 C   0  0  0  0  0  0  0  0  0  0  0  0
   63.0080   33.4370   49.1950 C   0  0  0  0  0  0  0  0  0  0  0  0
   61.6830   33.8840   49.1990 C   0  0  0  0  0  0  0  0  0  0  0  0
   59.4759   34.3584   45.6118 H   0  0  0  0  0  0  0  0  0  0  0  0
   59.8787   33.5529   44.0576 H   0  0  0  0  0  0  0  0  0  0  0  0
   59.1959   35.2144   44.0576 H   0  0  0  0  0  0  0  0  0  0  0  0
   57.3554   33.6044   45.5129 H   0  0  0  0  0  0  0  0  0  0  0  0
   57.1531   34.3101   43.8593 H   0  0  0  0  0  0  0  0  0  0  0  0
   56.9411   32.1627   43.1719 H   0  0  0  0  0  0  0  0  0  0  0  0
   58.7352   32.0929   43.3709 H   0  0  0  0  0  0  0  0  0  0  0  0
   58.6170   30.8301   45.2722 H   0  0  0  0  0  0  0  0  0  0  0  0
   57.0941   31.6314   45.8273 H   0  0  0  0  0  0  0  0  0  0  0  0
   57.7648   27.6226   44.5867 H   0  0  0  0  0  0  0  0  0  0  0  0
   58.1871   28.4421   43.0412 H   0  0  0  0  0  0  0  0  0  0  0  0
   60.1174   29.0765   44.0266 H   0  0  0  0  0  0  0  0  0  0  0  0
   59.1065   30.1796   45.0556 H   0  0  0  0  0  0  0  0  0  0  0  0
   59.2363   27.3582   45.9797 H   0  0  0  0  0  0  0  0  0  0  0  0
   60.7969   28.2750   46.0385 H   0  0  0  0  0  0  0  0  0  0  0  0
   58.5830   28.5520   47.8610 H   0  0  0  0  0  0  0  0  0  0  0  0
   60.5070   28.4603   51.1596 H   0  0  0  0  0  0  0  0  0  0  0  0
   59.6871   28.0932   49.6041 H   0  0  0  0  0  0  0  0  0  0  0  0
   61.3110   28.8611   49.6041 H   0  0  0  0  0  0  0  0  0  0  0  0
   59.5321   30.1966   52.3129 H   0  0  0  0  0  0  0  0  0  0  0  0
   58.8014   32.0339   53.5379 H   0  0  0  0  0  0  0  0  0  0  0  0
   58.9602   33.6534   52.7773 H   0  0  0  0  0  0  0  0  0  0  0  0
   57.3727   32.8130   52.7773 H   0  0  0  0  0  0  0  0  0  0  0  0
   59.4267   35.3045   47.2392 H   0  0  0  0  0  0  0  0  0  0  0  0
   59.2939   34.8721   48.9841 H   0  0  0  0  0  0  0  0  0  0  0  0
   61.1199   33.9342   45.8217 H   0  0  0  0  0  0  0  0  0  0  0  0
   63.4804   33.1241   45.8242 H   0  0  0  0  0  0  0  0  0  0  0  0
   64.6927   32.8057   47.9842 H   0  0  0  0  0  0  0  0  0  0  0  0
   63.5446   33.3015   50.1457 H   0  0  0  0  0  0  0  0  0  0  0  0
   61.1776   34.0943   50.1531 H   0  0  0  0  0  0  0  0  0  0  0  0
  1  2  1  0
  2  3  1  0
  3  4  1  0
  4  5  1  0
  5  6  1  0
  6  7  1  0
  7  8  1  0
  8  9  1  0
  9 10  1  0
 10 11  2  0
 10 12  1  0
 12 13  2  0
 13 14  1  0
 13 15  1  0
 15 16  2  0
 16 17  1  0
 16 18  1  0
 18 19  2  0
 19 20  1  0
 20 21  1  0
 21 22  1  0
 22 23  2  0
 23 24  1  0
 24 25  2  0
 25 26  1  0
 26 27  2  0
 19 12  1  0
 27 22  1  0
  1 28  1  0
  1 29  1  0
  1 30  1  0
  2 31  1  0
  2 32  1  0
  3 33  1  0
  3 34  1  0
  4 35  1  0
  4 36  1  0
  6 37  1  0
  6 38  1  0
  7 39  1  0
  7 40  1  0
  8 41  1  0
  8 42  1  0
  9 43  1  0
 14 44  1  0
 14 45  1  0
 14 46  1  0
 15 47  1  0
 17 48  1  0
 17 49  1  0
 17 50  1  0
 21 51  1  0
 21 52  1  0
 23 53  1  0
 24 54  1  0
 25 55  1  0
 26 56  1  0
 27 57  1  0
M  END
>  <UniqueID>  (96) 
87

>  <SMILES>  (96) 
CCCCSCCCNC(=O)c1c(C)cc(C)nc1SCc1ccccc1

>  <Energy>  (96) 
39.043297627053526

>  <Genealogy>  (96) 
CCCCSCCCNC(=O)c1c(C)cc(C)nc1SCc1ccccc1 (3D coordinates assigned)
CCCCSCCCNC(=O)c1c(C)cc(C)nc1SCc1ccccc1 (optimized conformer: 39.043297627053526 kcal/mol)

>  <smiles>  (96) 
CCCCSCCCNC(=O)c1c(C)cc(C)nc1SCc1ccccc1

>  <score_type>  (96) 
oracle

>  <origin>  (96) 
adg

>  <m_score__min__energy>  (96) 
-7.5099999999999998

>  <m_primary>  (96) 
energy

$$$$
96:0
     RDKit          3D

 37 39  0  0  0  0  0  0  0  0999 V2000
   63.4080   31.8530   47.1330 C   0  0  0  0  0  0  0  0  0  0  0  0
   62.1780   31.3030   47.5020 C   0  0  0  0  0  0  0  0  0  0  0  0
   61.2580   32.0650   48.2310 C   0  0  0  0  0  0  0  0  0  0  0  0
   61.5620   33.3890   48.5860 C   0  0  0  0  0  0  0  0  0  0  0  0
   60.5800   34.2150   49.3760 C   0  0  0  0  0  0  0  0  0  0  0  0
   59.6450   34.8580   48.5080 O   0  0  0  0  0  0  0  0  0  0  0  0
   59.1760   34.3370   47.2920 C   0  0  0  0  0  0  0  0  0  0  0  0
   58.1770   33.3460   47.2240 C   0  0  0  0  0  0  0  0  0  0  0  0
   57.7560   32.8530   45.9850 C   0  0  0  0  0  0  0  0  0  0  0  0
   58.3260   33.3420   44.8040 C   0  0  0  0  0  0  0  0  0  0  0  0
   57.8000   32.6930   43.2190 S   0  0  0  0  0  0  0  0  0  0  0  0
   57.4920   31.0580   43.8870 C   0  0  0  0  0  0  0  0  0  0  0  0
   58.5650   30.2220   44.2190 C   0  0  0  0  0  0  0  0  0  0  0  0
   58.3230   28.9430   44.7320 C   0  0  0  0  0  0  0  0  0  0  0  0
   57.0100   28.5000   44.9160 C   0  0  0  0  0  0  0  0  0  0  0  0
   55.9370   29.3340   44.5870 C   0  0  0  0  0  0  0  0  0  0  0  0
   56.1760   30.6130   44.0750 C   0  0  0  0  0  0  0  0  0  0  0  0
   59.3080   34.3350   44.8660 C   0  0  0  0  0  0  0  0  0  0  0  0
   59.7290   34.8300   46.1030 C   0  0  0  0  0  0  0  0  0  0  0  0
   62.8060   33.9310   48.2220 C   0  0  0  0  0  0  0  0  0  0  0  0
   63.7230   33.1660   47.4940 C   0  0  0  0  0  0  0  0  0  0  0  0
   64.1287   31.2527   46.5583 H   0  0  0  0  0  0  0  0  0  0  0  0
   61.9321   30.2689   47.2190 H   0  0  0  0  0  0  0  0  0  0  0  0
   60.2940   31.6254   48.5267 H   0  0  0  0  0  0  0  0  0  0  0  0
   60.0350   33.5599   50.0716 H   0  0  0  0  0  0  0  0  0  0  0  0
   61.1340   34.9862   49.9313 H   0  0  0  0  0  0  0  0  0  0  0  0
   57.7262   32.9584   48.1495 H   0  0  0  0  0  0  0  0  0  0  0  0
   56.9754   32.0794   45.9385 H   0  0  0  0  0  0  0  0  0  0  0  0
   59.5984   30.5708   44.0765 H   0  0  0  0  0  0  0  0  0  0  0  0
   59.1663   28.2858   44.9906 H   0  0  0  0  0  0  0  0  0  0  0  0
   56.8208   27.4945   45.3199 H   0  0  0  0  0  0  0  0  0  0  0  0
   54.9043   28.9837   44.7311 H   0  0  0  0  0  0  0  0  0  0  0  0
   55.3315   31.2700   43.8197 H   0  0  0  0  0  0  0  0  0  0  0  0
   59.7504   34.7277   43.9386 H   0  0  0  0  0  0  0  0  0  0  0  0
   60.5007   35.6129   46.1435 H   0  0  0  0  0  0  0  0  0  0  0  0
   63.0599   34.9616   48.5108 H   0  0  0  0  0  0  0  0  0  0  0  0
   64.6926   33.5979   47.2054 H   0  0  0  0  0  0  0  0  0  0  0  0
  1  2  2  0
  2  3  1  0
  3  4  2  0
  4  5  1  0
  5  6  1  0
  6  7  1  0
  7  8  2  0
  8  9  1  0
  9 10  2  0
 10 11  1  0
 11 12  1  0
 12 13  2  0
 13 14  1  0
 14 15  2  0
 15 16  1  0
 16 17  2  0
 10 18  1  0
 18 19  2  0
  4 20  1  0
 20 21  2  0
 21  1  1  0
 19  7  1  0
 17 12  1  0
  1 22  1  0
  2 23  1  0
  3 24  1  0
  5 25  1  0
  5 26  1  0
  8 27  1  0
  9 28  1  0
 13 29  1  0
 14 30  1  0
 15 31  1  0
 16 32  1  0
 17 33  1  0
 18 34  1  0
 19 35  1  0
 20 36  1  0
 21 37  1  0
M  END
>  <UniqueID>  (97) 
88

>  <SMILES>  (97) 
c1ccc(COc2ccc(Sc3ccccc3)cc2)cc1

>  <Energy>  (97) 
34.69553746823962

>  <Genealogy>  (97) 
c1ccc(COc2ccc(Sc3ccccc3)cc2)cc1 (3D coordinates assigned)
c1ccc(COc2ccc(Sc3ccccc3)cc2)cc1 (optimized conformer: 34.69553746823962 kcal/mol)

>  <smiles>  (97) 
c1ccc(COc2ccc(Sc3ccccc3)cc2)cc1

>  <score_type>  (97) 
oracle

>  <origin>  (97) 
adg

>  <m_score__min__energy>  (97) 
-7.8200000000000003

>  <m_primary>  (97) 
energy

$$$$
