0:0
     RDKit          3D

 34 35  0  0  0  0  0  0  0  0999 V2000
   58.9270   31.4750   48.9950 C   0  0  0  0  0  0  0  0  0  0  0  0
   58.5090   31.3830   47.6370 O   0  0  0  0  0  0  0  0  0  0  0  0
   58.5630   32.4360   46.7100 C   0  0  0  0  0  0  0  0  0  0  0  0
   59.3220   33.5990   46.9560 C   0  0  0  0  0  0  0  0  0  0  0  0
   59.3030   34.6600   46.0490 C   0  0  0  0  0  0  0  0  0  0  0  0
   58.5260   34.5800   44.8920 C   0  0  0  0  0  0  0  0  0  0  0  0
   57.7810   33.4300   44.6300 C   0  0  0  0  0  0  0  0  0  0  0  0
   57.8160   32.3430   45.5130 C   0  0  0  0  0  0  0  0  0  0  0  0
   57.0430   31.1790   45.1900 N   0  0  0  0  0  0  0  0  0  0  0  0
   57.4040   30.2110   44.2000 C   0  0  0  0  0  0  0  0  0  0  0  0
   56.9510   30.3330   43.0310 O   0  0  0  0  0  0  0  0  0  0  0  0
   58.3260   29.2030   44.5110 O   0  0  0  0  0  0  0  0  0  0  0  0
   58.1260   27.8240   44.3330 C   0  0  0  0  0  0  0  0  0  0  0  0
   57.9610   27.2670   43.0490 C   0  0  0  0  0  0  0  0  0  0  0  0
   57.7660   25.8950   42.8930 C   0  0  0  0  0  0  0  0  0  0  0  0
   57.7190   25.0630   44.0100 C   0  0  0  0  0  0  0  0  0  0  0  0
   57.8540   25.6020   45.2900 C   0  0  0  0  0  0  0  0  0  0  0  0
   58.0530   26.9850   45.4690 C   0  0  0  0  0  0  0  0  0  0  0  0
   58.1670   27.5420   46.8400 C   0  0  0  0  0  0  0  0  0  0  0  0
   58.2440   28.9520   47.0600 N   0  0  0  0  0  0  0  0  0  0  0  0
   58.1980   26.7680   47.8340 O   0  0  0  0  0  0  0  0  0  0  0  0
   58.0686   31.2861   49.6565 H   0  0  0  0  0  0  0  0  0  0  0  0
   59.7107   30.7279   49.1888 H   0  0  0  0  0  0  0  0  0  0  0  0
   59.3246   32.4822   49.1888 H   0  0  0  0  0  0  0  0  0  0  0  0
   59.9327   33.6704   47.8681 H   0  0  0  0  0  0  0  0  0  0  0  0
   59.9018   35.5614   46.2465 H   0  0  0  0  0  0  0  0  0  0  0  0
   58.5012   35.4239   44.1868 H   0  0  0  0  0  0  0  0  0  0  0  0
   57.1612   33.3763   43.7229 H   0  0  0  0  0  0  0  0  0  0  0  0
   57.9862   27.9191   42.1635 H   0  0  0  0  0  0  0  0  0  0  0  0
   57.6490   25.4685   41.8858 H   0  0  0  0  0  0  0  0  0  0  0  0
   57.5753   23.9799   43.8825 H   0  0  0  0  0  0  0  0  0  0  0  0
   57.8046   24.9406   46.1676 H   0  0  0  0  0  0  0  0  0  0  0  0
   58.3750   29.3240   48.0270 H   0  0  0  0  0  0  0  0  0  0  0  0
   58.0980   29.6340   46.2830 H   0  0  0  0  0  0  0  0  0  0  0  0
  1  2  1  0
  2  3  1  0
  3  4  2  0
  4  5  1  0
  5  6  2  0
  6  7  1  0
  7  8  2  0
  8  9  1  0
  9 10  1  0
 10 11  2  0
 10 12  1  0
 12 13  1  0
 13 14  2  0
 14 15  1  0
 15 16  2  0
 16 17  1  0
 17 18  2  0
 18 19  1  0
 19 20  1  0
 19 21  2  0
  8  3  1  0
 18 13  1  0
  1 22  1  0
  1 23  1  0
  1 24  1  0
  4 25  1  0
  5 26  1  0
  6 27  1  0
  7 28  1  0
 14 29  1  0
 15 30  1  0
 16 31  1  0
 17 32  1  0
 20 33  1  0
 20 34  1  0
M  CHG  1   9  -1
M  END
>  <UniqueID>  (1) 
1

>  <SMILES>  (1) 
COc1ccccc1[N-]C(=O)Oc1ccccc1C(N)=O

>  <Energy>  (1) 
44.72735137669461

>  <Genealogy>  (1) 
COc1ccccc1[N-]C(=O)Oc1ccccc1C(N)=O (protonated)
COc1ccccc1[N-]C(=O)Oc1ccccc1C(N)=O (3D coordinates assigned)
COc1ccccc1[N-]C(=O)Oc1ccccc1C(N)=O (optimized conformer: 44.72735137669461 kcal/mol)

>  <smiles>  (1) 
COc1ccccc1NC(=O)Oc1ccccc1C(N)=O

>  <score_type>  (1) 
oracle

>  <origin>  (1) 
adg

>  <m_score__min__energy>  (1) 
-9.2899999999999991

>  <m_primary>  (1) 
energy

$$$$
1:0
     RDKit          3D

 60 63  0  0  0  0  0  0  0  0999 V2000
   59.3110   26.5230   46.1170 O   0  0  0  0  0  0  0  0  0  0  0  0
   58.7600   26.7790   47.2200 C   0  0  0  0  0  0  0  0  0  0  0  0
   57.4130   26.3580   47.4410 N   0  0  0  0  0  0  0  0  0  0  0  0
   57.0300   24.9530   47.5500 C   0  0  0  0  0  0  0  0  0  0  0  0
   57.2420   24.2030   46.2520 C   0  0  0  0  0  0  0  0  0  0  0  0
   58.4580   23.5400   45.9780 C   0  0  0  0  0  0  0  0  0  0  0  0
   58.6220   22.8150   44.7950 C   0  0  0  0  0  0  0  0  0  0  0  0
   57.5760   22.7250   43.8760 C   0  0  0  0  0  0  0  0  0  0  0  0
   56.3580   23.3520   44.1420 C   0  0  0  0  0  0  0  0  0  0  0  0
   56.1810   24.0830   45.3230 C   0  0  0  0  0  0  0  0  0  0  0  0
   54.6050   24.8140   45.6190 Cl  0  0  0  0  0  0  0  0  0  0  0  0
   59.4500   27.5350   48.2250 N   0  0  0  0  0  0  0  0  0  0  0  0
   59.7470   28.9390   48.1820 C   0  0  0  0  0  0  0  0  0  0  0  0
   60.5870   29.4930   47.2000 C   0  0  0  0  0  0  0  0  0  0  0  0
   60.8770   30.8610   47.2120 C   0  0  0  0  0  0  0  0  0  0  0  0
   60.3400   31.6880   48.2070 C   0  0  0  0  0  0  0  0  0  0  0  0
   60.6890   33.4150   48.2270 S   0  0  0  0  0  0  0  0  0  0  0  0
   62.0650   33.6660   47.6780 O   0  0  0  0  0  0  0  0  0  0  0  0
   60.6470   33.8980   49.6500 O   0  0  0  0  0  0  0  0  0  0  0  0
   59.4980   34.2670   47.2730 N   0  0  0  0  0  0  0  0  0  0  0  0
   58.1610   33.6370   47.4030 C   0  0  0  0  0  0  0  0  0  0  0  0
   57.8180   32.7450   46.2040 C   0  0  0  0  0  0  0  0  0  0  0  0
   57.8090   33.5130   44.9360 N   0  0  0  0  0  0  0  0  0  0  0  0
   57.9730   32.6050   43.7810 C   0  0  0  0  0  0  0  0  0  0  0  0
   57.5910   31.1980   44.1590 C   0  0  0  0  0  0  0  0  0  0  0  0
   56.2420   30.8070   44.1920 C   0  0  0  0  0  0  0  0  0  0  0  0
   55.8960   29.5020   44.5580 C   0  0  0  0  0  0  0  0  0  0  0  0
   56.8940   28.5740   44.8880 C   0  0  0  0  0  0  0  0  0  0  0  0
   56.5610   27.2700   45.2500 O   0  0  0  0  0  0  0  0  0  0  0  0
   58.2370   28.9600   44.8540 C   0  0  0  0  0  0  0  0  0  0  0  0
   58.5860   30.2660   44.4960 C   0  0  0  0  0  0  0  0  0  0  0  0
   58.7930   34.6280   44.9160 C   0  0  0  0  0  0  0  0  0  0  0  0
   59.9660   34.3850   45.8760 C   0  0  0  0  0  0  0  0  0  0  0  0
   59.5130   31.1340   49.1930 C   0  0  0  0  0  0  0  0  0  0  0  0
   59.2290   29.7660   49.1850 C   0  0  0  0  0  0  0  0  0  0  0  0
   57.6366   24.4799   48.3363 H   0  0  0  0  0  0  0  0  0  0  0  0
   55.9582   24.9118   47.7941 H   0  0  0  0  0  0  0  0  0  0  0  0
   59.2838   23.5948   46.7026 H   0  0  0  0  0  0  0  0  0  0  0  0
   59.5788   22.3136   44.5875 H   0  0  0  0  0  0  0  0  0  0  0  0
   57.7114   22.1599   42.9420 H   0  0  0  0  0  0  0  0  0  0  0  0
   55.5323   23.2715   43.4197 H   0  0  0  0  0  0  0  0  0  0  0  0
   61.0175   28.8482   46.4197 H   0  0  0  0  0  0  0  0  0  0  0  0
   61.5295   31.2894   46.4369 H   0  0  0  0  0  0  0  0  0  0  0  0
   58.1465   33.0234   48.3158 H   0  0  0  0  0  0  0  0  0  0  0  0
   57.4129   34.4422   47.4478 H   0  0  0  0  0  0  0  0  0  0  0  0
   58.5672   31.9430   46.1301 H   0  0  0  0  0  0  0  0  0  0  0  0
   56.8116   32.3298   46.3614 H   0  0  0  0  0  0  0  0  0  0  0  0
   57.3286   32.9464   42.9575 H   0  0  0  0  0  0  0  0  0  0  0  0
   59.0270   32.6156   43.4664 H   0  0  0  0  0  0  0  0  0  0  0  0
   55.4553   31.5295   43.9292 H   0  0  0  0  0  0  0  0  0  0  0  0
   54.8378   29.2029   44.5870 H   0  0  0  0  0  0  0  0  0  0  0  0
   57.1530   26.7250   45.8670 H   0  0  0  0  0  0  0  0  0  0  0  0
   59.0224   28.2336   45.1098 H   0  0  0  0  0  0  0  0  0  0  0  0
   59.6445   30.5646   44.4783 H   0  0  0  0  0  0  0  0  0  0  0  0
   59.1875   34.7338   43.8946 H   0  0  0  0  0  0  0  0  0  0  0  0
   58.2741   35.5415   45.2420 H   0  0  0  0  0  0  0  0  0  0  0  0
   60.4775   33.4543   45.5892 H   0  0  0  0  0  0  0  0  0  0  0  0
   60.6531   35.2415   45.8101 H   0  0  0  0  0  0  0  0  0  0  0  0
   59.0860   31.7781   49.9758 H   0  0  0  0  0  0  0  0  0  0  0  0
   58.5934   29.3358   49.9731 H   0  0  0  0  0  0  0  0  0  0  0  0
  1  2  2  0
  2  3  1  0
  3  4  1  0
  4  5  1  0
  5  6  2  0
  6  7  1  0
  7  8  2  0
  8  9  1  0
  9 10  2  0
 10 11  1  0
  2 12  1  0
 12 13  1  0
 13 14  2  0
 14 15  1  0
 15 16  2  0
 16 17  1  0
 17 18  2  0
 17 19  2  0
 17 20  1  0
 20 21  1  0
 21 22  1  0
 22 23  1  0
 23 24  1  0
 24 25  1  0
 25 26  2  0
 26 27  1  0
 27 28  2  0
 28 29  1  0
 28 30  1  0
 30 31  2  0
 23 32  1  0
 32 33  1  0
 16 34  1  0
 34 35  2  0
 10  5  1  0
 35 13  1  0
 33 20  1  0
 31 25  1  0
  4 36  1  0
  4 37  1  0
  6 38  1  0
  7 39  1  0
  8 40  1  0
  9 41  1  0
 14 42  1  0
 15 43  1  0
 21 44  1  0
 21 45  1  0
 22 46  1  0
 22 47  1  0
 24 48  1  0
 24 49  1  0
 26 50  1  0
 27 51  1  0
 29 52  1  0
 30 53  1  0
 31 54  1  0
 32 55  1  0
 32 56  1  0
 33 57  1  0
 33 58  1  0
 34 59  1  0
 35 60  1  0
M  CHG  2   3  -1  12  -1
M  END
>  <UniqueID>  (2) 
2

>  <SMILES>  (2) 
O=C([N-]Cc1ccccc1Cl)[N-]c1ccc(S(=O)(=O)N2CCN(Cc3ccc(O)cc3)CC2)cc1

>  <Energy>  (2) 
78.12708384653435

>  <Genealogy>  (2) 
O=C([N-]Cc1ccccc1Cl)[N-]c1ccc(S(=O)(=O)N2CCN(Cc3ccc(O)cc3)CC2)cc1 (protonated)
O=C([N-]Cc1ccccc1Cl)[N-]c1ccc(S(=O)(=O)N2CCN(Cc3ccc(O)cc3)CC2)cc1 (3D coordinates assigned)
O=C([N-]Cc1ccccc1Cl)[N-]c1ccc(S(=O)(=O)N2CCN(Cc3ccc(O)cc3)CC2)cc1 (nonaromatic ring conformer: 78.12708384653435 kcal/mol)

>  <smiles>  (2) 
O=C(NCc1ccccc1Cl)Nc1ccc(S(=O)(=O)N2CCN(Cc3ccc(O)cc3)CC2)cc1

>  <score_type>  (2) 
oracle

>  <origin>  (2) 
adg

>  <m_score__min__energy>  (2) 
-12.6

>  <m_primary>  (2) 
energy

$$$$
2:0
     RDKit          3D

 42 44  0  0  0  0  0  0  0  0999 V2000
   61.0380   29.9450   48.0610 C   0  0  0  0  0  0  0  0  0  0  0  0
   59.9010   29.1570   47.4920 C   0  0  0  0  0  0  0  0  0  0  0  0
   59.5780   27.9030   48.0150 C   0  0  0  0  0  0  0  0  0  0  0  0
   58.5150   27.1870   47.4680 C   0  0  0  0  0  0  0  0  0  0  0  0
   57.7690   27.7190   46.4020 C   0  0  0  0  0  0  0  0  0  0  0  0
   56.7400   26.8660   45.7660 C   0  0  0  0  0  0  0  0  0  0  0  0
   55.5170   27.0800   45.9840 O   0  0  0  0  0  0  0  0  0  0  0  0
   57.1060   25.7830   44.9770 O   0  0  0  0  0  0  0  0  0  0  0  0
   58.0940   29.0190   45.9360 C   0  0  0  0  0  0  0  0  0  0  0  0
   57.3000   29.7380   44.9210 C   0  0  0  0  0  0  0  0  0  0  0  0
   57.1080   29.2000   43.7980 O   0  0  0  0  0  0  0  0  0  0  0  0
   56.7770   31.0450   45.2000 N   0  0  0  0  0  0  0  0  0  0  0  0
   57.5330   32.2210   45.5210 C   0  0  0  0  0  0  0  0  0  0  0  0
   57.5850   33.2590   44.5870 C   0  0  0  0  0  0  0  0  0  0  0  0
   58.2880   34.4320   44.8680 C   0  0  0  0  0  0  0  0  0  0  0  0
   58.9380   34.5890   46.1000 C   0  0  0  0  0  0  0  0  0  0  0  0
   59.6330   35.7670   46.3730 O   0  0  0  0  0  0  0  0  0  0  0  0
   58.8830   33.5580   47.0580 C   0  0  0  0  0  0  0  0  0  0  0  0
   59.5230   33.7210   48.4140 C   0  0  0  0  0  0  0  0  0  0  0  0
   61.0210   33.6280   48.3010 C   0  0  0  0  0  0  0  0  0  0  0  0
   61.6240   33.1510   47.1280 C   0  0  0  0  0  0  0  0  0  0  0  0
   63.0160   33.1030   47.0280 C   0  0  0  0  0  0  0  0  0  0  0  0
   63.7950   33.5380   48.1010 C   0  0  0  0  0  0  0  0  0  0  0  0
   63.1980   34.0060   49.2300 N   0  0  0  0  0  0  0  0  0  0  0  0
   61.8440   34.0630   49.3520 C   0  0  0  0  0  0  0  0  0  0  0  0
   58.1650   32.3850   46.7670 C   0  0  0  0  0  0  0  0  0  0  0  0
   59.1490   29.6800   46.4870 N   0  0  0  0  0  0  0  0  0  0  0  0
   60.9925   29.9134   49.1596 H   0  0  0  0  0  0  0  0  0  0  0  0
   61.9904   29.5123   47.7209 H   0  0  0  0  0  0  0  0  0  0  0  0
   60.9672   30.9887   47.7209 H   0  0  0  0  0  0  0  0  0  0  0  0
   60.1574   27.4843   48.8511 H   0  0  0  0  0  0  0  0  0  0  0  0
   58.2576   26.1975   47.8737 H   0  0  0  0  0  0  0  0  0  0  0  0
   57.0677   33.1510   43.6223 H   0  0  0  0  0  0  0  0  0  0  0  0
   58.3320   35.2366   44.1193 H   0  0  0  0  0  0  0  0  0  0  0  0
   59.3400   36.4000   47.1070 H   0  0  0  0  0  0  0  0  0  0  0  0
   59.2509   34.7033   48.8276 H   0  0  0  0  0  0  0  0  0  0  0  0
   59.1644   32.9197   49.0768 H   0  0  0  0  0  0  0  0  0  0  0  0
   61.0003   32.8146   46.2866 H   0  0  0  0  0  0  0  0  0  0  0  0
   63.4940   32.7258   46.1119 H   0  0  0  0  0  0  0  0  0  0  0  0
   64.8924   33.5024   48.0337 H   0  0  0  0  0  0  0  0  0  0  0  0
   61.3928   34.4511   50.2771 H   0  0  0  0  0  0  0  0  0  0  0  0
   58.0967   31.5873   47.5213 H   0  0  0  0  0  0  0  0  0  0  0  0
  1  2  1  0
  2  3  2  0
  3  4  1  0
  4  5  2  0
  5  6  1  0
  6  7  2  0
  6  8  1  0
  5  9  1  0
  9 10  1  0
 10 11  2  0
 10 12  1  0
 12 13  1  0
 13 14  2  0
 14 15  1  0
 15 16  2  0
 16 17  1  0
 16 18  1  0
 18 19  1  0
 19 20  1  0
 20 21  2  0
 21 22  1  0
 22 23  2  0
 23 24  1  0
 24 25  2  0
 18 26  2  0
  9 27  2  0
 27  2  1  0
 26 13  1  0
 25 20  1  0
  1 28  1  0
  1 29  1  0
  1 30  1  0
  3 31  1  0
  4 32  1  0
 14 33  1  0
 15 34  1  0
 17 35  1  0
 19 36  1  0
 19 37  1  0
 21 38  1  0
 22 39  1  0
 23 40  1  0
 25 41  1  0
 26 42  1  0
M  CHG  2   8  -1  12  -1
M  END
>  <UniqueID>  (3) 
3

>  <SMILES>  (3) 
Cc1ccc(C(=O)[O-])c(C(=O)[N-]c2ccc(O)c(Cc3cccnc3)c2)n1

>  <Energy>  (3) 
55.72293421397989

>  <Genealogy>  (3) 
Cc1ccc(C(=O)[O-])c(C(=O)[N-]c2ccc(O)c(Cc3cccnc3)c2)n1 (protonated)
Cc1ccc(C(=O)[O-])c(C(=O)[N-]c2ccc(O)c(Cc3cccnc3)c2)n1 (3D coordinates assigned)
Cc1ccc(C(=O)[O-])c(C(=O)[N-]c2ccc(O)c(Cc3cccnc3)c2)n1 (optimized conformer: 55.72293421397989 kcal/mol)

>  <smiles>  (3) 
Cc1ccc(C(=O)O)c(C(=O)Nc2ccc(O)c(Cc3cccnc3)c2)n1

>  <score_type>  (3) 
oracle

>  <origin>  (3) 
adg

>  <m_score__min__energy>  (3) 
-12.24

>  <m_primary>  (3) 
energy

$$$$
3:0
     RDKit          3D

 49 51  0  0  0  0  0  0  0  0999 V2000
   58.5240   31.8180   49.2170 C   0  0  0  0  0  0  0  0  0  0  0  0
   59.1470   31.4400   47.9500 N   0  0  0  0  0  0  0  0  0  0  0  0
   60.0390   30.2830   47.9110 C   0  0  0  0  0  0  0  0  0  0  0  0
   59.1170   32.3480   46.8370 C   0  0  0  0  0  0  0  0  0  0  0  0
   59.8050   33.5810   46.9150 C   0  0  0  0  0  0  0  0  0  0  0  0
   60.5860   33.9600   48.1500 C   0  0  0  0  0  0  0  0  0  0  0  0
   62.0050   34.2080   47.8140 N   0  0  0  0  0  0  0  0  0  0  0  0
   62.5340   33.2480   46.8230 C   0  0  0  0  0  0  0  0  0  0  0  0
   62.7690   31.8560   47.4290 C   0  0  0  0  0  0  0  0  0  0  0  0
   63.7050   31.9490   48.6330 C   0  0  0  0  0  0  0  0  0  0  0  0
   63.1720   32.9520   49.6580 C   0  0  0  0  0  0  0  0  0  0  0  0
   62.8860   34.3130   49.0010 C   0  0  0  0  0  0  0  0  0  0  0  0
   59.7650   34.4650   45.8250 C   0  0  0  0  0  0  0  0  0  0  0  0
   59.0460   34.1380   44.6770 C   0  0  0  0  0  0  0  0  0  0  0  0
   58.3520   32.9310   44.6030 C   0  0  0  0  0  0  0  0  0  0  0  0
   58.3660   32.0330   45.6820 C   0  0  0  0  0  0  0  0  0  0  0  0
   57.6650   30.7790   45.5920 N   0  0  0  0  0  0  0  0  0  0  0  0
   58.3240   29.5250   45.3470 C   0  0  0  0  0  0  0  0  0  0  0  0
   59.5200   29.5070   44.9480 O   0  0  0  0  0  0  0  0  0  0  0  0
   57.6120   28.2470   45.5170 C   0  0  0  0  0  0  0  0  0  0  0  0
   58.1910   26.9880   45.5720 C   0  0  0  0  0  0  0  0  0  0  0  0
   57.1560   26.0930   45.7260 C   0  0  0  0  0  0  0  0  0  0  0  0
   56.0080   26.8530   45.7550 C   0  0  0  0  0  0  0  0  0  0  0  0
   54.7260   26.3400   45.8950 O   0  0  0  0  0  0  0  0  0  0  0  0
   56.2680   28.1670   45.6260 N   0  0  0  0  0  0  0  0  0  0  0  0
   59.1363   31.4465   50.0519 H   0  0  0  0  0  0  0  0  0  0  0  0
   58.4493   32.9139   49.2763 H   0  0  0  0  0  0  0  0  0  0  0  0
   57.5175   31.3781   49.2763 H   0  0  0  0  0  0  0  0  0  0  0  0
   60.2797   29.9708   48.9379 H   0  0  0  0  0  0  0  0  0  0  0  0
   59.5431   29.4553   47.3829 H   0  0  0  0  0  0  0  0  0  0  0  0
   60.9656   30.5521   47.3829 H   0  0  0  0  0  0  0  0  0  0  0  0
   60.1530   34.8726   48.5855 H   0  0  0  0  0  0  0  0  0  0  0  0
   60.5324   33.1312   48.8712 H   0  0  0  0  0  0  0  0  0  0  0  0
   61.8124   33.1575   45.9977 H   0  0  0  0  0  0  0  0  0  0  0  0
   63.5031   33.6292   46.4686 H   0  0  0  0  0  0  0  0  0  0  0  0
   61.8056   31.4337   47.7509 H   0  0  0  0  0  0  0  0  0  0  0  0
   63.2305   31.2094   46.6681 H   0  0  0  0  0  0  0  0  0  0  0  0
   63.7851   30.9587   49.1051 H   0  0  0  0  0  0  0  0  0  0  0  0
   64.6924   32.2887   48.2871 H   0  0  0  0  0  0  0  0  0  0  0  0
   62.2411   32.5604   50.0939 H   0  0  0  0  0  0  0  0  0  0  0  0
   63.9339   33.0932   50.4388 H   0  0  0  0  0  0  0  0  0  0  0  0
   62.4001   34.9649   49.7419 H   0  0  0  0  0  0  0  0  0  0  0  0
   63.8483   34.7239   48.6618 H   0  0  0  0  0  0  0  0  0  0  0  0
   60.3048   35.4220   45.8776 H   0  0  0  0  0  0  0  0  0  0  0  0
   59.0259   34.8347   43.8260 H   0  0  0  0  0  0  0  0  0  0  0  0
   57.7890   32.6804   43.6919 H   0  0  0  0  0  0  0  0  0  0  0  0
   56.6230   30.7950   45.6130 H   0  0  0  0  0  0  0  0  0  0  0  0
   59.2632   26.7516   45.5058 H   0  0  0  0  0  0  0  0  0  0  0  0
   57.2306   24.9987   45.8087 H   0  0  0  0  0  0  0  0  0  0  0  0
  1  2  1  0
  2  3  1  0
  2  4  1  0
  4  5  2  0
  5  6  1  0
  6  7  1  0
  7  8  1  0
  8  9  1  0
  9 10  1  0
 10 11  1  0
 11 12  1  0
  5 13  1  0
 13 14  2  0
 14 15  1  0
 15 16  2  0
 16 17  1  0
 17 18  1  0
 18 19  2  0
 18 20  1  0
 20 21  2  0
 21 22  1  0
 22 23  2  0
 23 24  1  0
 23 25  1  0
 16  4  1  0
 25 20  1  0
 12  7  1  0
  1 26  1  0
  1 27  1  0
  1 28  1  0
  3 29  1  0
  3 30  1  0
  3 31  1  0
  6 32  1  0
  6 33  1  0
  8 34  1  0
  8 35  1  0
  9 36  1  0
  9 37  1  0
 10 38  1  0
 10 39  1  0
 11 40  1  0
 11 41  1  0
 12 42  1  0
 12 43  1  0
 13 44  1  0
 14 45  1  0
 15 46  1  0
 17 47  1  0
 21 48  1  0
 22 49  1  0
M  CHG  2  24  -1  25  -1
M  END
>  <UniqueID>  (4) 
4

>  <SMILES>  (4) 
CN(C)c1c(CN2CCCCC2)cccc1NC(=O)c1ccc([O-])[n-]1

>  <Energy>  (4) 
81.90456863978547

>  <Genealogy>  (4) 
CN(C)c1c(CN2CCCCC2)cccc1NC(=O)c1ccc([O-])[n-]1 (protonated)
CN(C)c1c(CN2CCCCC2)cccc1NC(=O)c1ccc([O-])[n-]1 (3D coordinates assigned)
CN(C)c1c(CN2CCCCC2)cccc1NC(=O)c1ccc([O-])[n-]1 (nonaromatic ring conformer: 81.90456863978547 kcal/mol)

>  <smiles>  (4) 
CN(C)c1c(CN2CCCCC2)cccc1NC(=O)c1ccc(O)[nH]1

>  <score_type>  (4) 
oracle

>  <origin>  (4) 
adg

>  <m_score__min__energy>  (4) 
-13.42

>  <m_primary>  (4) 
energy

$$$$
4:0
     RDKit          3D

 74 79  0  0  1  0  0  0  0  0999 V2000
   63.0680   27.2180   52.7770 C   0  0  0  0  0  0  0  0  0  0  0  0
   61.8130   27.8270   52.5470 O   0  0  0  0  0  0  0  0  0  0  0  0
   61.2230   27.8720   51.2950 C   0  0  0  0  0  0  0  0  0  0  0  0
   61.1490   26.6890   50.5920 C   0  0  0  0  0  0  0  0  0  0  0  0
   60.5600   26.7440   49.3460 C   0  0  0  0  0  0  0  0  0  0  0  0
   60.0600   27.9110   48.8040 C   0  0  0  0  0  0  0  0  0  0  0  0
   59.4160   27.9210   47.4320 C   0  0  0  0  0  0  0  0  0  0  0  0
   60.0900   28.8210   46.5910 N   0  0  0  0  0  0  0  0  0  0  0  0
   59.5890   29.9400   46.2590 C   0  0  0  0  0  0  0  0  0  0  0  0
   59.5980   30.9260   47.1880 N   0  0  0  0  0  0  0  0  0  0  0  0
   59.0680   32.1310   46.8730 C   0  0  0  0  0  0  0  0  0  0  0  0
   58.9370   33.3020   47.5970 C   0  0  0  0  0  0  0  0  0  0  0  0
   59.3350   33.5180   48.8540 C   0  0  0  0  0  0  0  0  0  0  0  0
   58.8090   32.6920   49.9520 C   0  0  0  0  0  0  0  0  0  0  0  0
   58.3770   31.4160   49.9090 N   0  0  0  0  0  0  0  0  0  0  0  0
   57.9870   31.0670   51.1380 C   0  0  0  0  0  0  0  0  0  0  0  0
   57.5310   29.9360   51.4320 O   0  0  0  0  0  0  0  0  0  0  0  0
   58.1740   32.1310   51.9520 N   0  0  0  0  0  0  0  0  0  0  0  0
   58.6850   33.1670   51.2560 C   0  0  0  0  0  0  0  0  0  0  0  0
   59.0190   34.4350   51.7340 O   0  0  0  0  0  0  0  0  0  0  0  0
   58.3130   34.2100   46.7550 C   0  0  0  0  0  0  0  0  0  0  0  0
   58.0820   33.6000   45.5730 N   0  0  0  0  0  0  0  0  0  0  0  0
   58.5310   32.3700   45.6480 N   0  0  0  0  0  0  0  0  0  0  0  0
   58.5250   31.3720   44.7150 C   0  0  0  0  0  0  0  0  0  0  0  0
   58.0280   31.5330   43.5400 N   0  0  0  0  0  0  0  0  0  0  0  0
   56.7350   30.9660   43.2070 C   0  0  0  0  0  0  0  0  0  0  0  0
   56.1550   30.1350   44.3100 C   0  0  0  0  0  0  0  0  0  0  0  0
   56.6570   29.4270   43.0990 C   0  0  0  0  0  0  0  0  0  0  0  0
   59.0550   30.1820   45.0490 N   0  0  0  0  0  0  0  0  0  0  0  0
   60.1480   29.1020   49.5380 C   0  0  0  0  0  0  0  0  0  0  0  0
   60.7390   29.0750   50.8010 C   0  0  0  0  0  0  0  0  0  0  0  0
   60.8760   30.1770   51.6020 O   0  0  0  0  0  0  0  0  0  0  0  0
   62.0850   30.8610   51.8740 C   0  0  0  0  0  0  0  0  0  0  0  0
   63.0660   30.7070   50.7100 C   0  0  0  0  0  0  0  0  0  0  0  0
   62.4350   31.3480   49.4990 C   0  0  0  0  0  0  0  0  0  0  0  0
   63.3720   31.9370   48.5950 N   0  0  0  0  0  0  0  0  0  0  0  0
   62.9050   32.0120   47.2290 C   0  0  0  0  0  0  0  0  0  0  0  0
   62.6970   33.4370   46.7780 C   0  0  0  0  0  0  0  0  0  0  0  0
   62.0530   34.2090   47.7090 O   0  0  0  0  0  0  0  0  0  0  0  0
   62.6230   34.1770   48.9690 C   0  0  0  0  0  0  0  0  0  0  0  0
   63.8000   33.2630   48.9680 C   0  0  0  0  0  0  0  0  0  0  0  0
   63.2417   27.1337   53.8599 H   0  0  0  0  0  0  0  0  0  0  0  0
   63.0773   26.2152   52.3250 H   0  0  0  0  0  0  0  0  0  0  0  0
   63.8615   27.8313   52.3250 H   0  0  0  0  0  0  0  0  0  0  0  0
   61.5404   25.7473   51.0043 H   0  0  0  0  0  0  0  0  0  0  0  0
   60.4854   25.8171   48.7583 H   0  0  0  0  0  0  0  0  0  0  0  0
   59.4657   26.9110   46.9990 H   0  0  0  0  0  0  0  0  0  0  0  0
   58.3661   28.2346   47.5285 H   0  0  0  0  0  0  0  0  0  0  0  0
   60.0595   34.3173   49.0690 H   0  0  0  0  0  0  0  0  0  0  0  0
   58.3710   30.8330   49.0270 H   0  0  0  0  0  0  0  0  0  0  0  0
   57.9610   32.1620   52.9670 H   0  0  0  0  0  0  0  0  0  0  0  0
   58.5300   35.2780   51.4940 H   0  0  0  0  0  0  0  0  0  0  0  0
   58.0513   35.2483   47.0068 H   0  0  0  0  0  0  0  0  0  0  0  0
   56.4098   31.7977   42.5647 H   0  0  0  0  0  0  0  0  0  0  0  0
   56.6990   30.0379   45.2611 H   0  0  0  0  0  0  0  0  0  0  0  0
   55.1960   30.1419   44.8487 H   0  0  0  0  0  0  0  0  0  0  0  0
   57.5742   28.8222   43.1532 H   0  0  0  0  0  0  0  0  0  0  0  0
   56.2331   28.7133   42.3773 H   0  0  0  0  0  0  0  0  0  0  0  0
   59.0610   29.4190   44.3500 H   0  0  0  0  0  0  0  0  0  0  0  0
   59.7570   30.0433   49.1243 H   0  0  0  0  0  0  0  0  0  0  0  0
   61.8696   31.9289   52.0260 H   0  0  0  0  0  0  0  0  0  0  0  0
   62.5391   30.4312   52.7790 H   0  0  0  0  0  0  0  0  0  0  0  0
   64.0150   31.2091   50.9494 H   0  0  0  0  0  0  0  0  0  0  0  0
   63.2788   29.6446   50.5200 H   0  0  0  0  0  0  0  0  0  0  0  0
   61.8689   30.5770   48.9558 H   0  0  0  0  0  0  0  0  0  0  0  0
   61.7959   32.1634   49.8688 H   0  0  0  0  0  0  0  0  0  0  0  0
   63.6495   31.5374   46.5730 H   0  0  0  0  0  0  0  0  0  0  0  0
   61.9362   31.4940   47.1731 H   0  0  0  0  0  0  0  0  0  0  0  0
   63.6800   33.8854   46.5715 H   0  0  0  0  0  0  0  0  0  0  0  0
   62.0603   33.4066   45.8815 H   0  0  0  0  0  0  0  0  0  0  0  0
   62.9477   35.1901   49.2487 H   0  0  0  0  0  0  0  0  0  0  0  0
   61.8806   33.8121   49.6941 H   0  0  0  0  0  0  0  0  0  0  0  0
   64.5462   33.6253   48.2456 H   0  0  0  0  0  0  0  0  0  0  0  0
   64.2481   33.2373   49.9723 H   0  0  0  0  0  0  0  0  0  0  0  0
  1  2  1  0
  2  3  1  0
  3  4  2  0
  4  5  1  0
  5  6  2  0
  6  7  1  0
  7  8  1  0
  8  9  2  0
  9 10  1  0
 10 11  2  0
 11 12  1  0
 12 13  2  0
 13 14  1  0
 14 15  1  0
 15 16  1  0
 16 17  2  0
 16 18  1  0
 18 19  1  0
 19 20  1  0
 12 21  1  0
 21 22  2  0
 22 23  1  0
 23 24  1  0
 24 25  2  0
 25 26  1  0
 26 27  1  0
 27 28  1  0
 24 29  1  0
  6 30  1  0
 30 31  2  0
 31 32  1  0
 32 33  1  0
 33 34  1  0
 34 35  1  0
 35 36  1  0
 36 37  1  0
 37 38  1  0
 38 39  1  0
 39 40  1  0
 40 41  1  0
 31  3  1  0
 41 36  1  0
 29  9  1  0
 23 11  1  0
 28 26  1  0
 19 14  2  0
  1 42  1  0
  1 43  1  0
  1 44  1  0
  4 45  1  0
  5 46  1  0
  7 47  1  0
  7 48  1  0
 13 49  1  0
 15 50  1  0
 18 51  1  0
 20 52  1  0
 21 53  1  0
 26 54  1  0
 27 55  1  0
 27 56  1  0
 28 57  1  0
 28 58  1  0
 29 59  1  0
 30 60  1  0
 33 61  1  0
 33 62  1  0
 34 63  1  0
 34 64  1  0
 35 65  1  0
 35 66  1  0
 37 67  1  0
 37 68  1  0
 38 69  1  0
 38 70  1  0
 40 71  1  0
 40 72  1  0
 41 73  1  0
 41 74  1  0
M  END
>  <smiles>  (5) 
COc1ccc(CN=c2nc3c(=Cc4[nH]c(=O)[nH]c4O)cnn3c(=NC3CC3)[nH]2)cc1OCCCN1CCOCC1

>  <score_type>  (5) 
oracle

>  <origin>  (5) 
adg

>  <m_score__min__energy>  (5) 
-10.289999999999999

>  <m_primary>  (5) 
energy

$$$$
5:0
     RDKit          3D

 62 65  0  0  0  0  0  0  0  0999 V2000
   62.2860   32.1460   46.7360 O   0  0  0  0  0  0  0  0  0  0  0  0
   62.0110   33.0480   47.5760 C   0  0  0  0  0  0  0  0  0  0  0  0
   60.8350   33.8570   47.3980 N   0  0  0  0  0  0  0  0  0  0  0  0
   59.6980   33.4510   46.6150 C   0  0  0  0  0  0  0  0  0  0  0  0
   58.9260   34.4290   45.9670 C   0  0  0  0  0  0  0  0  0  0  0  0
   57.8080   34.0610   45.2130 C   0  0  0  0  0  0  0  0  0  0  0  0
   57.4420   32.7160   45.1100 C   0  0  0  0  0  0  0  0  0  0  0  0
   58.1860   31.7280   45.7750 C   0  0  0  0  0  0  0  0  0  0  0  0
   57.8050   30.2760   45.6600 C   0  0  0  0  0  0  0  0  0  0  0  0
   59.0030   29.4100   45.5780 N   0  0  0  0  0  0  0  0  0  0  0  0
   59.5930   29.0930   46.8940 C   0  0  0  0  0  0  0  0  0  0  0  0
   58.8470   27.9970   47.6740 C   0  0  0  0  0  0  0  0  0  0  0  0
   59.0500   26.6110   47.0360 C   0  0  0  0  0  0  0  0  0  0  0  0
   58.0030   26.2330   45.9610 C   0  0  1  0  0  0  0  0  0  0  0  0
   56.7090   25.8090   46.6090 C   0  0  0  0  0  0  0  0  0  0  0  0
   56.7260   25.1610   47.6910 O   0  0  0  0  0  0  0  0  0  0  0  0
   55.4640   26.1130   45.9700 N   0  0  0  0  0  0  0  0  0  0  0  0
   54.5340   25.0850   45.5260 C   0  0  0  0  0  0  0  0  0  0  0  0
   55.3020   23.9300   44.9650 C   0  0  0  0  0  0  0  0  0  0  0  0
   55.4570   22.7420   45.6990 C   0  0  0  0  0  0  0  0  0  0  0  0
   56.1540   21.6750   45.1310 C   0  0  0  0  0  0  0  0  0  0  0  0
   56.6800   21.7950   43.8440 C   0  0  0  0  0  0  0  0  0  0  0  0
   56.4940   22.9850   43.1370 C   0  0  0  0  0  0  0  0  0  0  0  0
   55.8130   24.0140   43.7060 N   0  0  0  0  0  0  0  0  0  0  0  0
   57.7310   27.3160   44.8920 C   0  0  0  0  0  0  0  0  0  0  0  0
   58.9250   28.2630   44.6410 C   0  0  0  0  0  0  0  0  0  0  0  0
   59.3120   32.1000   46.5280 C   0  0  0  0  0  0  0  0  0  0  0  0
   62.9300   33.2900   48.7140 C   0  0  0  0  0  0  0  0  0  0  0  0
   64.2110   32.7060   48.7440 C   0  0  0  0  0  0  0  0  0  0  0  0
   65.0800   32.9560   49.8110 C   0  0  0  0  0  0  0  0  0  0  0  0
   64.6830   33.7930   50.8580 C   0  0  0  0  0  0  0  0  0  0  0  0
   65.5280   34.0360   51.8900 F   0  0  0  0  0  0  0  0  0  0  0  0
   63.4160   34.3830   50.8370 C   0  0  0  0  0  0  0  0  0  0  0  0
   62.5440   34.1360   49.7720 C   0  0  0  0  0  0  0  0  0  0  0  0
   60.8500   34.8340   47.7690 H   0  0  0  0  0  0  0  0  0  0  0  0
   59.2026   35.4902   46.0533 H   0  0  0  0  0  0  0  0  0  0  0  0
   57.2147   34.8319   44.6994 H   0  0  0  0  0  0  0  0  0  0  0  0
   56.5682   32.4304   44.5060 H   0  0  0  0  0  0  0  0  0  0  0  0
   57.2155   29.9893   46.5433 H   0  0  0  0  0  0  0  0  0  0  0  0
   57.2172   30.1433   44.7397 H   0  0  0  0  0  0  0  0  0  0  0  0
   60.6290   28.7589   46.7357 H   0  0  0  0  0  0  0  0  0  0  0  0
   59.5275   30.0100   47.4980 H   0  0  0  0  0  0  0  0  0  0  0  0
   59.2248   27.9736   48.7068 H   0  0  0  0  0  0  0  0  0  0  0  0
   57.7724   28.2311   47.6546 H   0  0  0  0  0  0  0  0  0  0  0  0
   60.0447   26.5925   46.5666 H   0  0  0  0  0  0  0  0  0  0  0  0
   58.9400   25.8768   47.8477 H   0  0  0  0  0  0  0  0  0  0  0  0
   58.4553   25.3931   45.4133 H   0  0  0  0  0  0  0  0  0  0  0  0
   53.9290   24.7440   46.3791 H   0  0  0  0  0  0  0  0  0  0  0  0
   53.8721   25.4980   44.7505 H   0  0  0  0  0  0  0  0  0  0  0  0
   55.0335   22.6540   46.7104 H   0  0  0  0  0  0  0  0  0  0  0  0
   56.2886   20.7412   45.6965 H   0  0  0  0  0  0  0  0  0  0  0  0
   57.2355   20.9607   43.3909 H   0  0  0  0  0  0  0  0  0  0  0  0
   56.8988   23.0893   42.1195 H   0  0  0  0  0  0  0  0  0  0  0  0
   57.4829   26.8135   43.9455 H   0  0  0  0  0  0  0  0  0  0  0  0
   56.9056   27.9370   45.2702 H   0  0  0  0  0  0  0  0  0  0  0  0
   59.8528   27.6793   44.7333 H   0  0  0  0  0  0  0  0  0  0  0  0
   58.7843   28.6870   43.6358 H   0  0  0  0  0  0  0  0  0  0  0  0
   59.8963   31.3302   47.0534 H   0  0  0  0  0  0  0  0  0  0  0  0
   64.5306   32.0483   47.9222 H   0  0  0  0  0  0  0  0  0  0  0  0
   66.0778   32.4931   49.8264 H   0  0  0  0  0  0  0  0  0  0  0  0
   63.1042   35.0430   51.6599 H   0  0  0  0  0  0  0  0  0  0  0  0
   61.5494   34.6058   49.7604 H   0  0  0  0  0  0  0  0  0  0  0  0
  1  2  2  0
  2  3  1  0
  3  4  1  0
  4  5  2  0
  5  6  1  0
  6  7  2  0
  7  8  1  0
  8  9  1  0
  9 10  1  0
 10 11  1  0
 11 12  1  0
 12 13  1  0
 13 14  1  0
 14 15  1  0
 15 16  2  0
 15 17  1  0
 17 18  1  0
 18 19  1  0
 19 20  2  0
 20 21  1  0
 21 22  2  0
 22 23  1  0
 23 24  2  0
 14 25  1  0
 25 26  1  0
  8 27  2  0
  2 28  1  0
 28 29  2  0
 29 30  1  0
 30 31  2  0
 31 32  1  0
 31 33  1  0
 33 34  2  0
 27  4  1  0
 34 28  1  0
 26 10  1  0
 24 19  1  0
  3 35  1  0
  5 36  1  0
  6 37  1  0
  7 38  1  0
  9 39  1  0
  9 40  1  0
 11 41  1  0
 11 42  1  0
 12 43  1  0
 12 44  1  0
 13 45  1  0
 13 46  1  0
 14 47  1  6
 18 48  1  0
 18 49  1  0
 20 50  1  0
 21 51  1  0
 22 52  1  0
 23 53  1  0
 25 54  1  0
 25 55  1  0
 26 56  1  0
 26 57  1  0
 27 58  1  0
 29 59  1  0
 30 60  1  0
 33 61  1  0
 34 62  1  0
M  CHG  1  17  -1
M  END
>  <UniqueID>  (6) 
5

>  <SMILES>  (6) 
O=C(Nc1cccc(CN2CCC[C@@H](C(=O)[N-]Cc3ccccn3)CC2)c1)c1ccc(F)cc1

>  <Energy>  (6) 
80.32109493049406

>  <Genealogy>  (6) 
O=C(Nc1cccc(CN2CCCC(C(=O)[N-]Cc3ccccn3)CC2)c1)c1ccc(F)cc1 (protonated)
O=C(Nc1cccc(CN2CCC[C@@H](C(=O)[N-]Cc3ccccn3)CC2)c1)c1ccc(F)cc1 (chirality)
O=C(Nc1cccc(CN2CCC[C@@H](C(=O)[N-]Cc3ccccn3)CC2)c1)c1ccc(F)cc1 (3D coordinates assigned)
O=C(Nc1cccc(CN2CCC[C@@H](C(=O)[N-]Cc3ccccn3)CC2)c1)c1ccc(F)cc1 (nonaromatic ring conformer: 80.32109493049406 kcal/mol)

>  <smiles>  (6) 
O=C(Nc1cccc(CN2CCCC(C(=O)NCc3ccccn3)CC2)c1)c1ccc(F)cc1

>  <score_type>  (6) 
oracle

>  <origin>  (6) 
adg

>  <m_score__min__energy>  (6) 
-8.7799999999999994

>  <m_primary>  (6) 
energy

$$$$
6:0
     RDKit          3D

 46 48  0  0  0  0  0  0  0  0999 V2000
   59.8790   29.1040   44.5910 O   0  0  0  0  0  0  0  0  0  0  0  0
   59.3990   29.2080   45.7510 C   0  0  0  0  0  0  0  0  0  0  0  0
   58.2530   28.3100   46.1560 C   0  0  0  0  0  0  0  0  0  0  0  0
   57.1980   28.3170   45.1430 N   0  0  0  0  0  0  0  0  0  0  0  0
   56.4230   29.4750   44.8120 C   0  0  0  0  0  0  0  0  0  0  0  0
   55.1660   29.4190   44.8790 O   0  0  0  0  0  0  0  0  0  0  0  0
   57.0670   30.7200   44.3740 C   0  0  0  0  0  0  0  0  0  0  0  0
   57.2990   30.9390   43.0080 C   0  0  0  0  0  0  0  0  0  0  0  0
   57.9640   32.0920   42.5870 C   0  0  0  0  0  0  0  0  0  0  0  0
   58.4070   33.0260   43.5260 C   0  0  0  0  0  0  0  0  0  0  0  0
   58.1810   32.8150   44.8950 C   0  0  0  0  0  0  0  0  0  0  0  0
   58.7930   33.9730   46.0780 S   0  0  0  0  0  0  0  0  0  0  0  0
   59.0680   35.2790   45.3840 O   0  0  0  0  0  0  0  0  0  0  0  0
   57.7360   34.2170   47.1220 O   0  0  0  0  0  0  0  0  0  0  0  0
   60.2700   33.4100   46.8340 N   0  0  0  0  0  0  0  0  0  0  0  0
   60.4050   33.9790   48.1900 C   0  0  0  0  0  0  0  0  0  0  0  0
   61.5770   33.3320   48.9570 C   0  0  0  0  0  0  0  0  0  0  0  0
   62.6410   32.7310   48.0210 C   0  0  0  0  0  0  0  0  0  0  0  0
   62.7890   33.5490   46.7320 C   0  0  0  0  0  0  0  0  0  0  0  0
   61.4420   33.7440   45.9950 C   0  0  0  0  0  0  0  0  0  0  0  0
   57.5040   31.6620   45.3160 C   0  0  0  0  0  0  0  0  0  0  0  0
   59.9290   30.2330   46.6100 N   0  0  0  0  0  0  0  0  0  0  0  0
   59.6560   30.4710   47.8580 C   0  0  0  0  0  0  0  0  0  0  0  0
   58.8210   31.4390   48.2960 N   0  0  0  0  0  0  0  0  0  0  0  0
   58.7030   31.4220   49.6510 C   0  0  0  0  0  0  0  0  0  0  0  0
   59.4470   30.4400   50.2960 C   0  0  0  0  0  0  0  0  0  0  0  0
   60.2800   29.5620   49.1240 S   0  0  0  0  0  0  0  0  0  0  0  0
   58.6270   27.2828   46.2787 H   0  0  0  0  0  0  0  0  0  0  0  0
   57.8330   28.6829   47.1018 H   0  0  0  0  0  0  0  0  0  0  0  0
   56.9565   30.2012   42.2675 H   0  0  0  0  0  0  0  0  0  0  0  0
   58.1392   32.2650   41.5149 H   0  0  0  0  0  0  0  0  0  0  0  0
   58.9353   33.9309   43.1912 H   0  0  0  0  0  0  0  0  0  0  0  0
   60.1860   32.3670   46.9070 H   0  0  0  0  0  0  0  0  0  0  0  0
   60.5847   35.0611   48.1079 H   0  0  0  0  0  0  0  0  0  0  0  0
   59.4759   33.7789   48.7438 H   0  0  0  0  0  0  0  0  0  0  0  0
   62.0535   34.0999   49.5841 H   0  0  0  0  0  0  0  0  0  0  0  0
   61.1648   32.5107   49.5616 H   0  0  0  0  0  0  0  0  0  0  0  0
   63.6079   32.7133   48.5451 H   0  0  0  0  0  0  0  0  0  0  0  0
   62.3225   31.7142   47.7475 H   0  0  0  0  0  0  0  0  0  0  0  0
   63.1979   34.5379   46.9869 H   0  0  0  0  0  0  0  0  0  0  0  0
   63.4602   32.9944   46.0598 H   0  0  0  0  0  0  0  0  0  0  0  0
   61.3619   34.7960   45.6838 H   0  0  0  0  0  0  0  0  0  0  0  0
   61.4360   33.0593   45.1341 H   0  0  0  0  0  0  0  0  0  0  0  0
   57.3153   31.4961   46.3869 H   0  0  0  0  0  0  0  0  0  0  0  0
   58.0655   32.1332   50.1968 H   0  0  0  0  0  0  0  0  0  0  0  0
   59.4850   30.2668   51.3816 H   0  0  0  0  0  0  0  0  0  0  0  0
  1  2  2  0
  2  3  1  0
  3  4  1  0
  4  5  1  0
  5  6  2  0
  5  7  1  0
  7  8  2  0
  8  9  1  0
  9 10  2  0
 10 11  1  0
 11 12  1  0
 12 13  2  0
 12 14  2  0
 12 15  1  0
 15 16  1  0
 16 17  1  0
 17 18  1  0
 18 19  1  0
 19 20  1  0
 11 21  2  0
  2 22  1  0
 22 23  2  3
 23 24  1  0
 24 25  1  0
 25 26  2  0
 26 27  1  0
 21  7  1  0
 27 23  1  0
 20 15  1  0
  3 28  1  0
  3 29  1  0
  8 30  1  0
  9 31  1  0
 10 32  1  0
 15 33  1  0
 16 34  1  0
 16 35  1  0
 17 36  1  0
 17 37  1  0
 18 38  1  0
 18 39  1  0
 19 40  1  0
 19 41  1  0
 20 42  1  0
 20 43  1  0
 21 44  1  0
 25 45  1  0
 26 46  1  0
M  CHG  3   4  -1  15   1  24  -1
M  END
>  <UniqueID>  (7) 
6

>  <SMILES>  (7) 
O=C(C[N-]C(=O)c1cccc(S(=O)(=O)[NH+]2CCCCC2)c1)N=c1[n-]ccs1

>  <Energy>  (7) 
86.3167220814519

>  <Genealogy>  (7) 
O=C(C[N-]C(=O)c1cccc(S(=O)(=O)[NH+]2CCCCC2)c1)N=c1[n-]ccs1 (protonated)
O=C(C[N-]C(=O)c1cccc(S(=O)(=O)[NH+]2CCCCC2)c1)N=c1[n-]ccs1 (3D coordinates assigned)
O=C(C[N-]C(=O)c1cccc(S(=O)(=O)[NH+]2CCCCC2)c1)N=c1[n-]ccs1 (nonaromatic ring conformer: 86.3167220814519 kcal/mol)

>  <smiles>  (7) 
O=C(CNC(=O)c1cccc(S(=O)(=O)N2CCCCC2)c1)N=c1[nH]ccs1

>  <score_type>  (7) 
oracle

>  <origin>  (7) 
adg

>  <m_score__min__energy>  (7) 
-11.41

>  <m_primary>  (7) 
energy

$$$$
7:0
     RDKit          3D

 55 57  0  0  0  0  0  0  0  0999 V2000
   52.8120   30.4580   50.8670 C   0  0  0  0  0  0  0  0  0  0  0  0
   53.8050   30.8570   51.6690 C   0  0  0  0  0  0  0  0  0  0  0  0
   53.8860   30.4310   53.1090 C   0  0  0  0  0  0  0  0  0  0  0  0
   55.2760   30.4160   53.5540 N   0  0  0  0  0  0  0  0  0  0  0  0
   56.4110   30.6740   52.7180 C   0  0  0  0  0  0  0  0  0  0  0  0
   56.8510   29.7480   51.9880 O   0  0  0  0  0  0  0  0  0  0  0  0
   57.0680   31.9540   52.7370 N   0  0  0  0  0  0  0  0  0  0  0  0
   57.9270   32.4430   51.6880 C   0  0  0  0  0  0  0  0  0  0  0  0
   57.7940   31.9150   50.3920 C   0  0  0  0  0  0  0  0  0  0  0  0
   58.6210   32.3560   49.3560 C   0  0  0  0  0  0  0  0  0  0  0  0
   59.6030   33.3220   49.6010 C   0  0  0  0  0  0  0  0  0  0  0  0
   60.6380   33.9070   48.3020 S   0  0  0  0  0  0  0  0  0  0  0  0
   61.9580   34.3850   48.8380 O   0  0  0  0  0  0  0  0  0  0  0  0
   59.9560   35.0570   47.6160 O   0  0  0  0  0  0  0  0  0  0  0  0
   60.9110   32.6420   47.1490 N   0  0  0  0  0  0  0  0  0  0  0  0
   59.8910   31.8160   46.5700 C   0  0  0  0  0  0  0  0  0  0  0  0
   59.8420   30.4260   46.7740 C   0  0  0  0  0  0  0  0  0  0  0  0
   58.8300   29.6580   46.1930 C   0  0  0  0  0  0  0  0  0  0  0  0
   57.8620   30.2690   45.3820 C   0  0  0  0  0  0  0  0  0  0  0  0
   56.5770   29.3110   44.6500 S   0  0  0  0  0  0  0  0  0  0  0  0
   57.0120   28.8800   43.2790 O   0  0  0  0  0  0  0  0  0  0  0  0
   55.3250   30.1340   44.5280 O   0  0  0  0  0  0  0  0  0  0  0  0
   56.2400   27.9030   45.6100 N   0  0  0  0  0  0  0  0  0  0  0  0
   57.3570   26.9660   45.5330 C   0  0  0  0  0  0  0  0  0  0  0  0
   56.8410   25.6160   45.1280 C   0  0  0  0  0  0  0  0  0  0  0  0
   57.4020   24.9420   44.0300 C   0  0  0  0  0  0  0  0  0  0  0  0
   56.8950   23.7010   43.6320 C   0  0  0  0  0  0  0  0  0  0  0  0
   55.8160   23.1320   44.3180 C   0  0  0  0  0  0  0  0  0  0  0  0
   55.2440   23.8030   45.4010 C   0  0  0  0  0  0  0  0  0  0  0  0
   55.7500   25.0430   45.8030 C   0  0  0  0  0  0  0  0  0  0  0  0
   57.8990   31.6560   45.1870 C   0  0  0  0  0  0  0  0  0  0  0  0
   58.9100   32.4230   45.7740 C   0  0  0  0  0  0  0  0  0  0  0  0
   59.7620   33.8300   50.8960 C   0  0  0  0  0  0  0  0  0  0  0  0
   58.9390   33.3860   51.9360 C   0  0  0  0  0  0  0  0  0  0  0  0
   52.7849   30.7896   49.8185 H   0  0  0  0  0  0  0  0  0  0  0  0
   52.0223   29.7982   51.2558 H   0  0  0  0  0  0  0  0  0  0  0  0
   54.5861   31.5167   51.2631 H   0  0  0  0  0  0  0  0  0  0  0  0
   53.3138   31.1366   53.7292 H   0  0  0  0  0  0  0  0  0  0  0  0
   53.4672   29.4186   53.2074 H   0  0  0  0  0  0  0  0  0  0  0  0
   56.9940   32.5250   53.6040 H   0  0  0  0  0  0  0  0  0  0  0  0
   57.0318   31.1476   50.1918 H   0  0  0  0  0  0  0  0  0  0  0  0
   58.4997   31.9423   48.3440 H   0  0  0  0  0  0  0  0  0  0  0  0
   60.6071   29.9389   47.3964 H   0  0  0  0  0  0  0  0  0  0  0  0
   58.7921   28.5733   46.3716 H   0  0  0  0  0  0  0  0  0  0  0  0
   58.0842   27.3207   44.7878 H   0  0  0  0  0  0  0  0  0  0  0  0
   57.8483   26.8949   46.5146 H   0  0  0  0  0  0  0  0  0  0  0  0
   58.2427   25.3921   43.4817 H   0  0  0  0  0  0  0  0  0  0  0  0
   57.3446   23.1716   42.7790 H   0  0  0  0  0  0  0  0  0  0  0  0
   55.4182   22.1557   44.0040 H   0  0  0  0  0  0  0  0  0  0  0  0
   54.3947   23.3557   45.9382 H   0  0  0  0  0  0  0  0  0  0  0  0
   55.2919   25.5723   46.6515 H   0  0  0  0  0  0  0  0  0  0  0  0
   57.1298   32.1433   44.5698 H   0  0  0  0  0  0  0  0  0  0  0  0
   58.9356   33.5104   45.6099 H   0  0  0  0  0  0  0  0  0  0  0  0
   60.5387   34.5827   51.0966 H   0  0  0  0  0  0  0  0  0  0  0  0
   59.0847   33.7771   52.9538 H   0  0  0  0  0  0  0  0  0  0  0  0
  1  2  2  0
  2  3  1  0
  3  4  1  0
  4  5  1  0
  5  6  2  0
  5  7  1  0
  7  8  1  0
  8  9  2  0
  9 10  1  0
 10 11  2  0
 11 12  1  0
 12 13  2  0
 12 14  2  0
 12 15  1  0
 15 16  1  0
 16 17  2  0
 17 18  1  0
 18 19  2  0
 19 20  1  0
 20 21  2  0
 20 22  2  0
 20 23  1  0
 23 24  1  0
 24 25  1  0
 25 26  2  0
 26 27  1  0
 27 28  2  0
 28 29  1  0
 29 30  2  0
 19 31  1  0
 31 32  2  0
 11 33  1  0
 33 34  2  0
 34  8  1  0
 32 16  1  0
 30 25  1  0
  1 35  1  0
  1 36  1  0
  2 37  1  0
  3 38  1  0
  3 39  1  0
  7 40  1  0
  9 41  1  0
 10 42  1  0
 17 43  1  0
 18 44  1  0
 24 45  1  0
 24 46  1  0
 26 47  1  0
 27 48  1  0
 28 49  1  0
 29 50  1  0
 30 51  1  0
 31 52  1  0
 32 53  1  0
 33 54  1  0
 34 55  1  0
M  CHG  3   4  -1  15  -1  23  -1
M  END
>  <UniqueID>  (8) 
7

>  <SMILES>  (8) 
C=CC[N-]C(=O)Nc1ccc(S(=O)(=O)[N-]c2ccc(S(=O)(=O)[N-]Cc3ccccc3)cc2)cc1

>  <Energy>  (8) 
57.92370914532283

>  <Genealogy>  (8) 
C=CC[N-]C(=O)Nc1ccc(S(=O)(=O)[N-]c2ccc(S(=O)(=O)[N-]Cc3ccccc3)cc2)cc1 (protonated)
C=CC[N-]C(=O)Nc1ccc(S(=O)(=O)[N-]c2ccc(S(=O)(=O)[N-]Cc3ccccc3)cc2)cc1 (3D coordinates assigned)
C=CC[N-]C(=O)Nc1ccc(S(=O)(=O)[N-]c2ccc(S(=O)(=O)[N-]Cc3ccccc3)cc2)cc1 (optimized conformer: 57.92370914532283 kcal/mol)

>  <smiles>  (8) 
C=CCNC(=O)Nc1ccc(S(=O)(=O)Nc2ccc(S(=O)(=O)NCc3ccccc3)cc2)cc1

>  <score_type>  (8) 
oracle

>  <origin>  (8) 
adg

>  <m_score__min__energy>  (8) 
-12.68

>  <m_primary>  (8) 
energy

$$$$
8:0
     RDKit          3D

 59 62  0  0  0  0  0  0  0  0999 V2000
   52.5500   27.4860   52.0750 H   0  0  0  0  0  0  0  0  0  0  0  0
   52.7210   27.7910   53.0610 N   0  0  0  0  0  0  0  0  0  0  0  0
   53.7750   28.4680   53.3910 C   0  0  0  0  0  0  0  0  0  0  0  0
   54.6660   27.9280   54.2680 N   0  0  0  0  0  0  0  0  0  0  0  0
   55.7640   28.5990   54.7030 C   0  0  0  0  0  0  0  0  0  0  0  0
   56.6580   27.9330   55.7140 C   0  0  0  0  0  0  0  0  0  0  0  0
   56.3171   28.1870   56.7285 H   0  0  0  0  0  0  0  0  0  0  0  0
   56.6186   26.8424   55.5762 H   0  0  0  0  0  0  0  0  0  0  0  0
   57.6917   28.2829   55.5762 H   0  0  0  0  0  0  0  0  0  0  0  0
   56.0320   29.8920   54.2100 C   0  0  0  0  0  0  0  0  0  0  0  0
   57.1630   30.6950   54.7150 C   0  0  0  0  0  0  0  0  0  0  0  0
   57.5923   30.4177   55.6891 H   0  0  0  0  0  0  0  0  0  0  0  0
   57.7030   31.7370   54.0710 C   0  0  0  0  0  0  0  0  0  0  0  0
   58.3999   32.3689   54.6412 H   0  0  0  0  0  0  0  0  0  0  0  0
   57.4500   32.1180   52.6640 C   0  0  0  0  0  0  0  0  0  0  0  0
   57.2600   33.3180   52.3350 O   0  0  0  0  0  0  0  0  0  0  0  0
   57.3780   31.0860   51.6700 N   0  0  0  0  0  0  0  0  0  0  0  0
   56.8370   30.2190   51.9130 H   0  0  0  0  0  0  0  0  0  0  0  0
   58.1780   31.0700   50.4670 C   0  0  0  0  0  0  0  0  0  0  0  0
   58.7480   29.8840   49.9720 C   0  0  0  0  0  0  0  0  0  0  0  0
   58.6600   28.9518   50.5493 H   0  0  0  0  0  0  0  0  0  0  0  0
   59.4280   29.8840   48.7460 C   0  0  0  0  0  0  0  0  0  0  0  0
   59.8639   28.9482   48.3660 H   0  0  0  0  0  0  0  0  0  0  0  0
   59.5590   31.0640   47.9980 C   0  0  0  0  0  0  0  0  0  0  0  0
   60.2300   31.0490   46.6370 C   0  0  0  0  0  0  0  0  0  0  0  0
   60.8491   31.9538   46.5471 H   0  0  0  0  0  0  0  0  0  0  0  0
   60.8211   30.1227   46.5850 H   0  0  0  0  0  0  0  0  0  0  0  0
   59.2850   31.0170   45.4970 N   0  0  0  0  0  0  0  0  0  0  0  0
   58.6690   32.3220   45.1670 C   0  0  0  0  0  0  0  0  0  0  0  0
   58.9918   33.0650   45.9112 H   0  0  0  0  0  0  0  0  0  0  0  0
   58.9943   32.6040   44.1547 H   0  0  0  0  0  0  0  0  0  0  0  0
   57.1300   32.2530   45.1690 C   0  0  0  0  0  0  0  0  0  0  0  0
   56.7884   32.0396   46.1926 H   0  0  0  0  0  0  0  0  0  0  0  0
   56.7529   33.2215   44.8087 H   0  0  0  0  0  0  0  0  0  0  0  0
   56.6270   31.2470   44.3030 O   0  0  0  0  0  0  0  0  0  0  0  0
   57.3370   30.0120   44.3720 C   0  0  0  0  0  0  0  0  0  0  0  0
   56.6008   29.2003   44.4681 H   0  0  0  0  0  0  0  0  0  0  0  0
   57.9373   29.9514   43.4523 H   0  0  0  0  0  0  0  0  0  0  0  0
   58.3300   29.8960   45.5410 C   0  0  0  0  0  0  0  0  0  0  0  0
   57.7788   29.9229   46.4925 H   0  0  0  0  0  0  0  0  0  0  0  0
   58.8797   28.9468   45.4581 H   0  0  0  0  0  0  0  0  0  0  0  0
   58.9830   32.2450   48.4920 C   0  0  0  0  0  0  0  0  0  0  0  0
   59.0623   33.1752   47.9102 H   0  0  0  0  0  0  0  0  0  0  0  0
   58.3090   32.2490   49.7180 C   0  0  0  0  0  0  0  0  0  0  0  0
   57.8773   33.1864   50.0986 H   0  0  0  0  0  0  0  0  0  0  0  0
   55.1250   30.4730   53.3160 C   0  0  0  0  0  0  0  0  0  0  0  0
   55.3074   31.4911   52.9417 H   0  0  0  0  0  0  0  0  0  0  0  0
   53.9840   29.7710   52.8910 C   0  0  0  0  0  0  0  0  0  0  0  0
   53.0140   30.4290   51.9740 C   0  0  0  0  0  0  0  0  0  0  0  0
   52.7640   29.9050   50.6910 C   0  0  0  0  0  0  0  0  0  0  0  0
   53.3359   29.0354   50.3349 H   0  0  0  0  0  0  0  0  0  0  0  0
   51.7950   30.4820   49.8680 C   0  0  0  0  0  0  0  0  0  0  0  0
   51.5999   30.0613   48.8705 H   0  0  0  0  0  0  0  0  0  0  0  0
   51.0730   31.5930   50.3100 C   0  0  0  0  0  0  0  0  0  0  0  0
   50.2993   32.0372   49.6665 H   0  0  0  0  0  0  0  0  0  0  0  0
   51.3330   32.1410   51.5700 C   0  0  0  0  0  0  0  0  0  0  0  0
   50.6300   33.2600   52.0010 O   0  0  0  0  0  0  0  0  0  0  0  0
   52.3040   31.5660   52.3970 C   0  0  0  0  0  0  0  0  0  0  0  0
   52.5129   32.0060   53.3833 H   0  0  0  0  0  0  0  0  0  0  0  0
  1  2  1  0
  2  3  2  0
  3  4  1  0
  4  5  1  0
  5  6  1  0
  6  7  1  0
  6  8  1  0
  6  9  1  0
  5 10  2  0
 10 11  1  0
 11 12  1  0
 11 13  2  0
 13 14  1  0
 13 15  1  0
 15 16  2  0
 15 17  1  0
 17 18  1  0
 17 19  1  0
 19 20  2  0
 20 21  1  0
 20 22  1  0
 22 23  1  0
 22 24  2  0
 24 25  1  0
 25 26  1  0
 25 27  1  0
 25 28  1  0
 28 29  1  0
 29 30  1  0
 29 31  1  0
 29 32  1  0
 32 33  1  0
 32 34  1  0
 32 35  1  0
 35 36  1  0
 36 37  1  0
 36 38  1  0
 36 39  1  0
 39 40  1  0
 39 41  1  0
 24 42  1  0
 42 43  1  0
 42 44  2  0
 44 45  1  0
 10 46  1  0
 46 47  1  0
 46 48  2  0
 48 49  1  0
 49 50  2  0
 50 51  1  0
 50 52  1  0
 52 53  1  0
 52 54  2  0
 54 55  1  0
 54 56  1  0
 56 57  1  0
 56 58  2  0
 58 59  1  0
 48  3  1  0
 58 49  1  0
 44 19  1  0
 39 28  1  0
M  CHG  2   4  -1  57  -1
M  END
>  <UniqueID>  (9) 
8

>  <SMILES>  (9) 
[H]/N=c1\[n-]c(C)c(/C=C\C(=O)Nc2ccc(CN3CCOCC3)cc2)cc1-c1cccc([O-])c1

>  <Energy>  (9) 
102.30336966388545

>  <Genealogy>  (9) 
Cc1[n-]c(=N)c(-c2cccc([O-])c2)cc1C=CC(=O)Nc1ccc(CN2CCOCC2)cc1 (protonated)
[H]/N=c1\[n-]c(C)c(/C=C\C(=O)Nc2ccc(CN3CCOCC3)cc2)cc1-c1cccc([O-])c1 (cis-trans isomerization)
[H]/N=c1\[n-]c(C)c(/C=C\C(=O)Nc2ccc(CN3CCOCC3)cc2)cc1-c1cccc([O-])c1 (3D coordinates assigned)
[H]/N=c1\[n-]c(C)c(/C=C\C(=O)Nc2ccc(CN3CCOCC3)cc2)cc1-c1cccc([O-])c1 (nonaromatic ring conformer: 102.30336966388545 kcal/mol)

>  <smiles>  (9) 
Cc1[nH]c(=N)c(-c2cccc(O)c2)cc1C=CC(=O)Nc1ccc(CN2CCOCC2)cc1

>  <score_type>  (9) 
oracle

>  <origin>  (9) 
adg

>  <m_score__min__energy>  (9) 
-13.66

>  <m_primary>  (9) 
energy

$$$$
9:0
     RDKit          3D

 45 47  0  0  0  0  0  0  0  0999 V2000
   60.4530   28.5590   45.0880 C   0  0  0  0  0  0  0  0  0  0  0  0
   60.2940   28.2930   46.3880 C   0  0  0  0  0  0  0  0  0  0  0  0
   59.9980   26.8980   46.8600 C   0  0  0  0  0  0  0  0  0  0  0  0
   58.6980   26.8270   47.4420 O   0  0  0  0  0  0  0  0  0  0  0  0
   57.6920   25.9100   47.0870 C   0  0  0  0  0  0  0  0  0  0  0  0
   57.3960   24.7840   47.8780 C   0  0  0  0  0  0  0  0  0  0  0  0
   56.3980   23.8900   47.4870 C   0  0  0  0  0  0  0  0  0  0  0  0
   55.6860   24.1080   46.3080 C   0  0  0  0  0  0  0  0  0  0  0  0
   55.9670   25.2210   45.5160 C   0  0  0  0  0  0  0  0  0  0  0  0
   56.9620   26.1340   45.9020 C   0  0  0  0  0  0  0  0  0  0  0  0
   57.2720   27.3170   45.0270 C   0  0  0  0  0  0  0  0  0  0  0  0
   56.2850   28.3620   45.2570 N   0  0  0  0  0  0  0  0  0  0  0  0
   55.9590   29.3510   44.2770 C   0  0  0  0  0  0  0  0  0  0  0  0
   54.7660   29.5080   43.8990 O   0  0  0  0  0  0  0  0  0  0  0  0
   57.0470   30.1750   43.6670 C   0  0  0  0  0  0  0  0  0  0  0  0
   57.6770   31.0160   44.6950 N   0  0  0  0  0  0  0  0  0  0  0  0
   57.9510   30.4740   45.8890 N   0  0  0  0  0  0  0  0  0  0  0  0
   58.5420   31.1830   46.8880 C   0  0  0  0  0  0  0  0  0  0  0  0
   58.7670   30.6250   47.9960 O   0  0  0  0  0  0  0  0  0  0  0  0
   58.8940   32.5230   46.6740 C   0  0  0  0  0  0  0  0  0  0  0  0
   59.5070   33.2970   47.6780 C   0  0  0  0  0  0  0  0  0  0  0  0
   59.8550   34.6250   47.4320 C   0  0  0  0  0  0  0  0  0  0  0  0
   59.5900   35.2000   46.1880 C   0  0  0  0  0  0  0  0  0  0  0  0
   58.9810   34.4460   45.1820 C   0  0  0  0  0  0  0  0  0  0  0  0
   58.6280   33.1020   45.4160 C   0  0  0  0  0  0  0  0  0  0  0  0
   58.0140   32.3170   44.4250 C   0  0  0  0  0  0  0  0  0  0  0  0
   57.7760   32.8140   43.2860 O   0  0  0  0  0  0  0  0  0  0  0  0
   60.6694   29.5862   44.7592 H   0  0  0  0  0  0  0  0  0  0  0  0
   60.3675   27.7508   44.3468 H   0  0  0  0  0  0  0  0  0  0  0  0
   60.3811   29.1070   47.1227 H   0  0  0  0  0  0  0  0  0  0  0  0
   60.0483   26.2091   46.0040 H   0  0  0  0  0  0  0  0  0  0  0  0
   60.7414   26.6173   47.6206 H   0  0  0  0  0  0  0  0  0  0  0  0
   57.9542   24.6076   48.8093 H   0  0  0  0  0  0  0  0  0  0  0  0
   56.1727   23.0119   48.1100 H   0  0  0  0  0  0  0  0  0  0  0  0
   54.9011   23.4007   46.0020 H   0  0  0  0  0  0  0  0  0  0  0  0
   55.4063   25.3847   44.5839 H   0  0  0  0  0  0  0  0  0  0  0  0
   58.2745   27.6996   45.2692 H   0  0  0  0  0  0  0  0  0  0  0  0
   57.2421   27.0101   43.9711 H   0  0  0  0  0  0  0  0  0  0  0  0
   57.8042   29.5099   43.2262 H   0  0  0  0  0  0  0  0  0  0  0  0
   56.6172   30.8199   42.8864 H   0  0  0  0  0  0  0  0  0  0  0  0
   57.7050   29.4740   46.0740 H   0  0  0  0  0  0  0  0  0  0  0  0
   59.7127   32.8515   48.6625 H   0  0  0  0  0  0  0  0  0  0  0  0
   60.3393   35.2205   48.2199 H   0  0  0  0  0  0  0  0  0  0  0  0
   59.8613   36.2492   45.9994 H   0  0  0  0  0  0  0  0  0  0  0  0
   58.7761   34.9034   44.2028 H   0  0  0  0  0  0  0  0  0  0  0  0
  1  2  2  0
  2  3  1  0
  3  4  1  0
  4  5  1  0
  5  6  2  0
  6  7  1  0
  7  8  2  0
  8  9  1  0
  9 10  2  0
 10 11  1  0
 11 12  1  0
 12 13  1  0
 13 14  2  0
 13 15  1  0
 15 16  1  0
 16 17  1  0
 17 18  1  0
 18 19  2  0
 18 20  1  0
 20 21  2  0
 21 22  1  0
 22 23  2  0
 23 24  1  0
 24 25  2  0
 25 26  1  0
 26 27  2  0
 10  5  1  0
 26 16  1  0
 25 20  1  0
  1 28  1  0
  1 29  1  0
  2 30  1  0
  3 31  1  0
  3 32  1  0
  6 33  1  0
  7 34  1  0
  8 35  1  0
  9 36  1  0
 11 37  1  0
 11 38  1  0
 15 39  1  0
 15 40  1  0
 17 41  1  0
 21 42  1  0
 22 43  1  0
 23 44  1  0
 24 45  1  0
M  CHG  1  12  -1
M  END
>  <UniqueID>  (10) 
9

>  <SMILES>  (10) 
C=CCOc1ccccc1C[N-]C(=O)Cn1[nH]c(=O)c2ccccc2c1=O

>  <Energy>  (10) 
48.69724265841668

>  <Genealogy>  (10) 
C=CCOc1ccccc1C[N-]C(=O)Cn1[nH]c(=O)c2ccccc2c1=O (protonated)
C=CCOc1ccccc1C[N-]C(=O)Cn1[nH]c(=O)c2ccccc2c1=O (3D coordinates assigned)
C=CCOc1ccccc1C[N-]C(=O)Cn1[nH]c(=O)c2ccccc2c1=O (optimized conformer: 48.69724265841668 kcal/mol)

>  <smiles>  (10) 
C=CCOc1ccccc1CNC(=O)Cn1[nH]c(=O)c2ccccc2c1=O

>  <score_type>  (10) 
oracle

>  <origin>  (10) 
adg

>  <m_score__min__energy>  (10) 
-9.25

>  <m_primary>  (10) 
energy

$$$$
10:0
     RDKit          3D

 61 64  0  0  0  0  0  0  0  0999 V2000
   55.7960   29.8180   42.7450 O   0  0  0  0  0  0  0  0  0  0  0  0
   55.8990   30.0840   43.9720 C   0  0  0  0  0  0  0  0  0  0  0  0
   55.1450   29.3720   44.8960 O   0  0  0  0  0  0  0  0  0  0  0  0
   56.8330   31.1590   44.4330 C   0  0  0  0  0  0  0  0  0  0  0  0
   57.7550   30.6360   45.4550 N   0  0  0  0  0  0  0  0  0  0  0  0
   58.2140   29.3540   45.3290 C   0  0  0  0  0  0  0  0  0  0  0  0
   59.1160   28.8170   46.2540 C   0  0  0  0  0  0  0  0  0  0  0  0
   59.5640   27.3830   46.1270 C   0  0  0  0  0  0  0  0  0  0  0  0
   58.3700   26.4680   46.0750 C   0  0  0  0  0  0  0  0  0  0  0  0
   57.1830   26.7990   46.7320 C   0  0  0  0  0  0  0  0  0  0  0  0
   56.1310   25.9450   46.7010 N   0  0  0  0  0  0  0  0  0  0  0  0
   56.2060   24.7550   46.0520 C   0  0  0  0  0  0  0  0  0  0  0  0
   55.1970   23.9970   46.0420 O   0  0  0  0  0  0  0  0  0  0  0  0
   57.3650   24.3850   45.4180 N   0  0  0  0  0  0  0  0  0  0  0  0
   57.4620   23.1000   44.7050 C   0  0  0  0  0  0  0  0  0  0  0  0
   58.2140   22.0750   45.5200 C   0  0  0  0  0  0  0  0  0  0  0  0
   59.4760   22.0800   45.4910 O   0  0  0  0  0  0  0  0  0  0  0  0
   57.5220   21.1250   46.3610 N   0  0  0  0  0  0  0  0  0  0  0  0
   56.0590   21.1740   46.5090 C   0  0  0  0  0  0  0  0  0  0  0  0
   55.6270   20.5060   47.8180 C   0  0  0  0  0  0  0  0  0  0  0  0
   56.2020   19.2210   47.9420 O   0  0  0  0  0  0  0  0  0  0  0  0
   57.6040   19.3440   48.0680 C   0  0  0  0  0  0  0  0  0  0  0  0
   58.2180   19.8990   46.7800 C   0  0  0  0  0  0  0  0  0  0  0  0
   58.4360   25.2340   45.4170 C   0  0  0  0  0  0  0  0  0  0  0  0
   59.5300   29.6320   47.3160 C   0  0  0  0  0  0  0  0  0  0  0  0
   60.3300   29.1950   48.1870 O   0  0  0  0  0  0  0  0  0  0  0  0
   59.0690   30.9060   47.4090 N   0  0  0  0  0  0  0  0  0  0  0  0
   58.1930   31.4140   46.4990 C   0  0  0  0  0  0  0  0  0  0  0  0
   57.6420   33.1180   46.7070 S   0  0  0  0  0  0  0  0  0  0  0  0
   59.0930   33.8160   45.8560 C   0  0  0  0  0  0  0  0  0  0  0  0
   60.2530   33.8640   46.8070 C   0  0  0  0  0  0  0  0  0  0  0  0
   60.0480   34.1760   48.1610 C   0  0  0  0  0  0  0  0  0  0  0  0
   61.1250   34.1840   49.0530 C   0  0  0  0  0  0  0  0  0  0  0  0
   62.4110   33.8710   48.6010 C   0  0  0  0  0  0  0  0  0  0  0  0
   63.4550   33.8780   49.4670 F   0  0  0  0  0  0  0  0  0  0  0  0
   62.6200   33.5470   47.2570 C   0  0  0  0  0  0  0  0  0  0  0  0
   61.5450   33.5380   46.3630 C   0  0  0  0  0  0  0  0  0  0  0  0
   57.4145   31.5263   43.5745 H   0  0  0  0  0  0  0  0  0  0  0  0
   56.2444   31.9790   44.8703 H   0  0  0  0  0  0  0  0  0  0  0  0
   57.8687   28.7354   44.4875 H   0  0  0  0  0  0  0  0  0  0  0  0
   60.1517   27.2663   45.2045 H   0  0  0  0  0  0  0  0  0  0  0  0
   60.1795   27.1206   47.0001 H   0  0  0  0  0  0  0  0  0  0  0  0
   57.1018   27.7525   47.2745 H   0  0  0  0  0  0  0  0  0  0  0  0
   56.4478   22.7242   44.5044 H   0  0  0  0  0  0  0  0  0  0  0  0
   58.0091   23.2652   43.7651 H   0  0  0  0  0  0  0  0  0  0  0  0
   55.7310   22.2240   46.5135 H   0  0  0  0  0  0  0  0  0  0  0  0
   55.5991   20.6354   45.6673 H   0  0  0  0  0  0  0  0  0  0  0  0
   55.9515   21.1290   48.6645 H   0  0  0  0  0  0  0  0  0  0  0  0
   54.5319   20.4023   47.8150 H   0  0  0  0  0  0  0  0  0  0  0  0
   57.8330   20.0261   48.9000 H   0  0  0  0  0  0  0  0  0  0  0  0
   58.0297   18.3484   48.2615 H   0  0  0  0  0  0  0  0  0  0  0  0
   59.2796   20.1278   46.9550 H   0  0  0  0  0  0  0  0  0  0  0  0
   58.1172   19.1449   45.9855 H   0  0  0  0  0  0  0  0  0  0  0  0
   59.3594   24.9448   44.8938 H   0  0  0  0  0  0  0  0  0  0  0  0
   59.3900   31.5090   48.2010 H   0  0  0  0  0  0  0  0  0  0  0  0
   59.3515   33.1844   44.9933 H   0  0  0  0  0  0  0  0  0  0  0  0
   58.8608   34.8333   45.5079 H   0  0  0  0  0  0  0  0  0  0  0  0
   59.0365   34.4150   48.5212 H   0  0  0  0  0  0  0  0  0  0  0  0
   60.9606   34.4366   50.1109 H   0  0  0  0  0  0  0  0  0  0  0  0
   63.6313   33.2989   46.9026 H   0  0  0  0  0  0  0  0  0  0  0  0
   61.7117   33.2746   45.3081 H   0  0  0  0  0  0  0  0  0  0  0  0
  1  2  2  0
  2  3  1  0
  2  4  1  0
  4  5  1  0
  5  6  1  0
  6  7  2  0
  7  8  1  0
  8  9  1  0
  9 10  1  0
 10 11  2  0
 11 12  1  0
 12 13  2  0
 12 14  1  0
 14 15  1  0
 15 16  1  0
 16 17  2  0
 16 18  1  0
 18 19  1  0
 19 20  1  0
 20 21  1  0
 21 22  1  0
 22 23  1  0
 14 24  1  0
  7 25  1  0
 25 26  2  0
 25 27  1  0
 27 28  2  0
 28 29  1  0
 29 30  1  0
 30 31  1  0
 31 32  2  0
 32 33  1  0
 33 34  2  0
 34 35  1  0
 34 36  1  0
 36 37  2  0
 28  5  1  0
 37 31  1  0
 24  9  2  0
 23 18  1  0
  4 38  1  0
  4 39  1  0
  6 40  1  0
  8 41  1  0
  8 42  1  0
 10 43  1  0
 15 44  1  0
 15 45  1  0
 19 46  1  0
 19 47  1  0
 20 48  1  0
 20 49  1  0
 22 50  1  0
 22 51  1  0
 23 52  1  0
 23 53  1  0
 24 54  1  0
 27 55  1  0
 30 56  1  0
 30 57  1  0
 32 58  1  0
 33 59  1  0
 36 60  1  0
 37 61  1  0
M  CHG  2   3  -1  27   1
M  END
>  <UniqueID>  (11) 
10

>  <SMILES>  (11) 
O=C([O-])Cn1cc(Cc2cnc(=O)n(CC(=O)N3CCOCC3)c2)c(=O)[nH+]c1SCc1ccc(F)cc1

>  <Energy>  (11) 
64.98243923351718

>  <Genealogy>  (11) 
O=C([O-])Cn1cc(Cc2cnc(=O)n(CC(=O)N3CCOCC3)c2)c(=O)[nH+]c1SCc1ccc(F)cc1 (protonated)
O=C([O-])Cn1cc(Cc2cnc(=O)n(CC(=O)N3CCOCC3)c2)c(=O)[nH+]c1SCc1ccc(F)cc1 (3D coordinates assigned)
O=C([O-])Cn1cc(Cc2cnc(=O)n(CC(=O)N3CCOCC3)c2)c(=O)[nH+]c1SCc1ccc(F)cc1 (nonaromatic ring conformer: 64.98243923351718 kcal/mol)

>  <smiles>  (11) 
O=C(O)Cn1cc(Cc2cnc(=O)n(CC(=O)N3CCOCC3)c2)c(=O)nc1SCc1ccc(F)cc1

>  <score_type>  (11) 
oracle

>  <origin>  (11) 
adg

>  <m_score__min__energy>  (11) 
-10.720000000000001

>  <m_primary>  (11) 
energy

$$$$
11:0
     RDKit          3D

 44 47  0  0  0  0  0  0  0  0999 V2000
   60.3051   27.7753   44.3225 H   0  0  0  0  0  0  0  0  0  0  0  0
   59.4810   28.4200   44.6620 C   0  0  0  0  0  0  0  0  0  0  0  0
   59.5930   29.6670   45.0130 N   0  0  0  0  0  0  0  0  0  0  0  0
   58.3170   30.1090   45.3910 N   0  0  0  0  0  0  0  0  0  0  0  0
   57.7330   31.2900   45.0970 C   0  0  0  0  0  0  0  0  0  0  0  0
   58.3270   32.4480   45.0970 N   0  0  0  0  0  0  0  0  0  0  0  0
   58.9340   33.0970   46.2570 C   0  0  0  0  0  0  0  0  0  0  0  0
   58.9096   34.1877   46.1161 H   0  0  0  0  0  0  0  0  0  0  0  0
   59.9737   32.7517   46.3556 H   0  0  0  0  0  0  0  0  0  0  0  0
   58.1680   32.7360   47.5320 C   0  0  0  0  0  0  0  0  0  0  0  0
   57.3653   32.0263   47.2829 H   0  0  0  0  0  0  0  0  0  0  0  0
   57.7431   33.6546   47.9629 H   0  0  0  0  0  0  0  0  0  0  0  0
   59.0870   32.1080   48.5400 C   0  0  0  0  0  0  0  0  0  0  0  0
   58.6130   31.3010   49.3870 O   0  0  0  0  0  0  0  0  0  0  0  0
   60.5030   32.3530   48.5070 N   0  0  0  0  0  0  0  0  0  0  0  0
   61.4240   31.2200   48.6760 C   0  0  0  0  0  0  0  0  0  0  0  0
   61.3712   30.8685   49.7170 H   0  0  0  0  0  0  0  0  0  0  0  0
   61.1240   30.4240   47.9786 H   0  0  0  0  0  0  0  0  0  0  0  0
   62.8720   31.6200   48.3570 C   0  0  0  0  0  0  0  0  0  0  0  0
   63.3042   32.1409   49.2241 H   0  0  0  0  0  0  0  0  0  0  0  0
   63.4535   30.7131   48.1346 H   0  0  0  0  0  0  0  0  0  0  0  0
   62.9100   32.5490   47.1380 C   0  0  0  0  0  0  0  0  0  0  0  0
   63.9573   32.8054   46.9204 H   0  0  0  0  0  0  0  0  0  0  0  0
   62.4444   32.0186   46.2943 H   0  0  0  0  0  0  0  0  0  0  0  0
   62.1180   33.8520   47.3740 C   0  0  0  0  0  0  0  0  0  0  0  0
   62.8239   34.6383   47.6797 H   0  0  0  0  0  0  0  0  0  0  0  0
   61.6061   34.0953   46.4313 H   0  0  0  0  0  0  0  0  0  0  0  0
   61.0330   33.7220   48.4590 C   0  0  0  0  0  0  0  0  0  0  0  0
   61.4692   33.9741   49.4369 H   0  0  0  0  0  0  0  0  0  0  0  0
   60.2094   34.4101   48.2175 H   0  0  0  0  0  0  0  0  0  0  0  0
   56.4310   31.1390   44.7570 N   0  0  0  0  0  0  0  0  0  0  0  0
   56.2880   29.7930   44.8220 C   0  0  0  0  0  0  0  0  0  0  0  0
   55.2570   29.1910   44.4240 O   0  0  0  0  0  0  0  0  0  0  0  0
   57.4080   29.1790   45.2520 N   0  0  0  0  0  0  0  0  0  0  0  0
   58.0780   28.0120   44.7920 C   0  0  0  0  0  0  0  0  0  0  0  0
   57.5660   26.8020   44.5450 C   0  0  0  0  0  0  0  0  0  0  0  0
   57.4768   26.4842   43.4957 H   0  0  0  0  0  0  0  0  0  0  0  0
   57.1140   25.8680   45.5900 C   0  0  0  0  0  0  0  0  0  0  0  0
   57.9160   24.9550   46.1630 N   0  0  0  0  0  0  0  0  0  0  0  0
   57.1340   24.4010   47.1130 C   0  0  0  0  0  0  0  0  0  0  0  0
   57.5350   23.4760   47.8670 O   0  0  0  0  0  0  0  0  0  0  0  0
   55.8920   24.9240   47.2010 N   0  0  0  0  0  0  0  0  0  0  0  0
   55.8970   25.8580   46.2380 C   0  0  0  0  0  0  0  0  0  0  0  0
   54.8250   26.7080   45.9860 O   0  0  0  0  0  0  0  0  0  0  0  0
  1  2  1  0
  2  3  2  0
  3  4  1  0
  4  5  1  0
  5  6  2  3
  6  7  1  0
  7  8  1  0
  7  9  1  0
  7 10  1  0
 10 11  1  0
 10 12  1  0
 10 13  1  0
 13 14  2  0
 13 15  1  0
 15 16  1  0
 16 17  1  0
 16 18  1  0
 16 19  1  0
 19 20  1  0
 19 21  1  0
 19 22  1  0
 22 23  1  0
 22 24  1  0
 22 25  1  0
 25 26  1  0
 25 27  1  0
 25 28  1  0
 28 29  1  0
 28 30  1  0
  5 31  1  0
 31 32  1  0
 32 33  2  0
 32 34  1  0
 34 35  1  0
 35 36  2  0
 36 37  1  0
 36 38  1  0
 38 39  1  0
 39 40  1  0
 40 41  2  0
 40 42  1  0
 42 43  1  0
 43 44  1  0
 35  2  1  0
 43 38  2  0
 34  4  1  0
 28 15  1  0
M  CHG  4  31  -1  39  -1  42  -1  44  -1
M  END
>  <UniqueID>  (12) 
11

>  <SMILES>  (12) 
O=C(CCN=c1[n-]c(=O)n2n1N=C/C2=C/c1[n-]c(=O)[n-]c1[O-])N1CCCCC1

>  <Energy>  (12) 
178.19972636991383

>  <Genealogy>  (12) 
O=C(CCN=c1[n-]c(=O)n2n1N=CC2=Cc1[n-]c(=O)[n-]c1[O-])N1CCCCC1 (protonated)
O=C(CCN=c1[n-]c(=O)n2n1N=C/C2=C/c1[n-]c(=O)[n-]c1[O-])N1CCCCC1 (cis-trans isomerization)
O=C(CCN=c1[n-]c(=O)n2n1N=C/C2=C/c1[n-]c(=O)[n-]c1[O-])N1CCCCC1 (3D coordinates assigned)
O=C(CCN=c1[n-]c(=O)n2n1N=C/C2=C/c1[n-]c(=O)[n-]c1[O-])N1CCCCC1 (nonaromatic ring conformer: 178.19972636991383 kcal/mol)

>  <smiles>  (12) 
O=C(CCN=c1[nH]c(=O)n2n1N=CC2=Cc1[nH]c(=O)[nH]c1O)N1CCCCC1

>  <score_type>  (12) 
oracle

>  <origin>  (12) 
adg

>  <m_score__min__energy>  (12) 
-17.859999999999999

>  <m_primary>  (12) 
energy

$$$$
12:0
     RDKit          3D

 66 69  0  0  0  0  0  0  0  0999 V2000
   60.0374   35.6325   48.0445 H   0  0  0  0  0  0  0  0  0  0  0  0
   59.5700   34.9570   47.3130 C   0  0  0  0  0  0  0  0  0  0  0  0
   58.8990   33.8130   47.7490 C   0  0  0  0  0  0  0  0  0  0  0  0
   58.8395   33.5866   48.8238 H   0  0  0  0  0  0  0  0  0  0  0  0
   58.3020   32.9540   46.8190 C   0  0  0  0  0  0  0  0  0  0  0  0
   57.7735   32.0544   47.1675 H   0  0  0  0  0  0  0  0  0  0  0  0
   58.3730   33.2330   45.4400 C   0  0  0  0  0  0  0  0  0  0  0  0
   57.7220   32.3340   44.4570 C   0  0  0  0  0  0  0  0  0  0  0  0
   57.7610   32.6100   43.2260 O   0  0  0  0  0  0  0  0  0  0  0  0
   56.9840   31.1890   44.9080 N   0  0  0  0  0  0  0  0  0  0  0  0
   57.3660   29.9410   44.8750 C   0  0  0  0  0  0  0  0  0  0  0  0
   56.3620   28.9050   45.1820 C   0  0  0  0  0  0  0  0  0  0  0  0
   55.1670   29.0500   44.8090 O   0  0  0  0  0  0  0  0  0  0  0  0
   56.7570   27.7220   45.8860 N   0  0  0  0  0  0  0  0  0  0  0  0
   55.9350   26.5230   45.9910 C   0  0  0  0  0  0  0  0  0  0  0  0
   55.6355   26.3797   47.0397 H   0  0  0  0  0  0  0  0  0  0  0  0
   55.0446   26.6443   45.3565 H   0  0  0  0  0  0  0  0  0  0  0  0
   56.7030   25.3190   45.5270 C   0  0  0  0  0  0  0  0  0  0  0  0
   56.1820   24.4750   44.5300 C   0  0  0  0  0  0  0  0  0  0  0  0
   55.2125   24.7079   44.0654 H   0  0  0  0  0  0  0  0  0  0  0  0
   56.8950   23.3380   44.1270 C   0  0  0  0  0  0  0  0  0  0  0  0
   56.4839   22.6797   43.3475 H   0  0  0  0  0  0  0  0  0  0  0  0
   58.1280   23.0390   44.7140 C   0  0  0  0  0  0  0  0  0  0  0  0
   58.6906   22.1510   44.3901 H   0  0  0  0  0  0  0  0  0  0  0  0
   58.6460   23.8690   45.7130 C   0  0  0  0  0  0  0  0  0  0  0  0
   59.6124   23.6282   46.1800 H   0  0  0  0  0  0  0  0  0  0  0  0
   57.9380   25.0050   46.1200 C   0  0  0  0  0  0  0  0  0  0  0  0
   58.3493   25.6546   46.9067 H   0  0  0  0  0  0  0  0  0  0  0  0
   58.8220   29.5330   44.7180 C   0  0  0  0  0  0  0  0  0  0  0  0
   59.4204   30.4244   44.4785 H   0  0  0  0  0  0  0  0  0  0  0  0
   58.8900   28.7908   43.9090 H   0  0  0  0  0  0  0  0  0  0  0  0
   59.3550   28.9080   45.9860 C   0  0  0  0  0  0  0  0  0  0  0  0
   59.9300   27.6270   45.9510 C   0  0  0  0  0  0  0  0  0  0  0  0
   59.9909   27.0797   44.9988 H   0  0  0  0  0  0  0  0  0  0  0  0
   60.4250   27.0450   47.1210 C   0  0  0  0  0  0  0  0  0  0  0  0
   60.8761   26.0424   47.0860 H   0  0  0  0  0  0  0  0  0  0  0  0
   60.3490   27.7320   48.3350 C   0  0  0  0  0  0  0  0  0  0  0  0
   60.7260   27.2607   49.2546 H   0  0  0  0  0  0  0  0  0  0  0  0
   59.7940   29.0210   48.3880 C   0  0  0  0  0  0  0  0  0  0  0  0
   59.6480   29.7000   49.6530 N   0  0  0  0  0  0  0  0  0  0  0  0
   59.8860   28.9640   50.9030 C   0  0  0  0  0  0  0  0  0  0  0  0
   60.9496   29.0438   51.1720 H   0  0  0  0  0  0  0  0  0  0  0  0
   59.6085   27.9105   50.7512 H   0  0  0  0  0  0  0  0  0  0  0  0
   59.0340   29.5390   52.0420 C   0  0  0  0  0  0  0  0  0  0  0  0
   59.5331   30.4226   52.4665 H   0  0  0  0  0  0  0  0  0  0  0  0
   58.9078   28.7828   52.8309 H   0  0  0  0  0  0  0  0  0  0  0  0
   57.7170   29.9250   51.5060 N   0  0  0  0  0  0  0  0  0  0  0  0
   56.6720   30.1000   52.5380 C   0  0  0  0  0  0  0  0  0  0  0  0
   57.1014   30.6789   53.3690 H   0  0  0  0  0  0  0  0  0  0  0  0
   56.3545   29.0911   52.8403 H   0  0  0  0  0  0  0  0  0  0  0  0
   55.4130   30.8290   52.0430 C   0  0  0  0  0  0  0  0  0  0  0  0
   54.8235   31.1703   52.9067 H   0  0  0  0  0  0  0  0  0  0  0  0
   55.7072   31.6965   51.4340 H   0  0  0  0  0  0  0  0  0  0  0  0
   54.8071   30.1420   51.4340 H   0  0  0  0  0  0  0  0  0  0  0  0
   57.7830   31.0500   50.5430 C   0  0  0  0  0  0  0  0  0  0  0  0
   57.7042   31.9958   51.0990 H   0  0  0  0  0  0  0  0  0  0  0  0
   56.9534   30.9304   49.8307 H   0  0  0  0  0  0  0  0  0  0  0  0
   59.0960   31.0580   49.7370 C   0  0  0  0  0  0  0  0  0  0  0  0
   59.8238   31.7158   50.2346 H   0  0  0  0  0  0  0  0  0  0  0  0
   58.8909   31.4255   48.7207 H   0  0  0  0  0  0  0  0  0  0  0  0
   59.3170   29.6090   47.2040 C   0  0  0  0  0  0  0  0  0  0  0  0
   58.9090   30.6302   47.2306 H   0  0  0  0  0  0  0  0  0  0  0  0
   59.0540   34.3890   45.0150 C   0  0  0  0  0  0  0  0  0  0  0  0
   59.1195   34.6215   43.9418 H   0  0  0  0  0  0  0  0  0  0  0  0
   59.6480   35.2440   45.9490 C   0  0  0  0  0  0  0  0  0  0  0  0
   60.1782   36.1453   45.6078 H   0  0  0  0  0  0  0  0  0  0  0  0
  1  2  1  0
  2  3  2  0
  3  4  1  0
  3  5  1  0
  5  6  1  0
  5  7  2  0
  7  8  1  0
  8  9  2  0
  8 10  1  0
 10 11  2  0
 11 12  1  0
 12 13  2  0
 12 14  1  0
 14 15  1  0
 15 16  1  0
 15 17  1  0
 15 18  1  0
 18 19  2  0
 19 20  1  0
 19 21  1  0
 21 22  1  0
 21 23  2  0
 23 24  1  0
 23 25  1  0
 25 26  1  0
 25 27  2  0
 27 28  1  0
 11 29  1  0
 29 30  1  0
 29 31  1  0
 29 32  1  0
 32 33  2  0
 33 34  1  0
 33 35  1  0
 35 36  1  0
 35 37  2  0
 37 38  1  0
 37 39  1  0
 39 40  1  0
 40 41  1  0
 41 42  1  0
 41 43  1  0
 41 44  1  0
 44 45  1  0
 44 46  1  0
 44 47  1  0
 47 48  1  0
 48 49  1  0
 48 50  1  0
 48 51  1  0
 51 52  1  0
 51 53  1  0
 51 54  1  0
 47 55  1  0
 55 56  1  0
 55 57  1  0
 55 58  1  0
 58 59  1  0
 58 60  1  0
 39 61  2  0
 61 62  1  0
  7 63  1  0
 63 64  1  0
 63 65  2  0
 65 66  1  0
 65  2  1  0
 27 18  1  0
 61 32  1  0
 58 40  1  0
M  CHG  1  14  -1
M  END
>  <UniqueID>  (13) 
12

>  <SMILES>  (13) 
CCN1CCN(c2cccc(C/C(=N\C(=O)c3ccccc3)C(=O)[N-]Cc3ccccc3)c2)CC1

>  <Energy>  (13) 
83.2033247437385

>  <Genealogy>  (13) 
CCN1CCN(c2cccc(CC(=NC(=O)c3ccccc3)C(=O)[N-]Cc3ccccc3)c2)CC1 (protonated)
CCN1CCN(c2cccc(C/C(=N\C(=O)c3ccccc3)C(=O)[N-]Cc3ccccc3)c2)CC1 (cis-trans isomerization)
CCN1CCN(c2cccc(C/C(=N\C(=O)c3ccccc3)C(=O)[N-]Cc3ccccc3)c2)CC1 (3D coordinates assigned)
CCN1CCN(c2cccc(C/C(=N\C(=O)c3ccccc3)C(=O)[N-]Cc3ccccc3)c2)CC1 (nonaromatic ring conformer: 83.2033247437385 kcal/mol)

>  <smiles>  (13) 
CCN1CCN(c2cccc(CC(=NC(=O)c3ccccc3)C(=O)NCc3ccccc3)c2)CC1

>  <score_type>  (13) 
oracle

>  <origin>  (13) 
adg

>  <m_score__min__energy>  (13) 
-12.199999999999999

>  <m_primary>  (13) 
energy

$$$$
13:0
     RDKit          3D

 60 64  0  0  0  0  0  0  0  0999 V2000
   55.4940   29.2850   45.2310 O   0  0  0  0  0  0  0  0  0  0  0  0
   56.2570   29.8840   44.4250 C   0  0  0  0  0  0  0  0  0  0  0  0
   56.9920   29.0950   43.3870 C   0  0  0  0  0  0  0  0  0  0  0  0
   58.1420   28.4040   43.9620 N   0  0  0  0  0  0  0  0  0  0  0  0
   58.0450   27.1980   44.7270 C   0  0  0  0  0  0  0  0  0  0  0  0
   57.4180   26.2060   44.2680 O   0  0  0  0  0  0  0  0  0  0  0  0
   58.6550   27.1090   46.0630 C   0  0  0  0  0  0  0  0  0  0  0  0
   58.7820   25.9460   46.7480 N   0  0  0  0  0  0  0  0  0  0  0  0
   59.3680   26.1880   47.9150 N   0  0  0  0  0  0  0  0  0  0  0  0
   59.6190   27.5070   47.9720 C   0  0  0  0  0  0  0  0  0  0  0  0
   60.2500   28.2060   48.9960 C   0  0  0  0  0  0  0  0  0  0  0  0
   60.4450   29.5910   48.8250 C   0  0  0  0  0  0  0  0  0  0  0  0
   61.2890   30.5360   50.0930 S   0  0  0  0  0  0  0  0  0  0  0  0
   59.7460   31.1200   50.8190 C   0  0  0  0  0  0  0  0  0  0  0  0
   58.6890   30.2040   50.9180 C   0  0  0  0  0  0  0  0  0  0  0  0
   57.4380   30.6100   51.3840 C   0  0  0  0  0  0  0  0  0  0  0  0
   57.2270   31.9390   51.7500 C   0  0  0  0  0  0  0  0  0  0  0  0
   58.2700   32.8610   51.6660 C   0  0  0  0  0  0  0  0  0  0  0  0
   59.5480   32.4670   51.2210 C   0  0  0  0  0  0  0  0  0  0  0  0
   60.6300   33.4850   51.1810 C   0  0  0  0  0  0  0  0  0  0  0  0
   61.2060   33.8150   52.2510 O   0  0  0  0  0  0  0  0  0  0  0  0
   61.0040   34.1450   49.9650 N   0  0  0  0  0  0  0  0  0  0  0  0
   61.9240   33.8000   49.1050 C   0  0  0  0  0  0  0  0  0  0  0  0
   61.5870   33.8130   47.7870 N   0  0  0  0  0  0  0  0  0  0  0  0
   62.4570   33.4600   46.8030 C   0  0  0  0  0  0  0  0  0  0  0  0
   63.7520   33.0680   47.1270 C   0  0  0  0  0  0  0  0  0  0  0  0
   64.1460   33.0600   48.4630 C   0  0  0  0  0  0  0  0  0  0  0  0
   63.2480   33.4400   49.4680 C   0  0  0  0  0  0  0  0  0  0  0  0
   63.6900   33.4940   50.7880 O   0  0  0  0  0  0  0  0  0  0  0  0
   59.9910   30.2350   47.6500 C   0  0  0  0  0  0  0  0  0  0  0  0
   59.3570   29.4990   46.6320 C   0  0  0  0  0  0  0  0  0  0  0  0
   59.1870   28.1270   46.8320 C   0  0  0  0  0  0  0  0  0  0  0  0
   56.3970   31.2770   44.4740 O   0  0  0  0  0  0  0  0  0  0  0  0
   57.5920   31.9590   44.0950 C   0  0  0  0  0  0  0  0  0  0  0  0
   58.0490   32.8620   45.2050 C   0  0  0  0  0  0  0  0  0  0  0  0
   58.7130   34.0610   44.9050 C   0  0  0  0  0  0  0  0  0  0  0  0
   59.1200   34.9170   45.9330 C   0  0  0  0  0  0  0  0  0  0  0  0
   58.8590   34.5880   47.2650 C   0  0  0  0  0  0  0  0  0  0  0  0
   58.1900   33.3980   47.5720 C   0  0  0  0  0  0  0  0  0  0  0  0
   57.7840   32.5380   46.5460 C   0  0  0  0  0  0  0  0  0  0  0  0
   56.3083   28.3516   42.9513 H   0  0  0  0  0  0  0  0  0  0  0  0
   57.3546   29.7897   42.6150 H   0  0  0  0  0  0  0  0  0  0  0  0
   60.5859   27.6940   49.9098 H   0  0  0  0  0  0  0  0  0  0  0  0
   58.8475   29.1555   50.6256 H   0  0  0  0  0  0  0  0  0  0  0  0
   56.6177   29.8813   51.4627 H   0  0  0  0  0  0  0  0  0  0  0  0
   56.2368   32.2604   52.1053 H   0  0  0  0  0  0  0  0  0  0  0  0
   58.0930   33.9087   51.9506 H   0  0  0  0  0  0  0  0  0  0  0  0
   62.1368   33.4844   45.7509 H   0  0  0  0  0  0  0  0  0  0  0  0
   64.4565   32.7679   46.3373 H   0  0  0  0  0  0  0  0  0  0  0  0
   65.1681   32.7535   48.7300 H   0  0  0  0  0  0  0  0  0  0  0  0
   63.0580   33.6800   51.5570 H   0  0  0  0  0  0  0  0  0  0  0  0
   60.1347   31.3191   47.5313 H   0  0  0  0  0  0  0  0  0  0  0  0
   59.0073   29.9872   45.7104 H   0  0  0  0  0  0  0  0  0  0  0  0
   58.3788   31.2210   43.8799 H   0  0  0  0  0  0  0  0  0  0  0  0
   57.3904   32.5652   43.1995 H   0  0  0  0  0  0  0  0  0  0  0  0
   58.9142   34.3286   43.8572 H   0  0  0  0  0  0  0  0  0  0  0  0
   59.6471   35.8519   45.6920 H   0  0  0  0  0  0  0  0  0  0  0  0
   59.1790   35.2637   48.0719 H   0  0  0  0  0  0  0  0  0  0  0  0
   57.9832   33.1385   48.6208 H   0  0  0  0  0  0  0  0  0  0  0  0
   57.2554   31.6048   46.7902 H   0  0  0  0  0  0  0  0  0  0  0  0
  1  2  2  0
  2  3  1  0
  3  4  1  0
  4  5  1  0
  5  6  2  0
  5  7  1  0
  7  8  1  0
  8  9  1  0
  9 10  2  0
 10 11  1  0
 11 12  2  0
 12 13  1  0
 13 14  1  0
 14 15  2  0
 15 16  1  0
 16 17  2  0
 17 18  1  0
 18 19  2  0
 19 20  1  0
 20 21  2  0
 20 22  1  0
 22 23  2  3
 23 24  1  0
 24 25  1  0
 25 26  2  0
 26 27  1  0
 27 28  2  0
 28 29  1  0
 12 30  1  0
 30 31  2  0
 31 32  1  0
  2 33  1  0
 33 34  1  0
 34 35  1  0
 35 36  2  0
 36 37  1  0
 37 38  2  0
 38 39  1  0
 39 40  2  0
 32  7  2  0
 40 35  1  0
 32 10  1  0
 19 14  1  0
 28 23  1  0
  3 41  1  0
  3 42  1  0
 11 43  1  0
 15 44  1  0
 16 45  1  0
 17 46  1  0
 18 47  1  0
 25 48  1  0
 26 49  1  0
 27 50  1  0
 29 51  1  0
 30 52  1  0
 31 53  1  0
 34 54  1  0
 34 55  1  0
 36 56  1  0
 37 57  1  0
 38 58  1  0
 39 59  1  0
 40 60  1  0
M  CHG  3   4  -1   8  -1  24  -1
M  END
>  <UniqueID>  (14) 
13

>  <SMILES>  (14) 
O=C(C[N-]C(=O)c1[n-]nc2cc(Sc3ccccc3C(=O)N=c3[n-]cccc3O)ccc12)OCc1ccccc1

>  <Energy>  (14) 
113.83059650166363

>  <Genealogy>  (14) 
O=C(C[N-]C(=O)c1[n-]nc2cc(Sc3ccccc3C(=O)N=c3[n-]cccc3O)ccc12)OCc1ccccc1 (protonated)
O=C(C[N-]C(=O)c1[n-]nc2cc(Sc3ccccc3C(=O)N=c3[n-]cccc3O)ccc12)OCc1ccccc1 (3D coordinates assigned)
O=C(C[N-]C(=O)c1[n-]nc2cc(Sc3ccccc3C(=O)N=c3[n-]cccc3O)ccc12)OCc1ccccc1 (optimized conformer: 113.83059650166363 kcal/mol)

>  <smiles>  (14) 
O=C(CNC(=O)c1[nH]nc2cc(Sc3ccccc3C(=O)N=c3[nH]cccc3O)ccc12)OCc1ccccc1

>  <score_type>  (14) 
oracle

>  <origin>  (14) 
adg

>  <m_score__min__energy>  (14) 
-14.74

>  <m_primary>  (14) 
energy

$$$$
14:0
     RDKit          3D

 31 32  0  0  0  0  0  0  0  0999 V2000
   57.0071   28.8343   46.4625 H   0  0  0  0  0  0  0  0  0  0  0  0
   57.2900   28.0640   45.7300 C   0  0  0  0  0  0  0  0  0  0  0  0
   57.7030   28.4660   44.5120 C   0  0  0  0  0  0  0  0  0  0  0  0
   58.9100   27.7970   43.9130 C   0  0  0  0  0  0  0  0  0  0  0  0
   59.5653   27.4338   44.7183 H   0  0  0  0  0  0  0  0  0  0  0  0
   58.5882   26.9485   43.2913 H   0  0  0  0  0  0  0  0  0  0  0  0
   59.4590   28.5196   43.2913 H   0  0  0  0  0  0  0  0  0  0  0  0
   57.0220   29.5880   43.7510 C   0  0  0  0  0  0  0  0  0  0  0  0
   57.2520   29.4848   42.6803 H   0  0  0  0  0  0  0  0  0  0  0  0
   55.9385   29.5168   43.9272 H   0  0  0  0  0  0  0  0  0  0  0  0
   57.4910   30.9410   44.2250 C   0  0  0  0  0  0  0  0  0  0  0  0
   57.6840   31.9850   43.3050 C   0  0  0  0  0  0  0  0  0  0  0  0
   57.4763   31.8199   42.2375 H   0  0  0  0  0  0  0  0  0  0  0  0
   58.1390   33.2330   43.7410 C   0  0  0  0  0  0  0  0  0  0  0  0
   58.2934   34.0450   43.0152 H   0  0  0  0  0  0  0  0  0  0  0  0
   58.3980   33.4510   45.0960 C   0  0  0  0  0  0  0  0  0  0  0  0
   58.8540   34.6910   45.5280 O   0  0  0  0  0  0  0  0  0  0  0  0
   58.1990   32.4200   46.0200 C   0  0  0  0  0  0  0  0  0  0  0  0
   58.4023   32.5921   47.0873 H   0  0  0  0  0  0  0  0  0  0  0  0
   57.7420   31.1710   45.5890 C   0  0  0  0  0  0  0  0  0  0  0  0
   57.5782   30.3653   46.3198 H   0  0  0  0  0  0  0  0  0  0  0  0
   57.1960   26.6500   46.1360 C   0  0  0  0  0  0  0  0  0  0  0  0
   55.9550   26.0180   46.3150 C   0  0  0  0  0  0  0  0  0  0  0  0
   54.7680   26.7070   46.0920 O   0  0  0  0  0  0  0  0  0  0  0  0
   55.9060   24.7140   46.7020 N   0  0  0  0  0  0  0  0  0  0  0  0
   57.0360   23.9860   46.9140 C   0  0  0  0  0  0  0  0  0  0  0  0
   56.9470   22.7850   47.2790 O   0  0  0  0  0  0  0  0  0  0  0  0
   58.2900   24.5710   46.7220 C   0  0  0  0  0  0  0  0  0  0  0  0
   59.2071   23.9859   46.8851 H   0  0  0  0  0  0  0  0  0  0  0  0
   58.3670   25.9060   46.3210 C   0  0  0  0  0  0  0  0  0  0  0  0
   59.3481   26.3732   46.1504 H   0  0  0  0  0  0  0  0  0  0  0  0
  1  2  1  0
  2  3  2  0
  3  4  1  0
  4  5  1  0
  4  6  1  0
  4  7  1  0
  3  8  1  0
  8  9  1  0
  8 10  1  0
  8 11  1  0
 11 12  2  0
 12 13  1  0
 12 14  1  0
 14 15  1  0
 14 16  2  0
 16 17  1  0
 16 18  1  0
 18 19  1  0
 18 20  2  0
 20 21  1  0
  2 22  1  0
 22 23  2  0
 23 24  1  0
 23 25  1  0
 25 26  1  0
 26 27  2  0
 26 28  1  0
 28 29  1  0
 28 30  2  0
 30 31  1  0
 20 11  1  0
 30 22  1  0
M  CHG  3  17  -1  24  -1  25  -1
M  END
>  <UniqueID>  (15) 
14

>  <SMILES>  (15) 
C/C(=C/c1ccc(=O)[n-]c1[O-])Cc1ccc([O-])cc1

>  <Energy>  (15) 
35.65734659799956

>  <Genealogy>  (15) 
CC(=Cc1ccc(=O)[n-]c1[O-])Cc1ccc([O-])cc1 (protonated)
C/C(=C/c1ccc(=O)[n-]c1[O-])Cc1ccc([O-])cc1 (cis-trans isomerization)
C/C(=C/c1ccc(=O)[n-]c1[O-])Cc1ccc([O-])cc1 (3D coordinates assigned)
C/C(=C/c1ccc(=O)[n-]c1[O-])Cc1ccc([O-])cc1 (optimized conformer: 35.65734659799956 kcal/mol)

>  <smiles>  (15) 
CC(=Cc1ccc(=O)[nH]c1O)Cc1ccc(O)cc1

>  <score_type>  (15) 
oracle

>  <origin>  (15) 
adg

>  <m_score__min__energy>  (15) 
-13.77

>  <m_primary>  (15) 
energy

$$$$
15:0
     RDKit          3D

 44 46  0  0  0  0  0  0  0  0999 V2000
   54.7970   26.1410   45.9380 N   0  0  0  0  0  0  0  0  0  0  0  0
   56.3650   25.4820   46.2360 S   0  0  0  0  0  0  0  0  0  0  0  0
   56.6200   24.3480   45.2830 O   0  0  0  0  0  0  0  0  0  0  0  0
   56.4310   24.9540   47.6420 O   0  0  0  0  0  0  0  0  0  0  0  0
   57.5820   26.7340   46.0130 C   0  0  0  0  0  0  0  0  0  0  0  0
   58.0550   27.0370   44.7180 C   0  0  0  0  0  0  0  0  0  0  0  0
   59.0350   28.0260   44.5320 C   0  0  0  0  0  0  0  0  0  0  0  0
   59.5290   28.6930   45.6530 C   0  0  0  0  0  0  0  0  0  0  0  0
   59.0770   28.3970   46.9170 C   0  0  0  0  0  0  0  0  0  0  0  0
   58.1050   27.4180   47.1270 C   0  0  0  0  0  0  0  0  0  0  0  0
   59.7600   29.2350   47.9310 C   0  0  0  0  0  0  0  0  0  0  0  0
   60.6630   30.0590   47.1260 N   0  0  0  0  0  0  0  0  0  0  0  0
   61.5450   31.0430   47.6910 C   0  0  0  0  0  0  0  0  0  0  0  0
   62.4590   31.5390   46.9780 O   0  0  0  0  0  0  0  0  0  0  0  0
   61.3990   31.4640   49.0560 N   0  0  0  0  0  0  0  0  0  0  0  0
   62.2950   32.4610   49.6410 C   0  0  0  0  0  0  0  0  0  0  0  0
   61.9610   33.8680   49.1230 C   0  0  0  0  0  0  0  0  0  0  0  0
   60.4660   34.1940   49.2430 C   0  0  0  0  0  0  0  0  0  0  0  0
   59.7300   33.9530   47.9510 C   0  0  0  0  0  0  0  0  0  0  0  0
   60.0550   34.6760   46.7940 C   0  0  0  0  0  0  0  0  0  0  0  0
   59.3470   34.4570   45.6100 C   0  0  0  0  0  0  0  0  0  0  0  0
   58.3140   33.5180   45.5960 C   0  0  0  0  0  0  0  0  0  0  0  0
   58.0050   32.8290   46.7260 N   0  0  0  0  0  0  0  0  0  0  0  0
   58.6800   33.0240   47.8900 C   0  0  0  0  0  0  0  0  0  0  0  0
   60.5590   29.7590   45.6960 C   0  0  0  0  0  0  0  0  0  0  0  0
   54.7740   27.0870   46.3820 H   0  0  0  0  0  0  0  0  0  0  0  0
   57.6536   26.4952   43.8489 H   0  0  0  0  0  0  0  0  0  0  0  0
   59.4046   28.2690   43.5249 H   0  0  0  0  0  0  0  0  0  0  0  0
   57.7542   27.1852   48.1432 H   0  0  0  0  0  0  0  0  0  0  0  0
   59.0385   29.8591   48.4786 H   0  0  0  0  0  0  0  0  0  0  0  0
   60.2816   28.6454   48.6993 H   0  0  0  0  0  0  0  0  0  0  0  0
   60.6400   31.0490   49.6410 H   0  0  0  0  0  0  0  0  0  0  0  0
   62.1865   32.4448   50.7355 H   0  0  0  0  0  0  0  0  0  0  0  0
   63.3284   32.2166   49.3541 H   0  0  0  0  0  0  0  0  0  0  0  0
   62.5316   34.6047   49.7075 H   0  0  0  0  0  0  0  0  0  0  0  0
   62.2289   33.9061   48.0568 H   0  0  0  0  0  0  0  0  0  0  0  0
   60.0259   33.5591   50.0261 H   0  0  0  0  0  0  0  0  0  0  0  0
   60.3701   35.2605   49.4946 H   0  0  0  0  0  0  0  0  0  0  0  0
   60.8683   35.4163   46.8190 H   0  0  0  0  0  0  0  0  0  0  0  0
   59.6006   35.0183   44.6986 H   0  0  0  0  0  0  0  0  0  0  0  0
   57.7497   33.3356   44.6696 H   0  0  0  0  0  0  0  0  0  0  0  0
   58.4020   32.4515   48.7872 H   0  0  0  0  0  0  0  0  0  0  0  0
   60.2357   30.6443   45.1288 H   0  0  0  0  0  0  0  0  0  0  0  0
   61.5158   29.4558   45.2459 H   0  0  0  0  0  0  0  0  0  0  0  0
  1  2  1  0
  2  3  2  0
  2  4  2  0
  2  5  1  0
  5  6  2  0
  6  7  1  0
  7  8  2  0
  8  9  1  0
  9 10  2  0
  9 11  1  0
 11 12  1  0
 12 13  1  0
 13 14  2  0
 13 15  1  0
 15 16  1  0
 16 17  1  0
 17 18  1  0
 18 19  1  0
 19 20  2  0
 20 21  1  0
 21 22  2  0
 22 23  1  0
 23 24  2  0
 12 25  1  0
 10  5  1  0
 24 19  1  0
 25  8  1  0
  1 26  1  0
  6 27  1  0
  7 28  1  0
 10 29  1  0
 11 30  1  0
 11 31  1  0
 15 32  1  0
 16 33  1  0
 16 34  1  0
 17 35  1  0
 17 36  1  0
 18 37  1  0
 18 38  1  0
 20 39  1  0
 21 40  1  0
 22 41  1  0
 24 42  1  0
 25 43  1  0
 25 44  1  0
M  CHG  1   1  -1
M  END
>  <UniqueID>  (16) 
15

>  <SMILES>  (16) 
[NH-]S(=O)(=O)c1ccc2c(c1)CN(C(=O)NCCCc1cccnc1)C2

>  <Energy>  (16) 
48.998943694631095

>  <Genealogy>  (16) 
[NH-]S(=O)(=O)c1ccc2c(c1)CN(C(=O)NCCCc1cccnc1)C2 (protonated)
[NH-]S(=O)(=O)c1ccc2c(c1)CN(C(=O)NCCCc1cccnc1)C2 (3D coordinates assigned)
[NH-]S(=O)(=O)c1ccc2c(c1)CN(C(=O)NCCCc1cccnc1)C2 (nonaromatic ring conformer: 48.998943694631095 kcal/mol)

>  <smiles>  (16) 
NS(=O)(=O)c1ccc2c(c1)CN(C(=O)NCCCc1cccnc1)C2

>  <score_type>  (16) 
oracle

>  <origin>  (16) 
adg

>  <m_score__min__energy>  (16) 
-10.85

>  <m_primary>  (16) 
energy

$$$$
16:0
     RDKit          3D

 67 71  0  0  0  0  0  0  0  0999 V2000
   57.5377   32.4281   41.2531 H   0  0  0  0  0  0  0  0  0  0  0  0
   57.5560   32.1530   42.3180 C   0  0  0  0  0  0  0  0  0  0  0  0
   57.8240   33.0970   43.2600 N   0  0  0  0  0  0  0  0  0  0  0  0
   57.8690   32.8180   44.5900 C   0  0  0  0  0  0  0  0  0  0  0  0
   58.1420   33.8030   45.4040 N   0  0  0  0  0  0  0  0  0  0  0  0
   59.3760   34.0610   46.0840 C   0  0  0  0  0  0  0  0  0  0  0  0
   59.8160   35.2370   46.1370 O   0  0  0  0  0  0  0  0  0  0  0  0
   60.0800   32.9770   46.7120 N   0  0  0  0  0  0  0  0  0  0  0  0
   59.7250   32.0120   46.5320 H   0  0  0  0  0  0  0  0  0  0  0  0
   61.3240   33.1160   47.4170 C   0  0  0  0  0  0  0  0  0  0  0  0
   61.4990   34.0900   48.4140 C   0  0  0  0  0  0  0  0  0  0  0  0
   60.6791   34.7844   48.6500 H   0  0  0  0  0  0  0  0  0  0  0  0
   62.7090   34.1820   49.1080 C   0  0  0  0  0  0  0  0  0  0  0  0
   62.8376   34.9546   49.8804 H   0  0  0  0  0  0  0  0  0  0  0  0
   63.7580   33.2990   48.8280 C   0  0  0  0  0  0  0  0  0  0  0  0
   64.9570   33.4440   49.5410 O   0  0  0  0  0  0  0  0  0  0  0  0
   65.6420   32.3690   50.1760 C   0  0  0  0  0  0  0  0  0  0  0  0
   65.5699   32.4822   51.2678 H   0  0  0  0  0  0  0  0  0  0  0  0
   65.1852   31.4146   49.8754 H   0  0  0  0  0  0  0  0  0  0  0  0
   66.7001   32.3799   49.8754 H   0  0  0  0  0  0  0  0  0  0  0  0
   63.5730   32.3030   47.8470 C   0  0  0  0  0  0  0  0  0  0  0  0
   64.3864   31.5972   47.6230 H   0  0  0  0  0  0  0  0  0  0  0  0
   62.3620   32.2090   47.1590 C   0  0  0  0  0  0  0  0  0  0  0  0
   62.2208   31.4172   46.4086 H   0  0  0  0  0  0  0  0  0  0  0  0
   57.6670   31.4780   45.0190 C   0  0  0  0  0  0  0  0  0  0  0  0
   57.7650   31.1210   46.3720 O   0  0  0  0  0  0  0  0  0  0  0  0
   58.5090   30.0430   46.8730 C   0  0  0  0  0  0  0  0  0  0  0  0
   58.3020   28.7730   46.3250 C   0  0  0  0  0  0  0  0  0  0  0  0
   57.6020   28.6469   45.4859 H   0  0  0  0  0  0  0  0  0  0  0  0
   58.9790   27.6640   46.8370 C   0  0  0  0  0  0  0  0  0  0  0  0
   58.8093   26.6688   46.4003 H   0  0  0  0  0  0  0  0  0  0  0  0
   59.8720   27.8140   47.9030 C   0  0  0  0  0  0  0  0  0  0  0  0
   60.3958   26.9358   48.3085 H   0  0  0  0  0  0  0  0  0  0  0  0
   60.1010   29.0860   48.4570 C   0  0  0  0  0  0  0  0  0  0  0  0
   60.9620   29.2970   49.5850 N   0  0  0  0  0  0  0  0  0  0  0  0
   61.1850   30.5030   50.3270 C   0  0  0  0  0  0  0  0  0  0  0  0
   62.3510   30.9590   50.4680 O   0  0  0  0  0  0  0  0  0  0  0  0
   60.0270   31.2420   50.8830 C   0  0  0  0  0  0  0  0  0  0  0  0
   60.0590   32.6450   50.9710 C   0  0  0  0  0  0  0  0  0  0  0  0
   60.9491   33.1931   50.6286 H   0  0  0  0  0  0  0  0  0  0  0  0
   58.9710   33.3470   51.4890 C   0  0  0  0  0  0  0  0  0  0  0  0
   59.0149   34.4433   51.5684 H   0  0  0  0  0  0  0  0  0  0  0  0
   57.8300   32.6680   51.9060 C   0  0  0  0  0  0  0  0  0  0  0  0
   56.9759   33.2317   52.3095 H   0  0  0  0  0  0  0  0  0  0  0  0
   57.7610   31.2630   51.8150 C   0  0  0  0  0  0  0  0  0  0  0  0
   56.5600   30.5580   52.1980 N   0  0  0  0  0  0  0  0  0  0  0  0
   55.2590   31.2050   51.9760 C   0  0  0  0  0  0  0  0  0  0  0  0
   55.0906   31.9577   52.7602 H   0  0  0  0  0  0  0  0  0  0  0  0
   55.2643   31.6836   50.9856 H   0  0  0  0  0  0  0  0  0  0  0  0
   54.1290   30.1690   52.0200 C   0  0  0  0  0  0  0  0  0  0  0  0
   53.1606   30.6906   52.0071 H   0  0  0  0  0  0  0  0  0  0  0  0
   54.2202   29.5099   51.1441 H   0  0  0  0  0  0  0  0  0  0  0  0
   54.2160   29.3810   53.1920 O   0  0  0  0  0  0  0  0  0  0  0  0
   55.3940   28.6030   53.1470 C   0  0  0  0  0  0  0  0  0  0  0  0
   55.4021   27.9082   53.9998 H   0  0  0  0  0  0  0  0  0  0  0  0
   55.4144   28.0416   52.2012 H   0  0  0  0  0  0  0  0  0  0  0  0
   56.6290   29.5000   53.2170 C   0  0  0  0  0  0  0  0  0  0  0  0
   56.6842   29.9616   54.2139 H   0  0  0  0  0  0  0  0  0  0  0  0
   57.5231   28.8868   53.0309 H   0  0  0  0  0  0  0  0  0  0  0  0
   58.8740   30.5580   51.3160 C   0  0  0  0  0  0  0  0  0  0  0  0
   58.8424   29.4597   51.2638 H   0  0  0  0  0  0  0  0  0  0  0  0
   59.4000   30.1890   47.9510 C   0  0  0  0  0  0  0  0  0  0  0  0
   59.5486   31.1810   48.4026 H   0  0  0  0  0  0  0  0  0  0  0  0
   57.3560   30.5040   44.0530 C   0  0  0  0  0  0  0  0  0  0  0  0
   57.1515   29.4698   44.3669 H   0  0  0  0  0  0  0  0  0  0  0  0
   57.3050   30.8390   42.7020 C   0  0  0  0  0  0  0  0  0  0  0  0
   57.0691   30.0741   41.9475 H   0  0  0  0  0  0  0  0  0  0  0  0
  1  2  1  0
  2  3  1  0
  3  4  1  0
  4  5  2  0
  5  6  1  0
  6  7  2  0
  6  8  1  0
  8  9  1  0
  8 10  1  0
 10 11  2  0
 11 12  1  0
 11 13  1  0
 13 14  1  0
 13 15  2  0
 15 16  1  0
 16 17  1  0
 17 18  1  0
 17 19  1  0
 17 20  1  0
 15 21  1  0
 21 22  1  0
 21 23  2  0
 23 24  1  0
  4 25  1  0
 25 26  1  0
 26 27  1  0
 27 28  2  0
 28 29  1  0
 28 30  1  0
 30 31  1  0
 30 32  2  0
 32 33  1  0
 32 34  1  0
 34 35  1  0
 35 36  1  0
 36 37  2  0
 36 38  1  0
 38 39  2  0
 39 40  1  0
 39 41  1  0
 41 42  1  0
 41 43  2  0
 43 44  1  0
 43 45  1  0
 45 46  1  0
 46 47  1  0
 47 48  1  0
 47 49  1  0
 47 50  1  0
 50 51  1  0
 50 52  1  0
 50 53  1  0
 53 54  1  0
 54 55  1  0
 54 56  1  0
 54 57  1  0
 57 58  1  0
 57 59  1  0
 45 60  2  0
 60 61  1  0
 34 62  2  0
 62 63  1  0
 25 64  2  0
 64 65  1  0
 64 66  1  0
 66 67  1  0
 66  2  2  0
 23 10  1  0
 62 27  1  0
 60 38  1  0
 57 46  1  0
M  CHG  2   3  -1  35  -1
M  END
>  <UniqueID>  (17) 
16

>  <SMILES>  (17) 
COc1ccc(NC(=O)/N=c2/[n-]cccc2Oc2cccc([N-]C(=O)c3cccc(N4CCOCC4)c3)c2)cc1

>  <Energy>  (17) 
104.53062083156802

>  <Genealogy>  (17) 
COc1ccc(NC(=O)N=c2[n-]cccc2Oc2cccc([N-]C(=O)c3cccc(N4CCOCC4)c3)c2)cc1 (protonated)
COc1ccc(NC(=O)/N=c2/[n-]cccc2Oc2cccc([N-]C(=O)c3cccc(N4CCOCC4)c3)c2)cc1 (cis-trans isomerization)
COc1ccc(NC(=O)/N=c2/[n-]cccc2Oc2cccc([N-]C(=O)c3cccc(N4CCOCC4)c3)c2)cc1 (3D coordinates assigned)
COc1ccc(NC(=O)/N=c2/[n-]cccc2Oc2cccc([N-]C(=O)c3cccc(N4CCOCC4)c3)c2)cc1 (nonaromatic ring conformer: 104.53062083156802 kcal/mol)

>  <smiles>  (17) 
COc1ccc(NC(=O)N=c2[nH]cccc2Oc2cccc(NC(=O)c3cccc(N4CCOCC4)c3)c2)cc1

>  <score_type>  (17) 
oracle

>  <origin>  (17) 
adg

>  <m_score__min__energy>  (17) 
-11.779999999999999

>  <m_primary>  (17) 
energy

$$$$
17:0
     RDKit          3D

 52 56  0  0  0  0  0  0  0  0999 V2000
   60.3010   22.3320   45.5460 N   0  0  0  0  0  0  0  0  0  0  0  0
   59.3990   23.2350   45.3170 C   0  0  0  0  0  0  0  0  0  0  0  0
   59.5650   24.4600   45.8780 N   0  0  0  0  0  0  0  0  0  0  0  0
   58.6700   25.4640   45.6880 C   0  0  0  0  0  0  0  0  0  0  0  0
   58.8840   26.8040   46.2970 C   0  0  0  0  0  0  0  0  0  0  0  0
   59.6320   26.9050   47.4860 C   0  0  0  0  0  0  0  0  0  0  0  0
   59.8290   28.1410   48.1050 C   0  0  0  0  0  0  0  0  0  0  0  0
   59.2750   29.3010   47.5630 C   0  0  0  0  0  0  0  0  0  0  0  0
   59.4890   30.5220   48.2170 O   0  0  0  0  0  0  0  0  0  0  0  0
   59.1170   30.8080   49.5400 C   0  0  0  0  0  0  0  0  0  0  0  0
   59.8540   31.7580   50.2540 C   0  0  0  0  0  0  0  0  0  0  0  0
   59.5310   32.0510   51.5820 C   0  0  0  0  0  0  0  0  0  0  0  0
   58.4640   31.3980   52.2050 C   0  0  0  0  0  0  0  0  0  0  0  0
   57.7100   30.4500   51.4970 C   0  0  0  0  0  0  0  0  0  0  0  0
   56.6290   29.7490   52.1210 N   0  0  0  0  0  0  0  0  0  0  0  0
   55.3220   30.2860   52.3600 C   0  0  0  0  0  0  0  0  0  0  0  0
   54.8150   30.1630   53.5050 O   0  0  0  0  0  0  0  0  0  0  0  0
   54.5040   30.9080   51.2610 C   0  0  0  0  0  0  0  0  0  0  0  0
   53.1300   31.1290   51.7150 N   0  0  0  0  0  0  0  0  0  0  0  0
   52.4540   32.2460   51.4910 N   0  0  0  0  0  0  0  0  0  0  0  0
   51.2320   32.0800   52.0350 C   0  0  0  0  0  0  0  0  0  0  0  0
   50.2340   33.0460   51.9960 O   0  0  0  0  0  0  0  0  0  0  0  0
   51.1110   30.8340   52.6190 C   0  0  0  0  0  0  0  0  0  0  0  0
   52.3420   30.2670   52.3860 C   0  0  0  0  0  0  0  0  0  0  0  0
   52.6900   29.1110   52.7430 O   0  0  0  0  0  0  0  0  0  0  0  0
   58.0600   30.1340   50.1790 C   0  0  0  0  0  0  0  0  0  0  0  0
   58.5590   29.2220   46.3580 C   0  0  0  0  0  0  0  0  0  0  0  0
   58.3580   27.9880   45.7230 C   0  0  0  0  0  0  0  0  0  0  0  0
   57.6510   27.9470   44.5230 O   0  0  0  0  0  0  0  0  0  0  0  0
   57.5980   25.2490   44.9320 O   0  0  0  0  0  0  0  0  0  0  0  0
   57.3590   24.0810   44.3490 C   0  0  0  0  0  0  0  0  0  0  0  0
   56.2050   23.9290   43.5680 C   0  0  0  0  0  0  0  0  0  0  0  0
   55.9370   22.7120   42.9400 C   0  0  0  0  0  0  0  0  0  0  0  0
   56.8170   21.6410   43.0880 C   0  0  0  0  0  0  0  0  0  0  0  0
   57.9710   21.7750   43.8690 C   0  0  0  0  0  0  0  0  0  0  0  0
   58.2590   23.0020   44.5110 C   0  0  0  0  0  0  0  0  0  0  0  0
   61.0560   22.0480   44.8860 H   0  0  0  0  0  0  0  0  0  0  0  0
   60.0666   25.9986   47.9327 H   0  0  0  0  0  0  0  0  0  0  0  0
   60.4257   28.2005   49.0272 H   0  0  0  0  0  0  0  0  0  0  0  0
   60.6927   32.2777   49.7678 H   0  0  0  0  0  0  0  0  0  0  0  0
   60.1179   32.7971   52.1378 H   0  0  0  0  0  0  0  0  0  0  0  0
   58.2150   31.6275   53.2516 H   0  0  0  0  0  0  0  0  0  0  0  0
   54.9517   31.8715   50.9760 H   0  0  0  0  0  0  0  0  0  0  0  0
   54.4907   30.2288   50.3958 H   0  0  0  0  0  0  0  0  0  0  0  0
   50.2445   30.4022   53.1412 H   0  0  0  0  0  0  0  0  0  0  0  0
   57.5047   29.3531   49.6389 H   0  0  0  0  0  0  0  0  0  0  0  0
   58.1510   30.1385   45.9068 H   0  0  0  0  0  0  0  0  0  0  0  0
   57.0120   27.1910   44.3060 H   0  0  0  0  0  0  0  0  0  0  0  0
   55.5083   24.7719   43.4497 H   0  0  0  0  0  0  0  0  0  0  0  0
   55.0304   22.5977   42.3276 H   0  0  0  0  0  0  0  0  0  0  0  0
   56.6033   20.6848   42.5880 H   0  0  0  0  0  0  0  0  0  0  0  0
   58.6567   20.9225   43.9839 H   0  0  0  0  0  0  0  0  0  0  0  0
  1  2  2  3
  2  3  1  0
  3  4  2  0
  4  5  1  0
  5  6  2  0
  6  7  1  0
  7  8  2  0
  8  9  1  0
  9 10  1  0
 10 11  2  0
 11 12  1  0
 12 13  2  0
 13 14  1  0
 14 15  1  0
 15 16  1  0
 16 17  2  0
 16 18  1  0
 18 19  1  0
 19 20  1  0
 20 21  1  0
 21 22  1  0
 21 23  2  0
 23 24  1  0
 24 25  2  0
 14 26  2  0
  8 27  1  0
 27 28  2  0
 28 29  1  0
  4 30  1  0
 30 31  1  0
 31 32  2  0
 32 33  1  0
 33 34  2  0
 34 35  1  0
 35 36  2  0
 36  2  1  0
 28  5  1  0
 36 31  1  0
 26 10  1  0
 24 19  1  0
  1 37  1  0
  6 38  1  0
  7 39  1  0
 11 40  1  0
 12 41  1  0
 13 42  1  0
 18 43  1  0
 18 44  1  0
 23 45  1  0
 26 46  1  0
 27 47  1  0
 29 48  1  0
 32 49  1  0
 33 50  1  0
 34 51  1  0
 35 52  1  0
M  CHG  3  15  -1  20  -1  22  -1
M  END
>  <UniqueID>  (18) 
17

>  <SMILES>  (18) 
N=c1nc(-c2ccc(Oc3cccc([N-]C(=O)Cn4[n-]c([O-])cc4=O)c3)cc2O)oc2ccccc12

>  <Energy>  (18) 
110.04906899112962

>  <Genealogy>  (18) 
N=c1nc(-c2ccc(Oc3cccc([N-]C(=O)Cn4[n-]c([O-])cc4=O)c3)cc2O)oc2ccccc12 (protonated)
N=c1nc(-c2ccc(Oc3cccc([N-]C(=O)Cn4[n-]c([O-])cc4=O)c3)cc2O)oc2ccccc12 (3D coordinates assigned)
N=c1nc(-c2ccc(Oc3cccc([N-]C(=O)Cn4[n-]c([O-])cc4=O)c3)cc2O)oc2ccccc12 (optimized conformer: 110.04906899112962 kcal/mol)

>  <smiles>  (18) 
N=c1nc(-c2ccc(Oc3cccc(NC(=O)Cn4[nH]c(O)cc4=O)c3)cc2O)oc2ccccc12

>  <score_type>  (18) 
oracle

>  <origin>  (18) 
adg

>  <m_score__min__energy>  (18) 
-16.449999999999999

>  <m_primary>  (18) 
energy

$$$$
18:0
     RDKit          3D

 35 36  0  0  0  0  0  0  0  0999 V2000
   57.4470   31.9500   42.0370 C   0  0  0  0  0  0  0  0  0  0  0  0
   56.6270   30.9340   42.6820 N   0  0  0  0  0  0  0  0  0  0  0  0
   56.4920   30.8480   44.1050 C   0  0  0  0  0  0  0  0  0  0  0  0
   55.5530   30.1730   44.6170 O   0  0  0  0  0  0  0  0  0  0  0  0
   57.4100   31.5900   44.9770 C   0  0  0  0  0  0  0  0  0  0  0  0
   57.0870   32.9070   45.3450 C   0  0  0  0  0  0  0  0  0  0  0  0
   57.9720   33.6550   46.1330 C   0  0  0  0  0  0  0  0  0  0  0  0
   59.1920   33.1010   46.5570 C   0  0  0  0  0  0  0  0  0  0  0  0
   60.0670   33.9190   47.2930 O   0  0  0  0  0  0  0  0  0  0  0  0
   59.9380   34.1790   48.6910 C   0  0  0  0  0  0  0  0  0  0  0  0
   59.4800   31.7550   46.2610 C   0  0  0  0  0  0  0  0  0  0  0  0
   58.6220   31.0080   45.4230 C   0  0  0  0  0  0  0  0  0  0  0  0
   58.8390   29.5970   45.1690 N   0  0  0  0  0  0  0  0  0  0  0  0
   58.5720   28.5480   45.9000 C   0  0  0  0  0  0  0  0  0  0  0  0
   57.3390   27.8720   45.8640 C   0  0  0  0  0  0  0  0  0  0  0  0
   57.2650   26.5750   46.3960 C   0  0  0  0  0  0  0  0  0  0  0  0
   56.0900   25.7480   46.1090 C   0  0  0  0  0  0  0  0  0  0  0  0
   54.7930   26.3390   46.0320 N   0  0  0  0  0  0  0  0  0  0  0  0
   56.2280   24.5100   45.9270 O   0  0  0  0  0  0  0  0  0  0  0  0
   58.3310   26.0610   47.1360 C   0  0  0  0  0  0  0  0  0  0  0  0
   59.4720   26.8470   47.3220 C   0  0  0  0  0  0  0  0  0  0  0  0
   59.5800   28.0360   46.6690 N   0  0  0  0  0  0  0  0  0  0  0  0
   57.9420   32.5633   42.8044 H   0  0  0  0  0  0  0  0  0  0  0  0
   58.2081   31.4630   41.4097 H   0  0  0  0  0  0  0  0  0  0  0  0
   56.8103   32.5912   41.4097 H   0  0  0  0  0  0  0  0  0  0  0  0
   56.1371   33.3520   45.0137 H   0  0  0  0  0  0  0  0  0  0  0  0
   57.7098   34.6835   46.4219 H   0  0  0  0  0  0  0  0  0  0  0  0
   60.3562   33.3361   49.2608 H   0  0  0  0  0  0  0  0  0  0  0  0
   60.4838   35.0998   48.9446 H   0  0  0  0  0  0  0  0  0  0  0  0
   58.8747   34.3014   48.9446 H   0  0  0  0  0  0  0  0  0  0  0  0
   60.3783   31.2821   46.6846 H   0  0  0  0  0  0  0  0  0  0  0  0
   56.4499   28.3504   45.4274 H   0  0  0  0  0  0  0  0  0  0  0  0
   54.5060   27.0770   46.7130 H   0  0  0  0  0  0  0  0  0  0  0  0
   58.2740   25.0506   47.5672 H   0  0  0  0  0  0  0  0  0  0  0  0
   60.2763   26.5070   47.9910 H   0  0  0  0  0  0  0  0  0  0  0  0
  1  2  1  0
  2  3  1  0
  3  4  2  0
  3  5  1  0
  5  6  2  0
  6  7  1  0
  7  8  2  0
  8  9  1  0
  9 10  1  0
  8 11  1  0
 11 12  2  0
 12 13  1  0
 13 14  2  3
 14 15  1  0
 15 16  2  0
 16 17  1  0
 17 18  1  0
 17 19  2  0
 16 20  1  0
 20 21  2  0
 21 22  1  0
 12  5  1  0
 22 14  1  0
  1 23  1  0
  1 24  1  0
  1 25  1  0
  6 26  1  0
  7 27  1  0
 10 28  1  0
 10 29  1  0
 10 30  1  0
 11 31  1  0
 15 32  1  0
 18 33  1  0
 20 34  1  0
 21 35  1  0
M  CHG  3   2  -1  18  -1  22  -1
M  END
>  <UniqueID>  (19) 
18

>  <SMILES>  (19) 
C[N-]C(=O)c1ccc(OC)cc1N=c1cc(C([NH-])=O)cc[n-]1

>  <Energy>  (19) 
64.30527865102538

>  <Genealogy>  (19) 
C[N-]C(=O)c1ccc(OC)cc1N=c1cc(C([NH-])=O)cc[n-]1 (protonated)
C[N-]C(=O)c1ccc(OC)cc1N=c1cc(C([NH-])=O)cc[n-]1 (3D coordinates assigned)
C[N-]C(=O)c1ccc(OC)cc1N=c1cc(C([NH-])=O)cc[n-]1 (optimized conformer: 64.30527865102538 kcal/mol)

>  <smiles>  (19) 
CNC(=O)c1ccc(OC)cc1N=c1cc(C(N)=O)cc[nH]1

>  <score_type>  (19) 
oracle

>  <origin>  (19) 
adg

>  <m_score__min__energy>  (19) 
-12.44

>  <m_primary>  (19) 
energy

$$$$
19:0
     RDKit          3D

 51 54  0  0  1  0  0  0  0  0999 V2000
   65.6390   33.4040   50.1380 C   0  0  0  0  0  0  0  0  0  0  0  0
   64.5040   32.7840   49.4130 C   0  0  0  0  0  0  0  0  0  0  0  0
   64.1360   33.1270   48.1300 C   0  0  0  0  0  0  0  0  0  0  0  0
   63.0830   32.5580   47.4520 C   0  0  0  0  0  0  0  0  0  0  0  0
   62.2950   31.5540   48.0660 C   0  0  0  0  0  0  0  0  0  0  0  0
   61.2640   30.9160   47.5680 N   0  0  0  0  0  0  0  0  0  0  0  0
   60.6300   30.0100   48.2590 C   0  0  0  0  0  0  0  0  0  0  0  0
   59.6380   29.3110   47.9510 N   0  0  0  0  0  0  0  0  0  0  0  0
   59.7040   27.8990   47.9820 C   0  0  0  0  0  0  0  0  0  0  0  0
   60.3720   27.3570   48.9220 O   0  0  0  0  0  0  0  0  0  0  0  0
   59.0470   27.0110   46.9910 C   0  0  0  0  0  0  0  0  0  0  0  0
   59.3360   27.5610   45.2950 S   0  0  0  0  0  0  0  0  0  0  0  0
   58.1360   28.8540   44.9810 C   0  0  0  0  0  0  0  0  0  0  0  0
   56.8530   28.5980   44.6750 N   0  0  0  0  0  0  0  0  0  0  0  0
   55.9790   29.5950   44.4350 C   0  0  0  0  0  0  0  0  0  0  0  0
   54.7690   29.3850   44.1450 O   0  0  0  0  0  0  0  0  0  0  0  0
   56.3750   30.8740   44.4970 N   0  0  0  0  0  0  0  0  0  0  0  0
   57.6390   31.1720   44.7980 C   0  0  0  0  0  0  0  0  0  0  0  0
   57.9940   32.6290   44.8380 C   0  0  0  0  0  0  0  0  0  0  0  0
   58.5410   32.9680   46.1760 C   0  0  0  0  0  0  0  0  0  0  0  0
   58.1350   32.3510   47.3420 C   0  0  0  0  0  0  0  0  0  0  0  0
   58.6770   32.6870   48.5640 C   0  0  0  0  0  0  0  0  0  0  0  0
   59.6500   33.6660   48.5990 C   0  0  0  0  0  0  0  0  0  0  0  0
   60.0870   34.3120   47.4500 C   0  0  0  0  0  0  0  0  0  0  0  0
   59.5160   33.9430   46.2510 C   0  0  0  0  0  0  0  0  0  0  0  0
   58.5350   30.1750   45.0440 C   0  0  0  0  0  0  0  0  0  0  0  0
   59.8510   30.4500   45.3590 O   0  0  0  0  0  0  0  0  0  0  0  0
   61.5130   29.9450   49.8690 S   0  0  0  0  0  0  0  0  0  0  0  0
   62.6950   31.2450   49.3350 C   0  0  0  0  0  0  0  0  0  0  0  0
   63.7440   31.8040   50.0230 C   0  0  0  0  0  0  0  0  0  0  0  0
   64.0440   31.3520   51.4050 C   0  0  0  0  0  0  0  0  0  0  0  0
   65.4746   33.3142   51.2219 H   0  0  0  0  0  0  0  0  0  0  0  0
   66.5728   32.8907   49.8650 H   0  0  0  0  0  0  0  0  0  0  0  0
   65.7117   34.4671   49.8650 H   0  0  0  0  0  0  0  0  0  0  0  0
   64.7207   33.9042   47.6161 H   0  0  0  0  0  0  0  0  0  0  0  0
   62.8517   32.8845   46.4274 H   0  0  0  0  0  0  0  0  0  0  0  0
   60.9140   31.1370   46.5540 H   0  0  0  0  0  0  0  0  0  0  0  0
   59.4460   25.9925   47.1071 H   0  0  0  0  0  0  0  0  0  0  0  0
   57.9631   27.0369   47.1770 H   0  0  0  0  0  0  0  0  0  0  0  0
   56.5450   27.6150   44.6260 H   0  0  0  0  0  0  0  0  0  0  0  0
   58.7494   32.8437   44.0678 H   0  0  0  0  0  0  0  0  0  0  0  0
   57.0938   33.2314   44.6463 H   0  0  0  0  0  0  0  0  0  0  0  0
   57.3598   31.5720   47.2949 H   0  0  0  0  0  0  0  0  0  0  0  0
   58.3434   32.1887   49.4862 H   0  0  0  0  0  0  0  0  0  0  0  0
   60.0928   33.9429   49.5671 H   0  0  0  0  0  0  0  0  0  0  0  0
   60.8621   35.0913   47.4952 H   0  0  0  0  0  0  0  0  0  0  0  0
   59.8466   34.4397   45.3269 H   0  0  0  0  0  0  0  0  0  0  0  0
   60.4020   29.8610   45.9650 H   0  0  0  0  0  0  0  0  0  0  0  0
   63.5842   32.0447   52.1253 H   0  0  0  0  0  0  0  0  0  0  0  0
   63.6367   30.3415   51.5568 H   0  0  0  0  0  0  0  0  0  0  0  0
   65.1333   31.3349   51.5568 H   0  0  0  0  0  0  0  0  0  0  0  0
  1  2  1  0
  2  3  2  0
  3  4  1  0
  4  5  2  0
  5  6  1  0
  6  7  1  0
  7  8  2  0
  8  9  1  0
  9 10  2  0
  9 11  1  0
 11 12  1  0
 12 13  1  0
 13 14  1  0
 14 15  1  0
 15 16  2  0
 15 17  1  0
 17 18  2  0
 18 19  1  0
 19 20  1  0
 20 21  2  0
 21 22  1  0
 22 23  2  0
 23 24  1  0
 24 25  2  0
 18 26  1  0
 26 27  1  0
  7 28  1  0
 28 29  1  0
 29 30  2  0
 30 31  1  0
 30  2  1  0
 29  5  1  0
 26 13  2  0
 25 20  1  0
  1 32  1  0
  1 33  1  0
  1 34  1  0
  3 35  1  0
  4 36  1  0
  6 37  1  0
 11 38  1  0
 11 39  1  0
 14 40  1  0
 19 41  1  0
 19 42  1  0
 21 43  1  0
 22 44  1  0
 23 45  1  0
 24 46  1  0
 25 47  1  0
 27 48  1  0
 31 49  1  0
 31 50  1  0
 31 51  1  0
M  END
>  <smiles>  (20) 
Cc1ccc2[nH]c(=NC(=O)CSc3[nH]c(=O)nc(Cc4ccccc4)c3O)sc2c1C

>  <score_type>  (20) 
oracle

>  <origin>  (20) 
adg

>  <m_score__min__energy>  (20) 
-9.4900000000000002

>  <m_primary>  (20) 
energy

$$$$
20:0
     RDKit          3D

 47 51  0  0  0  0  0  0  0  0999 V2000
   61.9000   31.4730   48.5230 H   0  0  0  0  0  0  0  0  0  0  0  0
   62.1130   32.1300   47.7820 O   0  0  0  0  0  0  0  0  0  0  0  0
   61.1030   32.7980   47.0930 C   0  0  0  0  0  0  0  0  0  0  0  0
   61.0560   34.2100   47.1220 C   0  0  0  0  0  0  0  0  0  0  0  0
   61.8085   34.7689   47.6976 H   0  0  0  0  0  0  0  0  0  0  0  0
   60.0550   34.9070   46.4210 C   0  0  0  0  0  0  0  0  0  0  0  0
   60.0186   36.0064   46.4284 H   0  0  0  0  0  0  0  0  0  0  0  0
   59.1110   34.1620   45.7170 C   0  0  0  0  0  0  0  0  0  0  0  0
   59.1400   32.7900   45.7030 C   0  0  0  0  0  0  0  0  0  0  0  0
   60.1370   32.0730   46.3660 C   0  0  0  0  0  0  0  0  0  0  0  0
   60.1682   30.9743   46.3226 H   0  0  0  0  0  0  0  0  0  0  0  0
   58.0850   32.3790   44.9050 C   0  0  0  0  0  0  0  0  0  0  0  0
   57.7120   31.0070   44.5110 C   0  0  0  0  0  0  0  0  0  0  0  0
   57.7065   30.7615   43.4388 H   0  0  0  0  0  0  0  0  0  0  0  0
   57.3890   30.0690   45.3540 N   0  0  0  0  0  0  0  0  0  0  0  0
   58.0960   29.7010   46.5520 C   0  0  0  0  0  0  0  0  0  0  0  0
   58.1670   30.5910   47.5760 N   0  0  0  0  0  0  0  0  0  0  0  0
   58.8260   30.3200   48.7210 C   0  0  0  0  0  0  0  0  0  0  0  0
   58.8560   31.1890   49.6330 O   0  0  0  0  0  0  0  0  0  0  0  0
   59.4730   29.0900   48.8730 C   0  0  0  0  0  0  0  0  0  0  0  0
   60.1980   28.7890   50.0410 C   0  0  0  0  0  0  0  0  0  0  0  0
   60.2437   29.5217   50.8602 H   0  0  0  0  0  0  0  0  0  0  0  0
   60.8580   27.5690   50.1660 C   0  0  0  0  0  0  0  0  0  0  0  0
   61.4192   27.3391   51.0837 H   0  0  0  0  0  0  0  0  0  0  0  0
   60.8080   26.6410   49.1310 C   0  0  0  0  0  0  0  0  0  0  0  0
   61.3372   25.6818   49.2301 H   0  0  0  0  0  0  0  0  0  0  0  0
   60.0890   26.9210   47.9660 C   0  0  0  0  0  0  0  0  0  0  0  0
   60.0619   26.1784   47.1549 H   0  0  0  0  0  0  0  0  0  0  0  0
   59.3940   28.1470   47.8130 C   0  0  0  0  0  0  0  0  0  0  0  0
   58.6630   28.4520   46.6760 N   0  0  0  0  0  0  0  0  0  0  0  0
   58.5280   27.5010   45.5490 C   0  0  0  0  0  0  0  0  0  0  0  0
   59.3720   26.7958   45.5661 H   0  0  0  0  0  0  0  0  0  0  0  0
   58.5265   28.0638   44.6039 H   0  0  0  0  0  0  0  0  0  0  0  0
   57.2440   26.7380   45.6640 C   0  0  0  0  0  0  0  0  0  0  0  0
   56.0310   27.3120   45.7880 N   0  0  0  0  0  0  0  0  0  0  0  0
   55.1360   26.3560   45.9840 N   0  0  0  0  0  0  0  0  0  0  0  0
   55.7780   25.1730   45.9830 C   0  0  0  0  0  0  0  0  0  0  0  0
   55.1210   23.8680   46.2850 C   0  0  0  0  0  0  0  0  0  0  0  0
   55.0539   23.7348   47.3748 H   0  0  0  0  0  0  0  0  0  0  0  0
   54.1101   23.8574   45.8514 H   0  0  0  0  0  0  0  0  0  0  0  0
   55.7145   23.0496   45.8514 H   0  0  0  0  0  0  0  0  0  0  0  0
   57.1280   25.3710   45.7980 C   0  0  0  0  0  0  0  0  0  0  0  0
   57.9267   24.6154   45.7649 H   0  0  0  0  0  0  0  0  0  0  0  0
   57.4880   33.5440   44.4410 C   0  0  0  0  0  0  0  0  0  0  0  0
   56.6302   33.5784   43.7532 H   0  0  0  0  0  0  0  0  0  0  0  0
   58.1100   34.6310   44.9540 N   0  0  0  0  0  0  0  0  0  0  0  0
   57.8710   35.6310   44.7720 H   0  0  0  0  0  0  0  0  0  0  0  0
  1  2  1  0
  2  3  1  0
  3  4  2  0
  4  5  1  0
  4  6  1  0
  6  7  1  0
  6  8  2  0
  8  9  1  0
  9 10  2  0
 10 11  1  0
  9 12  1  0
 12 13  1  0
 13 14  1  0
 13 15  2  0
 15 16  1  0
 16 17  2  0
 17 18  1  0
 18 19  2  0
 18 20  1  0
 20 21  2  0
 21 22  1  0
 21 23  1  0
 23 24  1  0
 23 25  2  0
 25 26  1  0
 25 27  1  0
 27 28  1  0
 27 29  2  0
 29 30  1  0
 30 31  1  0
 31 32  1  0
 31 33  1  0
 31 34  1  0
 34 35  2  0
 35 36  1  0
 36 37  1  0
 37 38  1  0
 38 39  1  0
 38 40  1  0
 38 41  1  0
 37 42  2  0
 42 43  1  0
 12 44  2  0
 44 45  1  0
 44 46  1  0
 46 47  1  0
 10  3  1  0
 30 16  1  0
 42 34  1  0
 46  8  1  0
 29 20  1  0
M  CHG  1  36  -1
M  END
>  <UniqueID>  (21) 
19

>  <SMILES>  (21) 
Cc1cc(Cn2c(/N=C\c3c[nH]c4ccc(O)cc34)nc(=O)c3ccccc32)n[n-]1

>  <Energy>  (21) 
130.89998949515163

>  <Genealogy>  (21) 
Cc1cc(Cn2c(N=Cc3c[nH]c4ccc(O)cc34)nc(=O)c3ccccc32)n[n-]1 (protonated)
Cc1cc(Cn2c(/N=C\c3c[nH]c4ccc(O)cc34)nc(=O)c3ccccc32)n[n-]1 (cis-trans isomerization)
Cc1cc(Cn2c(/N=C\c3c[nH]c4ccc(O)cc34)nc(=O)c3ccccc32)n[n-]1 (3D coordinates assigned)
Cc1cc(Cn2c(/N=C\c3c[nH]c4ccc(O)cc34)nc(=O)c3ccccc32)n[n-]1 (optimized conformer: 130.89998949515163 kcal/mol)

>  <smiles>  (21) 
Cc1cc(Cn2c(N=Cc3c[nH]c4ccc(O)cc34)nc(=O)c3ccccc32)n[nH]1

>  <score_type>  (21) 
oracle

>  <origin>  (21) 
adg

>  <m_score__min__energy>  (21) 
-10.85

>  <m_primary>  (21) 
energy

$$$$
21:0
     RDKit          3D

 49 52  0  0  0  0  0  0  0  0999 V2000
   60.3160   29.2510   49.9070 O   0  0  0  0  0  0  0  0  0  0  0  0
   59.6380   29.5720   48.8930 C   0  0  0  0  0  0  0  0  0  0  0  0
   59.1950   30.9300   48.7350 N   0  0  0  0  0  0  0  0  0  0  0  0
   58.9530   31.8330   49.8290 C   0  0  0  0  0  0  0  0  0  0  0  0
   59.6340   33.0530   49.9600 C   0  0  0  0  0  0  0  0  0  0  0  0
   59.4020   33.8490   51.0350 N   0  0  0  0  0  0  0  0  0  0  0  0
   58.5180   33.4830   51.9990 C   0  0  0  0  0  0  0  0  0  0  0  0
   58.3190   34.2350   52.9870 O   0  0  0  0  0  0  0  0  0  0  0  0
   57.8550   32.3010   51.9010 N   0  0  0  0  0  0  0  0  0  0  0  0
   58.0580   31.4730   50.8450 C   0  0  0  0  0  0  0  0  0  0  0  0
   59.3420   28.5490   47.8590 C   0  0  0  0  0  0  0  0  0  0  0  0
   60.0140   27.3140   47.8740 C   0  0  0  0  0  0  0  0  0  0  0  0
   59.7360   26.3450   46.9060 C   0  0  0  0  0  0  0  0  0  0  0  0
   58.7810   26.5920   45.9190 C   0  0  0  0  0  0  0  0  0  0  0  0
   58.0810   27.8100   45.9020 C   0  0  0  0  0  0  0  0  0  0  0  0
   57.1110   28.1110   44.8890 N   0  0  0  0  0  0  0  0  0  0  0  0
   56.3980   29.3450   44.7410 C   0  0  0  0  0  0  0  0  0  0  0  0
   55.1410   29.3450   44.6480 O   0  0  0  0  0  0  0  0  0  0  0  0
   57.1400   30.6180   44.7570 C   0  0  0  0  0  0  0  0  0  0  0  0
   57.5580   31.2340   43.5670 C   0  0  0  0  0  0  0  0  0  0  0  0
   58.2680   32.4350   43.6260 C   0  0  0  0  0  0  0  0  0  0  0  0
   58.5650   33.0160   44.8700 C   0  0  0  0  0  0  0  0  0  0  0  0
   59.2860   34.2130   44.9950 O   0  0  0  0  0  0  0  0  0  0  0  0
   59.8900   34.6640   46.2060 C   0  0  0  0  0  0  0  0  0  0  0  0
   61.0300   33.7630   46.5620 C   0  0  0  0  0  0  0  0  0  0  0  0
   62.3560   34.1960   46.4110 C   0  0  0  0  0  0  0  0  0  0  0  0
   63.4000   33.3360   46.7620 C   0  0  0  0  0  0  0  0  0  0  0  0
   63.1140   32.0630   47.2560 C   0  0  0  0  0  0  0  0  0  0  0  0
   61.7810   31.6660   47.3930 C   0  0  0  0  0  0  0  0  0  0  0  0
   60.7780   32.5160   47.0470 N   0  0  0  0  0  0  0  0  0  0  0  0
   58.1250   32.3720   46.0290 C   0  0  0  0  0  0  0  0  0  0  0  0
   57.4340   31.2050   45.9480 N   0  0  0  0  0  0  0  0  0  0  0  0
   58.3760   28.7860   46.8620 C   0  0  0  0  0  0  0  0  0  0  0  0
   59.1130   31.3080   47.7620 H   0  0  0  0  0  0  0  0  0  0  0  0
   60.3563   33.3646   49.1911 H   0  0  0  0  0  0  0  0  0  0  0  0
   57.5182   30.5163   50.7866 H   0  0  0  0  0  0  0  0  0  0  0  0
   60.7634   27.1092   48.6527 H   0  0  0  0  0  0  0  0  0  0  0  0
   60.2718   25.3844   46.9222 H   0  0  0  0  0  0  0  0  0  0  0  0
   58.5756   25.8308   45.1520 H   0  0  0  0  0  0  0  0  0  0  0  0
   57.3279   30.7739   42.5947 H   0  0  0  0  0  0  0  0  0  0  0  0
   58.5949   32.9264   42.6978 H   0  0  0  0  0  0  0  0  0  0  0  0
   60.2626   35.6900   46.0697 H   0  0  0  0  0  0  0  0  0  0  0  0
   59.1446   34.6483   47.0148 H   0  0  0  0  0  0  0  0  0  0  0  0
   62.5714   35.2015   46.0205 H   0  0  0  0  0  0  0  0  0  0  0  0
   64.4445   33.6619   46.6491 H   0  0  0  0  0  0  0  0  0  0  0  0
   63.9291   31.3789   47.5347 H   0  0  0  0  0  0  0  0  0  0  0  0
   61.5431   30.6647   47.7812 H   0  0  0  0  0  0  0  0  0  0  0  0
   58.3394   32.8127   47.0138 H   0  0  0  0  0  0  0  0  0  0  0  0
   57.8465   29.7499   46.8370 H   0  0  0  0  0  0  0  0  0  0  0  0
  1  2  2  0
  2  3  1  0
  3  4  1  0
  4  5  1  0
  5  6  2  0
  6  7  1  0
  7  8  2  0
  7  9  1  0
  9 10  1  0
  2 11  1  0
 11 12  2  0
 12 13  1  0
 13 14  2  0
 14 15  1  0
 15 16  1  0
 16 17  1  0
 17 18  2  0
 17 19  1  0
 19 20  2  0
 20 21  1  0
 21 22  2  0
 22 23  1  0
 23 24  1  0
 24 25  1  0
 25 26  2  0
 26 27  1  0
 27 28  2  0
 28 29  1  0
 29 30  2  0
 22 31  1  0
 31 32  2  0
 15 33  2  0
 10  4  2  0
 33 11  1  0
 32 19  1  0
 30 25  1  0
  3 34  1  0
  5 35  1  0
 10 36  1  0
 12 37  1  0
 13 38  1  0
 14 39  1  0
 20 40  1  0
 21 41  1  0
 24 42  1  0
 24 43  1  0
 26 44  1  0
 27 45  1  0
 28 46  1  0
 29 47  1  0
 31 48  1  0
 33 49  1  0
M  CHG  2   9  -1  16  -1
M  END
>  <UniqueID>  (22) 
20

>  <SMILES>  (22) 
O=C(Nc1cnc(=O)[n-]c1)c1cccc([N-]C(=O)c2ccc(OCc3ccccn3)cn2)c1

>  <Energy>  (22) 
64.71523035485096

>  <Genealogy>  (22) 
O=C(Nc1cnc(=O)[n-]c1)c1cccc([N-]C(=O)c2ccc(OCc3ccccn3)cn2)c1 (protonated)
O=C(Nc1cnc(=O)[n-]c1)c1cccc([N-]C(=O)c2ccc(OCc3ccccn3)cn2)c1 (3D coordinates assigned)
O=C(Nc1cnc(=O)[n-]c1)c1cccc([N-]C(=O)c2ccc(OCc3ccccn3)cn2)c1 (optimized conformer: 64.71523035485096 kcal/mol)

>  <smiles>  (22) 
O=C(Nc1cnc(=O)[nH]c1)c1cccc(NC(=O)c2ccc(OCc3ccccn3)cn2)c1

>  <score_type>  (22) 
oracle

>  <origin>  (22) 
adg

>  <m_score__min__energy>  (22) 
-12.199999999999999

>  <m_primary>  (22) 
energy

$$$$
22:0
     RDKit          3D

 48 50  0  0  0  0  0  0  0  0999 V2000
   54.5390   25.1570   45.6000 O   0  0  0  0  0  0  0  0  0  0  0  0
   55.6930   25.6550   45.6860 C   0  0  0  0  0  0  0  0  0  0  0  0
   56.8970   24.7490   45.7050 C   0  0  0  0  0  0  0  0  0  0  0  0
   57.7340   24.8830   46.9850 C   0  0  0  0  0  0  0  0  0  0  0  0
   58.1200   26.2750   47.2120 N   0  0  0  0  0  0  0  0  0  0  0  0
   59.4640   26.7520   47.0210 C   0  0  0  0  0  0  0  0  0  0  0  0
   60.3700   25.9350   46.7070 O   0  0  0  0  0  0  0  0  0  0  0  0
   59.8070   28.1930   47.1620 C   0  0  0  0  0  0  0  0  0  0  0  0
   60.7120   28.7850   46.2610 C   0  0  0  0  0  0  0  0  0  0  0  0
   61.0630   30.1310   46.3850 C   0  0  0  0  0  0  0  0  0  0  0  0
   60.5200   30.9070   47.4090 C   0  0  0  0  0  0  0  0  0  0  0  0
   59.6170   30.3380   48.3140 C   0  0  0  0  0  0  0  0  0  0  0  0
   58.9350   31.2960   49.6270 S   0  0  0  0  0  0  0  0  0  0  0  0
   57.8980   30.4640   50.3260 O   0  0  0  0  0  0  0  0  0  0  0  0
   59.9870   31.6860   50.6280 O   0  0  0  0  0  0  0  0  0  0  0  0
   58.1730   32.7210   48.9940 N   0  0  0  0  0  0  0  0  0  0  0  0
   58.4410   33.3790   47.7440 C   0  0  0  0  0  0  0  0  0  0  0  0
   57.5950   33.0910   46.6620 C   0  0  0  0  0  0  0  0  0  0  0  0
   57.7960   33.6930   45.4170 C   0  0  0  0  0  0  0  0  0  0  0  0
   58.8360   34.6060   45.2420 C   0  0  0  0  0  0  0  0  0  0  0  0
   59.6810   34.9120   46.3120 C   0  0  0  0  0  0  0  0  0  0  0  0
   59.4940   34.3040   47.5610 C   0  0  0  0  0  0  0  0  0  0  0  0
   60.3270   34.6500   48.5680 F   0  0  0  0  0  0  0  0  0  0  0  0
   59.2700   28.9850   48.1940 C   0  0  0  0  0  0  0  0  0  0  0  0
   55.8220   27.0480   46.0050 N   0  0  0  0  0  0  0  0  0  0  0  0
   56.3160   27.9880   45.2500 C   0  0  0  0  0  0  0  0  0  0  0  0
   57.6300   27.9420   44.7450 C   0  0  0  0  0  0  0  0  0  0  0  0
   58.0920   28.9750   43.9280 C   0  0  0  0  0  0  0  0  0  0  0  0
   57.2500   30.0420   43.6120 C   0  0  0  0  0  0  0  0  0  0  0  0
   55.9470   30.0530   44.1140 C   0  0  0  0  0  0  0  0  0  0  0  0
   55.5150   29.0360   44.9080 N   0  0  0  0  0  0  0  0  0  0  0  0
   56.5525   23.7078   45.6198 H   0  0  0  0  0  0  0  0  0  0  0  0
   57.5398   25.0416   44.8617 H   0  0  0  0  0  0  0  0  0  0  0  0
   57.1415   24.5292   47.8416 H   0  0  0  0  0  0  0  0  0  0  0  0
   58.6464   24.2787   46.8735 H   0  0  0  0  0  0  0  0  0  0  0  0
   57.3410   26.9540   47.3600 H   0  0  0  0  0  0  0  0  0  0  0  0
   61.1472   28.1813   45.4510 H   0  0  0  0  0  0  0  0  0  0  0  0
   61.7702   30.5808   45.6726 H   0  0  0  0  0  0  0  0  0  0  0  0
   60.8015   31.9660   47.5051 H   0  0  0  0  0  0  0  0  0  0  0  0
   56.7638   32.3830   46.7955 H   0  0  0  0  0  0  0  0  0  0  0  0
   57.1335   33.4467   44.5742 H   0  0  0  0  0  0  0  0  0  0  0  0
   58.9906   35.0842   44.2635 H   0  0  0  0  0  0  0  0  0  0  0  0
   60.4984   35.6349   46.1732 H   0  0  0  0  0  0  0  0  0  0  0  0
   58.5700   28.5373   48.9148 H   0  0  0  0  0  0  0  0  0  0  0  0
   58.2885   27.0966   44.9931 H   0  0  0  0  0  0  0  0  0  0  0  0
   59.1185   28.9481   43.5337 H   0  0  0  0  0  0  0  0  0  0  0  0
   57.6083   30.8643   42.9753 H   0  0  0  0  0  0  0  0  0  0  0  0
   55.2697   30.8840   43.8675 H   0  0  0  0  0  0  0  0  0  0  0  0
  1  2  2  0
  2  3  1  0
  3  4  1  0
  4  5  1  0
  5  6  1  0
  6  7  2  0
  6  8  1  0
  8  9  2  0
  9 10  1  0
 10 11  2  0
 11 12  1  0
 12 13  1  0
 13 14  2  0
 13 15  2  0
 13 16  1  0
 16 17  1  0
 17 18  2  0
 18 19  1  0
 19 20  2  0
 20 21  1  0
 21 22  2  0
 22 23  1  0
 12 24  2  0
  2 25  1  0
 25 26  2  3
 26 27  1  0
 27 28  2  0
 28 29  1  0
 29 30  2  0
 30 31  1  0
 24  8  1  0
 31 26  1  0
 22 17  1  0
  3 32  1  0
  3 33  1  0
  4 34  1  0
  4 35  1  0
  5 36  1  0
  9 37  1  0
 10 38  1  0
 11 39  1  0
 18 40  1  0
 19 41  1  0
 20 42  1  0
 21 43  1  0
 24 44  1  0
 27 45  1  0
 28 46  1  0
 29 47  1  0
 30 48  1  0
M  CHG  2  16  -1  31  -1
M  END
>  <UniqueID>  (23) 
21

>  <SMILES>  (23) 
O=C(CCNC(=O)c1cccc(S(=O)(=O)[N-]c2ccccc2F)c1)N=c1cccc[n-]1

>  <Energy>  (23) 
62.97560352683261

>  <Genealogy>  (23) 
O=C(CCNC(=O)c1cccc(S(=O)(=O)[N-]c2ccccc2F)c1)N=c1cccc[n-]1 (protonated)
O=C(CCNC(=O)c1cccc(S(=O)(=O)[N-]c2ccccc2F)c1)N=c1cccc[n-]1 (3D coordinates assigned)
O=C(CCNC(=O)c1cccc(S(=O)(=O)[N-]c2ccccc2F)c1)N=c1cccc[n-]1 (optimized conformer: 62.97560352683261 kcal/mol)

>  <smiles>  (23) 
O=C(CCNC(=O)c1cccc(S(=O)(=O)Nc2ccccc2F)c1)N=c1cccc[nH]1

>  <score_type>  (23) 
oracle

>  <origin>  (23) 
adg

>  <m_score__min__energy>  (23) 
-11.42

>  <m_primary>  (23) 
energy

$$$$
23:0
     RDKit          3D

 56 59  0  0  0  0  0  0  0  0999 V2000
   62.6460   30.5090   50.6060 H   0  0  0  0  0  0  0  0  0  0  0  0
   63.3660   30.7670   49.9730 O   0  0  0  0  0  0  0  0  0  0  0  0
   62.6010   31.7380   48.8370 S   0  0  0  0  0  0  0  0  0  0  0  0
   62.3250   33.3720   49.4380 C   0  0  0  0  0  0  0  0  0  0  0  0
   63.1810   33.9213   49.8571 H   0  0  0  0  0  0  0  0  0  0  0  0
   61.1330   33.9840   49.4140 C   0  0  0  0  0  0  0  0  0  0  0  0
   60.8096   34.5307   50.3121 H   0  0  0  0  0  0  0  0  0  0  0  0
   60.2340   33.9630   48.2490 C   0  0  0  0  0  0  0  0  0  0  0  0
   60.6130   34.5590   47.0350 C   0  0  0  0  0  0  0  0  0  0  0  0
   61.5904   35.0566   46.9503 H   0  0  0  0  0  0  0  0  0  0  0  0
   59.7510   34.5220   45.9320 C   0  0  0  0  0  0  0  0  0  0  0  0
   60.0510   34.9959   44.9857 H   0  0  0  0  0  0  0  0  0  0  0  0
   58.5030   33.8810   46.0300 C   0  0  0  0  0  0  0  0  0  0  0  0
   57.6020   33.8010   44.8540 C   0  0  0  0  0  0  0  0  0  0  0  0
   56.6370   34.6040   44.7500 O   0  0  0  0  0  0  0  0  0  0  0  0
   57.7760   32.7910   43.8450 N   0  0  0  0  0  0  0  0  0  0  0  0
   57.5940   31.5170   44.0390 C   0  0  0  0  0  0  0  0  0  0  0  0
   56.5540   30.8610   43.4490 N   0  0  0  0  0  0  0  0  0  0  0  0
   56.3290   29.5380   43.6520 C   0  0  0  0  0  0  0  0  0  0  0  0
   55.4746   29.0450   43.1653 H   0  0  0  0  0  0  0  0  0  0  0  0
   57.1800   28.8030   44.4770 C   0  0  0  0  0  0  0  0  0  0  0  0
   56.9922   27.7340   44.6558 H   0  0  0  0  0  0  0  0  0  0  0  0
   58.2720   29.4350   45.0740 C   0  0  0  0  0  0  0  0  0  0  0  0
   59.1340   28.6780   45.8770 O   0  0  0  0  0  0  0  0  0  0  0  0
   59.4520   28.9620   47.2160 C   0  0  0  0  0  0  0  0  0  0  0  0
   60.4000   28.1580   47.8630 C   0  0  0  0  0  0  0  0  0  0  0  0
   60.8463   27.3049   47.3310 H   0  0  0  0  0  0  0  0  0  0  0  0
   60.7830   28.4320   49.1800 C   0  0  0  0  0  0  0  0  0  0  0  0
   61.5120   27.7812   49.6850 H   0  0  0  0  0  0  0  0  0  0  0  0
   60.2420   29.5320   49.8590 C   0  0  0  0  0  0  0  0  0  0  0  0
   60.6760   29.8000   51.1990 N   0  0  0  0  0  0  0  0  0  0  0  0
   60.6760   31.0820   51.8380 C   0  0  0  0  0  0  0  0  0  0  0  0
   61.7780   31.6540   52.0470 O   0  0  0  0  0  0  0  0  0  0  0  0
   59.4290   31.7260   52.1600 N   0  0  0  0  0  0  0  0  0  0  0  0
   58.2260   31.2240   52.1300 C   0  0  0  0  0  0  0  0  0  0  0  0
   57.0150   31.8910   52.2550 C   0  0  0  0  0  0  0  0  0  0  0  0
   56.8419   32.9682   52.3953 H   0  0  0  0  0  0  0  0  0  0  0  0
   56.0770   30.8770   52.1610 C   0  0  0  0  0  0  0  0  0  0  0  0
   54.9858   31.0088   52.2046 H   0  0  0  0  0  0  0  0  0  0  0  0
   56.7040   29.7300   52.0110 O   0  0  0  0  0  0  0  0  0  0  0  0
   57.9930   29.9090   51.9940 N   0  0  0  0  0  0  0  0  0  0  0  0
   58.7020   29.1510   51.8590 H   0  0  0  0  0  0  0  0  0  0  0  0
   59.2760   30.3290   49.2210 C   0  0  0  0  0  0  0  0  0  0  0  0
   58.8186   31.1718   49.7599 H   0  0  0  0  0  0  0  0  0  0  0  0
   58.8940   30.0550   47.9040 C   0  0  0  0  0  0  0  0  0  0  0  0
   58.1539   30.6969   47.4037 H   0  0  0  0  0  0  0  0  0  0  0  0
   58.4620   30.8120   44.8810 C   0  0  0  0  0  0  0  0  0  0  0  0
   59.2872   31.3336   45.3878 H   0  0  0  0  0  0  0  0  0  0  0  0
   58.1130   33.3170   47.2590 C   0  0  0  0  0  0  0  0  0  0  0  0
   57.1293   32.8334   47.3514 H   0  0  0  0  0  0  0  0  0  0  0  0
   58.9690   33.3680   48.3630 C   0  0  0  0  0  0  0  0  0  0  0  0
   58.6493   32.9400   49.3246 H   0  0  0  0  0  0  0  0  0  0  0  0
   63.4320   31.6950   47.2610 C   0  0  0  0  0  0  0  0  0  0  0  0
   64.5188   31.6388   47.4210 H   0  0  0  0  0  0  0  0  0  0  0  0
   63.0986   30.8129   46.6946 H   0  0  0  0  0  0  0  0  0  0  0  0
   63.1914   32.6068   46.6946 H   0  0  0  0  0  0  0  0  0  0  0  0
  1  2  1  0
  3  2  1  1
  3  4  1  0
  4  5  1  0
  4  6  2  3
  6  7  1  0
  6  8  1  0
  8  9  2  0
  9 10  1  0
  9 11  1  0
 11 12  1  0
 11 13  2  0
 13 14  1  0
 14 15  2  0
 14 16  1  0
 16 17  2  0
 17 18  1  0
 18 19  1  0
 19 20  1  0
 19 21  2  0
 21 22  1  0
 21 23  1  0
 23 24  1  0
 24 25  1  0
 25 26  2  0
 26 27  1  0
 26 28  1  0
 28 29  1  0
 28 30  2  0
 30 31  1  0
 31 32  1  0
 32 33  2  0
 32 34  1  0
 34 35  2  3
 35 36  1  0
 36 37  1  0
 36 38  2  0
 38 39  1  0
 38 40  1  0
 40 41  1  0
 41 42  1  0
 30 43  1  0
 43 44  1  0
 43 45  2  0
 45 46  1  0
 23 47  2  0
 47 48  1  0
 13 49  1  0
 49 50  1  0
 49 51  2  0
 51 52  1  0
  3 53  1  0
 53 54  1  0
 53 55  1  0
 53 56  1  0
 51  8  1  0
 47 17  1  0
 45 25  1  0
 41 35  1  0
M  CHG  3   3   1  18  -1  31  -1
M  END
>  <UniqueID>  (24) 
22

>  <SMILES>  (24) 
C[S@@+](O)C=Cc1ccc(C(=O)/N=c2/cc(Oc3ccc([N-]C(=O)N=c4cco[nH]4)cc3)cc[n-]2)cc1

>  <Energy>  (24) 
116.98600275174252

>  <Genealogy>  (24) 
C[S+](O)C=Cc1ccc(C(=O)N=c2cc(Oc3ccc([N-]C(=O)N=c4cco[nH]4)cc3)cc[n-]2)cc1 (protonated)
C[S@@+](O)C=Cc1ccc(C(=O)N=c2cc(Oc3ccc([N-]C(=O)N=c4cco[nH]4)cc3)cc[n-]2)cc1 (chirality)
C[S@@+](O)C=Cc1ccc(C(=O)/N=c2/cc(Oc3ccc([N-]C(=O)N=c4cco[nH]4)cc3)cc[n-]2)cc1 (cis-trans isomerization)
C[S@@+](O)C=Cc1ccc(C(=O)/N=c2/cc(Oc3ccc([N-]C(=O)N=c4cco[nH]4)cc3)cc[n-]2)cc1 (3D coordinates assigned)
C[S@@+](O)C=Cc1ccc(C(=O)/N=c2/cc(Oc3ccc([N-]C(=O)N=c4cco[nH]4)cc3)cc[n-]2)cc1 (optimized conformer: 116.98600275174252 kcal/mol)

>  <smiles>  (24) 
C[S+]([O-])C=Cc1ccc(C(=O)N=c2cc(Oc3ccc(NC(=O)N=c4cco[nH]4)cc3)cc[nH]2)cc1

>  <score_type>  (24) 
oracle

>  <origin>  (24) 
adg

>  <m_score__min__energy>  (24) 
-9.8399999999999999

>  <m_primary>  (24) 
energy

$$$$
24:0
     RDKit          3D

 62 65  0  0  0  0  0  0  0  0999 V2000
   58.4200   29.7020   44.1570 C   0  0  0  0  0  0  0  0  0  0  0  0
   57.1850   29.5100   45.0420 C   0  0  0  0  0  0  0  0  0  0  0  0
   55.9170   30.0460   44.3710 C   0  0  0  0  0  0  0  0  0  0  0  0
   57.0650   28.0780   45.5150 C   0  0  0  0  0  0  0  0  0  0  0  0
   55.8630   27.4800   45.6250 N   0  0  0  0  0  0  0  0  0  0  0  0
   56.1460   26.2590   46.1130 C   0  0  0  0  0  0  0  0  0  0  0  0
   55.2570   25.3970   46.3480 O   0  0  0  0  0  0  0  0  0  0  0  0
   57.4540   26.0360   46.3350 N   0  0  0  0  0  0  0  0  0  0  0  0
   58.0450   27.1880   45.9600 C   0  0  0  0  0  0  0  0  0  0  0  0
   59.5340   27.3850   46.0750 C   0  0  0  0  0  0  0  0  0  0  0  0
   59.8890   28.4830   47.0460 C   0  0  0  0  0  0  0  0  0  0  0  0
   60.2550   29.7560   46.5770 C   0  0  0  0  0  0  0  0  0  0  0  0
   60.5200   30.7910   47.4760 C   0  0  0  0  0  0  0  0  0  0  0  0
   60.4570   30.5620   48.8620 C   0  0  0  0  0  0  0  0  0  0  0  0
   60.6500   31.7070   49.8340 C   0  0  0  0  0  0  0  0  0  0  0  0
   59.4430   32.5700   49.9280 N   0  0  0  0  0  0  0  0  0  0  0  0
   59.0060   32.7390   51.3470 C   0  0  0  0  0  0  0  0  0  0  0  0
   58.0560   31.6700   51.8600 C   0  0  0  0  0  0  0  0  0  0  0  0
   56.6850   31.9400   52.0330 C   0  0  0  0  0  0  0  0  0  0  0  0
   55.8180   30.9360   52.4780 C   0  0  0  0  0  0  0  0  0  0  0  0
   56.3150   29.6630   52.7830 C   0  0  0  0  0  0  0  0  0  0  0  0
   57.6780   29.3930   52.6420 C   0  0  0  0  0  0  0  0  0  0  0  0
   58.5450   30.3920   52.1880 C   0  0  0  0  0  0  0  0  0  0  0  0
   59.6500   33.8500   49.1920 C   0  0  0  0  0  0  0  0  0  0  0  0
   59.0790   33.8650   47.7850 C   0  0  0  0  0  0  0  0  0  0  0  0
   59.7420   34.6100   46.7900 C   0  0  0  0  0  0  0  0  0  0  0  0
   59.2630   34.6220   45.4760 C   0  0  0  0  0  0  0  0  0  0  0  0
   58.1270   33.8820   45.1350 C   0  0  0  0  0  0  0  0  0  0  0  0
   57.4800   33.1090   46.1040 C   0  0  0  0  0  0  0  0  0  0  0  0
   57.9620   33.0820   47.4180 C   0  0  0  0  0  0  0  0  0  0  0  0
   60.1670   29.2720   49.3310 C   0  0  0  0  0  0  0  0  0  0  0  0
   59.8840   28.2410   48.4320 C   0  0  0  0  0  0  0  0  0  0  0  0
   59.3079   29.8400   44.7915 H   0  0  0  0  0  0  0  0  0  0  0  0
   58.5576   28.8145   43.5219 H   0  0  0  0  0  0  0  0  0  0  0  0
   58.2816   30.5894   43.5219 H   0  0  0  0  0  0  0  0  0  0  0  0
   57.3151   30.1179   45.9495 H   0  0  0  0  0  0  0  0  0  0  0  0
   55.1949   30.3513   45.1426 H   0  0  0  0  0  0  0  0  0  0  0  0
   56.1724   30.9131   43.7442 H   0  0  0  0  0  0  0  0  0  0  0  0
   55.4730   29.2586   43.7442 H   0  0  0  0  0  0  0  0  0  0  0  0
   59.9902   26.4455   46.4201 H   0  0  0  0  0  0  0  0  0  0  0  0
   59.9144   27.6738   45.0841 H   0  0  0  0  0  0  0  0  0  0  0  0
   60.3332   29.9383   45.4950 H   0  0  0  0  0  0  0  0  0  0  0  0
   60.7794   31.7909   47.0980 H   0  0  0  0  0  0  0  0  0  0  0  0
   60.8692   31.2940   50.8297 H   0  0  0  0  0  0  0  0  0  0  0  0
   61.4817   32.3264   49.4671 H   0  0  0  0  0  0  0  0  0  0  0  0
   58.6760   32.0460   49.4490 H   0  0  0  0  0  0  0  0  0  0  0  0
   59.9033   32.7313   51.9832 H   0  0  0  0  0  0  0  0  0  0  0  0
   58.4500   33.6873   51.3856 H   0  0  0  0  0  0  0  0  0  0  0  0
   56.2936   32.9451   51.8173 H   0  0  0  0  0  0  0  0  0  0  0  0
   54.7441   31.1471   52.5884 H   0  0  0  0  0  0  0  0  0  0  0  0
   55.6318   28.8754   53.1337 H   0  0  0  0  0  0  0  0  0  0  0  0
   58.0695   28.3949   52.8880 H   0  0  0  0  0  0  0  0  0  0  0  0
   59.6189   30.1768   52.0864 H   0  0  0  0  0  0  0  0  0  0  0  0
   59.1720   34.6577   49.7657 H   0  0  0  0  0  0  0  0  0  0  0  0
   60.7374   33.9810   49.0905 H   0  0  0  0  0  0  0  0  0  0  0  0
   60.6427   35.1863   47.0483 H   0  0  0  0  0  0  0  0  0  0  0  0
   59.7816   35.2154   44.7086 H   0  0  0  0  0  0  0  0  0  0  0  0
   57.7423   33.9078   44.1048 H   0  0  0  0  0  0  0  0  0  0  0  0
   56.5906   32.5210   45.8333 H   0  0  0  0  0  0  0  0  0  0  0  0
   57.4683   32.4476   48.1688 H   0  0  0  0  0  0  0  0  0  0  0  0
   60.1624   29.0713   50.4125 H   0  0  0  0  0  0  0  0  0  0  0  0
   59.6558   27.2335   48.8101 H   0  0  0  0  0  0  0  0  0  0  0  0
  1  2  1  0
  2  3  1  0
  2  4  1  0
  4  5  1  0
  5  6  1  0
  6  7  2  0
  6  8  1  0
  8  9  1  0
  9 10  1  0
 10 11  1  0
 11 12  2  0
 12 13  1  0
 13 14  2  0
 14 15  1  0
 15 16  1  0
 16 17  1  0
 17 18  1  0
 18 19  2  0
 19 20  1  0
 20 21  2  0
 21 22  1  0
 22 23  2  0
 16 24  1  0
 24 25  1  0
 25 26  2  0
 26 27  1  0
 27 28  2  0
 28 29  1  0
 29 30  2  0
 14 31  1  0
 31 32  2  0
  9  4  2  0
 32 11  1  0
 23 18  1  0
 30 25  1  0
  1 33  1  0
  1 34  1  0
  1 35  1  0
  2 36  1  0
  3 37  1  0
  3 38  1  0
  3 39  1  0
 10 40  1  0
 10 41  1  0
 12 42  1  0
 13 43  1  0
 15 44  1  0
 15 45  1  0
 16 46  1  0
 17 47  1  0
 17 48  1  0
 19 49  1  0
 20 50  1  0
 21 51  1  0
 22 52  1  0
 23 53  1  0
 24 54  1  0
 24 55  1  0
 26 56  1  0
 27 57  1  0
 28 58  1  0
 29 59  1  0
 30 60  1  0
 31 61  1  0
 32 62  1  0
M  CHG  3   5  -1   8  -1  16   1
M  END
>  <UniqueID>  (25) 
23

>  <SMILES>  (25) 
CC(C)c1[n-]c(=O)[n-]c1Cc1ccc(C[NH+](Cc2ccccc2)Cc2ccccc2)cc1

>  <Energy>  (25) 
99.20903762662279

>  <Genealogy>  (25) 
CC(C)c1[n-]c(=O)[n-]c1Cc1ccc(C[NH+](Cc2ccccc2)Cc2ccccc2)cc1 (protonated)
CC(C)c1[n-]c(=O)[n-]c1Cc1ccc(C[NH+](Cc2ccccc2)Cc2ccccc2)cc1 (3D coordinates assigned)
CC(C)c1[n-]c(=O)[n-]c1Cc1ccc(C[NH+](Cc2ccccc2)Cc2ccccc2)cc1 (optimized conformer: 99.20903762662279 kcal/mol)

>  <smiles>  (25) 
CC(C)c1[nH]c(=O)[nH]c1Cc1ccc(CN(Cc2ccccc2)Cc2ccccc2)cc1

>  <score_type>  (25) 
oracle

>  <origin>  (25) 
adg

>  <m_score__min__energy>  (25) 
-12.6

>  <m_primary>  (25) 
energy

$$$$
25:0
     RDKit          3D

 50 52  0  0  0  0  0  0  0  0999 V2000
   64.0080   33.2430   48.5010 C   0  0  0  0  0  0  0  0  0  0  0  0
   62.8620   32.2830   48.3920 C   0  0  0  0  0  0  0  0  0  0  0  0
   62.2720   32.0340   47.1440 C   0  0  0  0  0  0  0  0  0  0  0  0
   61.2080   31.1340   47.0330 C   0  0  0  0  0  0  0  0  0  0  0  0
   60.7330   30.4620   48.1670 C   0  0  0  0  0  0  0  0  0  0  0  0
   59.4080   29.3110   48.0240 S   0  0  0  0  0  0  0  0  0  0  0  0
   58.5560   29.3530   49.2610 O   0  0  0  0  0  0  0  0  0  0  0  0
   58.5710   29.6780   46.8320 O   0  0  0  0  0  0  0  0  0  0  0  0
   60.0390   27.7070   47.8030 N   0  0  0  0  0  0  0  0  0  0  0  0
   58.9460   26.7680   47.5620 C   0  0  0  0  0  0  0  0  0  0  0  0
   58.5910   26.7780   46.0750 C   0  0  0  0  0  0  0  0  0  0  0  0
   57.1340   26.4750   45.8620 C   0  0  0  0  0  0  0  0  0  0  0  0
   56.7450   25.2840   45.9890 O   0  0  0  0  0  0  0  0  0  0  0  0
   56.1460   27.4920   45.6240 N   0  0  0  0  0  0  0  0  0  0  0  0
   56.2740   28.6170   44.9820 C   0  0  0  0  0  0  0  0  0  0  0  0
   55.2610   29.5050   44.8990 N   0  0  0  0  0  0  0  0  0  0  0  0
   55.5390   30.5490   44.1190 N   0  0  0  0  0  0  0  0  0  0  0  0
   56.7700   30.4950   43.5660 C   0  0  0  0  0  0  0  0  0  0  0  0
   57.2960   31.5130   42.6080 C   0  0  0  0  0  0  0  0  0  0  0  0
   58.3850   32.6990   43.4760 S   0  0  0  0  0  0  0  0  0  0  0  0
   57.3890   32.8680   45.0050 C   0  0  0  0  0  0  0  0  0  0  0  0
   58.2010   33.3730   46.1690 C   0  0  0  0  0  0  0  0  0  0  0  0
   58.1100   32.7410   47.4210 C   0  0  0  0  0  0  0  0  0  0  0  0
   58.8710   33.1970   48.5010 C   0  0  0  0  0  0  0  0  0  0  0  0
   59.7210   34.2960   48.3450 C   0  0  0  0  0  0  0  0  0  0  0  0
   59.7960   34.9490   47.1110 C   0  0  0  0  0  0  0  0  0  0  0  0
   59.0320   34.4980   46.0290 C   0  0  0  0  0  0  0  0  0  0  0  0
   57.5970   29.1140   44.0590 S   0  0  0  0  0  0  0  0  0  0  0  0
   61.3400   30.6860   49.4100 C   0  0  0  0  0  0  0  0  0  0  0  0
   62.4010   31.5890   49.5220 C   0  0  0  0  0  0  0  0  0  0  0  0
   64.2305   33.4294   49.5620 H   0  0  0  0  0  0  0  0  0  0  0  0
   64.8940   32.8136   48.0105 H   0  0  0  0  0  0  0  0  0  0  0  0
   63.7405   34.1905   48.0105 H   0  0  0  0  0  0  0  0  0  0  0  0
   62.6484   32.5495   46.2481 H   0  0  0  0  0  0  0  0  0  0  0  0
   60.7425   30.9530   46.0529 H   0  0  0  0  0  0  0  0  0  0  0  0
   59.2588   25.7559   47.8585 H   0  0  0  0  0  0  0  0  0  0  0  0
   58.0672   27.0654   48.1530 H   0  0  0  0  0  0  0  0  0  0  0  0
   58.8155   27.7713   45.6592 H   0  0  0  0  0  0  0  0  0  0  0  0
   59.1856   26.0027   45.5697 H   0  0  0  0  0  0  0  0  0  0  0  0
   57.8689   31.0057   41.8178 H   0  0  0  0  0  0  0  0  0  0  0  0
   56.4497   32.0606   42.1676 H   0  0  0  0  0  0  0  0  0  0  0  0
   56.5677   33.5746   44.8148 H   0  0  0  0  0  0  0  0  0  0  0  0
   57.0103   31.8697   45.2695 H   0  0  0  0  0  0  0  0  0  0  0  0
   57.4355   31.8819   47.5518 H   0  0  0  0  0  0  0  0  0  0  0  0
   58.8011   32.6906   49.4750 H   0  0  0  0  0  0  0  0  0  0  0  0
   60.3297   34.6463   49.1916 H   0  0  0  0  0  0  0  0  0  0  0  0
   60.4574   35.8196   46.9904 H   0  0  0  0  0  0  0  0  0  0  0  0
   59.0819   35.0258   45.0652 H   0  0  0  0  0  0  0  0  0  0  0  0
   60.9804   30.1495   50.3004 H   0  0  0  0  0  0  0  0  0  0  0  0
   62.8768   31.7566   50.4995 H   0  0  0  0  0  0  0  0  0  0  0  0
  1  2  1  0
  2  3  2  0
  3  4  1  0
  4  5  2  0
  5  6  1  0
  6  7  2  0
  6  8  2  0
  6  9  1  0
  9 10  1  0
 10 11  1  0
 11 12  1  0
 12 13  2  0
 12 14  1  0
 14 15  2  3
 15 16  1  0
 16 17  1  0
 17 18  2  0
 18 19  1  0
 19 20  1  0
 20 21  1  0
 21 22  1  0
 22 23  2  0
 23 24  1  0
 24 25  2  0
 25 26  1  0
 26 27  2  0
 18 28  1  0
  5 29  1  0
 29 30  2  0
 30  2  1  0
 28 15  1  0
 27 22  1  0
  1 31  1  0
  1 32  1  0
  1 33  1  0
  3 34  1  0
  4 35  1  0
 10 36  1  0
 10 37  1  0
 11 38  1  0
 11 39  1  0
 19 40  1  0
 19 41  1  0
 21 42  1  0
 21 43  1  0
 23 44  1  0
 24 45  1  0
 25 46  1  0
 26 47  1  0
 27 48  1  0
 29 49  1  0
 30 50  1  0
M  CHG  2   9  -1  16  -1
M  END
>  <UniqueID>  (26) 
24

>  <SMILES>  (26) 
Cc1ccc(S(=O)(=O)[N-]CCC(=O)N=c2[n-]nc(CSCc3ccccc3)s2)cc1

>  <Energy>  (26) 
74.6906271328062

>  <Genealogy>  (26) 
Cc1ccc(S(=O)(=O)[N-]CCC(=O)N=c2[n-]nc(CSCc3ccccc3)s2)cc1 (protonated)
Cc1ccc(S(=O)(=O)[N-]CCC(=O)N=c2[n-]nc(CSCc3ccccc3)s2)cc1 (3D coordinates assigned)
Cc1ccc(S(=O)(=O)[N-]CCC(=O)N=c2[n-]nc(CSCc3ccccc3)s2)cc1 (optimized conformer: 74.6906271328062 kcal/mol)

>  <smiles>  (26) 
Cc1ccc(S(=O)(=O)NCCC(=O)N=c2[nH]nc(CSCc3ccccc3)s2)cc1

>  <score_type>  (26) 
oracle

>  <origin>  (26) 
adg

>  <m_score__min__energy>  (26) 
-11.789999999999999

>  <m_primary>  (26) 
energy

$$$$
26:0
     RDKit          3D

 51 53  0  0  1  0  0  0  0  0999 V2000
   52.5500   22.0390   49.9140 C   0  0  0  0  0  0  0  0  0  0  0  0
   53.6620   22.8820   49.6490 O   0  0  0  0  0  0  0  0  0  0  0  0
   54.1810   22.8450   48.3620 C   0  0  0  0  0  0  0  0  0  0  0  0
   55.5500   22.7210   48.1820 C   0  0  0  0  0  0  0  0  0  0  0  0
   56.0860   22.6830   46.8930 C   0  0  0  0  0  0  0  0  0  0  0  0
   57.3680   22.5660   46.7990 N   0  0  0  0  0  0  0  0  0  0  0  0
   58.1900   23.0860   45.3780 S   0  0  0  0  0  0  0  0  0  0  0  0
   59.5900   22.5810   45.3060 O   0  0  0  0  0  0  0  0  0  0  0  0
   57.4470   22.4970   44.2090 O   0  0  0  0  0  0  0  0  0  0  0  0
   58.0900   24.8250   45.2200 C   0  0  0  0  0  0  0  0  0  0  0  0
   57.8710   25.4600   44.0170 C   0  0  0  0  0  0  0  0  0  0  0  0
   57.7920   26.8300   43.8940 C   0  0  0  0  0  0  0  0  0  0  0  0
   57.9330   27.6460   45.0030 C   0  0  0  0  0  0  0  0  0  0  0  0
   57.8420   29.0360   44.8060 N   0  0  0  0  0  0  0  0  0  0  0  0
   56.6530   29.7980   44.7510 C   0  0  0  0  0  0  0  0  0  0  0  0
   55.5200   29.3170   44.8740 O   0  0  0  0  0  0  0  0  0  0  0  0
   56.7220   31.2260   44.5420 N   0  0  0  0  0  0  0  0  0  0  0  0
   57.6120   31.9030   45.2190 C   0  0  0  0  0  0  0  0  0  0  0  0
   58.1700   31.3900   46.3670 C   0  0  0  0  0  0  0  0  0  0  0  0
   59.1060   32.1640   47.0310 C   0  0  0  0  0  0  0  0  0  0  0  0
   59.4700   33.4150   46.5570 C   0  0  0  0  0  0  0  0  0  0  0  0
   58.8810   33.8800   45.4030 C   0  0  0  0  0  0  0  0  0  0  0  0
   59.2490   35.2200   44.8650 C   0  0  0  0  0  0  0  0  0  0  0  0
   57.9700   33.1180   44.7630 N   0  0  0  0  0  0  0  0  0  0  0  0
   58.1500   27.0180   46.2020 C   0  0  0  0  0  0  0  0  0  0  0  0
   58.2310   25.6310   46.3300 C   0  0  0  0  0  0  0  0  0  0  0  0
   55.2930   22.7640   45.8150 N   0  0  0  0  0  0  0  0  0  0  0  0
   53.9730   22.8830   46.0100 C   0  0  0  0  0  0  0  0  0  0  0  0
   53.1460   22.9680   44.8730 O   0  0  0  0  0  0  0  0  0  0  0  0
   52.1530   23.9970   44.8720 C   0  0  0  0  0  0  0  0  0  0  0  0
   53.4170   22.9240   47.2560 N   0  0  0  0  0  0  0  0  0  0  0  0
   52.4171   21.9383   51.0013 H   0  0  0  0  0  0  0  0  0  0  0  0
   51.6432   22.4787   49.4730 H   0  0  0  0  0  0  0  0  0  0  0  0
   52.7284   21.0472   49.4730 H   0  0  0  0  0  0  0  0  0  0  0  0
   56.2149   22.6525   49.0556 H   0  0  0  0  0  0  0  0  0  0  0  0
   57.7538   24.8446   43.1128 H   0  0  0  0  0  0  0  0  0  0  0  0
   57.6153   27.2793   42.9056 H   0  0  0  0  0  0  0  0  0  0  0  0
   58.7380   29.5920   44.6840 H   0  0  0  0  0  0  0  0  0  0  0  0
   57.8820   30.3978   46.7447 H   0  0  0  0  0  0  0  0  0  0  0  0
   59.5695   31.7795   47.9515 H   0  0  0  0  0  0  0  0  0  0  0  0
   60.2141   34.0234   47.0920 H   0  0  0  0  0  0  0  0  0  0  0  0
   59.4387   35.9108   45.6998 H   0  0  0  0  0  0  0  0  0  0  0  0
   60.1561   35.1313   44.2490 H   0  0  0  0  0  0  0  0  0  0  0  0
   58.4239   35.6070   44.2490 H   0  0  0  0  0  0  0  0  0  0  0  0
   57.5610   33.5270   43.8970 H   0  0  0  0  0  0  0  0  0  0  0  0
   58.2656   27.6359   47.1047 H   0  0  0  0  0  0  0  0  0  0  0  0
   58.4075   25.1799   47.3176 H   0  0  0  0  0  0  0  0  0  0  0  0
   55.7300   22.7320   44.8740 H   0  0  0  0  0  0  0  0  0  0  0  0
   51.8979   24.2614   45.9088 H   0  0  0  0  0  0  0  0  0  0  0  0
   52.5449   24.8843   44.3532 H   0  0  0  0  0  0  0  0  0  0  0  0
   51.2523   23.6369   44.3532 H   0  0  0  0  0  0  0  0  0  0  0  0
  1  2  1  0
  2  3  1  0
  3  4  2  0
  4  5  1  0
  5  6  2  0
  6  7  1  0
  7  8  2  0
  7  9  2  0
  7 10  1  0
 10 11  2  0
 11 12  1  0
 12 13  2  0
 13 14  1  0
 14 15  1  0
 15 16  2  0
 15 17  1  0
 17 18  2  0
 18 19  1  0
 19 20  2  0
 20 21  1  0
 21 22  2  0
 22 23  1  0
 22 24  1  0
 13 25  1  0
 25 26  2  0
  5 27  1  0
 27 28  1  0
 28 29  1  0
 29 30  1  0
 28 31  2  0
 31  3  1  0
 26 10  1  0
 24 18  1  0
  1 32  1  0
  1 33  1  0
  1 34  1  0
  4 35  1  0
 11 36  1  0
 12 37  1  0
 14 38  1  0
 19 39  1  0
 20 40  1  0
 21 41  1  0
 23 42  1  0
 23 43  1  0
 23 44  1  0
 24 45  1  0
 25 46  1  0
 26 47  1  0
 27 48  1  0
 30 49  1  0
 30 50  1  0
 30 51  1  0
M  END
>  <smiles>  (27) 
COc1cc(=NS(=O)(=O)c2ccc(NC(=O)N=c3cccc(C)[nH]3)cc2)[nH]c(OC)n1

>  <score_type>  (27) 
oracle

>  <origin>  (27) 
adg

>  <m_score__min__energy>  (27) 
-8.4100000000000001

>  <m_primary>  (27) 
energy

$$$$
27:0
     RDKit          3D

 79 83  0  0  0  0  0  0  0  0999 V2000
   57.9140   24.9770   47.2640 O   0  0  0  0  0  0  0  0  0  0  0  0
   58.8280   25.7660   46.9050 C   0  0  0  0  0  0  0  0  0  0  0  0
   58.9540   26.1490   45.4540 C   0  0  0  0  0  0  0  0  0  0  0  0
   58.3950   27.5260   45.2090 C   0  0  0  0  0  0  0  0  0  0  0  0
   59.2540   28.6120   44.9690 C   0  0  0  0  0  0  0  0  0  0  0  0
   58.7300   29.8950   44.7830 C   0  0  0  0  0  0  0  0  0  0  0  0
   57.3490   30.1140   44.8600 C   0  0  0  0  0  0  0  0  0  0  0  0
   56.8440   31.4400   44.6640 N   0  0  0  0  0  0  0  0  0  0  0  0
   57.5280   32.5190   44.0150 C   0  0  0  0  0  0  0  0  0  0  0  0
   58.0770   32.2970   42.9030 O   0  0  0  0  0  0  0  0  0  0  0  0
   57.7500   33.8530   44.7030 C   0  0  0  0  0  0  0  0  0  0  0  0
   59.2620   34.2030   44.7890 C   0  0  0  0  0  0  0  0  0  0  0  0
   59.6320   34.9000   46.1030 C   0  0  0  0  0  0  0  0  0  0  0  0
   59.2290   34.0690   47.2490 N   0  0  0  0  0  0  0  0  0  0  0  0
   60.0340   34.0580   48.4480 C   0  0  0  0  0  0  0  0  0  0  0  0
   60.9190   34.9410   48.6110 O   0  0  0  0  0  0  0  0  0  0  0  0
   59.7800   33.0610   49.5540 C   0  0  0  0  0  0  0  0  0  0  0  0
   59.4000   33.7400   50.8750 C   0  0  0  0  0  0  0  0  0  0  0  0
   58.5990   32.8020   51.7370 C   0  0  0  0  0  0  0  0  0  0  0  0
   58.9250   32.6310   53.0940 C   0  0  0  0  0  0  0  0  0  0  0  0
   58.2060   31.7260   53.8820 C   0  0  0  0  0  0  0  0  0  0  0  0
   57.1660   30.9800   53.3220 C   0  0  0  0  0  0  0  0  0  0  0  0
   56.8440   31.1360   51.9700 C   0  0  0  0  0  0  0  0  0  0  0  0
   57.5610   32.0390   51.1780 C   0  0  0  0  0  0  0  0  0  0  0  0
   57.9460   33.3440   47.2050 C   0  0  0  0  0  0  0  0  0  0  0  0
   57.0450   33.8660   46.0790 C   0  0  0  0  0  0  0  0  0  0  0  0
   56.4860   29.0270   45.0610 C   0  0  0  0  0  0  0  0  0  0  0  0
   57.0060   27.7400   45.2400 C   0  0  0  0  0  0  0  0  0  0  0  0
   59.7560   26.2440   47.8870 N   0  0  0  0  0  0  0  0  0  0  0  0
   59.7390   27.5420   48.4950 C   0  0  0  0  0  0  0  0  0  0  0  0
   58.7030   28.4260   48.1780 C   0  0  0  0  0  0  0  0  0  0  0  0
   58.6860   29.7130   48.7190 C   0  0  0  0  0  0  0  0  0  0  0  0
   59.7170   30.1330   49.5640 C   0  0  0  0  0  0  0  0  0  0  0  0
   60.7790   29.2670   49.8790 C   0  0  0  0  0  0  0  0  0  0  0  0
   61.8850   29.7160   50.7570 C   0  0  0  0  0  0  0  0  0  0  0  0
   62.3890   28.9170   51.5890 O   0  0  0  0  0  0  0  0  0  0  0  0
   62.3460   31.0720   50.6870 N   0  0  0  0  0  0  0  0  0  0  0  0
   62.7390   31.7980   49.5110 C   0  0  0  0  0  0  0  0  0  0  0  0
   62.5250   31.2560   48.2290 C   0  0  0  0  0  0  0  0  0  0  0  0
   62.8780   31.9720   47.0860 C   0  0  0  0  0  0  0  0  0  0  0  0
   63.4190   33.2480   47.2010 C   0  0  0  0  0  0  0  0  0  0  0  0
   63.6130   33.8140   48.4600 C   0  0  0  0  0  0  0  0  0  0  0  0
   63.2770   33.1050   49.6300 C   0  0  0  0  0  0  0  0  0  0  0  0
   63.5120   33.7530   50.9480 C   0  0  0  0  0  0  0  0  0  0  0  0
   64.6610   34.1420   51.2880 O   0  0  0  0  0  0  0  0  0  0  0  0
   62.4530   33.9510   51.8270 O   0  0  0  0  0  0  0  0  0  0  0  0
   60.7820   27.9700   49.3330 C   0  0  0  0  0  0  0  0  0  0  0  0
   60.0165   26.1362   45.1695 H   0  0  0  0  0  0  0  0  0  0  0  0
   58.3847   25.4270   44.8501 H   0  0  0  0  0  0  0  0  0  0  0  0
   60.3416   28.4523   44.9274 H   0  0  0  0  0  0  0  0  0  0  0  0
   59.4065   30.7371   44.5750 H   0  0  0  0  0  0  0  0  0  0  0  0
   57.2932   34.6490   44.0966 H   0  0  0  0  0  0  0  0  0  0  0  0
   59.8440   33.2732   44.7074 H   0  0  0  0  0  0  0  0  0  0  0  0
   59.4903   34.8980   43.9675 H   0  0  0  0  0  0  0  0  0  0  0  0
   60.7197   35.0611   46.1354 H   0  0  0  0  0  0  0  0  0  0  0  0
   59.1081   35.8657   46.1575 H   0  0  0  0  0  0  0  0  0  0  0  0
   58.9583   32.3963   49.2490 H   0  0  0  0  0  0  0  0  0  0  0  0
   60.7111   32.4994   49.7205 H   0  0  0  0  0  0  0  0  0  0  0  0
   60.3164   34.0301   51.4099 H   0  0  0  0  0  0  0  0  0  0  0  0
   58.7916   34.6299   50.6561 H   0  0  0  0  0  0  0  0  0  0  0  0
   59.7480   33.2107   53.5374 H   0  0  0  0  0  0  0  0  0  0  0  0
   58.4601   31.6015   54.9450 H   0  0  0  0  0  0  0  0  0  0  0  0
   56.6008   30.2704   53.9440 H   0  0  0  0  0  0  0  0  0  0  0  0
   56.0258   30.5478   51.5288 H   0  0  0  0  0  0  0  0  0  0  0  0
   57.3107   32.1519   50.1128 H   0  0  0  0  0  0  0  0  0  0  0  0
   58.1448   32.2751   47.0376 H   0  0  0  0  0  0  0  0  0  0  0  0
   57.4278   33.5001   48.1627 H   0  0  0  0  0  0  0  0  0  0  0  0
   56.1482   33.2316   46.0220 H   0  0  0  0  0  0  0  0  0  0  0  0
   56.7877   34.9096   46.3131 H   0  0  0  0  0  0  0  0  0  0  0  0
   55.3977   29.1863   45.0780 H   0  0  0  0  0  0  0  0  0  0  0  0
   56.3249   26.8923   45.4057 H   0  0  0  0  0  0  0  0  0  0  0  0
   57.8982   28.1062   47.4997 H   0  0  0  0  0  0  0  0  0  0  0  0
   57.8593   30.3980   48.4796 H   0  0  0  0  0  0  0  0  0  0  0  0
   59.6975   31.1487   49.9858 H   0  0  0  0  0  0  0  0  0  0  0  0
   62.0747   30.2574   48.1284 H   0  0  0  0  0  0  0  0  0  0  0  0
   62.7283   31.5268   46.0913 H   0  0  0  0  0  0  0  0  0  0  0  0
   63.6942   33.8114   46.2972 H   0  0  0  0  0  0  0  0  0  0  0  0
   64.0338   34.8271   48.5409 H   0  0  0  0  0  0  0  0  0  0  0  0
   61.6100   27.2840   49.5649 H   0  0  0  0  0  0  0  0  0  0  0  0
  1  2  2  0
  2  3  1  0
  3  4  1  0
  4  5  2  0
  5  6  1  0
  6  7  2  0
  7  8  1  0
  8  9  1  0
  9 10  2  0
  9 11  1  0
 11 12  1  0
 12 13  1  0
 13 14  1  0
 14 15  1  0
 15 16  2  0
 15 17  1  0
 17 18  1  0
 18 19  1  0
 19 20  2  0
 20 21  1  0
 21 22  2  0
 22 23  1  0
 23 24  2  0
 14 25  1  0
 25 26  1  0
  7 27  1  0
 27 28  2  0
  2 29  1  0
 29 30  1  0
 30 31  2  0
 31 32  1  0
 32 33  2  0
 33 34  1  0
 34 35  1  0
 35 36  2  0
 35 37  1  0
 37 38  1  0
 38 39  2  0
 39 40  1  0
 40 41  2  0
 41 42  1  0
 42 43  2  0
 43 44  1  0
 44 45  2  0
 44 46  1  0
 34 47  2  0
 28  4  1  0
 47 30  1  0
 26 11  1  0
 43 38  1  0
 24 19  1  0
  3 48  1  0
  3 49  1  0
  5 50  1  0
  6 51  1  0
 11 52  1  0
 12 53  1  0
 12 54  1  0
 13 55  1  0
 13 56  1  0
 17 57  1  0
 17 58  1  0
 18 59  1  0
 18 60  1  0
 20 61  1  0
 21 62  1  0
 22 63  1  0
 23 64  1  0
 24 65  1  0
 25 66  1  0
 25 67  1  0
 26 68  1  0
 26 69  1  0
 27 70  1  0
 28 71  1  0
 31 72  1  0
 32 73  1  0
 33 74  1  0
 39 75  1  0
 40 76  1  0
 41 77  1  0
 42 78  1  0
 47 79  1  0
M  CHG  4   8  -1  29  -1  37  -1  46  -1
M  END
>  <UniqueID>  (28) 
25

>  <SMILES>  (28) 
O=C(Cc1ccc([N-]C(=O)C2CCN(C(=O)CCc3ccccc3)CC2)cc1)[N-]c1cccc(C(=O)[N-]c2ccccc2C(=O)[O-])c1

>  <Energy>  (28) 
102.92174577922202

>  <Genealogy>  (28) 
O=C(Cc1ccc([N-]C(=O)C2CCN(C(=O)CCc3ccccc3)CC2)cc1)[N-]c1cccc(C(=O)[N-]c2ccccc2C(=O)[O-])c1 (protonated)
O=C(Cc1ccc([N-]C(=O)C2CCN(C(=O)CCc3ccccc3)CC2)cc1)[N-]c1cccc(C(=O)[N-]c2ccccc2C(=O)[O-])c1 (3D coordinates assigned)
O=C(Cc1ccc([N-]C(=O)C2CCN(C(=O)CCc3ccccc3)CC2)cc1)[N-]c1cccc(C(=O)[N-]c2ccccc2C(=O)[O-])c1 (nonaromatic ring conformer: 102.92174577922202 kcal/mol)

>  <smiles>  (28) 
O=C(Cc1ccc(NC(=O)C2CCN(C(=O)CCc3ccccc3)CC2)cc1)Nc1cccc(C(=O)Nc2ccccc2C(=O)O)c1

>  <score_type>  (28) 
oracle

>  <origin>  (28) 
adg

>  <m_score__min__energy>  (28) 
-17.239999999999998

>  <m_primary>  (28) 
energy

$$$$
28:0
     RDKit          3D

 42 44  0  0  0  0  0  0  0  0999 V2000
   58.5430   23.5240   45.4420 C   0  0  0  0  0  0  0  0  0  0  0  0
   57.1910   24.1770   45.4350 C   0  0  0  0  0  0  0  0  0  0  0  0
   56.0420   23.7140   44.7990 C   0  0  0  0  0  0  0  0  0  0  0  0
   55.9010   22.4720   44.0180 C   0  0  0  0  0  0  0  0  0  0  0  0
   55.8240   22.5100   42.7600 O   0  0  0  0  0  0  0  0  0  0  0  0
   55.8430   21.2160   44.7030 N   0  0  0  0  0  0  0  0  0  0  0  0
   56.5660   20.9370   45.9380 C   0  0  0  0  0  0  0  0  0  0  0  0
   55.7720   21.4070   47.1290 C   0  0  0  0  0  0  0  0  0  0  0  0
   54.4280   21.7850   46.9730 C   0  0  0  0  0  0  0  0  0  0  0  0
   53.6800   22.2030   48.0760 C   0  0  0  0  0  0  0  0  0  0  0  0
   54.2610   22.2420   49.3470 C   0  0  0  0  0  0  0  0  0  0  0  0
   53.5010   22.6600   50.4330 O   0  0  0  0  0  0  0  0  0  0  0  0
   55.6020   21.8610   49.5170 C   0  0  0  0  0  0  0  0  0  0  0  0
   56.2000   21.8910   50.7780 O   0  0  0  0  0  0  0  0  0  0  0  0
   56.3550   21.4420   48.4100 C   0  0  0  0  0  0  0  0  0  0  0  0
   57.6810   21.0610   48.5890 O   0  0  0  0  0  0  0  0  0  0  0  0
   55.0180   24.5770   44.9680 N   0  0  0  0  0  0  0  0  0  0  0  0
   55.5170   25.5860   45.7050 C   0  0  0  0  0  0  0  0  0  0  0  0
   54.7690   26.6940   46.0790 O   0  0  0  0  0  0  0  0  0  0  0  0
   56.8440   25.3830   46.0240 C   0  0  0  0  0  0  0  0  0  0  0  0
   57.7320   26.3400   46.7650 C   0  0  0  0  0  0  0  0  0  0  0  0
   58.5580   27.1280   45.7990 C   0  0  0  0  0  0  0  0  0  0  0  0
   59.8020   27.2240   45.9790 O   0  0  0  0  0  0  0  0  0  0  0  0
   57.9130   27.8490   44.7450 N   0  0  0  0  0  0  0  0  0  0  0  0
   57.6160   29.2500   44.7400 C   0  0  0  0  0  0  0  0  0  0  0  0
   58.5560   30.2540   44.7740 C   0  0  0  0  0  0  0  0  0  0  0  0
   57.8340   31.4330   44.8320 C   0  0  0  0  0  0  0  0  0  0  0  0
   56.5440   31.1710   44.8570 O   0  0  0  0  0  0  0  0  0  0  0  0
   56.3850   29.8700   44.8130 C   0  0  0  0  0  0  0  0  0  0  0  0
   55.1460   29.2460   44.8840 O   0  0  0  0  0  0  0  0  0  0  0  0
   58.8688   23.3666   46.4808 H   0  0  0  0  0  0  0  0  0  0  0  0
   58.4847   22.5547   44.9252 H   0  0  0  0  0  0  0  0  0  0  0  0
   59.2660   24.1722   44.9252 H   0  0  0  0  0  0  0  0  0  0  0  0
   56.7370   19.8535   46.0210 H   0  0  0  0  0  0  0  0  0  0  0  0
   57.5275   21.4709   45.9170 H   0  0  0  0  0  0  0  0  0  0  0  0
   53.9623   21.7516   45.9770 H   0  0  0  0  0  0  0  0  0  0  0  0
   52.6298   22.5026   47.9441 H   0  0  0  0  0  0  0  0  0  0  0  0
   57.1510   21.5760   50.9300 H   0  0  0  0  0  0  0  0  0  0  0  0
   57.1111   27.0275   47.3581 H   0  0  0  0  0  0  0  0  0  0  0  0
   58.3995   25.7711   47.4289 H   0  0  0  0  0  0  0  0  0  0  0  0
   59.6503   30.1430   44.7584 H   0  0  0  0  0  0  0  0  0  0  0  0
   58.2734   32.4412   44.8540 H   0  0  0  0  0  0  0  0  0  0  0  0
  1  2  1  0
  2  3  2  0
  3  4  1  0
  4  5  2  0
  4  6  1  0
  6  7  1  0
  7  8  1  0
  8  9  2  0
  9 10  1  0
 10 11  2  0
 11 12  1  0
 11 13  1  0
 13 14  1  0
 13 15  2  0
 15 16  1  0
  3 17  1  0
 17 18  1  0
 18 19  1  0
 18 20  2  0
 20 21  1  0
 21 22  1  0
 22 23  2  0
 22 24  1  0
 24 25  1  0
 25 26  1  0
 26 27  2  0
 27 28  1  0
 28 29  1  0
 29 30  1  0
 20  2  1  0
 29 25  2  0
 15  8  1  0
  1 31  1  0
  1 32  1  0
  1 33  1  0
  7 34  1  0
  7 35  1  0
  9 36  1  0
 10 37  1  0
 14 38  1  0
 21 39  1  0
 21 40  1  0
 26 41  1  0
 27 42  1  0
M  CHG  7   6  -1  12  -1  16  -1  17  -1  19  -1  24  -1  30  -1
M  END
>  <UniqueID>  (29) 
26

>  <SMILES>  (29) 
Cc1c(C(=O)[N-]Cc2ccc([O-])c(O)c2[O-])[n-]c([O-])c1CC(=O)[N-]c1ccoc1[O-]

>  <Energy>  (29) 
98.26144805511727

>  <Genealogy>  (29) 
Cc1c(C(=O)[N-]Cc2ccc([O-])c(O)c2[O-])[n-]c([O-])c1CC(=O)[N-]c1ccoc1[O-] (protonated)
Cc1c(C(=O)[N-]Cc2ccc([O-])c(O)c2[O-])[n-]c([O-])c1CC(=O)[N-]c1ccoc1[O-] (3D coordinates assigned)
Cc1c(C(=O)[N-]Cc2ccc([O-])c(O)c2[O-])[n-]c([O-])c1CC(=O)[N-]c1ccoc1[O-] (optimized conformer: 98.26144805511727 kcal/mol)

>  <smiles>  (29) 
Cc1c(C(=O)NCc2ccc(O)c(O)c2O)[nH]c(O)c1CC(=O)Nc1ccoc1O

>  <score_type>  (29) 
oracle

>  <origin>  (29) 
adg

>  <m_score__min__energy>  (29) 
-20.559999999999999

>  <m_primary>  (29) 
energy

$$$$
29:0
     RDKit          3D

 48 51  0  0  0  0  0  0  0  0999 V2000
   59.4770   29.8740   45.1960 C   0  0  0  0  0  0  0  0  0  0  0  0
   59.2890   29.3480   46.4180 C   0  0  0  0  0  0  0  0  0  0  0  0
   58.5300   28.2130   46.7490 C   0  0  0  0  0  0  0  0  0  0  0  0
   57.6650   27.4860   46.0160 C   0  0  0  0  0  0  0  0  0  0  0  0
   57.2440   26.1030   46.3200 C   0  0  0  0  0  0  0  0  0  0  0  0
   55.8870   25.7530   46.2870 C   0  0  0  0  0  0  0  0  0  0  0  0
   54.9170   26.7070   46.0030 O   0  0  0  0  0  0  0  0  0  0  0  0
   55.5110   24.4730   46.5450 N   0  0  0  0  0  0  0  0  0  0  0  0
   56.4320   23.5140   46.8210 C   0  0  0  0  0  0  0  0  0  0  0  0
   56.0590   22.3380   47.0630 O   0  0  0  0  0  0  0  0  0  0  0  0
   57.7540   23.8220   46.8310 N   0  0  0  0  0  0  0  0  0  0  0  0
   58.1810   25.0860   46.5780 C   0  0  0  0  0  0  0  0  0  0  0  0
   59.4170   25.3320   46.5710 O   0  0  0  0  0  0  0  0  0  0  0  0
   58.8080   27.9360   48.0780 C   0  0  0  0  0  0  0  0  0  0  0  0
   59.6560   28.9290   48.5250 C   0  0  0  0  0  0  0  0  0  0  0  0
   60.1960   29.0260   49.9190 C   0  0  0  0  0  0  0  0  0  0  0  0
   59.9460   29.7850   47.5220 N   0  0  0  0  0  0  0  0  0  0  0  0
   60.7960   30.9420   47.6230 C   0  0  0  0  0  0  0  0  0  0  0  0
   62.1040   30.8990   47.1270 C   0  0  0  0  0  0  0  0  0  0  0  0
   62.9090   32.0340   47.1910 C   0  0  0  0  0  0  0  0  0  0  0  0
   62.3970   33.2040   47.7510 C   0  0  0  0  0  0  0  0  0  0  0  0
   61.1250   33.2360   48.2350 N   0  0  0  0  0  0  0  0  0  0  0  0
   60.3140   32.1350   48.1890 C   0  0  0  0  0  0  0  0  0  0  0  0
   59.0080   32.1520   48.7050 O   0  0  0  0  0  0  0  0  0  0  0  0
   57.8860   32.7820   48.0890 C   0  0  0  0  0  0  0  0  0  0  0  0
   58.3390   33.6550   46.9570 C   0  0  0  0  0  0  0  0  0  0  0  0
   57.9220   33.3880   45.6460 C   0  0  0  0  0  0  0  0  0  0  0  0
   58.3910   34.1870   44.6020 C   0  0  0  0  0  0  0  0  0  0  0  0
   59.2670   35.2400   44.8730 C   0  0  0  0  0  0  0  0  0  0  0  0
   59.6640   35.4750   46.1910 C   0  0  0  0  0  0  0  0  0  0  0  0
   59.1990   34.6830   47.1950 N   0  0  0  0  0  0  0  0  0  0  0  0
   60.0994   30.7727   45.0739 H   0  0  0  0  0  0  0  0  0  0  0  0
   59.0085   29.4059   44.3177 H   0  0  0  0  0  0  0  0  0  0  0  0
   57.2381   27.9597   45.1197 H   0  0  0  0  0  0  0  0  0  0  0  0
   58.4260   27.0873   48.6644 H   0  0  0  0  0  0  0  0  0  0  0  0
   59.3783   28.8791   50.6400 H   0  0  0  0  0  0  0  0  0  0  0  0
   60.9619   28.2511   50.0703 H   0  0  0  0  0  0  0  0  0  0  0  0
   60.6443   30.0190   50.0703 H   0  0  0  0  0  0  0  0  0  0  0  0
   62.4959   29.9700   46.6871 H   0  0  0  0  0  0  0  0  0  0  0  0
   63.9382   32.0076   46.8037 H   0  0  0  0  0  0  0  0  0  0  0  0
   63.0244   34.1061   47.8019 H   0  0  0  0  0  0  0  0  0  0  0  0
   60.7920   34.1290   48.6560 H   0  0  0  0  0  0  0  0  0  0  0  0
   57.2033   32.0109   47.7025 H   0  0  0  0  0  0  0  0  0  0  0  0
   57.3681   33.4022   48.8354 H   0  0  0  0  0  0  0  0  0  0  0  0
   57.2315   32.5565   45.4416 H   0  0  0  0  0  0  0  0  0  0  0  0
   58.0713   33.9876   43.5685 H   0  0  0  0  0  0  0  0  0  0  0  0
   59.6401   35.8771   44.0576 H   0  0  0  0  0  0  0  0  0  0  0  0
   60.3536   36.3015   46.4179 H   0  0  0  0  0  0  0  0  0  0  0  0
  1  2  2  0
  2  3  1  0
  3  4  2  3
  4  5  1  0
  5  6  2  0
  6  7  1  0
  6  8  1  0
  8  9  1  0
  9 10  2  0
  9 11  1  0
 11 12  1  0
 12 13  2  0
  3 14  1  0
 14 15  2  0
 15 16  1  0
 15 17  1  0
 17 18  1  0
 18 19  2  0
 19 20  1  0
 20 21  2  0
 21 22  1  0
 22 23  2  0
 23 24  1  0
 24 25  1  0
 25 26  1  0
 26 27  2  0
 27 28  1  0
 28 29  2  0
 29 30  1  0
 30 31  2  0
 17  2  1  0
 23 18  1  0
 31 26  1  0
 12  5  1  0
  1 32  1  0
  1 33  1  0
  4 34  1  0
 14 35  1  0
 16 36  1  0
 16 37  1  0
 16 38  1  0
 19 39  1  0
 20 40  1  0
 21 41  1  0
 22 42  1  0
 25 43  1  0
 25 44  1  0
 27 45  1  0
 28 46  1  0
 29 47  1  0
 30 48  1  0
M  CHG  4   7  -1   8  -1  11  -1  22   1
M  END
>  <UniqueID>  (30) 
27

>  <SMILES>  (30) 
C=c1c(=Cc2c([O-])[n-]c(=O)[n-]c2=O)cc(C)n1-c1ccc[nH+]c1OCc1ccccn1

>  <Energy>  (30) 
99.48203665885231

>  <Genealogy>  (30) 
C=c1c(=Cc2c([O-])[n-]c(=O)[n-]c2=O)cc(C)n1-c1ccc[nH+]c1OCc1ccccn1 (protonated)
C=c1c(=Cc2c([O-])[n-]c(=O)[n-]c2=O)cc(C)n1-c1ccc[nH+]c1OCc1ccccn1 (3D coordinates assigned)
C=c1c(=Cc2c([O-])[n-]c(=O)[n-]c2=O)cc(C)n1-c1ccc[nH+]c1OCc1ccccn1 (optimized conformer: 99.48203665885231 kcal/mol)

>  <smiles>  (30) 
C=c1c(=Cc2c(O)[nH]c(=O)[nH]c2=O)cc(C)n1-c1cccnc1OCc1ccccn1

>  <score_type>  (30) 
oracle

>  <origin>  (30) 
adg

>  <m_score__min__energy>  (30) 
-15.16

>  <m_primary>  (30) 
energy

$$$$
30:0
     RDKit          3D

 51 54  0  0  0  0  0  0  0  0999 V2000
   59.2700   27.7990   47.1810 C   0  0  0  0  0  0  0  0  0  0  0  0
   58.7980   28.4130   46.0850 C   0  0  0  0  0  0  0  0  0  0  0  0
   58.2240   27.8120   44.9510 C   0  0  0  0  0  0  0  0  0  0  0  0
   57.8660   26.5350   44.7100 C   0  0  0  0  0  0  0  0  0  0  0  0
   57.3380   25.5880   45.7020 C   0  0  0  0  0  0  0  0  0  0  0  0
   57.9690   24.4570   46.0590 N   0  0  0  0  0  0  0  0  0  0  0  0
   57.0820   23.8470   46.8740 C   0  0  0  0  0  0  0  0  0  0  0  0
   57.3200   22.7450   47.4330 O   0  0  0  0  0  0  0  0  0  0  0  0
   55.9130   24.5050   47.0330 N   0  0  0  0  0  0  0  0  0  0  0  0
   56.0840   25.5980   46.2710 C   0  0  0  0  0  0  0  0  0  0  0  0
   55.1110   26.5740   46.0810 O   0  0  0  0  0  0  0  0  0  0  0  0
   58.0420   28.8260   44.0250 C   0  0  0  0  0  0  0  0  0  0  0  0
   58.4540   29.9970   44.6260 C   0  0  0  0  0  0  0  0  0  0  0  0
   58.4090   31.3490   43.9820 C   0  0  0  0  0  0  0  0  0  0  0  0
   58.9000   29.7510   45.8770 N   0  0  0  0  0  0  0  0  0  0  0  0
   59.4700   30.7320   46.7620 C   0  0  0  0  0  0  0  0  0  0  0  0
   58.6380   31.5320   47.5550 C   0  0  0  0  0  0  0  0  0  0  0  0
   59.1910   32.4950   48.4020 C   0  0  0  0  0  0  0  0  0  0  0  0
   60.5780   32.6600   48.4660 C   0  0  0  0  0  0  0  0  0  0  0  0
   61.4260   31.8570   47.6840 C   0  0  0  0  0  0  0  0  0  0  0  0
   62.8950   32.0310   47.7510 C   0  0  0  0  0  0  0  0  0  0  0  0
   63.6270   31.4370   46.9130 O   0  0  0  0  0  0  0  0  0  0  0  0
   63.5050   32.8470   48.7680 N   0  0  0  0  0  0  0  0  0  0  0  0
   64.7620   32.3920   49.3820 C   0  0  0  0  0  0  0  0  0  0  0  0
   65.2240   33.3430   50.4950 C   0  0  0  0  0  0  0  0  0  0  0  0
   64.0310   33.7660   51.3560 C   0  0  0  0  0  0  0  0  0  0  0  0
   62.9480   34.4980   50.5360 C   0  0  0  0  0  0  0  0  0  0  0  0
   63.0170   34.2090   49.0260 C   0  0  0  0  0  0  0  0  0  0  0  0
   60.8600   30.9080   46.8170 C   0  0  0  0  0  0  0  0  0  0  0  0
   59.6970   28.3923   48.0030 H   0  0  0  0  0  0  0  0  0  0  0  0
   59.2299   26.7024   47.2574 H   0  0  0  0  0  0  0  0  0  0  0  0
   57.9792   26.1691   43.6788 H   0  0  0  0  0  0  0  0  0  0  0  0
   54.3520   26.6810   46.7420 H   0  0  0  0  0  0  0  0  0  0  0  0
   57.6447   28.7179   43.0050 H   0  0  0  0  0  0  0  0  0  0  0  0
   58.3832   32.1254   44.7608 H   0  0  0  0  0  0  0  0  0  0  0  0
   59.3031   31.4870   43.3562 H   0  0  0  0  0  0  0  0  0  0  0  0
   57.5078   31.4272   43.3562 H   0  0  0  0  0  0  0  0  0  0  0  0
   57.5466   31.4017   47.5107 H   0  0  0  0  0  0  0  0  0  0  0  0
   58.5342   33.1249   49.0199 H   0  0  0  0  0  0  0  0  0  0  0  0
   61.0079   33.4225   49.1321 H   0  0  0  0  0  0  0  0  0  0  0  0
   64.6083   31.3902   49.8095 H   0  0  0  0  0  0  0  0  0  0  0  0
   65.5380   32.3718   48.6026 H   0  0  0  0  0  0  0  0  0  0  0  0
   65.9648   32.8309   51.1266 H   0  0  0  0  0  0  0  0  0  0  0  0
   65.6740   34.2376   50.0397 H   0  0  0  0  0  0  0  0  0  0  0  0
   63.5854   32.8680   51.8088 H   0  0  0  0  0  0  0  0  0  0  0  0
   64.3998   34.4619   52.1239 H   0  0  0  0  0  0  0  0  0  0  0  0
   61.9607   34.1837   50.9053 H   0  0  0  0  0  0  0  0  0  0  0  0
   63.1197   35.5767   50.6658 H   0  0  0  0  0  0  0  0  0  0  0  0
   62.0115   34.3180   48.5934 H   0  0  0  0  0  0  0  0  0  0  0  0
   63.7162   34.9228   48.5660 H   0  0  0  0  0  0  0  0  0  0  0  0
   61.5127   30.2976   46.1756 H   0  0  0  0  0  0  0  0  0  0  0  0
  1  2  2  0
  2  3  1  0
  3  4  2  3
  4  5  1  0
  5  6  1  0
  6  7  1  0
  7  8  2  0
  7  9  1  0
  9 10  1  0
 10 11  1  0
  3 12  1  0
 12 13  2  0
 13 14  1  0
 13 15  1  0
 15 16  1  0
 16 17  2  0
 17 18  1  0
 18 19  2  0
 19 20  1  0
 20 21  1  0
 21 22  2  0
 21 23  1  0
 23 24  1  0
 24 25  1  0
 25 26  1  0
 26 27  1  0
 27 28  1  0
 20 29  2  0
 15  2  1  0
 29 16  1  0
 10  5  2  0
 28 23  1  0
  1 30  1  0
  1 31  1  0
  4 32  1  0
 11 33  1  0
 12 34  1  0
 14 35  1  0
 14 36  1  0
 14 37  1  0
 17 38  1  0
 18 39  1  0
 19 40  1  0
 24 41  1  0
 24 42  1  0
 25 43  1  0
 25 44  1  0
 26 45  1  0
 26 46  1  0
 27 47  1  0
 27 48  1  0
 28 49  1  0
 28 50  1  0
 29 51  1  0
M  CHG  2   6  -1   9  -1
M  END
>  <UniqueID>  (31) 
28

>  <SMILES>  (31) 
C=c1c(=Cc2[n-]c(=O)[n-]c2O)cc(C)n1-c1cccc(C(=O)N2CCCCC2)c1

>  <Energy>  (31) 
133.0323678360988

>  <Genealogy>  (31) 
C=c1c(=Cc2[n-]c(=O)[n-]c2O)cc(C)n1-c1cccc(C(=O)N2CCCCC2)c1 (protonated)
C=c1c(=Cc2[n-]c(=O)[n-]c2O)cc(C)n1-c1cccc(C(=O)N2CCCCC2)c1 (3D coordinates assigned)
C=c1c(=Cc2[n-]c(=O)[n-]c2O)cc(C)n1-c1cccc(C(=O)N2CCCCC2)c1 (nonaromatic ring conformer: 133.0323678360988 kcal/mol)

>  <smiles>  (31) 
C=c1c(=Cc2[nH]c(=O)[nH]c2O)cc(C)n1-c1cccc(C(=O)N2CCCCC2)c1

>  <score_type>  (31) 
oracle

>  <origin>  (31) 
adg

>  <m_score__min__energy>  (31) 
-14.76

>  <m_primary>  (31) 
energy

$$$$
31:0
     RDKit          3D

 56 58  0  0  0  0  0  0  0  0999 V2000
   57.1150   24.8910   44.3930 C   0  0  0  0  0  0  0  0  0  0  0  0
   56.7110   25.7900   45.4200 O   0  0  0  0  0  0  0  0  0  0  0  0
   57.2900   27.0460   45.6430 C   0  0  0  0  0  0  0  0  0  0  0  0
   58.5140   27.0990   46.3160 C   0  0  0  0  0  0  0  0  0  0  0  0
   59.1480   28.3220   46.5380 C   0  0  0  0  0  0  0  0  0  0  0  0
   58.5770   29.5130   46.0720 C   0  0  0  0  0  0  0  0  0  0  0  0
   59.3340   30.7680   46.2430 C   0  0  0  0  0  0  0  0  0  0  0  0
   58.8690   31.8260   46.9280 C   0  0  0  0  0  0  0  0  0  0  0  0
   58.8560   31.8730   48.4000 C   0  0  0  0  0  0  0  0  0  0  0  0
   58.1120   32.7000   48.9920 O   0  0  0  0  0  0  0  0  0  0  0  0
   59.5850   30.9070   49.1650 N   0  0  0  0  0  0  0  0  0  0  0  0
   58.8570   29.8830   49.9190 C   0  0  0  0  0  0  0  0  0  0  0  0
   59.4770   29.6700   51.3170 C   0  0  0  0  0  0  0  0  0  0  0  0
   60.8990   30.0800   51.4230 N   0  0  0  0  0  0  0  0  0  0  0  0
   61.0380   31.4330   51.9960 C   0  0  0  0  0  0  0  0  0  0  0  0
   61.6310   29.9350   50.1480 C   0  0  0  0  0  0  0  0  0  0  0  0
   61.0410   30.8280   49.0480 C   0  0  0  0  0  0  0  0  0  0  0  0
   58.1310   33.1800   46.0750 S   0  0  0  0  0  0  0  0  0  0  0  0
   58.0250   32.8800   44.6060 O   0  0  0  0  0  0  0  0  0  0  0  0
   56.7550   33.4190   46.6320 O   0  0  0  0  0  0  0  0  0  0  0  0
   59.1450   34.6360   46.2880 C   0  0  0  0  0  0  0  0  0  0  0  0
   60.4060   34.3020   47.0340 C   0  0  0  0  0  0  0  0  0  0  0  0
   61.5150   33.7760   46.3520 C   0  0  0  0  0  0  0  0  0  0  0  0
   62.6880   33.4680   47.0500 C   0  0  0  0  0  0  0  0  0  0  0  0
   62.7630   33.6930   48.4270 C   0  0  0  0  0  0  0  0  0  0  0  0
   61.6690   34.2320   49.1080 C   0  0  0  0  0  0  0  0  0  0  0  0
   60.4950   34.5400   48.4150 C   0  0  0  0  0  0  0  0  0  0  0  0
   57.3110   29.4760   45.4450 C   0  0  0  0  0  0  0  0  0  0  0  0
   56.6440   30.6410   45.0600 O   0  0  0  0  0  0  0  0  0  0  0  0
   56.6870   28.2450   45.2170 C   0  0  0  0  0  0  0  0  0  0  0  0
   57.5258   23.9769   44.8466 H   0  0  0  0  0  0  0  0  0  0  0  0
   56.2465   24.6325   43.7694 H   0  0  0  0  0  0  0  0  0  0  0  0
   57.8849   25.3688   43.7694 H   0  0  0  0  0  0  0  0  0  0  0  0
   58.9810   26.1694   46.6734 H   0  0  0  0  0  0  0  0  0  0  0  0
   60.1031   28.3510   47.0829 H   0  0  0  0  0  0  0  0  0  0  0  0
   60.3317   30.8411   45.7855 H   0  0  0  0  0  0  0  0  0  0  0  0
   57.8102   30.2001   50.0356 H   0  0  0  0  0  0  0  0  0  0  0  0
   58.9165   28.9350   49.3643 H   0  0  0  0  0  0  0  0  0  0  0  0
   58.8948   30.2543   52.0448 H   0  0  0  0  0  0  0  0  0  0  0  0
   59.4454   28.5883   51.5142 H   0  0  0  0  0  0  0  0  0  0  0  0
   61.0314   31.3686   53.0941 H   0  0  0  0  0  0  0  0  0  0  0  0
   61.9865   31.8776   51.6605 H   0  0  0  0  0  0  0  0  0  0  0  0
   60.1997   32.0612   51.6605 H   0  0  0  0  0  0  0  0  0  0  0  0
   62.6829   30.2143   50.3075 H   0  0  0  0  0  0  0  0  0  0  0  0
   61.5454   28.8881   49.8214 H   0  0  0  0  0  0  0  0  0  0  0  0
   61.4650   31.8389   49.1387 H   0  0  0  0  0  0  0  0  0  0  0  0
   61.2919   30.3926   48.0695 H   0  0  0  0  0  0  0  0  0  0  0  0
   59.4071   35.0410   45.2994 H   0  0  0  0  0  0  0  0  0  0  0  0
   58.5781   35.3794   46.8676 H   0  0  0  0  0  0  0  0  0  0  0  0
   61.4615   33.6057   45.2666 H   0  0  0  0  0  0  0  0  0  0  0  0
   63.5521   33.0483   46.5141 H   0  0  0  0  0  0  0  0  0  0  0  0
   63.6841   33.4455   48.9751 H   0  0  0  0  0  0  0  0  0  0  0  0
   61.7315   34.4143   50.1910 H   0  0  0  0  0  0  0  0  0  0  0  0
   59.6377   34.9704   48.9533 H   0  0  0  0  0  0  0  0  0  0  0  0
   56.6540   31.4860   45.6210 H   0  0  0  0  0  0  0  0  0  0  0  0
   55.7165   28.2134   44.7002 H   0  0  0  0  0  0  0  0  0  0  0  0
  1  2  1  0
  2  3  1  0
  3  4  2  0
  4  5  1  0
  5  6  2  0
  6  7  1  0
  7  8  2  3
  8  9  1  0
  9 10  2  0
  9 11  1  0
 11 12  1  0
 12 13  1  0
 13 14  1  0
 14 15  1  0
 14 16  1  0
 16 17  1  0
  8 18  1  0
 18 19  2  0
 18 20  2  0
 18 21  1  0
 21 22  1  0
 22 23  2  0
 23 24  1  0
 24 25  2  0
 25 26  1  0
 26 27  2  0
  6 28  1  0
 28 29  1  0
 28 30  2  0
 30  3  1  0
 17 11  1  0
 27 22  1  0
  1 31  1  0
  1 32  1  0
  1 33  1  0
  4 34  1  0
  5 35  1  0
  7 36  1  0
 12 37  1  0
 12 38  1  0
 13 39  1  0
 13 40  1  0
 15 41  1  0
 15 42  1  0
 15 43  1  0
 16 44  1  0
 16 45  1  0
 17 46  1  0
 17 47  1  0
 21 48  1  0
 21 49  1  0
 23 50  1  0
 24 51  1  0
 25 52  1  0
 26 53  1  0
 27 54  1  0
 29 55  1  0
 30 56  1  0
M  END
>  <UniqueID>  (32) 
29

>  <SMILES>  (32) 
COc1ccc(C=C(C(=O)N2CCN(C)CC2)S(=O)(=O)Cc2ccccc2)c(O)c1

>  <Energy>  (32) 
78.14168846086835

>  <Genealogy>  (32) 
COc1ccc(C=C(C(=O)N2CCN(C)CC2)S(=O)(=O)Cc2ccccc2)c(O)c1 (3D coordinates assigned)
COc1ccc(C=C(C(=O)N2CCN(C)CC2)S(=O)(=O)Cc2ccccc2)c(O)c1 (nonaromatic ring conformer: 78.14168846086835 kcal/mol)

>  <smiles>  (32) 
COc1ccc(C=C(C(=O)N2CCN(C)CC2)S(=O)(=O)Cc2ccccc2)c(O)c1

>  <score_type>  (32) 
oracle

>  <origin>  (32) 
adg

>  <m_score__min__energy>  (32) 
-9.6699999999999999

>  <m_primary>  (32) 
energy

$$$$
32:0
     RDKit          3D

 16 17  0  0  0  0  0  0  0  0999 V2000
   55.1400   26.7020   46.0010 O   0  0  0  0  0  0  0  0  0  0  0  0
   56.5140   26.9490   45.9340 C   0  0  0  0  0  0  0  0  0  0  0  0
   57.2910   26.2780   46.8790 C   0  0  0  0  0  0  0  0  0  0  0  0
   58.6590   26.5180   46.8210 C   0  0  0  0  0  0  0  0  0  0  0  0
   59.2310   27.3590   45.8960 C   0  0  0  0  0  0  0  0  0  0  0  0
   60.4880   27.7620   45.6200 N   0  0  0  0  0  0  0  0  0  0  0  0
   60.4620   28.6210   44.5730 C   0  0  0  0  0  0  0  0  0  0  0  0
   59.1750   28.7810   44.1620 N   0  0  0  0  0  0  0  0  0  0  0  0
   58.4350   28.0070   44.9740 C   0  0  0  0  0  0  0  0  0  0  0  0
   57.0680   27.7980   44.9970 C   0  0  0  0  0  0  0  0  0  0  0  0
   54.7370   25.8710   46.3820 H   0  0  0  0  0  0  0  0  0  0  0  0
   56.8482   25.6007   47.6241 H   0  0  0  0  0  0  0  0  0  0  0  0
   59.3127   26.0127   47.5472 H   0  0  0  0  0  0  0  0  0  0  0  0
   61.3402   29.1105   44.1268 H   0  0  0  0  0  0  0  0  0  0  0  0
   58.8260   29.3720   43.3830 H   0  0  0  0  0  0  0  0  0  0  0  0
   56.4217   28.3087   44.2680 H   0  0  0  0  0  0  0  0  0  0  0  0
  1  2  1  0
  2  3  2  0
  3  4  1  0
  4  5  2  0
  5  6  1  0
  6  7  2  0
  7  8  1  0
  8  9  1  0
  9 10  2  0
 10  2  1  0
  9  5  1  0
  1 11  1  0
  3 12  1  0
  4 13  1  0
  7 14  1  0
  8 15  1  0
 10 16  1  0
M  END
>  <smiles>  (33) 
Oc1ccc2nc[nH]c2c1

>  <score_type>  (33) 
oracle

>  <origin>  (33) 
adg

>  <m_score__min__energy>  (33) 
-4.9800000000000004

>  <m_primary>  (33) 
energy

$$$$
33:0
     RDKit          3D

 36 38  0  0  0  0  0  0  0  0999 V2000
   55.0090   24.4170   45.5100 C   0  0  0  0  0  0  0  0  0  0  0  0
   55.6530   24.9760   46.6510 O   0  0  0  0  0  0  0  0  0  0  0  0
   56.9090   25.6020   46.6260 C   0  0  0  0  0  0  0  0  0  0  0  0
   58.0710   24.9770   47.1130 C   0  0  0  0  0  0  0  0  0  0  0  0
   59.2660   25.6220   47.0690 N   0  0  0  0  0  0  0  0  0  0  0  0
   59.3890   26.8760   46.5620 C   0  0  0  0  0  0  0  0  0  0  0  0
   58.2620   27.5490   46.0610 C   0  0  0  0  0  0  0  0  0  0  0  0
   58.3400   28.8500   45.5300 C   0  0  0  0  0  0  0  0  0  0  0  0
   59.4490   29.4530   45.5080 O   0  0  0  0  0  0  0  0  0  0  0  0
   57.1750   29.4850   45.0390 C   0  0  0  0  0  0  0  0  0  0  0  0
   57.2330   30.8610   44.4750 C   0  0  0  0  0  0  0  0  0  0  0  0
   57.7290   31.0560   43.3320 O   0  0  0  0  0  0  0  0  0  0  0  0
   56.7370   31.9750   45.2270 N   0  0  0  0  0  0  0  0  0  0  0  0
   57.2530   33.3330   45.1000 C   0  0  0  0  0  0  0  0  0  0  0  0
   58.3840   33.5530   46.0680 C   0  0  0  0  0  0  0  0  0  0  0  0
   59.6110   34.0750   45.6280 C   0  0  0  0  0  0  0  0  0  0  0  0
   60.6630   34.2550   46.5310 C   0  0  0  0  0  0  0  0  0  0  0  0
   60.5000   33.9140   47.8770 C   0  0  0  0  0  0  0  0  0  0  0  0
   61.8220   34.1400   49.0080 Cl  0  0  0  0  0  0  0  0  0  0  0  0
   59.2820   33.3880   48.3210 C   0  0  0  0  0  0  0  0  0  0  0  0
   58.2280   33.2060   47.4210 C   0  0  0  0  0  0  0  0  0  0  0  0
   55.9540   28.7780   45.0980 C   0  0  0  0  0  0  0  0  0  0  0  0
   54.7770   29.3350   44.6090 O   0  0  0  0  0  0  0  0  0  0  0  0
   55.9100   27.5260   45.6200 N   0  0  0  0  0  0  0  0  0  0  0  0
   57.0140   26.8960   46.0980 C   0  0  0  0  0  0  0  0  0  0  0  0
   54.2159   23.7286   45.8372 H   0  0  0  0  0  0  0  0  0  0  0  0
   54.5682   25.2236   44.9059 H   0  0  0  0  0  0  0  0  0  0  0  0
   55.7456   23.8671   44.9059 H   0  0  0  0  0  0  0  0  0  0  0  0
   58.0121   23.9614   47.5314 H   0  0  0  0  0  0  0  0  0  0  0  0
   60.3736   27.3660   46.5436 H   0  0  0  0  0  0  0  0  0  0  0  0
   57.6178   33.4884   44.0739 H   0  0  0  0  0  0  0  0  0  0  0  0
   56.4456   34.0457   45.3241 H   0  0  0  0  0  0  0  0  0  0  0  0
   59.7449   34.3431   44.5696 H   0  0  0  0  0  0  0  0  0  0  0  0
   61.6216   34.6660   46.1815 H   0  0  0  0  0  0  0  0  0  0  0  0
   59.1536   33.1174   49.3794 H   0  0  0  0  0  0  0  0  0  0  0  0
   57.2727   32.7895   47.7731 H   0  0  0  0  0  0  0  0  0  0  0  0
  1  2  1  0
  2  3  1  0
  3  4  2  0
  4  5  1  0
  5  6  2  0
  6  7  1  0
  7  8  1  0
  8  9  2  0
  8 10  1  0
 10 11  1  0
 11 12  2  0
 11 13  1  0
 13 14  1  0
 14 15  1  0
 15 16  2  0
 16 17  1  0
 17 18  2  0
 18 19  1  0
 18 20  1  0
 20 21  2  0
 10 22  2  0
 22 23  1  0
 22 24  1  0
 24 25  1  0
 25  3  1  0
 25  7  2  0
 21 15  1  0
  1 26  1  0
  1 27  1  0
  1 28  1  0
  4 29  1  0
  6 30  1  0
 14 31  1  0
 14 32  1  0
 16 33  1  0
 17 34  1  0
 20 35  1  0
 21 36  1  0
M  CHG  3  13  -1  23  -1  24  -1
M  END
>  <UniqueID>  (34) 
30

>  <SMILES>  (34) 
COc1cncc2c(=O)c(C(=O)[N-]Cc3ccc(Cl)cc3)c([O-])[n-]c12

>  <Energy>  (34) 
46.521430328006105

>  <Genealogy>  (34) 
COc1cncc2c(=O)c(C(=O)[N-]Cc3ccc(Cl)cc3)c([O-])[n-]c12 (protonated)
COc1cncc2c(=O)c(C(=O)[N-]Cc3ccc(Cl)cc3)c([O-])[n-]c12 (3D coordinates assigned)
COc1cncc2c(=O)c(C(=O)[N-]Cc3ccc(Cl)cc3)c([O-])[n-]c12 (optimized conformer: 46.521430328006105 kcal/mol)

>  <smiles>  (34) 
COc1cncc2c(=O)c(C(=O)NCc3ccc(Cl)cc3)c(O)[nH]c12

>  <score_type>  (34) 
oracle

>  <origin>  (34) 
adg

>  <m_score__min__energy>  (34) 
-14.94

>  <m_primary>  (34) 
energy

$$$$
34:0
     RDKit          3D

 33 35  0  0  0  0  0  0  0  0999 V2000
   54.3340   27.1330   46.3750 H   0  0  0  0  0  0  0  0  0  0  0  0
   54.5990   26.2700   45.9190 O   0  0  0  0  0  0  0  0  0  0  0  0
   55.9080   25.7770   45.9060 C   0  0  0  0  0  0  0  0  0  0  0  0
   57.0080   26.5980   45.5490 C   0  0  0  0  0  0  0  0  0  0  0  0
   56.8680   28.0520   45.3200 C   0  0  0  0  0  0  0  0  0  0  0  0
   55.7140   28.5560   45.2330 O   0  0  0  0  0  0  0  0  0  0  0  0
   58.0400   28.8610   45.1270 N   0  0  0  0  0  0  0  0  0  0  0  0
   58.1340   30.1430   45.3280 C   0  0  0  0  0  0  0  0  0  0  0  0
   57.1590   31.0310   44.9940 N   0  0  0  0  0  0  0  0  0  0  0  0
   57.6920   32.1980   45.3840 C   0  0  0  0  0  0  0  0  0  0  0  0
   57.1250   33.4670   45.2840 C   0  0  0  0  0  0  0  0  0  0  0  0
   56.1263   33.6115   44.8461 H   0  0  0  0  0  0  0  0  0  0  0  0
   57.8750   34.5570   45.7630 C   0  0  0  0  0  0  0  0  0  0  0  0
   57.4618   35.5745   45.7008 H   0  0  0  0  0  0  0  0  0  0  0  0
   59.1570   34.3520   46.3240 C   0  0  0  0  0  0  0  0  0  0  0  0
   59.7344   35.2106   46.6974 H   0  0  0  0  0  0  0  0  0  0  0  0
   59.6980   33.0550   46.4070 C   0  0  0  0  0  0  0  0  0  0  0  0
   61.2880   32.7840   47.1000 Cl  0  0  0  0  0  0  0  0  0  0  0  0
   58.9270   31.9990   45.9220 C   0  0  0  0  0  0  0  0  0  0  0  0
   59.2350   30.6930   45.9000 N   0  0  0  0  0  0  0  0  0  0  0  0
   58.2850   26.0230   45.4370 C   0  0  0  0  0  0  0  0  0  0  0  0
   59.1376   26.6458   45.1285 H   0  0  0  0  0  0  0  0  0  0  0  0
   58.4820   24.6710   45.7130 C   0  0  0  0  0  0  0  0  0  0  0  0
   59.4864   24.2327   45.6178 H   0  0  0  0  0  0  0  0  0  0  0  0
   57.4110   23.8730   46.1090 C   0  0  0  0  0  0  0  0  0  0  0  0
   57.5763   22.8093   46.3353 H   0  0  0  0  0  0  0  0  0  0  0  0
   56.1220   24.4180   46.2210 C   0  0  0  0  0  0  0  0  0  0  0  0
   54.9720   23.5200   46.6000 C   0  0  0  0  0  0  0  0  0  0  0  0
   54.2209   24.1049   47.1511 H   0  0  0  0  0  0  0  0  0  0  0  0
   55.3491   22.7019   47.2313 H   0  0  0  0  0  0  0  0  0  0  0  0
   54.3430   22.9390   45.3740 C   0  0  0  0  0  0  0  0  0  0  0  0
   55.0620   22.5650   44.4100 O   0  0  0  0  0  0  0  0  0  0  0  0
   52.9600   22.8540   45.2740 O   0  0  0  0  0  0  0  0  0  0  0  0
  1  2  1  0
  2  3  1  0
  3  4  2  0
  4  5  1  0
  5  6  2  0
  5  7  1  0
  7  8  2  0
  8  9  1  0
  9 10  1  0
 10 11  2  0
 11 12  1  0
 11 13  1  0
 13 14  1  0
 13 15  2  0
 15 16  1  0
 15 17  1  0
 17 18  1  0
 17 19  2  0
 19 20  1  0
  4 21  1  0
 21 22  1  0
 21 23  2  0
 23 24  1  0
 23 25  1  0
 25 26  1  0
 25 27  2  0
 27 28  1  0
 28 29  1  0
 28 30  1  0
 28 31  1  0
 31 32  2  0
 31 33  1  0
 27  3  1  0
 20  8  1  0
 19 10  1  0
M  CHG  3   9  -1  20  -1  33  -1
M  END
>  <UniqueID>  (35) 
31

>  <SMILES>  (35) 
O=C([O-])Cc1cccc(C(=O)/N=c2\[n-]c3cccc(Cl)c3[n-]2)c1O

>  <Energy>  (35) 
77.89987205304891

>  <Genealogy>  (35) 
O=C([O-])Cc1cccc(C(=O)N=c2[n-]c3cccc(Cl)c3[n-]2)c1O (protonated)
O=C([O-])Cc1cccc(C(=O)/N=c2\[n-]c3cccc(Cl)c3[n-]2)c1O (cis-trans isomerization)
O=C([O-])Cc1cccc(C(=O)/N=c2\[n-]c3cccc(Cl)c3[n-]2)c1O (3D coordinates assigned)
O=C([O-])Cc1cccc(C(=O)/N=c2\[n-]c3cccc(Cl)c3[n-]2)c1O (optimized conformer: 77.89987205304891 kcal/mol)

>  <smiles>  (35) 
O=C(O)Cc1cccc(C(=O)N=c2[nH]c3cccc(Cl)c3[nH]2)c1O

>  <score_type>  (35) 
oracle

>  <origin>  (35) 
adg

>  <m_score__min__energy>  (35) 
-13.48

>  <m_primary>  (35) 
energy

$$$$
35:0
     RDKit          3D

 26 27  0  0  0  0  0  0  0  0999 V2000
   54.8050   29.3480   44.3560 O   0  0  0  0  0  0  0  0  0  0  0  0
   55.9190   29.6820   44.8360 C   0  0  0  0  0  0  0  0  0  0  0  0
   56.6980   28.7670   45.6130 N   0  0  0  0  0  0  0  0  0  0  0  0
   58.1040   28.5100   45.4720 C   0  0  0  0  0  0  0  0  0  0  0  0
   58.9240   29.3600   44.7050 C   0  0  0  0  0  0  0  0  0  0  0  0
   60.2950   29.1170   44.6010 C   0  0  0  0  0  0  0  0  0  0  0  0
   60.8660   28.0370   45.2720 C   0  0  0  0  0  0  0  0  0  0  0  0
   60.0710   27.1990   46.0550 C   0  0  0  0  0  0  0  0  0  0  0  0
   58.6880   27.4260   46.1670 C   0  0  0  0  0  0  0  0  0  0  0  0
   57.8460   26.4930   47.0060 C   0  0  0  0  0  0  0  0  0  0  0  0
   57.1320   25.5300   46.1590 N   0  0  0  0  0  0  0  0  0  0  0  0
   55.8680   25.6230   45.7130 C   0  0  0  0  0  0  0  0  0  0  0  0
   55.0020   26.6740   46.0020 O   0  0  0  0  0  0  0  0  0  0  0  0
   55.5720   24.5220   44.9450 C   0  0  0  0  0  0  0  0  0  0  0  0
   56.6520   23.7140   44.9070 N   0  0  0  0  0  0  0  0  0  0  0  0
   57.5770   24.3560   45.6530 C   0  0  0  0  0  0  0  0  0  0  0  0
   59.0680   23.7340   45.9260 S   0  0  0  0  0  0  0  0  0  0  0  0
   56.3017   30.6973   44.6548 H   0  0  0  0  0  0  0  0  0  0  0  0
   58.4812   30.2217   44.1840 H   0  0  0  0  0  0  0  0  0  0  0  0
   60.9253   29.7787   43.9887 H   0  0  0  0  0  0  0  0  0  0  0  0
   61.9455   27.8448   45.1842 H   0  0  0  0  0  0  0  0  0  0  0  0
   60.5301   26.3539   46.5889 H   0  0  0  0  0  0  0  0  0  0  0  0
   58.4989   25.9461   47.7022 H   0  0  0  0  0  0  0  0  0  0  0  0
   57.1070   27.0891   47.5615 H   0  0  0  0  0  0  0  0  0  0  0  0
   55.1440   27.5910   45.5970 H   0  0  0  0  0  0  0  0  0  0  0  0
   54.6118   24.3309   44.4435 H   0  0  0  0  0  0  0  0  0  0  0  0
  1  2  2  0
  2  3  1  0
  3  4  1  0
  4  5  2  0
  5  6  1  0
  6  7  2  0
  7  8  1  0
  8  9  2  0
  9 10  1  0
 10 11  1  0
 11 12  1  0
 12 13  1  0
 12 14  2  0
 14 15  1  0
 15 16  1  0
 16 17  2  0
  9  4  1  0
 16 11  1  0
  2 18  1  0
  5 19  1  0
  6 20  1  0
  7 21  1  0
  8 22  1  0
 10 23  1  0
 10 24  1  0
 13 25  1  0
 14 26  1  0
M  CHG  2   3  -1  15  -1
M  END
>  <UniqueID>  (36) 
32

>  <SMILES>  (36) 
O=C[N-]c1ccccc1Cn1c(O)c[n-]c1=S

>  <Energy>  (36) 
60.77957448643034

>  <Genealogy>  (36) 
O=C[N-]c1ccccc1Cn1c(O)c[n-]c1=S (protonated)
O=C[N-]c1ccccc1Cn1c(O)c[n-]c1=S (3D coordinates assigned)
O=C[N-]c1ccccc1Cn1c(O)c[n-]c1=S (optimized conformer: 60.77957448643034 kcal/mol)

>  <smiles>  (36) 
O=CNc1ccccc1Cn1c(O)c[nH]c1=S

>  <score_type>  (36) 
oracle

>  <origin>  (36) 
adg

>  <m_score__min__energy>  (36) 
-9.8900000000000006

>  <m_primary>  (36) 
energy

$$$$
36:0
     RDKit          3D

 44 47  0  0  0  0  0  0  0  0999 V2000
   63.3173   30.4950   51.0880 H   0  0  0  0  0  0  0  0  0  0  0  0
   64.0970   31.2190   50.8090 C   0  0  0  0  0  0  0  0  0  0  0  0
   65.3050   31.1860   51.4320 N   0  0  0  0  0  0  0  0  0  0  0  0
   66.3000   32.0530   51.1100 C   0  0  0  0  0  0  0  0  0  0  0  0
   67.8370   31.9610   51.9460 Cl  0  0  0  0  0  0  0  0  0  0  0  0
   66.1000   33.0060   50.1090 C   0  0  0  0  0  0  0  0  0  0  0  0
   66.9044   33.7065   49.8404 H   0  0  0  0  0  0  0  0  0  0  0  0
   64.8680   33.0610   49.4520 C   0  0  0  0  0  0  0  0  0  0  0  0
   64.7029   33.7995   48.6537 H   0  0  0  0  0  0  0  0  0  0  0  0
   63.8400   32.1730   49.8110 C   0  0  0  0  0  0  0  0  0  0  0  0
   62.5660   32.1830   49.1450 N   0  0  0  0  0  0  0  0  0  0  0  0
   62.0960   31.2640   48.9780 H   0  0  0  0  0  0  0  0  0  0  0  0
   61.8330   33.3820   48.8420 C   0  0  0  0  0  0  0  0  0  0  0  0
   62.0700   34.4380   49.4890 O   0  0  0  0  0  0  0  0  0  0  0  0
   60.7610   33.3800   47.8180 C   0  0  0  0  0  0  0  0  0  0  0  0
   59.6070   32.5980   48.0020 C   0  0  0  0  0  0  0  0  0  0  0  0
   59.5005   31.9888   48.9117 H   0  0  0  0  0  0  0  0  0  0  0  0
   58.5940   32.5880   47.0390 C   0  0  0  0  0  0  0  0  0  0  0  0
   57.6912   31.9809   47.2014 H   0  0  0  0  0  0  0  0  0  0  0  0
   58.7220   33.3480   45.8660 C   0  0  0  0  0  0  0  0  0  0  0  0
   57.6250   33.3580   44.8270 C   0  0  0  0  0  0  0  0  0  0  0  0
   56.6618   33.5281   45.3303 H   0  0  0  0  0  0  0  0  0  0  0  0
   57.8478   34.1601   44.1080 H   0  0  0  0  0  0  0  0  0  0  0  0
   57.5540   32.0960   44.0860 N   0  0  0  0  0  0  0  0  0  0  0  0
   57.1570   30.8840   44.3880 C   0  0  0  0  0  0  0  0  0  0  0  0
   55.8410   30.5770   44.0130 C   0  0  0  0  0  0  0  0  0  0  0  0
   55.2854   31.2715   43.3658 H   0  0  0  0  0  0  0  0  0  0  0  0
   55.2290   29.4070   44.4480 C   0  0  0  0  0  0  0  0  0  0  0  0
   54.1919   29.1876   44.1542 H   0  0  0  0  0  0  0  0  0  0  0  0
   55.9070   28.5380   45.2320 N   0  0  0  0  0  0  0  0  0  0  0  0
   57.2020   28.7450   45.5820 C   0  0  0  0  0  0  0  0  0  0  0  0
   57.8460   27.7820   46.3670 C   0  0  0  0  0  0  0  0  0  0  0  0
   57.2826   26.9132   46.7381 H   0  0  0  0  0  0  0  0  0  0  0  0
   59.1950   27.9170   46.6810 C   0  0  0  0  0  0  0  0  0  0  0  0
   59.6893   27.1721   47.3219 H   0  0  0  0  0  0  0  0  0  0  0  0
   59.9170   28.9970   46.1820 C   0  0  0  0  0  0  0  0  0  0  0  0
   60.9905   29.0868   46.4044 H   0  0  0  0  0  0  0  0  0  0  0  0
   59.2860   29.9680   45.4000 C   0  0  0  0  0  0  0  0  0  0  0  0
   59.8790   30.7965   44.9853 H   0  0  0  0  0  0  0  0  0  0  0  0
   57.8990   29.9050   45.1320 C   0  0  0  0  0  0  0  0  0  0  0  0
   59.8500   34.1650   45.7010 C   0  0  0  0  0  0  0  0  0  0  0  0
   59.9366   34.8026   44.8088 H   0  0  0  0  0  0  0  0  0  0  0  0
   60.8650   34.1750   46.6620 C   0  0  0  0  0  0  0  0  0  0  0  0
   61.7515   34.8091   46.5133 H   0  0  0  0  0  0  0  0  0  0  0  0
  1  2  1  0
  2  3  2  0
  3  4  1  0
  4  5  1  0
  4  6  2  0
  6  7  1  0
  6  8  1  0
  8  9  1  0
  8 10  2  0
 10 11  1  0
 11 12  1  0
 11 13  1  0
 13 14  2  0
 13 15  1  0
 15 16  2  0
 16 17  1  0
 16 18  1  0
 18 19  1  0
 18 20  2  0
 20 21  1  0
 21 22  1  0
 21 23  1  0
 21 24  1  0
 24 25  2  0
 25 26  1  0
 26 27  1  0
 26 28  2  0
 28 29  1  0
 28 30  1  0
 30 31  1  0
 31 32  2  0
 32 33  1  0
 32 34  1  0
 34 35  1  0
 34 36  2  0
 36 37  1  0
 36 38  1  0
 38 39  1  0
 38 40  2  0
 20 41  1  0
 41 42  1  0
 41 43  2  0
 43 44  1  0
 10  2  1  0
 43 15  1  0
 40 25  1  0
 40 31  1  0
M  CHG  1  30  -1
M  END
>  <UniqueID>  (37) 
33

>  <SMILES>  (37) 
O=C(Nc1ccc(Cl)nc1)c1ccc(C/N=c2/cc[n-]c3ccccc23)cc1

>  <Energy>  (37) 
74.67646219283233

>  <Genealogy>  (37) 
O=C(Nc1ccc(Cl)nc1)c1ccc(CN=c2cc[n-]c3ccccc23)cc1 (protonated)
O=C(Nc1ccc(Cl)nc1)c1ccc(C/N=c2/cc[n-]c3ccccc23)cc1 (cis-trans isomerization)
O=C(Nc1ccc(Cl)nc1)c1ccc(C/N=c2/cc[n-]c3ccccc23)cc1 (3D coordinates assigned)
O=C(Nc1ccc(Cl)nc1)c1ccc(C/N=c2/cc[n-]c3ccccc23)cc1 (optimized conformer: 74.67646219283233 kcal/mol)

>  <smiles>  (37) 
O=C(Nc1ccc(Cl)nc1)c1ccc(CN=c2cc[nH]c3ccccc23)cc1

>  <score_type>  (37) 
oracle

>  <origin>  (37) 
adg

>  <m_score__min__energy>  (37) 
-10.119999999999999

>  <m_primary>  (37) 
energy

$$$$
37:0
     RDKit          3D

 44 47  0  0  0  0  0  0  0  0999 V2000
   57.4040   32.9620   45.6100 C   0  0  0  0  0  0  0  0  0  0  0  0
   58.2540   33.1730   46.8280 C   0  0  0  0  0  0  0  0  0  0  0  0
   58.8370   34.4260   47.0710 C   0  0  0  0  0  0  0  0  0  0  0  0
   59.6430   34.6200   48.1950 C   0  0  0  0  0  0  0  0  0  0  0  0
   59.8900   33.5610   49.0810 C   0  0  0  0  0  0  0  0  0  0  0  0
   60.6450   33.7820   50.2320 O   0  0  0  0  0  0  0  0  0  0  0  0
   59.3510   32.2840   48.8170 C   0  0  0  0  0  0  0  0  0  0  0  0
   59.5780   31.1700   49.6950 N   0  0  0  0  0  0  0  0  0  0  0  0
   58.5960   30.1930   50.0540 C   0  0  0  0  0  0  0  0  0  0  0  0
   58.4920   29.1430   49.3680 O   0  0  0  0  0  0  0  0  0  0  0  0
   57.7430   30.3710   51.2400 C   0  0  0  0  0  0  0  0  0  0  0  0
   57.3230   31.5770   51.6850 N   0  0  0  0  0  0  0  0  0  0  0  0
   56.5690   31.2420   52.7460 C   0  0  0  0  0  0  0  0  0  0  0  0
   56.5320   29.9080   52.9170 N   0  0  0  0  0  0  0  0  0  0  0  0
   55.7620   29.1710   53.9150 C   0  0  0  0  0  0  0  0  0  0  0  0
   54.3580   28.9230   53.4330 C   0  0  0  0  0  0  0  0  0  0  0  0
   54.0280   27.7520   53.1090 O   0  0  0  0  0  0  0  0  0  0  0  0
   53.3700   30.0110   53.2780 C   0  0  0  0  0  0  0  0  0  0  0  0
   52.8770   30.7920   54.3190 C   0  0  0  0  0  0  0  0  0  0  0  0
   51.9480   31.6600   53.8610 N   0  0  0  0  0  0  0  0  0  0  0  0
   51.8510   31.4410   52.5390 C   0  0  0  0  0  0  0  0  0  0  0  0
   51.0130   32.0950   51.6360 C   0  0  0  0  0  0  0  0  0  0  0  0
   50.1350   33.0880   52.0600 O   0  0  0  0  0  0  0  0  0  0  0  0
   51.0810   31.7230   50.2810 C   0  0  0  0  0  0  0  0  0  0  0  0
   50.2590   32.3410   49.3480 O   0  0  0  0  0  0  0  0  0  0  0  0
   51.9900   30.7270   49.8620 C   0  0  0  0  0  0  0  0  0  0  0  0
   52.8260   30.0870   50.7940 C   0  0  0  0  0  0  0  0  0  0  0  0
   52.7100   30.4480   52.1380 C   0  0  0  0  0  0  0  0  0  0  0  0
   57.2760   29.3460   51.9820 N   0  0  0  0  0  0  0  0  0  0  0  0
   58.5210   32.1050   47.7010 C   0  0  0  0  0  0  0  0  0  0  0  0
   56.3790   32.7076   45.9178 H   0  0  0  0  0  0  0  0  0  0  0  0
   57.3885   33.8835   45.0096 H   0  0  0  0  0  0  0  0  0  0  0  0
   57.8212   32.1402   45.0096 H   0  0  0  0  0  0  0  0  0  0  0  0
   58.6587   35.2581   46.3740 H   0  0  0  0  0  0  0  0  0  0  0  0
   60.0864   35.6083   48.3864 H   0  0  0  0  0  0  0  0  0  0  0  0
   60.8290   33.0380   50.8950 H   0  0  0  0  0  0  0  0  0  0  0  0
   56.0491   31.9653   53.3914 H   0  0  0  0  0  0  0  0  0  0  0  0
   56.2526   28.2055   54.1077 H   0  0  0  0  0  0  0  0  0  0  0  0
   55.7170   29.7694   54.8369 H   0  0  0  0  0  0  0  0  0  0  0  0
   53.1986   30.7137   55.3680 H   0  0  0  0  0  0  0  0  0  0  0  0
   51.4100   32.3500   54.4290 H   0  0  0  0  0  0  0  0  0  0  0  0
   52.0445   30.4498   48.7989 H   0  0  0  0  0  0  0  0  0  0  0  0
   53.5506   29.3239   50.4736 H   0  0  0  0  0  0  0  0  0  0  0  0
   58.0745   31.1186   47.5071 H   0  0  0  0  0  0  0  0  0  0  0  0
  1  2  1  0
  2  3  2  0
  3  4  1  0
  4  5  2  0
  5  6  1  0
  5  7  1  0
  7  8  1  0
  8  9  1  0
  9 10  2  0
  9 11  1  0
 11 12  1  0
 12 13  2  0
 13 14  1  0
 14 15  1  0
 15 16  1  0
 16 17  2  0
 16 18  1  0
 18 19  2  0
 19 20  1  0
 20 21  1  0
 21 22  2  0
 22 23  1  0
 22 24  1  0
 24 25  1  0
 24 26  2  0
 26 27  1  0
 27 28  2  0
 14 29  1  0
  7 30  2  0
 30  2  1  0
 29 11  2  0
 28 18  1  0
 28 21  1  0
  1 31  1  0
  1 32  1  0
  1 33  1  0
  3 34  1  0
  4 35  1  0
  6 36  1  0
 13 37  1  0
 15 38  1  0
 15 39  1  0
 19 40  1  0
 20 41  1  0
 26 42  1  0
 27 43  1  0
 30 44  1  0
M  CHG  3   8  -1  23  -1  25  -1
M  END
>  <UniqueID>  (38) 
34

>  <SMILES>  (38) 
Cc1ccc(O)c([N-]C(=O)c2ncn(CC(=O)c3c[nH]c4c([O-])c([O-])ccc34)n2)c1

>  <Energy>  (38) 
118.83830877052665

>  <Genealogy>  (38) 
Cc1ccc(O)c([N-]C(=O)c2ncn(CC(=O)c3c[nH]c4c([O-])c([O-])ccc34)n2)c1 (protonated)
Cc1ccc(O)c([N-]C(=O)c2ncn(CC(=O)c3c[nH]c4c([O-])c([O-])ccc34)n2)c1 (3D coordinates assigned)
Cc1ccc(O)c([N-]C(=O)c2ncn(CC(=O)c3c[nH]c4c([O-])c([O-])ccc34)n2)c1 (optimized conformer: 118.83830877052665 kcal/mol)

>  <smiles>  (38) 
Cc1ccc(O)c(NC(=O)c2ncn(CC(=O)c3c[nH]c4c(O)c(O)ccc34)n2)c1

>  <score_type>  (38) 
oracle

>  <origin>  (38) 
adg

>  <m_score__min__energy>  (38) 
-17.16

>  <m_primary>  (38) 
energy

$$$$
38:0
     RDKit          3D

 53 56  0  0  0  0  0  0  0  0999 V2000
   55.2630   29.4050   44.8770 O   0  0  0  0  0  0  0  0  0  0  0  0
   56.4370   29.8640   44.8580 C   0  0  0  0  0  0  0  0  0  0  0  0
   56.6300   31.2340   44.4810 N   0  0  0  0  0  0  0  0  0  0  0  0
   57.4650   32.1870   45.1540 C   0  0  0  0  0  0  0  0  0  0  0  0
   57.7730   33.4320   44.5810 C   0  0  0  0  0  0  0  0  0  0  0  0
   58.5900   34.3360   45.2650 C   0  0  0  0  0  0  0  0  0  0  0  0
   59.1200   33.9980   46.5120 C   0  0  0  0  0  0  0  0  0  0  0  0
   58.8450   32.7460   47.0790 C   0  0  0  0  0  0  0  0  0  0  0  0
   59.5260   32.3060   48.6490 S   0  0  0  0  0  0  0  0  0  0  0  0
   58.9740   30.9740   49.0720 O   0  0  0  0  0  0  0  0  0  0  0  0
   59.1140   33.3270   49.6720 O   0  0  0  0  0  0  0  0  0  0  0  0
   61.2710   32.2160   48.5890 N   0  0  0  0  0  0  0  0  0  0  0  0
   61.7000   31.3460   47.4800 C   0  0  0  0  0  0  0  0  0  0  0  0
   63.1880   31.5740   47.1590 C   0  0  0  0  0  0  0  0  0  0  0  0
   63.5330   32.9200   46.8390 O   0  0  0  0  0  0  0  0  0  0  0  0
   62.5310   33.8630   47.1830 C   0  0  0  0  0  0  0  0  0  0  0  0
   61.8860   33.5610   48.5460 C   0  0  0  0  0  0  0  0  0  0  0  0
   58.0190   31.8430   46.3920 C   0  0  0  0  0  0  0  0  0  0  0  0
   57.5730   28.9650   45.1720 C   0  0  0  0  0  0  0  0  0  0  0  0
   58.8840   29.3040   44.7960 C   0  0  0  0  0  0  0  0  0  0  0  0
   59.9460   28.4510   45.0950 C   0  0  0  0  0  0  0  0  0  0  0  0
   59.7140   27.2440   45.7580 C   0  0  0  0  0  0  0  0  0  0  0  0
   58.4070   26.8750   46.1310 C   0  0  0  0  0  0  0  0  0  0  0  0
   58.1300   25.6380   46.8120 N   0  0  0  0  0  0  0  0  0  0  0  0
   56.6740   24.7170   46.6020 S   0  0  0  0  0  0  0  0  0  0  0  0
   56.4140   23.8800   47.8210 O   0  0  0  0  0  0  0  0  0  0  0  0
   55.5110   25.6410   46.3680 O   0  0  0  0  0  0  0  0  0  0  0  0
   56.8510   23.6650   45.2120 C   0  0  0  0  0  0  0  0  0  0  0  0
   57.7950   22.6590   45.0730 C   0  0  0  0  0  0  0  0  0  0  0  0
   57.6810   21.9690   43.8600 C   0  0  0  0  0  0  0  0  0  0  0  0
   56.6490   22.4310   43.0520 C   0  0  0  0  0  0  0  0  0  0  0  0
   55.8760   23.6970   43.8460 S   0  0  0  0  0  0  0  0  0  0  0  0
   57.3450   27.7410   45.8270 C   0  0  0  0  0  0  0  0  0  0  0  0
   57.3703   33.6958   43.5920 H   0  0  0  0  0  0  0  0  0  0  0  0
   58.8162   35.3163   44.8201 H   0  0  0  0  0  0  0  0  0  0  0  0
   59.7552   34.7164   47.0509 H   0  0  0  0  0  0  0  0  0  0  0  0
   61.5485   30.2946   47.7656 H   0  0  0  0  0  0  0  0  0  0  0  0
   61.1031   31.5871   46.5880 H   0  0  0  0  0  0  0  0  0  0  0  0
   63.7775   31.2693   48.0363 H   0  0  0  0  0  0  0  0  0  0  0  0
   63.4050   30.9776   46.2606 H   0  0  0  0  0  0  0  0  0  0  0  0
   62.9858   34.8638   47.2212 H   0  0  0  0  0  0  0  0  0  0  0  0
   61.7419   33.8082   46.4186 H   0  0  0  0  0  0  0  0  0  0  0  0
   62.6602   33.6213   49.3251 H   0  0  0  0  0  0  0  0  0  0  0  0
   61.0898   34.3013   48.7136 H   0  0  0  0  0  0  0  0  0  0  0  0
   57.8054   30.8569   46.8303 H   0  0  0  0  0  0  0  0  0  0  0  0
   59.0735   30.2474   44.2629 H   0  0  0  0  0  0  0  0  0  0  0  0
   60.9704   28.7300   44.8075 H   0  0  0  0  0  0  0  0  0  0  0  0
   60.5575   26.5772   45.9904 H   0  0  0  0  0  0  0  0  0  0  0  0
   58.8430   25.2510   47.4710 H   0  0  0  0  0  0  0  0  0  0  0  0
   58.5535   22.4274   45.8353 H   0  0  0  0  0  0  0  0  0  0  0  0
   58.3451   21.1401   43.5738 H   0  0  0  0  0  0  0  0  0  0  0  0
   56.3825   22.0357   42.0607 H   0  0  0  0  0  0  0  0  0  0  0  0
   56.3190   27.4583   46.1051 H   0  0  0  0  0  0  0  0  0  0  0  0
  1  2  2  0
  2  3  1  0
  3  4  1  0
  4  5  2  0
  5  6  1  0
  6  7  2  0
  7  8  1  0
  8  9  1  0
  9 10  2  0
  9 11  2  0
  9 12  1  0
 12 13  1  0
 13 14  1  0
 14 15  1  0
 15 16  1  0
 16 17  1  0
  8 18  2  0
  2 19  1  0
 19 20  2  0
 20 21  1  0
 21 22  2  0
 22 23  1  0
 23 24  1  0
 24 25  1  0
 25 26  2  0
 25 27  2  0
 25 28  1  0
 28 29  2  0
 29 30  1  0
 30 31  2  0
 31 32  1  0
 23 33  2  0
 18  4  1  0
 33 19  1  0
 17 12  1  0
 32 28  1  0
  5 34  1  0
  6 35  1  0
  7 36  1  0
 13 37  1  0
 13 38  1  0
 14 39  1  0
 14 40  1  0
 16 41  1  0
 16 42  1  0
 17 43  1  0
 17 44  1  0
 18 45  1  0
 20 46  1  0
 21 47  1  0
 22 48  1  0
 24 49  1  0
 29 50  1  0
 30 51  1  0
 31 52  1  0
 33 53  1  0
M  CHG  1   3  -1
M  END
>  <UniqueID>  (39) 
35

>  <SMILES>  (39) 
O=C([N-]c1cccc(S(=O)(=O)N2CCOCC2)c1)c1cccc(NS(=O)(=O)c2cccs2)c1

>  <Energy>  (39) 
104.78294039428725

>  <Genealogy>  (39) 
O=C([N-]c1cccc(S(=O)(=O)N2CCOCC2)c1)c1cccc(NS(=O)(=O)c2cccs2)c1 (protonated)
O=C([N-]c1cccc(S(=O)(=O)N2CCOCC2)c1)c1cccc(NS(=O)(=O)c2cccs2)c1 (3D coordinates assigned)
O=C([N-]c1cccc(S(=O)(=O)N2CCOCC2)c1)c1cccc(NS(=O)(=O)c2cccs2)c1 (nonaromatic ring conformer: 104.78294039428725 kcal/mol)

>  <smiles>  (39) 
O=C(Nc1cccc(S(=O)(=O)N2CCOCC2)c1)c1cccc(NS(=O)(=O)c2cccs2)c1

>  <score_type>  (39) 
oracle

>  <origin>  (39) 
adg

>  <m_score__min__energy>  (39) 
-12.85

>  <m_primary>  (39) 
energy

$$$$
39:0
     RDKit          3D

 34 36  0  0  0  0  0  0  0  0999 V2000
   56.2650   30.9770   44.8090 O   0  0  0  0  0  0  0  0  0  0  0  0
   56.3070   29.7260   44.6740 C   0  0  0  0  0  0  0  0  0  0  0  0
   55.1560   28.9740   44.8760 O   0  0  0  0  0  0  0  0  0  0  0  0
   57.5730   29.0570   44.2470 C   0  0  0  0  0  0  0  0  0  0  0  0
   58.1150   28.2170   45.3690 C   0  0  0  0  0  0  0  0  0  0  0  0
   59.2450   28.4630   46.1610 C   0  0  0  0  0  0  0  0  0  0  0  0
   60.2210   29.5620   45.9830 C   0  0  0  0  0  0  0  0  0  0  0  0
   61.3060   29.3310   45.3850 O   0  0  0  0  0  0  0  0  0  0  0  0
   59.9670   30.9220   46.5140 C   0  0  0  0  0  0  0  0  0  0  0  0
   61.0390   31.7180   46.9530 C   0  0  0  0  0  0  0  0  0  0  0  0
   60.8110   33.0060   47.4430 C   0  0  0  0  0  0  0  0  0  0  0  0
   59.5130   33.5220   47.4910 C   0  0  0  0  0  0  0  0  0  0  0  0
   59.3030   34.8050   47.9820 O   0  0  0  0  0  0  0  0  0  0  0  0
   58.4330   32.7440   47.0410 C   0  0  0  0  0  0  0  0  0  0  0  0
   57.1290   33.2370   47.0690 O   0  0  0  0  0  0  0  0  0  0  0  0
   58.6630   31.4530   46.5520 C   0  0  0  0  0  0  0  0  0  0  0  0
   59.3420   27.5380   47.1470 N   0  0  0  0  0  0  0  0  0  0  0  0
   58.2810   26.7280   47.0040 C   0  0  0  0  0  0  0  0  0  0  0  0
   57.9390   25.6400   47.8050 C   0  0  0  0  0  0  0  0  0  0  0  0
   56.7600   24.9390   47.4960 C   0  0  0  0  0  0  0  0  0  0  0  0
   55.9530   25.3400   46.4070 C   0  0  0  0  0  0  0  0  0  0  0  0
   54.7880   24.6410   46.1160 O   0  0  0  0  0  0  0  0  0  0  0  0
   56.3240   26.4420   45.6160 C   0  0  0  0  0  0  0  0  0  0  0  0
   57.5050   27.1140   45.9410 C   0  0  0  0  0  0  0  0  0  0  0  0
   57.3702   28.4153   43.3769 H   0  0  0  0  0  0  0  0  0  0  0  0
   58.3144   29.8245   43.9803 H   0  0  0  0  0  0  0  0  0  0  0  0
   62.0650   31.3238   46.9104 H   0  0  0  0  0  0  0  0  0  0  0  0
   61.6565   33.6167   47.7925 H   0  0  0  0  0  0  0  0  0  0  0  0
   56.9100   34.1580   47.4290 H   0  0  0  0  0  0  0  0  0  0  0  0
   57.8174   30.8473   46.1940 H   0  0  0  0  0  0  0  0  0  0  0  0
   60.0890   27.4620   47.8730 H   0  0  0  0  0  0  0  0  0  0  0  0
   58.5719   25.3390   48.6528 H   0  0  0  0  0  0  0  0  0  0  0  0
   56.4637   24.0728   48.1058 H   0  0  0  0  0  0  0  0  0  0  0  0
   55.7033   26.7650   44.7673 H   0  0  0  0  0  0  0  0  0  0  0  0
  1  2  2  0
  2  3  1  0
  2  4  1  0
  4  5  1  0
  5  6  2  0
  6  7  1  0
  7  8  2  0
  7  9  1  0
  9 10  2  0
 10 11  1  0
 11 12  2  0
 12 13  1  0
 12 14  1  0
 14 15  1  0
 14 16  2  0
  6 17  1  0
 17 18  1  0
 18 19  2  0
 19 20  1  0
 20 21  2  0
 21 22  1  0
 21 23  1  0
 23 24  2  0
 24  5  1  0
 16  9  1  0
 24 18  1  0
  4 25  1  0
  4 26  1  0
 10 27  1  0
 11 28  1  0
 15 29  1  0
 16 30  1  0
 17 31  1  0
 19 32  1  0
 20 33  1  0
 23 34  1  0
M  CHG  3   3  -1  13  -1  22  -1
M  END
>  <UniqueID>  (40) 
36

>  <SMILES>  (40) 
O=C([O-])Cc1c(C(=O)c2ccc([O-])c(O)c2)[nH]c2ccc([O-])cc12

>  <Energy>  (40) 
73.43868847906856

>  <Genealogy>  (40) 
O=C([O-])Cc1c(C(=O)c2ccc([O-])c(O)c2)[nH]c2ccc([O-])cc12 (protonated)
O=C([O-])Cc1c(C(=O)c2ccc([O-])c(O)c2)[nH]c2ccc([O-])cc12 (3D coordinates assigned)
O=C([O-])Cc1c(C(=O)c2ccc([O-])c(O)c2)[nH]c2ccc([O-])cc12 (optimized conformer: 73.43868847906856 kcal/mol)

>  <smiles>  (40) 
O=C(O)Cc1c(C(=O)c2ccc(O)c(O)c2)[nH]c2ccc(O)cc12

>  <score_type>  (40) 
oracle

>  <origin>  (40) 
adg

>  <m_score__min__energy>  (40) 
-13.710000000000001

>  <m_primary>  (40) 
energy

$$$$
40:0
     RDKit          3D

 54 56  0  0  0  0  0  0  0  0999 V2000
   63.7970   33.4220   49.3930 C   0  0  0  0  0  0  0  0  0  0  0  0
   63.6630   32.6000   48.1010 C   0  0  0  0  0  0  0  0  0  0  0  0
   63.6590   33.5050   46.8420 C   0  0  0  0  0  0  0  0  0  0  0  0
   62.2400   33.8450   46.3510 C   0  0  0  0  0  0  0  0  0  0  0  0
   61.3010   33.8600   47.4830 N   0  0  0  0  0  0  0  0  0  0  0  0
   59.7730   34.5410   46.9870 S   0  0  0  0  0  0  0  0  0  0  0  0
   60.0010   35.8360   46.2600 O   0  0  0  0  0  0  0  0  0  0  0  0
   58.9170   34.7980   48.1980 O   0  0  0  0  0  0  0  0  0  0  0  0
   58.9590   33.4210   45.9000 C   0  0  0  0  0  0  0  0  0  0  0  0
   58.3070   32.2850   46.4300 C   0  0  0  0  0  0  0  0  0  0  0  0
   57.6410   31.3800   45.5850 C   0  0  0  0  0  0  0  0  0  0  0  0
   57.6450   31.6400   44.2100 C   0  0  0  0  0  0  0  0  0  0  0  0
   58.2850   32.7400   43.6990 C   0  0  0  0  0  0  0  0  0  0  0  0
   58.1280   32.7200   42.3310 C   0  0  0  0  0  0  0  0  0  0  0  0
   57.3790   31.5800   42.0660 C   0  0  0  0  0  0  0  0  0  0  0  0
   57.0710   30.9290   43.2150 N   0  0  0  0  0  0  0  0  0  0  0  0
   56.3370   29.6630   43.3060 C   0  0  0  0  0  0  0  0  0  0  0  0
   56.8660   28.8170   44.4410 C   0  0  0  0  0  0  0  0  0  0  0  0
   56.3110   28.9120   45.5280 O   0  0  0  0  0  0  0  0  0  0  0  0
   58.0800   27.8910   44.3160 C   0  0  0  0  0  0  0  0  0  0  0  0
   58.0020   26.8140   45.4170 C   0  0  0  0  0  0  0  0  0  0  0  0
   59.3590   28.7270   44.5090 C   0  0  0  0  0  0  0  0  0  0  0  0
   58.1570   27.1810   42.9470 C   0  0  0  0  0  0  0  0  0  0  0  0
   58.9550   33.6530   44.5090 C   0  0  0  0  0  0  0  0  0  0  0  0
   61.0950   32.5000   48.0210 C   0  0  0  0  0  0  0  0  0  0  0  0
   62.4140   31.6990   48.1350 C   0  0  0  0  0  0  0  0  0  0  0  0
   63.6887   32.7578   50.2631 H   0  0  0  0  0  0  0  0  0  0  0  0
   64.7855   33.9037   49.4202 H   0  0  0  0  0  0  0  0  0  0  0  0
   63.0126   34.1927   49.4202 H   0  0  0  0  0  0  0  0  0  0  0  0
   64.5481   31.9498   48.0393 H   0  0  0  0  0  0  0  0  0  0  0  0
   64.1809   34.4429   47.0827 H   0  0  0  0  0  0  0  0  0  0  0  0
   64.1623   32.9506   46.0362 H   0  0  0  0  0  0  0  0  0  0  0  0
   62.2486   34.8356   45.8728 H   0  0  0  0  0  0  0  0  0  0  0  0
   61.9179   33.0816   45.6275 H   0  0  0  0  0  0  0  0  0  0  0  0
   58.3206   32.1068   47.5154 H   0  0  0  0  0  0  0  0  0  0  0  0
   57.1320   30.4941   45.9925 H   0  0  0  0  0  0  0  0  0  0  0  0
   58.5130   33.4501   41.6039 H   0  0  0  0  0  0  0  0  0  0  0  0
   57.0770   31.2505   41.0609 H   0  0  0  0  0  0  0  0  0  0  0  0
   55.2719   29.8753   43.4804 H   0  0  0  0  0  0  0  0  0  0  0  0
   56.4678   29.1108   42.3637 H   0  0  0  0  0  0  0  0  0  0  0  0
   58.0369   27.2964   46.4050 H   0  0  0  0  0  0  0  0  0  0  0  0
   57.0609   26.2536   45.3157 H   0  0  0  0  0  0  0  0  0  0  0  0
   58.8525   26.1238   45.3157 H   0  0  0  0  0  0  0  0  0  0  0  0
   59.5547   28.8549   45.5839 H   0  0  0  0  0  0  0  0  0  0  0  0
   60.2093   28.2098   44.0405 H   0  0  0  0  0  0  0  0  0  0  0  0
   59.2265   29.7134   44.0405 H   0  0  0  0  0  0  0  0  0  0  0  0
   58.2744   26.0983   43.1016 H   0  0  0  0  0  0  0  0  0  0  0  0
   57.2328   27.3726   42.3821 H   0  0  0  0  0  0  0  0  0  0  0  0
   59.0186   27.5663   42.3821 H   0  0  0  0  0  0  0  0  0  0  0  0
   59.4648   34.5272   44.0778 H   0  0  0  0  0  0  0  0  0  0  0  0
   60.6447   32.5813   49.0213 H   0  0  0  0  0  0  0  0  0  0  0  0
   60.4375   31.9615   47.3226 H   0  0  0  0  0  0  0  0  0  0  0  0
   62.4070   31.1432   49.0843 H   0  0  0  0  0  0  0  0  0  0  0  0
   62.4682   31.0241   47.2681 H   0  0  0  0  0  0  0  0  0  0  0  0
  1  2  1  0
  2  3  1  0
  3  4  1  0
  4  5  1  0
  5  6  1  0
  6  7  2  0
  6  8  2  0
  6  9  1  0
  9 10  2  0
 10 11  1  0
 11 12  2  0
 12 13  1  0
 13 14  1  0
 14 15  2  0
 15 16  1  0
 16 17  1  0
 17 18  1  0
 18 19  2  0
 18 20  1  0
 20 21  1  0
 20 22  1  0
 20 23  1  0
 13 24  2  0
  5 25  1  0
 25 26  1  0
 26  2  1  0
 24  9  1  0
 16 12  1  0
  1 27  1  0
  1 28  1  0
  1 29  1  0
  2 30  1  0
  3 31  1  0
  3 32  1  0
  4 33  1  0
  4 34  1  0
 10 35  1  0
 11 36  1  0
 14 37  1  0
 15 38  1  0
 17 39  1  0
 17 40  1  0
 21 41  1  0
 21 42  1  0
 21 43  1  0
 22 44  1  0
 22 45  1  0
 22 46  1  0
 23 47  1  0
 23 48  1  0
 23 49  1  0
 24 50  1  0
 25 51  1  0
 25 52  1  0
 26 53  1  0
 26 54  1  0
M  END
>  <UniqueID>  (41) 
37

>  <SMILES>  (41) 
CC1CCN(S(=O)(=O)c2ccc3c(ccn3CC(=O)C(C)(C)C)c2)CC1

>  <Energy>  (41) 
85.23297711052189

>  <Genealogy>  (41) 
CC1CCN(S(=O)(=O)c2ccc3c(ccn3CC(=O)C(C)(C)C)c2)CC1 (3D coordinates assigned)
CC1CCN(S(=O)(=O)c2ccc3c(ccn3CC(=O)C(C)(C)C)c2)CC1 (nonaromatic ring conformer: 85.23297711052189 kcal/mol)

>  <smiles>  (41) 
CC1CCN(S(=O)(=O)c2ccc3c(ccn3CC(=O)C(C)(C)C)c2)CC1

>  <score_type>  (41) 
oracle

>  <origin>  (41) 
adg

>  <m_score__min__energy>  (41) 
-9.9299999999999997

>  <m_primary>  (41) 
energy

$$$$
41:0
     RDKit          3D

 42 44  0  0  1  0  0  0  0  0999 V2000
   57.0130   22.5420   48.2690 O   0  0  0  0  0  0  0  0  0  0  0  0
   56.6480   23.3000   47.3270 C   0  0  0  0  0  0  0  0  0  0  0  0
   55.9240   24.4540   47.4300 N   0  0  0  0  0  0  0  0  0  0  0  0
   55.7530   24.9540   46.1720 C   0  0  0  0  0  0  0  0  0  0  0  0
   55.0550   26.1310   45.8980 O   0  0  0  0  0  0  0  0  0  0  0  0
   56.3800   24.0940   45.2950 C   0  0  0  0  0  0  0  0  0  0  0  0
   56.4460   24.2510   43.8160 C   0  0  0  0  0  0  0  0  0  0  0  0
   57.4220   25.3920   43.5490 C   0  0  0  0  0  0  0  0  0  0  0  0
   58.0310   25.7950   44.7670 N   0  0  0  0  0  0  0  0  0  0  0  0
   58.3130   27.0340   44.9700 C   0  0  0  0  0  0  0  0  0  0  0  0
   59.5800   27.5060   45.2290 C   0  0  0  0  0  0  0  0  0  0  0  0
   59.7900   28.8450   45.4340 C   0  0  0  0  0  0  0  0  0  0  0  0
   58.7590   29.7020   45.3840 N   0  0  0  0  0  0  0  0  0  0  0  0
   57.5330   29.2170   45.1290 C   0  0  0  0  0  0  0  0  0  0  0  0
   56.5260   30.0120   45.0680 N   0  0  0  0  0  0  0  0  0  0  0  0
   56.4100   31.1430   44.1990 C   0  0  0  0  0  0  0  0  0  0  0  0
   57.2160   32.3070   44.6360 C   0  0  0  0  0  0  0  0  0  0  0  0
   57.0800   32.9180   45.8620 C   0  0  0  0  0  0  0  0  0  0  0  0
   57.8750   33.9800   46.1530 N   0  0  0  0  0  0  0  0  0  0  0  0
   58.7910   34.4510   45.2850 C   0  0  0  0  0  0  0  0  0  0  0  0
   59.5430   35.4200   45.5060 O   0  0  0  0  0  0  0  0  0  0  0  0
   58.9090   33.8390   44.0900 N   0  0  0  0  0  0  0  0  0  0  0  0
   58.1540   32.7890   43.7470 C   0  0  0  0  0  0  0  0  0  0  0  0
   58.3020   32.2570   42.6270 O   0  0  0  0  0  0  0  0  0  0  0  0
   57.2830   27.9040   44.9220 N   0  0  0  0  0  0  0  0  0  0  0  0
   56.9170   23.0970   46.0150 N   0  0  0  0  0  0  0  0  0  0  0  0
   55.5570   24.8890   48.3200 H   0  0  0  0  0  0  0  0  0  0  0  0
   54.1880   26.3270   46.3720 H   0  0  0  0  0  0  0  0  0  0  0  0
   56.8088   23.3228   43.3504 H   0  0  0  0  0  0  0  0  0  0  0  0
   55.4539   24.4666   43.3925 H   0  0  0  0  0  0  0  0  0  0  0  0
   58.1978   25.0529   42.8468 H   0  0  0  0  0  0  0  0  0  0  0  0
   56.8775   26.2433   43.1145 H   0  0  0  0  0  0  0  0  0  0  0  0
   60.4273   26.8058   45.2716 H   0  0  0  0  0  0  0  0  0  0  0  0
   60.8045   29.2171   45.6396 H   0  0  0  0  0  0  0  0  0  0  0  0
   58.8960   30.7240   45.5390 H   0  0  0  0  0  0  0  0  0  0  0  0
   56.7435   30.8458   43.1938 H   0  0  0  0  0  0  0  0  0  0  0  0
   55.3554   31.4554   44.2122 H   0  0  0  0  0  0  0  0  0  0  0  0
   56.3420   32.5533   46.5916 H   0  0  0  0  0  0  0  0  0  0  0  0
   57.7740   34.4450   47.0810 H   0  0  0  0  0  0  0  0  0  0  0  0
   59.6270   34.1990   43.3940 H   0  0  0  0  0  0  0  0  0  0  0  0
   56.3170   27.5680   44.7280 H   0  0  0  0  0  0  0  0  0  0  0  0
   57.4600   22.2890   45.6080 H   0  0  0  0  0  0  0  0  0  0  0  0
  1  2  2  0
  2  3  1  0
  3  4  1  0
  4  5  1  0
  4  6  2  0
  6  7  1  0
  7  8  1  0
  8  9  1  0
  9 10  2  0
 10 11  1  0
 11 12  2  0
 12 13  1  0
 13 14  1  0
 14 15  2  0
 15 16  1  0
 16 17  1  0
 17 18  2  0
 18 19  1  0
 19 20  1  0
 20 21  2  0
 20 22  1  0
 22 23  1  0
 23 24  2  0
 14 25  1  0
  6 26  1  0
 26  2  1  0
 25 10  1  0
 23 17  1  0
  3 27  1  0
  5 28  1  0
  7 29  1  0
  7 30  1  0
  8 31  1  0
  8 32  1  0
 11 33  1  0
 12 34  1  0
 13 35  1  0
 16 36  1  0
 16 37  1  0
 18 38  1  0
 19 39  1  0
 22 40  1  0
 25 41  1  0
 26 42  1  0
M  END
>  <smiles>  (42) 
O=c1[nH]c(O)c(CCN=c2cc[nH]c(=NCc3c[nH]c(=O)[nH]c3=O)[nH]2)[nH]1

>  <score_type>  (42) 
oracle

>  <origin>  (42) 
adg

>  <m_score__min__energy>  (42) 
-8.2300000000000004

>  <m_primary>  (42) 
energy

$$$$
42:0
     RDKit          3D

 53 56  0  0  0  0  0  0  0  0999 V2000
   57.0920   33.4890   46.6930 C   0  0  0  0  0  0  0  0  0  0  0  0
   58.5410   33.7230   46.9970 C   0  0  0  0  0  0  0  0  0  0  0  0
   59.0740   33.6170   48.2910 C   0  0  0  0  0  0  0  0  0  0  0  0
   60.4420   33.8530   48.3430 C   0  0  0  0  0  0  0  0  0  0  0  0
   61.3110   33.6920   49.5530 C   0  0  0  0  0  0  0  0  0  0  0  0
   60.9820   32.4520   50.2470 N   0  0  0  0  0  0  0  0  0  0  0  0
   61.2150   31.1780   49.6460 C   0  0  0  0  0  0  0  0  0  0  0  0
   62.2570   30.5370   49.9460 O   0  0  0  0  0  0  0  0  0  0  0  0
   60.3010   30.6500   48.6110 C   0  0  0  0  0  0  0  0  0  0  0  0
   59.0170   30.3740   48.9550 N   0  0  0  0  0  0  0  0  0  0  0  0
   58.1680   29.8020   48.1040 N   0  0  0  0  0  0  0  0  0  0  0  0
   58.5350   29.4330   46.8450 C   0  0  0  0  0  0  0  0  0  0  0  0
   57.4950   28.7970   45.9290 C   0  0  2  0  0  0  0  0  0  0  0  0
   57.5820   27.2600   45.8800 C   0  0  0  0  0  0  0  0  0  0  0  0
   56.4050   26.4810   45.9140 C   0  0  0  0  0  0  0  0  0  0  0  0
   55.1530   27.0800   46.0000 O   0  0  0  0  0  0  0  0  0  0  0  0
   56.4780   25.1260   45.8650 N   0  0  0  0  0  0  0  0  0  0  0  0
   57.6710   24.4880   45.7870 C   0  0  0  0  0  0  0  0  0  0  0  0
   57.7200   22.8580   45.7310 S   0  0  0  0  0  0  0  0  0  0  0  0
   58.8210   25.2020   45.7620 N   0  0  0  0  0  0  0  0  0  0  0  0
   58.8120   26.5590   45.8070 C   0  0  0  0  0  0  0  0  0  0  0  0
   59.9120   27.1730   45.7860 O   0  0  0  0  0  0  0  0  0  0  0  0
   57.4820   29.4330   44.5850 N   0  0  0  0  0  0  0  0  0  0  0  0
   56.2570   29.3310   43.7940 C   0  0  0  0  0  0  0  0  0  0  0  0
   56.4390   30.3160   42.6550 C   0  0  0  0  0  0  0  0  0  0  0  0
   57.3720   31.3850   43.2140 C   0  0  0  0  0  0  0  0  0  0  0  0
   57.8570   30.8460   44.5560 C   0  0  0  0  0  0  0  0  0  0  0  0
   59.8260   29.7840   46.3970 C   0  0  0  0  0  0  0  0  0  0  0  0
   60.2070   29.5520   45.0740 O   0  0  0  0  0  0  0  0  0  0  0  0
   60.7190   30.3860   47.2960 C   0  0  0  0  0  0  0  0  0  0  0  0
   61.8790   30.6980   46.9130 O   0  0  0  0  0  0  0  0  0  0  0  0
   61.0000   34.1590   46.7850 S   0  0  0  0  0  0  0  0  0  0  0  0
   59.5050   34.0050   46.0280 C   0  0  0  0  0  0  0  0  0  0  0  0
   59.2650   34.2360   44.5710 C   0  0  0  0  0  0  0  0  0  0  0  0
   56.5299   33.3982   47.6342 H   0  0  0  0  0  0  0  0  0  0  0  0
   56.6982   34.3352   46.1109 H   0  0  0  0  0  0  0  0  0  0  0  0
   56.9846   32.5619   46.1109 H   0  0  0  0  0  0  0  0  0  0  0  0
   58.4687   33.3715   49.1760 H   0  0  0  0  0  0  0  0  0  0  0  0
   62.3658   33.6657   49.2421 H   0  0  0  0  0  0  0  0  0  0  0  0
   61.1413   34.5401   50.2327 H   0  0  0  0  0  0  0  0  0  0  0  0
   56.5130   29.0030   46.3797 H   0  0  0  0  0  0  0  0  0  0  0  0
   56.1324   28.3096   43.4051 H   0  0  0  0  0  0  0  0  0  0  0  0
   55.3607   29.5531   44.3918 H   0  0  0  0  0  0  0  0  0  0  0  0
   56.8931   29.8218   41.7835 H   0  0  0  0  0  0  0  0  0  0  0  0
   55.4825   30.7365   42.3112 H   0  0  0  0  0  0  0  0  0  0  0  0
   58.2223   31.5456   42.5349 H   0  0  0  0  0  0  0  0  0  0  0  0
   56.8614   32.3530   43.3250 H   0  0  0  0  0  0  0  0  0  0  0  0
   58.9487   30.9530   44.6383 H   0  0  0  0  0  0  0  0  0  0  0  0
   57.4098   31.3978   45.3960 H   0  0  0  0  0  0  0  0  0  0  0  0
   59.7050   28.9120   44.4670 H   0  0  0  0  0  0  0  0  0  0  0  0
   58.4777   34.9938   44.4447 H   0  0  0  0  0  0  0  0  0  0  0  0
   60.1932   34.5892   44.0980 H   0  0  0  0  0  0  0  0  0  0  0  0
   58.9475   33.2950   44.0980 H   0  0  0  0  0  0  0  0  0  0  0  0
  1  2  1  0
  2  3  1  0
  3  4  2  0
  4  5  1  0
  5  6  1  0
  6  7  1  0
  7  8  2  0
  7  9  1  0
  9 10  2  0
 10 11  1  0
 11 12  1  0
 12 13  1  0
 13 14  1  0
 14 15  2  0
 15 16  1  0
 15 17  1  0
 17 18  1  0
 18 19  2  0
 18 20  1  0
 20 21  1  0
 21 22  2  0
 13 23  1  0
 23 24  1  0
 24 25  1  0
 25 26  1  0
 26 27  1  0
 12 28  2  0
 28 29  1  0
 28 30  1  0
 30 31  2  0
  4 32  1  0
 32 33  1  0
 33 34  1  0
 33  2  2  0
 30  9  1  0
 21 14  1  0
 27 23  1  0
  1 35  1  0
  1 36  1  0
  1 37  1  0
  3 38  1  0
  5 39  1  0
  5 40  1  0
 13 41  1  1
 24 42  1  0
 24 43  1  0
 25 44  1  0
 25 45  1  0
 26 46  1  0
 26 47  1  0
 27 48  1  0
 27 49  1  0
 29 50  1  0
 34 51  1  0
 34 52  1  0
 34 53  1  0
M  CHG  5   6  -1  11  -1  16  -1  17  -1  20  -1
M  END
>  <UniqueID>  (43) 
38

>  <SMILES>  (43) 
Cc1cc(C[N-]C(=O)c2n[n-]c([C@H](c3c([O-])[n-]c(=S)[n-]c3=O)N3CCCC3)c(O)c2=O)sc1C

>  <Energy>  (43) 
102.09521365523774

>  <Genealogy>  (43) 
Cc1cc(C[N-]C(=O)c2n[n-]c(C(c3c([O-])[n-]c(=S)[n-]c3=O)N3CCCC3)c(O)c2=O)sc1C (protonated)
Cc1cc(C[N-]C(=O)c2n[n-]c([C@H](c3c([O-])[n-]c(=S)[n-]c3=O)N3CCCC3)c(O)c2=O)sc1C (chirality)
Cc1cc(C[N-]C(=O)c2n[n-]c([C@H](c3c([O-])[n-]c(=S)[n-]c3=O)N3CCCC3)c(O)c2=O)sc1C (3D coordinates assigned)
Cc1cc(C[N-]C(=O)c2n[n-]c([C@H](c3c([O-])[n-]c(=S)[n-]c3=O)N3CCCC3)c(O)c2=O)sc1C (nonaromatic ring conformer: 102.09521365523774 kcal/mol)

>  <smiles>  (43) 
Cc1cc(CNC(=O)c2n[nH]c(C(c3c(O)[nH]c(=S)[nH]c3=O)N3CCCC3)c(O)c2=O)sc1C

>  <score_type>  (43) 
oracle

>  <origin>  (43) 
adg

>  <m_score__min__energy>  (43) 
-16.550000000000001

>  <m_primary>  (43) 
energy

$$$$
43:0
     RDKit          3D

 61 64  0  0  0  0  0  0  0  0999 V2000
   55.5490   28.7960   45.2210 N   0  0  0  0  0  0  0  0  0  0  0  0
   56.7660   29.8380   44.5790 S   0  0  0  0  0  0  0  0  0  0  0  0
   57.0990   29.3960   43.1810 O   0  0  0  0  0  0  0  0  0  0  0  0
   56.2410   31.2480   44.5510 O   0  0  0  0  0  0  0  0  0  0  0  0
   58.2200   29.7770   45.5750 C   0  0  0  0  0  0  0  0  0  0  0  0
   59.4670   29.6120   44.9600 C   0  0  0  0  0  0  0  0  0  0  0  0
   60.6260   29.5180   45.7330 C   0  0  0  0  0  0  0  0  0  0  0  0
   60.5450   29.5990   47.1250 C   0  0  0  0  0  0  0  0  0  0  0  0
   59.3050   29.8160   47.7510 C   0  0  0  0  0  0  0  0  0  0  0  0
   59.2090   29.7720   49.1810 N   0  0  0  0  0  0  0  0  0  0  0  0
   59.1070   30.7520   50.0380 C   0  0  0  0  0  0  0  0  0  0  0  0
   59.3220   32.0010   49.5510 N   0  0  0  0  0  0  0  0  0  0  0  0
   59.1030   33.0940   50.3120 C   0  0  0  0  0  0  0  0  0  0  0  0
   59.2730   34.2430   49.8270 O   0  0  0  0  0  0  0  0  0  0  0  0
   58.6750   32.9510   51.5860 N   0  0  0  0  0  0  0  0  0  0  0  0
   58.5050   31.7190   52.1200 C   0  0  0  0  0  0  0  0  0  0  0  0
   58.1350   31.6340   53.3250 O   0  0  0  0  0  0  0  0  0  0  0  0
   58.7640   30.5860   51.3760 N   0  0  0  0  0  0  0  0  0  0  0  0
   58.9960   29.3170   52.1080 C   0  0  0  0  0  0  0  0  0  0  0  0
   60.4660   29.0740   52.2650 C   0  0  0  0  0  0  0  0  0  0  0  0
   60.8770   28.4520   53.2820 O   0  0  0  0  0  0  0  0  0  0  0  0
   61.3890   29.5170   51.2560 N   0  0  0  0  0  0  0  0  0  0  0  0
   62.8360   29.4160   51.4280 C   0  0  0  0  0  0  0  0  0  0  0  0
   63.5280   30.5880   50.7840 C   0  0  0  0  0  0  0  0  0  0  0  0
   64.7020   31.1170   51.3420 C   0  0  0  0  0  0  0  0  0  0  0  0
   65.3750   32.1600   50.7040 C   0  0  0  0  0  0  0  0  0  0  0  0
   64.8840   32.6880   49.5090 C   0  0  0  0  0  0  0  0  0  0  0  0
   63.6820   32.2130   48.9630 C   0  0  0  0  0  0  0  0  0  0  0  0
   63.2000   32.6920   47.6480 C   0  0  0  0  0  0  0  0  0  0  0  0
   64.0350   32.7920   46.7000 O   0  0  0  0  0  0  0  0  0  0  0  0
   61.8420   33.0890   47.3990 N   0  0  0  0  0  0  0  0  0  0  0  0
   61.3670   34.0740   46.4290 C   0  0  0  0  0  0  0  0  0  0  0  0
   59.8960   33.9080   46.1610 C   0  0  0  0  0  0  0  0  0  0  0  0
   59.3070   34.5390   45.0480 C   0  0  0  0  0  0  0  0  0  0  0  0
   57.9260   34.4740   44.8480 C   0  0  0  0  0  0  0  0  0  0  0  0
   57.1180   33.8020   45.7680 C   0  0  0  0  0  0  0  0  0  0  0  0
   57.6910   33.1900   46.8830 C   0  0  0  0  0  0  0  0  0  0  0  0
   59.0780   33.2260   47.0750 C   0  0  0  0  0  0  0  0  0  0  0  0
   63.0140   31.1520   49.6050 C   0  0  0  0  0  0  0  0  0  0  0  0
   58.1390   29.8710   46.9740 C   0  0  0  0  0  0  0  0  0  0  0  0
   54.6580   29.3410   45.2540 H   0  0  0  0  0  0  0  0  0  0  0  0
   59.5339   29.5562   43.8635 H   0  0  0  0  0  0  0  0  0  0  0  0
   61.6026   29.3802   45.2458 H   0  0  0  0  0  0  0  0  0  0  0  0
   61.4549   29.4926   47.7339 H   0  0  0  0  0  0  0  0  0  0  0  0
   58.5295   29.3801   53.1022 H   0  0  0  0  0  0  0  0  0  0  0  0
   58.5529   28.4868   51.5384 H   0  0  0  0  0  0  0  0  0  0  0  0
   61.0240   29.9490   50.3790 H   0  0  0  0  0  0  0  0  0  0  0  0
   63.0725   29.4019   52.5022 H   0  0  0  0  0  0  0  0  0  0  0  0
   63.1868   28.4897   50.9496 H   0  0  0  0  0  0  0  0  0  0  0  0
   65.0931   30.7082   52.2854 H   0  0  0  0  0  0  0  0  0  0  0  0
   66.2966   32.5677   51.1450 H   0  0  0  0  0  0  0  0  0  0  0  0
   65.4431   33.4817   48.9918 H   0  0  0  0  0  0  0  0  0  0  0  0
   61.5478   35.0840   46.8254 H   0  0  0  0  0  0  0  0  0  0  0  0
   61.9121   33.9245   45.4853 H   0  0  0  0  0  0  0  0  0  0  0  0
   59.9381   35.0861   44.3322 H   0  0  0  0  0  0  0  0  0  0  0  0
   57.4749   34.9520   43.9660 H   0  0  0  0  0  0  0  0  0  0  0  0
   56.0299   33.7553   45.6134 H   0  0  0  0  0  0  0  0  0  0  0  0
   57.0504   32.6766   47.6151 H   0  0  0  0  0  0  0  0  0  0  0  0
   59.5263   32.7195   47.9425 H   0  0  0  0  0  0  0  0  0  0  0  0
   62.0789   30.7606   49.1779 H   0  0  0  0  0  0  0  0  0  0  0  0
   57.1596   29.9879   47.4608 H   0  0  0  0  0  0  0  0  0  0  0  0
  1  2  1  0
  2  3  2  0
  2  4  2  0
  2  5  1  0
  5  6  2  0
  6  7  1  0
  7  8  2  0
  8  9  1  0
  9 10  1  0
 10 11  2  3
 11 12  1  0
 12 13  1  0
 13 14  2  0
 13 15  1  0
 15 16  1  0
 16 17  2  0
 16 18  1  0
 18 19  1  0
 19 20  1  0
 20 21  2  0
 20 22  1  0
 22 23  1  0
 23 24  1  0
 24 25  2  0
 25 26  1  0
 26 27  2  0
 27 28  1  0
 28 29  1  0
 29 30  2  0
 29 31  1  0
 31 32  1  0
 32 33  1  0
 33 34  2  0
 34 35  1  0
 35 36  2  0
 36 37  1  0
 37 38  2  0
 28 39  2  0
  9 40  2  0
 40  5  1  0
 18 11  1  0
 39 24  1  0
 38 33  1  0
  1 41  1  0
  6 42  1  0
  7 43  1  0
  8 44  1  0
 19 45  1  0
 19 46  1  0
 22 47  1  0
 23 48  1  0
 23 49  1  0
 25 50  1  0
 26 51  1  0
 27 52  1  0
 32 53  1  0
 32 54  1  0
 34 55  1  0
 35 56  1  0
 36 57  1  0
 37 58  1  0
 38 59  1  0
 39 60  1  0
 40 61  1  0
M  CHG  4   1  -1  12  -1  15  -1  31  -1
M  END
>  <UniqueID>  (44) 
39

>  <SMILES>  (44) 
[NH-]S(=O)(=O)c1cccc(N=c2[n-]c(=O)[n-]c(=O)n2CC(=O)NCc2cccc(C(=O)[N-]Cc3ccccc3)c2)c1

>  <Energy>  (44) 
85.53039724348949

>  <Genealogy>  (44) 
[NH-]S(=O)(=O)c1cccc(N=c2[n-]c(=O)[n-]c(=O)n2CC(=O)NCc2cccc(C(=O)[N-]Cc3ccccc3)c2)c1 (protonated)
[NH-]S(=O)(=O)c1cccc(N=c2[n-]c(=O)[n-]c(=O)n2CC(=O)NCc2cccc(C(=O)[N-]Cc3ccccc3)c2)c1 (3D coordinates assigned)
[NH-]S(=O)(=O)c1cccc(N=c2[n-]c(=O)[n-]c(=O)n2CC(=O)NCc2cccc(C(=O)[N-]Cc3ccccc3)c2)c1 (optimized conformer: 85.53039724348949 kcal/mol)

>  <smiles>  (44) 
NS(=O)(=O)c1cccc(N=c2[nH]c(=O)[nH]c(=O)n2CC(=O)NCc2cccc(C(=O)NCc3ccccc3)c2)c1

>  <score_type>  (44) 
oracle

>  <origin>  (44) 
adg

>  <m_score__min__energy>  (44) 
-17.23

>  <m_primary>  (44) 
energy

$$$$
44:0
     RDKit          3D

 52 54  0  0  0  0  0  0  0  0999 V2000
   58.2670   32.3580   41.9380 C   0  0  0  0  0  0  0  0  0  0  0  0
   57.5540   31.3590   42.8000 C   0  0  0  0  0  0  0  0  0  0  0  0
   56.4820   30.6110   42.2960 C   0  0  0  0  0  0  0  0  0  0  0  0
   55.8230   29.6880   43.1120 C   0  0  0  0  0  0  0  0  0  0  0  0
   56.2290   29.5020   44.4370 C   0  0  0  0  0  0  0  0  0  0  0  0
   55.5350   28.5970   45.2320 O   0  0  0  0  0  0  0  0  0  0  0  0
   57.3230   30.2280   44.9500 C   0  0  0  0  0  0  0  0  0  0  0  0
   57.7740   30.0650   46.3850 C   0  0  0  0  0  0  0  0  0  0  0  0
   58.8530   31.0160   46.7450 N   0  0  0  0  0  0  0  0  0  0  0  0
   60.1810   30.6270   46.7700 C   0  0  0  0  0  0  0  0  0  0  0  0
   60.6360   29.2020   46.5050 C   0  0  0  0  0  0  0  0  0  0  0  0
   59.8750   28.1920   47.3240 C   0  0  0  0  0  0  0  0  0  0  0  0
   60.1210   28.0450   48.5530 O   0  0  0  0  0  0  0  0  0  0  0  0
   58.8730   27.3870   46.6920 N   0  0  0  0  0  0  0  0  0  0  0  0
   58.3420   26.1750   47.3110 C   0  0  0  0  0  0  0  0  0  0  0  0
   57.5530   25.3690   46.3150 C   0  0  0  0  0  0  0  0  0  0  0  0
   56.1530   25.4680   46.2830 C   0  0  0  0  0  0  0  0  0  0  0  0
   55.4180   24.7660   45.3220 C   0  0  0  0  0  0  0  0  0  0  0  0
   56.0720   23.9540   44.3840 C   0  0  0  0  0  0  0  0  0  0  0  0
   55.2810   23.2040   43.3470 C   0  0  0  0  0  0  0  0  0  0  0  0
   56.1240   22.2110   42.6930 N   0  0  0  0  0  0  0  0  0  0  0  0
   57.4680   23.8190   44.4450 C   0  0  0  0  0  0  0  0  0  0  0  0
   58.2040   24.5240   45.4030 C   0  0  0  0  0  0  0  0  0  0  0  0
   61.1750   31.5590   47.1040 C   0  0  0  0  0  0  0  0  0  0  0  0
   60.8100   32.8670   47.3830 C   0  0  0  0  0  0  0  0  0  0  0  0
   61.6850   33.7210   47.6830 O   0  0  0  0  0  0  0  0  0  0  0  0
   59.5080   33.2250   47.3330 N   0  0  0  0  0  0  0  0  0  0  0  0
   58.5360   32.3310   47.0200 C   0  0  0  0  0  0  0  0  0  0  0  0
   57.3420   32.7310   46.9900 O   0  0  0  0  0  0  0  0  0  0  0  0
   57.9660   31.1680   44.1250 C   0  0  0  0  0  0  0  0  0  0  0  0
   58.7876   33.0874   42.5760 H   0  0  0  0  0  0  0  0  0  0  0  0
   58.9992   31.8379   41.3029 H   0  0  0  0  0  0  0  0  0  0  0  0
   57.5371   32.8814   41.3029 H   0  0  0  0  0  0  0  0  0  0  0  0
   56.1580   30.7509   41.2542 H   0  0  0  0  0  0  0  0  0  0  0  0
   54.9811   29.1051   42.7103 H   0  0  0  0  0  0  0  0  0  0  0  0
   56.9137   30.2378   47.0484 H   0  0  0  0  0  0  0  0  0  0  0  0
   58.1704   29.0454   46.5004 H   0  0  0  0  0  0  0  0  0  0  0  0
   60.4865   28.9764   45.4388 H   0  0  0  0  0  0  0  0  0  0  0  0
   61.6966   29.1315   46.7883 H   0  0  0  0  0  0  0  0  0  0  0  0
   58.6070   27.5960   45.7030 H   0  0  0  0  0  0  0  0  0  0  0  0
   59.1774   25.5661   47.6870 H   0  0  0  0  0  0  0  0  0  0  0  0
   57.6765   26.4635   48.1380 H   0  0  0  0  0  0  0  0  0  0  0  0
   55.6318   26.1003   47.0168 H   0  0  0  0  0  0  0  0  0  0  0  0
   54.3215   24.8513   45.3019 H   0  0  0  0  0  0  0  0  0  0  0  0
   54.4331   22.6982   43.8321 H   0  0  0  0  0  0  0  0  0  0  0  0
   54.9122   23.9149   42.5929 H   0  0  0  0  0  0  0  0  0  0  0  0
   56.5720   22.6690   41.8660 H   0  0  0  0  0  0  0  0  0  0  0  0
   55.5060   21.4570   42.3140 H   0  0  0  0  0  0  0  0  0  0  0  0
   57.9854   23.1558   43.7362 H   0  0  0  0  0  0  0  0  0  0  0  0
   59.2980   24.4156   45.4417 H   0  0  0  0  0  0  0  0  0  0  0  0
   62.2315   31.2555   47.1440 H   0  0  0  0  0  0  0  0  0  0  0  0
   58.8023   31.7602   44.5249 H   0  0  0  0  0  0  0  0  0  0  0  0
  1  2  1  0
  2  3  2  0
  3  4  1  0
  4  5  2  0
  5  6  1  0
  5  7  1  0
  7  8  1  0
  8  9  1  0
  9 10  1  0
 10 11  1  0
 11 12  1  0
 12 13  2  0
 12 14  1  0
 14 15  1  0
 15 16  1  0
 16 17  2  0
 17 18  1  0
 18 19  2  0
 19 20  1  0
 20 21  1  0
 19 22  1  0
 22 23  2  0
 10 24  2  0
 24 25  1  0
 25 26  2  0
 25 27  1  0
 27 28  1  0
 28 29  2  0
  7 30  2  0
 30  2  1  0
 28  9  1  0
 23 16  1  0
  1 31  1  0
  1 32  1  0
  1 33  1  0
  3 34  1  0
  4 35  1  0
  8 36  1  0
  8 37  1  0
 11 38  1  0
 11 39  1  0
 14 40  1  0
 15 41  1  0
 15 42  1  0
 17 43  1  0
 18 44  1  0
 20 45  1  0
 20 46  1  0
 21 47  1  0
 21 48  1  0
 22 49  1  0
 23 50  1  0
 24 51  1  0
 30 52  1  0
M  CHG  2   6  -1  27  -1
M  END
>  <UniqueID>  (45) 
40

>  <SMILES>  (45) 
Cc1ccc([O-])c(Cn2c(CC(=O)NCc3ccc(CN)cc3)cc(=O)[n-]c2=O)c1

>  <Energy>  (45) 
51.13777116548179

>  <Genealogy>  (45) 
Cc1ccc([O-])c(Cn2c(CC(=O)NCc3ccc(CN)cc3)cc(=O)[n-]c2=O)c1 (protonated)
Cc1ccc([O-])c(Cn2c(CC(=O)NCc3ccc(CN)cc3)cc(=O)[n-]c2=O)c1 (3D coordinates assigned)
Cc1ccc([O-])c(Cn2c(CC(=O)NCc3ccc(CN)cc3)cc(=O)[n-]c2=O)c1 (optimized conformer: 51.13777116548179 kcal/mol)

>  <smiles>  (45) 
Cc1ccc(O)c(Cn2c(CC(=O)NCc3ccc(CN)cc3)cc(=O)[nH]c2=O)c1

>  <score_type>  (45) 
oracle

>  <origin>  (45) 
adg

>  <m_score__min__energy>  (45) 
-13.56

>  <m_primary>  (45) 
energy

$$$$
45:0
     RDKit          3D

 43 45  0  0  1  0  0  0  0  0999 V2000
   56.7520   33.7250   45.8240 N   0  0  0  0  0  0  0  0  0  0  0  0
   57.3510   32.6270   45.5070 C   0  0  0  0  0  0  0  0  0  0  0  0
   57.3320   32.1350   44.2590 N   0  0  0  0  0  0  0  0  0  0  0  0
   57.9570   30.9920   43.9430 C   0  0  0  0  0  0  0  0  0  0  0  0
   58.6670   30.2420   44.8950 C   0  0  0  0  0  0  0  0  0  0  0  0
   59.3290   28.9780   44.5670 C   0  0  0  0  0  0  0  0  0  0  0  0
   58.5780   27.9400   45.4000 C   0  0  0  0  0  0  0  0  0  0  0  0
   59.2540   27.1220   46.2870 C   0  0  0  0  0  0  0  0  0  0  0  0
   58.6070   26.1630   47.0580 C   0  0  0  0  0  0  0  0  0  0  0  0
   57.2420   26.0730   46.8880 C   0  0  0  0  0  0  0  0  0  0  0  0
   56.5500   25.1310   47.6370 O   0  0  0  0  0  0  0  0  0  0  0  0
   56.5380   26.8550   46.0290 C   0  0  0  0  0  0  0  0  0  0  0  0
   55.1480   26.7280   45.8880 O   0  0  0  0  0  0  0  0  0  0  0  0
   57.2130   27.7910   45.2840 C   0  0  0  0  0  0  0  0  0  0  0  0
   58.6700   30.7720   46.1670 C   0  0  0  0  0  0  0  0  0  0  0  0
   59.2860   30.2360   47.1440 N   0  0  0  0  0  0  0  0  0  0  0  0
   59.5130   30.9670   48.3360 C   0  0  0  0  0  0  0  0  0  0  0  0
   60.6110   31.9120   47.8410 C   0  0  0  0  0  0  0  0  0  0  0  0
   61.8860   31.4760   47.5860 C   0  0  0  0  0  0  0  0  0  0  0  0
   62.8960   32.3220   47.1370 C   0  0  0  0  0  0  0  0  0  0  0  0
   62.5450   33.6380   46.9580 C   0  0  0  0  0  0  0  0  0  0  0  0
   61.3060   34.0840   47.2020 N   0  0  0  0  0  0  0  0  0  0  0  0
   60.3370   33.2500   47.6380 C   0  0  0  0  0  0  0  0  0  0  0  0
   59.1850   33.7840   47.8500 N   0  0  0  0  0  0  0  0  0  0  0  0
   58.0190   31.9400   46.4460 N   0  0  0  0  0  0  0  0  0  0  0  0
   56.9650   34.1820   46.7440 H   0  0  0  0  0  0  0  0  0  0  0  0
   56.8040   32.6800   43.5290 H   0  0  0  0  0  0  0  0  0  0  0  0
   57.9124   30.6299   42.9052 H   0  0  0  0  0  0  0  0  0  0  0  0
   59.2392   28.7568   43.4932 H   0  0  0  0  0  0  0  0  0  0  0  0
   60.4071   28.9959   44.7847 H   0  0  0  0  0  0  0  0  0  0  0  0
   60.3438   27.2344   46.3861 H   0  0  0  0  0  0  0  0  0  0  0  0
   59.1513   25.5153   47.7610 H   0  0  0  0  0  0  0  0  0  0  0  0
   55.5240   25.2380   47.6660 H   0  0  0  0  0  0  0  0  0  0  0  0
   54.6660   25.9700   46.3700 H   0  0  0  0  0  0  0  0  0  0  0  0
   56.6556   28.4312   44.5844 H   0  0  0  0  0  0  0  0  0  0  0  0
   58.6153   31.5137   48.6604 H   0  0  0  0  0  0  0  0  0  0  0  0
   59.7752   30.3616   49.2162 H   0  0  0  0  0  0  0  0  0  0  0  0
   62.1204   30.4128   47.7429 H   0  0  0  0  0  0  0  0  0  0  0  0
   63.9148   31.9584   46.9373 H   0  0  0  0  0  0  0  0  0  0  0  0
   63.3061   34.3483   46.6028 H   0  0  0  0  0  0  0  0  0  0  0  0
   61.1240   35.0990   47.0410 H   0  0  0  0  0  0  0  0  0  0  0  0
   58.4790   34.0110   47.1270 H   0  0  0  0  0  0  0  0  0  0  0  0
   58.0230   32.3430   47.4170 H   0  0  0  0  0  0  0  0  0  0  0  0
  1  2  2  3
  2  3  1  0
  3  4  1  0
  4  5  2  0
  5  6  1  0
  6  7  1  0
  7  8  2  0
  8  9  1  0
  9 10  2  0
 10 11  1  0
 10 12  1  0
 12 13  1  0
 12 14  2  0
  5 15  1  0
 15 16  2  0
 16 17  1  0
 17 18  1  0
 18 19  2  0
 19 20  1  0
 20 21  2  0
 21 22  1  0
 22 23  1  0
 23 24  2  3
 15 25  1  0
 25  2  1  0
 14  7  1  0
 23 18  1  0
  1 26  1  0
  3 27  1  0
  4 28  1  0
  6 29  1  0
  6 30  1  0
  8 31  1  0
  9 32  1  0
 11 33  1  0
 13 34  1  0
 14 35  1  0
 17 36  1  0
 17 37  1  0
 19 38  1  0
 20 39  1  0
 21 40  1  0
 22 41  1  0
 24 42  1  0
 25 43  1  0
M  END
>  <smiles>  (46) 
N=c1[nH]cc(Cc2ccc(O)c(O)c2)c(=NCc2ccc[nH]c2=N)[nH]1

>  <score_type>  (46) 
oracle

>  <origin>  (46) 
adg

>  <m_score__min__energy>  (46) 
-8.2300000000000004

>  <m_primary>  (46) 
energy

$$$$
46:0
     RDKit          3D

 48 51  0  0  0  0  0  0  0  0999 V2000
   53.5130   23.7430   44.7140 C   0  0  0  0  0  0  0  0  0  0  0  0
   54.5220   23.1870   45.6810 C   0  0  0  0  0  0  0  0  0  0  0  0
   54.6410   21.7950   45.8290 C   0  0  0  0  0  0  0  0  0  0  0  0
   55.5690   21.2550   46.7230 C   0  0  0  0  0  0  0  0  0  0  0  0
   56.3950   22.0990   47.4760 C   0  0  0  0  0  0  0  0  0  0  0  0
   57.3180   21.5710   48.3760 O   0  0  0  0  0  0  0  0  0  0  0  0
   56.2960   23.4840   47.3220 C   0  0  0  0  0  0  0  0  0  0  0  0
   55.3820   24.0350   46.4140 C   0  0  0  0  0  0  0  0  0  0  0  0
   55.3150   25.4600   46.2770 N   0  0  0  0  0  0  0  0  0  0  0  0
   56.2240   26.1740   45.6830 C   0  0  0  0  0  0  0  0  0  0  0  0
   56.2670   27.5170   45.7890 N   0  0  0  0  0  0  0  0  0  0  0  0
   57.3110   28.0530   45.0950 C   0  0  0  0  0  0  0  0  0  0  0  0
   57.5440   29.5220   45.0630 C   0  0  0  0  0  0  0  0  0  0  0  0
   56.6100   30.4040   44.4840 C   0  0  0  0  0  0  0  0  0  0  0  0
   56.8500   31.7800   44.4690 C   0  0  0  0  0  0  0  0  0  0  0  0
   58.0210   32.3020   45.0300 C   0  0  0  0  0  0  0  0  0  0  0  0
   58.3080   34.0440   45.0320 S   0  0  0  0  0  0  0  0  0  0  0  0
   59.4670   34.3540   44.1240 O   0  0  0  0  0  0  0  0  0  0  0  0
   57.0940   34.7450   44.4860 O   0  0  0  0  0  0  0  0  0  0  0  0
   58.6530   34.6520   46.6370 N   0  0  0  0  0  0  0  0  0  0  0  0
   60.0280   35.1550   46.7290 C   0  0  0  0  0  0  0  0  0  0  0  0
   60.8950   34.0720   47.3540 C   0  0  0  0  0  0  0  0  0  0  0  0
   59.9320   33.0610   47.9450 C   0  0  0  0  0  0  0  0  0  0  0  0
   58.5380   33.5910   47.6420 C   0  0  0  0  0  0  0  0  0  0  0  0
   58.9620   31.4310   45.5920 C   0  0  0  0  0  0  0  0  0  0  0  0
   58.7270   30.0540   45.6080 C   0  0  0  0  0  0  0  0  0  0  0  0
   58.1050   27.1120   44.4290 C   0  0  0  0  0  0  0  0  0  0  0  0
   57.4780   25.5800   44.7290 S   0  0  0  0  0  0  0  0  0  0  0  0
   52.6831   24.2003   45.2726 H   0  0  0  0  0  0  0  0  0  0  0  0
   53.9925   24.5043   44.0811 H   0  0  0  0  0  0  0  0  0  0  0  0
   53.1255   22.9310   44.0811 H   0  0  0  0  0  0  0  0  0  0  0  0
   53.9993   21.1258   45.2371 H   0  0  0  0  0  0  0  0  0  0  0  0
   55.6511   20.1639   46.8358 H   0  0  0  0  0  0  0  0  0  0  0  0
   58.1470   21.0810   48.0590 H   0  0  0  0  0  0  0  0  0  0  0  0
   56.9404   24.1469   47.9180 H   0  0  0  0  0  0  0  0  0  0  0  0
   55.6853   30.0061   44.0406 H   0  0  0  0  0  0  0  0  0  0  0  0
   56.1135   32.4580   44.0131 H   0  0  0  0  0  0  0  0  0  0  0  0
   60.4031   35.3970   45.7236 H   0  0  0  0  0  0  0  0  0  0  0  0
   60.0569   36.0651   47.3461 H   0  0  0  0  0  0  0  0  0  0  0  0
   61.5262   33.5974   46.5883 H   0  0  0  0  0  0  0  0  0  0  0  0
   61.5687   34.4846   48.1195 H   0  0  0  0  0  0  0  0  0  0  0  0
   60.0770   32.0755   47.4784 H   0  0  0  0  0  0  0  0  0  0  0  0
   60.0910   32.9339   49.0260 H   0  0  0  0  0  0  0  0  0  0  0  0
   57.9081   32.7776   47.2526 H   0  0  0  0  0  0  0  0  0  0  0  0
   58.0778   33.9881   48.5588 H   0  0  0  0  0  0  0  0  0  0  0  0
   59.8908   31.8328   46.0230 H   0  0  0  0  0  0  0  0  0  0  0  0
   59.4742   29.3791   46.0510 H   0  0  0  0  0  0  0  0  0  0  0  0
   58.9889   27.3362   43.8139 H   0  0  0  0  0  0  0  0  0  0  0  0
  1  2  1  0
  2  3  2  0
  3  4  1  0
  4  5  2  0
  5  6  1  0
  5  7  1  0
  7  8  2  0
  8  9  1  0
  9 10  2  3
 10 11  1  0
 11 12  1  0
 12 13  1  0
 13 14  2  0
 14 15  1  0
 15 16  2  0
 16 17  1  0
 17 18  2  0
 17 19  2  0
 17 20  1  0
 20 21  1  0
 21 22  1  0
 22 23  1  0
 23 24  1  0
 16 25  1  0
 25 26  2  0
 12 27  2  0
 27 28  1  0
  8  2  1  0
 28 10  1  0
 26 13  1  0
 24 20  1  0
  1 29  1  0
  1 30  1  0
  1 31  1  0
  3 32  1  0
  4 33  1  0
  6 34  1  0
  7 35  1  0
 14 36  1  0
 15 37  1  0
 21 38  1  0
 21 39  1  0
 22 40  1  0
 22 41  1  0
 23 42  1  0
 23 43  1  0
 24 44  1  0
 24 45  1  0
 25 46  1  0
 26 47  1  0
 27 48  1  0
M  CHG  1  11  -1
M  END
>  <UniqueID>  (47) 
41

>  <SMILES>  (47) 
Cc1ccc(O)cc1N=c1[n-]c(-c2ccc(S(=O)(=O)N3CCCC3)cc2)cs1

>  <Energy>  (47) 
92.04117733005427

>  <Genealogy>  (47) 
Cc1ccc(O)cc1N=c1[n-]c(-c2ccc(S(=O)(=O)N3CCCC3)cc2)cs1 (protonated)
Cc1ccc(O)cc1N=c1[n-]c(-c2ccc(S(=O)(=O)N3CCCC3)cc2)cs1 (3D coordinates assigned)
Cc1ccc(O)cc1N=c1[n-]c(-c2ccc(S(=O)(=O)N3CCCC3)cc2)cs1 (nonaromatic ring conformer: 92.04117733005427 kcal/mol)

>  <smiles>  (47) 
Cc1ccc(O)cc1N=c1[nH]c(-c2ccc(S(=O)(=O)N3CCCC3)cc2)cs1

>  <score_type>  (47) 
oracle

>  <origin>  (47) 
adg

>  <m_score__min__energy>  (47) 
-11.199999999999999

>  <m_primary>  (47) 
energy

$$$$
47:0
     RDKit          3D

 58 59  0  0  0  0  0  0  0  0999 V2000
   59.7670   27.1000   45.9780 C   0  0  0  0  0  0  0  0  0  0  0  0
   58.4660   26.3980   46.2770 C   0  0  0  0  0  0  0  0  0  0  0  0
   58.5330   25.1330   46.8820 C   0  0  0  0  0  0  0  0  0  0  0  0
   57.3620   24.4390   47.1760 C   0  0  0  0  0  0  0  0  0  0  0  0
   57.4180   23.3000   47.7110 O   0  0  0  0  0  0  0  0  0  0  0  0
   56.1580   24.9850   46.8820 N   0  0  0  0  0  0  0  0  0  0  0  0
   56.0420   26.2140   46.3170 C   0  0  0  0  0  0  0  0  0  0  0  0
   54.7710   26.6960   46.0290 O   0  0  0  0  0  0  0  0  0  0  0  0
   57.1930   26.9780   46.0200 C   0  0  0  0  0  0  0  0  0  0  0  0
   57.0370   28.3710   45.4260 C   0  0  0  0  0  0  0  0  0  0  0  0
   57.7270   28.5400   44.0580 C   0  0  0  0  0  0  0  0  0  0  0  0
   56.9250   29.3650   43.0370 C   0  0  0  0  0  0  0  0  0  0  0  0
   57.1950   30.8760   43.1470 C   0  0  0  0  0  0  0  0  0  0  0  0
   57.0140   31.4100   44.5790 C   0  0  0  0  0  0  0  0  0  0  0  0
   57.3360   32.9020   44.7320 C   0  0  0  0  0  0  0  0  0  0  0  0
   58.1120   33.1450   45.9470 N   0  0  0  0  0  0  0  0  0  0  0  0
   59.0740   34.2050   46.0640 C   0  0  0  0  0  0  0  0  0  0  0  0
   59.1960   35.0540   45.1400 O   0  0  0  0  0  0  0  0  0  0  0  0
   59.8570   34.3670   47.2540 N   0  0  0  0  0  0  0  0  0  0  0  0
   61.2260   33.9840   47.4370 C   0  0  0  0  0  0  0  0  0  0  0  0
   62.1200   33.8900   46.3550 C   0  0  0  0  0  0  0  0  0  0  0  0
   63.4530   33.5380   46.5750 C   0  0  0  0  0  0  0  0  0  0  0  0
   63.9110   33.2990   47.8720 C   0  0  0  0  0  0  0  0  0  0  0  0
   63.0470   33.4330   48.9650 C   0  0  0  0  0  0  0  0  0  0  0  0
   63.5550   33.1880   50.2500 O   0  0  0  0  0  0  0  0  0  0  0  0
   64.2450   32.0330   50.6460 C   0  0  0  0  0  0  0  0  0  0  0  0
   63.6140   30.9830   50.9490 O   0  0  0  0  0  0  0  0  0  0  0  0
   65.6780   32.0670   50.7630 N   0  0  0  0  0  0  0  0  0  0  0  0
   66.4020   30.8680   51.1920 C   0  0  0  0  0  0  0  0  0  0  0  0
   66.3930   33.3060   50.4520 C   0  0  0  0  0  0  0  0  0  0  0  0
   61.6980   33.7690   48.7380 C   0  0  0  0  0  0  0  0  0  0  0  0
   60.2642   27.3683   46.9218 H   0  0  0  0  0  0  0  0  0  0  0  0
   60.4193   26.4314   45.3971 H   0  0  0  0  0  0  0  0  0  0  0  0
   59.5663   28.0123   45.3971 H   0  0  0  0  0  0  0  0  0  0  0  0
   59.5104   24.6900   47.1238 H   0  0  0  0  0  0  0  0  0  0  0  0
   55.9638   28.5778   45.3019 H   0  0  0  0  0  0  0  0  0  0  0  0
   57.5213   29.0735   46.1202 H   0  0  0  0  0  0  0  0  0  0  0  0
   58.6936   29.0394   44.2200 H   0  0  0  0  0  0  0  0  0  0  0  0
   57.8305   27.5308   43.6328 H   0  0  0  0  0  0  0  0  0  0  0  0
   57.1974   29.0321   42.0246 H   0  0  0  0  0  0  0  0  0  0  0  0
   55.8573   29.2034   43.2463 H   0  0  0  0  0  0  0  0  0  0  0  0
   58.2286   31.0729   42.8262 H   0  0  0  0  0  0  0  0  0  0  0  0
   56.4645   31.3911   42.5060 H   0  0  0  0  0  0  0  0  0  0  0  0
   55.9680   31.2490   44.8789 H   0  0  0  0  0  0  0  0  0  0  0  0
   57.7252   30.8632   45.2156 H   0  0  0  0  0  0  0  0  0  0  0  0
   57.9174   33.2365   43.8601 H   0  0  0  0  0  0  0  0  0  0  0  0
   56.3910   33.4609   44.8002 H   0  0  0  0  0  0  0  0  0  0  0  0
   57.9090   32.5450   46.7780 H   0  0  0  0  0  0  0  0  0  0  0  0
   61.7680   34.0943   45.3331 H   0  0  0  0  0  0  0  0  0  0  0  0
   64.1443   33.4487   45.7241 H   0  0  0  0  0  0  0  0  0  0  0  0
   64.9578   33.0034   48.0360 H   0  0  0  0  0  0  0  0  0  0  0  0
   66.4262   30.8279   52.2910 H   0  0  0  0  0  0  0  0  0  0  0  0
   65.8929   29.9736   50.8036 H   0  0  0  0  0  0  0  0  0  0  0  0
   67.4306   30.9021   50.8036 H   0  0  0  0  0  0  0  0  0  0  0  0
   66.6822   33.8072   51.3875 H   0  0  0  0  0  0  0  0  0  0  0  0
   67.2949   33.0720   49.8674 H   0  0  0  0  0  0  0  0  0  0  0  0
   65.7391   33.9698   49.8674 H   0  0  0  0  0  0  0  0  0  0  0  0
   61.0090   33.8634   49.5903 H   0  0  0  0  0  0  0  0  0  0  0  0
  1  2  1  0
  2  3  2  0
  3  4  1  0
  4  5  2  0
  4  6  1  0
  6  7  1  0
  7  8  1  0
  7  9  2  0
  9 10  1  0
 10 11  1  0
 11 12  1  0
 12 13  1  0
 13 14  1  0
 14 15  1  0
 15 16  1  0
 16 17  1  0
 17 18  2  0
 17 19  1  0
 19 20  1  0
 20 21  2  0
 21 22  1  0
 22 23  2  0
 23 24  1  0
 24 25  1  0
 25 26  1  0
 26 27  2  0
 26 28  1  0
 28 29  1  0
 28 30  1  0
 24 31  2  0
  9  2  1  0
 31 20  1  0
  1 32  1  0
  1 33  1  0
  1 34  1  0
  3 35  1  0
 10 36  1  0
 10 37  1  0
 11 38  1  0
 11 39  1  0
 12 40  1  0
 12 41  1  0
 13 42  1  0
 13 43  1  0
 14 44  1  0
 14 45  1  0
 15 46  1  0
 15 47  1  0
 16 48  1  0
 21 49  1  0
 22 50  1  0
 23 51  1  0
 29 52  1  0
 29 53  1  0
 29 54  1  0
 30 55  1  0
 30 56  1  0
 30 57  1  0
 31 58  1  0
M  CHG  3   6  -1   8  -1  19  -1
M  END
>  <UniqueID>  (48) 
42

>  <SMILES>  (48) 
Cc1cc(=O)[n-]c([O-])c1CCCCCCNC(=O)[N-]c1cccc(OC(=O)N(C)C)c1

>  <Energy>  (48) 
55.14864155598642

>  <Genealogy>  (48) 
Cc1cc(=O)[n-]c([O-])c1CCCCCCNC(=O)[N-]c1cccc(OC(=O)N(C)C)c1 (protonated)
Cc1cc(=O)[n-]c([O-])c1CCCCCCNC(=O)[N-]c1cccc(OC(=O)N(C)C)c1 (3D coordinates assigned)
Cc1cc(=O)[n-]c([O-])c1CCCCCCNC(=O)[N-]c1cccc(OC(=O)N(C)C)c1 (optimized conformer: 55.14864155598642 kcal/mol)

>  <smiles>  (48) 
Cc1cc(=O)[nH]c(O)c1CCCCCCNC(=O)Nc1cccc(OC(=O)N(C)C)c1

>  <score_type>  (48) 
oracle

>  <origin>  (48) 
adg

>  <m_score__min__energy>  (48) 
-16.199999999999999

>  <m_primary>  (48) 
energy

$$$$
48:0
     RDKit          3D

 54 57  0  0  0  0  0  0  0  0999 V2000
   55.3390   21.2400   45.6070 C   0  0  0  0  0  0  0  0  0  0  0  0
   55.8950   22.4480   44.9820 N   0  0  0  0  0  0  0  0  0  0  0  0
   55.9070   23.6080   45.7050 C   0  0  0  0  0  0  0  0  0  0  0  0
   56.4050   24.7990   45.1530 C   0  0  0  0  0  0  0  0  0  0  0  0
   56.3500   26.0700   45.9100 C   0  0  0  0  0  0  0  0  0  0  0  0
   55.2550   26.6790   46.0360 O   0  0  0  0  0  0  0  0  0  0  0  0
   57.5420   26.6130   46.4900 N   0  0  0  0  0  0  0  0  0  0  0  0
   58.6400   27.1840   45.7170 C   0  0  0  0  0  0  0  0  0  0  0  0
   59.0810   28.5030   46.2900 C   0  0  0  0  0  0  0  0  0  0  0  0
   58.2450   29.2110   47.1680 C   0  0  0  0  0  0  0  0  0  0  0  0
   58.6400   30.4470   47.6760 C   0  0  0  0  0  0  0  0  0  0  0  0
   59.8780   30.9960   47.3150 C   0  0  0  0  0  0  0  0  0  0  0  0
   60.3440   32.5770   47.9410 S   0  0  0  0  0  0  0  0  0  0  0  0
   60.1980   32.5650   49.4360 O   0  0  0  0  0  0  0  0  0  0  0  0
   61.7750   32.8670   47.5830 O   0  0  0  0  0  0  0  0  0  0  0  0
   59.2990   33.7900   47.2300 N   0  0  0  0  0  0  0  0  0  0  0  0
   57.8680   33.4830   47.4740 C   0  0  0  0  0  0  0  0  0  0  0  0
   57.0270   33.3110   46.1980 C   0  0  0  0  0  0  0  0  0  0  0  0
   57.7790   32.5740   45.1760 N   0  0  0  0  0  0  0  0  0  0  0  0
   57.1380   31.5950   44.3370 C   0  0  0  0  0  0  0  0  0  0  0  0
   56.2510   30.6870   44.8050 N   0  0  0  0  0  0  0  0  0  0  0  0
   55.7900   29.8720   43.8200 C   0  0  0  0  0  0  0  0  0  0  0  0
   56.3060   30.1220   42.5540 C   0  0  0  0  0  0  0  0  0  0  0  0
   57.3810   31.4090   42.6780 S   0  0  0  0  0  0  0  0  0  0  0  0
   59.1600   32.9650   44.8760 C   0  0  0  0  0  0  0  0  0  0  0  0
   59.6440   34.0700   45.8230 C   0  0  0  0  0  0  0  0  0  0  0  0
   60.7280   30.2880   46.4540 C   0  0  0  0  0  0  0  0  0  0  0  0
   60.3290   29.0490   45.9400 C   0  0  0  0  0  0  0  0  0  0  0  0
   56.9020   24.7740   43.8440 C   0  0  0  0  0  0  0  0  0  0  0  0
   56.8550   23.5970   43.1020 C   0  0  0  0  0  0  0  0  0  0  0  0
   56.3370   22.4350   43.6810 C   0  0  0  0  0  0  0  0  0  0  0  0
   56.2820   21.3800   42.9860 O   0  0  0  0  0  0  0  0  0  0  0  0
   55.3847   21.3393   46.7016 H   0  0  0  0  0  0  0  0  0  0  0  0
   54.2922   21.1137   45.2937 H   0  0  0  0  0  0  0  0  0  0  0  0
   55.9239   20.3627   45.2937 H   0  0  0  0  0  0  0  0  0  0  0  0
   55.5206   23.6084   46.7349 H   0  0  0  0  0  0  0  0  0  0  0  0
   59.4894   26.4852   45.7302 H   0  0  0  0  0  0  0  0  0  0  0  0
   58.2908   27.3511   44.6873 H   0  0  0  0  0  0  0  0  0  0  0  0
   57.2718   28.7873   47.4568 H   0  0  0  0  0  0  0  0  0  0  0  0
   57.9776   30.9940   48.3630 H   0  0  0  0  0  0  0  0  0  0  0  0
   57.8106   32.5489   48.0521 H   0  0  0  0  0  0  0  0  0  0  0  0
   57.4494   34.3470   48.0109 H   0  0  0  0  0  0  0  0  0  0  0  0
   56.1098   32.7550   46.4424 H   0  0  0  0  0  0  0  0  0  0  0  0
   56.7763   34.3066   45.8031 H   0  0  0  0  0  0  0  0  0  0  0  0
   55.0603   29.0714   44.0112 H   0  0  0  0  0  0  0  0  0  0  0  0
   56.0554   29.5746   41.6334 H   0  0  0  0  0  0  0  0  0  0  0  0
   59.8132   32.0868   44.9864 H   0  0  0  0  0  0  0  0  0  0  0  0
   59.1962   33.3496   43.8461 H   0  0  0  0  0  0  0  0  0  0  0  0
   60.7372   34.1564   45.7369 H   0  0  0  0  0  0  0  0  0  0  0  0
   59.1440   35.0058   45.5329 H   0  0  0  0  0  0  0  0  0  0  0  0
   61.7085   30.7062   46.1824 H   0  0  0  0  0  0  0  0  0  0  0  0
   60.9950   28.4993   45.2586 H   0  0  0  0  0  0  0  0  0  0  0  0
   57.3301   25.6856   43.4015 H   0  0  0  0  0  0  0  0  0  0  0  0
   57.2235   23.5815   42.0657 H   0  0  0  0  0  0  0  0  0  0  0  0
  1  2  1  0
  2  3  1  0
  3  4  2  0
  4  5  1  0
  5  6  2  0
  5  7  1  0
  7  8  1  0
  8  9  1  0
  9 10  2  0
 10 11  1  0
 11 12  2  0
 12 13  1  0
 13 14  2  0
 13 15  2  0
 13 16  1  0
 16 17  1  0
 17 18  1  0
 18 19  1  0
 19 20  1  0
 20 21  2  0
 21 22  1  0
 22 23  2  0
 23 24  1  0
 19 25  1  0
 25 26  1  0
 12 27  1  0
 27 28  2  0
  4 29  1  0
 29 30  2  0
 30 31  1  0
 31 32  2  0
 31  2  1  0
 28  9  1  0
 26 16  1  0
 24 20  1  0
  1 33  1  0
  1 34  1  0
  1 35  1  0
  3 36  1  0
  8 37  1  0
  8 38  1  0
 10 39  1  0
 11 40  1  0
 17 41  1  0
 17 42  1  0
 18 43  1  0
 18 44  1  0
 22 45  1  0
 23 46  1  0
 25 47  1  0
 25 48  1  0
 26 49  1  0
 26 50  1  0
 27 51  1  0
 28 52  1  0
 29 53  1  0
 30 54  1  0
M  CHG  1   7  -1
M  END
>  <UniqueID>  (49) 
43

>  <SMILES>  (49) 
Cn1cc(C(=O)[N-]Cc2ccc(S(=O)(=O)N3CCN(c4nccs4)CC3)cc2)ccc1=O

>  <Energy>  (49) 
96.79230435434482

>  <Genealogy>  (49) 
Cn1cc(C(=O)[N-]Cc2ccc(S(=O)(=O)N3CCN(c4nccs4)CC3)cc2)ccc1=O (protonated)
Cn1cc(C(=O)[N-]Cc2ccc(S(=O)(=O)N3CCN(c4nccs4)CC3)cc2)ccc1=O (3D coordinates assigned)
Cn1cc(C(=O)[N-]Cc2ccc(S(=O)(=O)N3CCN(c4nccs4)CC3)cc2)ccc1=O (nonaromatic ring conformer: 96.79230435434482 kcal/mol)

>  <smiles>  (49) 
Cn1cc(C(=O)NCc2ccc(S(=O)(=O)N3CCN(c4nccs4)CC3)cc2)ccc1=O

>  <score_type>  (49) 
oracle

>  <origin>  (49) 
adg

>  <m_score__min__energy>  (49) 
-11.050000000000001

>  <m_primary>  (49) 
energy

$$$$
49:0
     RDKit          3D

 47 50  0  0  0  0  0  0  0  0999 V2000
   60.7678   30.4574   46.6004 H   0  0  0  0  0  0  0  0  0  0  0  0
   59.9350   29.7390   46.6180 C   0  0  0  0  0  0  0  0  0  0  0  0
   58.7940   29.5160   45.3970 S   0  0  0  0  0  0  0  0  0  0  0  0
   57.9920   28.3020   46.2380 C   0  0  0  0  0  0  0  0  0  0  0  0
   56.9310   27.6970   45.7940 N   0  0  0  0  0  0  0  0  0  0  0  0
   56.7930   26.2800   45.6150 C   0  0  0  0  0  0  0  0  0  0  0  0
   57.9510   25.5140   45.4240 C   0  0  0  0  0  0  0  0  0  0  0  0
   58.9377   25.9997   45.4479 H   0  0  0  0  0  0  0  0  0  0  0  0
   57.8600   24.1350   45.2030 C   0  0  0  0  0  0  0  0  0  0  0  0
   58.7730   23.5441   45.0376 H   0  0  0  0  0  0  0  0  0  0  0  0
   56.6090   23.5060   45.1920 C   0  0  0  0  0  0  0  0  0  0  0  0
   56.5377   22.4253   44.9994 H   0  0  0  0  0  0  0  0  0  0  0  0
   55.4510   24.2530   45.4260 C   0  0  0  0  0  0  0  0  0  0  0  0
   54.4698   23.7557   45.4304 H   0  0  0  0  0  0  0  0  0  0  0  0
   55.5350   25.6330   45.6550 C   0  0  0  0  0  0  0  0  0  0  0  0
   54.3740   26.3410   45.9440 O   0  0  0  0  0  0  0  0  0  0  0  0
   58.5580   28.0560   47.4400 N   0  0  0  0  0  0  0  0  0  0  0  0
   59.6390   28.8540   47.6540 C   0  0  0  0  0  0  0  0  0  0  0  0
   60.4790   28.7240   48.8840 C   0  0  0  0  0  0  0  0  0  0  0  0
   61.4777   28.3581   48.6034 H   0  0  0  0  0  0  0  0  0  0  0  0
   59.9952   28.0152   49.5721 H   0  0  0  0  0  0  0  0  0  0  0  0
   60.6140   30.0490   49.5690 C   0  0  0  0  0  0  0  0  0  0  0  0
   59.6680   30.5950   50.3640 N   0  0  0  0  0  0  0  0  0  0  0  0
   60.1540   31.7700   50.7320 N   0  0  0  0  0  0  0  0  0  0  0  0
   59.6580   32.4670   51.3350 H   0  0  0  0  0  0  0  0  0  0  0  0
   61.3510   31.9090   50.1460 C   0  0  0  0  0  0  0  0  0  0  0  0
   62.4170   33.3350   50.3590 S   0  0  0  0  0  0  0  0  0  0  0  0
   61.7900   34.2230   48.8900 C   0  0  0  0  0  0  0  0  0  0  0  0
   62.1818   33.7495   47.9777 H   0  0  0  0  0  0  0  0  0  0  0  0
   62.1185   35.2723   48.9216 H   0  0  0  0  0  0  0  0  0  0  0  0
   60.2930   34.1610   48.8850 C   0  0  0  0  0  0  0  0  0  0  0  0
   59.6840   34.2380   49.9840 O   0  0  0  0  0  0  0  0  0  0  0  0
   59.5520   33.9110   47.6790 N   0  0  0  0  0  0  0  0  0  0  0  0
   59.9640   34.4990   46.3980 C   0  0  0  0  0  0  0  0  0  0  0  0
   60.4199   35.4839   46.5773 H   0  0  0  0  0  0  0  0  0  0  0  0
   60.6955   33.8372   45.9112 H   0  0  0  0  0  0  0  0  0  0  0  0
   58.7430   34.6610   45.4900 C   0  0  0  0  0  0  0  0  0  0  0  0
   58.0748   35.4238   45.9162 H   0  0  0  0  0  0  0  0  0  0  0  0
   59.0842   34.9678   44.4903 H   0  0  0  0  0  0  0  0  0  0  0  0
   58.0390   33.4390   45.3750 O   0  0  0  0  0  0  0  0  0  0  0  0
   57.4830   33.0900   46.6310 C   0  0  0  0  0  0  0  0  0  0  0  0
   56.8597   33.9214   46.9920 H   0  0  0  0  0  0  0  0  0  0  0  0
   56.8772   32.1805   46.5056 H   0  0  0  0  0  0  0  0  0  0  0  0
   58.5830   32.8060   47.6580 C   0  0  0  0  0  0  0  0  0  0  0  0
   58.1310   32.6995   48.6552 H   0  0  0  0  0  0  0  0  0  0  0  0
   59.1026   31.8768   47.3813 H   0  0  0  0  0  0  0  0  0  0  0  0
   61.6490   30.8480   49.4290 O   0  0  0  0  0  0  0  0  0  0  0  0
  1  2  1  0
  2  3  1  0
  3  4  1  0
  4  5  2  0
  5  6  1  0
  6  7  2  0
  7  8  1  0
  7  9  1  0
  9 10  1  0
  9 11  2  0
 11 12  1  0
 11 13  1  0
 13 14  1  0
 13 15  2  0
 15 16  1  0
  4 17  1  0
 17 18  1  0
 18 19  1  0
 19 20  1  0
 19 21  1  0
 19 22  1  0
 22 23  2  0
 23 24  1  0
 24 25  1  0
 24 26  2  0
 26 27  1  0
 27 28  1  0
 28 29  1  0
 28 30  1  0
 28 31  1  0
 31 32  2  0
 31 33  1  0
 33 34  1  0
 34 35  1  0
 34 36  1  0
 34 37  1  0
 37 38  1  0
 37 39  1  0
 37 40  1  0
 40 41  1  0
 41 42  1  0
 41 43  1  0
 41 44  1  0
 44 45  1  0
 44 46  1  0
 26 47  1  0
 18  2  2  0
 47 22  1  0
 15  6  1  0
 44 33  1  0
M  CHG  3  16  -1  17  -1  24   1
M  END
>  <UniqueID>  (50) 
44

>  <SMILES>  (50) 
O=C(CSc1[nH+]nc(Cc2cs/c(=N/c3ccccc3[O-])[n-]2)o1)N1CCOCC1

>  <Energy>  (50) 
118.4673085908093

>  <Genealogy>  (50) 
O=C(CSc1[nH+]nc(Cc2csc(=Nc3ccccc3[O-])[n-]2)o1)N1CCOCC1 (protonated)
O=C(CSc1[nH+]nc(Cc2cs/c(=N/c3ccccc3[O-])[n-]2)o1)N1CCOCC1 (cis-trans isomerization)
O=C(CSc1[nH+]nc(Cc2cs/c(=N/c3ccccc3[O-])[n-]2)o1)N1CCOCC1 (3D coordinates assigned)
O=C(CSc1[nH+]nc(Cc2cs/c(=N/c3ccccc3[O-])[n-]2)o1)N1CCOCC1 (nonaromatic ring conformer: 118.4673085908093 kcal/mol)

>  <smiles>  (50) 
O=C(CSc1nnc(Cc2csc(=Nc3ccccc3O)[nH]2)o1)N1CCOCC1

>  <score_type>  (50) 
oracle

>  <origin>  (50) 
adg

>  <m_score__min__energy>  (50) 
-13.609999999999999

>  <m_primary>  (50) 
energy

$$$$
50:0
     RDKit          3D

 61 64  0  0  0  0  0  0  0  0999 V2000
   51.9930   22.1060   46.6220 H   0  0  0  0  0  0  0  0  0  0  0  0
   52.4080   22.1040   45.6630 N   0  0  0  0  0  0  0  0  0  0  0  0
   53.2080   23.1940   45.2080 C   0  0  0  0  0  0  0  0  0  0  0  0
   52.8060   23.8840   44.2320 O   0  0  0  0  0  0  0  0  0  0  0  0
   54.4960   23.5130   45.8700 C   0  0  0  0  0  0  0  0  0  0  0  0
   55.1690   22.5370   46.6240 C   0  0  0  0  0  0  0  0  0  0  0  0
   54.7360   21.5306   46.7219 H   0  0  0  0  0  0  0  0  0  0  0  0
   56.3810   22.8310   47.2500 C   0  0  0  0  0  0  0  0  0  0  0  0
   57.0280   21.8450   47.9910 O   0  0  0  0  0  0  0  0  0  0  0  0
   56.6260   20.9220   48.1120 H   0  0  0  0  0  0  0  0  0  0  0  0
   56.9380   24.1100   47.1290 C   0  0  0  0  0  0  0  0  0  0  0  0
   57.8936   24.3377   47.6239 H   0  0  0  0  0  0  0  0  0  0  0  0
   56.2860   25.1060   46.3800 C   0  0  0  0  0  0  0  0  0  0  0  0
   56.8780   26.4620   46.2510 C   0  0  0  0  0  0  0  0  0  0  0  0
   56.1860   27.4590   45.6360 N   0  0  0  0  0  0  0  0  0  0  0  0
   56.7160   28.7010   45.5110 C   0  0  0  0  0  0  0  0  0  0  0  0
   56.0230   29.6200   44.8970 N   0  0  0  0  0  0  0  0  0  0  0  0
   56.4000   30.8240   44.1320 C   0  0  0  0  0  0  0  0  0  0  0  0
   55.6853   31.4676   44.6658 H   0  0  0  0  0  0  0  0  0  0  0  0
   56.7820   30.6640   42.6670 C   0  0  0  0  0  0  0  0  0  0  0  0
   56.7046   29.6797   42.1820 H   0  0  0  0  0  0  0  0  0  0  0  0
   56.4837   31.1499   41.7263 H   0  0  0  0  0  0  0  0  0  0  0  0
   57.8600   30.9150   43.7210 C   0  0  0  0  0  0  0  0  0  0  0  0
   58.5597   30.1115   43.9946 H   0  0  0  0  0  0  0  0  0  0  0  0
   58.6610   31.6572   43.8535 H   0  0  0  0  0  0  0  0  0  0  0  0
   57.9530   28.9460   46.0160 N   0  0  0  0  0  0  0  0  0  0  0  0
   58.6600   27.9590   46.6290 C   0  0  0  0  0  0  0  0  0  0  0  0
   59.8700   28.1660   47.0640 N   0  0  0  0  0  0  0  0  0  0  0  0
   60.4070   29.4440   47.4330 C   0  0  0  0  0  0  0  0  0  0  0  0
   60.7490   30.3590   46.4310 C   0  0  0  0  0  0  0  0  0  0  0  0
   60.6272   30.0836   45.3730 H   0  0  0  0  0  0  0  0  0  0  0  0
   61.2450   31.6220   46.7690 C   0  0  0  0  0  0  0  0  0  0  0  0
   61.4928   32.3434   45.9765 H   0  0  0  0  0  0  0  0  0  0  0  0
   61.4280   31.9730   48.1170 C   0  0  0  0  0  0  0  0  0  0  0  0
   61.8900   33.3530   48.4930 C   0  0  0  0  0  0  0  0  0  0  0  0
   62.9396   33.4806   48.1895 H   0  0  0  0  0  0  0  0  0  0  0  0
   61.7972   33.4796   49.5817 H   0  0  0  0  0  0  0  0  0  0  0  0
   61.0690   34.3560   47.8240 N   0  0  0  0  0  0  0  0  0  0  0  0
   59.6950   34.5930   48.1450 C   0  0  0  0  0  0  0  0  0  0  0  0
   59.3180   34.5890   49.3480 O   0  0  0  0  0  0  0  0  0  0  0  0
   58.7890   34.8260   47.1020 O   0  0  0  0  0  0  0  0  0  0  0  0
   58.3490   33.8670   46.1280 C   0  0  0  0  0  0  0  0  0  0  0  0
   57.0230   34.3130   45.4820 C   0  0  0  0  0  0  0  0  0  0  0  0
   56.2954   34.5577   46.2698 H   0  0  0  0  0  0  0  0  0  0  0  0
   57.1998   35.2011   44.8575 H   0  0  0  0  0  0  0  0  0  0  0  0
   56.6272   33.4985   44.8575 H   0  0  0  0  0  0  0  0  0  0  0  0
   59.4300   33.7940   45.0410 C   0  0  0  0  0  0  0  0  0  0  0  0
   60.4211   33.7271   45.5134 H   0  0  0  0  0  0  0  0  0  0  0  0
   59.2613   32.9052   44.4152 H   0  0  0  0  0  0  0  0  0  0  0  0
   59.3823   34.6974   44.4152 H   0  0  0  0  0  0  0  0  0  0  0  0
   58.1960   32.4750   46.7720 C   0  0  0  0  0  0  0  0  0  0  0  0
   58.2069   32.5746   47.8674 H   0  0  0  0  0  0  0  0  0  0  0  0
   57.2432   32.0266   46.4541 H   0  0  0  0  0  0  0  0  0  0  0  0
   59.0287   31.8304   46.4541 H   0  0  0  0  0  0  0  0  0  0  0  0
   61.1250   31.0390   49.1190 C   0  0  0  0  0  0  0  0  0  0  0  0
   61.2769   31.3012   50.1764 H   0  0  0  0  0  0  0  0  0  0  0  0
   60.6310   29.7770   48.7790 C   0  0  0  0  0  0  0  0  0  0  0  0
   60.4167   29.0415   49.5684 H   0  0  0  0  0  0  0  0  0  0  0  0
   58.1200   26.7200   46.7380 N   0  0  0  0  0  0  0  0  0  0  0  0
   55.0630   24.7960   45.7530 C   0  0  0  0  0  0  0  0  0  0  0  0
   54.5443   25.5669   45.1642 H   0  0  0  0  0  0  0  0  0  0  0  0
  1  2  1  0
  2  3  1  0
  3  4  2  0
  3  5  1  0
  5  6  2  0
  6  7  1  0
  6  8  1  0
  8  9  1  0
  9 10  1  0
  8 11  2  0
 11 12  1  0
 11 13  1  0
 13 14  1  0
 14 15  2  0
 15 16  1  0
 16 17  2  0
 17 18  1  0
 18 19  1  0
 18 20  1  0
 20 21  1  0
 20 22  1  0
 20 23  1  0
 23 24  1  0
 23 25  1  0
 16 26  1  0
 26 27  1  0
 27 28  2  3
 28 29  1  0
 29 30  2  0
 30 31  1  0
 30 32  1  0
 32 33  1  0
 32 34  2  0
 34 35  1  0
 35 36  1  0
 35 37  1  0
 35 38  1  0
 38 39  1  0
 39 40  2  0
 39 41  1  0
 41 42  1  0
 42 43  1  0
 43 44  1  0
 43 45  1  0
 43 46  1  0
 42 47  1  0
 47 48  1  0
 47 49  1  0
 47 50  1  0
 42 51  1  0
 51 52  1  0
 51 53  1  0
 51 54  1  0
 34 55  1  0
 55 56  1  0
 55 57  2  0
 57 58  1  0
 27 59  1  0
 13 60  2  0
 60 61  1  0
 60  5  1  0
 59 14  1  0
 23 18  1  0
 57 29  1  0
M  CHG  4   2  -1  26  -1  38  -1  59  -1
M  END
>  <UniqueID>  (51) 
45

>  <SMILES>  (51) 
CC(C)(C)OC(=O)[N-]Cc1ccc(N=c2[n-]c(-c3cc(O)cc(C([NH-])=O)c3)n/c(=N/C3CC3)[n-]2)cc1

>  <Energy>  (51) 
337.9354461782977

>  <Genealogy>  (51) 
CC(C)(C)OC(=O)[N-]Cc1ccc(N=c2[n-]c(-c3cc(O)cc(C([NH-])=O)c3)nc(=NC3CC3)[n-]2)cc1 (protonated)
CC(C)(C)OC(=O)[N-]Cc1ccc(N=c2[n-]c(-c3cc(O)cc(C([NH-])=O)c3)n/c(=N/C3CC3)[n-]2)cc1 (cis-trans isomerization)
CC(C)(C)OC(=O)[N-]Cc1ccc(N=c2[n-]c(-c3cc(O)cc(C([NH-])=O)c3)n/c(=N/C3CC3)[n-]2)cc1 (3D coordinates assigned)
CC(C)(C)OC(=O)[N-]Cc1ccc(N=c2[n-]c(-c3cc(O)cc(C([NH-])=O)c3)n/c(=N/C3CC3)[n-]2)cc1 (nonaromatic ring conformer: 337.9354461782977 kcal/mol)

>  <smiles>  (51) 
CC(C)(C)OC(=O)NCc1ccc(N=c2[nH]c(-c3cc(O)cc(C(N)=O)c3)nc(=NC3CC3)[nH]2)cc1

>  <score_type>  (51) 
oracle

>  <origin>  (51) 
adg

>  <m_score__min__energy>  (51) 
-15.9

>  <m_primary>  (51) 
energy

$$$$
51:0
     RDKit          3D

 57 60  0  0  0  0  0  0  0  0999 V2000
   59.6060   28.1060   46.5570 C   0  0  0  0  0  0  0  0  0  0  0  0
   58.7310   28.7510   45.7680 C   0  0  0  0  0  0  0  0  0  0  0  0
   57.8110   28.1600   44.8900 C   0  0  0  0  0  0  0  0  0  0  0  0
   57.6160   26.8330   44.6980 C   0  0  0  0  0  0  0  0  0  0  0  0
   57.1580   25.8640   45.7220 C   0  0  0  0  0  0  0  0  0  0  0  0
   57.8660   24.8200   46.1930 N   0  0  0  0  0  0  0  0  0  0  0  0
   57.0000   24.1980   47.0190 C   0  0  0  0  0  0  0  0  0  0  0  0
   57.2990   23.1480   47.6470 O   0  0  0  0  0  0  0  0  0  0  0  0
   55.7810   24.7700   47.0970 N   0  0  0  0  0  0  0  0  0  0  0  0
   55.8970   25.8180   46.2680 C   0  0  0  0  0  0  0  0  0  0  0  0
   54.8630   26.6960   45.9880 O   0  0  0  0  0  0  0  0  0  0  0  0
   57.1120   29.2100   44.3040 C   0  0  0  0  0  0  0  0  0  0  0  0
   57.5950   30.3750   44.8640 C   0  0  0  0  0  0  0  0  0  0  0  0
   57.1730   31.7540   44.4510 C   0  0  0  0  0  0  0  0  0  0  0  0
   58.5710   30.0980   45.7580 N   0  0  0  0  0  0  0  0  0  0  0  0
   59.1980   31.0480   46.6380 C   0  0  0  0  0  0  0  0  0  0  0  0
   60.5030   31.5010   46.3900 C   0  0  0  0  0  0  0  0  0  0  0  0
   61.1470   32.3320   47.3130 C   0  0  0  0  0  0  0  0  0  0  0  0
   60.4720   32.7500   48.4670 C   0  0  0  0  0  0  0  0  0  0  0  0
   61.1910   33.5120   49.5000 C   0  0  0  0  0  0  0  0  0  0  0  0
   60.5830   34.4830   50.0380 O   0  0  0  0  0  0  0  0  0  0  0  0
   62.5720   33.2320   49.8620 N   0  0  0  0  0  0  0  0  0  0  0  0
   63.5210   33.5280   48.7700 C   0  0  0  0  0  0  0  0  0  0  0  0
   64.9560   33.1040   49.1440 C   0  0  0  0  0  0  0  0  0  0  0  0
   65.1000   32.8320   50.5930 N   0  0  0  0  0  0  0  0  0  0  0  0
   66.5220   32.7180   50.9810 C   0  0  0  0  0  0  0  0  0  0  0  0
   67.0120   31.2620   50.9380 C   0  0  0  0  0  0  0  0  0  0  0  0
   65.9590   30.3910   51.2450 O   0  0  0  0  0  0  0  0  0  0  0  0
   64.4520   33.9000   51.3830 C   0  0  0  0  0  0  0  0  0  0  0  0
   62.9350   33.9690   51.0890 C   0  0  0  0  0  0  0  0  0  0  0  0
   59.1470   32.3460   48.6880 C   0  0  0  0  0  0  0  0  0  0  0  0
   58.5140   31.4970   47.7780 C   0  0  0  0  0  0  0  0  0  0  0  0
   60.2835   28.6771   47.2088 H   0  0  0  0  0  0  0  0  0  0  0  0
   59.6450   27.0067   46.5514 H   0  0  0  0  0  0  0  0  0  0  0  0
   57.8157   26.4389   43.6906 H   0  0  0  0  0  0  0  0  0  0  0  0
   56.3247   29.1275   43.5402 H   0  0  0  0  0  0  0  0  0  0  0  0
   56.9863   32.3641   45.3471 H   0  0  0  0  0  0  0  0  0  0  0  0
   57.9705   32.2174   43.8515 H   0  0  0  0  0  0  0  0  0  0  0  0
   56.2528   31.6917   43.8515 H   0  0  0  0  0  0  0  0  0  0  0  0
   61.0211   31.2017   45.4670 H   0  0  0  0  0  0  0  0  0  0  0  0
   62.1824   32.6568   47.1327 H   0  0  0  0  0  0  0  0  0  0  0  0
   62.6320   32.2060   50.0620 H   0  0  0  0  0  0  0  0  0  0  0  0
   63.2099   32.9820   47.8672 H   0  0  0  0  0  0  0  0  0  0  0  0
   63.5155   34.6132   48.5900 H   0  0  0  0  0  0  0  0  0  0  0  0
   65.2128   32.1919   48.5852 H   0  0  0  0  0  0  0  0  0  0  0  0
   65.6307   33.9341   48.8878 H   0  0  0  0  0  0  0  0  0  0  0  0
   67.1292   33.3183   50.2875 H   0  0  0  0  0  0  0  0  0  0  0  0
   66.6241   33.0820   52.0140 H   0  0  0  0  0  0  0  0  0  0  0  0
   67.3901   31.0349   49.9303 H   0  0  0  0  0  0  0  0  0  0  0  0
   67.8156   31.1304   51.6775 H   0  0  0  0  0  0  0  0  0  0  0  0
   65.2250   30.9600   51.6010 H   0  0  0  0  0  0  0  0  0  0  0  0
   64.6014   33.6957   52.4535 H   0  0  0  0  0  0  0  0  0  0  0  0
   64.9054   34.8631   51.1058 H   0  0  0  0  0  0  0  0  0  0  0  0
   62.3890   33.5334   51.9388 H   0  0  0  0  0  0  0  0  0  0  0  0
   62.6668   35.0255   50.9409 H   0  0  0  0  0  0  0  0  0  0  0  0
   58.6063   32.6983   49.5788 H   0  0  0  0  0  0  0  0  0  0  0  0
   57.4760   31.1792   47.9553 H   0  0  0  0  0  0  0  0  0  0  0  0
  1  2  2  0
  2  3  1  0
  3  4  2  3
  4  5  1  0
  5  6  1  0
  6  7  1  0
  7  8  2  0
  7  9  1  0
  9 10  1  0
 10 11  1  0
  3 12  1  0
 12 13  2  0
 13 14  1  0
 13 15  1  0
 15 16  1  0
 16 17  2  0
 17 18  1  0
 18 19  2  0
 19 20  1  0
 20 21  2  0
 20 22  1  0
 22 23  1  0
 23 24  1  0
 24 25  1  0
 25 26  1  0
 26 27  1  0
 27 28  1  0
 25 29  1  0
 29 30  1  0
 19 31  1  0
 31 32  2  0
 15  2  1  0
 32 16  1  0
 10  5  2  0
 30 22  1  0
  1 33  1  0
  1 34  1  0
  4 35  1  0
 12 36  1  0
 14 37  1  0
 14 38  1  0
 14 39  1  0
 17 40  1  0
 18 41  1  0
 22 42  1  0
 23 43  1  0
 23 44  1  0
 24 45  1  0
 24 46  1  0
 26 47  1  0
 26 48  1  0
 27 49  1  0
 27 50  1  0
 28 51  1  0
 29 52  1  0
 29 53  1  0
 30 54  1  0
 30 55  1  0
 31 56  1  0
 32 57  1  0
M  CHG  4   6  -1   9  -1  11  -1  22   1
M  END
>  <UniqueID>  (52) 
46

>  <SMILES>  (52) 
C=c1c(=Cc2[n-]c(=O)[n-]c2[O-])cc(C)n1-c1ccc(C(=O)[NH+]2CCN(CCO)CC2)cc1

>  <Energy>  (52) 
149.2125120189494

>  <Genealogy>  (52) 
C=c1c(=Cc2[n-]c(=O)[n-]c2[O-])cc(C)n1-c1ccc(C(=O)[NH+]2CCN(CCO)CC2)cc1 (protonated)
C=c1c(=Cc2[n-]c(=O)[n-]c2[O-])cc(C)n1-c1ccc(C(=O)[NH+]2CCN(CCO)CC2)cc1 (3D coordinates assigned)
C=c1c(=Cc2[n-]c(=O)[n-]c2[O-])cc(C)n1-c1ccc(C(=O)[NH+]2CCN(CCO)CC2)cc1 (nonaromatic ring conformer: 149.2125120189494 kcal/mol)

>  <smiles>  (52) 
C=c1c(=Cc2[nH]c(=O)[nH]c2O)cc(C)n1-c1ccc(C(=O)N2CCN(CCO)CC2)cc1

>  <score_type>  (52) 
oracle

>  <origin>  (52) 
adg

>  <m_score__min__energy>  (52) 
-14.69

>  <m_primary>  (52) 
energy

$$$$
52:0
     RDKit          3D

 64 67  0  0  1  0  0  0  0  0999 V2000
   54.5920   25.4350   45.6250 C   0  0  0  0  0  0  0  0  0  0  0  0
   55.4900   26.4160   46.1150 O   0  0  0  0  0  0  0  0  0  0  0  0
   56.8270   26.0490   46.1890 C   0  0  0  0  0  0  0  0  0  0  0  0
   57.2420   24.7960   45.7850 C   0  0  0  0  0  0  0  0  0  0  0  0
   58.5760   24.4050   45.8510 C   0  0  0  0  0  0  0  0  0  0  0  0
   59.5310   25.2820   46.3300 C   0  0  0  0  0  0  0  0  0  0  0  0
   59.1170   26.5350   46.7340 C   0  0  0  0  0  0  0  0  0  0  0  0
   57.7750   26.9270   46.6690 C   0  0  0  0  0  0  0  0  0  0  0  0
   57.4400   28.2250   47.1030 O   0  0  0  0  0  0  0  0  0  0  0  0
   58.4740   29.1450   47.1760 C   0  0  0  0  0  0  0  0  0  0  0  0
   58.9420   29.6620   45.9480 C   0  0  0  0  0  0  0  0  0  0  0  0
   58.3450   29.2140   44.8370 O   0  0  0  0  0  0  0  0  0  0  0  0
   57.5750   29.8340   43.9110 C   0  0  0  0  0  0  0  0  0  0  0  0
   56.0790   29.7220   44.0180 C   0  0  0  0  0  0  0  0  0  0  0  0
   55.5790   28.9290   45.0120 O   0  0  0  0  0  0  0  0  0  0  0  0
   59.9450   30.5440   46.0690 N   0  0  0  0  0  0  0  0  0  0  0  0
   60.4790   30.9270   47.2410 C   0  0  0  0  0  0  0  0  0  0  0  0
   61.5720   31.8920   47.3490 C   0  0  0  0  0  0  0  0  0  0  0  0
   62.5410   31.8300   48.3260 C   0  0  0  0  0  0  0  0  0  0  0  0
   63.5780   32.7490   48.4250 C   0  0  0  0  0  0  0  0  0  0  0  0
   63.6450   33.7770   47.5030 C   0  0  0  0  0  0  0  0  0  0  0  0
   62.6540   33.8010   46.5430 C   0  0  0  0  0  0  0  0  0  0  0  0
   61.6650   32.9040   46.4670 N   0  0  0  0  0  0  0  0  0  0  0  0
   60.0010   30.4110   48.3820 N   0  0  0  0  0  0  0  0  0  0  0  0
   59.0100   29.5300   48.3740 C   0  0  0  0  0  0  0  0  0  0  0  0
   58.5590   29.1080   49.4820 N   0  0  0  0  0  0  0  0  0  0  0  0
   58.8030   29.8100   50.9770 S   0  0  0  0  0  0  0  0  0  0  0  0
   57.6670   29.0600   51.7690 O   0  0  0  0  0  0  0  0  0  0  0  0
   59.9170   29.3170   51.8530 O   0  0  0  0  0  0  0  0  0  0  0  0
   58.2820   31.4520   51.2230 C   0  0  0  0  0  0  0  0  0  0  0  0
   58.8570   32.2720   50.1050 C   0  0  0  0  0  0  0  0  0  0  0  0
   60.0740   32.5440   50.1910 O   0  0  0  0  0  0  0  0  0  0  0  0
   58.0370   32.6920   49.0350 N   0  0  0  0  0  0  0  0  0  0  0  0
   58.4480   33.4620   47.9300 C   0  0  0  0  0  0  0  0  0  0  0  0
   59.3300   34.5050   47.9520 C   0  0  0  0  0  0  0  0  0  0  0  0
   59.6830   35.2140   46.8100 C   0  0  0  0  0  0  0  0  0  0  0  0
   59.1480   34.8900   45.5810 C   0  0  0  0  0  0  0  0  0  0  0  0
   59.5010   35.5840   44.4930 F   0  0  0  0  0  0  0  0  0  0  0  0
   58.2550   33.8340   45.5610 C   0  0  0  0  0  0  0  0  0  0  0  0
   57.9070   33.1330   46.6940 C   0  0  0  0  0  0  0  0  0  0  0  0
   54.1176   24.9168   46.4714 H   0  0  0  0  0  0  0  0  0  0  0  0
   53.8182   25.9199   45.0117 H   0  0  0  0  0  0  0  0  0  0  0  0
   55.1432   24.7070   45.0117 H   0  0  0  0  0  0  0  0  0  0  0  0
   56.4961   24.0854   45.3994 H   0  0  0  0  0  0  0  0  0  0  0  0
   58.8705   23.3976   45.5218 H   0  0  0  0  0  0  0  0  0  0  0  0
   60.5899   24.9898   46.3875 H   0  0  0  0  0  0  0  0  0  0  0  0
   59.8632   27.2461   47.1181 H   0  0  0  0  0  0  0  0  0  0  0  0
   57.8223   30.9051   43.9501 H   0  0  0  0  0  0  0  0  0  0  0  0
   57.8139   29.3103   42.9736 H   0  0  0  0  0  0  0  0  0  0  0  0
   55.6821   30.7361   44.1733 H   0  0  0  0  0  0  0  0  0  0  0  0
   55.7650   29.2345   43.0833 H   0  0  0  0  0  0  0  0  0  0  0  0
   56.2780   28.3690   45.4230 H   0  0  0  0  0  0  0  0  0  0  0  0
   60.3600   30.9400   45.2170 H   0  0  0  0  0  0  0  0  0  0  0  0
   62.4913   31.0144   49.0625 H   0  0  0  0  0  0  0  0  0  0  0  0
   64.3313   32.6605   49.2216 H   0  0  0  0  0  0  0  0  0  0  0  0
   64.4433   34.5332   47.5330 H   0  0  0  0  0  0  0  0  0  0  0  0
   62.6790   34.6069   45.7948 H   0  0  0  0  0  0  0  0  0  0  0  0
   57.1835   31.5058   51.2035 H   0  0  0  0  0  0  0  0  0  0  0  0
   58.6233   31.8281   52.1988 H   0  0  0  0  0  0  0  0  0  0  0  0
   57.0250   32.3880   49.0950 H   0  0  0  0  0  0  0  0  0  0  0  0
   59.7793   34.7956   48.9131 H   0  0  0  0  0  0  0  0  0  0  0  0
   60.3992   36.0453   46.8875 H   0  0  0  0  0  0  0  0  0  0  0  0
   57.8044   33.5422   44.6009 H   0  0  0  0  0  0  0  0  0  0  0  0
   57.1910   32.3013   46.6191 H   0  0  0  0  0  0  0  0  0  0  0  0
  1  2  1  0
  2  3  1  0
  3  4  2  0
  4  5  1  0
  5  6  2  0
  6  7  1  0
  7  8  2  0
  8  9  1  0
  9 10  1  0
 10 11  2  0
 11 12  1  0
 12 13  1  0
 13 14  1  0
 14 15  1  0
 11 16  1  0
 16 17  1  0
 17 18  1  0
 18 19  2  0
 19 20  1  0
 20 21  2  0
 21 22  1  0
 22 23  2  0
 17 24  2  0
 24 25  1  0
 25 26  2  0
 26 27  1  0
 27 28  2  0
 27 29  2  0
 27 30  1  0
 30 31  1  0
 31 32  2  0
 31 33  1  0
 33 34  1  0
 34 35  2  0
 35 36  1  0
 36 37  2  0
 37 38  1  0
 37 39  1  0
 39 40  2  0
  8  3  1  0
 25 10  1  0
 40 34  1  0
 23 18  1  0
  1 41  1  0
  1 42  1  0
  1 43  1  0
  4 44  1  0
  5 45  1  0
  6 46  1  0
  7 47  1  0
 13 48  1  0
 13 49  1  0
 14 50  1  0
 14 51  1  0
 15 52  1  0
 16 53  1  0
 19 54  1  0
 20 55  1  0
 21 56  1  0
 22 57  1  0
 30 58  1  0
 30 59  1  0
 33 60  1  0
 35 61  1  0
 36 62  1  0
 39 63  1  0
 40 64  1  0
M  END
>  <smiles>  (53) 
COc1ccccc1Oc1c(OCCO)[nH]c(-c2ccccn2)nc1=NS(=O)(=O)CC(=O)Nc1ccc(F)cc1

>  <score_type>  (53) 
oracle

>  <origin>  (53) 
adg

>  <m_score__min__energy>  (53) 
-8.4000000000000004

>  <m_primary>  (53) 
energy

$$$$
53:0
     RDKit          3D

 70 75  0  0  1  0  0  0  0  0999 V2000
   63.1710   28.8080   52.9640 O   0  0  0  0  0  0  0  0  0  0  0  0
   62.6190   28.0480   52.1040 C   0  0  0  0  0  0  0  0  0  0  0  0
   62.8050   26.6590   52.2210 N   0  0  0  0  0  0  0  0  0  0  0  0
   63.5810   25.9990   53.2420 C   0  0  0  0  0  0  0  0  0  0  0  0
   63.1540   24.5970   53.4670 C   0  0  0  0  0  0  0  0  0  0  0  0
   63.5760   23.8200   54.5190 C   0  0  0  0  0  0  0  0  0  0  0  0
   63.1500   22.5200   54.6720 C   0  0  0  0  0  0  0  0  0  0  0  0
   62.2760   21.9730   53.7550 C   0  0  0  0  0  0  0  0  0  0  0  0
   61.8820   22.7950   52.7140 C   0  0  0  0  0  0  0  0  0  0  0  0
   62.3020   24.0590   52.5720 N   0  0  0  0  0  0  0  0  0  0  0  0
   61.8220   28.6780   51.0470 C   0  0  0  0  0  0  0  0  0  0  0  0
   61.9940   29.9690   50.6360 C   0  0  0  0  0  0  0  0  0  0  0  0
   61.2000   30.5030   49.6240 C   0  0  0  0  0  0  0  0  0  0  0  0
   60.2170   29.7740   48.9920 C   0  0  0  0  0  0  0  0  0  0  0  0
   59.3770   30.3150   47.9300 C   0  0  0  0  0  0  0  0  0  0  0  0
   58.7450   29.4690   47.0990 N   0  0  0  0  0  0  0  0  0  0  0  0
   57.9530   29.8710   46.0940 C   0  0  0  0  0  0  0  0  0  0  0  0
   57.7860   31.2220   45.9160 C   0  0  0  0  0  0  0  0  0  0  0  0
   56.9740   31.4120   44.8820 N   0  0  0  0  0  0  0  0  0  0  0  0
   56.6320   30.2070   44.4120 C   0  0  0  0  0  0  0  0  0  0  0  0
   57.2210   29.2440   45.1420 N   0  0  0  0  0  0  0  0  0  0  0  0
   57.1210   27.8070   44.9740 C   0  0  1  0  0  0  0  0  0  0  0  0
   58.4170   27.2340   44.3850 C   0  0  0  0  0  0  0  0  0  0  0  0
   58.1190   25.7430   44.6040 C   0  0  2  0  0  0  0  0  0  0  0  0
   57.3830   25.3600   43.4600 O   0  0  0  0  0  0  0  0  0  0  0  0
   57.2280   25.8050   45.8040 C   0  0  2  0  0  0  0  0  0  0  0  0
   55.8530   25.2250   45.4730 C   0  0  0  0  0  0  0  0  0  0  0  0
   54.8800   26.1140   45.9850 O   0  0  0  0  0  0  0  0  0  0  0  0
   57.0620   27.1340   46.1730 O   0  0  0  0  0  0  0  0  0  0  0  0
   58.4160   32.1140   46.7470 C   0  0  0  0  0  0  0  0  0  0  0  0
   58.2470   33.3480   46.5610 N   0  0  0  0  0  0  0  0  0  0  0  0
   59.1900   34.3810   46.3230 C   0  0  0  0  0  0  0  0  0  0  0  0
   60.4840   34.1630   47.0600 C   0  0  0  0  0  0  0  0  0  0  0  0
   60.5950   34.3970   48.4220 C   0  0  0  0  0  0  0  0  0  0  0  0
   61.7630   34.2060   49.1260 C   0  0  0  0  0  0  0  0  0  0  0  0
   62.8920   33.7600   48.4640 C   0  0  0  0  0  0  0  0  0  0  0  0
   62.8120   33.5180   47.1100 C   0  0  0  0  0  0  0  0  0  0  0  0
   61.6240   33.7190   46.4250 C   0  0  0  0  0  0  0  0  0  0  0  0
   59.1920   31.6250   47.7290 N   0  0  0  0  0  0  0  0  0  0  0  0
   60.0440   28.4710   49.4080 C   0  0  0  0  0  0  0  0  0  0  0  0
   60.8270   27.9460   50.4060 C   0  0  0  0  0  0  0  0  0  0  0  0
   62.3330   26.0570   51.4920 H   0  0  0  0  0  0  0  0  0  0  0  0
   64.6379   26.0006   52.9372 H   0  0  0  0  0  0  0  0  0  0  0  0
   63.4288   26.5483   54.1828 H   0  0  0  0  0  0  0  0  0  0  0  0
   64.2711   24.2473   55.2567 H   0  0  0  0  0  0  0  0  0  0  0  0
   63.5051   21.9193   55.5223 H   0  0  0  0  0  0  0  0  0  0  0  0
   61.9120   20.9390   53.8466 H   0  0  0  0  0  0  0  0  0  0  0  0
   61.1875   22.3892   51.9637 H   0  0  0  0  0  0  0  0  0  0  0  0
   62.7669   30.5929   51.1087 H   0  0  0  0  0  0  0  0  0  0  0  0
   61.3642   31.5467   49.3178 H   0  0  0  0  0  0  0  0  0  0  0  0
   55.9665   30.0302   43.5542 H   0  0  0  0  0  0  0  0  0  0  0  0
   56.2234   27.6746   44.3521 H   0  0  0  0  0  0  0  0  0  0  0  0
   58.5346   27.4821   43.3198 H   0  0  0  0  0  0  0  0  0  0  0  0
   59.3520   27.6069   44.8285 H   0  0  0  0  0  0  0  0  0  0  0  0
   58.9698   25.0596   44.7422 H   0  0  0  0  0  0  0  0  0  0  0  0
   56.7380   26.0450   43.1760 H   0  0  0  0  0  0  0  0  0  0  0  0
   57.6861   25.2253   46.6189 H   0  0  0  0  0  0  0  0  0  0  0  0
   55.7382   25.1304   44.3831 H   0  0  0  0  0  0  0  0  0  0  0  0
   55.7371   24.2263   45.9194 H   0  0  0  0  0  0  0  0  0  0  0  0
   55.1450   26.3420   46.9090 H   0  0  0  0  0  0  0  0  0  0  0  0
   59.4015   34.4236   45.2444 H   0  0  0  0  0  0  0  0  0  0  0  0
   58.7529   35.3223   46.6876 H   0  0  0  0  0  0  0  0  0  0  0  0
   59.7076   34.7522   48.9663 H   0  0  0  0  0  0  0  0  0  0  0  0
   61.7976   34.4068   50.2070 H   0  0  0  0  0  0  0  0  0  0  0  0
   63.8352   33.6016   49.0075 H   0  0  0  0  0  0  0  0  0  0  0  0
   63.6999   33.1617   46.5672 H   0  0  0  0  0  0  0  0  0  0  0  0
   61.5899   33.5185   45.3440 H   0  0  0  0  0  0  0  0  0  0  0  0
   59.6570   32.3260   48.3430 H   0  0  0  0  0  0  0  0  0  0  0  0
   59.2714   27.8463   48.9359 H   0  0  0  0  0  0  0  0  0  0  0  0
   60.6609   26.9025   50.7119 H   0  0  0  0  0  0  0  0  0  0  0  0
  1  2  2  0
  2  3  1  0
  3  4  1  0
  4  5  1  0
  5  6  2  0
  6  7  1  0
  7  8  2  0
  8  9  1  0
  9 10  2  0
  2 11  1  0
 11 12  2  0
 12 13  1  0
 13 14  2  0
 14 15  1  0
 15 16  2  0
 16 17  1  0
 17 18  2  0
 18 19  1  0
 19 20  2  0
 20 21  1  0
 21 22  1  0
 22 23  1  0
 23 24  1  0
 24 25  1  0
 24 26  1  0
 26 27  1  0
 27 28  1  0
 26 29  1  0
 18 30  1  0
 30 31  2  0
 31 32  1  0
 32 33  1  0
 33 34  2  0
 34 35  1  0
 35 36  2  0
 36 37  1  0
 37 38  2  0
 30 39  1  0
 14 40  1  0
 40 41  2  0
 10  5  1  0
 41 11  1  0
 39 15  1  0
 21 17  1  0
 29 22  1  0
 38 33  1  0
  3 42  1  0
  4 43  1  0
  4 44  1  0
  6 45  1  0
  7 46  1  0
  8 47  1  0
  9 48  1  0
 12 49  1  0
 13 50  1  0
 20 51  1  0
 22 52  1  6
 23 53  1  0
 23 54  1  0
 24 55  1  1
 25 56  1  0
 26 57  1  1
 27 58  1  0
 27 59  1  0
 28 60  1  0
 32 61  1  0
 32 62  1  0
 34 63  1  0
 35 64  1  0
 36 65  1  0
 37 66  1  0
 38 67  1  0
 39 68  1  0
 40 69  1  0
 41 70  1  0
M  END
>  <smiles>  (54) 
O=C(NCc1ccccn1)c1ccc(-c2nc3c(ncn3C3CC(O)C(CO)O3)c(=NCc3ccccc3)[nH]2)cc1

>  <score_type>  (54) 
oracle

>  <origin>  (54) 
adg

>  <m_score__min__energy>  (54) 
-10.220000000000001

>  <m_primary>  (54) 
energy

$$$$
54:0
     RDKit          3D

 35 36  0  0  0  0  0  0  0  0999 V2000
   60.2290   29.1700   45.2230 C   0  0  0  0  0  0  0  0  0  0  0  0
   58.9010   29.8530   45.0930 C   0  0  0  0  0  0  0  0  0  0  0  0
   57.8080   29.0560   44.9480 C   0  0  0  0  0  0  0  0  0  0  0  0
   56.5740   29.6830   44.8350 C   0  0  0  0  0  0  0  0  0  0  0  0
   55.4970   29.0520   44.7000 O   0  0  0  0  0  0  0  0  0  0  0  0
   56.4830   31.0370   44.8680 N   0  0  0  0  0  0  0  0  0  0  0  0
   57.5860   31.7760   45.0120 C   0  0  0  0  0  0  0  0  0  0  0  0
   57.3520   33.5630   45.0620 S   0  0  0  0  0  0  0  0  0  0  0  0
   58.2580   34.3080   46.4410 C   0  0  0  0  0  0  0  0  0  0  0  0
   59.7280   34.0620   46.3490 C   0  0  0  0  0  0  0  0  0  0  0  0
   60.3220   33.8630   45.2600 O   0  0  0  0  0  0  0  0  0  0  0  0
   60.4420   34.0690   47.6120 N   0  0  0  0  0  0  0  0  0  0  0  0
   61.8680   33.8350   47.5890 C   0  0  0  0  0  0  0  0  0  0  0  0
   62.1690   32.3810   47.2000 C   0  0  0  0  0  0  0  0  0  0  0  0
   63.6870   32.4870   47.2560 C   0  0  0  0  0  0  0  0  0  0  0  0
   63.8760   33.1380   48.6160 C   0  0  0  0  0  0  0  0  0  0  0  0
   62.5710   33.9010   48.8910 C   0  0  0  0  0  0  0  0  0  0  0  0
   58.8040   31.2100   45.1250 N   0  0  0  0  0  0  0  0  0  0  0  0
   60.4739   29.0441   46.2880 H   0  0  0  0  0  0  0  0  0  0  0  0
   60.1831   28.1837   44.7382 H   0  0  0  0  0  0  0  0  0  0  0  0
   61.0046   29.7811   44.7382 H   0  0  0  0  0  0  0  0  0  0  0  0
   57.8980   27.9600   44.9214 H   0  0  0  0  0  0  0  0  0  0  0  0
   58.0796   35.3934   46.4368 H   0  0  0  0  0  0  0  0  0  0  0  0
   57.8960   33.8462   47.3715 H   0  0  0  0  0  0  0  0  0  0  0  0
   59.9600   34.2370   48.5220 H   0  0  0  0  0  0  0  0  0  0  0  0
   62.2055   34.6264   46.9036 H   0  0  0  0  0  0  0  0  0  0  0  0
   61.7700   31.6590   47.9277 H   0  0  0  0  0  0  0  0  0  0  0  0
   61.7341   32.0231   46.2552 H   0  0  0  0  0  0  0  0  0  0  0  0
   64.1640   31.4968   47.2112 H   0  0  0  0  0  0  0  0  0  0  0  0
   64.1364   33.0414   46.4189 H   0  0  0  0  0  0  0  0  0  0  0  0
   64.0441   32.3730   49.3883 H   0  0  0  0  0  0  0  0  0  0  0  0
   64.7500   33.8058   48.6308 H   0  0  0  0  0  0  0  0  0  0  0  0
   61.9851   33.4105   49.6823 H   0  0  0  0  0  0  0  0  0  0  0  0
   62.7356   34.9298   49.2440 H   0  0  0  0  0  0  0  0  0  0  0  0
   59.6610   31.8050   45.2400 H   0  0  0  0  0  0  0  0  0  0  0  0
  1  2  1  0
  2  3  2  0
  3  4  1  0
  4  5  2  0
  4  6  1  0
  6  7  2  0
  7  8  1  0
  8  9  1  0
  9 10  1  0
 10 11  2  0
 10 12  1  0
 12 13  1  0
 13 14  1  0
 14 15  1  0
 15 16  1  0
 16 17  1  0
  7 18  1  0
 18  2  1  0
 17 13  1  0
  1 19  1  0
  1 20  1  0
  1 21  1  0
  3 22  1  0
  9 23  1  0
  9 24  1  0
 12 25  1  0
 13 26  1  0
 14 27  1  0
 14 28  1  0
 15 29  1  0
 15 30  1  0
 16 31  1  0
 16 32  1  0
 17 33  1  0
 17 34  1  0
 18 35  1  0
M  END
>  <smiles>  (55) 
Cc1cc(=O)nc(SCC(=O)NC2CCCC2)[nH]1

>  <score_type>  (55) 
oracle

>  <origin>  (55) 
adg

>  <m_score__min__energy>  (55) 
-7.0300000000000002

>  <m_primary>  (55) 
energy

$$$$
55:0
     RDKit          3D

 61 64  0  0  1  0  0  0  0  0999 V2000
   61.1510   27.0120   50.5530 C   0  0  0  0  0  0  0  0  0  0  0  0
   60.6050   27.5820   49.2920 C   0  0  0  0  0  0  0  0  0  0  0  0
   60.3280   26.7600   48.1940 C   0  0  0  0  0  0  0  0  0  0  0  0
   59.8100   27.3390   47.0380 C   0  0  0  0  0  0  0  0  0  0  0  0
   59.5720   26.5140   46.0580 N   0  0  0  0  0  0  0  0  0  0  0  0
   58.2230   26.0440   45.8660 C   0  0  0  0  0  0  0  0  0  0  0  0
   57.1570   26.5900   46.5220 C   0  0  0  0  0  0  0  0  0  0  0  0
   55.9000   26.0570   46.2770 C   0  0  0  0  0  0  0  0  0  0  0  0
   55.7120   25.0250   45.4180 N   0  0  0  0  0  0  0  0  0  0  0  0
   56.7870   24.5010   44.7790 C   0  0  0  0  0  0  0  0  0  0  0  0
   56.6900   23.3930   43.8410 C   0  0  0  0  0  0  0  0  0  0  0  0
   55.9560   23.4730   42.7900 O   0  0  0  0  0  0  0  0  0  0  0  0
   57.3770   22.1580   43.9880 N   0  0  0  0  0  0  0  0  0  0  0  0
   57.1820   21.1440   42.9670 C   0  0  0  0  0  0  0  0  0  0  0  0
   58.2450   21.8800   45.0960 C   0  0  0  0  0  0  0  0  0  0  0  0
   58.0550   25.0080   44.9990 C   0  0  0  0  0  0  0  0  0  0  0  0
   59.5820   28.6480   46.9770 N   0  0  0  0  0  0  0  0  0  0  0  0
   59.8530   29.4160   48.0390 C   0  0  0  0  0  0  0  0  0  0  0  0
   59.5990   30.8010   48.0020 C   0  0  0  0  0  0  0  0  0  0  0  0
   58.8270   31.6770   48.7730 C   0  0  0  0  0  0  0  0  0  0  0  0
   58.8250   32.9330   48.4760 N   0  0  0  0  0  0  0  0  0  0  0  0
   59.5430   33.4120   47.4490 C   0  0  0  0  0  0  0  0  0  0  0  0
   59.6780   34.5200   47.0330 N   0  0  0  0  0  0  0  0  0  0  0  0
   59.6270   35.0570   45.7710 C   0  0  0  0  0  0  0  0  0  0  0  0
   59.8450   36.2920   45.5980 O   0  0  0  0  0  0  0  0  0  0  0  0
   59.3140   34.1590   44.6200 C   0  0  0  0  0  0  0  0  0  0  0  0
   57.8420   33.8050   44.5650 C   0  0  0  0  0  0  0  0  0  0  0  0
   57.6250   32.3690   44.2940 C   0  0  0  0  0  0  0  0  0  0  0  0
   57.4520   31.4400   45.3270 C   0  0  0  0  0  0  0  0  0  0  0  0
   57.2800   30.2030   44.7130 C   0  0  0  0  0  0  0  0  0  0  0  0
   57.3490   30.3980   43.3600 C   0  0  0  0  0  0  0  0  0  0  0  0
   57.5590   31.7170   43.0970 N   0  0  0  0  0  0  0  0  0  0  0  0
   57.6940   32.3470   41.7910 C   0  0  0  0  0  0  0  0  0  0  0  0
   60.3610   31.9330   46.7620 S   0  0  0  0  0  0  0  0  0  0  0  0
   60.3630   28.8890   49.1920 N   0  0  0  0  0  0  0  0  0  0  0  0
   60.6775   27.5063   51.4141 H   0  0  0  0  0  0  0  0  0  0  0  0
   60.9410   25.9328   50.5887 H   0  0  0  0  0  0  0  0  0  0  0  0
   62.2382   27.1754   50.5887 H   0  0  0  0  0  0  0  0  0  0  0  0
   60.5158   25.6772   48.2429 H   0  0  0  0  0  0  0  0  0  0  0  0
   57.2910   27.4269   47.2232 H   0  0  0  0  0  0  0  0  0  0  0  0
   55.0292   26.4846   46.7954 H   0  0  0  0  0  0  0  0  0  0  0  0
   56.9951   20.1719   43.4467 H   0  0  0  0  0  0  0  0  0  0  0  0
   56.3196   21.4156   42.3405 H   0  0  0  0  0  0  0  0  0  0  0  0
   58.0836   21.0764   42.3405 H   0  0  0  0  0  0  0  0  0  0  0  0
   57.7041   22.0532   46.0380 H   0  0  0  0  0  0  0  0  0  0  0  0
   58.5743   20.8315   45.0498 H   0  0  0  0  0  0  0  0  0  0  0  0
   59.1222   22.5421   45.0498 H   0  0  0  0  0  0  0  0  0  0  0  0
   58.9219   24.5769   44.4768 H   0  0  0  0  0  0  0  0  0  0  0  0
   59.2010   29.0770   46.1260 H   0  0  0  0  0  0  0  0  0  0  0  0
   58.2316   31.3014   49.6183 H   0  0  0  0  0  0  0  0  0  0  0  0
   58.2440   33.6600   49.0450 H   0  0  0  0  0  0  0  0  0  0  0  0
   59.5927   34.6680   43.6855 H   0  0  0  0  0  0  0  0  0  0  0  0
   59.8845   33.2274   44.7489 H   0  0  0  0  0  0  0  0  0  0  0  0
   57.3803   34.0573   45.5310 H   0  0  0  0  0  0  0  0  0  0  0  0
   57.3867   34.3772   43.7432 H   0  0  0  0  0  0  0  0  0  0  0  0
   57.4520   31.6465   46.4075 H   0  0  0  0  0  0  0  0  0  0  0  0
   57.1179   29.2420   45.2230 H   0  0  0  0  0  0  0  0  0  0  0  0
   57.2498   29.6086   42.6004 H   0  0  0  0  0  0  0  0  0  0  0  0
   57.9229   33.4150   41.9210 H   0  0  0  0  0  0  0  0  0  0  0  0
   58.5088   31.8627   41.2328 H   0  0  0  0  0  0  0  0  0  0  0  0
   56.7523   32.2391   41.2328 H   0  0  0  0  0  0  0  0  0  0  0  0
  1  2  1  0
  2  3  2  0
  3  4  1  0
  4  5  2  0
  5  6  1  0
  6  7  2  0
  7  8  1  0
  8  9  2  0
  9 10  1  0
 10 11  1  0
 11 12  2  0
 11 13  1  0
 13 14  1  0
 13 15  1  0
 10 16  2  0
  4 17  1  0
 17 18  1  0
 18 19  1  0
 19 20  2  0
 20 21  1  0
 21 22  1  0
 22 23  2  0
 23 24  1  0
 24 25  2  0
 24 26  1  0
 26 27  1  0
 27 28  1  0
 28 29  2  0
 29 30  1  0
 30 31  2  0
 31 32  1  0
 32 33  1  0
 22 34  1  0
 18 35  2  0
 35  2  1  0
 16  6  1  0
 34 19  1  0
 32 28  1  0
  1 36  1  0
  1 37  1  0
  1 38  1  0
  3 39  1  0
  7 40  1  0
  8 41  1  0
 14 42  1  0
 14 43  1  0
 14 44  1  0
 15 45  1  0
 15 46  1  0
 15 47  1  0
 16 48  1  0
 17 49  1  0
 20 50  1  0
 21 51  1  0
 26 52  1  0
 26 53  1  0
 27 54  1  0
 27 55  1  0
 29 56  1  0
 30 57  1  0
 31 58  1  0
 33 59  1  0
 33 60  1  0
 33 61  1  0
M  END
>  <smiles>  (56) 
Cc1cc(=Nc2ccnc(C(=O)N(C)C)c2)[nH]c(-c2c[nH]c(=NC(=O)CCc3cccn3C)s2)n1

>  <score_type>  (56) 
oracle

>  <origin>  (56) 
adg

>  <m_score__min__energy>  (56) 
-9.1699999999999999

>  <m_primary>  (56) 
energy

$$$$
56:0
     RDKit          3D

 55 58  0  0  0  0  0  0  0  0999 V2000
   58.1340   27.1700   42.6690 C   0  0  0  0  0  0  0  0  0  0  0  0
   58.3510   26.7050   43.9100 C   0  0  0  0  0  0  0  0  0  0  0  0
   57.7320   25.5990   44.4960 C   0  0  0  0  0  0  0  0  0  0  0  0
   56.8340   24.7660   43.9340 C   0  0  0  0  0  0  0  0  0  0  0  0
   55.6480   24.2470   44.6490 C   0  0  0  0  0  0  0  0  0  0  0  0
   54.9940   25.0270   45.6250 C   0  0  0  0  0  0  0  0  0  0  0  0
   55.4010   26.3280   45.9210 O   0  0  0  0  0  0  0  0  0  0  0  0
   53.9290   24.5120   46.2920 N   0  0  0  0  0  0  0  0  0  0  0  0
   53.4790   23.2560   46.0450 C   0  0  0  0  0  0  0  0  0  0  0  0
   52.4860   22.8080   46.6730 O   0  0  0  0  0  0  0  0  0  0  0  0
   54.1020   22.4810   45.1230 N   0  0  0  0  0  0  0  0  0  0  0  0
   55.1750   22.9400   44.4290 C   0  0  0  0  0  0  0  0  0  0  0  0
   55.7480   22.1770   43.6060 O   0  0  0  0  0  0  0  0  0  0  0  0
   58.2460   25.4970   45.7800 C   0  0  0  0  0  0  0  0  0  0  0  0
   59.1450   26.5330   45.9300 C   0  0  0  0  0  0  0  0  0  0  0  0
   59.9000   26.8190   47.1930 C   0  0  0  0  0  0  0  0  0  0  0  0
   59.2140   27.2710   44.7960 N   0  0  0  0  0  0  0  0  0  0  0  0
   60.0820   28.4380   44.5670 C   0  0  0  0  0  0  0  0  0  0  0  0
   59.5240   29.6620   45.2490 C   0  0  0  0  0  0  0  0  0  0  0  0
   59.9400   30.0070   46.5440 C   0  0  0  0  0  0  0  0  0  0  0  0
   59.4270   31.1440   47.1730 C   0  0  0  0  0  0  0  0  0  0  0  0
   58.4940   31.9670   46.5150 C   0  0  0  0  0  0  0  0  0  0  0  0
   57.9510   33.1740   47.1820 C   0  0  0  0  0  0  0  0  0  0  0  0
   56.7070   33.3780   47.1950 O   0  0  0  0  0  0  0  0  0  0  0  0
   58.8430   34.1340   47.7640 N   0  0  0  0  0  0  0  0  0  0  0  0
   60.2770   34.0760   47.7850 C   0  0  0  0  0  0  0  0  0  0  0  0
   60.9630   33.9960   46.5660 C   0  0  0  0  0  0  0  0  0  0  0  0
   62.3560   33.9160   46.5410 C   0  0  0  0  0  0  0  0  0  0  0  0
   63.0780   33.8900   47.7370 C   0  0  0  0  0  0  0  0  0  0  0  0
   62.4070   33.9450   48.9680 C   0  0  0  0  0  0  0  0  0  0  0  0
   63.1680   33.8840   50.2590 C   0  0  0  0  0  0  0  0  0  0  0  0
   61.0050   34.0280   48.9890 C   0  0  0  0  0  0  0  0  0  0  0  0
   58.0900   31.6260   45.2120 C   0  0  0  0  0  0  0  0  0  0  0  0
   58.6020   30.4870   44.5850 C   0  0  0  0  0  0  0  0  0  0  0  0
   58.6810   28.0540   42.3094 H   0  0  0  0  0  0  0  0  0  0  0  0
   57.4093   26.6669   42.0120 H   0  0  0  0  0  0  0  0  0  0  0  0
   56.9912   24.4563   42.8903 H   0  0  0  0  0  0  0  0  0  0  0  0
   54.7610   27.1130   45.9440 H   0  0  0  0  0  0  0  0  0  0  0  0
   57.9873   24.7377   46.5327 H   0  0  0  0  0  0  0  0  0  0  0  0
   59.2675   26.5794   48.0605 H   0  0  0  0  0  0  0  0  0  0  0  0
   60.8114   26.2038   47.2227 H   0  0  0  0  0  0  0  0  0  0  0  0
   60.1751   27.8836   47.2227 H   0  0  0  0  0  0  0  0  0  0  0  0
   61.0840   28.2266   44.9686 H   0  0  0  0  0  0  0  0  0  0  0  0
   60.1360   28.6306   43.4853 H   0  0  0  0  0  0  0  0  0  0  0  0
   60.6750   29.3779   47.0674 H   0  0  0  0  0  0  0  0  0  0  0  0
   59.7552   31.3983   48.1916 H   0  0  0  0  0  0  0  0  0  0  0  0
   60.3993   33.9962   45.6214 H   0  0  0  0  0  0  0  0  0  0  0  0
   62.8864   33.8733   45.5783 H   0  0  0  0  0  0  0  0  0  0  0  0
   64.1759   33.8262   47.7134 H   0  0  0  0  0  0  0  0  0  0  0  0
   62.4642   33.9404   51.1025 H   0  0  0  0  0  0  0  0  0  0  0  0
   63.7272   32.9381   50.3107 H   0  0  0  0  0  0  0  0  0  0  0  0
   63.8707   34.7287   50.3107 H   0  0  0  0  0  0  0  0  0  0  0  0
   60.4730   34.0556   49.9514 H   0  0  0  0  0  0  0  0  0  0  0  0
   57.3650   32.2611   44.6819 H   0  0  0  0  0  0  0  0  0  0  0  0
   58.2804   30.2348   43.5637 H   0  0  0  0  0  0  0  0  0  0  0  0
  1  2  2  0
  2  3  1  0
  3  4  2  3
  4  5  1  0
  5  6  2  0
  6  7  1  0
  6  8  1  0
  8  9  1  0
  9 10  2  0
  9 11  1  0
 11 12  1  0
 12 13  2  0
  3 14  1  0
 14 15  2  0
 15 16  1  0
 15 17  1  0
 17 18  1  0
 18 19  1  0
 19 20  2  0
 20 21  1  0
 21 22  2  0
 22 23  1  0
 23 24  2  0
 23 25  1  0
 25 26  1  0
 26 27  2  0
 27 28  1  0
 28 29  2  0
 29 30  1  0
 30 31  1  0
 30 32  2  0
 22 33  1  0
 33 34  2  0
 17  2  1  0
 34 19  1  0
 12  5  1  0
 32 26  1  0
  1 35  1  0
  1 36  1  0
  4 37  1  0
  7 38  1  0
 14 39  1  0
 16 40  1  0
 16 41  1  0
 16 42  1  0
 18 43  1  0
 18 44  1  0
 20 45  1  0
 21 46  1  0
 27 47  1  0
 28 48  1  0
 29 49  1  0
 31 50  1  0
 31 51  1  0
 31 52  1  0
 32 53  1  0
 33 54  1  0
 34 55  1  0
M  CHG  3   8  -1  11  -1  25  -1
M  END
>  <UniqueID>  (57) 
47

>  <SMILES>  (57) 
C=c1c(=Cc2c(O)[n-]c(=O)[n-]c2=O)cc(C)n1Cc1ccc(C(=O)[N-]c2cccc(C)c2)cc1

>  <Energy>  (57) 
101.51784327335427

>  <Genealogy>  (57) 
C=c1c(=Cc2c(O)[n-]c(=O)[n-]c2=O)cc(C)n1Cc1ccc(C(=O)[N-]c2cccc(C)c2)cc1 (protonated)
C=c1c(=Cc2c(O)[n-]c(=O)[n-]c2=O)cc(C)n1Cc1ccc(C(=O)[N-]c2cccc(C)c2)cc1 (3D coordinates assigned)
C=c1c(=Cc2c(O)[n-]c(=O)[n-]c2=O)cc(C)n1Cc1ccc(C(=O)[N-]c2cccc(C)c2)cc1 (optimized conformer: 101.51784327335427 kcal/mol)

>  <smiles>  (57) 
C=c1c(=Cc2c(O)[nH]c(=O)[nH]c2=O)cc(C)n1Cc1ccc(C(=O)Nc2cccc(C)c2)cc1

>  <score_type>  (57) 
oracle

>  <origin>  (57) 
adg

>  <m_score__min__energy>  (57) 
-14.85

>  <m_primary>  (57) 
energy

$$$$
57:0
     RDKit          3D

 49 52  0  0  0  0  0  0  0  0999 V2000
   57.1730   29.5600   42.6588 H   0  0  0  0  0  0  0  0  0  0  0  0
   57.5870   29.3450   43.6550 C   0  0  0  0  0  0  0  0  0  0  0  0
   58.4980   30.1280   44.1490 N   0  0  0  0  0  0  0  0  0  0  0  0
   58.3240   31.0520   45.2370 C   0  0  0  0  0  0  0  0  0  0  0  0
   57.9300   32.3890   45.0270 C   0  0  0  0  0  0  0  0  0  0  0  0
   57.7134   32.7414   44.0077 H   0  0  0  0  0  0  0  0  0  0  0  0
   57.8130   33.2690   46.1050 C   0  0  0  0  0  0  0  0  0  0  0  0
   57.4906   34.3066   45.9333 H   0  0  0  0  0  0  0  0  0  0  0  0
   58.1040   32.8360   47.4000 C   0  0  0  0  0  0  0  0  0  0  0  0
   58.0059   33.5305   48.2474 H   0  0  0  0  0  0  0  0  0  0  0  0
   58.5190   31.5230   47.6190 C   0  0  0  0  0  0  0  0  0  0  0  0
   58.7594   31.1887   48.6390 H   0  0  0  0  0  0  0  0  0  0  0  0
   58.6320   30.6250   46.5460 C   0  0  0  0  0  0  0  0  0  0  0  0
   59.0410   29.2700   46.7940 N   0  0  0  0  0  0  0  0  0  0  0  0
   58.4910   28.4660   47.8710 C   0  0  0  0  0  0  0  0  0  0  0  0
   58.6671   28.9514   48.8423 H   0  0  0  0  0  0  0  0  0  0  0  0
   57.4032   28.3372   47.7710 H   0  0  0  0  0  0  0  0  0  0  0  0
   59.2280   27.1350   47.7990 C   0  0  0  0  0  0  0  0  0  0  0  0
   59.5066   26.7968   48.8080 H   0  0  0  0  0  0  0  0  0  0  0  0
   58.5998   26.3490   47.3546 H   0  0  0  0  0  0  0  0  0  0  0  0
   60.4790   27.3940   46.9610 C   0  0  0  0  0  0  0  0  0  0  0  0
   61.3500   27.5544   47.6134 H   0  0  0  0  0  0  0  0  0  0  0  0
   60.7131   26.5386   46.3103 H   0  0  0  0  0  0  0  0  0  0  0  0
   60.1860   28.6510   46.1490 C   0  0  0  0  0  0  0  0  0  0  0  0
   61.0510   29.3304   46.1662 H   0  0  0  0  0  0  0  0  0  0  0  0
   59.9835   28.4176   45.0933 H   0  0  0  0  0  0  0  0  0  0  0  0
   57.0930   28.1630   44.4110 C   0  0  0  0  0  0  0  0  0  0  0  0
   55.9190   28.2020   45.1850 C   0  0  0  0  0  0  0  0  0  0  0  0
   55.1540   29.3600   45.2910 O   0  0  0  0  0  0  0  0  0  0  0  0
   55.5140   27.0950   45.8540 N   0  0  0  0  0  0  0  0  0  0  0  0
   56.2150   25.9350   45.8060 C   0  0  0  0  0  0  0  0  0  0  0  0
   55.7980   24.9430   46.4630 O   0  0  0  0  0  0  0  0  0  0  0  0
   57.3660   25.8550   45.0690 N   0  0  0  0  0  0  0  0  0  0  0  0
   58.1060   24.6170   45.0200 C   0  0  0  0  0  0  0  0  0  0  0  0
   59.3380   24.5020   45.6840 C   0  0  0  0  0  0  0  0  0  0  0  0
   59.7378   25.3570   46.2489 H   0  0  0  0  0  0  0  0  0  0  0  0
   60.0580   23.3060   45.6300 C   0  0  0  0  0  0  0  0  0  0  0  0
   61.0253   23.2238   46.1473 H   0  0  0  0  0  0  0  0  0  0  0  0
   59.5510   22.2120   44.9190 C   0  0  0  0  0  0  0  0  0  0  0  0
   60.1253   21.2750   44.8715 H   0  0  0  0  0  0  0  0  0  0  0  0
   58.3130   22.3070   44.2670 C   0  0  0  0  0  0  0  0  0  0  0  0
   57.7890   21.1480   43.4700 C   0  0  0  0  0  0  0  0  0  0  0  0
   57.4341   20.3631   44.1541 H   0  0  0  0  0  0  0  0  0  0  0  0
   56.9560   21.4858   42.8359 H   0  0  0  0  0  0  0  0  0  0  0  0
   58.5928   20.7458   42.8359 H   0  0  0  0  0  0  0  0  0  0  0  0
   57.6010   23.5170   44.3060 C   0  0  0  0  0  0  0  0  0  0  0  0
   56.6420   23.6042   43.7743 H   0  0  0  0  0  0  0  0  0  0  0  0
   57.8100   26.9500   44.3720 C   0  0  0  0  0  0  0  0  0  0  0  0
   58.8590   26.8660   43.6710 O   0  0  0  0  0  0  0  0  0  0  0  0
  1  2  1  0
  2  3  2  0
  3  4  1  0
  4  5  2  0
  5  6  1  0
  5  7  1  0
  7  8  1  0
  7  9  2  0
  9 10  1  0
  9 11  1  0
 11 12  1  0
 11 13  2  0
 13 14  1  0
 14 15  1  0
 15 16  1  0
 15 17  1  0
 15 18  1  0
 18 19  1  0
 18 20  1  0
 18 21  1  0
 21 22  1  0
 21 23  1  0
 21 24  1  0
 24 25  1  0
 24 26  1  0
  2 27  1  0
 27 28  2  0
 28 29  1  0
 28 30  1  0
 30 31  1  0
 31 32  2  0
 31 33  1  0
 33 34  1  0
 34 35  2  0
 35 36  1  0
 35 37  1  0
 37 38  1  0
 37 39  2  0
 39 40  1  0
 39 41  1  0
 41 42  1  0
 42 43  1  0
 42 44  1  0
 42 45  1  0
 41 46  2  0
 46 47  1  0
 33 48  1  0
 48 49  2  0
 13  4  1  0
 24 14  1  0
 48 27  1  0
 46 34  1  0
M  CHG  2  29  -1  30  -1
M  END
>  <UniqueID>  (58) 
48

>  <SMILES>  (58) 
Cc1cccc(-n2c(=O)[n-]c([O-])c(/C=N/c3ccccc3N3CCCC3)c2=O)c1

>  <Energy>  (58) 
73.1931905600206

>  <Genealogy>  (58) 
Cc1cccc(-n2c(=O)[n-]c([O-])c(C=Nc3ccccc3N3CCCC3)c2=O)c1 (protonated)
Cc1cccc(-n2c(=O)[n-]c([O-])c(/C=N/c3ccccc3N3CCCC3)c2=O)c1 (cis-trans isomerization)
Cc1cccc(-n2c(=O)[n-]c([O-])c(/C=N/c3ccccc3N3CCCC3)c2=O)c1 (3D coordinates assigned)
Cc1cccc(-n2c(=O)[n-]c([O-])c(/C=N/c3ccccc3N3CCCC3)c2=O)c1 (nonaromatic ring conformer: 73.1931905600206 kcal/mol)

>  <smiles>  (58) 
Cc1cccc(-n2c(=O)[nH]c(O)c(C=Nc3ccccc3N3CCCC3)c2=O)c1

>  <score_type>  (58) 
oracle

>  <origin>  (58) 
adg

>  <m_score__min__energy>  (58) 
-12.16

>  <m_primary>  (58) 
energy

$$$$
58:0
     RDKit          3D

 45 48  0  0  1  0  0  0  0  0999 V2000
   58.4720   30.1210   48.4860 O   0  0  0  0  0  0  0  0  0  0  0  0
   59.5970   30.4890   48.1210 C   0  0  0  0  0  0  0  0  0  0  0  0
   60.3350   31.3500   48.9630 N   0  0  0  0  0  0  0  0  0  0  0  0
   59.9530   31.8650   50.2070 C   0  0  0  0  0  0  0  0  0  0  0  0
   59.4140   31.1620   51.2530 C   0  0  0  0  0  0  0  0  0  0  0  0
   59.0590   31.7650   52.4660 C   0  0  0  0  0  0  0  0  0  0  0  0
   59.2370   33.1150   52.6730 C   0  0  0  0  0  0  0  0  0  0  0  0
   59.7800   33.8330   51.6260 C   0  0  0  0  0  0  0  0  0  0  0  0
   60.1350   33.2430   50.4190 C   0  0  0  0  0  0  0  0  0  0  0  0
   60.7360   34.0770   49.4550 N   0  0  0  0  0  0  0  0  0  0  0  0
   61.7570   33.8160   48.7640 C   0  0  0  0  0  0  0  0  0  0  0  0
   62.9120   33.5300   49.4290 N   0  0  0  0  0  0  0  0  0  0  0  0
   64.0470   33.2400   48.7620 C   0  0  0  0  0  0  0  0  0  0  0  0
   65.1130   32.9770   49.3720 O   0  0  0  0  0  0  0  0  0  0  0  0
   64.0040   33.2410   47.4130 N   0  0  0  0  0  0  0  0  0  0  0  0
   62.8790   33.5190   46.7240 C   0  0  0  0  0  0  0  0  0  0  0  0
   61.7230   33.8150   47.4110 C   0  0  0  0  0  0  0  0  0  0  0  0
   60.1640   34.1990   46.4140 Br  0  0  0  0  0  0  0  0  0  0  0  0
   60.1200   30.0450   46.8740 N   0  0  0  0  0  0  0  0  0  0  0  0
   59.4810   29.1960   45.9630 C   0  0  0  0  0  0  0  0  0  0  0  0
   59.6970   27.8380   45.8580 C   0  0  0  0  0  0  0  0  0  0  0  0
   59.0380   27.0290   44.9340 C   0  0  0  0  0  0  0  0  0  0  0  0
   58.1230   27.5530   44.0690 C   0  0  0  0  0  0  0  0  0  0  0  0
   57.8850   28.9150   44.1520 C   0  0  0  0  0  0  0  0  0  0  0  0
   56.9560   29.4160   43.2650 C   0  0  0  0  0  0  0  0  0  0  0  0
   56.6430   30.7450   43.2590 C   0  0  0  0  0  0  0  0  0  0  0  0
   57.2710   31.5740   44.1520 C   0  0  0  0  0  0  0  0  0  0  0  0
   58.2080   31.0590   45.0450 C   0  0  0  0  0  0  0  0  0  0  0  0
   58.5450   29.7230   45.0760 C   0  0  0  0  0  0  0  0  0  0  0  0
   61.2930   31.6330   48.5970 H   0  0  0  0  0  0  0  0  0  0  0  0
   59.2538   30.0802   51.1348 H   0  0  0  0  0  0  0  0  0  0  0  0
   58.6295   31.1484   53.2693 H   0  0  0  0  0  0  0  0  0  0  0  0
   58.9610   33.5961   53.6229 H   0  0  0  0  0  0  0  0  0  0  0  0
   59.9377   34.9143   51.7523 H   0  0  0  0  0  0  0  0  0  0  0  0
   62.9260   33.5350   50.4830 H   0  0  0  0  0  0  0  0  0  0  0  0
   64.9020   33.0120   46.9270 H   0  0  0  0  0  0  0  0  0  0  0  0
   62.8846   33.5095   45.6241 H   0  0  0  0  0  0  0  0  0  0  0  0
   61.0720   30.4050   46.6480 H   0  0  0  0  0  0  0  0  0  0  0  0
   60.4252   27.3703   46.5369 H   0  0  0  0  0  0  0  0  0  0  0  0
   59.2592   25.9519   44.9019 H   0  0  0  0  0  0  0  0  0  0  0  0
   57.5971   26.9218   43.3376 H   0  0  0  0  0  0  0  0  0  0  0  0
   56.4615   28.7375   42.5543 H   0  0  0  0  0  0  0  0  0  0  0  0
   55.9010   31.1429   42.5511 H   0  0  0  0  0  0  0  0  0  0  0  0
   57.0345   32.6482   44.1635 H   0  0  0  0  0  0  0  0  0  0  0  0
   58.6975   31.7447   45.7522 H   0  0  0  0  0  0  0  0  0  0  0  0
  1  2  2  0
  2  3  1  0
  3  4  1  0
  4  5  2  0
  5  6  1  0
  6  7  2  0
  7  8  1  0
  8  9  2  0
  9 10  1  0
 10 11  2  0
 11 12  1  0
 12 13  1  0
 13 14  2  0
 13 15  1  0
 15 16  1  0
 16 17  2  0
 17 18  1  0
  2 19  1  0
 19 20  1  0
 20 21  2  0
 21 22  1  0
 22 23  2  0
 23 24  1  0
 24 25  2  0
 25 26  1  0
 26 27  2  0
 27 28  1  0
 28 29  2  0
  9  4  1  0
 17 11  1  0
 29 20  1  0
 29 24  1  0
  3 30  1  0
  5 31  1  0
  6 32  1  0
  7 33  1  0
  8 34  1  0
 12 35  1  0
 15 36  1  0
 16 37  1  0
 19 38  1  0
 21 39  1  0
 22 40  1  0
 23 41  1  0
 25 42  1  0
 26 43  1  0
 27 44  1  0
 28 45  1  0
M  END
>  <smiles>  (59) 
O=C(Nc1ccccc1N=c1[nH]c(=O)[nH]cc1Br)Nc1cccc2ccccc12

>  <score_type>  (59) 
oracle

>  <origin>  (59) 
adg

>  <m_score__min__energy>  (59) 
-9.1500000000000004

>  <m_primary>  (59) 
energy

$$$$
59:0
     RDKit          3D

 40 42  0  0  0  0  0  0  0  0999 V2000
   59.2757   24.6823   46.1530 H   0  0  0  0  0  0  0  0  0  0  0  0
   58.2290   25.0190   46.1190 C   0  0  0  0  0  0  0  0  0  0  0  0
   57.9400   26.3090   45.7980 N   0  0  0  0  0  0  0  0  0  0  0  0
   56.6590   26.7710   45.7360 C   0  0  0  0  0  0  0  0  0  0  0  0
   56.4020   28.0100   45.4330 N   0  0  0  0  0  0  0  0  0  0  0  0
   57.3260   29.1120   45.3680 C   0  0  0  0  0  0  0  0  0  0  0  0
   56.8630   30.2760   45.2480 O   0  0  0  0  0  0  0  0  0  0  0  0
   58.8230   28.9240   45.3450 C   0  0  0  0  0  0  0  0  0  0  0  0
   59.0504   27.9101   44.9840 H   0  0  0  0  0  0  0  0  0  0  0  0
   59.2560   29.6836   44.6776 H   0  0  0  0  0  0  0  0  0  0  0  0
   59.4240   29.1020   46.7180 C   0  0  0  0  0  0  0  0  0  0  0  0
   59.6340   27.9910   47.5520 C   0  0  0  0  0  0  0  0  0  0  0  0
   59.4073   26.9796   47.1836 H   0  0  0  0  0  0  0  0  0  0  0  0
   60.1290   28.1640   48.8460 C   0  0  0  0  0  0  0  0  0  0  0  0
   60.2940   27.2894   49.4924 H   0  0  0  0  0  0  0  0  0  0  0  0
   60.4150   29.4460   49.3210 C   0  0  0  0  0  0  0  0  0  0  0  0
   60.7924   29.5800   50.3455 H   0  0  0  0  0  0  0  0  0  0  0  0
   60.2220   30.5640   48.4940 C   0  0  0  0  0  0  0  0  0  0  0  0
   60.4880   31.8930   48.9620 N   0  0  0  0  0  0  0  0  0  0  0  0
   59.6100   33.0140   48.7960 C   0  0  0  0  0  0  0  0  0  0  0  0
   59.0020   33.4600   49.8060 O   0  0  0  0  0  0  0  0  0  0  0  0
   59.4370   33.6840   47.4860 C   0  0  0  0  0  0  0  0  0  0  0  0
   59.8810   35.0050   47.2880 C   0  0  0  0  0  0  0  0  0  0  0  0
   60.3639   35.5489   48.1132 H   0  0  0  0  0  0  0  0  0  0  0  0
   59.7120   35.6300   46.0490 C   0  0  0  0  0  0  0  0  0  0  0  0
   60.0703   36.6593   45.8999 H   0  0  0  0  0  0  0  0  0  0  0  0
   59.0890   34.9500   45.0000 C   0  0  0  0  0  0  0  0  0  0  0  0
   58.9611   35.4420   44.0245 H   0  0  0  0  0  0  0  0  0  0  0  0
   58.6280   33.6440   45.1900 C   0  0  0  0  0  0  0  0  0  0  0  0
   57.7700   32.7180   43.7570 Br  0  0  0  0  0  0  0  0  0  0  0  0
   58.7960   33.0140   46.4290 C   0  0  0  0  0  0  0  0  0  0  0  0
   58.4245   31.9892   46.5763 H   0  0  0  0  0  0  0  0  0  0  0  0
   59.7630   30.3830   47.1850 C   0  0  0  0  0  0  0  0  0  0  0  0
   59.6667   31.2507   46.5158 H   0  0  0  0  0  0  0  0  0  0  0  0
   55.6000   25.8980   46.0340 C   0  0  0  0  0  0  0  0  0  0  0  0
   54.2820   26.3400   45.9940 O   0  0  0  0  0  0  0  0  0  0  0  0
   55.8770   24.5690   46.3650 C   0  0  0  0  0  0  0  0  0  0  0  0
   55.0545   23.8754   46.5937 H   0  0  0  0  0  0  0  0  0  0  0  0
   57.1990   24.1230   46.4050 C   0  0  0  0  0  0  0  0  0  0  0  0
   57.4259   23.0771   46.6591 H   0  0  0  0  0  0  0  0  0  0  0  0
  1  2  1  0
  2  3  1  0
  3  4  1  0
  4  5  2  0
  5  6  1  0
  6  7  2  0
  6  8  1  0
  8  9  1  0
  8 10  1  0
  8 11  1  0
 11 12  2  0
 12 13  1  0
 12 14  1  0
 14 15  1  0
 14 16  2  0
 16 17  1  0
 16 18  1  0
 18 19  1  0
 19 20  1  0
 20 21  2  0
 20 22  1  0
 22 23  2  0
 23 24  1  0
 23 25  1  0
 25 26  1  0
 25 27  2  0
 27 28  1  0
 27 29  1  0
 29 30  1  0
 29 31  2  0
 31 32  1  0
 18 33  2  0
 33 34  1  0
  4 35  1  0
 35 36  1  0
 35 37  2  0
 37 38  1  0
 37 39  1  0
 39 40  1  0
 39  2  2  0
 33 11  1  0
 31 22  1  0
M  CHG  3   3  -1  19  -1  36  -1
M  END
>  <UniqueID>  (60) 
49

>  <SMILES>  (60) 
O=C(Cc1cccc([N-]C(=O)c2cccc(Br)c2)c1)/N=c1\[n-]cccc1[O-]

>  <Energy>  (60) 
52.76317963965427

>  <Genealogy>  (60) 
O=C(Cc1cccc([N-]C(=O)c2cccc(Br)c2)c1)N=c1[n-]cccc1[O-] (protonated)
O=C(Cc1cccc([N-]C(=O)c2cccc(Br)c2)c1)/N=c1\[n-]cccc1[O-] (cis-trans isomerization)
O=C(Cc1cccc([N-]C(=O)c2cccc(Br)c2)c1)/N=c1\[n-]cccc1[O-] (3D coordinates assigned)
O=C(Cc1cccc([N-]C(=O)c2cccc(Br)c2)c1)/N=c1\[n-]cccc1[O-] (optimized conformer: 52.76317963965427 kcal/mol)

>  <smiles>  (60) 
O=C(Cc1cccc(NC(=O)c2cccc(Br)c2)c1)N=c1[nH]cccc1O

>  <score_type>  (60) 
oracle

>  <origin>  (60) 
adg

>  <m_score__min__energy>  (60) 
-16.010000000000002

>  <m_primary>  (60) 
energy

$$$$
60:0
     RDKit          3D

 31 33  0  0  1  0  0  0  0  0999 V2000
   57.0500   31.3210   42.2840 C   0  0  0  0  0  0  0  0  0  0  0  0
   56.3760   30.1270   42.9620 C   0  0  0  0  0  0  0  0  0  0  0  0
   56.5460   30.2440   44.3910 N   0  0  0  0  0  0  0  0  0  0  0  0
   56.8980   29.2040   45.0670 C   0  0  0  0  0  0  0  0  0  0  0  0
   56.0940   28.1490   45.2800 N   0  0  0  0  0  0  0  0  0  0  0  0
   56.4850   27.0720   45.9890 C   0  0  0  0  0  0  0  0  0  0  0  0
   55.8950   25.9140   46.3410 N   0  0  0  0  0  0  0  0  0  0  0  0
   56.7380   25.2130   47.0430 O   0  0  0  0  0  0  0  0  0  0  0  0
   57.8600   25.8460   47.1750 N   0  0  0  0  0  0  0  0  0  0  0  0
   57.7650   27.0250   46.5330 C   0  0  0  0  0  0  0  0  0  0  0  0
   58.5750   28.0760   46.3250 N   0  0  0  0  0  0  0  0  0  0  0  0
   58.1670   29.1580   45.6060 C   0  0  0  0  0  0  0  0  0  0  0  0
   59.0330   30.1060   45.4730 N   0  0  0  0  0  0  0  0  0  0  0  0
   58.7460   31.3950   46.0110 C   0  0  0  0  0  0  0  0  0  0  0  0
   58.7590   31.6610   47.3680 C   0  0  0  0  0  0  0  0  0  0  0  0
   58.4690   32.9330   47.8060 C   0  0  0  0  0  0  0  0  0  0  0  0
   58.1600   33.9730   46.9290 C   0  0  0  0  0  0  0  0  0  0  0  0
   58.1470   33.7110   45.5940 C   0  0  0  0  0  0  0  0  0  0  0  0
   58.4330   32.4540   45.1500 C   0  0  0  0  0  0  0  0  0  0  0  0
   57.4375   32.0075   43.0511 H   0  0  0  0  0  0  0  0  0  0  0  0
   57.8807   30.9656   41.6566 H   0  0  0  0  0  0  0  0  0  0  0  0
   56.3164   31.8486   41.6566 H   0  0  0  0  0  0  0  0  0  0  0  0
   55.3037   30.1200   42.7170 H   0  0  0  0  0  0  0  0  0  0  0  0
   56.8319   29.1907   42.6076 H   0  0  0  0  0  0  0  0  0  0  0  0
   55.1420   28.1560   44.8890 H   0  0  0  0  0  0  0  0  0  0  0  0
   59.5220   28.0330   46.7320 H   0  0  0  0  0  0  0  0  0  0  0  0
   58.9983   30.8653   48.0888 H   0  0  0  0  0  0  0  0  0  0  0  0
   58.4813   33.1371   48.8868 H   0  0  0  0  0  0  0  0  0  0  0  0
   57.9324   34.9804   47.3077 H   0  0  0  0  0  0  0  0  0  0  0  0
   57.9069   34.5094   44.8764 H   0  0  0  0  0  0  0  0  0  0  0  0
   58.4171   32.2632   44.0668 H   0  0  0  0  0  0  0  0  0  0  0  0
  1  2  1  0
  2  3  1  0
  3  4  2  0
  4  5  1  0
  5  6  1  0
  6  7  2  0
  7  8  1  0
  8  9  1  0
  9 10  2  0
 10 11  1  0
 11 12  1  0
 12 13  2  0
 13 14  1  0
 14 15  2  0
 15 16  1  0
 16 17  2  0
 17 18  1  0
 18 19  2  0
 12  4  1  0
 19 14  1  0
 10  6  1  0
  1 20  1  0
  1 21  1  0
  1 22  1  0
  2 23  1  0
  2 24  1  0
  5 25  1  0
 11 26  1  0
 15 27  1  0
 16 28  1  0
 17 29  1  0
 18 30  1  0
 19 31  1  0
M  END
>  <smiles>  (61) 
CCN=c1[nH]c2nonc2[nH]c1=Nc1ccccc1

>  <score_type>  (61) 
oracle

>  <origin>  (61) 
adg

>  <m_score__min__energy>  (61) 
-7.0099999999999998

>  <m_primary>  (61) 
energy

$$$$
61:0
     RDKit          3D

 54 56  0  0  0  0  0  0  0  0999 V2000
   56.5250   20.5950   44.0720 C   0  0  0  0  0  0  0  0  0  0  0  0
   57.2720   21.8160   43.7260 N   0  0  0  0  0  0  0  0  0  0  0  0
   56.3840   22.8240   43.0940 C   0  0  0  0  0  0  0  0  0  0  0  0
   55.8440   23.8580   44.0920 C   0  0  0  0  0  0  0  0  0  0  0  0
   56.9460   24.4950   44.8210 N   0  0  0  0  0  0  0  0  0  0  0  0
   56.6870   25.6790   45.6030 C   0  0  0  0  0  0  0  0  0  0  0  0
   55.5340   25.8660   46.0780 O   0  0  0  0  0  0  0  0  0  0  0  0
   57.7400   26.6880   45.8590 C   0  0  0  0  0  0  0  0  0  0  0  0
   58.6730   27.0220   44.8640 C   0  0  0  0  0  0  0  0  0  0  0  0
   59.6550   27.9860   45.1080 C   0  0  0  0  0  0  0  0  0  0  0  0
   59.7060   28.6450   46.3440 C   0  0  0  0  0  0  0  0  0  0  0  0
   60.7780   29.6630   46.6060 C   0  0  0  0  0  0  0  0  0  0  0  0
   60.2880   30.6350   47.5210 O   0  0  0  0  0  0  0  0  0  0  0  0
   60.0880   31.9750   47.1770 C   0  0  0  0  0  0  0  0  0  0  0  0
   60.6440   32.9700   47.9280 N   0  0  0  0  0  0  0  0  0  0  0  0
   60.4650   34.2830   47.6290 C   0  0  0  0  0  0  0  0  0  0  0  0
   59.6910   34.6490   46.5280 C   0  0  0  0  0  0  0  0  0  0  0  0
   59.1090   33.6550   45.7400 C   0  0  0  0  0  0  0  0  0  0  0  0
   59.3030   32.3010   46.0550 C   0  0  0  0  0  0  0  0  0  0  0  0
   58.6940   31.2240   45.1910 C   0  0  0  0  0  0  0  0  0  0  0  0
   57.2440   31.1380   45.3880 N   0  0  0  0  0  0  0  0  0  0  0  0
   56.4780   30.3340   44.0490 S   0  0  0  0  0  0  0  0  0  0  0  0
   57.0070   31.1090   42.5390 C   0  0  0  0  0  0  0  0  0  0  0  0
   54.9840   30.4440   44.1600 O   0  0  0  0  0  0  0  0  0  0  0  0
   56.8750   28.8830   44.0230 O   0  0  0  0  0  0  0  0  0  0  0  0
   58.7770   28.3140   47.3410 C   0  0  0  0  0  0  0  0  0  0  0  0
   57.7940   27.3510   47.0960 C   0  0  0  0  0  0  0  0  0  0  0  0
   58.2510   23.8240   44.8690 C   0  0  0  0  0  0  0  0  0  0  0  0
   58.0370   22.3080   44.9010 C   0  0  0  0  0  0  0  0  0  0  0  0
   56.4662   20.4988   45.1662 H   0  0  0  0  0  0  0  0  0  0  0  0
   55.5093   20.6558   43.6541 H   0  0  0  0  0  0  0  0  0  0  0  0
   57.0416   19.7183   43.6541 H   0  0  0  0  0  0  0  0  0  0  0  0
   56.9527   23.3527   42.3149 H   0  0  0  0  0  0  0  0  0  0  0  0
   55.5195   22.2859   42.6779 H   0  0  0  0  0  0  0  0  0  0  0  0
   55.2793   24.6276   43.5454 H   0  0  0  0  0  0  0  0  0  0  0  0
   55.1895   23.3470   44.8135 H   0  0  0  0  0  0  0  0  0  0  0  0
   58.6306   26.5213   43.8855 H   0  0  0  0  0  0  0  0  0  0  0  0
   60.3907   28.2285   44.3270 H   0  0  0  0  0  0  0  0  0  0  0  0
   61.6602   29.1657   47.0354 H   0  0  0  0  0  0  0  0  0  0  0  0
   61.0597   30.1534   45.6625 H   0  0  0  0  0  0  0  0  0  0  0  0
   60.9307   35.0579   48.2556 H   0  0  0  0  0  0  0  0  0  0  0  0
   59.5407   35.7108   46.2831 H   0  0  0  0  0  0  0  0  0  0  0  0
   58.4966   33.9334   44.8697 H   0  0  0  0  0  0  0  0  0  0  0  0
   58.8989   31.4536   44.1349 H   0  0  0  0  0  0  0  0  0  0  0  0
   59.1401   30.2591   45.4738 H   0  0  0  0  0  0  0  0  0  0  0  0
   57.6127   31.9964   42.7750 H   0  0  0  0  0  0  0  0  0  0  0  0
   57.6096   30.3987   41.9539 H   0  0  0  0  0  0  0  0  0  0  0  0
   56.1260   31.4114   41.9539 H   0  0  0  0  0  0  0  0  0  0  0  0
   58.8221   28.8142   48.3197 H   0  0  0  0  0  0  0  0  0  0  0  0
   57.0578   27.1108   47.8772 H   0  0  0  0  0  0  0  0  0  0  0  0
   58.8366   24.0941   43.9779 H   0  0  0  0  0  0  0  0  0  0  0  0
   58.7957   24.1394   45.7711 H   0  0  0  0  0  0  0  0  0  0  0  0
   59.0194   21.8133   44.9145 H   0  0  0  0  0  0  0  0  0  0  0  0
   57.4527   22.0721   45.8026 H   0  0  0  0  0  0  0  0  0  0  0  0
  1  2  1  0
  2  3  1  0
  3  4  1  0
  4  5  1  0
  5  6  1  0
  6  7  2  0
  6  8  1  0
  8  9  2  0
  9 10  1  0
 10 11  2  0
 11 12  1  0
 12 13  1  0
 13 14  1  0
 14 15  2  0
 15 16  1  0
 16 17  2  0
 17 18  1  0
 18 19  2  0
 19 20  1  0
 20 21  1  0
 21 22  1  0
 22 23  1  0
 22 24  2  0
 22 25  2  0
 11 26  1  0
 26 27  2  0
  5 28  1  0
 28 29  1  0
 29  2  1  0
 27  8  1  0
 19 14  1  0
  1 30  1  0
  1 31  1  0
  1 32  1  0
  3 33  1  0
  3 34  1  0
  4 35  1  0
  4 36  1  0
  9 37  1  0
 10 38  1  0
 12 39  1  0
 12 40  1  0
 16 41  1  0
 17 42  1  0
 18 43  1  0
 20 44  1  0
 20 45  1  0
 23 46  1  0
 23 47  1  0
 23 48  1  0
 26 49  1  0
 27 50  1  0
 28 51  1  0
 28 52  1  0
 29 53  1  0
 29 54  1  0
M  CHG  1  21  -1
M  END
>  <UniqueID>  (62) 
50

>  <SMILES>  (62) 
CN1CCN(C(=O)c2ccc(COc3ncccc3C[N-]S(C)(=O)=O)cc2)CC1

>  <Energy>  (62) 
58.40168020501362

>  <Genealogy>  (62) 
CN1CCN(C(=O)c2ccc(COc3ncccc3C[N-]S(C)(=O)=O)cc2)CC1 (protonated)
CN1CCN(C(=O)c2ccc(COc3ncccc3C[N-]S(C)(=O)=O)cc2)CC1 (3D coordinates assigned)
CN1CCN(C(=O)c2ccc(COc3ncccc3C[N-]S(C)(=O)=O)cc2)CC1 (nonaromatic ring conformer: 58.40168020501362 kcal/mol)

>  <smiles>  (62) 
CN1CCN(C(=O)c2ccc(COc3ncccc3CNS(C)(=O)=O)cc2)CC1

>  <score_type>  (62) 
oracle

>  <origin>  (62) 
adg

>  <m_score__min__energy>  (62) 
-10.06

>  <m_primary>  (62) 
energy

$$$$
62:0
     RDKit          3D

 49 52  0  0  1  0  0  0  0  0999 V2000
   61.0140   28.3220   44.8600 C   0  0  0  0  0  0  0  0  0  0  0  0
   59.9930   28.9890   45.7080 C   0  0  0  0  0  0  0  0  0  0  0  0
   60.2760   29.8040   46.7600 N   0  0  0  0  0  0  0  0  0  0  0  0
   59.1400   30.2530   47.2770 C   0  0  0  0  0  0  0  0  0  0  0  0
   58.8680   31.1580   48.4230 C   0  0  0  0  0  0  0  0  0  0  0  0
   59.6990   32.2860   48.4910 N   0  0  0  0  0  0  0  0  0  0  0  0
   59.7600   33.0310   47.3120 C   0  0  0  0  0  0  0  0  0  0  0  0
   60.8470   34.0730   47.2230 C   0  0  0  0  0  0  0  0  0  0  0  0
   62.0600   33.5150   47.8730 C   0  0  0  0  0  0  0  0  0  0  0  0
   62.0030   32.7170   49.0020 C   0  0  0  0  0  0  0  0  0  0  0  0
   63.0960   32.2090   49.6010 N   0  0  0  0  0  0  0  0  0  0  0  0
   64.2940   32.4800   49.0960 C   0  0  0  0  0  0  0  0  0  0  0  0
   65.3140   31.9880   49.6840 O   0  0  0  0  0  0  0  0  0  0  0  0
   64.4030   33.2480   48.0050 N   0  0  0  0  0  0  0  0  0  0  0  0
   63.3370   33.7700   47.3830 C   0  0  0  0  0  0  0  0  0  0  0  0
   63.4390   34.4810   46.3690 O   0  0  0  0  0  0  0  0  0  0  0  0
   60.6160   32.4460   49.5240 C   0  0  0  0  0  0  0  0  0  0  0  0
   58.1360   29.7160   46.5440 N   0  0  0  0  0  0  0  0  0  0  0  0
   58.6310   28.9300   45.5670 C   0  0  0  0  0  0  0  0  0  0  0  0
   57.7790   28.1780   44.6230 C   0  0  0  0  0  0  0  0  0  0  0  0
   56.5460   29.2430   43.9560 S   0  0  0  0  0  0  0  0  0  0  0  0
   55.1550   29.1410   44.8880 O   0  0  0  0  0  0  0  0  0  0  0  0
   57.1480   30.8600   43.8230 C   0  0  0  0  0  0  0  0  0  0  0  0
   57.7150   31.3720   42.6560 C   0  0  0  0  0  0  0  0  0  0  0  0
   58.1600   32.7000   42.6580 C   0  0  0  0  0  0  0  0  0  0  0  0
   58.0260   33.4550   43.7960 C   0  0  0  0  0  0  0  0  0  0  0  0
   57.4660   32.9700   44.9660 C   0  0  0  0  0  0  0  0  0  0  0  0
   57.0340   31.6740   44.9590 C   0  0  0  0  0  0  0  0  0  0  0  0
   61.7617   27.8335   45.5022 H   0  0  0  0  0  0  0  0  0  0  0  0
   60.5270   27.5673   44.2249 H   0  0  0  0  0  0  0  0  0  0  0  0
   61.5094   29.0712   44.2249 H   0  0  0  0  0  0  0  0  0  0  0  0
   61.2150   30.0310   47.0960 H   0  0  0  0  0  0  0  0  0  0  0  0
   57.8267   31.5041   48.3463 H   0  0  0  0  0  0  0  0  0  0  0  0
   59.0645   30.5729   49.3335 H   0  0  0  0  0  0  0  0  0  0  0  0
   59.9052   32.3263   46.4799 H   0  0  0  0  0  0  0  0  0  0  0  0
   58.8162   33.5950   47.2780 H   0  0  0  0  0  0  0  0  0  0  0  0
   61.0593   34.3041   46.1687 H   0  0  0  0  0  0  0  0  0  0  0  0
   60.5336   35.0011   47.7233 H   0  0  0  0  0  0  0  0  0  0  0  0
   62.9910   31.6030   50.4680 H   0  0  0  0  0  0  0  0  0  0  0  0
   65.3830   33.4210   47.6620 H   0  0  0  0  0  0  0  0  0  0  0  0
   60.6359   31.5271   50.1283 H   0  0  0  0  0  0  0  0  0  0  0  0
   60.3030   33.3096   50.1292 H   0  0  0  0  0  0  0  0  0  0  0  0
   58.4002   27.7817   43.8063 H   0  0  0  0  0  0  0  0  0  0  0  0
   57.2927   27.3470   45.1549 H   0  0  0  0  0  0  0  0  0  0  0  0
   57.8104   30.7476   41.7554 H   0  0  0  0  0  0  0  0  0  0  0  0
   58.6132   33.1343   41.7547 H   0  0  0  0  0  0  0  0  0  0  0  0
   58.3807   34.4961   43.7780 H   0  0  0  0  0  0  0  0  0  0  0  0
   57.3730   33.6010   45.8622 H   0  0  0  0  0  0  0  0  0  0  0  0
   56.5834   31.2567   45.8716 H   0  0  0  0  0  0  0  0  0  0  0  0
  1  2  1  0
  2  3  1  0
  3  4  1  0
  4  5  1  0
  5  6  1  0
  6  7  1  0
  7  8  1  0
  8  9  1  0
  9 10  2  0
 10 11  1  0
 11 12  1  0
 12 13  2  0
 12 14  1  0
 14 15  1  0
 15 16  2  0
 10 17  1  0
  4 18  2  0
 18 19  1  0
 19 20  1  0
 20 21  1  0
 21 22  1  1
 21 23  1  0
 23 24  2  0
 24 25  1  0
 25 26  2  0
 26 27  1  0
 27 28  2  0
 19  2  2  0
 28 23  1  0
 17  6  1  0
 15  9  1  0
  1 29  1  0
  1 30  1  0
  1 31  1  0
  3 32  1  0
  5 33  1  0
  5 34  1  0
  7 35  1  0
  7 36  1  0
  8 37  1  0
  8 38  1  0
 11 39  1  0
 14 40  1  0
 17 41  1  0
 17 42  1  0
 20 43  1  0
 20 44  1  0
 24 45  1  0
 25 46  1  0
 26 47  1  0
 27 48  1  0
 28 49  1  0
M  CHG  2  21   1  22  -1
M  END
>  <smiles>  (63) 
Cc1[nH]c(CN2CCc3c([nH]c(=O)[nH]c3=O)C2)nc1C[S+]([O-])c1ccccc1

>  <score_type>  (63) 
oracle

>  <origin>  (63) 
adg

>  <m_score__min__energy>  (63) 
-10.380000000000001

>  <m_primary>  (63) 
energy

$$$$
63:0
     RDKit          3D

 51 53  0  0  0  0  0  0  0  0999 V2000
   54.6900   30.7010   51.6560 C   0  0  0  0  0  0  0  0  0  0  0  0
   56.0070   30.1640   51.7170 O   0  0  0  0  0  0  0  0  0  0  0  0
   57.0160   30.6200   52.5830 C   0  0  0  0  0  0  0  0  0  0  0  0
   56.8320   30.6520   53.9810 C   0  0  0  0  0  0  0  0  0  0  0  0
   57.8630   31.0770   54.8210 C   0  0  0  0  0  0  0  0  0  0  0  0
   59.0850   31.4740   54.2830 C   0  0  0  0  0  0  0  0  0  0  0  0
   59.2820   31.4540   52.9020 C   0  0  0  0  0  0  0  0  0  0  0  0
   58.2530   31.0370   52.0390 C   0  0  0  0  0  0  0  0  0  0  0  0
   58.4850   31.0400   50.5760 C   0  0  0  0  0  0  0  0  0  0  0  0
   58.2780   32.2100   49.8280 C   0  0  0  0  0  0  0  0  0  0  0  0
   58.4820   32.2120   48.4460 C   0  0  0  0  0  0  0  0  0  0  0  0
   58.8730   31.0380   47.7810 C   0  0  0  0  0  0  0  0  0  0  0  0
   59.0860   31.0370   46.2810 C   0  0  0  0  0  0  0  0  0  0  0  0
   57.9040   31.4620   45.4990 N   0  0  0  0  0  0  0  0  0  0  0  0
   57.5870   30.5690   44.3690 C   0  0  0  0  0  0  0  0  0  0  0  0
   57.5440   29.1280   44.8190 C   0  0  0  0  0  0  0  0  0  0  0  0
   58.7220   28.3620   44.7830 C   0  0  0  0  0  0  0  0  0  0  0  0
   58.7120   27.0260   45.1870 C   0  0  0  0  0  0  0  0  0  0  0  0
   57.5240   26.4350   45.6190 C   0  0  0  0  0  0  0  0  0  0  0  0
   56.3360   27.1730   45.6430 C   0  0  0  0  0  0  0  0  0  0  0  0
   55.1640   26.5510   46.0710 O   0  0  0  0  0  0  0  0  0  0  0  0
   56.3400   28.5190   45.2350 C   0  0  0  0  0  0  0  0  0  0  0  0
   55.1500   29.2410   45.2430 O   0  0  0  0  0  0  0  0  0  0  0  0
   57.9470   33.1530   45.0340 S   0  0  0  0  0  0  0  0  0  0  0  0
   59.3110   34.0420   45.7670 C   0  0  0  0  0  0  0  0  0  0  0  0
   58.0840   33.2400   43.5410 O   0  0  0  0  0  0  0  0  0  0  0  0
   56.6610   33.8270   45.4250 O   0  0  0  0  0  0  0  0  0  0  0  0
   59.1010   29.8740   48.5320 C   0  0  0  0  0  0  0  0  0  0  0  0
   58.8980   29.8710   49.9140 C   0  0  0  0  0  0  0  0  0  0  0  0
   54.3096   30.8561   52.6764 H   0  0  0  0  0  0  0  0  0  0  0  0
   54.7105   31.6626   51.1222 H   0  0  0  0  0  0  0  0  0  0  0  0
   54.0322   29.9993   51.1222 H   0  0  0  0  0  0  0  0  0  0  0  0
   55.8695   30.3399   54.4125 H   0  0  0  0  0  0  0  0  0  0  0  0
   57.7100   31.0984   55.9101 H   0  0  0  0  0  0  0  0  0  0  0  0
   59.8964   31.8040   54.9484 H   0  0  0  0  0  0  0  0  0  0  0  0
   60.2504   31.7671   52.4847 H   0  0  0  0  0  0  0  0  0  0  0  0
   57.9530   33.1313   50.3336 H   0  0  0  0  0  0  0  0  0  0  0  0
   58.3353   33.1401   47.8741 H   0  0  0  0  0  0  0  0  0  0  0  0
   59.9161   31.7209   46.0502 H   0  0  0  0  0  0  0  0  0  0  0  0
   59.2974   29.9966   45.9930 H   0  0  0  0  0  0  0  0  0  0  0  0
   56.6067   30.8465   43.9542 H   0  0  0  0  0  0  0  0  0  0  0  0
   58.3708   30.6761   43.6047 H   0  0  0  0  0  0  0  0  0  0  0  0
   59.6595   28.8192   44.4336 H   0  0  0  0  0  0  0  0  0  0  0  0
   59.6416   26.4383   45.1648 H   0  0  0  0  0  0  0  0  0  0  0  0
   57.5218   25.3836   45.9423 H   0  0  0  0  0  0  0  0  0  0  0  0
   54.3450   27.0790   46.3470 H   0  0  0  0  0  0  0  0  0  0  0  0
   59.2344   33.9921   46.8632 H   0  0  0  0  0  0  0  0  0  0  0  0
   60.2599   33.5884   45.4447 H   0  0  0  0  0  0  0  0  0  0  0  0
   59.2790   35.0932   45.4447 H   0  0  0  0  0  0  0  0  0  0  0  0
   59.4421   28.9575   48.0284 H   0  0  0  0  0  0  0  0  0  0  0  0
   59.0625   28.9473   50.4882 H   0  0  0  0  0  0  0  0  0  0  0  0
  1  2  1  0
  2  3  1  0
  3  4  2  0
  4  5  1  0
  5  6  2  0
  6  7  1  0
  7  8  2  0
  8  9  1  0
  9 10  2  0
 10 11  1  0
 11 12  2  0
 12 13  1  0
 13 14  1  0
 14 15  1  0
 15 16  1  0
 16 17  2  0
 17 18  1  0
 18 19  2  0
 19 20  1  0
 20 21  1  0
 20 22  2  0
 22 23  1  0
 14 24  1  0
 24 25  1  0
 24 26  2  0
 24 27  2  0
 12 28  1  0
 28 29  2  0
  8  3  1  0
 29  9  1  0
 22 16  1  0
  1 30  1  0
  1 31  1  0
  1 32  1  0
  4 33  1  0
  5 34  1  0
  6 35  1  0
  7 36  1  0
 10 37  1  0
 11 38  1  0
 13 39  1  0
 13 40  1  0
 15 41  1  0
 15 42  1  0
 17 43  1  0
 18 44  1  0
 19 45  1  0
 21 46  1  0
 25 47  1  0
 25 48  1  0
 25 49  1  0
 28 50  1  0
 29 51  1  0
M  CHG  1  23  -1
M  END
>  <UniqueID>  (64) 
51

>  <SMILES>  (64) 
COc1ccccc1-c1ccc(CN(Cc2cccc(O)c2[O-])S(C)(=O)=O)cc1

>  <Energy>  (64) 
58.901006647764355

>  <Genealogy>  (64) 
COc1ccccc1-c1ccc(CN(Cc2cccc(O)c2[O-])S(C)(=O)=O)cc1 (protonated)
COc1ccccc1-c1ccc(CN(Cc2cccc(O)c2[O-])S(C)(=O)=O)cc1 (3D coordinates assigned)
COc1ccccc1-c1ccc(CN(Cc2cccc(O)c2[O-])S(C)(=O)=O)cc1 (optimized conformer: 58.901006647764355 kcal/mol)

>  <smiles>  (64) 
COc1ccccc1-c1ccc(CN(Cc2cccc(O)c2O)S(C)(=O)=O)cc1

>  <score_type>  (64) 
oracle

>  <origin>  (64) 
adg

>  <m_score__min__energy>  (64) 
-13.31

>  <m_primary>  (64) 
energy

$$$$
64:0
     RDKit          3D

 38 40  0  0  0  0  0  0  0  0999 V2000
   61.4855   34.1230   51.4904 H   0  0  0  0  0  0  0  0  0  0  0  0
   61.9410   33.8970   50.5150 C   0  0  0  0  0  0  0  0  0  0  0  0
   63.3250   33.7760   50.4050 C   0  0  0  0  0  0  0  0  0  0  0  0
   63.9615   33.9202   51.2905 H   0  0  0  0  0  0  0  0  0  0  0  0
   63.9040   33.4720   49.1720 C   0  0  0  0  0  0  0  0  0  0  0  0
   64.9969   33.3764   49.0920 H   0  0  0  0  0  0  0  0  0  0  0  0
   63.1040   33.2870   48.0320 C   0  0  0  0  0  0  0  0  0  0  0  0
   63.7360   32.8870   46.8080 N   0  0  0  0  0  0  0  0  0  0  0  0
   64.6410   32.3690   46.7940 H   0  0  0  0  0  0  0  0  0  0  0  0
   63.3670   33.2210   45.8890 H   0  0  0  0  0  0  0  0  0  0  0  0
   61.6970   33.4430   48.1330 C   0  0  0  0  0  0  0  0  0  0  0  0
   60.8000   33.3530   46.9600 C   0  0  0  0  0  0  0  0  0  0  0  0
   61.2540   33.5800   45.8070 O   0  0  0  0  0  0  0  0  0  0  0  0
   59.4030   33.0730   47.1650 N   0  0  0  0  0  0  0  0  0  0  0  0
   58.7490   31.9810   46.8890 C   0  0  0  0  0  0  0  0  0  0  0  0
   59.2170   30.3570   47.5210 S   0  0  0  0  0  0  0  0  0  0  0  0
   59.1480   29.3990   45.9390 C   0  0  1  0  0  0  0  0  0  0  0  0
   60.1973   29.2288   45.6562 H   0  0  0  0  0  0  0  0  0  0  0  0
   58.4180   28.0940   46.1780 C   0  0  0  0  0  0  0  0  0  0  0  0
   59.1330   26.9410   46.5480 C   0  0  0  0  0  0  0  0  0  0  0  0
   60.2236   26.9935   46.6817 H   0  0  0  0  0  0  0  0  0  0  0  0
   58.4660   25.7280   46.7470 C   0  0  0  0  0  0  0  0  0  0  0  0
   59.0331   24.8324   47.0407 H   0  0  0  0  0  0  0  0  0  0  0  0
   57.0820   25.6500   46.5740 C   0  0  0  0  0  0  0  0  0  0  0  0
   56.4270   24.4410   46.7730 O   0  0  0  0  0  0  0  0  0  0  0  0
   56.3610   26.7880   46.1970 C   0  0  0  0  0  0  0  0  0  0  0  0
   54.9840   26.7160   46.0200 O   0  0  0  0  0  0  0  0  0  0  0  0
   57.0240   28.0040   45.9970 C   0  0  0  0  0  0  0  0  0  0  0  0
   56.4531   28.8950   45.6966 H   0  0  0  0  0  0  0  0  0  0  0  0
   58.5520   30.1400   44.7180 C   0  0  0  0  0  0  0  0  0  0  0  0
   58.1997   29.3926   43.9918 H   0  0  0  0  0  0  0  0  0  0  0  0
   59.3455   30.7764   44.2991 H   0  0  0  0  0  0  0  0  0  0  0  0
   57.4030   31.0340   45.0800 C   0  0  0  0  0  0  0  0  0  0  0  0
   56.3030   30.9400   44.4750 O   0  0  0  0  0  0  0  0  0  0  0  0
   57.5980   32.0550   46.0550 N   0  0  0  0  0  0  0  0  0  0  0  0
   56.9910   32.9050   46.0580 H   0  0  0  0  0  0  0  0  0  0  0  0
   61.1320   33.7320   49.3900 C   0  0  0  0  0  0  0  0  0  0  0  0
   60.0405   33.8288   49.4862 H   0  0  0  0  0  0  0  0  0  0  0  0
  1  2  1  0
  2  3  2  0
  3  4  1  0
  3  5  1  0
  5  6  1  0
  5  7  2  0
  7  8  1  0
  8  9  1  0
  8 10  1  0
  7 11  1  0
 11 12  1  0
 12 13  2  0
 12 14  1  0
 14 15  2  0
 15 16  1  0
 16 17  1  0
 17 18  1  6
 17 19  1  0
 19 20  2  0
 20 21  1  0
 20 22  1  0
 22 23  1  0
 22 24  2  0
 24 25  1  0
 24 26  1  0
 26 27  1  0
 26 28  2  0
 28 29  1  0
 17 30  1  0
 30 31  1  0
 30 32  1  0
 30 33  1  0
 33 34  2  0
 33 35  1  0
 35 36  1  0
 11 37  2  0
 37 38  1  0
 37  2  1  0
 35 15  1  0
 28 19  1  0
M  CHG  2  25  -1  27  -1
M  END
>  <UniqueID>  (65) 
52

>  <SMILES>  (65) 
Nc1ccccc1C(=O)/N=C1/NC(=O)C[C@H](c2ccc([O-])c([O-])c2)S1

>  <Energy>  (65) 
59.583021495733234

>  <Genealogy>  (65) 
Nc1ccccc1C(=O)N=C1NC(=O)CC(c2ccc([O-])c([O-])c2)S1 (protonated)
Nc1ccccc1C(=O)N=C1NC(=O)C[C@H](c2ccc([O-])c([O-])c2)S1 (chirality)
Nc1ccccc1C(=O)/N=C1/NC(=O)C[C@H](c2ccc([O-])c([O-])c2)S1 (cis-trans isomerization)
Nc1ccccc1C(=O)/N=C1/NC(=O)C[C@H](c2ccc([O-])c([O-])c2)S1 (3D coordinates assigned)
Nc1ccccc1C(=O)/N=C1/NC(=O)C[C@H](c2ccc([O-])c([O-])c2)S1 (nonaromatic ring conformer: 59.583021495733234 kcal/mol)

>  <smiles>  (65) 
Nc1ccccc1C(=O)N=C1NC(=O)CC(c2ccc(O)c(O)c2)S1

>  <score_type>  (65) 
oracle

>  <origin>  (65) 
adg

>  <m_score__min__energy>  (65) 
-14.029999999999999

>  <m_primary>  (65) 
energy

$$$$
65:0
     RDKit          3D

 40 42  0  0  0  0  0  0  0  0999 V2000
   55.1590   26.6690   46.0600 O   0  0  0  0  0  0  0  0  0  0  0  0
   56.2300   26.0160   45.9420 C   0  0  0  0  0  0  0  0  0  0  0  0
   57.4100   26.5110   46.5910 N   0  0  0  0  0  0  0  0  0  0  0  0
   57.8720   27.8690   46.5760 C   0  0  0  0  0  0  0  0  0  0  0  0
   57.6560   28.7110   45.4710 C   0  0  0  0  0  0  0  0  0  0  0  0
   58.1190   30.0290   45.4910 C   0  0  0  0  0  0  0  0  0  0  0  0
   58.8120   30.5190   46.6050 C   0  0  0  0  0  0  0  0  0  0  0  0
   59.3690   32.1940   46.6380 S   0  0  0  0  0  0  0  0  0  0  0  0
   58.7480   32.8950   47.8140 O   0  0  0  0  0  0  0  0  0  0  0  0
   58.9110   32.8920   45.3860 O   0  0  0  0  0  0  0  0  0  0  0  0
   61.1080   32.2970   46.7570 N   0  0  0  0  0  0  0  0  0  0  0  0
   61.5790   31.6520   47.9940 C   0  0  0  0  0  0  0  0  0  0  0  0
   63.0740   31.9500   48.2290 C   0  0  0  0  0  0  0  0  0  0  0  0
   63.6690   32.5100   47.0750 O   0  0  0  0  0  0  0  0  0  0  0  0
   63.0850   33.7710   46.7970 C   0  0  0  0  0  0  0  0  0  0  0  0
   61.5450   33.7000   46.7190 C   0  0  0  0  0  0  0  0  0  0  0  0
   59.0560   29.6700   47.6940 C   0  0  0  0  0  0  0  0  0  0  0  0
   58.5950   28.3500   47.6740 C   0  0  0  0  0  0  0  0  0  0  0  0
   56.2490   24.7970   45.0980 C   0  0  0  0  0  0  0  0  0  0  0  0
   57.4520   24.3380   44.5420 C   0  0  0  0  0  0  0  0  0  0  0  0
   57.4650   23.1880   43.7490 C   0  0  0  0  0  0  0  0  0  0  0  0
   56.2710   22.4970   43.5260 C   0  0  0  0  0  0  0  0  0  0  0  0
   56.2640   21.4610   42.8130 O   0  0  0  0  0  0  0  0  0  0  0  0
   55.1150   22.9420   44.0850 N   0  0  0  0  0  0  0  0  0  0  0  0
   55.0760   24.0600   44.8580 C   0  0  0  0  0  0  0  0  0  0  0  0
   57.1209   28.3310   44.5882 H   0  0  0  0  0  0  0  0  0  0  0  0
   57.9382   30.6854   44.6270 H   0  0  0  0  0  0  0  0  0  0  0  0
   60.9964   32.0345   48.8451 H   0  0  0  0  0  0  0  0  0  0  0  0
   61.4459   30.5643   47.8985 H   0  0  0  0  0  0  0  0  0  0  0  0
   63.1720   32.6594   49.0640 H   0  0  0  0  0  0  0  0  0  0  0  0
   63.5861   31.0049   48.4625 H   0  0  0  0  0  0  0  0  0  0  0  0
   63.3666   34.4746   47.5943 H   0  0  0  0  0  0  0  0  0  0  0  0
   63.4562   34.1045   45.8167 H   0  0  0  0  0  0  0  0  0  0  0  0
   61.1109   34.2408   47.5729 H   0  0  0  0  0  0  0  0  0  0  0  0
   61.2077   34.1598   45.7784 H   0  0  0  0  0  0  0  0  0  0  0  0
   59.6118   30.0435   48.5667 H   0  0  0  0  0  0  0  0  0  0  0  0
   58.8017   27.6857   48.5260 H   0  0  0  0  0  0  0  0  0  0  0  0
   58.3876   24.8849   44.7308 H   0  0  0  0  0  0  0  0  0  0  0  0
   58.4055   22.8301   43.3047 H   0  0  0  0  0  0  0  0  0  0  0  0
   54.1228   24.3891   45.2974 H   0  0  0  0  0  0  0  0  0  0  0  0
  1  2  2  0
  2  3  1  0
  3  4  1  0
  4  5  2  0
  5  6  1  0
  6  7  2  0
  7  8  1  0
  8  9  2  0
  8 10  2  0
  8 11  1  0
 11 12  1  0
 12 13  1  0
 13 14  1  0
 14 15  1  0
 15 16  1  0
  7 17  1  0
 17 18  2  0
  2 19  1  0
 19 20  1  0
 20 21  2  0
 21 22  1  0
 22 23  2  0
 22 24  1  0
 24 25  1  0
 18  4  1  0
 25 19  2  0
 16 11  1  0
  5 26  1  0
  6 27  1  0
 12 28  1  0
 12 29  1  0
 13 30  1  0
 13 31  1  0
 15 32  1  0
 15 33  1  0
 16 34  1  0
 16 35  1  0
 17 36  1  0
 18 37  1  0
 20 38  1  0
 21 39  1  0
 25 40  1  0
M  CHG  2   3  -1  24  -1
M  END
>  <UniqueID>  (66) 
53

>  <SMILES>  (66) 
O=C([N-]c1ccc(S(=O)(=O)N2CCOCC2)cc1)c1ccc(=O)[n-]c1

>  <Energy>  (66) 
56.3548305417746

>  <Genealogy>  (66) 
O=C([N-]c1ccc(S(=O)(=O)N2CCOCC2)cc1)c1ccc(=O)[n-]c1 (protonated)
O=C([N-]c1ccc(S(=O)(=O)N2CCOCC2)cc1)c1ccc(=O)[n-]c1 (3D coordinates assigned)
O=C([N-]c1ccc(S(=O)(=O)N2CCOCC2)cc1)c1ccc(=O)[n-]c1 (nonaromatic ring conformer: 56.3548305417746 kcal/mol)

>  <smiles>  (66) 
O=C(Nc1ccc(S(=O)(=O)N2CCOCC2)cc1)c1ccc(=O)[nH]c1

>  <score_type>  (66) 
oracle

>  <origin>  (66) 
adg

>  <m_score__min__energy>  (66) 
-11.380000000000001

>  <m_primary>  (66) 
energy

$$$$
66:0
     RDKit          3D

 39 41  0  0  0  0  0  0  0  0999 V2000
   54.5910   27.0700   46.6990 H   0  0  0  0  0  0  0  0  0  0  0  0
   54.7840   26.3360   45.9800 N   0  0  0  0  0  0  0  0  0  0  0  0
   56.4940   26.0940   45.9520 S   0  0  0  0  0  0  0  0  0  0  0  0
   56.9210   25.3700   47.1980 O   0  0  0  0  0  0  0  0  0  0  0  0
   56.8610   25.2580   44.7590 O   0  0  0  0  0  0  0  0  0  0  0  0
   57.3070   27.6540   45.8620 C   0  0  0  0  0  0  0  0  0  0  0  0
   56.8180   28.6570   45.0140 C   0  0  0  0  0  0  0  0  0  0  0  0
   55.9286   28.4660   44.3956 H   0  0  0  0  0  0  0  0  0  0  0  0
   57.4560   29.8990   44.9510 C   0  0  0  0  0  0  0  0  0  0  0  0
   57.0612   30.6849   44.2903 H   0  0  0  0  0  0  0  0  0  0  0  0
   58.6020   30.1480   45.7300 C   0  0  0  0  0  0  0  0  0  0  0  0
   59.2740   31.4190   45.7190 N   0  0  0  0  0  0  0  0  0  0  0  0
   59.6290   32.1160   46.7580 C   0  0  0  0  0  0  0  0  0  0  0  0
   60.8890   32.1680   47.2450 N   0  0  0  0  0  0  0  0  0  0  0  0
   60.9730   32.9360   48.3660 C   0  0  0  0  0  0  0  0  0  0  0  0
   62.2620   33.1130   49.0750 C   0  0  0  0  0  0  0  0  0  0  0  0
   62.4070   34.0630   50.1040 C   0  0  0  0  0  0  0  0  0  0  0  0
   61.5482   34.6821   50.4027 H   0  0  0  0  0  0  0  0  0  0  0  0
   63.6380   34.2230   50.7480 C   0  0  0  0  0  0  0  0  0  0  0  0
   63.7412   34.9610   51.5572 H   0  0  0  0  0  0  0  0  0  0  0  0
   64.7360   33.4500   50.3680 C   0  0  0  0  0  0  0  0  0  0  0  0
   65.7011   33.5748   50.8808 H   0  0  0  0  0  0  0  0  0  0  0  0
   64.6080   32.5170   49.3350 C   0  0  0  0  0  0  0  0  0  0  0  0
   65.4745   31.9111   49.0316 H   0  0  0  0  0  0  0  0  0  0  0  0
   63.3800   32.3530   48.6870 C   0  0  0  0  0  0  0  0  0  0  0  0
   63.2876   31.6245   47.8680 H   0  0  0  0  0  0  0  0  0  0  0  0
   59.7530   33.4920   48.7690 C   0  0  0  0  0  0  0  0  0  0  0  0
   59.5400   34.1830   50.0070 N   0  0  0  0  0  0  0  0  0  0  0  0
   59.0730   33.6270   51.2440 C   0  0  0  0  0  0  0  0  0  0  0  0
   58.8860   34.3980   52.2220 O   0  0  0  0  0  0  0  0  0  0  0  0
   58.7790   32.1680   51.4050 C   0  0  0  0  0  0  0  0  0  0  0  0
   58.7290   31.9200   52.4755 H   0  0  0  0  0  0  0  0  0  0  0  0
   57.8155   31.9334   50.9289 H   0  0  0  0  0  0  0  0  0  0  0  0
   59.5764   31.5786   50.9289 H   0  0  0  0  0  0  0  0  0  0  0  0
   58.5480   32.9800   47.7050 S   0  0  0  0  0  0  0  0  0  0  0  0
   59.0630   29.1550   46.6040 C   0  0  0  0  0  0  0  0  0  0  0  0
   59.9332   29.3542   47.2467 H   0  0  0  0  0  0  0  0  0  0  0  0
   58.4250   27.9130   46.6650 C   0  0  0  0  0  0  0  0  0  0  0  0
   58.8023   27.1360   47.3462 H   0  0  0  0  0  0  0  0  0  0  0  0
  1  2  1  0
  2  3  1  0
  3  4  2  0
  3  5  2  0
  3  6  1  0
  6  7  2  0
  7  8  1  0
  7  9  1  0
  9 10  1  0
  9 11  2  0
 11 12  1  0
 12 13  2  0
 13 14  1  0
 14 15  1  0
 15 16  1  0
 16 17  2  0
 17 18  1  0
 17 19  1  0
 19 20  1  0
 19 21  2  0
 21 22  1  0
 21 23  1  0
 23 24  1  0
 23 25  2  0
 25 26  1  0
 15 27  2  0
 27 28  1  0
 28 29  1  0
 29 30  2  0
 29 31  1  0
 31 32  1  0
 31 33  1  0
 31 34  1  0
 27 35  1  0
 11 36  1  0
 36 37  1  0
 36 38  2  0
 38 39  1  0
 38  6  1  0
 35 13  1  0
 25 16  1  0
M  CHG  3   2  -1  14  -1  28  -1
M  END
>  <UniqueID>  (67) 
54

>  <SMILES>  (67) 
CC(=O)[N-]c1s/c(=N/c2ccc(S([NH-])(=O)=O)cc2)[n-]c1-c1ccccc1

>  <Energy>  (67) 
83.10637590470091

>  <Genealogy>  (67) 
CC(=O)[N-]c1sc(=Nc2ccc(S([NH-])(=O)=O)cc2)[n-]c1-c1ccccc1 (protonated)
CC(=O)[N-]c1s/c(=N/c2ccc(S([NH-])(=O)=O)cc2)[n-]c1-c1ccccc1 (cis-trans isomerization)
CC(=O)[N-]c1s/c(=N/c2ccc(S([NH-])(=O)=O)cc2)[n-]c1-c1ccccc1 (3D coordinates assigned)
CC(=O)[N-]c1s/c(=N/c2ccc(S([NH-])(=O)=O)cc2)[n-]c1-c1ccccc1 (optimized conformer: 83.10637590470091 kcal/mol)

>  <smiles>  (67) 
CC(=O)Nc1sc(=Nc2ccc(S(N)(=O)=O)cc2)[nH]c1-c1ccccc1

>  <score_type>  (67) 
oracle

>  <origin>  (67) 
adg

>  <m_score__min__energy>  (67) 
-12.27

>  <m_primary>  (67) 
energy

$$$$
67:0
     RDKit          3D

 39 41  0  0  0  0  0  0  0  0999 V2000
   64.0430   33.1080   47.4070 C   0  0  0  0  0  0  0  0  0  0  0  0
   62.5610   32.9630   47.2800 C   0  0  0  0  0  0  0  0  0  0  0  0
   61.8200   33.8760   46.5260 C   0  0  0  0  0  0  0  0  0  0  0  0
   60.4380   33.7160   46.4200 C   0  0  0  0  0  0  0  0  0  0  0  0
   59.7900   32.6470   47.0640 C   0  0  0  0  0  0  0  0  0  0  0  0
   58.3140   32.4960   46.9460 C   0  0  0  0  0  0  0  0  0  0  0  0
   57.5490   33.4100   47.3580 O   0  0  0  0  0  0  0  0  0  0  0  0
   57.7670   31.3020   46.3580 N   0  0  0  0  0  0  0  0  0  0  0  0
   57.4320   31.1210   45.1120 C   0  0  0  0  0  0  0  0  0  0  0  0
   56.4330   30.2470   44.8180 N   0  0  0  0  0  0  0  0  0  0  0  0
   56.0470   30.0260   43.5340 C   0  0  0  0  0  0  0  0  0  0  0  0
   56.6810   30.7010   42.4920 C   0  0  0  0  0  0  0  0  0  0  0  0
   57.7030   31.5930   42.8060 C   0  0  0  0  0  0  0  0  0  0  0  0
   58.0590   31.7870   44.1020 N   0  0  0  0  0  0  0  0  0  0  0  0
   60.5800   31.7440   47.8140 C   0  0  0  0  0  0  0  0  0  0  0  0
   59.9870   30.6620   48.4790 O   0  0  0  0  0  0  0  0  0  0  0  0
   60.3610   29.3020   48.2640 C   0  0  0  0  0  0  0  0  0  0  0  0
   59.7950   28.8010   46.9630 C   0  0  0  0  0  0  0  0  0  0  0  0
   58.5950   28.0710   46.9360 C   0  0  0  0  0  0  0  0  0  0  0  0
   58.0650   27.6330   45.7190 C   0  0  0  0  0  0  0  0  0  0  0  0
   58.7280   27.9190   44.5230 C   0  0  0  0  0  0  0  0  0  0  0  0
   59.9210   28.6470   44.5400 C   0  0  0  0  0  0  0  0  0  0  0  0
   60.4530   29.0880   45.7560 C   0  0  0  0  0  0  0  0  0  0  0  0
   61.9270   31.9300   47.8930 N   0  0  0  0  0  0  0  0  0  0  0  0
   64.3189   33.1350   48.4715 H   0  0  0  0  0  0  0  0  0  0  0  0
   64.5379   32.2540   46.9215 H   0  0  0  0  0  0  0  0  0  0  0  0
   64.3630   34.0417   46.9215 H   0  0  0  0  0  0  0  0  0  0  0  0
   62.3218   34.7140   46.0201 H   0  0  0  0  0  0  0  0  0  0  0  0
   59.8501   34.4324   45.8274 H   0  0  0  0  0  0  0  0  0  0  0  0
   55.2356   29.3156   43.3172 H   0  0  0  0  0  0  0  0  0  0  0  0
   56.3812   30.5330   41.4471 H   0  0  0  0  0  0  0  0  0  0  0  0
   58.2216   32.1401   42.0049 H   0  0  0  0  0  0  0  0  0  0  0  0
   61.4581   29.2283   48.2341 H   0  0  0  0  0  0  0  0  0  0  0  0
   59.9629   28.6886   49.0857 H   0  0  0  0  0  0  0  0  0  0  0  0
   58.0707   27.8433   47.8758 H   0  0  0  0  0  0  0  0  0  0  0  0
   57.1247   27.0624   45.7030 H   0  0  0  0  0  0  0  0  0  0  0  0
   58.3106   27.5708   43.5667 H   0  0  0  0  0  0  0  0  0  0  0  0
   60.4412   28.8730   43.5975 H   0  0  0  0  0  0  0  0  0  0  0  0
   61.3911   29.6623   45.7670 H   0  0  0  0  0  0  0  0  0  0  0  0
  1  2  1  0
  2  3  2  0
  3  4  1  0
  4  5  2  0
  5  6  1  0
  6  7  2  0
  6  8  1  0
  8  9  2  3
  9 10  1  0
 10 11  2  0
 11 12  1  0
 12 13  2  0
 13 14  1  0
  5 15  1  0
 15 16  1  0
 16 17  1  0
 17 18  1  0
 18 19  2  0
 19 20  1  0
 20 21  2  0
 21 22  1  0
 22 23  2  0
 15 24  2  0
 24  2  1  0
 14  9  1  0
 23 18  1  0
  1 25  1  0
  1 26  1  0
  1 27  1  0
  3 28  1  0
  4 29  1  0
 11 30  1  0
 12 31  1  0
 13 32  1  0
 17 33  1  0
 17 34  1  0
 19 35  1  0
 20 36  1  0
 21 37  1  0
 22 38  1  0
 23 39  1  0
M  CHG  1  14  -1
M  END
>  <UniqueID>  (68) 
55

>  <SMILES>  (68) 
Cc1ccc(C(=O)N=c2nccc[n-]2)c(OCc2ccccc2)n1

>  <Energy>  (68) 
44.55091530529132

>  <Genealogy>  (68) 
Cc1ccc(C(=O)N=c2nccc[n-]2)c(OCc2ccccc2)n1 (protonated)
Cc1ccc(C(=O)N=c2nccc[n-]2)c(OCc2ccccc2)n1 (3D coordinates assigned)
Cc1ccc(C(=O)N=c2nccc[n-]2)c(OCc2ccccc2)n1 (optimized conformer: 44.55091530529132 kcal/mol)

>  <smiles>  (68) 
Cc1ccc(C(=O)N=c2nccc[nH]2)c(OCc2ccccc2)n1

>  <score_type>  (68) 
oracle

>  <origin>  (68) 
adg

>  <m_score__min__energy>  (68) 
-9.3399999999999999

>  <m_primary>  (68) 
energy

$$$$
68:0
     RDKit          3D

 38 40  0  0  0  0  0  0  0  0999 V2000
   54.5050   24.8690   45.6300 C   0  0  0  0  0  0  0  0  0  0  0  0
   54.7880   26.2020   45.9960 O   0  0  0  0  0  0  0  0  0  0  0  0
   56.1560   26.3350   46.3360 C   0  0  0  0  0  0  0  0  0  0  0  0
   56.7320   27.6140   45.7860 C   0  0  0  0  0  0  0  0  0  0  0  0
   57.9760   27.8070   45.8330 O   0  0  0  0  0  0  0  0  0  0  0  0
   55.8960   28.6490   45.2510 N   0  0  0  0  0  0  0  0  0  0  0  0
   56.1200   29.3530   43.9920 C   0  0  0  0  0  0  0  0  0  0  0  0
   56.8200   30.6500   44.2380 C   0  0  0  0  0  0  0  0  0  0  0  0
   58.0880   30.9080   43.8660 N   0  0  0  0  0  0  0  0  0  0  0  0
   58.3510   32.1370   44.2780 N   0  0  0  0  0  0  0  0  0  0  0  0
   57.2330   32.5770   44.8840 C   0  0  0  0  0  0  0  0  0  0  0  0
   57.0770   34.1900   45.6490 S   0  0  0  0  0  0  0  0  0  0  0  0
   58.7860   34.7060   45.2620 C   0  0  0  0  0  0  0  0  0  0  0  0
   59.7140   34.3860   46.3910 C   0  0  0  0  0  0  0  0  0  0  0  0
   59.2840   34.4840   47.6780 N   0  0  0  0  0  0  0  0  0  0  0  0
   60.1180   34.2420   48.7230 C   0  0  0  0  0  0  0  0  0  0  0  0
   59.6770   34.3390   49.8990 O   0  0  0  0  0  0  0  0  0  0  0  0
   61.4570   33.8910   48.4780 C   0  0  0  0  0  0  0  0  0  0  0  0
   62.3740   33.6350   49.5130 C   0  0  0  0  0  0  0  0  0  0  0  0
   63.6960   33.2960   49.2090 C   0  0  0  0  0  0  0  0  0  0  0  0
   64.1120   33.2120   47.8760 C   0  0  0  0  0  0  0  0  0  0  0  0
   63.2080   33.4650   46.8400 C   0  0  0  0  0  0  0  0  0  0  0  0
   61.8820   33.8030   47.1350 C   0  0  0  0  0  0  0  0  0  0  0  0
   61.0050   34.0520   46.1310 N   0  0  0  0  0  0  0  0  0  0  0  0
   56.2850   31.6730   44.8610 O   0  0  0  0  0  0  0  0  0  0  0  0
   54.3756   24.2595   46.5365 H   0  0  0  0  0  0  0  0  0  0  0  0
   53.5808   24.8407   45.0341 H   0  0  0  0  0  0  0  0  0  0  0  0
   55.3380   24.4677   45.0341 H   0  0  0  0  0  0  0  0  0  0  0  0
   56.2547   26.3389   47.4316 H   0  0  0  0  0  0  0  0  0  0  0  0
   56.7073   25.4888   45.9000 H   0  0  0  0  0  0  0  0  0  0  0  0
   56.7382   28.7270   43.3317 H   0  0  0  0  0  0  0  0  0  0  0  0
   55.1479   29.5562   43.5189 H   0  0  0  0  0  0  0  0  0  0  0  0
   59.1246   34.1784   44.3581 H   0  0  0  0  0  0  0  0  0  0  0  0
   58.7943   35.7941   45.1006 H   0  0  0  0  0  0  0  0  0  0  0  0
   62.0510   33.7015   50.5624 H   0  0  0  0  0  0  0  0  0  0  0  0
   64.4110   33.0948   50.0203 H   0  0  0  0  0  0  0  0  0  0  0  0
   65.1535   32.9461   47.6423 H   0  0  0  0  0  0  0  0  0  0  0  0
   63.5387   33.3985   45.7930 H   0  0  0  0  0  0  0  0  0  0  0  0
  1  2  1  0
  2  3  1  0
  3  4  1  0
  4  5  2  0
  4  6  1  0
  6  7  1  0
  7  8  1  0
  8  9  2  0
  9 10  1  0
 10 11  2  0
 11 12  1  0
 12 13  1  0
 13 14  1  0
 14 15  2  0
 15 16  1  0
 16 17  2  0
 16 18  1  0
 18 19  2  0
 19 20  1  0
 20 21  2  0
 21 22  1  0
 22 23  2  0
 23 24  1  0
 11 25  1  0
 25  8  1  0
 24 14  1  0
 23 18  1  0
  1 26  1  0
  1 27  1  0
  1 28  1  0
  3 29  1  0
  3 30  1  0
  7 31  1  0
  7 32  1  0
 13 33  1  0
 13 34  1  0
 19 35  1  0
 20 36  1  0
 21 37  1  0
 22 38  1  0
M  CHG  2   6  -1  24  -1
M  END
>  <UniqueID>  (69) 
56

>  <SMILES>  (69) 
COCC(=O)[N-]Cc1nnc(SCc2nc(=O)c3ccccc3[n-]2)o1

>  <Energy>  (69) 
71.32047153551477

>  <Genealogy>  (69) 
COCC(=O)[N-]Cc1nnc(SCc2nc(=O)c3ccccc3[n-]2)o1 (protonated)
COCC(=O)[N-]Cc1nnc(SCc2nc(=O)c3ccccc3[n-]2)o1 (3D coordinates assigned)
COCC(=O)[N-]Cc1nnc(SCc2nc(=O)c3ccccc3[n-]2)o1 (optimized conformer: 71.32047153551477 kcal/mol)

>  <smiles>  (69) 
COCC(=O)NCc1nnc(SCc2nc(=O)c3ccccc3[nH]2)o1

>  <score_type>  (69) 
oracle

>  <origin>  (69) 
adg

>  <m_score__min__energy>  (69) 
-11.529999999999999

>  <m_primary>  (69) 
energy

$$$$
69:0
     RDKit          3D

 39 43  0  0  0  0  0  0  0  0999 V2000
   50.8360   22.3790   45.7290 C   0  0  0  0  0  0  0  0  0  0  0  0
   52.1300   22.9960   45.4760 N   0  0  0  0  0  0  0  0  0  0  0  0
   52.3280   24.3140   45.2120 C   0  0  0  0  0  0  0  0  0  0  0  0
   53.6870   24.4920   45.2030 C   0  0  0  0  0  0  0  0  0  0  0  0
   54.4490   25.5080   45.6220 N   0  0  0  0  0  0  0  0  0  0  0  0
   55.5280   24.8310   46.1120 C   0  0  0  0  0  0  0  0  0  0  0  0
   56.9400   25.6680   46.8230 S   0  0  0  0  0  0  0  0  0  0  0  0
   57.4890   26.3360   45.2220 C   0  0  0  0  0  0  0  0  0  0  0  0
   57.6140   27.8200   45.3210 C   0  0  0  0  0  0  0  0  0  0  0  0
   56.6190   28.6230   44.8350 N   0  0  0  0  0  0  0  0  0  0  0  0
   56.7100   29.9820   44.8810 C   0  0  0  0  0  0  0  0  0  0  0  0
   55.7640   30.6860   44.4390 O   0  0  0  0  0  0  0  0  0  0  0  0
   57.8610   30.5640   45.4290 C   0  0  0  0  0  0  0  0  0  0  0  0
   58.1890   31.9240   45.5800 C   0  0  0  0  0  0  0  0  0  0  0  0
   59.4190   32.0980   46.2250 C   0  0  0  0  0  0  0  0  0  0  0  0
   60.1300   30.5980   46.5450 S   0  0  0  0  0  0  0  0  0  0  0  0
   58.8480   29.7210   45.9090 C   0  0  0  0  0  0  0  0  0  0  0  0
   58.7400   28.3730   45.8560 N   0  0  0  0  0  0  0  0  0  0  0  0
   60.0500   33.4310   46.4830 C   0  0  0  0  0  0  0  0  0  0  0  0
   58.9930   34.5450   46.4560 C   0  0  0  0  0  0  0  0  0  0  0  0
   58.0950   34.4210   45.2150 C   0  0  0  0  0  0  0  0  0  0  0  0
   57.3130   33.0940   45.2080 C   0  0  0  0  0  0  0  0  0  0  0  0
   55.4020   23.4720   46.1280 N   0  0  0  0  0  0  0  0  0  0  0  0
   54.2300   23.3210   45.5010 C   0  0  0  0  0  0  0  0  0  0  0  0
   53.2920   22.3880   45.7280 N   0  0  0  0  0  0  0  0  0  0  0  0
   50.6728   22.3012   46.8140 H   0  0  0  0  0  0  0  0  0  0  0  0
   50.0422   22.9955   45.2821 H   0  0  0  0  0  0  0  0  0  0  0  0
   50.8153   21.3741   45.2821 H   0  0  0  0  0  0  0  0  0  0  0  0
   51.5571   25.0798   45.0409 H   0  0  0  0  0  0  0  0  0  0  0  0
   58.4649   25.9022   44.9585 H   0  0  0  0  0  0  0  0  0  0  0  0
   56.7534   26.0801   44.4452 H   0  0  0  0  0  0  0  0  0  0  0  0
   60.5344   33.4164   47.4705 H   0  0  0  0  0  0  0  0  0  0  0  0
   60.7934   33.6290   45.6968 H   0  0  0  0  0  0  0  0  0  0  0  0
   58.3701   34.4720   47.3597 H   0  0  0  0  0  0  0  0  0  0  0  0
   59.5079   35.5164   46.4208 H   0  0  0  0  0  0  0  0  0  0  0  0
   57.3795   35.2565   45.2078 H   0  0  0  0  0  0  0  0  0  0  0  0
   58.7379   34.4449   44.3227 H   0  0  0  0  0  0  0  0  0  0  0  0
   56.4869   33.1640   45.9310 H   0  0  0  0  0  0  0  0  0  0  0  0
   56.9343   32.9264   44.1889 H   0  0  0  0  0  0  0  0  0  0  0  0
  1  2  1  0
  2  3  1  0
  3  4  2  0
  4  5  1  0
  5  6  1  0
  6  7  1  0
  7  8  1  0
  8  9  1  0
  9 10  2  0
 10 11  1  0
 11 12  2  0
 11 13  1  0
 13 14  1  0
 14 15  2  0
 15 16  1  0
 16 17  1  0
 17 18  1  0
 15 19  1  0
 19 20  1  0
 20 21  1  0
 21 22  1  0
  6 23  2  0
 23 24  1  0
 24 25  2  0
 25  2  1  0
 24  4  1  0
 18  9  1  0
 17 13  2  0
 22 14  1  0
  1 26  1  0
  1 27  1  0
  1 28  1  0
  3 29  1  0
  8 30  1  0
  8 31  1  0
 19 32  1  0
 19 33  1  0
 20 34  1  0
 20 35  1  0
 21 36  1  0
 21 37  1  0
 22 38  1  0
 22 39  1  0
M  CHG  2   5  -1  18  -1
M  END
>  <UniqueID>  (70) 
57

>  <SMILES>  (70) 
Cn1cc2[n-]c(SCc3nc(=O)c4c5c(sc4[n-]3)CCCC5)nc2n1

>  <Energy>  (70) 
163.67703917242537

>  <Genealogy>  (70) 
Cn1cc2[n-]c(SCc3nc(=O)c4c5c(sc4[n-]3)CCCC5)nc2n1 (protonated)
Cn1cc2[n-]c(SCc3nc(=O)c4c5c(sc4[n-]3)CCCC5)nc2n1 (3D coordinates assigned)
Cn1cc2[n-]c(SCc3nc(=O)c4c5c(sc4[n-]3)CCCC5)nc2n1 (nonaromatic ring conformer: 163.67703917242537 kcal/mol)

>  <smiles>  (70) 
Cn1cc2[nH]c(SCc3nc(=O)c4c5c(sc4[nH]3)CCCC5)nc2n1

>  <score_type>  (70) 
oracle

>  <origin>  (70) 
adg

>  <m_score__min__energy>  (70) 
-11.81

>  <m_primary>  (70) 
energy

$$$$
70:0
     RDKit          3D

 46 49  0  0  0  0  0  0  0  0999 V2000
   55.7870   30.9660   44.4480 O   0  0  0  0  0  0  0  0  0  0  0  0
   55.5340   29.7330   44.4200 C   0  0  0  0  0  0  0  0  0  0  0  0
   54.4160   29.2880   43.7260 O   0  0  0  0  0  0  0  0  0  0  0  0
   56.3790   28.7980   45.1790 C   0  0  0  0  0  0  0  0  0  0  0  0
   55.9020   27.6070   45.6160 N   0  0  0  0  0  0  0  0  0  0  0  0
   56.9600   26.9890   46.1680 C   0  0  0  0  0  0  0  0  0  0  0  0
   56.9690   25.7160   46.7350 C   0  0  0  0  0  0  0  0  0  0  0  0
   58.1890   25.2240   47.2330 C   0  0  0  0  0  0  0  0  0  0  0  0
   59.3620   26.0030   47.1440 C   0  0  0  0  0  0  0  0  0  0  0  0
   59.3240   27.2830   46.5630 C   0  0  0  0  0  0  0  0  0  0  0  0
   58.0950   27.7540   46.0920 C   0  0  0  0  0  0  0  0  0  0  0  0
   57.7420   28.9440   45.4800 C   0  0  0  0  0  0  0  0  0  0  0  0
   58.6340   30.1340   45.2300 C   0  0  0  0  0  0  0  0  0  0  0  0
   58.3130   31.2900   46.1460 C   0  0  0  0  0  0  0  0  0  0  0  0
   57.3340   32.0330   45.8660 O   0  0  0  0  0  0  0  0  0  0  0  0
   59.1360   31.6130   47.2830 N   0  0  0  0  0  0  0  0  0  0  0  0
   59.3570   33.0290   47.6150 C   0  0  0  0  0  0  0  0  0  0  0  0
   60.2150   33.1990   48.8770 C   0  0  0  0  0  0  0  0  0  0  0  0
   61.3570   32.2710   48.8670 N   0  0  0  0  0  0  0  0  0  0  0  0
   62.6150   32.6590   49.4610 C   0  0  0  0  0  0  0  0  0  0  0  0
   63.7950   31.9500   49.1650 C   0  0  0  0  0  0  0  0  0  0  0  0
   65.0110   32.3230   49.7450 C   0  0  0  0  0  0  0  0  0  0  0  0
   65.0650   33.4050   50.6270 C   0  0  0  0  0  0  0  0  0  0  0  0
   66.2470   33.7660   51.1840 F   0  0  0  0  0  0  0  0  0  0  0  0
   63.9020   34.1150   50.9310 C   0  0  0  0  0  0  0  0  0  0  0  0
   62.6840   33.7460   50.3550 C   0  0  0  0  0  0  0  0  0  0  0  0
   61.1700   30.8790   48.4210 C   0  0  0  0  0  0  0  0  0  0  0  0
   59.6970   30.5740   48.1520 C   0  0  0  0  0  0  0  0  0  0  0  0
   56.0499   25.1142   46.7914 H   0  0  0  0  0  0  0  0  0  0  0  0
   58.2288   24.2263   47.6945 H   0  0  0  0  0  0  0  0  0  0  0  0
   60.3121   25.6066   47.5315 H   0  0  0  0  0  0  0  0  0  0  0  0
   60.2342   27.8953   46.4816 H   0  0  0  0  0  0  0  0  0  0  0  0
   59.6796   29.8332   45.3923 H   0  0  0  0  0  0  0  0  0  0  0  0
   58.4694   30.4677   44.1949 H   0  0  0  0  0  0  0  0  0  0  0  0
   59.8673   33.5158   46.7709 H   0  0  0  0  0  0  0  0  0  0  0  0
   58.3765   33.4890   47.8074 H   0  0  0  0  0  0  0  0  0  0  0  0
   60.5911   34.2318   48.9199 H   0  0  0  0  0  0  0  0  0  0  0  0
   59.5922   32.9789   49.7566 H   0  0  0  0  0  0  0  0  0  0  0  0
   63.7597   31.0963   48.4722 H   0  0  0  0  0  0  0  0  0  0  0  0
   65.9274   31.7633   49.5064 H   0  0  0  0  0  0  0  0  0  0  0  0
   63.9448   34.9669   51.6256 H   0  0  0  0  0  0  0  0  0  0  0  0
   61.7714   34.3085   50.6013 H   0  0  0  0  0  0  0  0  0  0  0  0
   61.7435   30.7192   47.4960 H   0  0  0  0  0  0  0  0  0  0  0  0
   61.5227   30.2090   49.2189 H   0  0  0  0  0  0  0  0  0  0  0  0
   59.6091   29.5952   47.6578 H   0  0  0  0  0  0  0  0  0  0  0  0
   59.1459   30.5537   49.1038 H   0  0  0  0  0  0  0  0  0  0  0  0
  1  2  2  0
  2  3  1  0
  2  4  1  0
  4  5  1  0
  5  6  1  0
  6  7  2  0
  7  8  1  0
  8  9  2  0
  9 10  1  0
 10 11  2  0
 11 12  1  0
 12 13  1  0
 13 14  1  0
 14 15  2  0
 14 16  1  0
 16 17  1  0
 17 18  1  0
 18 19  1  0
 19 20  1  0
 20 21  2  0
 21 22  1  0
 22 23  2  0
 23 24  1  0
 23 25  1  0
 25 26  2  0
 19 27  1  0
 27 28  1  0
 12  4  2  0
 28 16  1  0
 11  6  1  0
 26 20  1  0
  7 29  1  0
  8 30  1  0
  9 31  1  0
 10 32  1  0
 13 33  1  0
 13 34  1  0
 17 35  1  0
 17 36  1  0
 18 37  1  0
 18 38  1  0
 21 39  1  0
 22 40  1  0
 25 41  1  0
 26 42  1  0
 27 43  1  0
 27 44  1  0
 28 45  1  0
 28 46  1  0
M  CHG  2   3  -1   5  -1
M  END
>  <UniqueID>  (71) 
58

>  <SMILES>  (71) 
O=C([O-])c1[n-]c2ccccc2c1CC(=O)N1CCN(c2ccc(F)cc2)CC1

>  <Energy>  (71) 
88.48462886906378

>  <Genealogy>  (71) 
O=C([O-])c1[n-]c2ccccc2c1CC(=O)N1CCN(c2ccc(F)cc2)CC1 (protonated)
O=C([O-])c1[n-]c2ccccc2c1CC(=O)N1CCN(c2ccc(F)cc2)CC1 (3D coordinates assigned)
O=C([O-])c1[n-]c2ccccc2c1CC(=O)N1CCN(c2ccc(F)cc2)CC1 (nonaromatic ring conformer: 88.48462886906378 kcal/mol)

>  <smiles>  (71) 
O=C(O)c1[nH]c2ccccc2c1CC(=O)N1CCN(c2ccc(F)cc2)CC1

>  <score_type>  (71) 
oracle

>  <origin>  (71) 
adg

>  <m_score__min__energy>  (71) 
-12.09

>  <m_primary>  (71) 
energy

$$$$
71:0
     RDKit          3D

 50 52  0  0  0  0  0  0  0  0999 V2000
   60.7090   27.1290   53.1760 C   0  0  0  0  0  0  0  0  0  0  0  0
   61.2630   27.6090   51.9570 O   0  0  0  0  0  0  0  0  0  0  0  0
   60.5820   28.4890   51.1110 C   0  0  0  0  0  0  0  0  0  0  0  0
   59.3350   28.9810   51.4930 C   0  0  0  0  0  0  0  0  0  0  0  0
   58.6580   29.8540   50.6260 C   0  0  0  0  0  0  0  0  0  0  0  0
   57.3920   30.3740   50.9340 O   0  0  0  0  0  0  0  0  0  0  0  0
   57.1660   31.4940   51.7860 C   0  0  0  0  0  0  0  0  0  0  0  0
   59.2390   30.2050   49.4450 N   0  0  0  0  0  0  0  0  0  0  0  0
   60.4730   29.7310   49.0930 C   0  0  0  0  0  0  0  0  0  0  0  0
   61.0410   30.0480   47.9630 N   0  0  0  0  0  0  0  0  0  0  0  0
   61.5060   31.3460   47.5620 C   0  0  0  0  0  0  0  0  0  0  0  0
   62.8790   31.6480   47.5670 C   0  0  0  0  0  0  0  0  0  0  0  0
   63.3280   32.8930   47.1220 C   0  0  0  0  0  0  0  0  0  0  0  0
   62.4150   33.8370   46.6480 C   0  0  0  0  0  0  0  0  0  0  0  0
   61.0530   33.5340   46.6080 C   0  0  0  0  0  0  0  0  0  0  0  0
   60.5870   32.2800   47.0560 C   0  0  0  0  0  0  0  0  0  0  0  0
   59.2250   31.9310   47.0260 O   0  0  0  0  0  0  0  0  0  0  0  0
   58.1800   32.7500   46.5050 C   0  0  0  0  0  0  0  0  0  0  0  0
   57.7970   32.2960   45.1180 C   0  0  0  0  0  0  0  0  0  0  0  0
   56.7200   31.6350   44.8560 N   0  0  0  0  0  0  0  0  0  0  0  0
   56.6740   29.9800   44.3750 S   0  0  0  0  0  0  0  0  0  0  0  0
   56.6880   29.8950   42.8750 O   0  0  0  0  0  0  0  0  0  0  0  0
   55.4040   29.3590   44.8830 O   0  0  0  0  0  0  0  0  0  0  0  0
   58.0440   29.1150   45.0640 C   0  0  0  0  0  0  0  0  0  0  0  0
   57.8660   28.2540   46.1570 C   0  0  0  0  0  0  0  0  0  0  0  0
   58.9570   27.5540   46.6830 C   0  0  0  0  0  0  0  0  0  0  0  0
   60.2270   27.7120   46.1230 C   0  0  0  0  0  0  0  0  0  0  0  0
   60.4090   28.5720   45.0360 C   0  0  0  0  0  0  0  0  0  0  0  0
   59.3220   29.2750   44.5090 C   0  0  0  0  0  0  0  0  0  0  0  0
   61.1190   28.8710   49.9220 N   0  0  0  0  0  0  0  0  0  0  0  0
   61.2379   27.5873   54.0247 H   0  0  0  0  0  0  0  0  0  0  0  0
   59.6422   27.3931   53.2230 H   0  0  0  0  0  0  0  0  0  0  0  0
   60.8185   26.0355   53.2230 H   0  0  0  0  0  0  0  0  0  0  0  0
   58.8894   28.6908   52.4559 H   0  0  0  0  0  0  0  0  0  0  0  0
   57.2305   31.1744   52.8366 H   0  0  0  0  0  0  0  0  0  0  0  0
   57.9269   32.2636   51.5895 H   0  0  0  0  0  0  0  0  0  0  0  0
   56.1661   31.9083   51.5895 H   0  0  0  0  0  0  0  0  0  0  0  0
   58.6920   30.8210   48.8050 H   0  0  0  0  0  0  0  0  0  0  0  0
   63.6028   30.9002   47.9231 H   0  0  0  0  0  0  0  0  0  0  0  0
   64.4019   33.1303   47.1449 H   0  0  0  0  0  0  0  0  0  0  0  0
   62.7694   34.8205   46.3057 H   0  0  0  0  0  0  0  0  0  0  0  0
   60.3386   34.2775   46.2248 H   0  0  0  0  0  0  0  0  0  0  0  0
   57.3022   32.6804   47.1643 H   0  0  0  0  0  0  0  0  0  0  0  0
   58.5338   33.7903   46.4547 H   0  0  0  0  0  0  0  0  0  0  0  0
   58.4723   32.5417   44.2851 H   0  0  0  0  0  0  0  0  0  0  0  0
   56.8674   28.1291   46.6010 H   0  0  0  0  0  0  0  0  0  0  0  0
   58.8146   26.8780   47.5390 H   0  0  0  0  0  0  0  0  0  0  0  0
   61.0835   27.1599   46.5372 H   0  0  0  0  0  0  0  0  0  0  0  0
   61.4091   28.6956   44.5948 H   0  0  0  0  0  0  0  0  0  0  0  0
   59.4692   29.9552   43.6571 H   0  0  0  0  0  0  0  0  0  0  0  0
  1  2  1  0
  2  3  1  0
  3  4  1  0
  4  5  2  0
  5  6  1  0
  6  7  1  0
  5  8  1  0
  8  9  1  0
  9 10  2  3
 10 11  1  0
 11 12  2  0
 12 13  1  0
 13 14  2  0
 14 15  1  0
 15 16  2  0
 16 17  1  0
 17 18  1  0
 18 19  1  0
 19 20  2  3
 20 21  1  0
 21 22  2  0
 21 23  2  0
 21 24  1  0
 24 25  2  0
 25 26  1  0
 26 27  2  0
 27 28  1  0
 28 29  2  0
  9 30  1  0
 30  3  2  0
 16 11  1  0
 29 24  1  0
  1 31  1  0
  1 32  1  0
  1 33  1  0
  4 34  1  0
  7 35  1  0
  7 36  1  0
  7 37  1  0
  8 38  1  0
 12 39  1  0
 13 40  1  0
 14 41  1  0
 15 42  1  0
 18 43  1  0
 18 44  1  0
 19 45  1  0
 25 46  1  0
 26 47  1  0
 27 48  1  0
 28 49  1  0
 29 50  1  0
M  END
>  <UniqueID>  (72) 
59

>  <SMILES>  (72) 
COc1cc(OC)[nH]c(=Nc2ccccc2OCC=NS(=O)(=O)c2ccccc2)n1

>  <Energy>  (72) 
61.21454943836449

>  <Genealogy>  (72) 
COc1cc(OC)[nH]c(=Nc2ccccc2OCC=NS(=O)(=O)c2ccccc2)n1 (3D coordinates assigned)
COc1cc(OC)[nH]c(=Nc2ccccc2OCC=NS(=O)(=O)c2ccccc2)n1 (optimized conformer: 61.21454943836449 kcal/mol)

>  <smiles>  (72) 
COc1cc(OC)[nH]c(=Nc2ccccc2OCC=NS(=O)(=O)c2ccccc2)n1

>  <score_type>  (72) 
oracle

>  <origin>  (72) 
adg

>  <m_score__min__energy>  (72) 
-9.3300000000000001

>  <m_primary>  (72) 
energy

$$$$
72:0
     RDKit          3D

 41 44  0  0  1  0  0  0  0  0999 V2000
   56.6530   27.5070   45.6400 C   0  0  0  0  0  0  0  0  0  0  0  0
   55.8510   28.5970   45.2470 O   0  0  0  0  0  0  0  0  0  0  0  0
   56.3890   29.6660   44.5380 C   0  0  0  0  0  0  0  0  0  0  0  0
   56.1390   29.6870   43.1970 N   0  0  0  0  0  0  0  0  0  0  0  0
   56.6460   30.7070   42.4860 C   0  0  0  0  0  0  0  0  0  0  0  0
   57.3900   31.6990   43.0820 C   0  0  0  0  0  0  0  0  0  0  0  0
   57.6290   31.6580   44.4320 C   0  0  0  0  0  0  0  0  0  0  0  0
   58.4050   32.6590   45.1530 C   0  0  0  0  0  0  0  0  0  0  0  0
   58.4500   33.9380   44.6400 C   0  0  0  0  0  0  0  0  0  0  0  0
   59.1590   34.9650   45.2470 C   0  0  0  0  0  0  0  0  0  0  0  0
   59.8490   34.7010   46.4120 C   0  0  0  0  0  0  0  0  0  0  0  0
   59.8160   33.4180   46.9460 C   0  0  0  0  0  0  0  0  0  0  0  0
   60.4800   33.0590   48.1420 N   0  0  0  0  0  0  0  0  0  0  0  0
   61.7620   32.9730   48.1370 C   0  0  0  0  0  0  0  0  0  0  0  0
   62.4420   32.6360   47.0160 N   0  0  0  0  0  0  0  0  0  0  0  0
   63.7400   32.6070   47.2470 N   0  0  0  0  0  0  0  0  0  0  0  0
   63.9170   32.9280   48.5360 C   0  0  0  0  0  0  0  0  0  0  0  0
   62.6800   33.1710   49.1460 C   0  0  0  0  0  0  0  0  0  0  0  0
   62.5400   33.5480   50.5520 C   0  0  0  0  0  0  0  0  0  0  0  0
   63.8290   34.1370   50.9700 N   0  0  0  0  0  0  0  0  0  0  0  0
   64.8830   33.1710   50.7660 C   0  0  0  0  0  0  0  0  0  0  0  0
   65.1160   33.0440   49.3260 N   0  0  0  0  0  0  0  0  0  0  0  0
   59.0940   32.3930   46.3180 C   0  0  0  0  0  0  0  0  0  0  0  0
   57.1180   30.6320   45.1370 N   0  0  0  0  0  0  0  0  0  0  0  0
   56.6903   27.4563   46.7382 H   0  0  0  0  0  0  0  0  0  0  0  0
   56.2240   26.5746   45.2443 H   0  0  0  0  0  0  0  0  0  0  0  0
   57.6708   27.6392   45.2443 H   0  0  0  0  0  0  0  0  0  0  0  0
   56.4623   30.7505   41.4023 H   0  0  0  0  0  0  0  0  0  0  0  0
   57.7928   32.5242   42.4764 H   0  0  0  0  0  0  0  0  0  0  0  0
   57.9013   34.1532   43.7113 H   0  0  0  0  0  0  0  0  0  0  0  0
   59.1706   35.9729   44.8065 H   0  0  0  0  0  0  0  0  0  0  0  0
   60.4192   35.4972   46.9130 H   0  0  0  0  0  0  0  0  0  0  0  0
   62.0390   32.4210   46.0760 H   0  0  0  0  0  0  0  0  0  0  0  0
   64.5030   32.3740   46.5460 H   0  0  0  0  0  0  0  0  0  0  0  0
   61.7322   34.2858   50.6670 H   0  0  0  0  0  0  0  0  0  0  0  0
   62.2882   32.6738   51.1703 H   0  0  0  0  0  0  0  0  0  0  0  0
   64.0050   34.9030   50.2560 H   0  0  0  0  0  0  0  0  0  0  0  0
   65.8027   33.5131   51.2631 H   0  0  0  0  0  0  0  0  0  0  0  0
   64.5940   32.1984   51.1910 H   0  0  0  0  0  0  0  0  0  0  0  0
   66.0670   33.0370   48.9040 H   0  0  0  0  0  0  0  0  0  0  0  0
   59.0772   31.3824   46.7520 H   0  0  0  0  0  0  0  0  0  0  0  0
  1  2  1  0
  2  3  1  0
  3  4  2  0
  4  5  1  0
  5  6  2  0
  6  7  1  0
  7  8  1  0
  8  9  2  0
  9 10  1  0
 10 11  2  0
 11 12  1  0
 12 13  1  0
 13 14  2  0
 14 15  1  0
 15 16  1  0
 16 17  1  0
 17 18  2  0
 18 19  1  0
 19 20  1  0
 20 21  1  0
 21 22  1  0
 12 23  2  0
  7 24  2  0
 24  3  1  0
 23  8  1  0
 18 14  1  0
 22 17  1  0
  1 25  1  0
  1 26  1  0
  1 27  1  0
  5 28  1  0
  6 29  1  0
  9 30  1  0
 10 31  1  0
 11 32  1  0
 15 33  1  0
 16 34  1  0
 19 35  1  0
 19 36  1  0
 20 37  1  0
 21 38  1  0
 21 39  1  0
 22 40  1  0
 23 41  1  0
M  END
>  <smiles>  (73) 
COc1nccc(-c2cccc(N=c3[nH][nH]c4c3CNCN4)c2)n1

>  <score_type>  (73) 
oracle

>  <origin>  (73) 
adg

>  <m_score__min__energy>  (73) 
-8.6999999999999993

>  <m_primary>  (73) 
energy

$$$$
73:0
     RDKit          3D

 62 66  0  0  0  0  0  0  0  0999 V2000
   55.2200   29.8920   54.2160 O   0  0  0  0  0  0  0  0  0  0  0  0
   55.0750   30.2260   53.0090 C   0  0  0  0  0  0  0  0  0  0  0  0
   56.1300   31.0450   52.3430 C   0  0  0  0  0  0  0  0  0  0  0  0
   57.4440   29.9510   51.7170 S   0  0  0  0  0  0  0  0  0  0  0  0
   58.7780   31.0260   52.2700 C   0  0  0  0  0  0  0  0  0  0  0  0
   59.3260   30.7870   53.4910 N   0  0  0  0  0  0  0  0  0  0  0  0
   60.2920   31.5820   54.0210 C   0  0  0  0  0  0  0  0  0  0  0  0
   60.7410   32.6980   53.3170 C   0  0  0  0  0  0  0  0  0  0  0  0
   60.2020   32.9760   52.0610 C   0  0  0  0  0  0  0  0  0  0  0  0
   59.2240   32.1330   51.5070 C   0  0  0  0  0  0  0  0  0  0  0  0
   58.6640   32.4590   50.1780 C   0  0  0  0  0  0  0  0  0  0  0  0
   57.4270   32.3300   49.9860 O   0  0  0  0  0  0  0  0  0  0  0  0
   59.5140   32.9260   49.1200 N   0  0  0  0  0  0  0  0  0  0  0  0
   59.1090   32.9530   47.7450 C   0  0  0  0  0  0  0  0  0  0  0  0
   59.2830   34.1280   47.0000 C   0  0  0  0  0  0  0  0  0  0  0  0
   58.8990   34.1770   45.6540 C   0  0  0  0  0  0  0  0  0  0  0  0
   58.3090   33.0630   45.0530 C   0  0  0  0  0  0  0  0  0  0  0  0
   58.0820   31.8940   45.8000 C   0  0  0  0  0  0  0  0  0  0  0  0
   57.4160   30.7370   45.1630 C   0  0  0  0  0  0  0  0  0  0  0  0
   56.5500   30.9580   44.2660 O   0  0  0  0  0  0  0  0  0  0  0  0
   57.7200   29.3760   45.5440 N   0  0  0  0  0  0  0  0  0  0  0  0
   59.0310   29.0170   46.1080 C   0  0  0  0  0  0  0  0  0  0  0  0
   58.8540   28.0820   47.2990 C   0  0  0  0  0  0  0  0  0  0  0  0
   58.0510   26.8800   46.8970 C   0  0  0  0  0  0  0  0  0  0  0  0
   58.2640   25.6430   47.5310 C   0  0  0  0  0  0  0  0  0  0  0  0
   57.4900   24.5300   47.1870 C   0  0  0  0  0  0  0  0  0  0  0  0
   57.7100   23.3070   47.8130 O   0  0  0  0  0  0  0  0  0  0  0  0
   56.4950   24.6470   46.2170 C   0  0  0  0  0  0  0  0  0  0  0  0
   56.2620   25.8780   45.5930 C   0  0  0  0  0  0  0  0  0  0  0  0
   57.0340   27.0010   45.9270 C   0  0  0  0  0  0  0  0  0  0  0  0
   56.7150   28.3300   45.2770 C   0  0  0  0  0  0  0  0  0  0  0  0
   58.4990   31.8370   47.1440 C   0  0  0  0  0  0  0  0  0  0  0  0
   53.8520   29.9480   52.3090 N   0  0  0  0  0  0  0  0  0  0  0  0
   52.8280   30.7350   52.1270 C   0  0  0  0  0  0  0  0  0  0  0  0
   52.0080   31.1860   53.1810 C   0  0  0  0  0  0  0  0  0  0  0  0
   50.9120   32.0050   52.8980 C   0  0  0  0  0  0  0  0  0  0  0  0
   50.6370   32.3630   51.6170 N   0  0  0  0  0  0  0  0  0  0  0  0
   51.4060   31.9410   50.5810 C   0  0  0  0  0  0  0  0  0  0  0  0
   52.5060   31.1150   50.8170 C   0  0  0  0  0  0  0  0  0  0  0  0
   55.6866   31.6022   51.5046 H   0  0  0  0  0  0  0  0  0  0  0  0
   56.5572   31.7525   53.0689 H   0  0  0  0  0  0  0  0  0  0  0  0
   60.7199   31.3447   55.0062 H   0  0  0  0  0  0  0  0  0  0  0  0
   61.5127   33.3530   53.7477 H   0  0  0  0  0  0  0  0  0  0  0  0
   60.5441   33.8592   51.5017 H   0  0  0  0  0  0  0  0  0  0  0  0
   60.5190   33.1170   49.3350 H   0  0  0  0  0  0  0  0  0  0  0  0
   59.7237   35.0166   47.4755 H   0  0  0  0  0  0  0  0  0  0  0  0
   59.0624   35.0943   45.0694 H   0  0  0  0  0  0  0  0  0  0  0  0
   58.0211   33.1004   43.9920 H   0  0  0  0  0  0  0  0  0  0  0  0
   59.6326   28.5133   45.3370 H   0  0  0  0  0  0  0  0  0  0  0  0
   59.5402   29.9326   46.4433 H   0  0  0  0  0  0  0  0  0  0  0  0
   59.8423   27.7564   47.6558 H   0  0  0  0  0  0  0  0  0  0  0  0
   58.3238   28.6171   48.1007 H   0  0  0  0  0  0  0  0  0  0  0  0
   59.0435   25.5502   48.3016 H   0  0  0  0  0  0  0  0  0  0  0  0
   55.8916   23.7695   45.9415 H   0  0  0  0  0  0  0  0  0  0  0  0
   55.4687   25.9656   44.8360 H   0  0  0  0  0  0  0  0  0  0  0  0
   56.6517   28.1785   44.1893 H   0  0  0  0  0  0  0  0  0  0  0  0
   55.7649   28.6791   45.7076 H   0  0  0  0  0  0  0  0  0  0  0  0
   58.3471   30.9161   47.7261 H   0  0  0  0  0  0  0  0  0  0  0  0
   52.2293   30.8953   54.2186 H   0  0  0  0  0  0  0  0  0  0  0  0
   50.2690   32.3614   53.7162 H   0  0  0  0  0  0  0  0  0  0  0  0
   51.1618   32.2505   49.5541 H   0  0  0  0  0  0  0  0  0  0  0  0
   53.1200   30.7624   49.9752 H   0  0  0  0  0  0  0  0  0  0  0  0
  1  2  2  0
  2  3  1  0
  3  4  1  0
  4  5  1  0
  5  6  2  0
  6  7  1  0
  7  8  2  0
  8  9  1  0
  9 10  2  0
 10 11  1  0
 11 12  2  0
 11 13  1  0
 13 14  1  0
 14 15  2  0
 15 16  1  0
 16 17  2  0
 17 18  1  0
 18 19  1  0
 19 20  2  0
 19 21  1  0
 21 22  1  0
 22 23  1  0
 23 24  1  0
 24 25  2  0
 25 26  1  0
 26 27  1  0
 26 28  2  0
 28 29  1  0
 29 30  2  0
 30 31  1  0
 18 32  2  0
  2 33  1  0
 33 34  2  3
 34 35  1  0
 35 36  2  0
 36 37  1  0
 37 38  1  0
 38 39  2  0
 10  5  1  0
 32 14  1  0
 39 34  1  0
 31 21  1  0
 30 24  1  0
  3 40  1  0
  3 41  1  0
  7 42  1  0
  8 43  1  0
  9 44  1  0
 13 45  1  0
 15 46  1  0
 16 47  1  0
 17 48  1  0
 22 49  1  0
 22 50  1  0
 23 51  1  0
 23 52  1  0
 25 53  1  0
 28 54  1  0
 29 55  1  0
 31 56  1  0
 31 57  1  0
 32 58  1  0
 35 59  1  0
 36 60  1  0
 38 61  1  0
 39 62  1  0
M  CHG  2  27  -1  37  -1
M  END
>  <UniqueID>  (74) 
60

>  <SMILES>  (74) 
O=C(CSc1ncccc1C(=O)Nc1cccc(C(=O)N2CCc3cc([O-])ccc3C2)c1)N=c1cc[n-]cc1

>  <Energy>  (74) 
89.16935392110992

>  <Genealogy>  (74) 
O=C(CSc1ncccc1C(=O)Nc1cccc(C(=O)N2CCc3cc([O-])ccc3C2)c1)N=c1cc[n-]cc1 (protonated)
O=C(CSc1ncccc1C(=O)Nc1cccc(C(=O)N2CCc3cc([O-])ccc3C2)c1)N=c1cc[n-]cc1 (3D coordinates assigned)
O=C(CSc1ncccc1C(=O)Nc1cccc(C(=O)N2CCc3cc([O-])ccc3C2)c1)N=c1cc[n-]cc1 (nonaromatic ring conformer: 89.16935392110992 kcal/mol)

>  <smiles>  (74) 
O=C(CSc1ncccc1C(=O)Nc1cccc(C(=O)N2CCc3cc(O)ccc3C2)c1)N=c1cc[nH]cc1

>  <score_type>  (74) 
oracle

>  <origin>  (74) 
adg

>  <m_score__min__energy>  (74) 
-15.18

>  <m_primary>  (74) 
energy

$$$$
74:0
     RDKit          3D

 38 40  0  0  0  0  0  0  0  0999 V2000
   55.1780   30.0940   45.6010 H   0  0  0  0  0  0  0  0  0  0  0  0
   55.5370   29.2250   45.2240 O   0  0  0  0  0  0  0  0  0  0  0  0
   56.8980   28.9240   45.2420 C   0  0  0  0  0  0  0  0  0  0  0  0
   57.3110   27.5830   45.2690 C   0  0  0  0  0  0  0  0  0  0  0  0
   56.5610   26.7789   45.2380 H   0  0  0  0  0  0  0  0  0  0  0  0
   58.6690   27.2640   45.3350 C   0  0  0  0  0  0  0  0  0  0  0  0
   58.9859   26.2108   45.3523 H   0  0  0  0  0  0  0  0  0  0  0  0
   59.6240   28.2800   45.3790 C   0  0  0  0  0  0  0  0  0  0  0  0
   60.6927   28.0264   45.4390 H   0  0  0  0  0  0  0  0  0  0  0  0
   59.2260   29.6190   45.3470 C   0  0  0  0  0  0  0  0  0  0  0  0
   59.9841   30.4149   45.3894 H   0  0  0  0  0  0  0  0  0  0  0  0
   57.8630   29.9570   45.2610 C   0  0  0  0  0  0  0  0  0  0  0  0
   57.4720   31.3850   45.2180 C   0  0  0  0  0  0  0  0  0  0  0  0
   56.3800   31.7080   44.6770 O   0  0  0  0  0  0  0  0  0  0  0  0
   58.2990   32.3910   45.8290 N   0  0  0  0  0  0  0  0  0  0  0  0
   59.0340   32.0770   46.5010 H   0  0  0  0  0  0  0  0  0  0  0  0
   58.1360   33.8020   45.5970 C   0  0  0  0  0  0  0  0  0  0  0  0
   57.2940   34.2190   44.7570 O   0  0  0  0  0  0  0  0  0  0  0  0
   58.9570   34.7870   46.3190 C   0  0  0  0  0  0  0  0  0  0  0  0
   59.1776   35.7595   45.8547 H   0  0  0  0  0  0  0  0  0  0  0  0
   59.4230   34.5160   47.5010 N   0  0  0  0  0  0  0  0  0  0  0  0
   60.7810   34.1740   47.8330 C   0  0  0  0  0  0  0  0  0  0  0  0
   61.6400   33.8020   46.7880 C   0  0  0  0  0  0  0  0  0  0  0  0
   61.2653   33.7916   45.7538 H   0  0  0  0  0  0  0  0  0  0  0  0
   62.9680   33.4440   47.0460 C   0  0  0  0  0  0  0  0  0  0  0  0
   63.6345   33.1620   46.2176 H   0  0  0  0  0  0  0  0  0  0  0  0
   63.4440   33.4460   48.3580 C   0  0  0  0  0  0  0  0  0  0  0  0
   62.6030   33.8320   49.4100 C   0  0  0  0  0  0  0  0  0  0  0  0
   61.2720   34.1760   49.1570 C   0  0  0  0  0  0  0  0  0  0  0  0
   60.6068   34.4484   49.9896 H   0  0  0  0  0  0  0  0  0  0  0  0
   63.1150   33.8620   50.7110 O   0  0  0  0  0  0  0  0  0  0  0  0
   64.5220   33.7850   50.9530 C   0  0  0  0  0  0  0  0  0  0  0  0
   64.9701   34.7793   50.8092 H   0  0  0  0  0  0  0  0  0  0  0  0
   64.6899   33.4422   51.9847 H   0  0  0  0  0  0  0  0  0  0  0  0
   65.1740   32.7910   49.9840 C   0  0  0  0  0  0  0  0  0  0  0  0
   66.2681   32.8831   50.0511 H   0  0  0  0  0  0  0  0  0  0  0  0
   64.8649   31.7708   50.2555 H   0  0  0  0  0  0  0  0  0  0  0  0
   64.7590   33.0620   48.6430 O   0  0  0  0  0  0  0  0  0  0  0  0
  1  2  1  0
  2  3  1  0
  3  4  2  0
  4  5  1  0
  4  6  1  0
  6  7  1  0
  6  8  2  0
  8  9  1  0
  8 10  1  0
 10 11  1  0
 10 12  2  0
 12 13  1  0
 13 14  2  0
 13 15  1  0
 15 16  1  0
 15 17  1  0
 17 18  2  0
 17 19  1  0
 19 20  1  0
 19 21  2  0
 21 22  1  0
 22 23  2  0
 23 24  1  0
 23 25  1  0
 25 26  1  0
 25 27  2  0
 27 28  1  0
 28 29  2  0
 29 30  1  0
 28 31  1  0
 31 32  1  0
 32 33  1  0
 32 34  1  0
 32 35  1  0
 35 36  1  0
 35 37  1  0
 35 38  1  0
 12  3  1  0
 29 22  1  0
 38 27  1  0
M  END
>  <UniqueID>  (75) 
61

>  <SMILES>  (75) 
O=C(/C=N/c1ccc2c(c1)OCCO2)NC(=O)c1ccccc1O

>  <Energy>  (75) 
46.78536402836472

>  <Genealogy>  (75) 
O=C(/C=N/c1ccc2c(c1)OCCO2)NC(=O)c1ccccc1O (cis-trans isomerization)
O=C(/C=N/c1ccc2c(c1)OCCO2)NC(=O)c1ccccc1O (3D coordinates assigned)
O=C(/C=N/c1ccc2c(c1)OCCO2)NC(=O)c1ccccc1O (nonaromatic ring conformer: 46.78536402836472 kcal/mol)

>  <smiles>  (75) 
O=C(C=Nc1ccc2c(c1)OCCO2)NC(=O)c1ccccc1O

>  <score_type>  (75) 
oracle

>  <origin>  (75) 
adg

>  <m_score__min__energy>  (75) 
-8.6699999999999999

>  <m_primary>  (75) 
energy

$$$$
75:0
     RDKit          3D

 49 52  0  0  0  0  0  0  0  0999 V2000
   62.5360   32.5260   50.4710 N   0  0  0  0  0  0  0  0  0  0  0  0
   62.7550   33.2550   48.9200 S   0  0  0  0  0  0  0  0  0  0  0  0
   63.6660   32.4020   48.0840 O   0  0  0  0  0  0  0  0  0  0  0  0
   63.3810   34.6110   49.0890 O   0  0  0  0  0  0  0  0  0  0  0  0
   61.1930   33.4080   48.1230 C   0  0  0  0  0  0  0  0  0  0  0  0
   60.0260   33.6060   48.8740 C   0  0  0  0  0  0  0  0  0  0  0  0
   58.7880   33.7200   48.2340 C   0  0  0  0  0  0  0  0  0  0  0  0
   58.7000   33.6200   46.8360 C   0  0  0  0  0  0  0  0  0  0  0  0
   57.3740   33.7770   46.1440 C   0  0  0  0  0  0  0  0  0  0  0  0
   57.3830   33.0450   44.8790 N   0  0  0  0  0  0  0  0  0  0  0  0
   57.3280   31.7510   44.7600 C   0  0  0  0  0  0  0  0  0  0  0  0
   56.6300   31.2070   43.7090 N   0  0  0  0  0  0  0  0  0  0  0  0
   56.5460   29.8570   43.5310 C   0  0  0  0  0  0  0  0  0  0  0  0
   55.9080   29.3740   42.5590 O   0  0  0  0  0  0  0  0  0  0  0  0
   57.1860   29.0420   44.4550 C   0  0  0  0  0  0  0  0  0  0  0  0
   57.2640   27.7030   44.5200 N   0  0  0  0  0  0  0  0  0  0  0  0
   58.0040   27.4710   45.6340 C   0  0  0  0  0  0  0  0  0  0  0  0
   58.3760   28.6170   46.2630 N   0  0  0  0  0  0  0  0  0  0  0  0
   59.1800   28.7210   47.4850 C   0  0  2  0  0  0  0  0  0  0  0  0
   58.4510   29.3440   48.5170 O   0  0  0  0  0  0  0  0  0  0  0  0
   59.4160   29.8750   49.3930 C   0  0  2  0  0  0  0  0  0  0  0  0
   58.7920   30.9880   50.2440 C   0  0  0  0  0  0  0  0  0  0  0  0
   59.7760   31.6390   51.0040 O   0  0  0  0  0  0  0  0  0  0  0  0
   60.5920   30.3590   48.5350 C   0  0  1  0  0  0  0  0  0  0  0  0
   61.8270   30.1940   49.1890 O   0  0  0  0  0  0  0  0  0  0  0  0
   60.4850   29.5060   47.2750 C   0  0  2  0  0  0  0  0  0  0  0  0
   60.4780   30.2950   46.1070 O   0  0  0  0  0  0  0  0  0  0  0  0
   57.8570   29.5910   45.4930 C   0  0  0  0  0  0  0  0  0  0  0  0
   57.9500   30.9320   45.6680 N   0  0  0  0  0  0  0  0  0  0  0  0
   59.8730   33.4300   46.0890 C   0  0  0  0  0  0  0  0  0  0  0  0
   61.1100   33.3170   46.7280 C   0  0  0  0  0  0  0  0  0  0  0  0
   61.8370   31.7600   50.3520 H   0  0  0  0  0  0  0  0  0  0  0  0
   60.0844   33.6719   49.9705 H   0  0  0  0  0  0  0  0  0  0  0  0
   57.8782   33.8889   48.8287 H   0  0  0  0  0  0  0  0  0  0  0  0
   56.5766   33.3800   46.7894 H   0  0  0  0  0  0  0  0  0  0  0  0
   57.1941   34.8436   45.9438 H   0  0  0  0  0  0  0  0  0  0  0  0
   56.8540   26.9990   43.8660 H   0  0  0  0  0  0  0  0  0  0  0  0
   58.2732   26.4653   45.9890 H   0  0  0  0  0  0  0  0  0  0  0  0
   59.4341   27.6875   47.7631 H   0  0  0  0  0  0  0  0  0  0  0  0
   59.7858   29.1218   50.1043 H   0  0  0  0  0  0  0  0  0  0  0  0
   58.3041   31.7187   49.5822 H   0  0  0  0  0  0  0  0  0  0  0  0
   58.0543   30.5412   50.9268 H   0  0  0  0  0  0  0  0  0  0  0  0
   60.6510   31.4220   50.5880 H   0  0  0  0  0  0  0  0  0  0  0  0
   60.5475   31.4368   48.3199 H   0  0  0  0  0  0  0  0  0  0  0  0
   62.3080   31.0620   49.1680 H   0  0  0  0  0  0  0  0  0  0  0  0
   61.3461   28.8376   47.1278 H   0  0  0  0  0  0  0  0  0  0  0  0
   59.6470   30.8370   46.1040 H   0  0  0  0  0  0  0  0  0  0  0  0
   59.8178   33.3696   44.9920 H   0  0  0  0  0  0  0  0  0  0  0  0
   62.0216   33.1561   46.1337 H   0  0  0  0  0  0  0  0  0  0  0  0
  1  2  1  0
  2  3  2  0
  2  4  2  0
  2  5  1  0
  5  6  2  0
  6  7  1  0
  7  8  2  0
  8  9  1  0
  9 10  1  0
 10 11  2  3
 11 12  1  0
 12 13  1  0
 13 14  2  0
 13 15  1  0
 15 16  1  0
 16 17  2  0
 17 18  1  0
 18 19  1  0
 19 20  1  0
 20 21  1  0
 21 22  1  0
 22 23  1  0
 21 24  1  0
 24 25  1  0
 24 26  1  0
 26 27  1  0
 18 28  1  0
 28 29  1  0
  8 30  1  0
 30 31  2  0
 31  5  1  0
 29 11  1  0
 28 15  2  0
 26 19  1  0
  1 32  1  0
  6 33  1  0
  7 34  1  0
  9 35  1  0
  9 36  1  0
 16 37  1  0
 17 38  1  0
 19 39  1  1
 21 40  1  1
 22 41  1  0
 22 42  1  0
 23 43  1  0
 24 44  1  6
 25 45  1  0
 26 46  1  6
 27 47  1  0
 30 48  1  0
 31 49  1  0
M  CHG  4   1  -1  12  -1  16   1  29  -1
M  END
>  <UniqueID>  (76) 
62

>  <SMILES>  (76) 
[NH-]S(=O)(=O)c1ccc(CN=c2[n-]c(=O)c3[nH+]cn([C@@H]4O[C@H](CO)C(O)C4O)c3[n-]2)cc1

>  <Energy>  (76) 
96.87685555752672

>  <Genealogy>  (76) 
[NH-]S(=O)(=O)c1ccc(CN=c2[n-]c(=O)c3[nH+]cn(C4OC(CO)C(O)C4O)c3[n-]2)cc1 (protonated)
[NH-]S(=O)(=O)c1ccc(CN=c2[n-]c(=O)c3[nH+]cn([C@@H]4O[C@H](CO)C(O)C4O)c3[n-]2)cc1 (chirality)
[NH-]S(=O)(=O)c1ccc(CN=c2[n-]c(=O)c3[nH+]cn([C@@H]4O[C@H](CO)C(O)C4O)c3[n-]2)cc1 (3D coordinates assigned)
[NH-]S(=O)(=O)c1ccc(CN=c2[n-]c(=O)c3[nH+]cn([C@@H]4O[C@H](CO)C(O)C4O)c3[n-]2)cc1 (nonaromatic ring conformer: 96.87685555752672 kcal/mol)

>  <smiles>  (76) 
NS(=O)(=O)c1ccc(CN=c2[nH]c(=O)c3ncn(C4OC(CO)C(O)C4O)c3[nH]2)cc1

>  <score_type>  (76) 
oracle

>  <origin>  (76) 
adg

>  <m_score__min__energy>  (76) 
-9.6999999999999993

>  <m_primary>  (76) 
energy

$$$$
76:0
     RDKit          3D

 57 60  0  0  1  0  0  0  0  0999 V2000
   58.2790   33.5270   44.8400 C   0  0  0  0  0  0  0  0  0  0  0  0
   58.5120   32.3960   44.0450 O   0  0  0  0  0  0  0  0  0  0  0  0
   57.9740   31.1800   44.4150 C   0  0  0  0  0  0  0  0  0  0  0  0
   56.6560   30.9420   44.2090 C   0  0  0  0  0  0  0  0  0  0  0  0
   56.0020   29.7740   44.5330 C   0  0  0  0  0  0  0  0  0  0  0  0
   56.7800   28.7920   45.1120 C   0  0  0  0  0  0  0  0  0  0  0  0
   56.1650   27.6480   45.4370 N   0  0  0  0  0  0  0  0  0  0  0  0
   58.8210   27.9910   45.9090 C   0  0  0  0  0  0  0  0  0  0  0  0
   60.0220   28.0580   46.1550 N   0  0  0  0  0  0  0  0  0  0  0  0
   55.1520   25.0250   45.6780 C   0  0  0  0  0  0  0  0  0  0  0  0
   55.2700   23.6800   45.0310 C   0  0  0  0  0  0  0  0  0  0  0  0
   54.0870   25.6970   45.6500 O   0  0  0  0  0  0  0  0  0  0  0  0
   58.1600   26.8450   46.2240 N   0  0  0  0  0  0  0  0  0  0  0  0
   56.8560   26.6510   46.0030 C   0  0  0  0  0  0  0  0  0  0  0  0
   56.3350   25.5180   46.3450 N   0  0  0  0  0  0  0  0  0  0  0  0
   60.6860   27.8310   47.3790 C   0  0  0  0  0  0  0  0  0  0  0  0
   60.1390   29.0160   48.1890 C   0  0  0  0  0  0  0  0  0  0  0  0
   60.5410   30.2990   47.8800 C   0  0  0  0  0  0  0  0  0  0  0  0
   60.0470   31.3620   48.5850 C   0  0  0  0  0  0  0  0  0  0  0  0
   59.1530   31.1030   49.5920 C   0  0  0  0  0  0  0  0  0  0  0  0
   58.6320   32.1810   50.3520 N   0  0  0  0  0  0  0  0  0  0  0  0
   57.4130   32.0570   51.1570 C   0  0  0  0  0  0  0  0  0  0  0  0
   57.8750   32.1380   52.5960 C   0  0  0  0  0  0  0  0  0  0  0  0
   58.4090   33.5560   52.7840 C   0  0  0  0  0  0  0  0  0  0  0  0
   59.5670   33.7920   51.8740 C   0  0  0  0  0  0  0  0  0  0  0  0
   59.2680   33.4980   50.4130 C   0  0  0  0  0  0  0  0  0  0  0  0
   58.7240   29.8380   49.9370 C   0  0  0  0  0  0  0  0  0  0  0  0
   59.2390   28.7890   49.2100 C   0  0  0  0  0  0  0  0  0  0  0  0
   58.1370   29.0230   45.3320 C   0  0  0  0  0  0  0  0  0  0  0  0
   58.7790   30.1700   45.0120 C   0  0  0  0  0  0  0  0  0  0  0  0
   58.3367   33.2468   45.9021 H   0  0  0  0  0  0  0  0  0  0  0  0
   59.0384   34.2920   44.6208 H   0  0  0  0  0  0  0  0  0  0  0  0
   57.2791   33.9296   44.6208 H   0  0  0  0  0  0  0  0  0  0  0  0
   56.0620   31.7443   43.7469 H   0  0  0  0  0  0  0  0  0  0  0  0
   54.9279   29.6328   44.3424 H   0  0  0  0  0  0  0  0  0  0  0  0
   55.1440   27.5030   45.2610 H   0  0  0  0  0  0  0  0  0  0  0  0
   55.3381   22.9041   45.8078 H   0  0  0  0  0  0  0  0  0  0  0  0
   54.3846   23.4953   44.4049 H   0  0  0  0  0  0  0  0  0  0  0  0
   56.1740   23.6523   44.4049 H   0  0  0  0  0  0  0  0  0  0  0  0
   58.6930   26.0640   46.6650 H   0  0  0  0  0  0  0  0  0  0  0  0
   60.4057   26.8652   47.8248 H   0  0  0  0  0  0  0  0  0  0  0  0
   61.7826   27.7759   47.3131 H   0  0  0  0  0  0  0  0  0  0  0  0
   61.2603   30.4675   47.0650 H   0  0  0  0  0  0  0  0  0  0  0  0
   60.3569   32.3913   48.3517 H   0  0  0  0  0  0  0  0  0  0  0  0
   56.7158   32.8769   50.9294 H   0  0  0  0  0  0  0  0  0  0  0  0
   56.8785   31.1181   50.9500 H   0  0  0  0  0  0  0  0  0  0  0  0
   57.0332   31.9523   53.2793 H   0  0  0  0  0  0  0  0  0  0  0  0
   58.6447   31.3837   52.8165 H   0  0  0  0  0  0  0  0  0  0  0  0
   57.6121   34.2785   52.5538 H   0  0  0  0  0  0  0  0  0  0  0  0
   58.7383   33.6817   53.8260 H   0  0  0  0  0  0  0  0  0  0  0  0
   59.8675   34.8465   51.9612 H   0  0  0  0  0  0  0  0  0  0  0  0
   60.3644   33.1004   52.1836 H   0  0  0  0  0  0  0  0  0  0  0  0
   58.5891   34.2624   50.0071 H   0  0  0  0  0  0  0  0  0  0  0  0
   60.1928   33.5103   49.8175 H   0  0  0  0  0  0  0  0  0  0  0  0
   58.0051   29.6756   50.7536 H   0  0  0  0  0  0  0  0  0  0  0  0
   58.9302   27.7598   49.4451 H   0  0  0  0  0  0  0  0  0  0  0  0
   59.8532   30.3125   45.2010 H   0  0  0  0  0  0  0  0  0  0  0  0
  1  2  1  0
  2  3  1  0
  3  4  2  0
  4  5  1  0
  5  6  2  0
  6  7  1  0
  7  8  1  0
  8  9  2  0
  9 10  1  0
 10 11  1  0
 10 12  2  0
  8 13  1  0
 13 14  1  0
 14 15  2  0
 15 16  1  0
 16 17  1  0
 17 18  2  0
 18 19  1  0
 19 20  2  0
 20 21  1  0
 21 22  1  0
 22 23  1  0
 23 24  1  0
 24 25  1  0
 25 26  1  0
 20 27  1  0
 27 28  2  0
 14 29  1  0
 29 30  2  0
 30  3  1  0
 29  6  1  0
 28 17  1  0
 26 21  1  0
  1 31  1  0
  1 32  1  0
  1 33  1  0
  4 34  1  0
  5 35  1  0
  7 36  1  0
 11 37  1  0
 11 38  1  0
 11 39  1  0
 13 40  1  0
 16 41  1  0
 16 42  1  0
 18 43  1  0
 19 44  1  0
 22 45  1  0
 22 46  1  0
 23 47  1  0
 23 48  1  0
 24 49  1  0
 24 50  1  0
 25 51  1  0
 25 52  1  0
 26 53  1  0
 26 54  1  0
 27 55  1  0
 28 56  1  0
 30 57  1  0
M  END
>  <smiles>  (77) 
COc1ccc2[nH]c(=NC(C)=O)[nH]c(=NCc3ccc(N4CCCCC4)cc3)c2c1

>  <score_type>  (77) 
oracle

>  <origin>  (77) 
adg

>  <m_score__min__energy>  (77) 
-9.0999999999999996

>  <m_primary>  (77) 
energy

$$$$
77:0
     RDKit          3D

 49 51  0  0  0  0  0  0  0  0999 V2000
   55.0430   21.3980   49.6890 C   0  0  0  0  0  0  0  0  0  0  0  0
   55.6920   21.8360   48.4130 C   0  0  0  0  0  0  0  0  0  0  0  0
   57.0310   21.9170   48.2490 N   0  0  0  0  0  0  0  0  0  0  0  0
   57.2800   22.3120   47.0090 N   0  0  0  0  0  0  0  0  0  0  0  0
   56.1030   22.4840   46.3740 C   0  0  0  0  0  0  0  0  0  0  0  0
   55.9810   23.0190   44.6670 S   0  0  0  0  0  0  0  0  0  0  0  0
   56.6390   24.6790   45.0210 C   0  0  0  0  0  0  0  0  0  0  0  0
   55.5600   25.5130   45.6530 C   0  0  0  0  0  0  0  0  0  0  0  0
   54.4680   24.9630   45.9600 O   0  0  0  0  0  0  0  0  0  0  0  0
   55.7450   26.9080   45.9550 N   0  0  0  0  0  0  0  0  0  0  0  0
   57.0250   27.5230   46.1360 C   0  0  0  0  0  0  0  0  0  0  0  0
   57.9670   26.8740   46.9500 C   0  0  0  0  0  0  0  0  0  0  0  0
   59.2280   27.4330   47.1590 C   0  0  0  0  0  0  0  0  0  0  0  0
   59.5620   28.6430   46.5530 C   0  0  0  0  0  0  0  0  0  0  0  0
   58.6340   29.3020   45.7410 C   0  0  0  0  0  0  0  0  0  0  0  0
   57.3500   28.7600   45.5190 C   0  0  0  0  0  0  0  0  0  0  0  0
   56.3880   29.5160   44.6680 C   0  0  0  0  0  0  0  0  0  0  0  0
   55.1470   29.3870   44.8620 O   0  0  0  0  0  0  0  0  0  0  0  0
   56.8460   30.3750   43.6180 N   0  0  0  0  0  0  0  0  0  0  0  0
   57.6290   31.5890   43.8300 C   0  0  0  0  0  0  0  0  0  0  0  0
   56.9840   32.4840   44.8980 C   0  0  0  0  0  0  0  0  0  0  0  0
   58.0150   33.1960   45.7360 C   0  0  0  0  0  0  0  0  0  0  0  0
   58.2410   32.8060   47.0680 C   0  0  0  0  0  0  0  0  0  0  0  0
   59.1680   33.4990   47.8550 C   0  0  0  0  0  0  0  0  0  0  0  0
   59.8720   34.5840   47.3210 C   0  0  0  0  0  0  0  0  0  0  0  0
   59.6510   34.9790   45.9980 C   0  0  0  0  0  0  0  0  0  0  0  0
   58.7260   34.2900   45.2080 C   0  0  0  0  0  0  0  0  0  0  0  0
   55.0560   22.1900   47.2340 C   0  0  0  0  0  0  0  0  0  0  0  0
   53.6020   22.2350   46.9570 C   0  0  0  0  0  0  0  0  0  0  0  0
   52.7790   22.4770   47.8820 O   0  0  0  0  0  0  0  0  0  0  0  0
   53.1210   21.9950   45.6760 O   0  0  0  0  0  0  0  0  0  0  0  0
   55.6167   21.7852   50.5439 H   0  0  0  0  0  0  0  0  0  0  0  0
   54.0153   21.7879   49.7303 H   0  0  0  0  0  0  0  0  0  0  0  0
   55.0201   20.2990   49.7303 H   0  0  0  0  0  0  0  0  0  0  0  0
   57.4924   24.5974   45.7103 H   0  0  0  0  0  0  0  0  0  0  0  0
   56.9720   25.1521   44.0855 H   0  0  0  0  0  0  0  0  0  0  0  0
   57.7087   25.9170   47.4268 H   0  0  0  0  0  0  0  0  0  0  0  0
   59.9582   26.9192   47.8016 H   0  0  0  0  0  0  0  0  0  0  0  0
   60.5583   29.0806   46.7140 H   0  0  0  0  0  0  0  0  0  0  0  0
   58.9086   30.2566   45.2684 H   0  0  0  0  0  0  0  0  0  0  0  0
   58.6413   31.3107   44.1582 H   0  0  0  0  0  0  0  0  0  0  0  0
   57.6692   32.1483   42.8836 H   0  0  0  0  0  0  0  0  0  0  0  0
   56.3527   33.2339   44.3989 H   0  0  0  0  0  0  0  0  0  0  0  0
   56.3887   31.8425   45.5644 H   0  0  0  0  0  0  0  0  0  0  0  0
   57.6883   31.9548   47.4922 H   0  0  0  0  0  0  0  0  0  0  0  0
   59.3436   33.1899   48.8960 H   0  0  0  0  0  0  0  0  0  0  0  0
   60.5997   35.1265   47.9424 H   0  0  0  0  0  0  0  0  0  0  0  0
   60.2050   35.8319   45.5788 H   0  0  0  0  0  0  0  0  0  0  0  0
   58.5529   34.6045   44.1682 H   0  0  0  0  0  0  0  0  0  0  0  0
  1  2  1  0
  2  3  1  0
  3  4  1  0
  4  5  2  0
  5  6  1  0
  6  7  1  0
  7  8  1  0
  8  9  2  0
  8 10  1  0
 10 11  1  0
 11 12  2  0
 12 13  1  0
 13 14  2  0
 14 15  1  0
 15 16  2  0
 16 17  1  0
 17 18  2  0
 17 19  1  0
 19 20  1  0
 20 21  1  0
 21 22  1  0
 22 23  2  0
 23 24  1  0
 24 25  2  0
 25 26  1  0
 26 27  2  0
  5 28  1  0
 28 29  1  0
 29 30  2  0
 29 31  1  0
 28  2  2  0
 16 11  1  0
 27 22  1  0
  1 32  1  0
  1 33  1  0
  1 34  1  0
  7 35  1  0
  7 36  1  0
 12 37  1  0
 13 38  1  0
 14 39  1  0
 15 40  1  0
 20 41  1  0
 20 42  1  0
 21 43  1  0
 21 44  1  0
 23 45  1  0
 24 46  1  0
 25 47  1  0
 26 48  1  0
 27 49  1  0
M  CHG  4   3  -1  10  -1  19  -1  31  -1
M  END
>  <UniqueID>  (78) 
63

>  <SMILES>  (78) 
Cc1[n-]nc(SCC(=O)[N-]c2ccccc2C(=O)[N-]CCc2ccccc2)c1C(=O)[O-]

>  <Energy>  (78) 
81.1432613414201

>  <Genealogy>  (78) 
Cc1[n-]nc(SCC(=O)[N-]c2ccccc2C(=O)[N-]CCc2ccccc2)c1C(=O)[O-] (protonated)
Cc1[n-]nc(SCC(=O)[N-]c2ccccc2C(=O)[N-]CCc2ccccc2)c1C(=O)[O-] (3D coordinates assigned)
Cc1[n-]nc(SCC(=O)[N-]c2ccccc2C(=O)[N-]CCc2ccccc2)c1C(=O)[O-] (optimized conformer: 81.1432613414201 kcal/mol)

>  <smiles>  (78) 
Cc1[nH]nc(SCC(=O)Nc2ccccc2C(=O)NCCc2ccccc2)c1C(=O)O

>  <score_type>  (78) 
oracle

>  <origin>  (78) 
adg

>  <m_score__min__energy>  (78) 
-16.68

>  <m_primary>  (78) 
energy

$$$$
78:0
     RDKit          3D

 45 46  0  0  0  0  0  0  0  0999 V2000
   58.2030   31.3870   50.4700 C   0  0  0  0  0  0  0  0  0  0  0  0
   59.1350   31.1250   49.3250 C   0  0  0  0  0  0  0  0  0  0  0  0
   59.1580   29.8670   48.6990 C   0  0  0  0  0  0  0  0  0  0  0  0
   59.9870   29.6470   47.5940 C   0  0  0  0  0  0  0  0  0  0  0  0
   60.7900   30.6800   47.0990 C   0  0  0  0  0  0  0  0  0  0  0  0
   60.7680   31.9450   47.7090 C   0  0  0  0  0  0  0  0  0  0  0  0
   61.6090   33.0720   47.1660 C   0  0  0  0  0  0  0  0  0  0  0  0
   60.8590   33.8870   46.1080 C   0  0  0  0  0  0  0  0  0  0  0  0
   59.5680   33.2790   45.7940 N   0  0  0  0  0  0  0  0  0  0  0  0
   58.3320   33.7370   46.3690 C   0  0  0  0  0  0  0  0  0  0  0  0
   58.3360   34.4350   47.4200 O   0  0  0  0  0  0  0  0  0  0  0  0
   57.0270   33.4030   45.7040 C   0  0  0  0  0  0  0  0  0  0  0  0
   57.2030   32.3740   44.6810 N   0  0  0  0  0  0  0  0  0  0  0  0
   57.6280   31.0340   44.9640 C   0  0  0  0  0  0  0  0  0  0  0  0
   58.8270   30.7070   44.7600 O   0  0  0  0  0  0  0  0  0  0  0  0
   56.7060   30.0900   45.5160 N   0  0  0  0  0  0  0  0  0  0  0  0
   56.2510   28.8900   44.8270 C   0  0  0  0  0  0  0  0  0  0  0  0
   56.9250   27.6960   45.4420 C   0  0  0  0  0  0  0  0  0  0  0  0
   58.3290   27.6530   45.5190 C   0  0  0  0  0  0  0  0  0  0  0  0
   58.9700   26.5900   46.1600 C   0  0  0  0  0  0  0  0  0  0  0  0
   58.2190   25.5670   46.7410 C   0  0  0  0  0  0  0  0  0  0  0  0
   56.8220   25.6030   46.6790 C   0  0  0  0  0  0  0  0  0  0  0  0
   56.1720   26.6640   46.0390 C   0  0  0  0  0  0  0  0  0  0  0  0
   54.7810   26.6900   46.0040 O   0  0  0  0  0  0  0  0  0  0  0  0
   59.9330   32.1630   48.8190 C   0  0  0  0  0  0  0  0  0  0  0  0
   58.7375   31.2367   51.4196 H   0  0  0  0  0  0  0  0  0  0  0  0
   57.8370   32.4229   50.4152 H   0  0  0  0  0  0  0  0  0  0  0  0
   57.3508   30.6936   50.4152 H   0  0  0  0  0  0  0  0  0  0  0  0
   58.5226   29.0534   49.0789 H   0  0  0  0  0  0  0  0  0  0  0  0
   60.0076   28.6582   47.1126 H   0  0  0  0  0  0  0  0  0  0  0  0
   61.4402   30.5012   46.2300 H   0  0  0  0  0  0  0  0  0  0  0  0
   61.8889   33.7382   47.9954 H   0  0  0  0  0  0  0  0  0  0  0  0
   62.4992   32.6342   46.6907 H   0  0  0  0  0  0  0  0  0  0  0  0
   60.6933   34.9053   46.4896 H   0  0  0  0  0  0  0  0  0  0  0  0
   61.4659   33.9121   45.1909 H   0  0  0  0  0  0  0  0  0  0  0  0
   59.5360   32.5660   45.0320 H   0  0  0  0  0  0  0  0  0  0  0  0
   56.3207   33.0367   46.4636 H   0  0  0  0  0  0  0  0  0  0  0  0
   56.6398   34.3120   45.2206 H   0  0  0  0  0  0  0  0  0  0  0  0
   55.1602   28.7941   44.9320 H   0  0  0  0  0  0  0  0  0  0  0  0
   56.5032   28.9533   43.7582 H   0  0  0  0  0  0  0  0  0  0  0  0
   58.9259   28.4615   45.0717 H   0  0  0  0  0  0  0  0  0  0  0  0
   60.0686   26.5592   46.2069 H   0  0  0  0  0  0  0  0  0  0  0  0
   58.7257   24.7324   47.2477 H   0  0  0  0  0  0  0  0  0  0  0  0
   56.2322   24.7942   47.1351 H   0  0  0  0  0  0  0  0  0  0  0  0
   59.9049   33.1545   49.2945 H   0  0  0  0  0  0  0  0  0  0  0  0
  1  2  1  0
  2  3  2  0
  3  4  1  0
  4  5  2  0
  5  6  1  0
  6  7  1  0
  7  8  1  0
  8  9  1  0
  9 10  1  0
 10 11  2  0
 10 12  1  0
 12 13  1  0
 13 14  1  0
 14 15  2  0
 14 16  1  0
 16 17  1  0
 17 18  1  0
 18 19  2  0
 19 20  1  0
 20 21  2  0
 21 22  1  0
 22 23  2  0
 23 24  1  0
  6 25  2  0
 25  2  1  0
 23 18  1  0
  1 26  1  0
  1 27  1  0
  1 28  1  0
  3 29  1  0
  4 30  1  0
  5 31  1  0
  7 32  1  0
  7 33  1  0
  8 34  1  0
  8 35  1  0
  9 36  1  0
 12 37  1  0
 12 38  1  0
 17 39  1  0
 17 40  1  0
 19 41  1  0
 20 42  1  0
 21 43  1  0
 22 44  1  0
 25 45  1  0
M  CHG  3  13  -1  16  -1  24  -1
M  END
>  <UniqueID>  (79) 
64

>  <SMILES>  (79) 
Cc1cccc(CCNC(=O)C[N-]C(=O)[N-]Cc2ccccc2[O-])c1

>  <Energy>  (79) 
33.65183227531526

>  <Genealogy>  (79) 
Cc1cccc(CCNC(=O)C[N-]C(=O)[N-]Cc2ccccc2[O-])c1 (protonated)
Cc1cccc(CCNC(=O)C[N-]C(=O)[N-]Cc2ccccc2[O-])c1 (3D coordinates assigned)
Cc1cccc(CCNC(=O)C[N-]C(=O)[N-]Cc2ccccc2[O-])c1 (optimized conformer: 33.65183227531526 kcal/mol)

>  <smiles>  (79) 
Cc1cccc(CCNC(=O)CNC(=O)NCc2ccccc2O)c1

>  <score_type>  (79) 
oracle

>  <origin>  (79) 
adg

>  <m_score__min__energy>  (79) 
-14.380000000000001

>  <m_primary>  (79) 
energy

$$$$
79:0
     RDKit          3D

 35 37  0  0  0  0  0  0  0  0999 V2000
   59.3124   28.0103   48.1383 H   0  0  0  0  0  0  0  0  0  0  0  0
   59.2410   28.4100   47.1160 C   0  0  0  0  0  0  0  0  0  0  0  0
   58.0520   28.8790   46.6520 N   0  0  0  0  0  0  0  0  0  0  0  0
   57.9170   29.3870   45.3960 C   0  0  0  0  0  0  0  0  0  0  0  0
   56.5920   29.8730   44.9510 C   0  0  0  0  0  0  0  0  0  0  0  0
   55.6250   29.0670   44.9070 O   0  0  0  0  0  0  0  0  0  0  0  0
   56.3870   31.2230   44.5100 N   0  0  0  0  0  0  0  0  0  0  0  0
   57.2120   32.2090   44.7090 C   0  0  0  0  0  0  0  0  0  0  0  0
   57.4900   32.9920   46.1820 S   0  0  0  0  0  0  0  0  0  0  0  0
   58.6270   34.0320   45.5040 C   0  0  0  0  0  0  0  0  0  0  0  0
   59.5740   35.2550   46.4090 S   0  0  0  0  0  0  0  0  0  0  0  0
   59.8890   34.1780   47.8540 C   0  0  0  0  0  0  0  0  0  0  0  0
   60.0778   34.8088   48.7351 H   0  0  0  0  0  0  0  0  0  0  0  0
   59.0049   33.5421   48.0087 H   0  0  0  0  0  0  0  0  0  0  0  0
   61.0790   33.2840   47.6290 C   0  0  0  0  0  0  0  0  0  0  0  0
   62.3420   33.8440   47.3630 C   0  0  0  0  0  0  0  0  0  0  0  0
   62.4521   34.9360   47.2892 H   0  0  0  0  0  0  0  0  0  0  0  0
   63.4580   33.0190   47.1920 C   0  0  0  0  0  0  0  0  0  0  0  0
   64.4432   33.4626   46.9858 H   0  0  0  0  0  0  0  0  0  0  0  0
   63.3220   31.6310   47.2830 C   0  0  0  0  0  0  0  0  0  0  0  0
   64.2002   30.9829   47.1464 H   0  0  0  0  0  0  0  0  0  0  0  0
   62.0730   31.0660   47.5470 C   0  0  0  0  0  0  0  0  0  0  0  0
   61.9695   29.9732   47.6176 H   0  0  0  0  0  0  0  0  0  0  0  0
   60.9530   31.8850   47.7220 C   0  0  0  0  0  0  0  0  0  0  0  0
   59.7480   31.3190   47.9860 F   0  0  0  0  0  0  0  0  0  0  0  0
   58.7490   33.7550   44.1490 C   0  0  0  0  0  0  0  0  0  0  0  0
   59.4312   34.3065   43.4853 H   0  0  0  0  0  0  0  0  0  0  0  0
   57.9530   32.7440   43.7140 N   0  0  0  0  0  0  0  0  0  0  0  0
   57.9320   32.4120   42.7240 H   0  0  0  0  0  0  0  0  0  0  0  0
   59.0320   29.4110   44.5390 C   0  0  0  0  0  0  0  0  0  0  0  0
   58.9359   29.7993   43.5143 H   0  0  0  0  0  0  0  0  0  0  0  0
   60.2610   28.9380   45.0000 C   0  0  0  0  0  0  0  0  0  0  0  0
   61.1421   28.9616   44.3419 H   0  0  0  0  0  0  0  0  0  0  0  0
   60.3710   28.4350   46.2970 C   0  0  0  0  0  0  0  0  0  0  0  0
   61.3367   28.0626   46.6695 H   0  0  0  0  0  0  0  0  0  0  0  0
  1  2  1  0
  2  3  2  0
  3  4  1  0
  4  5  1  0
  5  6  2  0
  5  7  1  0
  7  8  2  0
  8  9  1  0
  9 10  1  0
 10 11  1  0
 11 12  1  0
 12 13  1  0
 12 14  1  0
 12 15  1  0
 15 16  2  0
 16 17  1  0
 16 18  1  0
 18 19  1  0
 18 20  2  0
 20 21  1  0
 20 22  1  0
 22 23  1  0
 22 24  2  0
 24 25  1  0
 10 26  2  0
 26 27  1  0
 26 28  1  0
 28 29  1  0
  4 30  2  0
 30 31  1  0
 30 32  1  0
 32 33  1  0
 32 34  2  0
 34 35  1  0
 34  2  1  0
 28  8  1  0
 24 15  1  0
M  END
>  <UniqueID>  (80) 
65

>  <SMILES>  (80) 
O=C(/N=c1/[nH]cc(SCc2ccccc2F)s1)c1ccccn1

>  <Energy>  (80) 
71.42644557440119

>  <Genealogy>  (80) 
O=C(/N=c1/[nH]cc(SCc2ccccc2F)s1)c1ccccn1 (cis-trans isomerization)
O=C(/N=c1/[nH]cc(SCc2ccccc2F)s1)c1ccccn1 (3D coordinates assigned)
O=C(/N=c1/[nH]cc(SCc2ccccc2F)s1)c1ccccn1 (optimized conformer: 71.42644557440119 kcal/mol)

>  <smiles>  (80) 
O=C(N=c1[nH]cc(SCc2ccccc2F)s1)c1ccccn1

>  <score_type>  (80) 
oracle

>  <origin>  (80) 
adg

>  <m_score__min__energy>  (80) 
-8.8000000000000007

>  <m_primary>  (80) 
energy

$$$$
80:0
     RDKit          3D

 48 50  0  0  0  0  0  0  0  0999 V2000
   62.9880   33.5650   46.7680 C   0  0  0  0  0  0  0  0  0  0  0  0
   62.4220   32.6700   47.8590 C   0  0  0  0  0  0  0  0  0  0  0  0
   61.4570   33.3940   48.6140 O   0  0  0  0  0  0  0  0  0  0  0  0
   60.0780   33.2370   48.4390 C   0  0  0  0  0  0  0  0  0  0  0  0
   59.3580   32.9170   49.4260 O   0  0  0  0  0  0  0  0  0  0  0  0
   59.4530   33.4490   47.1040 C   0  0  0  0  0  0  0  0  0  0  0  0
   59.6220   34.6920   46.4600 C   0  0  0  0  0  0  0  0  0  0  0  0
   59.0670   34.9280   45.2020 C   0  0  0  0  0  0  0  0  0  0  0  0
   58.3430   33.9270   44.5590 C   0  0  0  0  0  0  0  0  0  0  0  0
   58.1570   32.6920   45.1790 C   0  0  0  0  0  0  0  0  0  0  0  0
   58.6840   32.4440   46.4620 C   0  0  0  0  0  0  0  0  0  0  0  0
   58.4930   31.1700   47.0970 N   0  0  0  0  0  0  0  0  0  0  0  0
   58.8470   29.8800   46.5810 C   0  0  0  0  0  0  0  0  0  0  0  0
   59.7630   29.1980   47.1140 O   0  0  0  0  0  0  0  0  0  0  0  0
   58.1440   29.3630   45.3670 C   0  0  0  0  0  0  0  0  0  0  0  0
   57.3650   28.1330   45.7130 C   0  0  0  0  0  0  0  0  0  0  0  0
   57.9190   26.9360   46.1350 C   0  0  0  0  0  0  0  0  0  0  0  0
   56.8610   26.0670   46.2840 C   0  0  0  0  0  0  0  0  0  0  0  0
   56.9350   24.6460   46.7670 C   0  0  0  0  0  0  0  0  0  0  0  0
   57.1960   23.6270   45.6690 C   0  0  0  0  0  0  0  0  0  0  0  0
   58.3840   22.8600   45.6500 C   0  0  0  0  0  0  0  0  0  0  0  0
   58.6180   21.9320   44.6330 C   0  0  0  0  0  0  0  0  0  0  0  0
   57.6690   21.7350   43.6320 C   0  0  0  0  0  0  0  0  0  0  0  0
   56.4700   22.4480   43.6560 C   0  0  0  0  0  0  0  0  0  0  0  0
   55.5210   22.2230   42.6640 O   0  0  0  0  0  0  0  0  0  0  0  0
   56.2150   23.3780   44.6750 C   0  0  0  0  0  0  0  0  0  0  0  0
   54.9750   24.0240   44.6750 O   0  0  0  0  0  0  0  0  0  0  0  0
   55.7290   26.7780   45.9460 C   0  0  0  0  0  0  0  0  0  0  0  0
   54.4340   26.2770   45.9690 O   0  0  0  0  0  0  0  0  0  0  0  0
   56.0250   28.0410   45.5850 N   0  0  0  0  0  0  0  0  0  0  0  0
   63.5223   34.4098   47.2272 H   0  0  0  0  0  0  0  0  0  0  0  0
   63.6847   32.9863   46.1437 H   0  0  0  0  0  0  0  0  0  0  0  0
   62.1665   33.9464   46.1437 H   0  0  0  0  0  0  0  0  0  0  0  0
   61.9449   31.7909   47.4012 H   0  0  0  0  0  0  0  0  0  0  0  0
   63.2356   32.3419   48.5227 H   0  0  0  0  0  0  0  0  0  0  0  0
   60.1992   35.4862   46.9562 H   0  0  0  0  0  0  0  0  0  0  0  0
   59.2014   35.9062   44.7172 H   0  0  0  0  0  0  0  0  0  0  0  0
   57.9176   34.1108   43.5614 H   0  0  0  0  0  0  0  0  0  0  0  0
   57.5927   31.9027   44.6608 H   0  0  0  0  0  0  0  0  0  0  0  0
   57.4578   30.1342   44.9871 H   0  0  0  0  0  0  0  0  0  0  0  0
   58.8886   29.1146   44.5963 H   0  0  0  0  0  0  0  0  0  0  0  0
   58.9833   26.7234   46.3140 H   0  0  0  0  0  0  0  0  0  0  0  0
   57.7480   24.5743   47.5045 H   0  0  0  0  0  0  0  0  0  0  0  0
   55.9500   24.4056   47.1936 H   0  0  0  0  0  0  0  0  0  0  0  0
   59.1320   22.9959   46.4450 H   0  0  0  0  0  0  0  0  0  0  0  0
   59.5543   21.3548   44.6222 H   0  0  0  0  0  0  0  0  0  0  0  0
   57.8653   21.0168   42.8222 H   0  0  0  0  0  0  0  0  0  0  0  0
   54.8400   24.9770   44.9820 H   0  0  0  0  0  0  0  0  0  0  0  0
  1  2  1  0
  2  3  1  0
  3  4  1  0
  4  5  2  0
  4  6  1  0
  6  7  2  0
  7  8  1  0
  8  9  2  0
  9 10  1  0
 10 11  2  0
 11 12  1  0
 12 13  1  0
 13 14  2  0
 13 15  1  0
 15 16  1  0
 16 17  2  0
 17 18  1  0
 18 19  1  0
 19 20  1  0
 20 21  2  0
 21 22  1  0
 22 23  2  0
 23 24  1  0
 24 25  1  0
 24 26  2  0
 26 27  1  0
 18 28  2  0
 28 29  1  0
 28 30  1  0
 11  6  1  0
 30 16  1  0
 26 20  1  0
  1 31  1  0
  1 32  1  0
  1 33  1  0
  2 34  1  0
  2 35  1  0
  7 36  1  0
  8 37  1  0
  9 38  1  0
 10 39  1  0
 15 40  1  0
 15 41  1  0
 17 42  1  0
 19 43  1  0
 19 44  1  0
 21 45  1  0
 22 46  1  0
 23 47  1  0
 27 48  1  0
M  CHG  4  12  -1  25  -1  29  -1  30  -1
M  END
>  <UniqueID>  (81) 
66

>  <SMILES>  (81) 
CCOC(=O)c1ccccc1[N-]C(=O)Cc1cc(Cc2cccc([O-])c2O)c([O-])[n-]1

>  <Energy>  (81) 
77.1247159399329

>  <Genealogy>  (81) 
CCOC(=O)c1ccccc1[N-]C(=O)Cc1cc(Cc2cccc([O-])c2O)c([O-])[n-]1 (protonated)
CCOC(=O)c1ccccc1[N-]C(=O)Cc1cc(Cc2cccc([O-])c2O)c([O-])[n-]1 (3D coordinates assigned)
CCOC(=O)c1ccccc1[N-]C(=O)Cc1cc(Cc2cccc([O-])c2O)c([O-])[n-]1 (optimized conformer: 77.1247159399329 kcal/mol)

>  <smiles>  (81) 
CCOC(=O)c1ccccc1NC(=O)Cc1cc(Cc2cccc(O)c2O)c(O)[nH]1

>  <score_type>  (81) 
oracle

>  <origin>  (81) 
adg

>  <m_score__min__energy>  (81) 
-16.809999999999999

>  <m_primary>  (81) 
energy

$$$$
81:0
     RDKit          3D

 46 49  0  0  0  0  0  0  0  0999 V2000
   53.2630   22.2640   45.9960 H   0  0  0  0  0  0  0  0  0  0  0  0
   53.5480   22.7980   45.1450 N   0  0  0  0  0  0  0  0  0  0  0  0
   54.5050   23.6720   45.1440 C   0  0  0  0  0  0  0  0  0  0  0  0
   54.4090   24.7590   45.9570 N   0  0  0  0  0  0  0  0  0  0  0  0
   55.3760   25.7130   46.0030 C   0  0  0  0  0  0  0  0  0  0  0  0
   55.2642   26.5738   46.6787 H   0  0  0  0  0  0  0  0  0  0  0  0
   56.5140   25.6050   45.1940 C   0  0  0  0  0  0  0  0  0  0  0  0
   57.5810   26.6290   45.2560 C   0  0  0  0  0  0  0  0  0  0  0  0
   58.9190   26.2000   45.2840 C   0  0  0  0  0  0  0  0  0  0  0  0
   59.1460   25.1240   45.3109 H   0  0  0  0  0  0  0  0  0  0  0  0
   59.9610   27.1260   45.2780 C   0  0  0  0  0  0  0  0  0  0  0  0
   61.0045   26.7784   45.2922 H   0  0  0  0  0  0  0  0  0  0  0  0
   59.6830   28.4910   45.2540 C   0  0  0  0  0  0  0  0  0  0  0  0
   60.5095   29.2167   45.2405 H   0  0  0  0  0  0  0  0  0  0  0  0
   58.3590   28.9450   45.2470 C   0  0  0  0  0  0  0  0  0  0  0  0
   58.1080   30.3600   45.2680 N   0  0  0  0  0  0  0  0  0  0  0  0
   57.2230   31.0590   44.5030 C   0  0  0  0  0  0  0  0  0  0  0  0
   56.2230   30.4710   43.5870 C   0  0  0  0  0  0  0  0  0  0  0  0
   55.0200   30.3960   43.9530 O   0  0  0  0  0  0  0  0  0  0  0  0
   56.5960   29.9480   42.3110 N   0  0  0  0  0  0  0  0  0  0  0  0
   57.5960   29.8000   42.0560 H   0  0  0  0  0  0  0  0  0  0  0  0
   55.8620   29.6030   41.6540 H   0  0  0  0  0  0  0  0  0  0  0  0
   57.3990   32.4300   44.6820 C   0  0  0  0  0  0  0  0  0  0  0  0
   56.8353   33.2432   44.2013 H   0  0  0  0  0  0  0  0  0  0  0  0
   58.4280   32.5500   45.5880 C   0  0  0  0  0  0  0  0  0  0  0  0
   59.0380   33.6860   46.1110 C   0  0  0  0  0  0  0  0  0  0  0  0
   58.6905   34.6931   45.8371 H   0  0  0  0  0  0  0  0  0  0  0  0
   60.1130   33.5070   47.0010 C   0  0  0  0  0  0  0  0  0  0  0  0
   60.6107   34.3854   47.4378 H   0  0  0  0  0  0  0  0  0  0  0  0
   60.5620   32.2020   47.3410 C   0  0  0  0  0  0  0  0  0  0  0  0
   61.6350   31.9840   48.2170 O   0  0  0  0  0  0  0  0  0  0  0  0
   62.9620   32.4490   47.9930 C   0  0  0  0  0  0  0  0  0  0  0  0
   63.4577   32.6227   48.9595 H   0  0  0  0  0  0  0  0  0  0  0  0
   63.5238   31.6942   47.4232 H   0  0  0  0  0  0  0  0  0  0  0  0
   62.9297   33.3894   47.4232 H   0  0  0  0  0  0  0  0  0  0  0  0
   59.9190   31.0780   46.7860 C   0  0  0  0  0  0  0  0  0  0  0  0
   60.2566   30.0598   47.0293 H   0  0  0  0  0  0  0  0  0  0  0  0
   58.8420   31.2860   45.9190 C   0  0  0  0  0  0  0  0  0  0  0  0
   57.2920   28.0160   45.2490 C   0  0  0  0  0  0  0  0  0  0  0  0
   55.9340   28.4860   45.2570 N   0  0  0  0  0  0  0  0  0  0  0  0
   55.6780   29.4010   45.6870 H   0  0  0  0  0  0  0  0  0  0  0  0
   55.1540   27.9130   44.8680 H   0  0  0  0  0  0  0  0  0  0  0  0
   56.6430   24.4880   44.3570 C   0  0  0  0  0  0  0  0  0  0  0  0
   57.5368   24.3753   43.7257 H   0  0  0  0  0  0  0  0  0  0  0  0
   55.6380   23.5170   44.3230 C   0  0  0  0  0  0  0  0  0  0  0  0
   55.7740   22.4170   43.4840 O   0  0  0  0  0  0  0  0  0  0  0  0
  1  2  1  0
  2  3  2  0
  3  4  1  0
  4  5  1  0
  5  6  1  0
  5  7  2  0
  7  8  1  0
  8  9  2  0
  9 10  1  0
  9 11  1  0
 11 12  1  0
 11 13  2  0
 13 14  1  0
 13 15  1  0
 15 16  1  0
 16 17  1  0
 17 18  1  0
 18 19  2  0
 18 20  1  0
 20 21  1  0
 20 22  1  0
 17 23  2  0
 23 24  1  0
 23 25  1  0
 25 26  2  0
 26 27  1  0
 26 28  1  0
 28 29  1  0
 28 30  2  0
 30 31  1  0
 31 32  1  0
 32 33  1  0
 32 34  1  0
 32 35  1  0
 30 36  1  0
 36 37  1  0
 36 38  2  0
 15 39  2  0
 39 40  1  0
 40 41  1  0
 40 42  1  0
  7 43  1  0
 43 44  1  0
 43 45  2  0
 45 46  1  0
 45  3  1  0
 39  8  1  0
 38 16  1  0
 38 25  1  0
M  CHG  2   4  -1  46  -1
M  END
>  <UniqueID>  (82) 
67

>  <SMILES>  (82) 
[H]/N=c1/[n-]cc(-c2cccc(-n3c(C(N)=O)cc4ccc(OC)cc43)c2N)cc1[O-]

>  <Energy>  (82) 
101.28024042927322

>  <Genealogy>  (82) 
COc1ccc2cc(C(N)=O)n(-c3cccc(-c4c[n-]c(=N)c([O-])c4)c3N)c2c1 (protonated)
[H]/N=c1/[n-]cc(-c2cccc(-n3c(C(N)=O)cc4ccc(OC)cc43)c2N)cc1[O-] (cis-trans isomerization)
[H]/N=c1/[n-]cc(-c2cccc(-n3c(C(N)=O)cc4ccc(OC)cc43)c2N)cc1[O-] (3D coordinates assigned)
[H]/N=c1/[n-]cc(-c2cccc(-n3c(C(N)=O)cc4ccc(OC)cc43)c2N)cc1[O-] (optimized conformer: 101.28024042927322 kcal/mol)

>  <smiles>  (82) 
COc1ccc2cc(C(N)=O)n(-c3cccc(-c4c[nH]c(=N)c(O)c4)c3N)c2c1

>  <score_type>  (82) 
oracle

>  <origin>  (82) 
adg

>  <m_score__min__energy>  (82) 
-13.279999999999999

>  <m_primary>  (82) 
energy

$$$$
82:0
     RDKit          3D

 44 47  0  0  0  0  0  0  0  0999 V2000
   61.1212   28.3862   44.7813 H   0  0  0  0  0  0  0  0  0  0  0  0
   60.0740   28.2750   45.0990 C   0  0  0  0  0  0  0  0  0  0  0  0
   59.0790   29.0570   44.5050 C   0  0  0  0  0  0  0  0  0  0  0  0
   59.3476   29.7895   43.7296 H   0  0  0  0  0  0  0  0  0  0  0  0
   57.7400   28.9110   44.8940 C   0  0  0  0  0  0  0  0  0  0  0  0
   56.4840   29.9310   44.1980 S   0  0  0  0  0  0  0  0  0  0  0  0
   55.1410   29.3390   44.5170 O   0  0  0  0  0  0  0  0  0  0  0  0
   56.6340   30.0160   42.7040 O   0  0  0  0  0  0  0  0  0  0  0  0
   56.5840   31.5290   44.8690 N   0  0  0  0  0  0  0  0  0  0  0  0
   57.6880   32.0590   45.2990 C   0  0  0  0  0  0  0  0  0  0  0  0
   58.4860   31.3970   46.1830 N   0  0  0  0  0  0  0  0  0  0  0  0
   59.6340   31.9490   46.6510 C   0  0  0  0  0  0  0  0  0  0  0  0
   60.4370   31.2580   47.5600 C   0  0  0  0  0  0  0  0  0  0  0  0
   60.1430   30.2553   47.9036 H   0  0  0  0  0  0  0  0  0  0  0  0
   61.6160   31.8430   48.0330 C   0  0  0  0  0  0  0  0  0  0  0  0
   62.2513   31.2946   48.7441 H   0  0  0  0  0  0  0  0  0  0  0  0
   61.9950   33.1310   47.6040 C   0  0  0  0  0  0  0  0  0  0  0  0
   63.1820   33.7350   48.0420 O   0  0  0  0  0  0  0  0  0  0  0  0
   63.7760   33.5390   49.2980 C   0  0  0  0  0  0  0  0  0  0  0  0
   64.9050   32.7220   49.3900 C   0  0  0  0  0  0  0  0  0  0  0  0
   65.3131   32.2398   48.4895 H   0  0  0  0  0  0  0  0  0  0  0  0
   65.5140   32.5200   50.6320 C   0  0  0  0  0  0  0  0  0  0  0  0
   66.3931   31.8637   50.7122 H   0  0  0  0  0  0  0  0  0  0  0  0
   65.0210   33.1340   51.7420 N   0  0  0  0  0  0  0  0  0  0  0  0
   65.4900   32.9780   52.6630 H   0  0  0  0  0  0  0  0  0  0  0  0
   63.9370   33.9530   51.6760 C   0  0  0  0  0  0  0  0  0  0  0  0
   63.5646   34.4438   52.5873 H   0  0  0  0  0  0  0  0  0  0  0  0
   63.2950   34.1730   50.4550 C   0  0  0  0  0  0  0  0  0  0  0  0
   62.4200   34.8373   50.4003 H   0  0  0  0  0  0  0  0  0  0  0  0
   61.1950   33.8120   46.6770 C   0  0  0  0  0  0  0  0  0  0  0  0
   61.4972   34.8071   46.3187 H   0  0  0  0  0  0  0  0  0  0  0  0
   60.0140   33.2310   46.2060 C   0  0  0  0  0  0  0  0  0  0  0  0
   59.2200   33.8890   45.3200 N   0  0  0  0  0  0  0  0  0  0  0  0
   58.0680   33.3320   44.8570 C   0  0  0  0  0  0  0  0  0  0  0  0
   57.4388   33.8789   44.1394 H   0  0  0  0  0  0  0  0  0  0  0  0
   57.4040   27.9740   45.8810 C   0  0  0  0  0  0  0  0  0  0  0  0
   56.3547   27.8543   46.1885 H   0  0  0  0  0  0  0  0  0  0  0  0
   58.3980   27.1910   46.4760 C   0  0  0  0  0  0  0  0  0  0  0  0
   58.1264   26.4493   47.2416 H   0  0  0  0  0  0  0  0  0  0  0  0
   59.7410   27.3480   46.1000 C   0  0  0  0  0  0  0  0  0  0  0  0
   60.8020   26.4850   46.7170 C   0  0  0  0  0  0  0  0  0  0  0  0
   60.7304   26.5432   47.8131 H   0  0  0  0  0  0  0  0  0  0  0  0
   60.6600   25.4428   46.3951 H   0  0  0  0  0  0  0  0  0  0  0  0
   61.7934   26.8363   46.3951 H   0  0  0  0  0  0  0  0  0  0  0  0
  1  2  1  0
  2  3  2  0
  3  4  1  0
  3  5  1  0
  5  6  1  0
  6  7  2  0
  6  8  2  0
  6  9  1  0
  9 10  2  0
 10 11  1  0
 11 12  1  0
 12 13  2  0
 13 14  1  0
 13 15  1  0
 15 16  1  0
 15 17  2  0
 17 18  1  0
 18 19  1  0
 19 20  2  0
 20 21  1  0
 20 22  1  0
 22 23  1  0
 22 24  2  0
 24 25  1  0
 24 26  1  0
 26 27  1  0
 26 28  2  0
 28 29  1  0
 17 30  1  0
 30 31  1  0
 30 32  2  0
 32 33  1  0
 33 34  2  0
 34 35  1  0
  5 36  2  0
 36 37  1  0
 36 38  1  0
 38 39  1  0
 38 40  2  0
 40 41  1  0
 41 42  1  0
 41 43  1  0
 41 44  1  0
 40  2  1  0
 34 10  1  0
 32 12  1  0
 28 19  1  0
M  CHG  2  11  -1  24   1
M  END
>  <UniqueID>  (83) 
68

>  <SMILES>  (83) 
Cc1ccc(S(=O)(=O)/N=c2/cnc3cc(Oc4cc[nH+]cc4)ccc3[n-]2)cc1

>  <Energy>  (83) 
60.70836732464095

>  <Genealogy>  (83) 
Cc1ccc(S(=O)(=O)N=c2cnc3cc(Oc4cc[nH+]cc4)ccc3[n-]2)cc1 (protonated)
Cc1ccc(S(=O)(=O)/N=c2/cnc3cc(Oc4cc[nH+]cc4)ccc3[n-]2)cc1 (cis-trans isomerization)
Cc1ccc(S(=O)(=O)/N=c2/cnc3cc(Oc4cc[nH+]cc4)ccc3[n-]2)cc1 (3D coordinates assigned)
Cc1ccc(S(=O)(=O)/N=c2/cnc3cc(Oc4cc[nH+]cc4)ccc3[n-]2)cc1 (optimized conformer: 60.70836732464095 kcal/mol)

>  <smiles>  (83) 
Cc1ccc(S(=O)(=O)N=c2cnc3cc(Oc4ccncc4)ccc3[nH]2)cc1

>  <score_type>  (83) 
oracle

>  <origin>  (83) 
adg

>  <m_score__min__energy>  (83) 
-9.0299999999999994

>  <m_primary>  (83) 
energy

$$$$
83:0
     RDKit          3D

 42 44  0  0  0  0  0  0  0  0999 V2000
   55.1490   29.3590   44.8580 N   0  0  0  0  0  0  0  0  0  0  0  0
   56.7450   30.0230   44.8010 S   0  0  0  0  0  0  0  0  0  0  0  0
   56.6650   31.5170   44.9280 O   0  0  0  0  0  0  0  0  0  0  0  0
   57.3650   29.6650   43.4790 O   0  0  0  0  0  0  0  0  0  0  0  0
   57.7280   29.3750   46.1160 C   0  0  0  0  0  0  0  0  0  0  0  0
   58.6220   30.2140   46.7940 C   0  0  0  0  0  0  0  0  0  0  0  0
   59.3770   29.7350   47.8790 C   0  0  0  0  0  0  0  0  0  0  0  0
   60.2820   30.6360   48.6330 C   0  0  0  0  0  0  0  0  0  0  0  0
   61.4830   30.7480   48.2720 O   0  0  0  0  0  0  0  0  0  0  0  0
   59.8210   31.4270   49.7380 N   0  0  0  0  0  0  0  0  0  0  0  0
   58.6980   31.1300   50.5810 C   0  0  0  0  0  0  0  0  0  0  0  0
   57.7910   32.1500   50.8860 C   0  0  0  0  0  0  0  0  0  0  0  0
   56.6740   31.8890   51.6840 C   0  0  0  0  0  0  0  0  0  0  0  0
   56.4570   30.6010   52.2100 C   0  0  0  0  0  0  0  0  0  0  0  0
   55.2670   30.3210   53.0480 C   0  0  0  0  0  0  0  0  0  0  0  0
   55.3490   30.4280   54.3020 O   0  0  0  0  0  0  0  0  0  0  0  0
   54.0080   30.0150   52.4210 N   0  0  0  0  0  0  0  0  0  0  0  0
   52.9710   30.7810   52.2210 C   0  0  0  0  0  0  0  0  0  0  0  0
   52.0850   31.1770   53.2470 C   0  0  0  0  0  0  0  0  0  0  0  0
   50.9970   31.9970   52.9390 C   0  0  0  0  0  0  0  0  0  0  0  0
   50.7830   32.4010   51.6600 N   0  0  0  0  0  0  0  0  0  0  0  0
   51.6080   32.0240   50.6490 C   0  0  0  0  0  0  0  0  0  0  0  0
   52.7080   31.2050   50.9110 C   0  0  0  0  0  0  0  0  0  0  0  0
   57.3910   29.5880   51.9300 C   0  0  0  0  0  0  0  0  0  0  0  0
   58.5060   29.8520   51.1300 C   0  0  0  0  0  0  0  0  0  0  0  0
   59.2730   28.3800   48.2350 C   0  0  0  0  0  0  0  0  0  0  0  0
   58.4080   27.5320   47.5420 C   0  0  0  0  0  0  0  0  0  0  0  0
   57.6300   28.0220   46.4840 C   0  0  0  0  0  0  0  0  0  0  0  0
   56.7670   27.1670   45.8000 O   0  0  0  0  0  0  0  0  0  0  0  0
   55.1420   28.6440   45.6190 H   0  0  0  0  0  0  0  0  0  0  0  0
   58.7346   31.2602   46.4735 H   0  0  0  0  0  0  0  0  0  0  0  0
   57.9581   33.1645   50.4951 H   0  0  0  0  0  0  0  0  0  0  0  0
   55.9589   32.6957   51.9029 H   0  0  0  0  0  0  0  0  0  0  0  0
   52.2506   30.8420   54.2816 H   0  0  0  0  0  0  0  0  0  0  0  0
   50.3101   32.3172   53.7362 H   0  0  0  0  0  0  0  0  0  0  0  0
   51.4092   32.3645   49.6221 H   0  0  0  0  0  0  0  0  0  0  0  0
   53.3686   30.8923   50.0890 H   0  0  0  0  0  0  0  0  0  0  0  0
   57.2429   28.5797   52.3439 H   0  0  0  0  0  0  0  0  0  0  0  0
   59.2368   29.0547   50.9294 H   0  0  0  0  0  0  0  0  0  0  0  0
   59.8771   27.9850   49.0651 H   0  0  0  0  0  0  0  0  0  0  0  0
   58.3363   26.4722   47.8279 H   0  0  0  0  0  0  0  0  0  0  0  0
   56.2630   27.4700   44.9750 H   0  0  0  0  0  0  0  0  0  0  0  0
  1  2  1  0
  2  3  2  0
  2  4  2  0
  2  5  1  0
  5  6  2  0
  6  7  1  0
  7  8  1  0
  8  9  2  0
  8 10  1  0
 10 11  1  0
 11 12  2  0
 12 13  1  0
 13 14  2  0
 14 15  1  0
 15 16  2  0
 15 17  1  0
 17 18  2  3
 18 19  1  0
 19 20  2  0
 20 21  1  0
 21 22  1  0
 22 23  2  0
 14 24  1  0
 24 25  2  0
  7 26  2  0
 26 27  1  0
 27 28  2  0
 28 29  1  0
 28  5  1  0
 25 11  1  0
 23 18  1  0
  1 30  1  0
  6 31  1  0
 12 32  1  0
 13 33  1  0
 19 34  1  0
 20 35  1  0
 22 36  1  0
 23 37  1  0
 24 38  1  0
 25 39  1  0
 26 40  1  0
 27 41  1  0
 29 42  1  0
M  CHG  3   1  -1  10  -1  21  -1
M  END
>  <UniqueID>  (84) 
69

>  <SMILES>  (84) 
[NH-]S(=O)(=O)c1cc(C(=O)[N-]c2ccc(C(=O)N=c3cc[n-]cc3)cc2)ccc1O

>  <Energy>  (84) 
60.56083226981935

>  <Genealogy>  (84) 
[NH-]S(=O)(=O)c1cc(C(=O)[N-]c2ccc(C(=O)N=c3cc[n-]cc3)cc2)ccc1O (protonated)
[NH-]S(=O)(=O)c1cc(C(=O)[N-]c2ccc(C(=O)N=c3cc[n-]cc3)cc2)ccc1O (3D coordinates assigned)
[NH-]S(=O)(=O)c1cc(C(=O)[N-]c2ccc(C(=O)N=c3cc[n-]cc3)cc2)ccc1O (optimized conformer: 60.56083226981935 kcal/mol)

>  <smiles>  (84) 
NS(=O)(=O)c1cc(C(=O)Nc2ccc(C(=O)N=c3cc[nH]cc3)cc2)ccc1O

>  <score_type>  (84) 
oracle

>  <origin>  (84) 
adg

>  <m_score__min__energy>  (84) 
-14.529999999999999

>  <m_primary>  (84) 
energy

$$$$
84:0
     RDKit          3D

 46 48  0  0  0  0  0  0  0  0999 V2000
   59.7693   26.9089   46.3713 H   0  0  0  0  0  0  0  0  0  0  0  0
   58.6760   26.8060   46.3070 C   0  0  0  0  0  0  0  0  0  0  0  0
   57.9410   27.7590   45.6780 N   0  0  0  0  0  0  0  0  0  0  0  0
   56.5860   27.6870   45.5660 C   0  0  0  0  0  0  0  0  0  0  0  0
   55.9760   28.6640   44.9500 N   0  0  0  0  0  0  0  0  0  0  0  0
   56.3700   30.0380   44.8680 C   0  0  0  0  0  0  0  0  0  0  0  0
   55.6410   30.8440   44.2320 O   0  0  0  0  0  0  0  0  0  0  0  0
   57.6090   30.4720   45.4550 N   0  0  0  0  0  0  0  0  0  0  0  0
   58.1440   29.7780   46.0230 H   0  0  0  0  0  0  0  0  0  0  0  0
   58.0850   31.8280   45.4310 C   0  0  0  0  0  0  0  0  0  0  0  0
   58.1110   32.5220   44.2140 C   0  0  0  0  0  0  0  0  0  0  0  0
   57.7846   32.0194   43.2916 H   0  0  0  0  0  0  0  0  0  0  0  0
   58.5480   33.8460   44.1640 C   0  0  0  0  0  0  0  0  0  0  0  0
   58.5744   34.3791   43.2022 H   0  0  0  0  0  0  0  0  0  0  0  0
   58.9520   34.4960   45.3320 C   0  0  0  0  0  0  0  0  0  0  0  0
   59.3038   35.5371   45.2846 H   0  0  0  0  0  0  0  0  0  0  0  0
   58.9120   33.8310   46.5620 C   0  0  0  0  0  0  0  0  0  0  0  0
   59.3210   34.5300   47.7060 O   0  0  0  0  0  0  0  0  0  0  0  0
   60.3800   34.1240   48.5710 C   0  0  0  0  0  0  0  0  0  0  0  0
   61.3283   34.1287   48.0135 H   0  0  0  0  0  0  0  0  0  0  0  0
   60.4431   34.8225   49.4184 H   0  0  0  0  0  0  0  0  0  0  0  0
   60.1090   32.7110   49.1010 C   0  0  0  0  0  0  0  0  0  0  0  0
   59.8894   32.7732   50.1771 H   0  0  0  0  0  0  0  0  0  0  0  0
   59.2574   32.2993   48.5395 H   0  0  0  0  0  0  0  0  0  0  0  0
   61.2650   31.8020   48.9020 N   0  0  0  0  0  0  0  0  0  0  0  0
   61.0830   30.4710   49.5190 C   0  0  0  0  0  0  0  0  0  0  0  0
   62.0384   29.9272   49.4807 H   0  0  0  0  0  0  0  0  0  0  0  0
   60.7531   30.6181   50.5580 H   0  0  0  0  0  0  0  0  0  0  0  0
   60.0040   29.6400   48.7850 C   0  0  0  0  0  0  0  0  0  0  0  0
   60.3519   28.5988   48.7155 H   0  0  0  0  0  0  0  0  0  0  0  0
   59.0736   29.7269   49.3653 H   0  0  0  0  0  0  0  0  0  0  0  0
   59.7300   30.1120   47.4760 O   0  0  0  0  0  0  0  0  0  0  0  0
   60.9310   30.4360   46.8100 C   0  0  0  0  0  0  0  0  0  0  0  0
   61.6137   29.5749   46.8582 H   0  0  0  0  0  0  0  0  0  0  0  0
   60.6985   30.6822   45.7634 H   0  0  0  0  0  0  0  0  0  0  0  0
   61.6100   31.6580   47.4670 C   0  0  0  0  0  0  0  0  0  0  0  0
   62.7005   31.5453   47.3769 H   0  0  0  0  0  0  0  0  0  0  0  0
   61.2495   32.5577   46.9469 H   0  0  0  0  0  0  0  0  0  0  0  0
   58.4670   32.4950   46.6100 C   0  0  0  0  0  0  0  0  0  0  0  0
   58.4178   31.9698   47.5753 H   0  0  0  0  0  0  0  0  0  0  0  0
   55.9200   26.5470   46.0890 C   0  0  0  0  0  0  0  0  0  0  0  0
   54.5560   26.3400   45.9220 O   0  0  0  0  0  0  0  0  0  0  0  0
   56.6640   25.5700   46.7550 C   0  0  0  0  0  0  0  0  0  0  0  0
   56.1563   24.6963   47.1896 H   0  0  0  0  0  0  0  0  0  0  0  0
   58.0470   25.6980   46.8710 C   0  0  0  0  0  0  0  0  0  0  0  0
   58.6345   24.9339   47.4011 H   0  0  0  0  0  0  0  0  0  0  0  0
  1  2  1  0
  2  3  1  0
  3  4  1  0
  4  5  2  0
  5  6  1  0
  6  7  2  0
  6  8  1  0
  8  9  1  0
  8 10  1  0
 10 11  2  0
 11 12  1  0
 11 13  1  0
 13 14  1  0
 13 15  2  0
 15 16  1  0
 15 17  1  0
 17 18  1  0
 18 19  1  0
 19 20  1  0
 19 21  1  0
 19 22  1  0
 22 23  1  0
 22 24  1  0
 22 25  1  0
 25 26  1  0
 26 27  1  0
 26 28  1  0
 26 29  1  0
 29 30  1  0
 29 31  1  0
 29 32  1  0
 32 33  1  0
 33 34  1  0
 33 35  1  0
 33 36  1  0
 36 37  1  0
 36 38  1  0
 17 39  2  0
 39 40  1  0
  4 41  1  0
 41 42  1  0
 41 43  2  0
 43 44  1  0
 43 45  1  0
 45 46  1  0
 45  2  2  0
 39 10  1  0
 36 25  1  0
M  CHG  2   3  -1  42  -1
M  END
>  <UniqueID>  (85) 
70

>  <SMILES>  (85) 
O=C(/N=c1/[n-]cccc1[O-])Nc1cccc(OCCN2CCOCC2)c1

>  <Energy>  (85) 
75.91620261874536

>  <Genealogy>  (85) 
O=C(N=c1[n-]cccc1[O-])Nc1cccc(OCCN2CCOCC2)c1 (protonated)
O=C(/N=c1/[n-]cccc1[O-])Nc1cccc(OCCN2CCOCC2)c1 (cis-trans isomerization)
O=C(/N=c1/[n-]cccc1[O-])Nc1cccc(OCCN2CCOCC2)c1 (3D coordinates assigned)
O=C(/N=c1/[n-]cccc1[O-])Nc1cccc(OCCN2CCOCC2)c1 (nonaromatic ring conformer: 75.91620261874536 kcal/mol)

>  <smiles>  (85) 
O=C(N=c1[nH]cccc1O)Nc1cccc(OCCN2CCOCC2)c1

>  <score_type>  (85) 
oracle

>  <origin>  (85) 
adg

>  <m_score__min__energy>  (85) 
-13.15

>  <m_primary>  (85) 
energy

$$$$
85:0
     RDKit          3D

 37 38  0  0  0  0  0  0  0  0999 V2000
   56.0878   32.2999   45.5282 H   0  0  0  0  0  0  0  0  0  0  0  0
   56.9820   32.1320   44.9100 C   0  0  0  0  0  0  0  0  0  0  0  0
   57.0140   30.9120   44.0740 C   0  0  0  0  0  0  0  0  0  0  0  0
   56.6110   30.9990   42.8840 O   0  0  0  0  0  0  0  0  0  0  0  0
   57.4580   29.5930   44.5880 C   0  0  0  0  0  0  0  0  0  0  0  0
   58.8150   29.2590   44.5140 C   0  0  0  0  0  0  0  0  0  0  0  0
   59.5249   29.9626   44.0547 H   0  0  0  0  0  0  0  0  0  0  0  0
   59.2750   28.0450   45.0160 C   0  0  0  0  0  0  0  0  0  0  0  0
   60.3473   27.8059   44.9609 H   0  0  0  0  0  0  0  0  0  0  0  0
   58.3890   27.1230   45.5910 C   0  0  0  0  0  0  0  0  0  0  0  0
   58.9420   25.8140   46.0940 C   0  0  0  0  0  0  0  0  0  0  0  0
   58.9418   25.8144   47.1940 H   0  0  0  0  0  0  0  0  0  0  0  0
   58.3165   24.9867   45.7275 H   0  0  0  0  0  0  0  0  0  0  0  0
   59.9712   25.6857   45.7275 H   0  0  0  0  0  0  0  0  0  0  0  0
   57.0070   27.4400   45.6740 C   0  0  0  0  0  0  0  0  0  0  0  0
   56.0290   26.5100   46.2960 C   0  0  0  0  0  0  0  0  0  0  0  0
   54.8100   26.5530   45.9830 O   0  0  0  0  0  0  0  0  0  0  0  0
   56.4500   25.5620   47.2210 O   0  0  0  0  0  0  0  0  0  0  0  0
   56.5500   28.6700   45.1490 C   0  0  0  0  0  0  0  0  0  0  0  0
   55.1930   28.9790   45.1840 O   0  0  0  0  0  0  0  0  0  0  0  0
   57.9590   33.0500   44.9730 C   0  0  0  0  0  0  0  0  0  0  0  0
   57.8449   33.9686   44.3787 H   0  0  0  0  0  0  0  0  0  0  0  0
   59.1800   32.9000   45.7940 C   0  0  0  0  0  0  0  0  0  0  0  0
   59.7940   31.9988   45.6493 H   0  0  0  0  0  0  0  0  0  0  0  0
   59.5820   33.7980   46.7040 C   0  0  0  0  0  0  0  0  0  0  0  0
   58.8958   34.6244   46.9409 H   0  0  0  0  0  0  0  0  0  0  0  0
   60.8800   33.7610   47.4140 C   0  0  0  0  0  0  0  0  0  0  0  0
   62.0740   33.4700   46.7260 C   0  0  0  0  0  0  0  0  0  0  0  0
   62.0425   33.2342   45.6520 H   0  0  0  0  0  0  0  0  0  0  0  0
   63.2980   33.4790   47.3990 C   0  0  0  0  0  0  0  0  0  0  0  0
   64.2241   33.2361   46.8574 H   0  0  0  0  0  0  0  0  0  0  0  0
   63.3480   33.7960   48.7590 C   0  0  0  0  0  0  0  0  0  0  0  0
   64.3121   33.7968   49.2886 H   0  0  0  0  0  0  0  0  0  0  0  0
   62.1730   34.1120   49.4460 C   0  0  0  0  0  0  0  0  0  0  0  0
   62.2151   34.3680   50.5150 H   0  0  0  0  0  0  0  0  0  0  0  0
   60.9430   34.1040   48.7790 C   0  0  0  0  0  0  0  0  0  0  0  0
   59.7850   34.4280   49.4790 O   0  0  0  0  0  0  0  0  0  0  0  0
  1  2  1  0
  2  3  1  0
  3  4  2  0
  3  5  1  0
  5  6  2  0
  6  7  1  0
  6  8  1  0
  8  9  1  0
  8 10  2  0
 10 11  1  0
 11 12  1  0
 11 13  1  0
 11 14  1  0
 10 15  1  0
 15 16  1  0
 16 17  2  0
 16 18  1  0
 15 19  2  0
 19 20  1  0
  2 21  2  0
 21 22  1  0
 21 23  1  0
 23 24  1  0
 23 25  2  0
 25 26  1  0
 25 27  1  0
 27 28  2  0
 28 29  1  0
 28 30  1  0
 30 31  1  0
 30 32  2  0
 32 33  1  0
 32 34  1  0
 34 35  1  0
 34 36  2  0
 36 37  1  0
 19  5  1  0
 36 27  1  0
M  CHG  3  18  -1  20  -1  37  -1
M  END
>  <UniqueID>  (86) 
71

>  <SMILES>  (86) 
Cc1ccc(C(=O)/C=C\C=C/c2ccccc2[O-])c([O-])c1C(=O)[O-]

>  <Energy>  (86) 
58.47047331468288

>  <Genealogy>  (86) 
Cc1ccc(C(=O)C=CC=Cc2ccccc2[O-])c([O-])c1C(=O)[O-] (protonated)
Cc1ccc(C(=O)/C=C\C=C/c2ccccc2[O-])c([O-])c1C(=O)[O-] (cis-trans isomerization)
Cc1ccc(C(=O)/C=C\C=C/c2ccccc2[O-])c([O-])c1C(=O)[O-] (3D coordinates assigned)
Cc1ccc(C(=O)/C=C\C=C/c2ccccc2[O-])c([O-])c1C(=O)[O-] (optimized conformer: 58.47047331468288 kcal/mol)

>  <smiles>  (86) 
Cc1ccc(C(=O)C=CC=Cc2ccccc2O)c(O)c1C(=O)O

>  <score_type>  (86) 
oracle

>  <origin>  (86) 
adg

>  <m_score__min__energy>  (86) 
-15.9

>  <m_primary>  (86) 
energy

$$$$
86:0
     RDKit          3D

 37 39  0  0  0  0  0  0  0  0999 V2000
   62.5930   31.5890   48.1990 C   0  0  0  0  0  0  0  0  0  0  0  0
   61.4220   31.9610   47.3820 N   0  0  0  0  0  0  0  0  0  0  0  0
   60.6430   30.9840   46.8280 C   0  0  0  0  0  0  0  0  0  0  0  0
   60.9340   29.7660   47.0020 O   0  0  0  0  0  0  0  0  0  0  0  0
   59.5180   31.3250   46.0670 C   0  0  0  0  0  0  0  0  0  0  0  0
   58.7130   30.3340   45.4700 C   0  0  0  0  0  0  0  0  0  0  0  0
   57.5900   30.6870   44.7200 C   0  0  0  0  0  0  0  0  0  0  0  0
   56.5840   29.4350   43.9940 S   0  0  0  0  0  0  0  0  0  0  0  0
   57.4320   28.6070   43.0710 O   0  0  0  0  0  0  0  0  0  0  0  0
   55.4600   30.0480   43.2060 O   0  0  0  0  0  0  0  0  0  0  0  0
   55.9190   28.4050   45.2270 N   0  0  0  0  0  0  0  0  0  0  0  0
   56.4020   27.2660   45.6310 C   0  0  0  0  0  0  0  0  0  0  0  0
   57.7870   27.0130   45.7120 C   0  0  0  0  0  0  0  0  0  0  0  0
   58.2330   25.7630   46.1460 C   0  0  0  0  0  0  0  0  0  0  0  0
   57.3100   24.7780   46.4980 C   0  0  0  0  0  0  0  0  0  0  0  0
   55.9470   25.0590   46.4100 C   0  0  0  0  0  0  0  0  0  0  0  0
   55.5300   26.2810   45.9840 N   0  0  0  0  0  0  0  0  0  0  0  0
   57.2690   32.0330   44.5480 C   0  0  0  0  0  0  0  0  0  0  0  0
   58.0560   33.0260   45.1330 C   0  0  0  0  0  0  0  0  0  0  0  0
   59.1950   32.6930   45.9060 C   0  0  0  0  0  0  0  0  0  0  0  0
   59.9800   33.6550   46.5050 N   0  0  0  0  0  0  0  0  0  0  0  0
   59.6450   35.0870   46.3590 C   0  0  0  0  0  0  0  0  0  0  0  0
   61.0770   33.2820   47.2470 C   0  0  0  0  0  0  0  0  0  0  0  0
   61.7800   34.1650   47.8180 O   0  0  0  0  0  0  0  0  0  0  0  0
   62.3367   31.6704   49.2656 H   0  0  0  0  0  0  0  0  0  0  0  0
   62.8857   30.5536   47.9702 H   0  0  0  0  0  0  0  0  0  0  0  0
   63.4296   32.2656   47.9702 H   0  0  0  0  0  0  0  0  0  0  0  0
   58.9722   29.2725   45.5963 H   0  0  0  0  0  0  0  0  0  0  0  0
   58.5103   27.7943   45.4355 H   0  0  0  0  0  0  0  0  0  0  0  0
   59.3113   25.5552   46.2103 H   0  0  0  0  0  0  0  0  0  0  0  0
   57.6535   23.7909   46.8411 H   0  0  0  0  0  0  0  0  0  0  0  0
   55.2087   24.2915   46.6854 H   0  0  0  0  0  0  0  0  0  0  0  0
   56.3908   32.3136   43.9480 H   0  0  0  0  0  0  0  0  0  0  0  0
   57.7876   34.0833   44.9916 H   0  0  0  0  0  0  0  0  0  0  0  0
   59.5386   35.5420   47.3548 H   0  0  0  0  0  0  0  0  0  0  0  0
   60.4481   35.5970   45.8068 H   0  0  0  0  0  0  0  0  0  0  0  0
   58.6990   35.1878   45.8068 H   0  0  0  0  0  0  0  0  0  0  0  0
  1  2  1  0
  2  3  1  0
  3  4  2  0
  3  5  1  0
  5  6  2  0
  6  7  1  0
  7  8  1  0
  8  9  2  0
  8 10  2  0
  8 11  1  0
 11 12  2  3
 12 13  1  0
 13 14  2  0
 14 15  1  0
 15 16  2  0
 16 17  1  0
  7 18  2  0
 18 19  1  0
 19 20  2  0
 20 21  1  0
 21 22  1  0
 21 23  1  0
 23 24  2  0
 23  2  1  0
 20  5  1  0
 17 12  1  0
  1 25  1  0
  1 26  1  0
  1 27  1  0
  6 28  1  0
 13 29  1  0
 14 30  1  0
 15 31  1  0
 16 32  1  0
 18 33  1  0
 19 34  1  0
 22 35  1  0
 22 36  1  0
 22 37  1  0
M  CHG  1  17  -1
M  END
>  <UniqueID>  (87) 
72

>  <SMILES>  (87) 
Cn1c(=O)c2cc(S(=O)(=O)N=c3cccc[n-]3)ccc2n(C)c1=O

>  <Energy>  (87) 
60.38758215458486

>  <Genealogy>  (87) 
Cn1c(=O)c2cc(S(=O)(=O)N=c3cccc[n-]3)ccc2n(C)c1=O (protonated)
Cn1c(=O)c2cc(S(=O)(=O)N=c3cccc[n-]3)ccc2n(C)c1=O (3D coordinates assigned)
Cn1c(=O)c2cc(S(=O)(=O)N=c3cccc[n-]3)ccc2n(C)c1=O (optimized conformer: 60.38758215458486 kcal/mol)

>  <smiles>  (87) 
Cn1c(=O)c2cc(S(=O)(=O)N=c3cccc[nH]3)ccc2n(C)c1=O

>  <score_type>  (87) 
oracle

>  <origin>  (87) 
adg

>  <m_score__min__energy>  (87) 
-9.9299999999999997

>  <m_primary>  (87) 
energy

$$$$
87:0
     RDKit          3D

 51 53  0  0  0  0  0  0  0  0999 V2000
   58.8710   27.5650   44.2150 C   0  0  0  0  0  0  0  0  0  0  0  0
   57.8750   28.7240   44.1280 C   0  0  0  0  0  0  0  0  0  0  0  0
   58.2480   29.7930   45.0640 N   0  0  0  0  0  0  0  0  0  0  0  0
   59.3650   29.5960   46.0030 C   0  0  0  0  0  0  0  0  0  0  0  0
   58.8890   29.4030   47.4190 C   0  0  0  0  0  0  0  0  0  0  0  0
   58.3830   28.3010   47.7510 O   0  0  0  0  0  0  0  0  0  0  0  0
   58.8890   30.4710   48.3700 N   0  0  0  0  0  0  0  0  0  0  0  0
   59.9050   30.7120   49.3480 C   0  0  0  0  0  0  0  0  0  0  0  0
   61.2120   30.2500   49.1340 C   0  0  0  0  0  0  0  0  0  0  0  0
   62.2040   30.4620   50.0980 C   0  0  0  0  0  0  0  0  0  0  0  0
   61.8880   31.1160   51.2910 C   0  0  0  0  0  0  0  0  0  0  0  0
   60.5770   31.5420   51.5290 C   0  0  0  0  0  0  0  0  0  0  0  0
   59.5810   31.3350   50.5640 C   0  0  0  0  0  0  0  0  0  0  0  0
   57.7960   31.9270   50.9250 Br  0  0  0  0  0  0  0  0  0  0  0  0
   57.4480   30.9890   45.1190 C   0  0  0  0  0  0  0  0  0  0  0  0
   56.2130   30.9280   44.8680 O   0  0  0  0  0  0  0  0  0  0  0  0
   58.0430   32.2960   45.4470 C   0  0  0  0  0  0  0  0  0  0  0  0
   57.9390   33.3590   44.5470 C   0  0  0  0  0  0  0  0  0  0  0  0
   58.5150   34.5820   44.8680 C   0  0  0  0  0  0  0  0  0  0  0  0
   59.1590   34.7280   46.0980 C   0  0  0  0  0  0  0  0  0  0  0  0
   59.6720   35.8410   46.3960 O   0  0  0  0  0  0  0  0  0  0  0  0
   59.2120   33.6700   46.9730 N   0  0  0  0  0  0  0  0  0  0  0  0
   59.7620   33.8510   48.3280 C   0  0  0  0  0  0  0  0  0  0  0  0
   61.2570   33.6180   48.3220 C   0  0  0  0  0  0  0  0  0  0  0  0
   62.0340   33.9890   49.4330 C   0  0  0  0  0  0  0  0  0  0  0  0
   63.4250   33.8340   49.4050 C   0  0  0  0  0  0  0  0  0  0  0  0
   64.0520   33.2960   48.2760 C   0  0  0  0  0  0  0  0  0  0  0  0
   63.2840   32.9050   47.1740 C   0  0  0  0  0  0  0  0  0  0  0  0
   61.8900   33.0610   47.1960 C   0  0  0  0  0  0  0  0  0  0  0  0
   58.6860   32.4830   46.6340 N   0  0  0  0  0  0  0  0  0  0  0  0
   59.0712   27.3321   45.2713 H   0  0  0  0  0  0  0  0  0  0  0  0
   58.4476   26.6796   43.7181 H   0  0  0  0  0  0  0  0  0  0  0  0
   59.8100   27.8504   43.7181 H   0  0  0  0  0  0  0  0  0  0  0  0
   57.8734   29.1240   43.1033 H   0  0  0  0  0  0  0  0  0  0  0  0
   56.8734   28.3534   44.3914 H   0  0  0  0  0  0  0  0  0  0  0  0
   59.9336   28.7059   45.6957 H   0  0  0  0  0  0  0  0  0  0  0  0
   59.9920   30.4994   45.9771 H   0  0  0  0  0  0  0  0  0  0  0  0
   61.4586   29.7181   48.2033 H   0  0  0  0  0  0  0  0  0  0  0  0
   63.2316   30.1139   49.9164 H   0  0  0  0  0  0  0  0  0  0  0  0
   62.6700   31.2961   52.0434 H   0  0  0  0  0  0  0  0  0  0  0  0
   60.3265   32.0412   52.4767 H   0  0  0  0  0  0  0  0  0  0  0  0
   57.4063   33.2292   43.5934 H   0  0  0  0  0  0  0  0  0  0  0  0
   58.4642   35.4242   44.1622 H   0  0  0  0  0  0  0  0  0  0  0  0
   59.5556   34.8760   48.6697 H   0  0  0  0  0  0  0  0  0  0  0  0
   59.2890   33.1258   49.0065 H   0  0  0  0  0  0  0  0  0  0  0  0
   61.5470   34.4029   50.3283 H   0  0  0  0  0  0  0  0  0  0  0  0
   64.0275   34.1364   50.2742 H   0  0  0  0  0  0  0  0  0  0  0  0
   65.1457   33.1808   48.2549 H   0  0  0  0  0  0  0  0  0  0  0  0
   63.7742   32.4743   46.2884 H   0  0  0  0  0  0  0  0  0  0  0  0
   61.2897   32.7466   46.3295 H   0  0  0  0  0  0  0  0  0  0  0  0
   58.7390   31.6780   47.3040 H   0  0  0  0  0  0  0  0  0  0  0  0
  1  2  1  0
  2  3  1  0
  3  4  1  0
  4  5  1  0
  5  6  2  0
  5  7  1  0
  7  8  1  0
  8  9  2  0
  9 10  1  0
 10 11  2  0
 11 12  1  0
 12 13  2  0
 13 14  1  0
  3 15  1  0
 15 16  2  0
 15 17  1  0
 17 18  1  0
 18 19  2  0
 19 20  1  0
 20 21  2  0
 20 22  1  0
 22 23  1  0
 23 24  1  0
 24 25  2  0
 25 26  1  0
 26 27  2  0
 27 28  1  0
 28 29  2  0
 22 30  1  0
 13  8  1  0
 30 17  2  0
 29 24  1  0
  1 31  1  0
  1 32  1  0
  1 33  1  0
  2 34  1  0
  2 35  1  0
  4 36  1  0
  4 37  1  0
  9 38  1  0
 10 39  1  0
 11 40  1  0
 12 41  1  0
 18 42  1  0
 19 43  1  0
 23 44  1  0
 23 45  1  0
 25 46  1  0
 26 47  1  0
 27 48  1  0
 28 49  1  0
 29 50  1  0
 30 51  1  0
M  CHG  2   7  -1  30   1
M  END
>  <UniqueID>  (88) 
73

>  <SMILES>  (88) 
CCN(CC(=O)[N-]c1ccccc1Br)C(=O)c1ccc(=O)n(Cc2ccccc2)[nH+]1

>  <Energy>  (88) 
59.42192483927938

>  <Genealogy>  (88) 
CCN(CC(=O)[N-]c1ccccc1Br)C(=O)c1ccc(=O)n(Cc2ccccc2)[nH+]1 (protonated)
CCN(CC(=O)[N-]c1ccccc1Br)C(=O)c1ccc(=O)n(Cc2ccccc2)[nH+]1 (3D coordinates assigned)
CCN(CC(=O)[N-]c1ccccc1Br)C(=O)c1ccc(=O)n(Cc2ccccc2)[nH+]1 (optimized conformer: 59.42192483927938 kcal/mol)

>  <smiles>  (88) 
CCN(CC(=O)Nc1ccccc1Br)C(=O)c1ccc(=O)n(Cc2ccccc2)n1

>  <score_type>  (88) 
oracle

>  <origin>  (88) 
adg

>  <m_score__min__energy>  (88) 
-8.0800000000000001

>  <m_primary>  (88) 
energy

$$$$
88:0
     RDKit          3D

 39 41  0  0  0  0  0  0  0  0999 V2000
   54.4680   26.9690   45.9990 H   0  0  0  0  0  0  0  0  0  0  0  0
   55.4080   26.6350   46.1830 O   0  0  0  0  0  0  0  0  0  0  0  0
   56.5240   27.4380   45.9590 C   0  0  0  0  0  0  0  0  0  0  0  0
   57.7860   27.0490   46.4350 C   0  0  0  0  0  0  0  0  0  0  0  0
   57.8963   26.1022   46.9841 H   0  0  0  0  0  0  0  0  0  0  0  0
   58.9090   27.8640   46.2130 C   0  0  0  0  0  0  0  0  0  0  0  0
   60.2710   27.4310   46.6960 C   0  0  0  0  0  0  0  0  0  0  0  0
   61.0363   28.0109   46.1594 H   0  0  0  0  0  0  0  0  0  0  0  0
   60.3682   26.3531   46.4991 H   0  0  0  0  0  0  0  0  0  0  0  0
   60.4540   27.6450   48.1830 C   0  0  0  0  0  0  0  0  0  0  0  0
   61.0310   26.7610   48.8730 O   0  0  0  0  0  0  0  0  0  0  0  0
   59.9910   28.8290   48.8560 N   0  0  0  0  0  0  0  0  0  0  0  0
   60.3880   30.0580   48.6990 C   0  0  0  0  0  0  0  0  0  0  0  0
   61.6140   30.4210   48.2610 N   0  0  0  0  0  0  0  0  0  0  0  0
   61.7450   31.7720   48.1930 C   0  0  0  0  0  0  0  0  0  0  0  0
   63.3350   32.5630   47.4840 Br  0  0  0  0  0  0  0  0  0  0  0  0
   60.6110   32.4880   48.5910 C   0  0  0  0  0  0  0  0  0  0  0  0
   60.4190   33.9470   48.5820 C   0  0  0  0  0  0  0  0  0  0  0  0
   61.0835   34.5521   49.2163 H   0  0  0  0  0  0  0  0  0  0  0  0
   59.4930   34.5940   47.8570 C   0  0  0  0  0  0  0  0  0  0  0  0
   59.1769   35.5861   48.2116 H   0  0  0  0  0  0  0  0  0  0  0  0
   58.8620   34.0820   46.6190 C   0  0  0  0  0  0  0  0  0  0  0  0
   57.6320   33.4100   46.7110 C   0  0  0  0  0  0  0  0  0  0  0  0
   57.1638   33.2588   47.6948 H   0  0  0  0  0  0  0  0  0  0  0  0
   56.9990   32.9320   45.5590 C   0  0  0  0  0  0  0  0  0  0  0  0
   56.0440   32.3924   45.6408 H   0  0  0  0  0  0  0  0  0  0  0  0
   57.5780   33.1390   44.3050 C   0  0  0  0  0  0  0  0  0  0  0  0
   57.0835   32.7547   43.4007 H   0  0  0  0  0  0  0  0  0  0  0  0
   58.7850   33.8340   44.1990 C   0  0  0  0  0  0  0  0  0  0  0  0
   59.2358   34.0040   43.2101 H   0  0  0  0  0  0  0  0  0  0  0  0
   59.4210   34.3140   45.3480 C   0  0  0  0  0  0  0  0  0  0  0  0
   60.3626   34.8756   45.2583 H   0  0  0  0  0  0  0  0  0  0  0  0
   59.4070   31.3860   49.0010 S   0  0  0  0  0  0  0  0  0  0  0  0
   58.7610   29.0600   45.4920 C   0  0  0  0  0  0  0  0  0  0  0  0
   59.6379   29.6952   45.2982 H   0  0  0  0  0  0  0  0  0  0  0  0
   57.5040   29.4460   45.0200 C   0  0  0  0  0  0  0  0  0  0  0  0
   57.3935   30.3873   44.4616 H   0  0  0  0  0  0  0  0  0  0  0  0
   56.3860   28.6400   45.2550 C   0  0  0  0  0  0  0  0  0  0  0  0
   55.1400   29.0340   44.7820 O   0  0  0  0  0  0  0  0  0  0  0  0
  1  2  1  0
  2  3  1  0
  3  4  2  0
  4  5  1  0
  4  6  1  0
  6  7  1  0
  7  8  1  0
  7  9  1  0
  7 10  1  0
 10 11  2  0
 10 12  1  0
 12 13  2  3
 13 14  1  0
 14 15  1  0
 15 16  1  0
 15 17  2  0
 17 18  1  0
 18 19  1  0
 18 20  2  0
 20 21  1  0
 20 22  1  0
 22 23  2  0
 23 24  1  0
 23 25  1  0
 25 26  1  0
 25 27  2  0
 27 28  1  0
 27 29  1  0
 29 30  1  0
 29 31  2  0
 31 32  1  0
 17 33  1  0
  6 34  2  0
 34 35  1  0
 34 36  1  0
 36 37  1  0
 36 38  2  0
 38 39  1  0
 38  3  1  0
 33 13  1  0
 31 22  1  0
M  CHG  2  14  -1  39  -1
M  END
>  <UniqueID>  (89) 
74

>  <SMILES>  (89) 
O=C(Cc1ccc([O-])c(O)c1)N=c1[n-]c(Br)c(/C=C\c2ccccc2)s1

>  <Energy>  (89) 
85.5188228711772

>  <Genealogy>  (89) 
O=C(Cc1ccc([O-])c(O)c1)N=c1[n-]c(Br)c(C=Cc2ccccc2)s1 (protonated)
O=C(Cc1ccc([O-])c(O)c1)N=c1[n-]c(Br)c(/C=C\c2ccccc2)s1 (cis-trans isomerization)
O=C(Cc1ccc([O-])c(O)c1)N=c1[n-]c(Br)c(/C=C\c2ccccc2)s1 (3D coordinates assigned)
O=C(Cc1ccc([O-])c(O)c1)N=c1[n-]c(Br)c(/C=C\c2ccccc2)s1 (optimized conformer: 85.5188228711772 kcal/mol)

>  <smiles>  (89) 
O=C(Cc1ccc(O)c(O)c1)N=c1[nH]c(Br)c(C=Cc2ccccc2)s1

>  <score_type>  (89) 
oracle

>  <origin>  (89) 
adg

>  <m_score__min__energy>  (89) 
-14.529999999999999

>  <m_primary>  (89) 
energy

$$$$
89:0
     RDKit          3D

 60 63  0  0  0  0  0  0  0  0999 V2000
   63.3780   33.7650   49.2060 C   0  0  0  0  0  0  0  0  0  0  0  0
   62.5860   32.5950   48.8410 N   0  0  0  0  0  0  0  0  0  0  0  0
   61.9720   31.7460   49.6880 C   0  0  0  0  0  0  0  0  0  0  0  0
   61.2260   30.8560   48.9400 C   0  0  0  0  0  0  0  0  0  0  0  0
   60.2290   29.5660   49.6030 S   0  0  0  0  0  0  0  0  0  0  0  0
   60.8810   28.2290   49.3810 O   0  0  0  0  0  0  0  0  0  0  0  0
   58.8970   29.5620   48.9080 O   0  0  0  0  0  0  0  0  0  0  0  0
   59.9750   29.8310   51.2930 N   0  0  0  0  0  0  0  0  0  0  0  0
   58.6780   30.1500   51.8000 C   0  0  0  0  0  0  0  0  0  0  0  0
   58.1010   29.2860   52.7390 C   0  0  0  0  0  0  0  0  0  0  0  0
   56.8110   29.5170   53.2130 C   0  0  0  0  0  0  0  0  0  0  0  0
   56.0890   30.6190   52.7610 C   0  0  0  0  0  0  0  0  0  0  0  0
   56.6580   31.4990   51.8380 C   0  0  0  0  0  0  0  0  0  0  0  0
   57.9620   31.2880   51.3460 C   0  0  0  0  0  0  0  0  0  0  0  0
   58.5340   32.2500   50.3610 C   0  0  0  0  0  0  0  0  0  0  0  0
   59.5270   32.9640   50.6860 O   0  0  0  0  0  0  0  0  0  0  0  0
   57.9940   32.3420   49.0370 N   0  0  0  0  0  0  0  0  0  0  0  0
   58.5380   33.0310   47.9010 C   0  0  0  0  0  0  0  0  0  0  0  0
   59.3480   34.1790   48.0280 C   0  0  0  0  0  0  0  0  0  0  0  0
   59.8070   34.8460   46.8880 C   0  0  0  0  0  0  0  0  0  0  0  0
   59.4500   34.3920   45.6160 C   0  0  0  0  0  0  0  0  0  0  0  0
   58.6290   33.2600   45.4740 C   0  0  0  0  0  0  0  0  0  0  0  0
   58.1840   32.8070   44.1080 C   0  0  0  0  0  0  0  0  0  0  0  0
   57.3460   31.5620   44.1840 C   0  0  0  0  0  0  0  0  0  0  0  0
   56.2810   31.5570   44.8620 O   0  0  0  0  0  0  0  0  0  0  0  0
   57.7290   30.3980   43.4380 N   0  0  0  0  0  0  0  0  0  0  0  0
   57.0130   29.1300   43.5490 C   0  0  0  0  0  0  0  0  0  0  0  0
   57.4700   28.3810   44.7630 C   0  0  0  0  0  0  0  0  0  0  0  0
   58.7830   28.2160   45.1610 C   0  0  0  0  0  0  0  0  0  0  0  0
   58.7250   27.4690   46.3220 C   0  0  0  0  0  0  0  0  0  0  0  0
   57.3870   27.2300   46.5580 C   0  0  0  0  0  0  0  0  0  0  0  0
   56.6630   27.7870   45.6130 O   0  0  0  0  0  0  0  0  0  0  0  0
   58.1720   32.5900   46.6210 C   0  0  0  0  0  0  0  0  0  0  0  0
   61.3770   31.1450   47.6250 N   0  0  0  0  0  0  0  0  0  0  0  0
   60.6960   30.5450   46.4790 C   0  0  0  0  0  0  0  0  0  0  0  0
   62.1870   32.2250   47.6070 C   0  0  0  0  0  0  0  0  0  0  0  0
   62.5150   32.8350   46.5520 O   0  0  0  0  0  0  0  0  0  0  0  0
   63.4316   33.8442   50.3018 H   0  0  0  0  0  0  0  0  0  0  0  0
   64.3935   33.6629   48.7957 H   0  0  0  0  0  0  0  0  0  0  0  0
   62.9060   34.6699   48.7957 H   0  0  0  0  0  0  0  0  0  0  0  0
   62.0511   31.7593   50.7851 H   0  0  0  0  0  0  0  0  0  0  0  0
   58.6701   28.4188   53.1051 H   0  0  0  0  0  0  0  0  0  0  0  0
   56.3627   28.8286   53.9445 H   0  0  0  0  0  0  0  0  0  0  0  0
   55.0687   30.7965   53.1318 H   0  0  0  0  0  0  0  0  0  0  0  0
   56.0809   32.3685   51.4902 H   0  0  0  0  0  0  0  0  0  0  0  0
   59.6194   34.5506   49.0271 H   0  0  0  0  0  0  0  0  0  0  0  0
   60.4514   35.7313   46.9931 H   0  0  0  0  0  0  0  0  0  0  0  0
   59.8125   34.9220   44.7229 H   0  0  0  0  0  0  0  0  0  0  0  0
   57.5917   33.6081   43.6416 H   0  0  0  0  0  0  0  0  0  0  0  0
   59.0802   32.5826   43.5110 H   0  0  0  0  0  0  0  0  0  0  0  0
   58.5490   30.4520   42.7910 H   0  0  0  0  0  0  0  0  0  0  0  0
   55.9340   29.3281   43.6294 H   0  0  0  0  0  0  0  0  0  0  0  0
   57.2184   28.5230   42.6550 H   0  0  0  0  0  0  0  0  0  0  0  0
   59.6841   28.5986   44.6594 H   0  0  0  0  0  0  0  0  0  0  0  0
   59.5745   27.1327   46.9346 H   0  0  0  0  0  0  0  0  0  0  0  0
   56.9864   26.6593   47.4088 H   0  0  0  0  0  0  0  0  0  0  0  0
   57.5203   31.7103   46.5141 H   0  0  0  0  0  0  0  0  0  0  0  0
   59.9152   29.8571   46.8354 H   0  0  0  0  0  0  0  0  0  0  0  0
   60.2365   31.3371   45.8696 H   0  0  0  0  0  0  0  0  0  0  0  0
   61.4239   29.9893   45.8696 H   0  0  0  0  0  0  0  0  0  0  0  0
  1  2  1  0
  2  3  1  0
  3  4  2  0
  4  5  1  0
  5  6  2  0
  5  7  2  0
  5  8  1  0
  8  9  1  0
  9 10  2  0
 10 11  1  0
 11 12  2  0
 12 13  1  0
 13 14  2  0
 14 15  1  0
 15 16  2  0
 15 17  1  0
 17 18  1  0
 18 19  2  0
 19 20  1  0
 20 21  2  0
 21 22  1  0
 22 23  1  0
 23 24  1  0
 24 25  2  0
 24 26  1  0
 26 27  1  0
 27 28  1  0
 28 29  2  0
 29 30  1  0
 30 31  2  0
 31 32  1  0
 22 33  2  0
  4 34  1  0
 34 35  1  0
 34 36  1  0
 36 37  2  0
 36  2  1  0
 14  9  1  0
 33 18  1  0
 32 28  1  0
  1 38  1  0
  1 39  1  0
  1 40  1  0
  3 41  1  0
 10 42  1  0
 11 43  1  0
 12 44  1  0
 13 45  1  0
 19 46  1  0
 20 47  1  0
 21 48  1  0
 23 49  1  0
 23 50  1  0
 26 51  1  0
 27 52  1  0
 27 53  1  0
 29 54  1  0
 30 55  1  0
 31 56  1  0
 33 57  1  0
 35 58  1  0
 35 59  1  0
 35 60  1  0
M  CHG  2   8  -1  17  -1
M  END
>  <UniqueID>  (90) 
75

>  <SMILES>  (90) 
Cn1cc(S(=O)(=O)[N-]c2ccccc2C(=O)[N-]c2cccc(CC(=O)NCc3ccco3)c2)n(C)c1=O

>  <Energy>  (90) 
130.93779856941336

>  <Genealogy>  (90) 
Cn1cc(S(=O)(=O)[N-]c2ccccc2C(=O)[N-]c2cccc(CC(=O)NCc3ccco3)c2)n(C)c1=O (protonated)
Cn1cc(S(=O)(=O)[N-]c2ccccc2C(=O)[N-]c2cccc(CC(=O)NCc3ccco3)c2)n(C)c1=O (3D coordinates assigned)
Cn1cc(S(=O)(=O)[N-]c2ccccc2C(=O)[N-]c2cccc(CC(=O)NCc3ccco3)c2)n(C)c1=O (optimized conformer: 130.93779856941336 kcal/mol)

>  <smiles>  (90) 
Cn1cc(S(=O)(=O)Nc2ccccc2C(=O)Nc2cccc(CC(=O)NCc3ccco3)c2)n(C)c1=O

>  <score_type>  (90) 
oracle

>  <origin>  (90) 
adg

>  <m_score__min__energy>  (90) 
-13.09

>  <m_primary>  (90) 
energy

$$$$
90:0
     RDKit          3D

 67 71  0  0  0  0  0  0  0  0999 V2000
   57.2580   34.4610   44.5370 O   0  0  0  0  0  0  0  0  0  0  0  0
   57.5080   33.4880   45.2950 C   0  0  0  0  0  0  0  0  0  0  0  0
   56.6150   32.3660   45.2940 N   0  0  0  0  0  0  0  0  0  0  0  0
   56.7980   30.9640   44.2880 S   0  0  0  0  0  0  0  0  0  0  0  0
   55.5970   30.0740   44.4270 O   0  0  0  0  0  0  0  0  0  0  0  0
   56.9480   31.3830   42.8530 O   0  0  0  0  0  0  0  0  0  0  0  0
   58.2750   30.0720   44.7650 C   0  0  0  0  0  0  0  0  0  0  0  0
   58.0280   29.1110   45.9360 C   0  0  0  0  0  0  0  0  0  0  0  0
   59.0710   29.2470   47.0180 C   0  0  0  0  0  0  0  0  0  0  0  0
   58.9690   28.5000   48.2050 C   0  0  0  0  0  0  0  0  0  0  0  0
   59.9480   28.6190   49.1980 C   0  0  0  0  0  0  0  0  0  0  0  0
   61.0340   29.4790   49.0130 C   0  0  0  0  0  0  0  0  0  0  0  0
   61.1440   30.2250   47.8360 C   0  0  0  0  0  0  0  0  0  0  0  0
   60.1680   30.1090   46.8390 C   0  0  0  0  0  0  0  0  0  0  0  0
   58.7110   33.5340   46.1510 C   0  0  0  0  0  0  0  0  0  0  0  0
   59.9460   33.9270   45.6220 C   0  0  0  0  0  0  0  0  0  0  0  0
   61.0780   33.9720   46.4370 C   0  0  0  0  0  0  0  0  0  0  0  0
   60.9960   33.6460   47.7990 C   0  0  0  0  0  0  0  0  0  0  0  0
   62.2060   33.6250   48.5790 N   0  0  0  0  0  0  0  0  0  0  0  0
   63.2570   32.6550   48.2270 C   0  0  0  0  0  0  0  0  0  0  0  0
   64.2450   32.4260   49.3770 C   0  0  0  0  0  0  0  0  0  0  0  0
   64.5570   33.6350   50.0320 O   0  0  0  0  0  0  0  0  0  0  0  0
   63.4070   34.1010   50.7050 C   0  0  0  0  0  0  0  0  0  0  0  0
   62.3460   34.5640   49.7030 C   0  0  0  0  0  0  0  0  0  0  0  0
   59.7420   33.2820   48.3510 C   0  0  0  0  0  0  0  0  0  0  0  0
   59.5690   32.9630   49.7840 C   0  0  0  0  0  0  0  0  0  0  0  0
   59.5050   33.8400   50.8550 C   0  0  0  0  0  0  0  0  0  0  0  0
   59.2760   33.1450   51.9870 N   0  0  0  0  0  0  0  0  0  0  0  0
   59.2020   31.8620   51.6600 N   0  0  0  0  0  0  0  0  0  0  0  0
   58.8860   30.7990   52.6060 C   0  0  0  0  0  0  0  0  0  0  0  0
   57.4060   30.5380   52.6000 C   0  0  0  0  0  0  0  0  0  0  0  0
   56.5220   31.4800   52.0480 C   0  0  0  0  0  0  0  0  0  0  0  0
   55.1480   31.2190   52.0060 C   0  0  0  0  0  0  0  0  0  0  0  0
   54.6480   30.0110   52.5040 C   0  0  0  0  0  0  0  0  0  0  0  0
   55.5250   29.0630   53.0410 C   0  0  0  0  0  0  0  0  0  0  0  0
   56.9000   29.3210   53.0850 C   0  0  0  0  0  0  0  0  0  0  0  0
   59.3550   31.7140   50.3300 C   0  0  0  0  0  0  0  0  0  0  0  0
   58.6130   33.2280   47.5140 C   0  0  0  0  0  0  0  0  0  0  0  0
   58.6311   29.4915   43.9012 H   0  0  0  0  0  0  0  0  0  0  0  0
   59.0217   30.8112   45.0906 H   0  0  0  0  0  0  0  0  0  0  0  0
   57.0397   29.3266   46.3682 H   0  0  0  0  0  0  0  0  0  0  0  0
   58.0802   28.0840   45.5454 H   0  0  0  0  0  0  0  0  0  0  0  0
   58.1172   27.8201   48.3535 H   0  0  0  0  0  0  0  0  0  0  0  0
   59.8625   28.0345   50.1259 H   0  0  0  0  0  0  0  0  0  0  0  0
   61.8030   29.5689   49.7944 H   0  0  0  0  0  0  0  0  0  0  0  0
   61.9979   30.9036   47.6930 H   0  0  0  0  0  0  0  0  0  0  0  0
   60.2594   30.6942   45.9121 H   0  0  0  0  0  0  0  0  0  0  0  0
   60.0246   34.2014   44.5597 H   0  0  0  0  0  0  0  0  0  0  0  0
   62.0463   34.2667   46.0062 H   0  0  0  0  0  0  0  0  0  0  0  0
   62.7824   31.6960   47.9719 H   0  0  0  0  0  0  0  0  0  0  0  0
   63.8205   33.0631   47.3750 H   0  0  0  0  0  0  0  0  0  0  0  0
   63.7963   31.7310   50.1020 H   0  0  0  0  0  0  0  0  0  0  0  0
   65.1728   32.0074   48.9599 H   0  0  0  0  0  0  0  0  0  0  0  0
   62.9934   33.2877   51.3194 H   0  0  0  0  0  0  0  0  0  0  0  0
   63.6894   34.9529   51.3410 H   0  0  0  0  0  0  0  0  0  0  0  0
   61.3790   34.6452   50.2211 H   0  0  0  0  0  0  0  0  0  0  0  0
   62.6616   35.5366   49.2974 H   0  0  0  0  0  0  0  0  0  0  0  0
   59.6226   34.9318   50.7914 H   0  0  0  0  0  0  0  0  0  0  0  0
   59.4201   29.8818   52.3170 H   0  0  0  0  0  0  0  0  0  0  0  0
   59.1974   31.1057   53.6154 H   0  0  0  0  0  0  0  0  0  0  0  0
   56.9118   32.4272   51.6469 H   0  0  0  0  0  0  0  0  0  0  0  0
   54.4600   31.9646   51.5809 H   0  0  0  0  0  0  0  0  0  0  0  0
   53.5675   29.8072   52.4733 H   0  0  0  0  0  0  0  0  0  0  0  0
   55.1329   28.1117   53.4300 H   0  0  0  0  0  0  0  0  0  0  0  0
   57.5862   28.5684   53.5006 H   0  0  0  0  0  0  0  0  0  0  0  0
   59.3162   30.7643   49.7764 H   0  0  0  0  0  0  0  0  0  0  0  0
   57.6386   32.9412   47.9363 H   0  0  0  0  0  0  0  0  0  0  0  0
  1  2  2  0
  2  3  1  0
  3  4  1  0
  4  5  2  0
  4  6  2  0
  4  7  1  0
  7  8  1  0
  8  9  1  0
  9 10  2  0
 10 11  1  0
 11 12  2  0
 12 13  1  0
 13 14  2  0
  2 15  1  0
 15 16  2  0
 16 17  1  0
 17 18  2  0
 18 19  1  0
 19 20  1  0
 20 21  1  0
 21 22  1  0
 22 23  1  0
 23 24  1  0
 18 25  1  0
 25 26  1  0
 26 27  1  0
 27 28  2  0
 28 29  1  0
 29 30  1  0
 30 31  1  0
 31 32  2  0
 32 33  1  0
 33 34  2  0
 34 35  1  0
 35 36  2  0
 29 37  1  0
 25 38  2  0
 14  9  1  0
 38 15  1  0
 24 19  1  0
 37 26  2  0
 36 31  1  0
  7 39  1  0
  7 40  1  0
  8 41  1  0
  8 42  1  0
 10 43  1  0
 11 44  1  0
 12 45  1  0
 13 46  1  0
 14 47  1  0
 16 48  1  0
 17 49  1  0
 20 50  1  0
 20 51  1  0
 21 52  1  0
 21 53  1  0
 23 54  1  0
 23 55  1  0
 24 56  1  0
 24 57  1  0
 27 58  1  0
 30 59  1  0
 30 60  1  0
 32 61  1  0
 33 62  1  0
 34 63  1  0
 35 64  1  0
 36 65  1  0
 37 66  1  0
 38 67  1  0
M  CHG  1   3  -1
M  END
>  <UniqueID>  (91) 
76

>  <SMILES>  (91) 
O=C([N-]S(=O)(=O)CCc1ccccc1)c1ccc(N2CCOCC2)c(-c2cnn(Cc3ccccc3)c2)c1

>  <Energy>  (91) 
114.49368949611831

>  <Genealogy>  (91) 
O=C([N-]S(=O)(=O)CCc1ccccc1)c1ccc(N2CCOCC2)c(-c2cnn(Cc3ccccc3)c2)c1 (protonated)
O=C([N-]S(=O)(=O)CCc1ccccc1)c1ccc(N2CCOCC2)c(-c2cnn(Cc3ccccc3)c2)c1 (3D coordinates assigned)
O=C([N-]S(=O)(=O)CCc1ccccc1)c1ccc(N2CCOCC2)c(-c2cnn(Cc3ccccc3)c2)c1 (nonaromatic ring conformer: 114.49368949611831 kcal/mol)

>  <smiles>  (91) 
O=C(NS(=O)(=O)CCc1ccccc1)c1ccc(N2CCOCC2)c(-c2cnn(Cc3ccccc3)c2)c1

>  <score_type>  (91) 
oracle

>  <origin>  (91) 
adg

>  <m_score__min__energy>  (91) 
-11.93

>  <m_primary>  (91) 
energy

$$$$
91:0
     RDKit          3D

 38 40  0  0  1  0  0  0  0  0999 V2000
   57.7740   27.6600   43.7520 C   0  0  0  0  0  0  0  0  0  0  0  0
   58.3840   27.3950   45.0450 N   0  0  0  0  0  0  0  0  0  0  0  0
   58.5070   26.1240   45.5070 C   0  0  0  0  0  0  0  0  0  0  0  0
   58.0980   25.1470   44.8330 O   0  0  0  0  0  0  0  0  0  0  0  0
   59.0830   25.8400   46.7320 C   0  0  0  0  0  0  0  0  0  0  0  0
   59.5350   26.8850   47.4840 N   0  0  0  0  0  0  0  0  0  0  0  0
   59.4120   28.1490   47.0220 C   0  0  0  0  0  0  0  0  0  0  0  0
   59.8610   29.2210   47.7620 C   0  0  0  0  0  0  0  0  0  0  0  0
   59.7590   30.5310   47.3360 C   0  0  0  0  0  0  0  0  0  0  0  0
   60.2230   31.6360   48.1020 N   0  0  0  0  0  0  0  0  0  0  0  0
   61.4310   32.0370   47.9370 C   0  0  0  0  0  0  0  0  0  0  0  0
   62.5010   31.5930   48.6870 C   0  0  0  0  0  0  0  0  0  0  0  0
   63.7850   32.0740   48.4530 C   0  0  0  0  0  0  0  0  0  0  0  0
   63.9380   32.9870   47.4680 N   0  0  0  0  0  0  0  0  0  0  0  0
   62.8790   33.4230   46.7300 C   0  0  0  0  0  0  0  0  0  0  0  0
   61.6370   32.9530   46.9620 N   0  0  0  0  0  0  0  0  0  0  0  0
   59.1810   30.8080   46.1090 C   0  0  0  0  0  0  0  0  0  0  0  0
   59.0450   32.1240   45.6110 N   0  0  0  0  0  0  0  0  0  0  0  0
   57.7050   32.5570   44.6000 S   0  0  0  0  0  0  0  0  0  0  0  0
   57.2120   34.2080   44.9520 C   0  0  0  0  0  0  0  0  0  0  0  0
   58.1370   32.4510   43.1640 O   0  0  0  0  0  0  0  0  0  0  0  0
   56.6050   31.5960   44.8550 O   0  0  0  0  0  0  0  0  0  0  0  0
   58.7320   29.7270   45.3700 C   0  0  0  0  0  0  0  0  0  0  0  0
   58.8360   28.4250   45.7970 C   0  0  0  0  0  0  0  0  0  0  0  0
   56.7743   28.0943   43.9003 H   0  0  0  0  0  0  0  0  0  0  0  0
   58.4010   28.3669   43.1888 H   0  0  0  0  0  0  0  0  0  0  0  0
   57.6852   26.7193   43.1888 H   0  0  0  0  0  0  0  0  0  0  0  0
   59.1739   24.8035   47.0890 H   0  0  0  0  0  0  0  0  0  0  0  0
   60.3235   29.0239   48.7404 H   0  0  0  0  0  0  0  0  0  0  0  0
   62.3363   30.8490   49.4803 H   0  0  0  0  0  0  0  0  0  0  0  0
   64.6428   31.7249   49.0466 H   0  0  0  0  0  0  0  0  0  0  0  0
   64.8950   33.3660   47.2710 H   0  0  0  0  0  0  0  0  0  0  0  0
   63.0393   34.1670   45.9358 H   0  0  0  0  0  0  0  0  0  0  0  0
   59.7810   32.8160   45.8760 H   0  0  0  0  0  0  0  0  0  0  0  0
   57.1686   34.3533   46.0415 H   0  0  0  0  0  0  0  0  0  0  0  0
   57.9401   34.9087   44.5173 H   0  0  0  0  0  0  0  0  0  0  0  0
   56.2189   34.3947   44.5173 H   0  0  0  0  0  0  0  0  0  0  0  0
   58.2684   29.9200   44.3913 H   0  0  0  0  0  0  0  0  0  0  0  0
  1  2  1  0
  2  3  1  0
  3  4  2  0
  3  5  1  0
  5  6  2  0
  6  7  1  0
  7  8  2  0
  8  9  1  0
  9 10  1  0
 10 11  2  0
 11 12  1  0
 12 13  2  0
 13 14  1  0
 14 15  1  0
 15 16  2  0
  9 17  2  0
 17 18  1  0
 18 19  1  0
 19 20  1  0
 19 21  2  0
 19 22  2  0
 17 23  1  0
 23 24  2  0
 24  2  1  0
 24  7  1  0
 16 11  1  0
  1 25  1  0
  1 26  1  0
  1 27  1  0
  5 28  1  0
  8 29  1  0
 12 30  1  0
 13 31  1  0
 14 32  1  0
 15 33  1  0
 18 34  1  0
 20 35  1  0
 20 36  1  0
 20 37  1  0
 23 38  1  0
M  END
>  <smiles>  (92) 
Cn1c(=O)cnc2cc(N=c3cc[nH]cn3)c(NS(C)(=O)=O)cc21

>  <score_type>  (92) 
oracle

>  <origin>  (92) 
adg

>  <m_score__min__energy>  (92) 
-7.0099999999999998

>  <m_primary>  (92) 
energy

$$$$
