0:0
     RDKit          3D

 43 44  0  0  0  0  0  0  0  0999 V2000
   54.7640   28.5040   44.5310 H   0  0  0  0  0  0  0  0  0  0  0  0
   55.0180   29.4020   44.9240 O   0  0  0  0  0  0  0  0  0  0  0  0
   56.3220   29.8360   44.8670 N   0  0  0  0  0  0  0  0  0  0  0  0
   56.8180   30.4590   43.8380 C   0  0  0  0  0  0  0  0  0  0  0  0
   57.4400   31.7980   43.9430 C   0  0  0  0  0  0  0  0  0  0  0  0
   58.2379   32.0648   43.2343 H   0  0  0  0  0  0  0  0  0  0  0  0
   57.0730   32.6990   44.8640 C   0  0  0  0  0  0  0  0  0  0  0  0
   56.0049   32.9485   44.9466 H   0  0  0  0  0  0  0  0  0  0  0  0
   58.0220   33.3810   45.7800 C   0  0  0  0  0  0  0  0  0  0  0  0
   58.7590   34.4710   45.2890 C   0  0  0  0  0  0  0  0  0  0  0  0
   58.6231   34.7966   44.2471 H   0  0  0  0  0  0  0  0  0  0  0  0
   59.6620   35.1440   46.1120 C   0  0  0  0  0  0  0  0  0  0  0  0
   60.2314   35.9987   45.7179 H   0  0  0  0  0  0  0  0  0  0  0  0
   59.8450   34.7360   47.4340 C   0  0  0  0  0  0  0  0  0  0  0  0
   60.5626   35.2693   48.0749 H   0  0  0  0  0  0  0  0  0  0  0  0
   59.1240   33.6550   47.9510 C   0  0  0  0  0  0  0  0  0  0  0  0
   59.3680   33.2810   49.2830 O   0  0  0  0  0  0  0  0  0  0  0  0
   59.7760   31.9880   49.7400 C   0  0  0  0  0  0  0  0  0  0  0  0
   59.2159   31.7388   50.6533 H   0  0  0  0  0  0  0  0  0  0  0  0
   59.5694   31.2595   48.9421 H   0  0  0  0  0  0  0  0  0  0  0  0
   61.2770   31.9480   50.0500 C   0  0  0  0  0  0  0  0  0  0  0  0
   61.5451   32.8565   50.6093 H   0  0  0  0  0  0  0  0  0  0  0  0
   61.4709   31.0374   50.6358 H   0  0  0  0  0  0  0  0  0  0  0  0
   62.1250   31.8790   48.8090 C   0  0  0  0  0  0  0  0  0  0  0  0
   61.8620   31.1880   47.6370 C   0  0  0  0  0  0  0  0  0  0  0  0
   60.6690   30.3410   47.3370 C   0  0  0  0  0  0  0  0  0  0  0  0
   60.2063   30.0125   48.2793 H   0  0  0  0  0  0  0  0  0  0  0  0
   59.9411   30.9257   46.7554 H   0  0  0  0  0  0  0  0  0  0  0  0
   60.9810   29.4610   46.7554 H   0  0  0  0  0  0  0  0  0  0  0  0
   62.8430   31.4060   46.7900 O   0  0  0  0  0  0  0  0  0  0  0  0
   63.7340   32.1930   47.3170 N   0  0  0  0  0  0  0  0  0  0  0  0
   64.6110   32.5040   46.8430 H   0  0  0  0  0  0  0  0  0  0  0  0
   63.3280   32.5190   48.5580 C   0  0  0  0  0  0  0  0  0  0  0  0
   64.1220   33.3570   49.5080 C   0  0  0  0  0  0  0  0  0  0  0  0
   63.8635   33.0841   50.5418 H   0  0  0  0  0  0  0  0  0  0  0  0
   65.1953   33.1840   49.3406 H   0  0  0  0  0  0  0  0  0  0  0  0
   63.8914   34.4194   49.3406 H   0  0  0  0  0  0  0  0  0  0  0  0
   58.1900   32.9940   47.1250 C   0  0  0  0  0  0  0  0  0  0  0  0
   57.5878   32.1695   47.5343 H   0  0  0  0  0  0  0  0  0  0  0  0
   56.5980   29.8820   42.4770 C   0  0  0  0  0  0  0  0  0  0  0  0
   56.2076   28.8580   42.5716 H   0  0  0  0  0  0  0  0  0  0  0  0
   55.8730   30.5016   41.9288 H   0  0  0  0  0  0  0  0  0  0  0  0
   57.5515   29.8617   41.9288 H   0  0  0  0  0  0  0  0  0  0  0  0
  1  2  1  0
  2  3  1  0
  3  4  2  0
  4  5  1  0
  5  6  1  0
  5  7  2  0
  7  8  1  0
  7  9  1  0
  9 10  2  0
 10 11  1  0
 10 12  1  0
 12 13  1  0
 12 14  2  0
 14 15  1  0
 14 16  1  0
 16 17  1  0
 17 18  1  0
 18 19  1  0
 18 20  1  0
 18 21  1  0
 21 22  1  0
 21 23  1  0
 21 24  1  0
 24 25  2  0
 25 26  1  0
 26 27  1  0
 26 28  1  0
 26 29  1  0
 25 30  1  0
 30 31  1  0
 31 32  1  0
 31 33  2  0
 33 34  1  0
 34 35  1  0
 34 36  1  0
 34 37  1  0
 16 38  2  0
 38 39  1  0
  4 40  1  0
 40 41  1  0
 40 42  1  0
 40 43  1  0
 38  9  1  0
 33 24  1  0
M  CHG  1  31   1
M  END
>  <UniqueID>  (1) 
1

>  <SMILES>  (1) 
CC(/C=C/c1cccc(OCCc2c(C)[nH+]oc2C)c1)=N/O

>  <Energy>  (1) 
70.93650826158685

>  <Genealogy>  (1) 
CC(C=Cc1cccc(OCCc2c(C)[nH+]oc2C)c1)=NO (protonated)
CC(/C=C/c1cccc(OCCc2c(C)[nH+]oc2C)c1)=N/O (cis-trans isomerization)
CC(/C=C/c1cccc(OCCc2c(C)[nH+]oc2C)c1)=N/O (3D coordinates assigned)
CC(/C=C/c1cccc(OCCc2c(C)[nH+]oc2C)c1)=N/O (optimized conformer: 70.93650826158685 kcal/mol)

>  <smiles>  (1) 
CC(C=Cc1cccc(OCCc2c(C)noc2C)c1)=NO

>  <score_type>  (1) 
oracle

>  <origin>  (1) 
adg

>  <m_score__min__energy>  (1) 
-8.0600000000000005

>  <m_primary>  (1) 
energy

$$$$
1:0
     RDKit          3D

 37 40  0  0  0  0  0  0  0  0999 V2000
   56.7780   30.4400   43.2440 Br  0  0  0  0  0  0  0  0  0  0  0  0
   57.4810   31.5420   44.6350 C   0  0  0  0  0  0  0  0  0  0  0  0
   57.4030   32.9340   44.5340 C   0  0  0  0  0  0  0  0  0  0  0  0
   57.9180   33.7420   45.5510 C   0  0  0  0  0  0  0  0  0  0  0  0
   58.5090   33.1620   46.6890 C   0  0  0  0  0  0  0  0  0  0  0  0
   59.0590   33.9700   47.7430 N   0  0  0  0  0  0  0  0  0  0  0  0
   60.2730   33.6450   48.4360 C   0  0  0  0  0  0  0  0  0  0  0  0
   60.3840   33.1800   49.7470 C   0  0  0  0  0  0  0  0  0  0  0  0
   59.2970   32.9770   50.7230 C   0  0  0  0  0  0  0  0  0  0  0  0
   58.4000   31.9090   50.5560 C   0  0  0  0  0  0  0  0  0  0  0  0
   57.3690   31.7010   51.4800 C   0  0  0  0  0  0  0  0  0  0  0  0
   57.2350   32.5500   52.5810 C   0  0  0  0  0  0  0  0  0  0  0  0
   58.1350   33.6030   52.7660 C   0  0  0  0  0  0  0  0  0  0  0  0
   59.1660   33.8150   51.8440 C   0  0  0  0  0  0  0  0  0  0  0  0
   61.6760   32.8410   49.9770 N   0  0  0  0  0  0  0  0  0  0  0  0
   62.3120   33.1230   48.8250 C   0  0  0  0  0  0  0  0  0  0  0  0
   63.6360   32.9500   48.5970 N   0  0  0  0  0  0  0  0  0  0  0  0
   64.1440   33.2850   47.3750 C   0  0  0  0  0  0  0  0  0  0  0  0
   63.3060   33.8060   46.3700 C   0  0  0  0  0  0  0  0  0  0  0  0
   61.9430   33.9700   46.6460 C   0  0  0  0  0  0  0  0  0  0  0  0
   61.4970   33.6080   47.8750 N   0  0  0  0  0  0  0  0  0  0  0  0
   58.5980   31.7630   46.7740 C   0  0  0  0  0  0  0  0  0  0  0  0
   58.0820   30.9580   45.7540 C   0  0  0  0  0  0  0  0  0  0  0  0
   56.9349   33.3946   43.6515 H   0  0  0  0  0  0  0  0  0  0  0  0
   57.8612   34.8369   45.4617 H   0  0  0  0  0  0  0  0  0  0  0  0
   58.5410   34.8290   48.0270 H   0  0  0  0  0  0  0  0  0  0  0  0
   58.5082   31.2329   49.6951 H   0  0  0  0  0  0  0  0  0  0  0  0
   56.6640   30.8685   51.3388 H   0  0  0  0  0  0  0  0  0  0  0  0
   56.4206   32.3897   53.3029 H   0  0  0  0  0  0  0  0  0  0  0  0
   58.0328   34.2661   53.6377 H   0  0  0  0  0  0  0  0  0  0  0  0
   59.8767   34.6405   51.9970 H   0  0  0  0  0  0  0  0  0  0  0  0
   62.0900   32.4480   50.8510 H   0  0  0  0  0  0  0  0  0  0  0  0
   65.2165   33.1469   47.1736 H   0  0  0  0  0  0  0  0  0  0  0  0
   63.7148   34.0791   45.3860 H   0  0  0  0  0  0  0  0  0  0  0  0
   61.2560   34.3792   45.8906 H   0  0  0  0  0  0  0  0  0  0  0  0
   59.0766   31.2978   47.6484 H   0  0  0  0  0  0  0  0  0  0  0  0
   58.1491   29.8628   45.8321 H   0  0  0  0  0  0  0  0  0  0  0  0
  1  2  1  0
  2  3  2  0
  3  4  1  0
  4  5  2  0
  5  6  1  0
  6  7  1  0
  7  8  2  0
  8  9  1  0
  9 10  2  0
 10 11  1  0
 11 12  2  0
 12 13  1  0
 13 14  2  0
  8 15  1  0
 15 16  2  0
 16 17  1  0
 17 18  2  0
 18 19  1  0
 19 20  2  0
 20 21  1  0
  5 22  1  0
 22 23  2  0
 23  2  1  0
 21  7  1  0
 14  9  1  0
 21 16  1  0
  3 24  1  0
  4 25  1  0
  6 26  1  0
 10 27  1  0
 11 28  1  0
 12 29  1  0
 13 30  1  0
 14 31  1  0
 15 32  1  0
 18 33  1  0
 19 34  1  0
 20 35  1  0
 22 36  1  0
 23 37  1  0
M  CHG  1  15   1
M  END
>  <UniqueID>  (2) 
2

>  <SMILES>  (2) 
Brc1ccc(Nc2c(-c3ccccc3)[nH+]c3ncccn23)cc1

>  <Energy>  (2) 
91.29469810748766

>  <Genealogy>  (2) 
Brc1ccc(Nc2c(-c3ccccc3)[nH+]c3ncccn23)cc1 (protonated)
Brc1ccc(Nc2c(-c3ccccc3)[nH+]c3ncccn23)cc1 (3D coordinates assigned)
Brc1ccc(Nc2c(-c3ccccc3)[nH+]c3ncccn23)cc1 (optimized conformer: 91.29469810748766 kcal/mol)

>  <smiles>  (2) 
Brc1ccc(Nc2c(-c3ccccc3)nc3ncccn23)cc1

>  <score_type>  (2) 
oracle

>  <origin>  (2) 
adg

>  <m_score__min__energy>  (2) 
-6.4400000000000004

>  <m_primary>  (2) 
energy

$$$$
2:0
     RDKit          3D

 30 31  0  0  0  0  0  0  0  0999 V2000
   58.8454   26.8045   44.8272 H   0  0  0  0  0  0  0  0  0  0  0  0
   58.4300   27.8230   44.8390 C   0  0  0  0  0  0  0  0  0  0  0  0
   59.2430   28.9130   44.5140 C   0  0  0  0  0  0  0  0  0  0  0  0
   60.2962   28.7511   44.2408 H   0  0  0  0  0  0  0  0  0  0  0  0
   58.7180   30.2090   44.5360 C   0  0  0  0  0  0  0  0  0  0  0  0
   59.3550   31.0643   44.2662 H   0  0  0  0  0  0  0  0  0  0  0  0
   57.3790   30.4200   44.9020 C   0  0  0  0  0  0  0  0  0  0  0  0
   56.8160   31.7370   44.8900 N   0  0  0  0  0  0  0  0  0  0  0  0
   57.4330   32.8340   45.2270 C   0  0  0  0  0  0  0  0  0  0  0  0
   57.1950   33.3850   46.5270 N   0  0  0  0  0  0  0  0  0  0  0  0
   56.2100   33.3400   46.8760 H   0  0  0  0  0  0  0  0  0  0  0  0
   58.2280   33.4560   47.5650 C   0  0  0  0  0  0  0  0  0  0  0  0
   58.8972   32.5911   47.4463 H   0  0  0  0  0  0  0  0  0  0  0  0
   57.7057   33.4588   48.5331 H   0  0  0  0  0  0  0  0  0  0  0  0
   59.0800   34.7370   47.5160 C   0  0  0  0  0  0  0  0  0  0  0  0
   59.9994   34.5709   48.0966 H   0  0  0  0  0  0  0  0  0  0  0  0
   58.4762   35.5546   47.9366 H   0  0  0  0  0  0  0  0  0  0  0  0
   59.4690   35.1360   46.0800 C   0  0  0  0  0  0  0  0  0  0  0  0
   60.3962   35.7262   46.1240 H   0  0  0  0  0  0  0  0  0  0  0  0
   58.6235   35.7062   45.6678 H   0  0  0  0  0  0  0  0  0  0  0  0
   59.7010   33.9380   45.1380 C   0  0  0  0  0  0  0  0  0  0  0  0
   60.0427   33.0865   45.7448 H   0  0  0  0  0  0  0  0  0  0  0  0
   60.4429   34.2668   44.3954 H   0  0  0  0  0  0  0  0  0  0  0  0
   58.4640   33.4940   44.3460 C   0  0  0  0  0  0  0  0  0  0  0  0
   58.7771   32.7798   43.5702 H   0  0  0  0  0  0  0  0  0  0  0  0
   58.0063   34.3904   43.9021 H   0  0  0  0  0  0  0  0  0  0  0  0
   56.5620   29.3220   45.2010 C   0  0  0  0  0  0  0  0  0  0  0  0
   55.5030   29.4790   45.4538 H   0  0  0  0  0  0  0  0  0  0  0  0
   57.0890   28.0270   45.1790 C   0  0  0  0  0  0  0  0  0  0  0  0
   56.4485   27.1684   45.4292 H   0  0  0  0  0  0  0  0  0  0  0  0
  1  2  1  0
  2  3  2  0
  3  4  1  0
  3  5  1  0
  5  6  1  0
  5  7  2  0
  7  8  1  0
  8  9  2  0
  9 10  1  0
 10 11  1  0
 10 12  1  0
 12 13  1  0
 12 14  1  0
 12 15  1  0
 15 16  1  0
 15 17  1  0
 15 18  1  0
 18 19  1  0
 18 20  1  0
 18 21  1  0
 21 22  1  0
 21 23  1  0
 21 24  1  0
 24 25  1  0
 24 26  1  0
  7 27  1  0
 27 28  1  0
 27 29  2  0
 29 30  1  0
 29  2  1  0
 24  9  1  0
M  END
>  <UniqueID>  (3) 
3

>  <SMILES>  (3) 
c1ccc(/N=C2\CCCCCN2)cc1

>  <Energy>  (3) 
43.97303152762026

>  <Genealogy>  (3) 
c1ccc(/N=C2\CCCCCN2)cc1 (cis-trans isomerization)
c1ccc(/N=C2\CCCCCN2)cc1 (3D coordinates assigned)
c1ccc(/N=C2\CCCCCN2)cc1 (nonaromatic ring conformer: 43.97303152762026 kcal/mol)

>  <smiles>  (3) 
c1ccc(N=C2CCCCCN2)cc1

>  <score_type>  (3) 
oracle

>  <origin>  (3) 
adg

>  <m_score__min__energy>  (3) 
-4.5599999999999996

>  <m_primary>  (3) 
energy

$$$$
3:0
     RDKit          3D

 54 57  0  0  0  0  0  0  0  0999 V2000
   63.6740   33.1370   47.0130 C   0  0  0  0  0  0  0  0  0  0  0  0
   63.7540   33.4430   48.4520 N   0  0  0  0  0  0  0  0  0  0  0  0
   64.0780   32.2500   49.2580 C   0  0  0  0  0  0  0  0  0  0  0  0
   62.8740   31.2930   49.4400 C   0  0  0  0  0  0  0  0  0  0  0  0
   61.5570   31.9690   49.3470 N   0  0  0  0  0  0  0  0  0  0  0  0
   60.5190   31.1920   50.0760 C   0  0  0  0  0  0  0  0  0  0  0  0
   59.7310   30.2430   49.1500 C   0  0  0  0  0  0  0  0  0  0  0  0
   58.8250   31.0100   48.1590 C   0  0  0  0  0  0  0  0  0  0  0  0
   59.4090   31.1710   46.7280 C   0  0  1  0  0  0  0  0  0  0  0  0
   59.3290   32.6270   46.2470 C   0  0  0  0  0  0  0  0  0  0  0  0
   58.4050   33.0730   45.2720 C   0  0  0  0  0  0  0  0  0  0  0  0
   58.3650   34.4160   44.8880 C   0  0  0  0  0  0  0  0  0  0  0  0
   59.2510   35.3350   45.4510 C   0  0  0  0  0  0  0  0  0  0  0  0
   60.1940   34.9090   46.3860 C   0  0  0  0  0  0  0  0  0  0  0  0
   60.2420   33.5680   46.7710 C   0  0  0  0  0  0  0  0  0  0  0  0
   60.7940   30.8260   46.7900 O   0  0  0  0  0  0  0  0  0  0  0  0
   61.0270   29.6850   45.9770 C   0  0  0  0  0  0  0  0  0  0  0  0
   59.7390   29.3100   45.3790 C   0  0  0  0  0  0  0  0  0  0  0  0
   59.4550   28.2400   44.5270 C   0  0  0  0  0  0  0  0  0  0  0  0
   58.1310   28.0650   44.0970 C   0  0  0  0  0  0  0  0  0  0  0  0
   57.1280   28.9530   44.5290 C   0  0  0  0  0  0  0  0  0  0  0  0
   57.4490   30.0140   45.3930 C   0  0  0  0  0  0  0  0  0  0  0  0
   58.7840   30.1710   45.7980 C   0  0  0  0  0  0  0  0  0  0  0  0
   61.6510   33.3530   49.8530 C   0  0  0  0  0  0  0  0  0  0  0  0
   62.5760   34.1930   48.9520 C   0  0  0  0  0  0  0  0  0  0  0  0
   63.3979   32.0809   46.8775 H   0  0  0  0  0  0  0  0  0  0  0  0
   62.9133   33.7780   46.5436 H   0  0  0  0  0  0  0  0  0  0  0  0
   64.6511   33.3237   46.5436 H   0  0  0  0  0  0  0  0  0  0  0  0
   64.8895   31.7003   48.7587 H   0  0  0  0  0  0  0  0  0  0  0  0
   64.3718   32.6006   50.2584 H   0  0  0  0  0  0  0  0  0  0  0  0
   62.9236   30.5198   48.6592 H   0  0  0  0  0  0  0  0  0  0  0  0
   62.9484   30.8710   50.4531 H   0  0  0  0  0  0  0  0  0  0  0  0
   61.2870   32.0110   48.3380 H   0  0  0  0  0  0  0  0  0  0  0  0
   61.0103   30.5942   50.8578 H   0  0  0  0  0  0  0  0  0  0  0  0
   59.8042   31.9100   50.5044 H   0  0  0  0  0  0  0  0  0  0  0  0
   60.4454   29.6334   48.5773 H   0  0  0  0  0  0  0  0  0  0  0  0
   59.0845   29.6160   49.7816 H   0  0  0  0  0  0  0  0  0  0  0  0
   57.8706   30.4688   48.0796 H   0  0  0  0  0  0  0  0  0  0  0  0
   58.7168   32.0270   48.5640 H   0  0  0  0  0  0  0  0  0  0  0  0
   57.7108   32.3546   44.8115 H   0  0  0  0  0  0  0  0  0  0  0  0
   57.6320   34.7500   44.1388 H   0  0  0  0  0  0  0  0  0  0  0  0
   59.2058   36.3942   45.1578 H   0  0  0  0  0  0  0  0  0  0  0  0
   60.9011   35.6308   46.8208 H   0  0  0  0  0  0  0  0  0  0  0  0
   61.0031   33.2393   47.4940 H   0  0  0  0  0  0  0  0  0  0  0  0
   61.7535   29.9265   45.1872 H   0  0  0  0  0  0  0  0  0  0  0  0
   61.4375   28.8568   46.5733 H   0  0  0  0  0  0  0  0  0  0  0  0
   60.2493   27.5521   44.2015 H   0  0  0  0  0  0  0  0  0  0  0  0
   57.8769   27.2341   43.4225 H   0  0  0  0  0  0  0  0  0  0  0  0
   56.0906   28.8163   44.1896 H   0  0  0  0  0  0  0  0  0  0  0  0
   56.6704   30.7070   45.7446 H   0  0  0  0  0  0  0  0  0  0  0  0
   60.6478   33.8040   49.8631 H   0  0  0  0  0  0  0  0  0  0  0  0
   62.0670   33.3330   50.8711 H   0  0  0  0  0  0  0  0  0  0  0  0
   61.9943   34.5448   48.0872 H   0  0  0  0  0  0  0  0  0  0  0  0
   62.9569   35.0240   49.5639 H   0  0  0  0  0  0  0  0  0  0  0  0
  1  2  1  0
  2  3  1  0
  3  4  1  0
  4  5  1  0
  5  6  1  0
  6  7  1  0
  7  8  1  0
  9  8  1  1
  9 10  1  0
 10 11  2  0
 11 12  1  0
 12 13  2  0
 13 14  1  0
 14 15  2  0
  9 16  1  0
 16 17  1  0
 17 18  1  0
 18 19  2  0
 19 20  1  0
 20 21  2  0
 21 22  1  0
 22 23  2  0
  5 24  1  0
 24 25  1  0
 25  2  1  0
 23  9  1  0
 15 10  1  0
 23 18  1  0
  1 26  1  0
  1 27  1  0
  1 28  1  0
  3 29  1  0
  3 30  1  0
  4 31  1  0
  4 32  1  0
  5 33  1  0
  6 34  1  0
  6 35  1  0
  7 36  1  0
  7 37  1  0
  8 38  1  0
  8 39  1  0
 11 40  1  0
 12 41  1  0
 13 42  1  0
 14 43  1  0
 15 44  1  0
 17 45  1  0
 17 46  1  0
 19 47  1  0
 20 48  1  0
 21 49  1  0
 22 50  1  0
 24 51  1  0
 24 52  1  0
 25 53  1  0
 25 54  1  0
M  CHG  1   5   1
M  END
>  <UniqueID>  (4) 
4

>  <SMILES>  (4) 
CN1CC[NH+](CCC[C@@]2(c3ccccc3)OCc3ccccc32)CC1

>  <Energy>  (4) 
84.067047949546

>  <Genealogy>  (4) 
CN1CC[NH+](CCCC2(c3ccccc3)OCc3ccccc32)CC1 (protonated)
CN1CC[NH+](CCC[C@@]2(c3ccccc3)OCc3ccccc32)CC1 (chirality)
CN1CC[NH+](CCC[C@@]2(c3ccccc3)OCc3ccccc32)CC1 (3D coordinates assigned)
CN1CC[NH+](CCC[C@@]2(c3ccccc3)OCc3ccccc32)CC1 (nonaromatic ring conformer: 84.067047949546 kcal/mol)

>  <smiles>  (4) 
CN1CCN(CCCC2(c3ccccc3)OCc3ccccc32)CC1

>  <score_type>  (4) 
oracle

>  <origin>  (4) 
adg

>  <m_score__min__energy>  (4) 
-5.9299999999999997

>  <m_primary>  (4) 
energy

$$$$
4:0
     RDKit          3D

 46 49  0  0  0  0  0  0  0  0999 V2000
   64.6110   33.1610   49.6490 C   0  0  0  0  0  0  0  0  0  0  0  0
   64.1430   32.9850   48.3440 C   0  0  0  0  0  0  0  0  0  0  0  0
   62.8610   33.4220   47.9940 C   0  0  0  0  0  0  0  0  0  0  0  0
   62.0380   34.0400   48.9510 C   0  0  0  0  0  0  0  0  0  0  0  0
   60.6610   34.5250   48.5830 C   0  0  0  0  0  0  0  0  0  0  0  0
   60.2790   34.0270   47.2460 N   0  0  0  0  0  0  0  0  0  0  0  0
   59.4420   32.8000   47.3200 C   0  0  0  0  0  0  0  0  0  0  0  0
   57.9410   33.0970   47.1430 C   0  0  0  0  0  0  0  0  0  0  0  0
   57.6440   33.8010   45.8620 N   0  0  0  0  0  0  0  0  0  0  0  0
   57.0120   32.9220   44.8480 C   0  0  0  0  0  0  0  0  0  0  0  0
   57.4640   31.4870   44.9260 C   0  0  0  0  0  0  0  0  0  0  0  0
   58.7620   31.0330   44.7000 C   0  0  0  0  0  0  0  0  0  0  0  0
   58.6870   29.6760   44.9020 C   0  0  0  0  0  0  0  0  0  0  0  0
   59.6640   28.6860   44.8280 C   0  0  0  0  0  0  0  0  0  0  0  0
   59.2740   27.3600   45.0980 C   0  0  0  0  0  0  0  0  0  0  0  0
   57.9330   27.0630   45.4310 C   0  0  0  0  0  0  0  0  0  0  0  0
   56.9700   28.0870   45.4970 C   0  0  0  0  0  0  0  0  0  0  0  0
   57.3870   29.3880   45.2240 C   0  0  0  0  0  0  0  0  0  0  0  0
   56.6640   30.4810   45.2330 O   0  0  0  0  0  0  0  0  0  0  0  0
   58.8060   34.5400   45.3090 C   0  0  0  0  0  0  0  0  0  0  0  0
   59.6740   35.1100   46.4350 C   0  0  0  0  0  0  0  0  0  0  0  0
   62.5160   34.2130   50.2600 C   0  0  0  0  0  0  0  0  0  0  0  0
   63.7980   33.7750   50.6070 C   0  0  0  0  0  0  0  0  0  0  0  0
   65.6192   32.8165   49.9227 H   0  0  0  0  0  0  0  0  0  0  0  0
   64.7834   32.5023   47.5911 H   0  0  0  0  0  0  0  0  0  0  0  0
   62.4958   33.2814   46.9660 H   0  0  0  0  0  0  0  0  0  0  0  0
   59.9374   34.1591   49.3263 H   0  0  0  0  0  0  0  0  0  0  0  0
   60.6631   35.6249   48.5665 H   0  0  0  0  0  0  0  0  0  0  0  0
   59.7604   32.1077   46.5267 H   0  0  0  0  0  0  0  0  0  0  0  0
   59.5799   32.3617   48.3194 H   0  0  0  0  0  0  0  0  0  0  0  0
   57.3891   32.1456   47.1586 H   0  0  0  0  0  0  0  0  0  0  0  0
   57.6322   33.7579   47.9663 H   0  0  0  0  0  0  0  0  0  0  0  0
   56.9200   34.5250   46.0880 H   0  0  0  0  0  0  0  0  0  0  0  0
   55.9221   32.9514   44.9935 H   0  0  0  0  0  0  0  0  0  0  0  0
   57.3134   33.3013   43.8604 H   0  0  0  0  0  0  0  0  0  0  0  0
   59.6459   31.6263   44.4228 H   0  0  0  0  0  0  0  0  0  0  0  0
   60.7042   28.9314   44.5677 H   0  0  0  0  0  0  0  0  0  0  0  0
   60.0174   26.5507   45.0494 H   0  0  0  0  0  0  0  0  0  0  0  0
   57.6398   26.0236   45.6402 H   0  0  0  0  0  0  0  0  0  0  0  0
   55.9235   27.8677   45.7554 H   0  0  0  0  0  0  0  0  0  0  0  0
   59.4119   33.8545   44.6984 H   0  0  0  0  0  0  0  0  0  0  0  0
   58.4340   35.3730   44.6944 H   0  0  0  0  0  0  0  0  0  0  0  0
   60.4767   35.7202   45.9954 H   0  0  0  0  0  0  0  0  0  0  0  0
   59.0366   35.7215   47.0906 H   0  0  0  0  0  0  0  0  0  0  0  0
   61.8790   34.6953   51.0161 H   0  0  0  0  0  0  0  0  0  0  0  0
   64.1671   33.9135   51.6339 H   0  0  0  0  0  0  0  0  0  0  0  0
  1  2  2  0
  2  3  1  0
  3  4  2  0
  4  5  1  0
  5  6  1  0
  6  7  1  0
  7  8  1  0
  8  9  1  0
  9 10  1  0
 10 11  1  0
 11 12  2  0
 12 13  1  0
 13 14  2  0
 14 15  1  0
 15 16  2  0
 16 17  1  0
 17 18  2  0
 18 19  1  0
  9 20  1  0
 20 21  1  0
  4 22  1  0
 22 23  2  0
 23  1  1  0
 21  6  1  0
 19 11  1  0
 18 13  1  0
  1 24  1  0
  2 25  1  0
  3 26  1  0
  5 27  1  0
  5 28  1  0
  7 29  1  0
  7 30  1  0
  8 31  1  0
  8 32  1  0
  9 33  1  0
 10 34  1  0
 10 35  1  0
 12 36  1  0
 14 37  1  0
 15 38  1  0
 16 39  1  0
 17 40  1  0
 20 41  1  0
 20 42  1  0
 21 43  1  0
 21 44  1  0
 22 45  1  0
 23 46  1  0
M  CHG  1   9   1
M  END
>  <UniqueID>  (5) 
5

>  <SMILES>  (5) 
c1ccc(CN2CC[NH+](Cc3cc4ccccc4o3)CC2)cc1

>  <Energy>  (5) 
96.79163289089945

>  <Genealogy>  (5) 
c1ccc(CN2CC[NH+](Cc3cc4ccccc4o3)CC2)cc1 (protonated)
c1ccc(CN2CC[NH+](Cc3cc4ccccc4o3)CC2)cc1 (3D coordinates assigned)
c1ccc(CN2CC[NH+](Cc3cc4ccccc4o3)CC2)cc1 (nonaromatic ring conformer: 96.79163289089945 kcal/mol)

>  <smiles>  (5) 
c1ccc(CN2CCN(Cc3cc4ccccc4o3)CC2)cc1

>  <score_type>  (5) 
oracle

>  <origin>  (5) 
adg

>  <m_score__min__energy>  (5) 
-6.4699999999999998

>  <m_primary>  (5) 
energy

$$$$
5:0
     RDKit          3D

 41 43  0  0  0  0  0  0  0  0999 V2000
   64.7812   33.9304   47.1121 H   0  0  0  0  0  0  0  0  0  0  0  0
   63.7890   33.8120   47.5720 C   0  0  0  0  0  0  0  0  0  0  0  0
   63.6570   33.8470   48.9590 C   0  0  0  0  0  0  0  0  0  0  0  0
   64.5445   33.9945   49.5919 H   0  0  0  0  0  0  0  0  0  0  0  0
   62.3990   33.6950   49.5460 C   0  0  0  0  0  0  0  0  0  0  0  0
   62.3001   33.7305   50.6410 H   0  0  0  0  0  0  0  0  0  0  0  0
   61.2580   33.4970   48.7490 C   0  0  0  0  0  0  0  0  0  0  0  0
   59.9160   33.3400   49.4100 C   0  0  0  0  0  0  0  0  0  0  0  0
   60.0415   33.3547   50.5027 H   0  0  0  0  0  0  0  0  0  0  0  0
   59.2582   34.1673   49.1053 H   0  0  0  0  0  0  0  0  0  0  0  0
   59.4669   32.3832   49.1053 H   0  0  0  0  0  0  0  0  0  0  0  0
   61.3900   33.4630   47.3390 C   0  0  0  0  0  0  0  0  0  0  0  0
   60.2280   33.3240   46.4990 N   0  0  0  0  0  0  0  0  0  0  0  0
   60.1860   32.5240   45.8300 H   0  0  0  0  0  0  0  0  0  0  0  0
   59.1210   34.2400   46.5070 C   0  0  0  0  0  0  0  0  0  0  0  0
   59.2300   35.3690   47.0600 O   0  0  0  0  0  0  0  0  0  0  0  0
   57.8460   33.8880   45.8040 C   0  0  0  0  0  0  0  0  0  0  0  0
   57.3301   34.8147   45.5123 H   0  0  0  0  0  0  0  0  0  0  0  0
   57.2235   33.2953   46.4904 H   0  0  0  0  0  0  0  0  0  0  0  0
   58.1660   32.8890   44.3080 S   0  0  0  0  0  0  0  0  0  0  0  0
   58.1760   31.3100   45.1720 C   0  0  0  0  0  0  0  0  0  0  0  0
   59.2980   31.0310   45.8900 N   0  0  0  0  0  0  0  0  0  0  0  0
   59.4260   29.8970   46.6210 C   0  0  0  0  0  0  0  0  0  0  0  0
   60.5940   29.6410   47.3480 C   0  0  0  0  0  0  0  0  0  0  0  0
   61.4281   30.3577   47.3220 H   0  0  0  0  0  0  0  0  0  0  0  0
   60.6980   28.4710   48.1080 C   0  0  0  0  0  0  0  0  0  0  0  0
   61.6138   28.2693   48.6829 H   0  0  0  0  0  0  0  0  0  0  0  0
   59.6390   27.5570   48.1380 C   0  0  0  0  0  0  0  0  0  0  0  0
   59.7238   26.6387   48.7377 H   0  0  0  0  0  0  0  0  0  0  0  0
   58.4720   27.8080   47.4070 C   0  0  0  0  0  0  0  0  0  0  0  0
   57.6414   27.0872   47.4294 H   0  0  0  0  0  0  0  0  0  0  0  0
   58.3650   28.9780   46.6480 C   0  0  0  0  0  0  0  0  0  0  0  0
   57.2490   29.2360   45.9230 N   0  0  0  0  0  0  0  0  0  0  0  0
   57.1080   30.3600   45.1690 C   0  0  0  0  0  0  0  0  0  0  0  0
   56.0020   30.4720   44.4800 N   0  0  0  0  0  0  0  0  0  0  0  0
   55.5260   29.7220   43.3250 C   0  0  0  0  0  0  0  0  0  0  0  0
   54.9657   28.8392   43.6666 H   0  0  0  0  0  0  0  0  0  0  0  0
   54.8682   30.3616   42.7182 H   0  0  0  0  0  0  0  0  0  0  0  0
   56.3848   29.3990   42.7182 H   0  0  0  0  0  0  0  0  0  0  0  0
   62.6650   33.6270   46.7650 C   0  0  0  0  0  0  0  0  0  0  0  0
   62.7765   33.6092   45.6708 H   0  0  0  0  0  0  0  0  0  0  0  0
  1  2  1  0
  2  3  2  0
  3  4  1  0
  3  5  1  0
  5  6  1  0
  5  7  2  0
  7  8  1  0
  8  9  1  0
  8 10  1  0
  8 11  1  0
  7 12  1  0
 12 13  1  0
 13 14  1  0
 13 15  1  0
 15 16  2  0
 15 17  1  0
 17 18  1  0
 17 19  1  0
 17 20  1  0
 20 21  1  0
 21 22  2  0
 22 23  1  0
 23 24  2  0
 24 25  1  0
 24 26  1  0
 26 27  1  0
 26 28  2  0
 28 29  1  0
 28 30  1  0
 30 31  1  0
 30 32  2  0
 32 33  1  0
 33 34  1  0
 34 35  2  0
 35 36  1  0
 36 37  1  0
 36 38  1  0
 36 39  1  0
 12 40  2  0
 40 41  1  0
 40  2  1  0
 34 21  1  0
 32 23  1  0
M  CHG  1  33  -1
M  END
>  <UniqueID>  (6) 
6

>  <SMILES>  (6) 
C/N=c1/[n-]c2ccccc2nc1SCC(=O)Nc1ccccc1C

>  <Energy>  (6) 
52.78209242958029

>  <Genealogy>  (6) 
CN=c1[n-]c2ccccc2nc1SCC(=O)Nc1ccccc1C (protonated)
C/N=c1/[n-]c2ccccc2nc1SCC(=O)Nc1ccccc1C (cis-trans isomerization)
C/N=c1/[n-]c2ccccc2nc1SCC(=O)Nc1ccccc1C (3D coordinates assigned)
C/N=c1/[n-]c2ccccc2nc1SCC(=O)Nc1ccccc1C (optimized conformer: 52.78209242958029 kcal/mol)

>  <smiles>  (6) 
CN=c1[nH]c2ccccc2nc1SCC(=O)Nc1ccccc1C

>  <score_type>  (6) 
oracle

>  <origin>  (6) 
adg

>  <m_score__min__energy>  (6) 
-8.9299999999999997

>  <m_primary>  (6) 
energy

$$$$
6:0
     RDKit          3D

 57 60  0  0  0  0  0  0  0  0999 V2000
   57.0470   21.0870   42.8710 C   0  0  0  0  0  0  0  0  0  0  0  0
   55.9610   21.9290   43.2450 O   0  0  0  0  0  0  0  0  0  0  0  0
   55.8100   22.5180   44.5090 C   0  0  0  0  0  0  0  0  0  0  0  0
   56.0150   23.8960   44.7280 C   0  0  0  0  0  0  0  0  0  0  0  0
   55.8480   24.4540   46.0080 C   0  0  0  0  0  0  0  0  0  0  0  0
   56.0770   25.9030   46.2240 C   0  0  0  0  0  0  0  0  0  0  0  0
   55.1470   26.7200   45.9780 O   0  0  0  0  0  0  0  0  0  0  0  0
   57.3320   26.3880   46.7270 N   0  0  0  0  0  0  0  0  0  0  0  0
   57.6800   27.8160   46.7120 C   0  0  1  0  0  0  0  0  0  0  0  0
   59.1710   28.0590   47.0050 C   0  0  1  0  0  0  0  0  0  0  0  0
   60.0690   27.3680   45.9460 C   0  0  0  0  0  0  0  0  0  0  0  0
   59.3380   27.0850   44.6180 C   0  0  0  0  0  0  0  0  0  0  0  0
   58.3820   28.1580   44.2800 N   0  0  0  0  0  0  0  0  0  0  0  0
   57.7260   27.8680   42.9950 C   0  0  0  0  0  0  0  0  0  0  0  0
   57.3800   28.4800   45.3410 C   0  0  2  0  0  0  0  0  0  0  0  0
   57.4050   30.0040   45.5550 C   0  0  0  0  0  0  0  0  0  0  0  0
   58.6550   30.4620   46.2820 C   0  0  0  0  0  0  0  0  0  0  0  0
   58.9720   31.8260   46.2910 C   0  0  0  0  0  0  0  0  0  0  0  0
   60.0860   32.3030   47.0060 C   0  0  0  0  0  0  0  0  0  0  0  0
   60.4310   33.6640   47.0250 O   0  0  0  0  0  0  0  0  0  0  0  0
   59.6950   34.6940   46.3750 C   0  0  0  0  0  0  0  0  0  0  0  0
   60.8850   31.4060   47.7290 C   0  0  0  0  0  0  0  0  0  0  0  0
   61.9920   31.9140   48.4270 O   0  0  0  0  0  0  0  0  0  0  0  0
   63.1680   32.4290   47.8110 C   0  0  0  0  0  0  0  0  0  0  0  0
   60.5630   30.0350   47.7340 C   0  0  0  0  0  0  0  0  0  0  0  0
   59.4490   29.5560   47.0290 C   0  0  0  0  0  0  0  0  0  0  0  0
   55.4890   23.6130   47.0760 C   0  0  0  0  0  0  0  0  0  0  0  0
   55.2850   22.2480   46.8640 C   0  0  0  0  0  0  0  0  0  0  0  0
   55.4430   21.7030   45.5870 C   0  0  0  0  0  0  0  0  0  0  0  0
   55.2360   20.3420   45.3920 O   0  0  0  0  0  0  0  0  0  0  0  0
   57.5418   20.7033   43.7754 H   0  0  0  0  0  0  0  0  0  0  0  0
   56.6687   20.2439   42.2744 H   0  0  0  0  0  0  0  0  0  0  0  0
   57.7693   21.6635   42.2744 H   0  0  0  0  0  0  0  0  0  0  0  0
   56.3090   24.5420   43.8876 H   0  0  0  0  0  0  0  0  0  0  0  0
   57.9560   25.7170   47.2310 H   0  0  0  0  0  0  0  0  0  0  0  0
   57.0569   28.2622   47.5010 H   0  0  0  0  0  0  0  0  0  0  0  0
   59.4085   27.6242   47.9871 H   0  0  0  0  0  0  0  0  0  0  0  0
   60.9298   28.0207   45.7386 H   0  0  0  0  0  0  0  0  0  0  0  0
   60.3760   26.3972   46.3624 H   0  0  0  0  0  0  0  0  0  0  0  0
   60.0822   27.0040   43.8120 H   0  0  0  0  0  0  0  0  0  0  0  0
   58.7742   26.1472   44.7307 H   0  0  0  0  0  0  0  0  0  0  0  0
   56.7343   27.4296   43.1803 H   0  0  0  0  0  0  0  0  0  0  0  0
   57.6135   28.8003   42.4221 H   0  0  0  0  0  0  0  0  0  0  0  0
   58.3398   27.1574   42.4221 H   0  0  0  0  0  0  0  0  0  0  0  0
   56.4082   28.0968   44.9963 H   0  0  0  0  0  0  0  0  0  0  0  0
   57.3645   30.4998   44.5739 H   0  0  0  0  0  0  0  0  0  0  0  0
   56.5372   30.2713   46.1759 H   0  0  0  0  0  0  0  0  0  0  0  0
   58.3420   32.5335   45.7320 H   0  0  0  0  0  0  0  0  0  0  0  0
   59.2300   35.3448   47.1301 H   0  0  0  0  0  0  0  0  0  0  0  0
   60.3738   35.2889   45.7462 H   0  0  0  0  0  0  0  0  0  0  0  0
   58.9123   34.2445   45.7462 H   0  0  0  0  0  0  0  0  0  0  0  0
   63.8818   32.7416   48.5874 H   0  0  0  0  0  0  0  0  0  0  0  0
   63.6256   31.6489   47.1849 H   0  0  0  0  0  0  0  0  0  0  0  0
   62.9050   33.2943   47.1849 H   0  0  0  0  0  0  0  0  0  0  0  0
   61.1929   29.3311   48.2977 H   0  0  0  0  0  0  0  0  0  0  0  0
   55.3680   24.0332   48.0854 H   0  0  0  0  0  0  0  0  0  0  0  0
   54.9989   21.5994   47.7052 H   0  0  0  0  0  0  0  0  0  0  0  0
  1  2  1  0
  2  3  1  0
  3  4  2  0
  4  5  1  0
  5  6  1  0
  6  7  2  0
  6  8  1  0
  8  9  1  0
  9 10  1  0
 10 11  1  0
 11 12  1  0
 12 13  1  0
 13 14  1  0
 13 15  1  0
 15 16  1  0
 16 17  1  0
 17 18  2  0
 18 19  1  0
 19 20  1  0
 20 21  1  0
 19 22  2  0
 22 23  1  0
 23 24  1  0
 22 25  1  0
 25 26  2  0
  5 27  2  0
 27 28  1  0
 28 29  2  0
 29 30  1  0
 29  3  1  0
 15  9  1  0
 26 17  1  0
 26 10  1  0
  1 31  1  0
  1 32  1  0
  1 33  1  0
  4 34  1  0
  8 35  1  0
  9 36  1  1
 10 37  1  1
 11 38  1  0
 11 39  1  0
 12 40  1  0
 12 41  1  0
 14 42  1  0
 14 43  1  0
 14 44  1  0
 15 45  1  6
 16 46  1  0
 16 47  1  0
 18 48  1  0
 21 49  1  0
 21 50  1  0
 21 51  1  0
 24 52  1  0
 24 53  1  0
 24 54  1  0
 25 55  1  0
 27 56  1  0
 28 57  1  0
M  CHG  1  30  -1
M  END
>  <UniqueID>  (7) 
7

>  <SMILES>  (7) 
COc1cc(C(=O)N[C@@H]2C3Cc4cc(OC)c(OC)cc4[C@@H]2CCN3C)ccc1[O-]

>  <Energy>  (7) 
74.06870523538143

>  <Genealogy>  (7) 
COc1cc(C(=O)NC2C3CCN(C)C2Cc2cc(OC)c(OC)cc23)ccc1[O-] (protonated)
COc1cc(C(=O)N[C@@H]2C3Cc4cc(OC)c(OC)cc4[C@@H]2CCN3C)ccc1[O-] (chirality)
COc1cc(C(=O)N[C@@H]2C3Cc4cc(OC)c(OC)cc4[C@@H]2CCN3C)ccc1[O-] (3D coordinates assigned)
COc1cc(C(=O)N[C@@H]2C3Cc4cc(OC)c(OC)cc4[C@@H]2CCN3C)ccc1[O-] (nonaromatic ring conformer: 74.06870523538143 kcal/mol)

>  <smiles>  (7) 
COc1cc(C(=O)NC2C3CCN(C)C2Cc2cc(OC)c(OC)cc23)ccc1O

>  <score_type>  (7) 
oracle

>  <origin>  (7) 
adg

>  <m_score__min__energy>  (7) 
-10.23

>  <m_primary>  (7) 
energy

$$$$
7:0
     RDKit          3D

 65 68  0  0  0  0  0  0  0  0999 V2000
   63.3330   30.7920   50.0300 O   0  0  0  0  0  0  0  0  0  0  0  0
   62.4730   30.9910   50.9300 C   0  0  0  0  0  0  0  0  0  0  0  0
   61.4300   30.0250   51.1340 N   0  0  0  0  0  0  0  0  0  0  0  0
   60.8060   29.2800   50.0740 C   0  0  0  0  0  0  0  0  0  0  0  0
   59.9350   29.8940   49.1540 C   0  0  0  0  0  0  0  0  0  0  0  0
   59.3120   29.1410   48.1550 C   0  0  0  0  0  0  0  0  0  0  0  0
   59.5410   27.7590   48.0640 C   0  0  0  0  0  0  0  0  0  0  0  0
   58.8540   26.9380   47.0050 C   0  0  0  0  0  0  0  0  0  0  0  0
   59.6790   26.8660   45.7120 C   0  0  0  0  0  0  0  0  0  0  0  0
   59.8790   28.2460   45.0670 C   0  0  0  0  0  0  0  0  0  0  0  0
   58.5810   28.9470   44.9700 N   0  0  0  0  0  0  0  0  0  0  0  0
   58.7610   30.4080   44.8610 C   0  0  0  0  0  0  0  0  0  0  0  0
   57.3840   31.1070   44.8430 C   0  0  0  0  0  0  0  0  0  0  0  0
   56.3130   30.1930   44.6730 O   0  0  0  0  0  0  0  0  0  0  0  0
   56.5680   29.3570   43.5630 C   0  0  0  0  0  0  0  0  0  0  0  0
   57.7870   28.4500   43.8270 C   0  0  0  0  0  0  0  0  0  0  0  0
   60.3880   27.1410   48.9960 C   0  0  0  0  0  0  0  0  0  0  0  0
   61.0140   27.8960   49.9920 C   0  0  0  0  0  0  0  0  0  0  0  0
   62.5950   32.1880   51.8580 C   0  0  0  0  0  0  0  0  0  0  0  0
   61.2720   32.9790   51.9310 C   0  0  0  0  0  0  0  0  0  0  0  0
   60.8740   33.5220   50.5460 C   0  0  0  0  0  0  0  0  0  0  0  0
   62.0620   33.8360   49.7320 N   0  0  0  0  0  0  0  0  0  0  0  0
   62.0490   33.6280   48.3020 C   0  0  0  0  0  0  0  0  0  0  0  0
   63.1100   33.2880   47.7130 O   0  0  0  0  0  0  0  0  0  0  0  0
   60.8060   33.7660   47.5070 C   0  0  0  0  0  0  0  0  0  0  0  0
   59.6300   33.1000   47.8900 C   0  0  0  0  0  0  0  0  0  0  0  0
   58.4610   33.2420   47.1390 C   0  0  0  0  0  0  0  0  0  0  0  0
   58.4490   34.0600   46.0060 C   0  0  0  0  0  0  0  0  0  0  0  0
   56.9720   34.2500   45.0820 Cl  0  0  0  0  0  0  0  0  0  0  0  0
   59.6100   34.7410   45.6260 C   0  0  0  0  0  0  0  0  0  0  0  0
   60.7820   34.6020   46.3770 C   0  0  0  0  0  0  0  0  0  0  0  0
   63.3050   34.2220   50.4170 C   0  0  0  0  0  0  0  0  0  0  0  0
   63.7390   33.1550   51.4460 C   0  0  0  0  0  0  0  0  0  0  0  0
   61.1030   29.8610   52.1140 H   0  0  0  0  0  0  0  0  0  0  0  0
   59.7433   30.9750   49.2220 H   0  0  0  0  0  0  0  0  0  0  0  0
   58.6395   29.6332   47.4371 H   0  0  0  0  0  0  0  0  0  0  0  0
   58.7031   25.9179   47.3879 H   0  0  0  0  0  0  0  0  0  0  0  0
   57.8932   27.4193   46.7702 H   0  0  0  0  0  0  0  0  0  0  0  0
   60.6654   26.4390   45.9457 H   0  0  0  0  0  0  0  0  0  0  0  0
   59.1272   26.2384   44.9967 H   0  0  0  0  0  0  0  0  0  0  0  0
   60.5697   28.8403   45.6832 H   0  0  0  0  0  0  0  0  0  0  0  0
   60.2985   28.1178   44.0582 H   0  0  0  0  0  0  0  0  0  0  0  0
   59.3422   30.7692   45.7222 H   0  0  0  0  0  0  0  0  0  0  0  0
   59.2965   30.6385   43.9282 H   0  0  0  0  0  0  0  0  0  0  0  0
   57.2459   31.6389   45.7959 H   0  0  0  0  0  0  0  0  0  0  0  0
   57.3717   31.7990   43.9880 H   0  0  0  0  0  0  0  0  0  0  0  0
   55.6851   28.7284   43.3750 H   0  0  0  0  0  0  0  0  0  0  0  0
   56.7824   29.9889   42.6885 H   0  0  0  0  0  0  0  0  0  0  0  0
   57.4358   27.4315   44.0491 H   0  0  0  0  0  0  0  0  0  0  0  0
   58.4249   28.4516   42.9308 H   0  0  0  0  0  0  0  0  0  0  0  0
   60.5605   26.0559   48.9427 H   0  0  0  0  0  0  0  0  0  0  0  0
   61.6754   27.4000   50.7176 H   0  0  0  0  0  0  0  0  0  0  0  0
   62.8354   31.7731   52.8480 H   0  0  0  0  0  0  0  0  0  0  0  0
   60.4761   32.3148   52.2988 H   0  0  0  0  0  0  0  0  0  0  0  0
   61.4110   33.8304   52.6135 H   0  0  0  0  0  0  0  0  0  0  0  0
   60.2718   32.7641   50.0235 H   0  0  0  0  0  0  0  0  0  0  0  0
   60.2966   34.4473   50.6888 H   0  0  0  0  0  0  0  0  0  0  0  0
   59.6298   32.4629   48.7867 H   0  0  0  0  0  0  0  0  0  0  0  0
   57.5474   32.7086   47.4401 H   0  0  0  0  0  0  0  0  0  0  0  0
   59.6015   35.3867   44.7355 H   0  0  0  0  0  0  0  0  0  0  0  0
   61.6893   35.1495   46.0819 H   0  0  0  0  0  0  0  0  0  0  0  0
   64.1026   34.3427   49.6692 H   0  0  0  0  0  0  0  0  0  0  0  0
   63.1250   35.1655   50.9531 H   0  0  0  0  0  0  0  0  0  0  0  0
   64.5555   32.5617   51.0086 H   0  0  0  0  0  0  0  0  0  0  0  0
   64.0519   33.6907   52.3543 H   0  0  0  0  0  0  0  0  0  0  0  0
  1  2  2  0
  2  3  1  0
  3  4  1  0
  4  5  2  0
  5  6  1  0
  6  7  2  0
  7  8  1  0
  8  9  1  0
  9 10  1  0
 10 11  1  0
 11 12  1  0
 12 13  1  0
 13 14  1  0
 14 15  1  0
 15 16  1  0
  7 17  1  0
 17 18  2  0
  2 19  1  0
 19 20  1  0
 20 21  1  0
 21 22  1  0
 22 23  1  0
 23 24  2  0
 23 25  1  0
 25 26  2  0
 26 27  1  0
 27 28  2  0
 28 29  1  0
 28 30  1  0
 30 31  2  0
 22 32  1  0
 32 33  1  0
 18  4  1  0
 33 19  1  0
 16 11  1  0
 31 25  1  0
  3 34  1  0
  5 35  1  0
  6 36  1  0
  8 37  1  0
  8 38  1  0
  9 39  1  0
  9 40  1  0
 10 41  1  0
 10 42  1  0
 12 43  1  0
 12 44  1  0
 13 45  1  0
 13 46  1  0
 15 47  1  0
 15 48  1  0
 16 49  1  0
 16 50  1  0
 17 51  1  0
 18 52  1  0
 19 53  1  0
 20 54  1  0
 20 55  1  0
 21 56  1  0
 21 57  1  0
 26 58  1  0
 27 59  1  0
 30 60  1  0
 31 61  1  0
 32 62  1  0
 32 63  1  0
 33 64  1  0
 33 65  1  0
M  END
>  <UniqueID>  (8) 
8

>  <SMILES>  (8) 
O=C(Nc1ccc(CCCN2CCOCC2)cc1)C1CCN(C(=O)c2ccc(Cl)cc2)CC1

>  <Energy>  (8) 
81.1088134966261

>  <Genealogy>  (8) 
O=C(Nc1ccc(CCCN2CCOCC2)cc1)C1CCN(C(=O)c2ccc(Cl)cc2)CC1 (3D coordinates assigned)
O=C(Nc1ccc(CCCN2CCOCC2)cc1)C1CCN(C(=O)c2ccc(Cl)cc2)CC1 (nonaromatic ring conformer: 81.1088134966261 kcal/mol)

>  <smiles>  (8) 
O=C(Nc1ccc(CCCN2CCOCC2)cc1)C1CCN(C(=O)c2ccc(Cl)cc2)CC1

>  <score_type>  (8) 
oracle

>  <origin>  (8) 
adg

>  <m_score__min__energy>  (8) 
-9.6799999999999997

>  <m_primary>  (8) 
energy

$$$$
8:0
     RDKit          3D

 56 59  0  0  1  0  0  0  0  0999 V2000
   57.8640   31.5510   43.0850 C   0  0  0  0  0  0  0  0  0  0  0  0
   57.0240   30.8870   44.2100 C   0  0  2  0  0  0  0  0  0  0  0  0
   56.8740   31.8990   45.2090 N   0  0  0  0  0  0  0  0  0  0  0  0
   57.7360   32.8380   45.3530 C   0  0  0  0  0  0  0  0  0  0  0  0
   58.7400   32.6170   46.2230 N   0  0  0  0  0  0  0  0  0  0  0  0
   59.7120   33.5160   46.4720 C   0  0  0  0  0  0  0  0  0  0  0  0
   60.7630   33.2670   47.3910 N   0  0  0  0  0  0  0  0  0  0  0  0
   62.1310   33.7100   47.2740 C   0  0  0  0  0  0  0  0  0  0  0  0
   62.7700   33.8440   46.1750 O   0  0  0  0  0  0  0  0  0  0  0  0
   62.5710   33.9440   48.5660 O   0  0  0  0  0  0  0  0  0  0  0  0
   61.9990   32.9490   49.3730 C   0  0  0  0  0  0  0  0  0  0  0  0
   60.7430   32.5280   48.6440 C   0  0  2  0  0  0  0  0  0  0  0  0
   60.8120   31.0450   48.4850 C   0  0  0  0  0  0  0  0  0  0  0  0
   59.3590   30.5500   48.5450 C   0  0  0  0  0  0  0  0  0  0  0  0
   61.3160   30.5920   47.1270 C   0  0  0  0  0  0  0  0  0  0  0  0
   59.6390   34.7070   45.7810 C   0  0  0  0  0  0  0  0  0  0  0  0
   58.6100   34.9590   44.8760 C   0  0  0  0  0  0  0  0  0  0  0  0
   57.6840   34.0040   44.6910 N   0  0  0  0  0  0  0  0  0  0  0  0
   57.8710   29.7290   44.6470 C   0  0  0  0  0  0  0  0  0  0  0  0
   59.2310   29.6970   44.4890 C   0  0  0  0  0  0  0  0  0  0  0  0
   60.0090   28.6170   44.9020 C   0  0  0  0  0  0  0  0  0  0  0  0
   59.4260   27.5310   45.4920 C   0  0  0  0  0  0  0  0  0  0  0  0
   58.0580   27.5310   45.6670 C   0  0  0  0  0  0  0  0  0  0  0  0
   57.3900   26.3760   46.3000 C   0  0  0  0  0  0  0  0  0  0  0  0
   56.1280   26.0040   45.8270 C   0  0  0  0  0  0  0  0  0  0  0  0
   55.4820   24.9420   46.3870 N   0  0  0  0  0  0  0  0  0  0  0  0
   56.0900   24.2790   47.3890 C   0  0  0  0  0  0  0  0  0  0  0  0
   55.4540   23.2810   47.8970 N   0  0  0  0  0  0  0  0  0  0  0  0
   57.2950   24.6130   47.8610 N   0  0  0  0  0  0  0  0  0  0  0  0
   57.9740   25.6680   47.3280 C   0  0  0  0  0  0  0  0  0  0  0  0
   57.2990   28.6060   45.2540 C   0  0  0  0  0  0  0  0  0  0  0  0
   58.6516   32.1736   43.5344 H   0  0  0  0  0  0  0  0  0  0  0  0
   58.3246   30.7702   42.4619 H   0  0  0  0  0  0  0  0  0  0  0  0
   57.2107   32.1794   42.4619 H   0  0  0  0  0  0  0  0  0  0  0  0
   56.0207   30.5229   43.9437 H   0  0  0  0  0  0  0  0  0  0  0  0
   61.7528   33.3513   50.3667 H   0  0  0  0  0  0  0  0  0  0  0  0
   62.6847   32.1045   49.5362 H   0  0  0  0  0  0  0  0  0  0  0  0
   59.7967   32.7478   49.1600 H   0  0  0  0  0  0  0  0  0  0  0  0
   61.4932   30.6605   49.2584 H   0  0  0  0  0  0  0  0  0  0  0  0
   59.0505   30.4449   49.5956 H   0  0  0  0  0  0  0  0  0  0  0  0
   58.7034   31.2755   48.0412 H   0  0  0  0  0  0  0  0  0  0  0  0
   59.2826   29.5752   48.0412 H   0  0  0  0  0  0  0  0  0  0  0  0
   62.1279   29.8622   47.2620 H   0  0  0  0  0  0  0  0  0  0  0  0
   60.4923   30.1247   46.5674 H   0  0  0  0  0  0  0  0  0  0  0  0
   61.6931   31.4607   46.5674 H   0  0  0  0  0  0  0  0  0  0  0  0
   60.4093   35.4743   45.9477 H   0  0  0  0  0  0  0  0  0  0  0  0
   58.5576   35.9120   44.3292 H   0  0  0  0  0  0  0  0  0  0  0  0
   56.9010   34.1700   44.0260 H   0  0  0  0  0  0  0  0  0  0  0  0
   59.7287   30.5573   44.0177 H   0  0  0  0  0  0  0  0  0  0  0  0
   61.0985   28.6389   44.7522 H   0  0  0  0  0  0  0  0  0  0  0  0
   60.0346   26.6755   45.8202 H   0  0  0  0  0  0  0  0  0  0  0  0
   55.6582   26.5659   45.0063 H   0  0  0  0  0  0  0  0  0  0  0  0
   54.6200   23.4870   48.4900 H   0  0  0  0  0  0  0  0  0  0  0  0
   57.7720   24.0920   48.6490 H   0  0  0  0  0  0  0  0  0  0  0  0
   58.9667   25.9482   47.7102 H   0  0  0  0  0  0  0  0  0  0  0  0
   56.2100   28.5795   45.4067 H   0  0  0  0  0  0  0  0  0  0  0  0
  1  2  1  0
  2  3  1  0
  3  4  2  0
  4  5  1  0
  5  6  2  0
  6  7  1  0
  7  8  1  0
  8  9  2  0
  8 10  1  0
 10 11  1  0
 11 12  1  0
 12 13  1  0
 13 14  1  0
 13 15  1  0
  6 16  1  0
 16 17  2  0
 17 18  1  0
  2 19  1  0
 19 20  2  0
 20 21  1  0
 21 22  2  0
 22 23  1  0
 23 24  1  0
 24 25  1  0
 25 26  2  0
 26 27  1  0
 27 28  2  3
 27 29  1  0
 29 30  1  0
 23 31  2  0
 18  4  1  0
 31 19  1  0
 12  7  1  0
 30 24  2  0
  1 32  1  0
  1 33  1  0
  1 34  1  0
  2 35  1  6
 11 36  1  0
 11 37  1  0
 12 38  1  1
 13 39  1  0
 14 40  1  0
 14 41  1  0
 14 42  1  0
 15 43  1  0
 15 44  1  0
 15 45  1  0
 16 46  1  0
 17 47  1  0
 18 48  1  0
 20 49  1  0
 21 50  1  0
 22 51  1  0
 25 52  1  0
 28 53  1  0
 29 54  1  0
 30 55  1  0
 31 56  1  0
M  END
>  <smiles>  (9) 
CC(N=c1nc(N2C(=O)OCC2C(C)C)cc[nH]1)c1cccc(-c2cnc(=N)[nH]c2)c1

>  <score_type>  (9) 
oracle

>  <origin>  (9) 
adg

>  <m_score__min__energy>  (9) 
-9.8800000000000008

>  <m_primary>  (9) 
energy

$$$$
9:0
     RDKit          3D

 51 54  0  0  1  0  0  0  0  0999 V2000
   57.8670   32.2440   42.2650 C   0  0  0  0  0  0  0  0  0  0  0  0
   57.0190   31.3000   42.5900 C   0  0  0  0  0  0  0  0  0  0  0  0
   57.1180   30.5030   43.8260 C   0  0  0  0  0  0  0  0  0  0  0  0
   56.4880   30.9280   44.8190 O   0  0  0  0  0  0  0  0  0  0  0  0
   57.8770   29.3140   43.9120 N   0  0  0  0  0  0  0  0  0  0  0  0
   58.0290   28.4940   45.0410 C   0  0  0  0  0  0  0  0  0  0  0  0
   57.4290   27.2990   45.2730 C   0  0  0  0  0  0  0  0  0  0  0  0
   57.6520   26.5580   46.4390 C   0  0  0  0  0  0  0  0  0  0  0  0
   58.5030   27.0160   47.4210 C   0  0  0  0  0  0  0  0  0  0  0  0
   59.1180   28.2290   47.1960 C   0  0  0  0  0  0  0  0  0  0  0  0
   60.0030   28.7320   48.1870 N   0  0  0  0  0  0  0  0  0  0  0  0
   59.5660   29.6190   49.0270 C   0  0  0  0  0  0  0  0  0  0  0  0
   59.2840   29.3190   50.3100 N   0  0  0  0  0  0  0  0  0  0  0  0
   58.8290   30.2310   51.1920 C   0  0  0  0  0  0  0  0  0  0  0  0
   58.6420   31.5280   50.7750 C   0  0  0  0  0  0  0  0  0  0  0  0
   58.0550   32.7420   51.8830 Cl  0  0  0  0  0  0  0  0  0  0  0  0
   58.9350   31.8160   49.4620 C   0  0  0  0  0  0  0  0  0  0  0  0
   58.7820   33.0040   49.0120 N   0  0  0  0  0  0  0  0  0  0  0  0
   58.7220   33.3840   47.6480 C   0  0  0  0  0  0  0  0  0  0  0  0
   57.4610   33.4590   47.0400 C   0  0  0  0  0  0  0  0  0  0  0  0
   57.3160   33.8470   45.7210 C   0  0  0  0  0  0  0  0  0  0  0  0
   58.4710   34.1640   44.9990 C   0  0  0  0  0  0  0  0  0  0  0  0
   59.7280   34.0900   45.6000 C   0  0  0  0  0  0  0  0  0  0  0  0
   59.8750   33.7050   46.9150 C   0  0  0  0  0  0  0  0  0  0  0  0
   61.1600   33.6110   47.5900 C   0  0  0  0  0  0  0  0  0  0  0  0
   62.1910   32.8470   47.0960 C   0  0  0  0  0  0  0  0  0  0  0  0
   63.4280   32.7550   47.7430 C   0  0  0  0  0  0  0  0  0  0  0  0
   63.6350   33.4530   48.9250 C   0  0  0  0  0  0  0  0  0  0  0  0
   62.5700   34.2040   49.3780 C   0  0  0  0  0  0  0  0  0  0  0  0
   61.3910   34.2770   48.7370 N   0  0  0  0  0  0  0  0  0  0  0  0
   59.3910   30.8820   48.5930 N   0  0  0  0  0  0  0  0  0  0  0  0
   58.8930   28.9520   46.0460 C   0  0  0  0  0  0  0  0  0  0  0  0
   57.7356   32.8021   41.3262 H   0  0  0  0  0  0  0  0  0  0  0  0
   58.7106   32.4787   42.9308 H   0  0  0  0  0  0  0  0  0  0  0  0
   56.1866   31.0903   41.9022 H   0  0  0  0  0  0  0  0  0  0  0  0
   58.3750   29.0340   43.0170 H   0  0  0  0  0  0  0  0  0  0  0  0
   56.7406   26.8972   44.5150 H   0  0  0  0  0  0  0  0  0  0  0  0
   57.1395   25.5941   46.5737 H   0  0  0  0  0  0  0  0  0  0  0  0
   58.6832   26.4408   48.3412 H   0  0  0  0  0  0  0  0  0  0  0  0
   59.4100   28.3520   50.6680 H   0  0  0  0  0  0  0  0  0  0  0  0
   58.6104   29.9419   52.2306 H   0  0  0  0  0  0  0  0  0  0  0  0
   56.5660   33.2031   47.6261 H   0  0  0  0  0  0  0  0  0  0  0  0
   56.3220   33.9046   45.2535 H   0  0  0  0  0  0  0  0  0  0  0  0
   58.3877   34.4747   43.9471 H   0  0  0  0  0  0  0  0  0  0  0  0
   60.6215   34.3446   45.0111 H   0  0  0  0  0  0  0  0  0  0  0  0
   62.0380   32.2892   46.1603 H   0  0  0  0  0  0  0  0  0  0  0  0
   64.2306   32.1342   47.3183 H   0  0  0  0  0  0  0  0  0  0  0  0
   64.5908   33.4099   49.4678 H   0  0  0  0  0  0  0  0  0  0  0  0
   62.6921   34.7723   50.3119 H   0  0  0  0  0  0  0  0  0  0  0  0
   59.6000   31.1590   47.5970 H   0  0  0  0  0  0  0  0  0  0  0  0
   59.4055   29.9160   45.9119 H   0  0  0  0  0  0  0  0  0  0  0  0
  1  2  2  0
  2  3  1  0
  3  4  2  0
  3  5  1  0
  5  6  1  0
  6  7  2  0
  7  8  1  0
  8  9  2  0
  9 10  1  0
 10 11  1  0
 11 12  2  0
 12 13  1  0
 13 14  1  0
 14 15  2  0
 15 16  1  0
 15 17  1  0
 17 18  2  0
 18 19  1  0
 19 20  2  0
 20 21  1  0
 21 22  2  0
 22 23  1  0
 23 24  2  0
 24 25  1  0
 25 26  2  0
 26 27  1  0
 27 28  2  0
 28 29  1  0
 29 30  2  0
 17 31  1  0
 10 32  2  0
 32  6  1  0
 31 12  1  0
 24 19  1  0
 30 25  1  0
  1 33  1  0
  1 34  1  0
  2 35  1  0
  5 36  1  0
  7 37  1  0
  8 38  1  0
  9 39  1  0
 13 40  1  0
 14 41  1  0
 20 42  1  0
 21 43  1  0
 22 44  1  0
 23 45  1  0
 26 46  1  0
 27 47  1  0
 28 48  1  0
 29 49  1  0
 31 50  1  0
 32 51  1  0
M  END
>  <smiles>  (10) 
C=CC(=O)Nc1cccc(N=c2[nH]cc(Cl)c(=Nc3ccccc3-c3ccccn3)[nH]2)c1

>  <score_type>  (10) 
oracle

>  <origin>  (10) 
adg

>  <m_score__min__energy>  (10) 
-10.119999999999999

>  <m_primary>  (10) 
energy

$$$$
10:0
     RDKit          3D

 42 44  0  0  0  0  0  0  0  0999 V2000
   58.1280   29.2370   46.5820 C   0  0  0  0  0  0  0  0  0  0  0  0
   57.0230   29.8410   45.9180 O   0  0  0  0  0  0  0  0  0  0  0  0
   57.0860   30.4410   44.6490 C   0  0  0  0  0  0  0  0  0  0  0  0
   56.6540   29.7710   43.4880 C   0  0  0  0  0  0  0  0  0  0  0  0
   56.7300   30.3950   42.2410 C   0  0  0  0  0  0  0  0  0  0  0  0
   57.2280   31.6980   42.1320 C   0  0  0  0  0  0  0  0  0  0  0  0
   57.3620   32.3430   40.7820 C   0  0  0  0  0  0  0  0  0  0  0  0
   57.6710   32.3650   43.2830 C   0  0  0  0  0  0  0  0  0  0  0  0
   57.5870   31.7520   44.5450 C   0  0  0  0  0  0  0  0  0  0  0  0
   58.0650   32.4290   45.7200 N   0  0  0  0  0  0  0  0  0  0  0  0
   58.2420   33.8510   45.7950 C   0  0  0  0  0  0  0  0  0  0  0  0
   57.7240   34.6050   44.9270 O   0  0  0  0  0  0  0  0  0  0  0  0
   59.0430   34.4540   46.9130 C   0  0  0  0  0  0  0  0  0  0  0  0
   59.8080   33.4020   47.6220 N   0  0  0  0  0  0  0  0  0  0  0  0
   59.1170   32.5480   48.4530 C   0  0  0  0  0  0  0  0  0  0  0  0
   57.8640   32.6430   48.5830 O   0  0  0  0  0  0  0  0  0  0  0  0
   59.7810   31.5530   49.1700 C   0  0  0  0  0  0  0  0  0  0  0  0
   61.1540   31.4050   49.0420 C   0  0  0  0  0  0  0  0  0  0  0  0
   61.8640   32.2350   48.1770 C   0  0  0  0  0  0  0  0  0  0  0  0
   63.2500   32.0640   48.0300 C   0  0  0  0  0  0  0  0  0  0  0  0
   63.9670   32.8700   47.1500 C   0  0  0  0  0  0  0  0  0  0  0  0
   63.3080   33.8440   46.4030 C   0  0  0  0  0  0  0  0  0  0  0  0
   61.9290   34.0280   46.5390 C   0  0  0  0  0  0  0  0  0  0  0  0
   61.1740   33.2380   47.4440 C   0  0  0  0  0  0  0  0  0  0  0  0
   57.9882   29.3134   47.6704 H   0  0  0  0  0  0  0  0  0  0  0  0
   58.1940   28.1773   46.2943 H   0  0  0  0  0  0  0  0  0  0  0  0
   59.0556   29.7535   46.2943 H   0  0  0  0  0  0  0  0  0  0  0  0
   56.2540   28.7491   43.5640 H   0  0  0  0  0  0  0  0  0  0  0  0
   56.3967   29.8594   41.3399 H   0  0  0  0  0  0  0  0  0  0  0  0
   57.5843   33.4130   40.9073 H   0  0  0  0  0  0  0  0  0  0  0  0
   58.1793   31.8615   40.2251 H   0  0  0  0  0  0  0  0  0  0  0  0
   56.4205   32.2269   40.2251 H   0  0  0  0  0  0  0  0  0  0  0  0
   58.0888   33.3790   43.1974 H   0  0  0  0  0  0  0  0  0  0  0  0
   58.2340   31.8650   46.5830 H   0  0  0  0  0  0  0  0  0  0  0  0
   59.7427   35.1953   46.4995 H   0  0  0  0  0  0  0  0  0  0  0  0
   58.3575   34.9388   47.6237 H   0  0  0  0  0  0  0  0  0  0  0  0
   59.2157   30.8856   49.8371 H   0  0  0  0  0  0  0  0  0  0  0  0
   61.6815   30.6337   49.6224 H   0  0  0  0  0  0  0  0  0  0  0  0
   63.7713   31.2901   48.6125 H   0  0  0  0  0  0  0  0  0  0  0  0
   65.0539   32.7378   47.0445 H   0  0  0  0  0  0  0  0  0  0  0  0
   63.8765   34.4723   45.7016 H   0  0  0  0  0  0  0  0  0  0  0  0
   61.4222   34.7959   45.9361 H   0  0  0  0  0  0  0  0  0  0  0  0
  1  2  1  0
  2  3  1  0
  3  4  2  0
  4  5  1  0
  5  6  2  0
  6  7  1  0
  6  8  1  0
  8  9  2  0
  9 10  1  0
 10 11  1  0
 11 12  2  0
 11 13  1  0
 13 14  1  0
 14 15  1  0
 15 16  2  0
 15 17  1  0
 17 18  2  0
 18 19  1  0
 19 20  2  0
 20 21  1  0
 21 22  2  0
 22 23  1  0
 23 24  2  0
  9  3  1  0
 24 14  1  0
 24 19  1  0
  1 25  1  0
  1 26  1  0
  1 27  1  0
  4 28  1  0
  5 29  1  0
  7 30  1  0
  7 31  1  0
  7 32  1  0
  8 33  1  0
 10 34  1  0
 13 35  1  0
 13 36  1  0
 17 37  1  0
 18 38  1  0
 20 39  1  0
 21 40  1  0
 22 41  1  0
 23 42  1  0
M  END
>  <UniqueID>  (11) 
9

>  <SMILES>  (11) 
COc1ccc(C)cc1NC(=O)Cn1c(=O)ccc2ccccc21

>  <Energy>  (11) 
56.81375043160907

>  <Genealogy>  (11) 
COc1ccc(C)cc1NC(=O)Cn1c(=O)ccc2ccccc21 (3D coordinates assigned)
COc1ccc(C)cc1NC(=O)Cn1c(=O)ccc2ccccc21 (optimized conformer: 56.81375043160907 kcal/mol)

>  <smiles>  (11) 
COc1ccc(C)cc1NC(=O)Cn1c(=O)ccc2ccccc21

>  <score_type>  (11) 
oracle

>  <origin>  (11) 
adg

>  <m_score__min__energy>  (11) 
-7.6399999999999997

>  <m_primary>  (11) 
energy

$$$$
11:0
     RDKit          3D

 65 69  0  0  0  0  0  0  0  0999 V2000
   60.4826   35.6713   46.1965 H   0  0  0  0  0  0  0  0  0  0  0  0
   60.3960   34.5870   46.3600 C   0  0  0  0  0  0  0  0  0  0  0  0
   59.4200   33.9240   45.7250 C   0  0  0  0  0  0  0  0  0  0  0  0
   59.1600   32.5080   45.8480 C   0  0  0  0  0  0  0  0  0  0  0  0
   59.9290   31.6000   46.4980 N   0  0  0  0  0  0  0  0  0  0  0  0
   59.5490   30.2940   46.5280 C   0  0  0  0  0  0  0  0  0  0  0  0
   60.3440   29.3510   47.1820 C   0  0  0  0  0  0  0  0  0  0  0  0
   61.2756   29.6681   47.6736 H   0  0  0  0  0  0  0  0  0  0  0  0
   59.9640   28.0080   47.2160 C   0  0  0  0  0  0  0  0  0  0  0  0
   60.7700   27.1090   47.8360 F   0  0  0  0  0  0  0  0  0  0  0  0
   58.7660   27.5890   46.6050 C   0  0  0  0  0  0  0  0  0  0  0  0
   58.3840   26.1980   46.6170 N   0  0  0  0  0  0  0  0  0  0  0  0
   58.9980   25.6670   47.2760 H   0  0  0  0  0  0  0  0  0  0  0  0
   57.3990   26.1050   46.9560 H   0  0  0  0  0  0  0  0  0  0  0  0
   58.4860   25.6330   45.2640 C   0  0  0  0  0  0  0  0  0  0  0  0
   57.6125   25.9494   44.6750 H   0  0  0  0  0  0  0  0  0  0  0  0
   59.4148   25.9971   44.8005 H   0  0  0  0  0  0  0  0  0  0  0  0
   58.5310   24.0960   45.3120 C   0  0  0  0  0  0  0  0  0  0  0  0
   59.2999   23.7395   44.6108 H   0  0  0  0  0  0  0  0  0  0  0  0
   58.7665   23.7912   46.3424 H   0  0  0  0  0  0  0  0  0  0  0  0
   57.2290   23.5000   44.9400 N   0  0  0  0  0  0  0  0  0  0  0  0
   56.7130   24.0510   43.6650 C   0  0  0  0  0  0  0  0  0  0  0  0
   56.2226   25.0157   43.8620 H   0  0  0  0  0  0  0  0  0  0  0  0
   57.5573   24.1830   42.9724 H   0  0  0  0  0  0  0  0  0  0  0  0
   55.6970   23.0920   43.0230 C   0  0  0  0  0  0  0  0  0  0  0  0
   54.8622   22.9504   43.7252 H   0  0  0  0  0  0  0  0  0  0  0  0
   55.3776   23.5513   42.0759 H   0  0  0  0  0  0  0  0  0  0  0  0
   56.2350   21.8150   42.7030 O   0  0  0  0  0  0  0  0  0  0  0  0
   57.3530   21.4500   43.4990 C   0  0  0  0  0  0  0  0  0  0  0  0
   57.3945   20.3525   43.5598 H   0  0  0  0  0  0  0  0  0  0  0  0
   58.2469   21.8734   43.0177 H   0  0  0  0  0  0  0  0  0  0  0  0
   57.2950   22.0170   44.9310 C   0  0  0  0  0  0  0  0  0  0  0  0
   56.4018   21.6188   45.4347 H   0  0  0  0  0  0  0  0  0  0  0  0
   58.2146   21.7148   45.4535 H   0  0  0  0  0  0  0  0  0  0  0  0
   57.9680   28.5350   45.9330 C   0  0  0  0  0  0  0  0  0  0  0  0
   57.0388   28.2141   45.4394 H   0  0  0  0  0  0  0  0  0  0  0  0
   58.3510   29.8860   45.8890 C   0  0  0  0  0  0  0  0  0  0  0  0
   57.5860   30.8650   45.2230 C   0  0  0  0  0  0  0  0  0  0  0  0
   56.5130   30.5630   44.6310 O   0  0  0  0  0  0  0  0  0  0  0  0
   58.0280   32.1520   45.2250 N   0  0  0  0  0  0  0  0  0  0  0  0
   57.3800   33.3040   44.6050 C   0  0  0  0  0  0  0  0  0  0  0  0
   56.3903   33.4760   45.0532 H   0  0  0  0  0  0  0  0  0  0  0  0
   57.2210   33.1524   43.5272 H   0  0  0  0  0  0  0  0  0  0  0  0
   58.3170   34.5040   44.8850 C   0  0  0  0  0  0  0  0  0  0  0  0
   57.7843   35.2951   45.4331 H   0  0  0  0  0  0  0  0  0  0  0  0
   58.6917   34.9697   43.9616 H   0  0  0  0  0  0  0  0  0  0  0  0
   61.3610   33.9360   47.2680 C   0  0  0  0  0  0  0  0  0  0  0  0
   61.1100   33.8290   48.6420 C   0  0  0  0  0  0  0  0  0  0  0  0
   60.1714   34.2231   49.0587 H   0  0  0  0  0  0  0  0  0  0  0  0
   62.0460   33.2240   49.4870 C   0  0  0  0  0  0  0  0  0  0  0  0
   61.8337   33.1404   50.5631 H   0  0  0  0  0  0  0  0  0  0  0  0
   63.2590   32.7200   48.9740 C   0  0  0  0  0  0  0  0  0  0  0  0
   64.2290   32.0910   49.8480 N   0  0  0  0  0  0  0  0  0  0  0  0
   65.6170   32.5660   49.8850 C   0  0  0  0  0  0  0  0  0  0  0  0
   65.9391   32.6762   50.9310 H   0  0  0  0  0  0  0  0  0  0  0  0
   66.2670   31.8392   49.3759 H   0  0  0  0  0  0  0  0  0  0  0  0
   65.6854   33.5387   49.3759 H   0  0  0  0  0  0  0  0  0  0  0  0
   63.8270   30.9900   50.7320 C   0  0  0  0  0  0  0  0  0  0  0  0
   63.9408   31.3016   51.7808 H   0  0  0  0  0  0  0  0  0  0  0  0
   62.7758   30.7298   50.5388 H   0  0  0  0  0  0  0  0  0  0  0  0
   64.4632   30.1137   50.5388 H   0  0  0  0  0  0  0  0  0  0  0  0
   63.5110   32.8550   47.5940 C   0  0  0  0  0  0  0  0  0  0  0  0
   64.4543   32.4763   47.1735 H   0  0  0  0  0  0  0  0  0  0  0  0
   62.5750   33.4650   46.7540 C   0  0  0  0  0  0  0  0  0  0  0  0
   62.7938   33.5757   45.6817 H   0  0  0  0  0  0  0  0  0  0  0  0
  1  2  1  0
  2  3  2  0
  3  4  1  0
  4  5  2  0
  5  6  1  0
  6  7  2  0
  7  8  1  0
  7  9  1  0
  9 10  1  0
  9 11  2  0
 11 12  1  0
 12 13  1  0
 12 14  1  0
 12 15  1  0
 15 16  1  0
 15 17  1  0
 15 18  1  0
 18 19  1  0
 18 20  1  0
 18 21  1  0
 21 22  1  0
 22 23  1  0
 22 24  1  0
 22 25  1  0
 25 26  1  0
 25 27  1  0
 25 28  1  0
 28 29  1  0
 29 30  1  0
 29 31  1  0
 29 32  1  0
 32 33  1  0
 32 34  1  0
 11 35  1  0
 35 36  1  0
 35 37  2  0
 37 38  1  0
 38 39  2  0
 38 40  1  0
 40 41  1  0
 41 42  1  0
 41 43  1  0
 41 44  1  0
 44 45  1  0
 44 46  1  0
  2 47  1  0
 47 48  2  0
 48 49  1  0
 48 50  1  0
 50 51  1  0
 50 52  2  0
 52 53  1  0
 53 54  1  0
 54 55  1  0
 54 56  1  0
 54 57  1  0
 53 58  1  0
 58 59  1  0
 58 60  1  0
 58 61  1  0
 52 62  1  0
 62 63  1  0
 62 64  2  0
 64 65  1  0
 44  3  1  0
 64 47  1  0
 40  4  1  0
 37  6  1  0
 32 21  1  0
M  CHG  1  12   1
M  END
>  <UniqueID>  (12) 
10

>  <SMILES>  (12) 
CN(C)c1ccc(/C=C2\CCn3c2nc2cc(F)c([NH2+]CCN4CCOCC4)cc2c3=O)cc1

>  <Energy>  (12) 
109.1821293789811

>  <Genealogy>  (12) 
CN(C)c1ccc(C=C2CCn3c2nc2cc(F)c([NH2+]CCN4CCOCC4)cc2c3=O)cc1 (protonated)
CN(C)c1ccc(/C=C2\CCn3c2nc2cc(F)c([NH2+]CCN4CCOCC4)cc2c3=O)cc1 (cis-trans isomerization)
CN(C)c1ccc(/C=C2\CCn3c2nc2cc(F)c([NH2+]CCN4CCOCC4)cc2c3=O)cc1 (3D coordinates assigned)
CN(C)c1ccc(/C=C2\CCn3c2nc2cc(F)c([NH2+]CCN4CCOCC4)cc2c3=O)cc1 (nonaromatic ring conformer: 109.1821293789811 kcal/mol)

>  <smiles>  (12) 
CN(C)c1ccc(C=C2CCn3c2nc2cc(F)c(NCCN4CCOCC4)cc2c3=O)cc1

>  <score_type>  (12) 
oracle

>  <origin>  (12) 
adg

>  <m_score__min__energy>  (12) 
-8.25

>  <m_primary>  (12) 
energy

$$$$
12:0
     RDKit          3D

 42 44  0  0  0  0  0  0  0  0999 V2000
   55.4830   26.5100   45.8820 O   0  0  0  0  0  0  0  0  0  0  0  0
   56.2570   27.4750   45.6560 C   0  0  0  0  0  0  0  0  0  0  0  0
   55.7350   28.7410   45.2300 N   0  0  0  0  0  0  0  0  0  0  0  0
   56.4010   29.7070   44.4040 C   0  0  0  0  0  0  0  0  0  0  0  0
   57.3620   30.5420   44.9870 C   0  0  0  0  0  0  0  0  0  0  0  0
   58.0180   31.5120   44.2220 C   0  0  0  0  0  0  0  0  0  0  0  0
   57.7050   31.6630   42.8690 C   0  0  0  0  0  0  0  0  0  0  0  0
   56.7300   30.8520   42.2820 C   0  0  0  0  0  0  0  0  0  0  0  0
   56.0730   29.8800   43.0460 C   0  0  0  0  0  0  0  0  0  0  0  0
   57.6700   27.2580   45.7200 N   0  0  0  0  0  0  0  0  0  0  0  0
   58.6310   28.1210   46.3460 C   0  0  0  0  0  0  0  0  0  0  0  0
   59.7390   28.5440   45.6050 C   0  0  0  0  0  0  0  0  0  0  0  0
   60.7070   29.3670   46.1880 C   0  0  0  0  0  0  0  0  0  0  0  0
   60.5980   29.7630   47.5250 C   0  0  0  0  0  0  0  0  0  0  0  0
   61.6050   30.5920   48.0490 O   0  0  0  0  0  0  0  0  0  0  0  0
   61.7060   32.0100   47.8980 C   0  0  0  0  0  0  0  0  0  0  0  0
   60.7720   32.5210   46.7960 C   0  0  0  0  0  0  0  0  0  0  0  0
   60.1440   33.8780   47.1270 C   0  0  0  0  0  0  0  0  0  0  0  0
   58.8490   34.0050   46.4660 N   0  0  0  0  0  0  0  0  0  0  0  0
   58.5810   34.5790   45.2800 C   0  0  0  0  0  0  0  0  0  0  0  0
   57.2820   34.4320   44.9600 N   0  0  0  0  0  0  0  0  0  0  0  0
   56.7120   33.7480   45.9430 N   0  0  0  0  0  0  0  0  0  0  0  0
   57.6710   33.4860   46.8510 C   0  0  0  0  0  0  0  0  0  0  0  0
   59.4910   29.3210   48.2790 C   0  0  0  0  0  0  0  0  0  0  0  0
   58.5230   28.4980   47.6960 C   0  0  0  0  0  0  0  0  0  0  0  0
   57.6029   30.4343   46.0549 H   0  0  0  0  0  0  0  0  0  0  0  0
   58.7801   32.1557   44.6856 H   0  0  0  0  0  0  0  0  0  0  0  0
   58.2262   32.4206   42.2654 H   0  0  0  0  0  0  0  0  0  0  0  0
   56.4785   30.9775   41.2185 H   0  0  0  0  0  0  0  0  0  0  0  0
   55.2986   29.2500   42.5840 H   0  0  0  0  0  0  0  0  0  0  0  0
   59.8495   28.2273   44.5574 H   0  0  0  0  0  0  0  0  0  0  0  0
   61.5642   29.7070   45.5884 H   0  0  0  0  0  0  0  0  0  0  0  0
   61.4351   32.4917   48.8491 H   0  0  0  0  0  0  0  0  0  0  0  0
   62.7408   32.2562   47.6176 H   0  0  0  0  0  0  0  0  0  0  0  0
   61.3492   32.6194   45.8648 H   0  0  0  0  0  0  0  0  0  0  0  0
   59.9524   31.7943   46.6956 H   0  0  0  0  0  0  0  0  0  0  0  0
   60.0067   33.9598   48.2153 H   0  0  0  0  0  0  0  0  0  0  0  0
   60.8095   34.6791   46.7729 H   0  0  0  0  0  0  0  0  0  0  0  0
   59.3230   35.0984   44.6558 H   0  0  0  0  0  0  0  0  0  0  0  0
   57.5116   32.9230   47.7824 H   0  0  0  0  0  0  0  0  0  0  0  0
   59.3888   29.6254   49.3311 H   0  0  0  0  0  0  0  0  0  0  0  0
   57.6724   28.1436   48.2967 H   0  0  0  0  0  0  0  0  0  0  0  0
  1  2  2  0
  2  3  1  0
  3  4  1  0
  4  5  2  0
  5  6  1  0
  6  7  2  0
  7  8  1  0
  8  9  2  0
  2 10  1  0
 10 11  1  0
 11 12  2  0
 12 13  1  0
 13 14  2  0
 14 15  1  0
 15 16  1  0
 16 17  1  0
 17 18  1  0
 18 19  1  0
 19 20  1  0
 20 21  2  0
 21 22  1  0
 22 23  2  0
 14 24  1  0
 24 25  2  0
  9  4  1  0
 25 11  1  0
 23 19  1  0
  5 26  1  0
  6 27  1  0
  7 28  1  0
  8 29  1  0
  9 30  1  0
 12 31  1  0
 13 32  1  0
 16 33  1  0
 16 34  1  0
 17 35  1  0
 17 36  1  0
 18 37  1  0
 18 38  1  0
 20 39  1  0
 23 40  1  0
 24 41  1  0
 25 42  1  0
M  CHG  2   3  -1  10  -1
M  END
>  <UniqueID>  (13) 
11

>  <SMILES>  (13) 
O=C([N-]c1ccccc1)[N-]c1ccc(OCCCn2cnnc2)cc1

>  <Energy>  (13) 
82.53302250686826

>  <Genealogy>  (13) 
O=C([N-]c1ccccc1)[N-]c1ccc(OCCCn2cnnc2)cc1 (protonated)
O=C([N-]c1ccccc1)[N-]c1ccc(OCCCn2cnnc2)cc1 (3D coordinates assigned)
O=C([N-]c1ccccc1)[N-]c1ccc(OCCCn2cnnc2)cc1 (optimized conformer: 82.53302250686826 kcal/mol)

>  <smiles>  (13) 
O=C(Nc1ccccc1)Nc1ccc(OCCCn2cnnc2)cc1

>  <score_type>  (13) 
oracle

>  <origin>  (13) 
adg

>  <m_score__min__energy>  (13) 
-10.93

>  <m_primary>  (13) 
energy

$$$$
13:0
     RDKit          3D

 27 28  0  0  0  0  0  0  0  0999 V2000
   59.6450   35.6930   46.3680 C   0  0  0  0  0  0  0  0  0  0  0  0
   59.4740   34.7730   45.2950 O   0  0  0  0  0  0  0  0  0  0  0  0
   58.9790   33.4680   45.4410 C   0  0  0  0  0  0  0  0  0  0  0  0
   59.6490   32.5990   46.3120 C   0  0  0  0  0  0  0  0  0  0  0  0
   59.2000   31.2880   46.4960 C   0  0  0  0  0  0  0  0  0  0  0  0
   58.0710   30.8310   45.8050 C   0  0  0  0  0  0  0  0  0  0  0  0
   57.5920   29.5280   45.9640 C   0  0  0  0  0  0  0  0  0  0  0  0
   56.4680   29.1110   45.2390 C   0  0  0  0  0  0  0  0  0  0  0  0
   55.9180   27.7920   45.3900 N   0  0  0  0  0  0  0  0  0  0  0  0
   56.5440   26.6730   46.0300 C   0  0  0  0  0  0  0  0  0  0  0  0
   58.0060   26.3830   45.8800 C   0  0  0  0  0  0  0  0  0  0  0  0
   55.8350   25.8850   46.7090 O   0  0  0  0  0  0  0  0  0  0  0  0
   55.8270   30.0420   44.4080 C   0  0  0  0  0  0  0  0  0  0  0  0
   54.7940   29.7120   43.7670 O   0  0  0  0  0  0  0  0  0  0  0  0
   56.3060   31.2760   44.2800 O   0  0  0  0  0  0  0  0  0  0  0  0
   57.3850   31.6990   44.9290 C   0  0  0  0  0  0  0  0  0  0  0  0
   57.8400   33.0100   44.7490 C   0  0  0  0  0  0  0  0  0  0  0  0
   59.5462   35.1615   47.3260 H   0  0  0  0  0  0  0  0  0  0  0  0
   60.6435   36.1500   46.3035 H   0  0  0  0  0  0  0  0  0  0  0  0
   58.8774   36.4783   46.3035 H   0  0  0  0  0  0  0  0  0  0  0  0
   60.5373   32.9518   46.8565 H   0  0  0  0  0  0  0  0  0  0  0  0
   59.7336   30.6153   47.1836 H   0  0  0  0  0  0  0  0  0  0  0  0
   58.0942   28.8340   46.6540 H   0  0  0  0  0  0  0  0  0  0  0  0
   58.4657   26.2918   46.8752 H   0  0  0  0  0  0  0  0  0  0  0  0
   58.1382   25.4411   45.3273 H   0  0  0  0  0  0  0  0  0  0  0  0
   58.4877   27.2031   45.3273 H   0  0  0  0  0  0  0  0  0  0  0  0
   57.3064   33.6858   44.0645 H   0  0  0  0  0  0  0  0  0  0  0  0
  1  2  1  0
  2  3  1  0
  3  4  2  0
  4  5  1  0
  5  6  2  0
  6  7  1  0
  7  8  2  0
  8  9  1  0
  9 10  1  0
 10 11  1  0
 10 12  2  0
  8 13  1  0
 13 14  2  0
 13 15  1  0
 15 16  1  0
 16 17  2  0
 17  3  1  0
 16  6  1  0
  1 18  1  0
  1 19  1  0
  1 20  1  0
  4 21  1  0
  5 22  1  0
  7 23  1  0
 11 24  1  0
 11 25  1  0
 11 26  1  0
 17 27  1  0
M  CHG  1   9  -1
M  END
>  <UniqueID>  (14) 
12

>  <SMILES>  (14) 
COc1ccc2cc([N-]C(C)=O)c(=O)oc2c1

>  <Energy>  (14) 
34.37367133026751

>  <Genealogy>  (14) 
COc1ccc2cc([N-]C(C)=O)c(=O)oc2c1 (protonated)
COc1ccc2cc([N-]C(C)=O)c(=O)oc2c1 (3D coordinates assigned)
COc1ccc2cc([N-]C(C)=O)c(=O)oc2c1 (optimized conformer: 34.37367133026751 kcal/mol)

>  <smiles>  (14) 
COc1ccc2cc(NC(C)=O)c(=O)oc2c1

>  <score_type>  (14) 
oracle

>  <origin>  (14) 
adg

>  <m_score__min__energy>  (14) 
-8

>  <m_primary>  (14) 
energy

$$$$
14:0
     RDKit          3D

 63 67  0  0  0  0  0  0  0  0999 V2000
   57.7604   35.2594   44.1141 H   0  0  0  0  0  0  0  0  0  0  0  0
   58.0390   34.5280   44.8870 C   0  0  0  0  0  0  0  0  0  0  0  0
   58.4640   34.9570   46.1040 N   0  0  0  0  0  0  0  0  0  0  0  0
   58.8170   34.0900   47.0910 C   0  0  0  0  0  0  0  0  0  0  0  0
   59.2810   34.6200   48.3420 N   0  0  0  0  0  0  0  0  0  0  0  0
   60.1920   33.9920   49.2570 C   0  0  0  0  0  0  0  0  0  0  0  0
   59.8200   33.8060   50.4450 O   0  0  0  0  0  0  0  0  0  0  0  0
   61.5550   33.5650   48.8560 C   0  0  0  0  0  0  0  0  0  0  0  0
   62.4480   32.9940   49.7910 C   0  0  0  0  0  0  0  0  0  0  0  0
   62.0100   32.7660   51.1080 O   0  0  0  0  0  0  0  0  0  0  0  0
   62.4090   33.5060   52.2620 C   0  0  0  0  0  0  0  0  0  0  0  0
   62.6158   34.5463   51.9704 H   0  0  0  0  0  0  0  0  0  0  0  0
   63.3121   33.0422   52.6854 H   0  0  0  0  0  0  0  0  0  0  0  0
   61.3090   33.4910   53.3170 C   0  0  0  0  0  0  0  0  0  0  0  0
   61.7621   33.4972   54.3193 H   0  0  0  0  0  0  0  0  0  0  0  0
   60.6733   34.3806   53.1965 H   0  0  0  0  0  0  0  0  0  0  0  0
   60.6977   32.5844   53.1965 H   0  0  0  0  0  0  0  0  0  0  0  0
   63.7520   32.6780   49.3670 C   0  0  0  0  0  0  0  0  0  0  0  0
   64.4736   32.2540   50.0808 H   0  0  0  0  0  0  0  0  0  0  0  0
   64.1310   32.9010   48.0450 C   0  0  0  0  0  0  0  0  0  0  0  0
   65.1529   32.6642   47.7139 H   0  0  0  0  0  0  0  0  0  0  0  0
   63.2060   33.4260   47.1460 C   0  0  0  0  0  0  0  0  0  0  0  0
   63.4926   33.5872   46.0963 H   0  0  0  0  0  0  0  0  0  0  0  0
   61.9500   33.7400   47.5610 N   0  0  0  0  0  0  0  0  0  0  0  0
   61.2900   34.1550   46.8660 H   0  0  0  0  0  0  0  0  0  0  0  0
   58.7080   32.7060   46.8660 C   0  0  0  0  0  0  0  0  0  0  0  0
   58.9479   31.9956   47.6708 H   0  0  0  0  0  0  0  0  0  0  0  0
   58.2920   32.2340   45.6110 C   0  0  0  0  0  0  0  0  0  0  0  0
   58.2690   30.8210   45.3330 N   0  0  0  0  0  0  0  0  0  0  0  0
   58.8610   29.8720   46.2850 C   0  0  0  0  0  0  0  0  0  0  0  0
   58.8765   30.3331   47.2836 H   0  0  0  0  0  0  0  0  0  0  0  0
   59.8788   29.6351   45.9416 H   0  0  0  0  0  0  0  0  0  0  0  0
   58.0780   28.5810   46.3550 C   0  0  0  0  0  0  0  0  0  0  0  0
   56.9750   28.3290   45.5160 C   0  0  0  0  0  0  0  0  0  0  0  0
   56.2910   27.1600   45.6410 N   0  0  0  0  0  0  0  0  0  0  0  0
   56.6680   26.2080   46.5330 C   0  0  0  0  0  0  0  0  0  0  0  0
   55.9790   25.1090   46.6230 N   0  0  0  0  0  0  0  0  0  0  0  0
   56.1590   23.9450   45.8010 C   0  0  0  0  0  0  0  0  0  0  0  0
   55.8580   24.0300   44.4360 C   0  0  0  0  0  0  0  0  0  0  0  0
   55.4827   24.9754   44.0172 H   0  0  0  0  0  0  0  0  0  0  0  0
   56.0310   22.9230   43.6030 C   0  0  0  0  0  0  0  0  0  0  0  0
   55.7755   22.9933   42.5354 H   0  0  0  0  0  0  0  0  0  0  0  0
   56.5280   21.7270   44.1240 C   0  0  0  0  0  0  0  0  0  0  0  0
   56.6574   20.8542   43.4671 H   0  0  0  0  0  0  0  0  0  0  0  0
   56.8610   21.6360   45.4760 C   0  0  0  0  0  0  0  0  0  0  0  0
   57.2566   20.6923   45.8797 H   0  0  0  0  0  0  0  0  0  0  0  0
   56.6930   22.7480   46.3280 C   0  0  0  0  0  0  0  0  0  0  0  0
   57.0630   22.7040   47.6810 O   0  0  0  0  0  0  0  0  0  0  0  0
   56.1490   22.5860   48.7660 C   0  0  0  0  0  0  0  0  0  0  0  0
   56.6975   22.6568   49.7168 H   0  0  0  0  0  0  0  0  0  0  0  0
   55.4066   23.3958   48.7098 H   0  0  0  0  0  0  0  0  0  0  0  0
   55.6366   21.6143   48.7098 H   0  0  0  0  0  0  0  0  0  0  0  0
   57.7420   26.4330   47.3410 N   0  0  0  0  0  0  0  0  0  0  0  0
   58.4490   27.5880   47.2660 C   0  0  0  0  0  0  0  0  0  0  0  0
   59.3167   27.7437   47.9239 H   0  0  0  0  0  0  0  0  0  0  0  0
   56.4920   29.3590   44.5330 C   0  0  0  0  0  0  0  0  0  0  0  0
   55.6894   29.9517   44.9962 H   0  0  0  0  0  0  0  0  0  0  0  0
   56.1172   28.8436   43.6364 H   0  0  0  0  0  0  0  0  0  0  0  0
   57.6300   30.2900   44.1240 C   0  0  0  0  0  0  0  0  0  0  0  0
   57.2299   31.1200   43.5232 H   0  0  0  0  0  0  0  0  0  0  0  0
   58.3680   29.7352   43.5260 H   0  0  0  0  0  0  0  0  0  0  0  0
   57.9550   33.1620   44.6150 C   0  0  0  0  0  0  0  0  0  0  0  0
   57.6261   32.8148   43.6244 H   0  0  0  0  0  0  0  0  0  0  0  0
  1  2  1  0
  2  3  2  0
  3  4  1  0
  4  5  1  0
  5  6  1  0
  6  7  2  0
  6  8  1  0
  8  9  2  0
  9 10  1  0
 10 11  1  0
 11 12  1  0
 11 13  1  0
 11 14  1  0
 14 15  1  0
 14 16  1  0
 14 17  1  0
  9 18  1  0
 18 19  1  0
 18 20  2  0
 20 21  1  0
 20 22  1  0
 22 23  1  0
 22 24  2  0
 24 25  1  0
  4 26  2  0
 26 27  1  0
 26 28  1  0
 28 29  1  0
 29 30  1  0
 30 31  1  0
 30 32  1  0
 30 33  1  0
 33 34  1  0
 34 35  2  0
 35 36  1  0
 36 37  2  0
 37 38  1  0
 38 39  2  0
 39 40  1  0
 39 41  1  0
 41 42  1  0
 41 43  2  0
 43 44  1  0
 43 45  1  0
 45 46  1  0
 45 47  2  0
 47 48  1  0
 48 49  1  0
 49 50  1  0
 49 51  1  0
 49 52  1  0
 36 53  1  0
 53 54  1  0
 54 55  1  0
 34 56  1  0
 56 57  1  0
 56 58  1  0
 56 59  1  0
 59 60  1  0
 59 61  1  0
 28 62  2  0
 62 63  1  0
 62  2  1  0
 24  8  1  0
 59 29  1  0
 54 33  2  0
 47 38  1  0
M  CHG  3   5  -1  24   1  53  -1
M  END
>  <UniqueID>  (15) 
13

>  <SMILES>  (15) 
CCOc1ccc[nH+]c1C(=O)[N-]c1cc(N2CCc3n/c(=N/c4ccccc4OC)[n-]cc3C2)ccn1

>  <Energy>  (15) 
87.20778405339965

>  <Genealogy>  (15) 
CCOc1ccc[nH+]c1C(=O)[N-]c1cc(N2CCc3nc(=Nc4ccccc4OC)[n-]cc3C2)ccn1 (protonated)
CCOc1ccc[nH+]c1C(=O)[N-]c1cc(N2CCc3n/c(=N/c4ccccc4OC)[n-]cc3C2)ccn1 (cis-trans isomerization)
CCOc1ccc[nH+]c1C(=O)[N-]c1cc(N2CCc3n/c(=N/c4ccccc4OC)[n-]cc3C2)ccn1 (3D coordinates assigned)
CCOc1ccc[nH+]c1C(=O)[N-]c1cc(N2CCc3n/c(=N/c4ccccc4OC)[n-]cc3C2)ccn1 (nonaromatic ring conformer: 87.20778405339965 kcal/mol)

>  <smiles>  (15) 
CCOc1cccnc1C(=O)Nc1cc(N2CCc3nc(=Nc4ccccc4OC)[nH]cc3C2)ccn1

>  <score_type>  (15) 
oracle

>  <origin>  (15) 
adg

>  <m_score__min__energy>  (15) 
-11.15

>  <m_primary>  (15) 
energy

$$$$
15:0
     RDKit          3D

 45 49  0  0  0  0  0  0  0  0999 V2000
   61.8750   30.4330   46.3700 O   0  0  0  0  0  0  0  0  0  0  0  0
   61.3290   31.2050   47.2040 C   0  0  0  0  0  0  0  0  0  0  0  0
   59.9170   31.1110   47.4600 N   0  0  0  0  0  0  0  0  0  0  0  0
   59.1130   29.9750   47.0980 C   0  0  0  0  0  0  0  0  0  0  0  0
   59.2740   28.7680   47.7920 C   0  0  0  0  0  0  0  0  0  0  0  0
   58.5210   27.6420   47.4480 C   0  0  0  0  0  0  0  0  0  0  0  0
   57.5990   27.7010   46.3870 C   0  0  0  0  0  0  0  0  0  0  0  0
   56.8010   26.5100   46.0200 C   0  0  0  0  0  0  0  0  0  0  0  0
   55.4400   26.5100   45.9960 N   0  0  0  0  0  0  0  0  0  0  0  0
   55.1510   25.2560   45.6190 C   0  0  0  0  0  0  0  0  0  0  0  0
   53.8930   24.6910   45.4290 C   0  0  0  0  0  0  0  0  0  0  0  0
   53.8370   23.3420   45.0270 C   0  0  0  0  0  0  0  0  0  0  0  0
   55.0280   22.6060   44.8300 C   0  0  0  0  0  0  0  0  0  0  0  0
   56.2820   23.2130   45.0330 C   0  0  0  0  0  0  0  0  0  0  0  0
   56.2970   24.5480   45.4290 C   0  0  0  0  0  0  0  0  0  0  0  0
   57.3640   25.3190   45.6770 N   0  0  0  0  0  0  0  0  0  0  0  0
   57.4540   28.9040   45.6770 C   0  0  0  0  0  0  0  0  0  0  0  0
   58.2080   30.0290   46.0240 C   0  0  0  0  0  0  0  0  0  0  0  0
   62.1470   32.2300   47.8770 C   0  0  0  0  0  0  0  0  0  0  0  0
   62.0560   33.6030   47.7610 C   0  0  0  0  0  0  0  0  0  0  0  0
   62.9850   34.1750   48.5500 N   0  0  0  0  0  0  0  0  0  0  0  0
   63.6570   33.2100   49.1630 N   0  0  0  0  0  0  0  0  0  0  0  0
   64.7400   33.4560   50.0850 C   0  0  0  0  0  0  0  0  0  0  0  0
   66.0320   32.9380   49.8570 C   0  0  0  0  0  0  0  0  0  0  0  0
   67.0660   33.1850   50.7640 C   0  0  0  0  0  0  0  0  0  0  0  0
   66.8270   33.9480   51.9100 C   0  0  0  0  0  0  0  0  0  0  0  0
   65.5520   34.4620   52.1520 C   0  0  0  0  0  0  0  0  0  0  0  0
   64.5140   34.2170   51.2480 C   0  0  0  0  0  0  0  0  0  0  0  0
   63.1710   32.0110   48.7740 C   0  0  0  0  0  0  0  0  0  0  0  0
   59.4280   31.9520   47.8400 H   0  0  0  0  0  0  0  0  0  0  0  0
   60.0004   28.7063   48.6158 H   0  0  0  0  0  0  0  0  0  0  0  0
   58.6499   26.7050   48.0096 H   0  0  0  0  0  0  0  0  0  0  0  0
   52.9755   25.2769   45.5871 H   0  0  0  0  0  0  0  0  0  0  0  0
   52.8620   22.8590   44.8656 H   0  0  0  0  0  0  0  0  0  0  0  0
   54.9745   21.5530   44.5163 H   0  0  0  0  0  0  0  0  0  0  0  0
   57.2168   22.6526   44.8841 H   0  0  0  0  0  0  0  0  0  0  0  0
   56.7414   28.9616   44.8410 H   0  0  0  0  0  0  0  0  0  0  0  0
   58.0923   30.9621   45.4530 H   0  0  0  0  0  0  0  0  0  0  0  0
   61.3389   34.1432   47.1254 H   0  0  0  0  0  0  0  0  0  0  0  0
   66.2272   32.3348   48.9581 H   0  0  0  0  0  0  0  0  0  0  0  0
   68.0703   32.7779   50.5754 H   0  0  0  0  0  0  0  0  0  0  0  0
   67.6432   34.1435   52.6211 H   0  0  0  0  0  0  0  0  0  0  0  0
   65.3636   35.0607   53.0553 H   0  0  0  0  0  0  0  0  0  0  0  0
   63.5111   34.6226   51.4472 H   0  0  0  0  0  0  0  0  0  0  0  0
   63.5305   31.0287   49.1144 H   0  0  0  0  0  0  0  0  0  0  0  0
  1  2  2  0
  2  3  1  0
  3  4  1  0
  4  5  2  0
  5  6  1  0
  6  7  2  0
  7  8  1  0
  8  9  2  0
  9 10  1  0
 10 11  2  0
 11 12  1  0
 12 13  2  0
 13 14  1  0
 14 15  2  0
 15 16  1  0
  7 17  1  0
 17 18  2  0
  2 19  1  0
 19 20  1  0
 20 21  2  0
 21 22  1  0
 22 23  1  0
 23 24  2  0
 24 25  1  0
 25 26  2  0
 26 27  1  0
 27 28  2  0
 22 29  1  0
 18  4  1  0
 29 19  2  0
 16  8  1  0
 28 23  1  0
 15 10  1  0
  3 30  1  0
  5 31  1  0
  6 32  1  0
 11 33  1  0
 12 34  1  0
 13 35  1  0
 14 36  1  0
 17 37  1  0
 18 38  1  0
 20 39  1  0
 24 40  1  0
 25 41  1  0
 26 42  1  0
 27 43  1  0
 28 44  1  0
 29 45  1  0
M  CHG  1  16  -1
M  END
>  <UniqueID>  (16) 
14

>  <SMILES>  (16) 
O=C(Nc1ccc(-c2nc3ccccc3[n-]2)cc1)c1cnn(-c2ccccc2)c1

>  <Energy>  (16) 
123.41249061817463

>  <Genealogy>  (16) 
O=C(Nc1ccc(-c2nc3ccccc3[n-]2)cc1)c1cnn(-c2ccccc2)c1 (protonated)
O=C(Nc1ccc(-c2nc3ccccc3[n-]2)cc1)c1cnn(-c2ccccc2)c1 (3D coordinates assigned)
O=C(Nc1ccc(-c2nc3ccccc3[n-]2)cc1)c1cnn(-c2ccccc2)c1 (optimized conformer: 123.41249061817463 kcal/mol)

>  <smiles>  (16) 
O=C(Nc1ccc(-c2nc3ccccc3[nH]2)cc1)c1cnn(-c2ccccc2)c1

>  <score_type>  (16) 
oracle

>  <origin>  (16) 
adg

>  <m_score__min__energy>  (16) 
-8.8100000000000005

>  <m_primary>  (16) 
energy

$$$$
16:0
     RDKit          3D

 51 53  0  0  0  0  0  0  0  0999 V2000
   58.5130   28.1240   43.9360 C   0  0  0  0  0  0  0  0  0  0  0  0
   59.1960   29.3810   44.4620 C   0  0  0  0  0  0  0  0  0  0  0  0
   58.0370   30.7430   44.5960 S   0  0  0  0  0  0  0  0  0  0  0  0
   58.0180   31.4570   43.2720 O   0  0  0  0  0  0  0  0  0  0  0  0
   56.6540   30.2150   44.8620 O   0  0  0  0  0  0  0  0  0  0  0  0
   58.5180   31.8760   45.8450 N   0  0  1  0  0  0  0  0  0  0  0  0
   57.3800   32.7140   46.2510 C   0  0  0  0  0  0  0  0  0  0  0  0
   57.8610   33.9400   47.0520 C   0  0  0  0  0  0  0  0  0  0  0  0
   59.2070   33.7560   47.6460 N   0  0  0  0  0  0  0  0  0  0  0  0
   60.3270   34.3020   46.8450 C   0  0  0  0  0  0  0  0  0  0  0  0
   61.6260   33.8970   47.4800 C   0  0  0  0  0  0  0  0  0  0  0  0
   61.8720   34.1930   48.8280 C   0  0  0  0  0  0  0  0  0  0  0  0
   63.0680   33.7740   49.4160 C   0  0  0  0  0  0  0  0  0  0  0  0
   63.9790   33.0750   48.6870 N   0  0  0  0  0  0  0  0  0  0  0  0
   63.7590   32.7640   47.3820 C   0  0  0  0  0  0  0  0  0  0  0  0
   62.5770   33.1640   46.7560 C   0  0  0  0  0  0  0  0  0  0  0  0
   59.4480   32.3850   48.1560 C   0  0  1  0  0  0  0  0  0  0  0  0
   58.6230   32.2150   49.4610 C   0  0  0  0  0  0  0  0  0  0  0  0
   59.2190   31.1890   50.4400 C   0  0  0  0  0  0  0  0  0  0  0  0
   58.8480   29.7500   50.0910 C   0  0  0  0  0  0  0  0  0  0  0  0
   59.3620   29.3240   48.7150 C   0  0  0  0  0  0  0  0  0  0  0  0
   58.5750   29.9740   47.5620 C   0  0  0  0  0  0  0  0  0  0  0  0
   59.2190   31.2910   47.0320 C   0  0  1  0  0  0  0  0  0  0  0  0
   58.1778   27.5071   44.7828 H   0  0  0  0  0  0  0  0  0  0  0  0
   57.6450   28.4077   43.3228 H   0  0  0  0  0  0  0  0  0  0  0  0
   59.2233   27.5500   43.3228 H   0  0  0  0  0  0  0  0  0  0  0  0
   59.6183   29.1705   45.4556 H   0  0  0  0  0  0  0  0  0  0  0  0
   59.9890   29.6674   43.7555 H   0  0  0  0  0  0  0  0  0  0  0  0
   59.1940   32.4980   45.3450 H   0  0  0  0  0  0  0  0  0  0  0  0
   56.8462   33.0571   45.3525 H   0  0  0  0  0  0  0  0  0  0  0  0
   56.7119   32.1164   46.8886 H   0  0  0  0  0  0  0  0  0  0  0  0
   57.8918   34.8085   46.3776 H   0  0  0  0  0  0  0  0  0  0  0  0
   57.1540   34.0873   47.8817 H   0  0  0  0  0  0  0  0  0  0  0  0
   60.2769   33.9029   45.8212 H   0  0  0  0  0  0  0  0  0  0  0  0
   60.2575   35.3992   46.8089 H   0  0  0  0  0  0  0  0  0  0  0  0
   61.1295   34.7505   49.4178 H   0  0  0  0  0  0  0  0  0  0  0  0
   63.2733   34.0099   50.4706 H   0  0  0  0  0  0  0  0  0  0  0  0
   64.5138   32.1961   46.8182 H   0  0  0  0  0  0  0  0  0  0  0  0
   62.3931   32.9060   45.7026 H   0  0  0  0  0  0  0  0  0  0  0  0
   60.5031   32.2274   48.4240 H   0  0  0  0  0  0  0  0  0  0  0  0
   58.5709   33.1896   49.9684 H   0  0  0  0  0  0  0  0  0  0  0  0
   57.6310   31.8410   49.1678 H   0  0  0  0  0  0  0  0  0  0  0  0
   60.3148   31.2830   50.4229 H   0  0  0  0  0  0  0  0  0  0  0  0
   58.8053   31.4043   51.4362 H   0  0  0  0  0  0  0  0  0  0  0  0
   59.2799   29.0814   50.8502 H   0  0  0  0  0  0  0  0  0  0  0  0
   57.7501   29.6863   50.0694 H   0  0  0  0  0  0  0  0  0  0  0  0
   60.4192   29.6151   48.6281 H   0  0  0  0  0  0  0  0  0  0  0  0
   59.2334   28.2346   48.6338 H   0  0  0  0  0  0  0  0  0  0  0  0
   58.5184   29.2555   46.7310 H   0  0  0  0  0  0  0  0  0  0  0  0
   57.5822   30.2362   47.9564 H   0  0  0  0  0  0  0  0  0  0  0  0
   60.2134   30.9725   46.6859 H   0  0  0  0  0  0  0  0  0  0  0  0
  1  2  1  0
  2  3  1  0
  3  4  2  0
  3  5  2  0
  3  6  1  0
  6  7  1  0
  7  8  1  0
  8  9  1  0
  9 10  1  0
 10 11  1  0
 11 12  2  0
 12 13  1  0
 13 14  2  0
 14 15  1  0
 15 16  2  0
  9 17  1  0
 17 18  1  0
 18 19  1  0
 19 20  1  0
 20 21  1  0
 21 22  1  0
 22 23  1  0
 23  6  1  0
 16 11  1  0
 23 17  1  0
  1 24  1  0
  1 25  1  0
  1 26  1  0
  2 27  1  0
  2 28  1  0
  6 29  1  6
  7 30  1  0
  7 31  1  0
  8 32  1  0
  8 33  1  0
 10 34  1  0
 10 35  1  0
 12 36  1  0
 13 37  1  0
 15 38  1  0
 16 39  1  0
 17 40  1  1
 18 41  1  0
 18 42  1  0
 19 43  1  0
 19 44  1  0
 20 45  1  0
 20 46  1  0
 21 47  1  0
 21 48  1  0
 22 49  1  0
 22 50  1  0
 23 51  1  6
M  CHG  1   6   1
M  END
>  <UniqueID>  (17) 
15

>  <SMILES>  (17) 
CCS(=O)(=O)[N@H+]1CCN(Cc2ccncc2)[C@H]2CCCCCC21

>  <Energy>  (17) 
68.5587233528265

>  <Genealogy>  (17) 
CCS(=O)(=O)[NH+]1CCN(Cc2ccncc2)C2CCCCCC21 (protonated)
CCS(=O)(=O)[N@H+]1CCN(Cc2ccncc2)[C@H]2CCCCCC21 (chirality)
CCS(=O)(=O)[N@H+]1CCN(Cc2ccncc2)[C@H]2CCCCCC21 (3D coordinates assigned)
CCS(=O)(=O)[N@H+]1CCN(Cc2ccncc2)[C@H]2CCCCCC21 (nonaromatic ring conformer: 68.5587233528265 kcal/mol)

>  <smiles>  (17) 
CCS(=O)(=O)N1CCN(Cc2ccncc2)C2CCCCCC21

>  <score_type>  (17) 
oracle

>  <origin>  (17) 
adg

>  <m_score__min__energy>  (17) 
-4.9500000000000002

>  <m_primary>  (17) 
energy

$$$$
17:0
     RDKit          3D

 27 28  0  0  0  0  0  0  0  0999 V2000
   63.3940   33.8440   46.7600 C   0  0  0  0  0  0  0  0  0  0  0  0
   62.1200   33.7750   47.5940 C   0  0  0  0  0  0  0  0  0  0  0  0
   61.3290   32.6020   47.2200 N   0  0  0  0  0  0  0  0  0  0  0  0
   61.7230   31.3070   47.3130 C   0  0  0  0  0  0  0  0  0  0  0  0
   60.8070   30.4320   46.8240 N   0  0  0  0  0  0  0  0  0  0  0  0
   59.8130   31.2390   46.4070 C   0  0  0  0  0  0  0  0  0  0  0  0
   60.1190   32.5380   46.6330 C   0  0  0  0  0  0  0  0  0  0  0  0
   59.2400   33.5440   46.2470 C   0  0  0  0  0  0  0  0  0  0  0  0
   59.5110   34.7550   46.4690 O   0  0  0  0  0  0  0  0  0  0  0  0
   58.0690   33.1810   45.6200 N   0  0  0  0  0  0  0  0  0  0  0  0
   57.1020   34.2160   45.2160 C   0  0  0  0  0  0  0  0  0  0  0  0
   57.7670   31.8420   45.4250 C   0  0  0  0  0  0  0  0  0  0  0  0
   56.6780   31.5190   44.8720 O   0  0  0  0  0  0  0  0  0  0  0  0
   58.6430   30.8570   45.8270 N   0  0  0  0  0  0  0  0  0  0  0  0
   58.3540   29.4380   45.5770 C   0  0  0  0  0  0  0  0  0  0  0  0
   64.2671   33.8913   47.4275 H   0  0  0  0  0  0  0  0  0  0  0  0
   63.4657   32.9484   46.1253 H   0  0  0  0  0  0  0  0  0  0  0  0
   63.3686   34.7421   46.1253 H   0  0  0  0  0  0  0  0  0  0  0  0
   62.3870   33.7077   48.6590 H   0  0  0  0  0  0  0  0  0  0  0  0
   61.5237   34.6810   47.4107 H   0  0  0  0  0  0  0  0  0  0  0  0
   62.6876   30.9971   47.7415 H   0  0  0  0  0  0  0  0  0  0  0  0
   56.6671   34.6815   46.1127 H   0  0  0  0  0  0  0  0  0  0  0  0
   57.6147   34.9829   44.6168 H   0  0  0  0  0  0  0  0  0  0  0  0
   56.3021   33.7566   44.6168 H   0  0  0  0  0  0  0  0  0  0  0  0
   58.2467   28.9111   46.5366 H   0  0  0  0  0  0  0  0  0  0  0  0
   57.4194   29.3496   45.0036 H   0  0  0  0  0  0  0  0  0  0  0  0
   59.1796   28.9911   45.0036 H   0  0  0  0  0  0  0  0  0  0  0  0
  1  2  1  0
  2  3  1  0
  3  4  1  0
  4  5  2  0
  5  6  1  0
  6  7  2  0
  7  8  1  0
  8  9  2  0
  8 10  1  0
 10 11  1  0
 10 12  1  0
 12 13  2  0
 12 14  1  0
 14 15  1  0
  7  3  1  0
 14  6  1  0
  1 16  1  0
  1 17  1  0
  1 18  1  0
  2 19  1  0
  2 20  1  0
  4 21  1  0
 11 22  1  0
 11 23  1  0
 11 24  1  0
 15 25  1  0
 15 26  1  0
 15 27  1  0
M  END
>  <UniqueID>  (18) 
16

>  <SMILES>  (18) 
CCn1cnc2c1c(=O)n(C)c(=O)n2C

>  <Energy>  (18) 
69.41892929799019

>  <Genealogy>  (18) 
CCn1cnc2c1c(=O)n(C)c(=O)n2C (3D coordinates assigned)
CCn1cnc2c1c(=O)n(C)c(=O)n2C (optimized conformer: 69.41892929799019 kcal/mol)

>  <smiles>  (18) 
CCn1cnc2c1c(=O)n(C)c(=O)n2C

>  <score_type>  (18) 
oracle

>  <origin>  (18) 
adg

>  <m_score__min__energy>  (18) 
-4.8399999999999999

>  <m_primary>  (18) 
energy

$$$$
18:0
     RDKit          3D

 51 54  0  0  0  0  0  0  0  0999 V2000
   56.5585   27.1786   45.2144 H   0  0  0  0  0  0  0  0  0  0  0  0
   56.7750   28.2570   45.2020 C   0  0  0  0  0  0  0  0  0  0  0  0
   55.9450   29.4180   44.3110 S   0  0  0  0  0  0  0  0  0  0  0  0
   56.9090   30.6820   44.8670 C   0  0  0  0  0  0  0  0  0  0  0  0
   56.7690   31.9430   44.5800 N   0  0  0  0  0  0  0  0  0  0  0  0
   57.3670   33.0550   45.2720 C   0  0  0  0  0  0  0  0  0  0  0  0
   56.8900   34.5910   44.9130 S   0  0  0  0  0  0  0  0  0  0  0  0
   58.6150   32.8620   45.9790 N   0  0  0  0  0  0  0  0  0  0  0  0
   59.0900   32.0030   45.6110 H   0  0  0  0  0  0  0  0  0  0  0  0
   58.3600   32.7090   47.4170 C   0  0  0  0  0  0  0  0  0  0  0  0
   57.6272   31.9026   47.5674 H   0  0  0  0  0  0  0  0  0  0  0  0
   57.9731   33.6628   47.8050 H   0  0  0  0  0  0  0  0  0  0  0  0
   59.6470   32.3630   48.1760 C   0  0  0  0  0  0  0  0  0  0  0  0
   59.8030   31.2763   48.1073 H   0  0  0  0  0  0  0  0  0  0  0  0
   59.5024   32.7167   49.2075 H   0  0  0  0  0  0  0  0  0  0  0  0
   60.8660   33.0360   47.6720 N   0  0  0  0  0  0  0  0  0  0  0  0
   62.1310   32.8290   48.3810 C   0  0  0  0  0  0  0  0  0  0  0  0
   63.2940   33.5570   48.0400 C   0  0  0  0  0  0  0  0  0  0  0  0
   63.2487   34.2953   47.2258 H   0  0  0  0  0  0  0  0  0  0  0  0
   64.5000   33.3570   48.7170 C   0  0  0  0  0  0  0  0  0  0  0  0
   65.3886   33.9363   48.4259 H   0  0  0  0  0  0  0  0  0  0  0  0
   64.5920   32.4260   49.7640 C   0  0  0  0  0  0  0  0  0  0  0  0
   65.8700   32.2010   50.4930 C   0  0  0  0  0  0  0  0  0  0  0  0
   66.8160   33.0230   50.3650 O   0  0  0  0  0  0  0  0  0  0  0  0
   66.0740   31.0140   51.3870 C   0  0  0  0  0  0  0  0  0  0  0  0
   66.0192   31.3330   52.4383 H   0  0  0  0  0  0  0  0  0  0  0  0
   65.2910   30.2671   51.1892 H   0  0  0  0  0  0  0  0  0  0  0  0
   67.0614   30.5714   51.1892 H   0  0  0  0  0  0  0  0  0  0  0  0
   63.4420   31.7040   50.1190 C   0  0  0  0  0  0  0  0  0  0  0  0
   63.4921   30.9725   50.9390 H   0  0  0  0  0  0  0  0  0  0  0  0
   62.2350   31.9020   49.4450 C   0  0  0  0  0  0  0  0  0  0  0  0
   61.3478   31.3261   49.7471 H   0  0  0  0  0  0  0  0  0  0  0  0
   60.8810   33.7690   46.3850 C   0  0  0  0  0  0  0  0  0  0  0  0
   61.4724   33.1850   45.6645 H   0  0  0  0  0  0  0  0  0  0  0  0
   61.3119   34.7590   46.5952 H   0  0  0  0  0  0  0  0  0  0  0  0
   59.4980   34.0180   45.7770 C   0  0  0  0  0  0  0  0  0  0  0  0
   59.6078   34.2018   44.6980 H   0  0  0  0  0  0  0  0  0  0  0  0
   59.0499   34.8907   46.2746 H   0  0  0  0  0  0  0  0  0  0  0  0
   57.8450   30.2470   45.7350 N   0  0  0  0  0  0  0  0  0  0  0  0
   57.7870   28.8970   45.9240 C   0  0  0  0  0  0  0  0  0  0  0  0
   58.7280   28.2060   46.8440 C   0  0  0  0  0  0  0  0  0  0  0  0
   59.0110   28.7640   48.1070 C   0  0  0  0  0  0  0  0  0  0  0  0
   58.5322   29.7086   48.4047 H   0  0  0  0  0  0  0  0  0  0  0  0
   59.8940   28.1290   48.9850 C   0  0  0  0  0  0  0  0  0  0  0  0
   60.1030   28.5728   49.9696 H   0  0  0  0  0  0  0  0  0  0  0  0
   60.5110   26.9330   48.6150 C   0  0  0  0  0  0  0  0  0  0  0  0
   61.3680   26.3190   49.4670 F   0  0  0  0  0  0  0  0  0  0  0  0
   60.2470   26.3700   47.3650 C   0  0  0  0  0  0  0  0  0  0  0  0
   60.7345   25.4279   47.0736 H   0  0  0  0  0  0  0  0  0  0  0  0
   59.3640   27.0010   46.4820 C   0  0  0  0  0  0  0  0  0  0  0  0
   59.1644   26.5532   45.4973 H   0  0  0  0  0  0  0  0  0  0  0  0
  1  2  1  0
  2  3  1  0
  3  4  1  0
  4  5  2  0
  5  6  1  0
  6  7  2  0
  6  8  1  0
  8  9  1  0
  8 10  1  0
 10 11  1  0
 10 12  1  0
 10 13  1  0
 13 14  1  0
 13 15  1  0
 13 16  1  0
 16 17  1  0
 17 18  2  0
 18 19  1  0
 18 20  1  0
 20 21  1  0
 20 22  2  0
 22 23  1  0
 23 24  2  0
 23 25  1  0
 25 26  1  0
 25 27  1  0
 25 28  1  0
 22 29  1  0
 29 30  1  0
 29 31  2  0
 31 32  1  0
 16 33  1  0
 33 34  1  0
 33 35  1  0
 33 36  1  0
 36 37  1  0
 36 38  1  0
  4 39  1  0
 39 40  1  0
 40 41  1  0
 41 42  2  0
 42 43  1  0
 42 44  1  0
 44 45  1  0
 44 46  2  0
 46 47  1  0
 46 48  1  0
 48 49  1  0
 48 50  2  0
 50 51  1  0
 40  2  2  0
 50 41  1  0
 36  8  1  0
 31 17  1  0
M  CHG  2   8   1  39  -1
M  END
>  <UniqueID>  (19) 
17

>  <SMILES>  (19) 
CC(=O)c1ccc(N2CC[NH+](C(=S)/N=c3/[n-]c(-c4ccc(F)cc4)cs3)CC2)cc1

>  <Energy>  (19) 
103.92866306099505

>  <Genealogy>  (19) 
CC(=O)c1ccc(N2CC[NH+](C(=S)N=c3[n-]c(-c4ccc(F)cc4)cs3)CC2)cc1 (protonated)
CC(=O)c1ccc(N2CC[NH+](C(=S)/N=c3/[n-]c(-c4ccc(F)cc4)cs3)CC2)cc1 (cis-trans isomerization)
CC(=O)c1ccc(N2CC[NH+](C(=S)/N=c3/[n-]c(-c4ccc(F)cc4)cs3)CC2)cc1 (3D coordinates assigned)
CC(=O)c1ccc(N2CC[NH+](C(=S)/N=c3/[n-]c(-c4ccc(F)cc4)cs3)CC2)cc1 (nonaromatic ring conformer: 103.92866306099505 kcal/mol)

>  <smiles>  (19) 
CC(=O)c1ccc(N2CCN(C(=S)N=c3[nH]c(-c4ccc(F)cc4)cs3)CC2)cc1

>  <score_type>  (19) 
oracle

>  <origin>  (19) 
adg

>  <m_score__min__energy>  (19) 
-8.7100000000000009

>  <m_primary>  (19) 
energy

$$$$
19:0
     RDKit          3D

 34 36  0  0  0  0  0  0  0  0999 V2000
   59.8750   30.3590   46.6770 O   0  0  0  0  0  0  0  0  0  0  0  0
   58.9790   29.6660   46.1150 C   0  0  0  0  0  0  0  0  0  0  0  0
   59.1290   28.2700   46.0910 C   0  0  0  0  0  0  0  0  0  0  0  0
   60.2440   27.6260   46.6670 C   0  0  0  0  0  0  0  0  0  0  0  0
   60.3530   26.2340   46.6210 C   0  0  0  0  0  0  0  0  0  0  0  0
   59.3590   25.4730   46.0050 C   0  0  0  0  0  0  0  0  0  0  0  0
   58.2500   26.1020   45.4330 C   0  0  0  0  0  0  0  0  0  0  0  0
   58.1310   27.5010   45.4740 C   0  0  0  0  0  0  0  0  0  0  0  0
   57.0570   28.1160   44.9220 N   0  0  0  0  0  0  0  0  0  0  0  0
   56.9130   29.4710   44.9440 C   0  0  0  0  0  0  0  0  0  0  0  0
   55.5600   30.0860   44.2270 S   0  0  0  0  0  0  0  0  0  0  0  0
   57.8780   30.2730   45.5410 N   0  0  0  0  0  0  0  0  0  0  0  0
   57.7650   31.7650   45.6070 C   0  0  0  0  0  0  0  0  0  0  0  0
   58.1090   32.3330   47.0130 C   0  0  0  0  0  0  0  0  0  0  0  0
   58.9330   33.6290   46.9440 C   0  0  0  0  0  0  0  0  0  0  0  0
   58.3560   34.5900   45.8970 C   0  0  0  0  0  0  0  0  0  0  0  0
   58.3170   33.9830   44.4760 C   0  0  0  0  0  0  0  0  0  0  0  0
   58.5140   32.4560   44.4450 C   0  0  0  0  0  0  0  0  0  0  0  0
   61.0301   28.2217   47.1539 H   0  0  0  0  0  0  0  0  0  0  0  0
   61.2246   25.7367   47.0715 H   0  0  0  0  0  0  0  0  0  0  0  0
   59.4484   24.3772   45.9696 H   0  0  0  0  0  0  0  0  0  0  0  0
   57.4674   25.4994   44.9489 H   0  0  0  0  0  0  0  0  0  0  0  0
   56.3200   27.5310   44.4640 H   0  0  0  0  0  0  0  0  0  0  0  0
   56.7038   32.0146   45.4599 H   0  0  0  0  0  0  0  0  0  0  0  0
   57.1705   32.5407   47.5479 H   0  0  0  0  0  0  0  0  0  0  0  0
   58.7171   31.5801   47.5358 H   0  0  0  0  0  0  0  0  0  0  0  0
   58.9176   34.1183   47.9291 H   0  0  0  0  0  0  0  0  0  0  0  0
   59.9640   33.3748   46.6570 H   0  0  0  0  0  0  0  0  0  0  0  0
   57.3304   34.8558   46.1928 H   0  0  0  0  0  0  0  0  0  0  0  0
   59.0144   35.4705   45.8606 H   0  0  0  0  0  0  0  0  0  0  0  0
   57.3403   34.2156   44.0266 H   0  0  0  0  0  0  0  0  0  0  0  0
   59.1548   34.4248   43.9166 H   0  0  0  0  0  0  0  0  0  0  0  0
   58.1313   32.0655   43.4905 H   0  0  0  0  0  0  0  0  0  0  0  0
   59.5881   32.2441   44.5521 H   0  0  0  0  0  0  0  0  0  0  0  0
  1  2  2  0
  2  3  1  0
  3  4  2  0
  4  5  1  0
  5  6  2  0
  6  7  1  0
  7  8  2  0
  8  9  1  0
  9 10  1  0
 10 11  2  0
 10 12  1  0
 12 13  1  0
 13 14  1  0
 14 15  1  0
 15 16  1  0
 16 17  1  0
 17 18  1  0
 12  2  1  0
 18 13  1  0
  8  3  1  0
  4 19  1  0
  5 20  1  0
  6 21  1  0
  7 22  1  0
  9 23  1  0
 13 24  1  0
 14 25  1  0
 14 26  1  0
 15 27  1  0
 15 28  1  0
 16 29  1  0
 16 30  1  0
 17 31  1  0
 17 32  1  0
 18 33  1  0
 18 34  1  0
M  END
>  <UniqueID>  (20) 
18

>  <SMILES>  (20) 
O=c1c2ccccc2[nH]c(=S)n1C1CCCCC1

>  <Energy>  (20) 
55.909869045060354

>  <Genealogy>  (20) 
O=c1c2ccccc2[nH]c(=S)n1C1CCCCC1 (3D coordinates assigned)
O=c1c2ccccc2[nH]c(=S)n1C1CCCCC1 (nonaromatic ring conformer: 55.909869045060354 kcal/mol)

>  <smiles>  (20) 
O=c1c2ccccc2[nH]c(=S)n1C1CCCCC1

>  <score_type>  (20) 
oracle

>  <origin>  (20) 
adg

>  <m_score__min__energy>  (20) 
-7.0300000000000002

>  <m_primary>  (20) 
energy

$$$$
20:0
     RDKit          3D

 62 66  0  0  0  0  0  0  0  0999 V2000
   56.9096   32.8258   45.6380 H   0  0  0  0  0  0  0  0  0  0  0  0
   57.7780   32.1590   45.7440 C   0  0  0  0  0  0  0  0  0  0  0  0
   57.7360   30.9020   45.2320 N   0  0  0  0  0  0  0  0  0  0  0  0
   58.7850   30.0500   45.3650 C   0  0  0  0  0  0  0  0  0  0  0  0
   58.7030   28.8590   44.8480 N   0  0  0  0  0  0  0  0  0  0  0  0
   58.0340   27.7210   45.4140 C   0  0  0  0  0  0  0  0  0  0  0  0
   58.7420   26.6920   46.0690 C   0  0  0  0  0  0  0  0  0  0  0  0
   59.8401   26.7301   46.1205 H   0  0  0  0  0  0  0  0  0  0  0  0
   58.0550   25.6240   46.6530 C   0  0  0  0  0  0  0  0  0  0  0  0
   58.6163   24.8109   47.1367 H   0  0  0  0  0  0  0  0  0  0  0  0
   56.6450   25.5840   46.6250 C   0  0  0  0  0  0  0  0  0  0  0  0
   55.8930   24.5500   47.2090 O   0  0  0  0  0  0  0  0  0  0  0  0
   56.3970   23.4820   48.0170 C   0  0  0  0  0  0  0  0  0  0  0  0
   57.1711   23.8776   48.6910 H   0  0  0  0  0  0  0  0  0  0  0  0
   55.5602   23.0571   48.5908 H   0  0  0  0  0  0  0  0  0  0  0  0
   57.0070   22.3680   47.1550 C   0  0  0  0  0  0  0  0  0  0  0  0
   58.0890   22.5458   47.0669 H   0  0  0  0  0  0  0  0  0  0  0  0
   56.7867   21.4110   47.6506 H   0  0  0  0  0  0  0  0  0  0  0  0
   56.4070   22.3030   45.7470 C   0  0  0  0  0  0  0  0  0  0  0  0
   56.1954   21.2549   45.4887 H   0  0  0  0  0  0  0  0  0  0  0  0
   55.4752   22.8871   45.7229 H   0  0  0  0  0  0  0  0  0  0  0  0
   57.3630   22.8680   44.7650 N   0  0  0  0  0  0  0  0  0  0  0  0
   56.6990   23.7430   43.7740 C   0  0  0  0  0  0  0  0  0  0  0  0
   55.9454   24.3545   44.2918 H   0  0  0  0  0  0  0  0  0  0  0  0
   57.4740   24.3682   43.3065 H   0  0  0  0  0  0  0  0  0  0  0  0
   56.0000   22.9390   42.6500 C   0  0  0  0  0  0  0  0  0  0  0  0
   54.9546   23.2721   42.5717 H   0  0  0  0  0  0  0  0  0  0  0  0
   56.5447   23.1199   41.7116 H   0  0  0  0  0  0  0  0  0  0  0  0
   56.0190   21.5500   42.9070 O   0  0  0  0  0  0  0  0  0  0  0  0
   57.3590   21.0980   42.9770 C   0  0  0  0  0  0  0  0  0  0  0  0
   57.3589   20.0192   43.1919 H   0  0  0  0  0  0  0  0  0  0  0  0
   57.8401   21.3119   42.0112 H   0  0  0  0  0  0  0  0  0  0  0  0
   58.1620   21.8280   44.0830 C   0  0  0  0  0  0  0  0  0  0  0  0
   58.4895   21.0884   44.8285 H   0  0  0  0  0  0  0  0  0  0  0  0
   59.0193   22.3236   43.6039 H   0  0  0  0  0  0  0  0  0  0  0  0
   55.9480   26.6220   45.9920 C   0  0  0  0  0  0  0  0  0  0  0  0
   54.8489   26.5978   45.9559 H   0  0  0  0  0  0  0  0  0  0  0  0
   56.6370   27.6880   45.4060 C   0  0  0  0  0  0  0  0  0  0  0  0
   56.0748   28.5076   44.9347 H   0  0  0  0  0  0  0  0  0  0  0  0
   59.9120   30.4680   46.0050 N   0  0  0  0  0  0  0  0  0  0  0  0
   60.0080   31.7190   46.5300 C   0  0  0  0  0  0  0  0  0  0  0  0
   58.9260   32.6050   46.4060 C   0  0  0  0  0  0  0  0  0  0  0  0
   58.9650   33.9510   47.0820 C   0  0  0  0  0  0  0  0  0  0  0  0
   58.6274   33.8389   48.1229 H   0  0  0  0  0  0  0  0  0  0  0  0
   58.3045   34.6357   46.5298 H   0  0  0  0  0  0  0  0  0  0  0  0
   60.3840   34.5380   47.0770 C   0  0  0  0  0  0  0  0  0  0  0  0
   60.4129   35.4070   47.7508 H   0  0  0  0  0  0  0  0  0  0  0  0
   60.6308   34.8310   46.0459 H   0  0  0  0  0  0  0  0  0  0  0  0
   61.4080   33.5260   47.5380 C   0  0  0  0  0  0  0  0  0  0  0  0
   62.5750   33.9550   48.1860 C   0  0  0  0  0  0  0  0  0  0  0  0
   62.7113   35.0231   48.4109 H   0  0  0  0  0  0  0  0  0  0  0  0
   63.5690   33.0380   48.5500 C   0  0  0  0  0  0  0  0  0  0  0  0
   64.7090   33.5210   49.2090 O   0  0  0  0  0  0  0  0  0  0  0  0
   65.5690   32.7270   50.0200 C   0  0  0  0  0  0  0  0  0  0  0  0
   65.3565   32.9232   51.0813 H   0  0  0  0  0  0  0  0  0  0  0  0
   65.3982   31.6623   49.8026 H   0  0  0  0  0  0  0  0  0  0  0  0
   66.6167   32.9821   49.8026 H   0  0  0  0  0  0  0  0  0  0  0  0
   63.3950   31.6780   48.2430 C   0  0  0  0  0  0  0  0  0  0  0  0
   64.1707   30.9507   48.5248 H   0  0  0  0  0  0  0  0  0  0  0  0
   62.2430   31.2430   47.5820 C   0  0  0  0  0  0  0  0  0  0  0  0
   62.1193   30.1766   47.3424 H   0  0  0  0  0  0  0  0  0  0  0  0
   61.2420   32.1610   47.2220 C   0  0  0  0  0  0  0  0  0  0  0  0
  1  2  1  0
  2  3  1  0
  3  4  1  0
  4  5  2  0
  5  6  1  0
  6  7  2  0
  7  8  1  0
  7  9  1  0
  9 10  1  0
  9 11  2  0
 11 12  1  0
 12 13  1  0
 13 14  1  0
 13 15  1  0
 13 16  1  0
 16 17  1  0
 16 18  1  0
 16 19  1  0
 19 20  1  0
 19 21  1  0
 19 22  1  0
 22 23  1  0
 23 24  1  0
 23 25  1  0
 23 26  1  0
 26 27  1  0
 26 28  1  0
 26 29  1  0
 29 30  1  0
 30 31  1  0
 30 32  1  0
 30 33  1  0
 33 34  1  0
 33 35  1  0
 11 36  1  0
 36 37  1  0
 36 38  2  0
 38 39  1  0
  4 40  1  0
 40 41  2  0
 41 42  1  0
 42 43  1  0
 43 44  1  0
 43 45  1  0
 43 46  1  0
 46 47  1  0
 46 48  1  0
 46 49  1  0
 49 50  2  0
 50 51  1  0
 50 52  1  0
 52 53  1  0
 53 54  1  0
 54 55  1  0
 54 56  1  0
 54 57  1  0
 52 58  2  0
 58 59  1  0
 58 60  1  0
 60 61  1  0
 60 62  2  0
 42  2  2  0
 62 49  1  0
 38  6  1  0
 62 41  1  0
 33 22  1  0
M  CHG  1   3  -1
M  END
>  <UniqueID>  (21) 
19

>  <SMILES>  (21) 
COc1ccc2c(c1)CCc1c[n-]/c(=N/c3ccc(OCCCN4CCOCC4)cc3)nc1-2

>  <Energy>  (21) 
87.1804833822456

>  <Genealogy>  (21) 
COc1ccc2c(c1)CCc1c[n-]c(=Nc3ccc(OCCCN4CCOCC4)cc3)nc1-2 (protonated)
COc1ccc2c(c1)CCc1c[n-]/c(=N/c3ccc(OCCCN4CCOCC4)cc3)nc1-2 (cis-trans isomerization)
COc1ccc2c(c1)CCc1c[n-]/c(=N/c3ccc(OCCCN4CCOCC4)cc3)nc1-2 (3D coordinates assigned)
COc1ccc2c(c1)CCc1c[n-]/c(=N/c3ccc(OCCCN4CCOCC4)cc3)nc1-2 (nonaromatic ring conformer: 87.1804833822456 kcal/mol)

>  <smiles>  (21) 
COc1ccc2c(c1)CCc1c[nH]c(=Nc3ccc(OCCCN4CCOCC4)cc3)nc1-2

>  <score_type>  (21) 
oracle

>  <origin>  (21) 
adg

>  <m_score__min__energy>  (21) 
-10.460000000000001

>  <m_primary>  (21) 
energy

$$$$
21:0
     RDKit          3D

 30 32  0  0  0  0  0  0  0  0999 V2000
   53.7040   28.8950   55.0880 O   0  0  0  0  0  0  0  0  0  0  0  0
   52.9610   29.0060   54.0760 C   0  0  0  0  0  0  0  0  0  0  0  0
   52.9480   27.9700   53.0810 N   0  0  0  0  0  0  0  0  0  0  0  0
   53.3400   26.6100   53.3350 C   0  0  0  0  0  0  0  0  0  0  0  0
   54.5590   26.3050   53.9690 C   0  0  0  0  0  0  0  0  0  0  0  0
   54.9060   24.9740   54.2280 C   0  0  0  0  0  0  0  0  0  0  0  0
   54.0360   23.9410   53.8680 C   0  0  0  0  0  0  0  0  0  0  0  0
   52.8170   24.2360   53.2560 C   0  0  0  0  0  0  0  0  0  0  0  0
   52.4660   25.5650   52.9970 C   0  0  0  0  0  0  0  0  0  0  0  0
   52.1640   30.2440   53.8900 C   0  0  0  0  0  0  0  0  0  0  0  0
   51.7480   30.9690   55.0230 C   0  0  0  0  0  0  0  0  0  0  0  0
   51.0070   32.1460   54.8860 C   0  0  0  0  0  0  0  0  0  0  0  0
   50.6590   32.6160   53.6200 C   0  0  0  0  0  0  0  0  0  0  0  0
   51.0430   31.9020   52.4820 C   0  0  0  0  0  0  0  0  0  0  0  0
   50.6850   32.3390   51.2450 N   0  0  0  0  0  0  0  0  0  0  0  0
   51.0280   31.6500   50.1270 C   0  0  0  0  0  0  0  0  0  0  0  0
   50.6850   32.0830   48.9940 O   0  0  0  0  0  0  0  0  0  0  0  0
   51.7600   30.4620   50.2470 C   0  0  0  0  0  0  0  0  0  0  0  0
   52.0860   29.7990   49.2270 O   0  0  0  0  0  0  0  0  0  0  0  0
   52.1200   30.0230   51.4810 N   0  0  0  0  0  0  0  0  0  0  0  0
   51.7940   30.7120   52.6090 C   0  0  0  0  0  0  0  0  0  0  0  0
   52.7370   28.2450   52.0950 H   0  0  0  0  0  0  0  0  0  0  0  0
   55.2418   27.1160   54.2622 H   0  0  0  0  0  0  0  0  0  0  0  0
   55.8642   24.7407   54.7153 H   0  0  0  0  0  0  0  0  0  0  0  0
   54.3123   22.8951   54.0672 H   0  0  0  0  0  0  0  0  0  0  0  0
   52.1313   23.4224   52.9769 H   0  0  0  0  0  0  0  0  0  0  0  0
   51.4987   25.7927   52.5253 H   0  0  0  0  0  0  0  0  0  0  0  0
   52.0092   30.6048   56.0276 H   0  0  0  0  0  0  0  0  0  0  0  0
   50.6967   32.7045   55.7814 H   0  0  0  0  0  0  0  0  0  0  0  0
   50.0830   33.5475   53.5174 H   0  0  0  0  0  0  0  0  0  0  0  0
  1  2  2  0
  2  3  1  0
  3  4  1  0
  4  5  2  0
  5  6  1  0
  6  7  2  0
  7  8  1  0
  8  9  2  0
  2 10  1  0
 10 11  2  0
 11 12  1  0
 12 13  2  0
 13 14  1  0
 14 15  1  0
 15 16  1  0
 16 17  2  0
 16 18  1  0
 18 19  2  0
 18 20  1  0
 20 21  1  0
  9  4  1  0
 21 10  1  0
 21 14  2  0
  3 22  1  0
  5 23  1  0
  6 24  1  0
  7 25  1  0
  8 26  1  0
  9 27  1  0
 11 28  1  0
 12 29  1  0
 13 30  1  0
M  CHG  2  15  -1  20  -1
M  END
>  <UniqueID>  (22) 
20

>  <SMILES>  (22) 
O=C(Nc1ccccc1)c1cccc2[n-]c(=O)c(=O)[n-]c12

>  <Energy>  (22) 
45.294008922728

>  <Genealogy>  (22) 
O=C(Nc1ccccc1)c1cccc2[n-]c(=O)c(=O)[n-]c12 (protonated)
O=C(Nc1ccccc1)c1cccc2[n-]c(=O)c(=O)[n-]c12 (3D coordinates assigned)
O=C(Nc1ccccc1)c1cccc2[n-]c(=O)c(=O)[n-]c12 (optimized conformer: 45.294008922728 kcal/mol)

>  <smiles>  (22) 
O=C(Nc1ccccc1)c1cccc2[nH]c(=O)c(=O)[nH]c12

>  <score_type>  (22) 
oracle

>  <origin>  (22) 
adg

>  <m_score__min__energy>  (22) 
-10.529999999999999

>  <m_primary>  (22) 
energy

$$$$
22:0
     RDKit          3D

 34 36  0  0  0  0  0  0  0  0999 V2000
   58.1340   27.1720   45.9910 C   0  0  0  0  0  0  0  0  0  0  0  0
   56.9560   27.9060   45.4560 C   0  0  0  0  0  0  0  0  0  0  0  0
   55.8320   27.3610   45.6310 O   0  0  0  0  0  0  0  0  0  0  0  0
   57.0950   29.1880   44.7660 C   0  0  0  0  0  0  0  0  0  0  0  0
   56.5190   29.4470   43.5390 C   0  0  0  0  0  0  0  0  0  0  0  0
   56.6500   30.6580   42.8860 C   0  0  0  0  0  0  0  0  0  0  0  0
   57.3970   31.6460   43.5100 C   0  0  0  0  0  0  0  0  0  0  0  0
   57.9820   31.4090   44.7390 C   0  0  0  0  0  0  0  0  0  0  0  0
   58.7740   32.4430   45.4100 C   0  0  0  0  0  0  0  0  0  0  0  0
   59.8100   32.1910   46.2390 N   0  0  0  0  0  0  0  0  0  0  0  0
   60.3480   33.3340   46.7090 C   0  0  0  0  0  0  0  0  0  0  0  0
   61.4790   33.4890   47.6260 C   0  0  0  0  0  0  0  0  0  0  0  0
   62.7540   33.1200   47.2280 C   0  0  0  0  0  0  0  0  0  0  0  0
   63.7700   33.3030   48.1660 C   0  0  0  0  0  0  0  0  0  0  0  0
   63.5150   33.8230   49.4180 C   0  0  0  0  0  0  0  0  0  0  0  0
   64.5550   33.9700   50.2720 F   0  0  0  0  0  0  0  0  0  0  0  0
   62.2330   34.1830   49.7880 C   0  0  0  0  0  0  0  0  0  0  0  0
   61.2240   34.0080   48.8760 C   0  0  0  0  0  0  0  0  0  0  0  0
   59.5970   34.3460   46.1340 C   0  0  0  0  0  0  0  0  0  0  0  0
   58.6380   33.7820   45.3440 N   0  0  0  0  0  0  0  0  0  0  0  0
   57.8330   30.1740   45.3770 C   0  0  0  0  0  0  0  0  0  0  0  0
   58.1078   27.1883   47.0906 H   0  0  0  0  0  0  0  0  0  0  0  0
   58.1077   26.1302   45.6390 H   0  0  0  0  0  0  0  0  0  0  0  0
   59.0576   27.6547   45.6390 H   0  0  0  0  0  0  0  0  0  0  0  0
   55.9284   28.6530   43.0586 H   0  0  0  0  0  0  0  0  0  0  0  0
   56.1791   30.8319   41.9072 H   0  0  0  0  0  0  0  0  0  0  0  0
   57.5245   32.6243   43.0234 H   0  0  0  0  0  0  0  0  0  0  0  0
   62.9536   32.7061   46.2286 H   0  0  0  0  0  0  0  0  0  0  0  0
   64.8008   33.0256   47.9006 H   0  0  0  0  0  0  0  0  0  0  0  0
   62.0278   34.5981   50.7858 H   0  0  0  0  0  0  0  0  0  0  0  0
   60.1949   34.2865   49.1470 H   0  0  0  0  0  0  0  0  0  0  0  0
   59.7485   35.4245   46.2885 H   0  0  0  0  0  0  0  0  0  0  0  0
   57.9120   34.2730   44.7730 H   0  0  0  0  0  0  0  0  0  0  0  0
   58.3006   29.9933   46.3561 H   0  0  0  0  0  0  0  0  0  0  0  0
  1  2  1  0
  2  3  2  0
  2  4  1  0
  4  5  2  0
  5  6  1  0
  6  7  2  0
  7  8  1  0
  8  9  1  0
  9 10  2  0
 10 11  1  0
 11 12  1  0
 12 13  2  0
 13 14  1  0
 14 15  2  0
 15 16  1  0
 15 17  1  0
 17 18  2  0
 11 19  2  0
 19 20  1  0
  8 21  2  0
 21  4  1  0
 20  9  1  0
 18 12  1  0
  1 22  1  0
  1 23  1  0
  1 24  1  0
  5 25  1  0
  6 26  1  0
  7 27  1  0
 13 28  1  0
 14 29  1  0
 17 30  1  0
 18 31  1  0
 19 32  1  0
 20 33  1  0
 21 34  1  0
M  END
>  <smiles>  (23) 
CC(=O)c1cccc(-c2nc(-c3ccc(F)cc3)c[nH]2)c1

>  <score_type>  (23) 
oracle

>  <origin>  (23) 
adg

>  <m_score__min__energy>  (23) 
-8

>  <m_primary>  (23) 
energy

$$$$
23:0
     RDKit          3D

 46 48  0  0  0  0  0  0  0  0999 V2000
   56.0040   23.5930   43.8160 C   0  0  0  0  0  0  0  0  0  0  0  0
   57.2960   24.3830   43.7510 C   0  0  0  0  0  0  0  0  0  0  0  0
   57.0160   25.6710   44.2630 O   0  0  0  0  0  0  0  0  0  0  0  0
   56.8150   25.9480   45.5960 C   0  0  0  0  0  0  0  0  0  0  0  0
   55.6280   25.9490   46.0480 O   0  0  0  0  0  0  0  0  0  0  0  0
   57.9930   26.2320   46.4380 C   0  0  0  0  0  0  0  0  0  0  0  0
   58.3050   27.6430   46.5000 N   0  0  0  0  0  0  0  0  0  0  0  0
   59.2890   28.2140   47.2390 C   0  0  0  0  0  0  0  0  0  0  0  0
   59.2480   29.5920   47.0110 C   0  0  0  0  0  0  0  0  0  0  0  0
   58.2280   29.8530   46.1280 C   0  0  0  0  0  0  0  0  0  0  0  0
   57.7640   31.0310   45.5770 C   0  0  0  0  0  0  0  0  0  0  0  0
   58.3290   32.3040   45.8680 N   0  0  0  0  0  0  0  0  0  0  0  0
   58.2530   33.3480   44.8680 C   0  0  0  0  0  0  0  0  0  0  0  0
   59.5220   34.1370   44.7650 C   0  0  0  0  0  0  0  0  0  0  0  0
   59.9760   34.7700   46.0450 C   0  0  0  0  0  0  0  0  0  0  0  0
   58.9080   34.9730   47.0580 C   0  0  0  0  0  0  0  0  0  0  0  0
   58.5660   33.7400   47.8550 C   0  0  0  0  0  0  0  0  0  0  0  0
   58.9480   32.4490   47.1770 C   0  0  0  0  0  0  0  0  0  0  0  0
   56.7090   30.8960   44.7190 N   0  0  0  0  0  0  0  0  0  0  0  0
   56.1610   29.7090   44.4300 C   0  0  0  0  0  0  0  0  0  0  0  0
   55.1850   29.6610   43.6240 N   0  0  0  0  0  0  0  0  0  0  0  0
   56.6190   28.5580   44.9710 N   0  0  0  0  0  0  0  0  0  0  0  0
   57.6670   28.6340   45.8310 C   0  0  0  0  0  0  0  0  0  0  0  0
   55.7294   23.4251   44.8679 H   0  0  0  0  0  0  0  0  0  0  0  0
   55.2040   24.1566   43.3137 H   0  0  0  0  0  0  0  0  0  0  0  0
   56.1410   22.6240   43.3137 H   0  0  0  0  0  0  0  0  0  0  0  0
   58.0698   23.8935   44.3607 H   0  0  0  0  0  0  0  0  0  0  0  0
   57.6696   24.4425   42.7181 H   0  0  0  0  0  0  0  0  0  0  0  0
   57.7929   25.8703   47.4574 H   0  0  0  0  0  0  0  0  0  0  0  0
   58.8558   25.7194   45.9877 H   0  0  0  0  0  0  0  0  0  0  0  0
   59.9931   27.6866   47.8994 H   0  0  0  0  0  0  0  0  0  0  0  0
   59.9175   30.3397   47.4612 H   0  0  0  0  0  0  0  0  0  0  0  0
   58.0442   32.8866   43.8915 H   0  0  0  0  0  0  0  0  0  0  0  0
   57.4524   34.0403   45.1677 H   0  0  0  0  0  0  0  0  0  0  0  0
   60.3173   33.4615   44.4168 H   0  0  0  0  0  0  0  0  0  0  0  0
   59.3166   34.9628   44.0679 H   0  0  0  0  0  0  0  0  0  0  0  0
   60.7494   34.1259   46.4888 H   0  0  0  0  0  0  0  0  0  0  0  0
   60.3426   35.7725   45.7793 H   0  0  0  0  0  0  0  0  0  0  0  0
   59.2407   35.7540   47.7575 H   0  0  0  0  0  0  0  0  0  0  0  0
   57.9990   35.2529   46.5054 H   0  0  0  0  0  0  0  0  0  0  0  0
   59.0926   33.7938   48.8193 H   0  0  0  0  0  0  0  0  0  0  0  0
   57.4722   33.7281   47.9712 H   0  0  0  0  0  0  0  0  0  0  0  0
   60.0410   32.4241   47.0553 H   0  0  0  0  0  0  0  0  0  0  0  0
   58.5931   31.6213   47.8087 H   0  0  0  0  0  0  0  0  0  0  0  0
   55.1470   28.9620   42.8430 H   0  0  0  0  0  0  0  0  0  0  0  0
   56.2130   27.6260   44.7630 H   0  0  0  0  0  0  0  0  0  0  0  0
  1  2  1  0
  2  3  1  0
  3  4  1  0
  4  5  2  0
  4  6  1  0
  6  7  1  0
  7  8  1  0
  8  9  2  0
  9 10  1  0
 10 11  1  0
 11 12  1  0
 12 13  1  0
 13 14  1  0
 14 15  1  0
 15 16  1  0
 16 17  1  0
 17 18  1  0
 11 19  2  0
 19 20  1  0
 20 21  2  3
 20 22  1  0
 22 23  1  0
 23  7  1  0
 23 10  2  0
 18 12  1  0
  1 24  1  0
  1 25  1  0
  1 26  1  0
  2 27  1  0
  2 28  1  0
  6 29  1  0
  6 30  1  0
  8 31  1  0
  9 32  1  0
 13 33  1  0
 13 34  1  0
 14 35  1  0
 14 36  1  0
 15 37  1  0
 15 38  1  0
 16 39  1  0
 16 40  1  0
 17 41  1  0
 17 42  1  0
 18 43  1  0
 18 44  1  0
 21 45  1  0
 22 46  1  0
M  END
>  <smiles>  (24) 
CCOC(=O)Cn1ccc2c(N3CCCCCC3)nc(=N)[nH]c21

>  <score_type>  (24) 
oracle

>  <origin>  (24) 
adg

>  <m_score__min__energy>  (24) 
-6.0099999999999998

>  <m_primary>  (24) 
energy

$$$$
24:0
     RDKit          3D

 36 37  0  0  0  0  0  0  0  0999 V2000
   57.6640   25.1940   45.4880 C   0  0  0  0  0  0  0  0  0  0  0  0
   56.8300   26.7310   45.8210 S   0  0  0  0  0  0  0  0  0  0  0  0
   57.3900   27.3120   47.0890 O   0  0  0  0  0  0  0  0  0  0  0  0
   55.3560   26.5010   46.0070 O   0  0  0  0  0  0  0  0  0  0  0  0
   57.0990   27.8530   44.5250 N   0  0  0  0  0  0  0  0  0  0  0  0
   57.3840   29.2540   44.7010 C   0  0  0  0  0  0  0  0  0  0  0  0
   56.7720   30.1860   43.8510 C   0  0  0  0  0  0  0  0  0  0  0  0
   57.0240   31.5540   43.9900 C   0  0  0  0  0  0  0  0  0  0  0  0
   57.9000   32.0190   44.9830 C   0  0  0  0  0  0  0  0  0  0  0  0
   58.1670   33.4660   45.1270 C   0  0  0  0  0  0  0  0  0  0  0  0
   57.2620   34.3060   44.8620 O   0  0  0  0  0  0  0  0  0  0  0  0
   59.4290   33.9030   45.5510 O   0  0  0  0  0  0  0  0  0  0  0  0
   59.6250   35.0290   46.4050 C   0  0  0  0  0  0  0  0  0  0  0  0
   60.2310   34.5900   47.7390 C   0  0  0  0  0  0  0  0  0  0  0  0
   61.2780   33.5430   47.5230 C   0  0  0  0  0  0  0  0  0  0  0  0
   61.1260   32.1820   47.7540 C   0  0  0  0  0  0  0  0  0  0  0  0
   62.3000   31.4520   47.5320 C   0  0  0  0  0  0  0  0  0  0  0  0
   63.3780   32.2360   47.1420 C   0  0  0  0  0  0  0  0  0  0  0  0
   62.8720   33.8390   47.0760 S   0  0  0  0  0  0  0  0  0  0  0  0
   58.5210   31.0860   45.8330 C   0  0  0  0  0  0  0  0  0  0  0  0
   58.2680   29.7180   45.6920 C   0  0  0  0  0  0  0  0  0  0  0  0
   57.9283   24.7069   46.4382 H   0  0  0  0  0  0  0  0  0  0  0  0
   57.0001   24.5343   44.9100 H   0  0  0  0  0  0  0  0  0  0  0  0
   58.5789   25.3910   44.9100 H   0  0  0  0  0  0  0  0  0  0  0  0
   56.9840   27.4820   43.5550 H   0  0  0  0  0  0  0  0  0  0  0  0
   56.0856   29.8367   43.0656 H   0  0  0  0  0  0  0  0  0  0  0  0
   56.5322   32.2711   43.3163 H   0  0  0  0  0  0  0  0  0  0  0  0
   60.3055   35.7409   45.9150 H   0  0  0  0  0  0  0  0  0  0  0  0
   58.6517   35.5048   46.5956 H   0  0  0  0  0  0  0  0  0  0  0  0
   60.6870   35.4607   48.2328 H   0  0  0  0  0  0  0  0  0  0  0  0
   59.4336   34.1693   48.3692 H   0  0  0  0  0  0  0  0  0  0  0  0
   60.1798   31.7242   48.0783 H   0  0  0  0  0  0  0  0  0  0  0  0
   62.3626   30.3607   47.6549 H   0  0  0  0  0  0  0  0  0  0  0  0
   64.3905   31.8709   46.9149 H   0  0  0  0  0  0  0  0  0  0  0  0
   59.2113   31.4354   46.6150 H   0  0  0  0  0  0  0  0  0  0  0  0
   58.7639   28.9993   46.3610 H   0  0  0  0  0  0  0  0  0  0  0  0
  1  2  1  0
  2  3  2  0
  2  4  2  0
  2  5  1  0
  5  6  1  0
  6  7  2  0
  7  8  1  0
  8  9  2  0
  9 10  1  0
 10 11  2  0
 10 12  1  0
 12 13  1  0
 13 14  1  0
 14 15  1  0
 15 16  2  0
 16 17  1  0
 17 18  2  0
 18 19  1  0
  9 20  1  0
 20 21  2  0
 21  6  1  0
 19 15  1  0
  1 22  1  0
  1 23  1  0
  1 24  1  0
  5 25  1  0
  7 26  1  0
  8 27  1  0
 13 28  1  0
 13 29  1  0
 14 30  1  0
 14 31  1  0
 16 32  1  0
 17 33  1  0
 18 34  1  0
 20 35  1  0
 21 36  1  0
M  END
>  <UniqueID>  (25) 
21

>  <SMILES>  (25) 
CS(=O)(=O)Nc1ccc(C(=O)OCCc2cccs2)cc1

>  <Energy>  (25) 
56.68721606385284

>  <Genealogy>  (25) 
CS(=O)(=O)Nc1ccc(C(=O)OCCc2cccs2)cc1 (3D coordinates assigned)
CS(=O)(=O)Nc1ccc(C(=O)OCCc2cccs2)cc1 (optimized conformer: 56.68721606385284 kcal/mol)

>  <smiles>  (25) 
CS(=O)(=O)Nc1ccc(C(=O)OCCc2cccs2)cc1

>  <score_type>  (25) 
oracle

>  <origin>  (25) 
adg

>  <m_score__min__energy>  (25) 
-7.54

>  <m_primary>  (25) 
energy

$$$$
25:0
     RDKit          3D

 16 16  0  0  0  0  0  0  0  0999 V2000
   56.2350   29.7190   43.7310 C   0  0  0  0  0  0  0  0  0  0  0  0
   56.9360   30.9830   44.0050 C   0  0  0  0  0  0  0  0  0  0  0  0
   56.6710   31.5990   45.1890 N   0  0  0  0  0  0  0  0  0  0  0  0
   57.3010   32.7750   45.4820 C   0  0  0  0  0  0  0  0  0  0  0  0
   57.0180   33.3090   46.6020 N   0  0  0  0  0  0  0  0  0  0  0  0
   58.1900   33.3010   44.5630 C   0  0  0  0  0  0  0  0  0  0  0  0
   58.8440   34.5400   44.8900 C   0  0  0  0  0  0  0  0  0  0  0  0
   59.3840   35.5470   45.1740 N   0  0  0  0  0  0  0  0  0  0  0  0
   58.4460   32.6570   43.3630 C   0  0  0  0  0  0  0  0  0  0  0  0
   57.7980   31.5010   43.1230 N   0  0  0  0  0  0  0  0  0  0  0  0
   55.9666   29.2350   44.6817 H   0  0  0  0  0  0  0  0  0  0  0  0
   55.3217   29.9240   43.1532 H   0  0  0  0  0  0  0  0  0  0  0  0
   56.8926   29.0528   43.1532 H   0  0  0  0  0  0  0  0  0  0  0  0
   56.1360   33.8440   46.6920 H   0  0  0  0  0  0  0  0  0  0  0  0
   59.1537   33.0753   42.6321 H   0  0  0  0  0  0  0  0  0  0  0  0
   57.9740   31.0090   42.2410 H   0  0  0  0  0  0  0  0  0  0  0  0
  1  2  1  0
  2  3  2  0
  3  4  1  0
  4  5  2  3
  4  6  1  0
  6  7  1  0
  7  8  3  0
  6  9  2  0
  9 10  1  0
 10  2  1  0
  1 11  1  0
  1 12  1  0
  1 13  1  0
  5 14  1  0
  9 15  1  0
 10 16  1  0
M  END
>  <smiles>  (26) 
Cc1nc(=N)c(C#N)c[nH]1

>  <score_type>  (26) 
oracle

>  <origin>  (26) 
adg

>  <m_score__min__energy>  (26) 
-4.3499999999999996

>  <m_primary>  (26) 
energy

$$$$
26:0
     RDKit          3D

 32 34  0  0  0  0  0  0  0  0999 V2000
   59.6030   32.9840   46.0540 O   0  0  0  0  0  0  0  0  0  0  0  0
   58.5660   32.4030   45.6320 C   0  0  0  0  0  0  0  0  0  0  0  0
   57.8000   32.9990   44.4930 C   0  0  0  0  0  0  0  0  0  0  0  0
   57.7490   31.8480   43.0780 S   0  0  0  0  0  0  0  0  0  0  0  0
   56.9270   30.5390   43.9850 C   0  0  0  0  0  0  0  0  0  0  0  0
   55.6680   30.6340   44.4490 N   0  0  0  0  0  0  0  0  0  0  0  0
   55.4100   29.4920   45.0600 N   0  0  0  0  0  0  0  0  0  0  0  0
   56.5180   28.7370   44.9480 C   0  0  0  0  0  0  0  0  0  0  0  0
   56.6440   27.3840   45.5000 C   0  0  0  0  0  0  0  0  0  0  0  0
   57.8040   26.6400   45.5690 C   0  0  0  0  0  0  0  0  0  0  0  0
   57.4430   25.4460   46.1580 C   0  0  0  0  0  0  0  0  0  0  0  0
   56.0890   25.5370   46.4100 C   0  0  0  0  0  0  0  0  0  0  0  0
   55.6410   26.7040   46.0080 O   0  0  0  0  0  0  0  0  0  0  0  0
   57.5050   29.3580   44.2730 N   0  0  0  0  0  0  0  0  0  0  0  0
   58.1080   31.1900   46.2490 N   0  0  0  0  0  0  0  0  0  0  0  0
   58.9000   30.4160   47.1670 C   0  0  0  0  0  0  0  0  0  0  0  0
   59.4050   29.1570   46.7910 C   0  0  0  0  0  0  0  0  0  0  0  0
   60.1480   28.3930   47.6940 C   0  0  0  0  0  0  0  0  0  0  0  0
   60.3870   28.8710   48.9830 C   0  0  0  0  0  0  0  0  0  0  0  0
   59.8790   30.1110   49.3750 C   0  0  0  0  0  0  0  0  0  0  0  0
   59.1320   30.8830   48.4770 C   0  0  0  0  0  0  0  0  0  0  0  0
   58.5300   32.4480   49.0110 Cl  0  0  0  0  0  0  0  0  0  0  0  0
   56.7723   33.2130   44.8217 H   0  0  0  0  0  0  0  0  0  0  0  0
   58.3004   33.9262   44.1769 H   0  0  0  0  0  0  0  0  0  0  0  0
   58.8062   26.9367   45.2263 H   0  0  0  0  0  0  0  0  0  0  0  0
   58.1012   24.5935   46.3817 H   0  0  0  0  0  0  0  0  0  0  0  0
   55.4776   24.7508   46.8770 H   0  0  0  0  0  0  0  0  0  0  0  0
   57.1330   30.8770   46.0410 H   0  0  0  0  0  0  0  0  0  0  0  0
   59.2131   28.7720   45.7786 H   0  0  0  0  0  0  0  0  0  0  0  0
   60.5451   27.4136   47.3887 H   0  0  0  0  0  0  0  0  0  0  0  0
   60.9764   28.2701   49.6912 H   0  0  0  0  0  0  0  0  0  0  0  0
   60.0663   30.4828   50.3932 H   0  0  0  0  0  0  0  0  0  0  0  0
  1  2  2  0
  2  3  1  0
  3  4  1  0
  4  5  1  0
  5  6  2  0
  6  7  1  0
  7  8  1  0
  8  9  1  0
  9 10  2  0
 10 11  1  0
 11 12  2  0
 12 13  1  0
  8 14  2  0
  2 15  1  0
 15 16  1  0
 16 17  2  0
 17 18  1  0
 18 19  2  0
 19 20  1  0
 20 21  2  0
 21 22  1  0
 14  5  1  0
 21 16  1  0
 13  9  1  0
  3 23  1  0
  3 24  1  0
 10 25  1  0
 11 26  1  0
 12 27  1  0
 15 28  1  0
 17 29  1  0
 18 30  1  0
 19 31  1  0
 20 32  1  0
M  CHG  1   7  -1
M  END
>  <UniqueID>  (27) 
22

>  <SMILES>  (27) 
O=C(CSc1n[n-]c(-c2ccco2)n1)Nc1ccccc1Cl

>  <Energy>  (27) 
90.4172236061164

>  <Genealogy>  (27) 
O=C(CSc1n[n-]c(-c2ccco2)n1)Nc1ccccc1Cl (protonated)
O=C(CSc1n[n-]c(-c2ccco2)n1)Nc1ccccc1Cl (3D coordinates assigned)
O=C(CSc1n[n-]c(-c2ccco2)n1)Nc1ccccc1Cl (optimized conformer: 90.4172236061164 kcal/mol)

>  <smiles>  (27) 
O=C(CSc1n[nH]c(-c2ccco2)n1)Nc1ccccc1Cl

>  <score_type>  (27) 
oracle

>  <origin>  (27) 
adg

>  <m_score__min__energy>  (27) 
-9.4399999999999995

>  <m_primary>  (27) 
energy

$$$$
27:0
     RDKit          3D

 31 33  0  0  0  0  0  0  0  0999 V2000
   57.2930   33.9740   45.2460 C   0  0  0  0  0  0  0  0  0  0  0  0
   57.4060   32.4960   45.4470 C   0  0  0  0  0  0  0  0  0  0  0  0
   56.5790   31.6050   44.8670 N   0  0  0  0  0  0  0  0  0  0  0  0
   56.9420   30.3880   45.2430 N   0  0  0  0  0  0  0  0  0  0  0  0
   58.0080   30.4920   46.0590 C   0  0  0  0  0  0  0  0  0  0  0  0
   58.6880   29.3120   46.6770 C   0  0  0  0  0  0  0  0  0  0  0  0
   58.3400   31.8270   46.2190 C   0  0  0  0  0  0  0  0  0  0  0  0
   59.4360   32.4030   47.0270 C   0  0  0  0  0  0  0  0  0  0  0  0
   59.1940   32.8290   48.3580 C   0  0  0  0  0  0  0  0  0  0  0  0
   60.2310   33.3760   49.1450 C   0  0  0  0  0  0  0  0  0  0  0  0
   59.9820   33.8410   50.5490 C   0  0  0  0  0  0  0  0  0  0  0  0
   61.4950   33.4880   48.5560 C   0  0  0  0  0  0  0  0  0  0  0  0
   62.6870   33.9770   49.0530 C   0  0  0  0  0  0  0  0  0  0  0  0
   63.6040   33.8340   48.0170 C   0  0  0  0  0  0  0  0  0  0  0  0
   63.0160   33.2840   46.9310 N   0  0  0  0  0  0  0  0  0  0  0  0
   61.7330   33.0800   47.2700 C   0  0  0  0  0  0  0  0  0  0  0  0
   60.7290   32.5320   46.4760 C   0  0  0  0  0  0  0  0  0  0  0  0
   57.2547   34.4752   46.2244 H   0  0  0  0  0  0  0  0  0  0  0  0
   58.1661   34.3353   44.6829 H   0  0  0  0  0  0  0  0  0  0  0  0
   56.3751   34.1983   44.6829 H   0  0  0  0  0  0  0  0  0  0  0  0
   58.6407   29.3940   47.7729 H   0  0  0  0  0  0  0  0  0  0  0  0
   58.1835   28.3886   46.3563 H   0  0  0  0  0  0  0  0  0  0  0  0
   59.7399   29.2855   46.3563 H   0  0  0  0  0  0  0  0  0  0  0  0
   58.1842   32.7319   48.7832 H   0  0  0  0  0  0  0  0  0  0  0  0
   60.3794   33.0988   51.2570 H   0  0  0  0  0  0  0  0  0  0  0  0
   60.4837   34.8066   50.7099 H   0  0  0  0  0  0  0  0  0  0  0  0
   58.9002   33.9586   50.7099 H   0  0  0  0  0  0  0  0  0  0  0  0
   62.8719   34.3914   50.0550 H   0  0  0  0  0  0  0  0  0  0  0  0
   64.6624   34.1281   48.0736 H   0  0  0  0  0  0  0  0  0  0  0  0
   63.4700   33.0670   46.0160 H   0  0  0  0  0  0  0  0  0  0  0  0
   60.9382   32.2080   45.4458 H   0  0  0  0  0  0  0  0  0  0  0  0
  1  2  1  0
  2  3  2  0
  3  4  1  0
  4  5  1  0
  5  6  1  0
  5  7  2  0
  7  8  1  0
  8  9  2  0
  9 10  1  0
 10 11  1  0
 10 12  2  0
 12 13  1  0
 13 14  2  0
 14 15  1  0
 15 16  1  0
 16 17  2  0
  7  2  1  0
 17  8  1  0
 16 12  1  0
  1 18  1  0
  1 19  1  0
  1 20  1  0
  6 21  1  0
  6 22  1  0
  6 23  1  0
  9 24  1  0
 11 25  1  0
 11 26  1  0
 11 27  1  0
 13 28  1  0
 14 29  1  0
 15 30  1  0
 17 31  1  0
M  CHG  1   4  -1
M  END
>  <UniqueID>  (28) 
23

>  <SMILES>  (28) 
Cc1n[n-]c(C)c1-c1cc(C)c2cc[nH]c2c1

>  <Energy>  (28) 
97.2599639381123

>  <Genealogy>  (28) 
Cc1n[n-]c(C)c1-c1cc(C)c2cc[nH]c2c1 (protonated)
Cc1n[n-]c(C)c1-c1cc(C)c2cc[nH]c2c1 (3D coordinates assigned)
Cc1n[n-]c(C)c1-c1cc(C)c2cc[nH]c2c1 (optimized conformer: 97.2599639381123 kcal/mol)

>  <smiles>  (28) 
Cc1n[nH]c(C)c1-c1cc(C)c2cc[nH]c2c1

>  <score_type>  (28) 
oracle

>  <origin>  (28) 
adg

>  <m_score__min__energy>  (28) 
-8.3399999999999999

>  <m_primary>  (28) 
energy

$$$$
28:0
     RDKit          3D

 37 39  0  0  0  0  0  0  0  0999 V2000
   60.7070   30.3790   49.0070 C   0  0  0  0  0  0  0  0  0  0  0  0
   59.8090   31.0220   48.0290 N   0  0  1  0  0  0  0  0  0  0  0  0
   59.8760   32.5070   48.1120 C   0  0  0  0  0  0  0  0  0  0  0  0
   59.1620   33.2270   46.9850 C   0  0  0  0  0  0  0  0  0  0  0  0
   57.7650   33.1410   46.8520 C   0  0  0  0  0  0  0  0  0  0  0  0
   57.1120   33.8140   45.8140 C   0  0  0  0  0  0  0  0  0  0  0  0
   57.8480   34.5630   44.8930 C   0  0  0  0  0  0  0  0  0  0  0  0
   59.2380   34.6320   45.0010 C   0  0  0  0  0  0  0  0  0  0  0  0
   59.8950   33.9590   46.0360 C   0  0  0  0  0  0  0  0  0  0  0  0
   60.0710   30.4830   46.6700 C   0  0  0  0  0  0  0  0  0  0  0  0
   58.8680   29.7910   46.0550 C   0  0  0  0  0  0  0  0  0  0  0  0
   58.3550   28.5840   46.5480 C   0  0  0  0  0  0  0  0  0  0  0  0
   57.0690   28.0800   45.5820 S   0  0  0  0  0  0  0  0  0  0  0  0
   57.1650   29.3650   44.5120 C   0  0  0  0  0  0  0  0  0  0  0  0
   56.3710   29.5970   43.3910 C   0  0  0  0  0  0  0  0  0  0  0  0
   56.6410   30.7290   42.6110 C   0  0  0  0  0  0  0  0  0  0  0  0
   57.6940   31.5960   42.9580 C   0  0  0  0  0  0  0  0  0  0  0  0
   57.9480   32.6860   42.1930 F   0  0  0  0  0  0  0  0  0  0  0  0
   58.4830   31.3390   44.0910 C   0  0  0  0  0  0  0  0  0  0  0  0
   58.2030   30.2110   44.8800 C   0  0  0  0  0  0  0  0  0  0  0  0
   60.3712   30.6195   50.0265 H   0  0  0  0  0  0  0  0  0  0  0  0
   60.6868   29.2888   48.8619 H   0  0  0  0  0  0  0  0  0  0  0  0
   61.7326   30.7493   48.8619 H   0  0  0  0  0  0  0  0  0  0  0  0
   58.8400   30.7440   48.3120 H   0  0  0  0  0  0  0  0  0  0  0  0
   59.4213   32.8198   49.0635 H   0  0  0  0  0  0  0  0  0  0  0  0
   60.9391   32.7794   48.0366 H   0  0  0  0  0  0  0  0  0  0  0  0
   57.1828   32.5417   47.5675 H   0  0  0  0  0  0  0  0  0  0  0  0
   56.0175   33.7533   45.7230 H   0  0  0  0  0  0  0  0  0  0  0  0
   57.3322   35.0986   44.0824 H   0  0  0  0  0  0  0  0  0  0  0  0
   59.8173   35.2165   44.2711 H   0  0  0  0  0  0  0  0  0  0  0  0
   60.9918   34.0030   46.1074 H   0  0  0  0  0  0  0  0  0  0  0  0
   60.3668   31.3160   46.0153 H   0  0  0  0  0  0  0  0  0  0  0  0
   60.8658   29.7287   46.7669 H   0  0  0  0  0  0  0  0  0  0  0  0
   58.7336   28.0474   47.4305 H   0  0  0  0  0  0  0  0  0  0  0  0
   55.5541   28.9099   43.1255 H   0  0  0  0  0  0  0  0  0  0  0  0
   56.0271   30.9412   41.7232 H   0  0  0  0  0  0  0  0  0  0  0  0
   59.3105   32.0130   44.3575 H   0  0  0  0  0  0  0  0  0  0  0  0
  1  2  1  0
  2  3  1  0
  3  4  1  0
  4  5  2  0
  5  6  1  0
  6  7  2  0
  7  8  1  0
  8  9  2  0
  2 10  1  0
 10 11  1  0
 11 12  2  0
 12 13  1  0
 13 14  1  0
 14 15  2  0
 15 16  1  0
 16 17  2  0
 17 18  1  0
 17 19  1  0
 19 20  2  0
  9  4  1  0
 20 11  1  0
 20 14  1  0
  1 21  1  0
  1 22  1  0
  1 23  1  0
  2 24  1  1
  3 25  1  0
  3 26  1  0
  5 27  1  0
  6 28  1  0
  7 29  1  0
  8 30  1  0
  9 31  1  0
 10 32  1  0
 10 33  1  0
 12 34  1  0
 15 35  1  0
 16 36  1  0
 19 37  1  0
M  CHG  1   2   1
M  END
>  <UniqueID>  (29) 
24

>  <SMILES>  (29) 
C[N@@H+](Cc1ccccc1)Cc1csc2ccc(F)cc12

>  <Energy>  (29) 
74.40370359314953

>  <Genealogy>  (29) 
C[NH+](Cc1ccccc1)Cc1csc2ccc(F)cc12 (protonated)
C[N@@H+](Cc1ccccc1)Cc1csc2ccc(F)cc12 (chirality)
C[N@@H+](Cc1ccccc1)Cc1csc2ccc(F)cc12 (3D coordinates assigned)
C[N@@H+](Cc1ccccc1)Cc1csc2ccc(F)cc12 (optimized conformer: 74.40370359314953 kcal/mol)

>  <smiles>  (29) 
CN(Cc1ccccc1)Cc1csc2ccc(F)cc12

>  <score_type>  (29) 
oracle

>  <origin>  (29) 
adg

>  <m_score__min__energy>  (29) 
-5.2599999999999998

>  <m_primary>  (29) 
energy

$$$$
29:0
     RDKit          3D

 43 46  0  0  0  0  0  0  0  0999 V2000
   58.7110   25.5680   45.7000 C   0  0  0  0  0  0  0  0  0  0  0  0
   58.9660   26.6500   44.8080 O   0  0  0  0  0  0  0  0  0  0  0  0
   59.1540   27.9880   45.1980 C   0  0  0  0  0  0  0  0  0  0  0  0
   60.1750   28.3440   46.0840 C   0  0  0  0  0  0  0  0  0  0  0  0
   60.3090   29.6530   46.5200 C   0  0  0  0  0  0  0  0  0  0  0  0
   59.4870   30.6710   46.0090 C   0  0  0  0  0  0  0  0  0  0  0  0
   59.6280   32.0070   46.4620 C   0  0  0  0  0  0  0  0  0  0  0  0
   58.9460   33.0360   45.8100 C   0  0  0  0  0  0  0  0  0  0  0  0
   58.1430   32.7540   44.7090 C   0  0  0  0  0  0  0  0  0  0  0  0
   57.9550   31.4450   44.2610 C   0  0  0  0  0  0  0  0  0  0  0  0
   58.5430   30.3580   44.9810 C   0  0  0  0  0  0  0  0  0  0  0  0
   58.2830   28.9830   44.6910 C   0  0  0  0  0  0  0  0  0  0  0  0
   57.0250   28.5670   44.1060 N   0  0  0  0  0  0  0  0  0  0  0  0
   56.9020   28.9730   42.7060 C   0  0  0  0  0  0  0  0  0  0  0  0
   56.3560   30.3850   42.6180 C   0  0  0  0  0  0  0  0  0  0  0  0
   57.3320   31.3340   43.0100 O   0  0  0  0  0  0  0  0  0  0  0  0
   59.1040   34.4260   46.2750 C   0  0  0  0  0  0  0  0  0  0  0  0
   59.9830   34.7410   47.2290 C   0  0  0  0  0  0  0  0  0  0  0  0
   60.9300   33.7160   47.8210 C   0  0  0  0  0  0  0  0  0  0  0  0
   62.2970   33.8410   47.1310 C   0  0  0  0  0  0  0  0  0  0  0  0
   61.0820   33.9870   49.3280 C   0  0  0  0  0  0  0  0  0  0  0  0
   60.4190   32.3510   47.6170 N   0  0  0  0  0  0  0  0  0  0  0  0
   58.7943   25.9214   46.7384 H   0  0  0  0  0  0  0  0  0  0  0  0
   57.6968   25.1798   45.5250 H   0  0  0  0  0  0  0  0  0  0  0  0
   59.4451   24.7677   45.5250 H   0  0  0  0  0  0  0  0  0  0  0  0
   60.8795   27.5773   46.4389 H   0  0  0  0  0  0  0  0  0  0  0  0
   61.0693   29.8978   47.2763 H   0  0  0  0  0  0  0  0  0  0  0  0
   57.6455   33.5803   44.1801 H   0  0  0  0  0  0  0  0  0  0  0  0
   56.2440   28.9510   44.6880 H   0  0  0  0  0  0  0  0  0  0  0  0
   56.9080   27.5290   44.1430 H   0  0  0  0  0  0  0  0  0  0  0  0
   57.8921   28.9355   42.2282 H   0  0  0  0  0  0  0  0  0  0  0  0
   56.2117   28.2878   42.1922 H   0  0  0  0  0  0  0  0  0  0  0  0
   56.0527   30.5890   41.5805 H   0  0  0  0  0  0  0  0  0  0  0  0
   55.4941   30.4694   43.2962 H   0  0  0  0  0  0  0  0  0  0  0  0
   58.4860   35.2184   45.8275 H   0  0  0  0  0  0  0  0  0  0  0  0
   60.0213   35.7769   47.5971 H   0  0  0  0  0  0  0  0  0  0  0  0
   63.0871   33.9132   47.8929 H   0  0  0  0  0  0  0  0  0  0  0  0
   62.4731   32.9552   46.5030 H   0  0  0  0  0  0  0  0  0  0  0  0
   62.3095   34.7440   46.5030 H   0  0  0  0  0  0  0  0  0  0  0  0
   60.6213   33.1657   49.8965 H   0  0  0  0  0  0  0  0  0  0  0  0
   62.1500   34.0552   49.5824 H   0  0  0  0  0  0  0  0  0  0  0  0
   60.5833   34.9339   49.5824 H   0  0  0  0  0  0  0  0  0  0  0  0
   60.6190   31.6310   48.3460 H   0  0  0  0  0  0  0  0  0  0  0  0
  1  2  1  0
  2  3  1  0
  3  4  2  0
  4  5  1  0
  5  6  2  0
  6  7  1  0
  7  8  2  0
  8  9  1  0
  9 10  2  0
 10 11  1  0
 11 12  2  0
 12 13  1  0
 13 14  1  0
 14 15  1  0
 15 16  1  0
  8 17  1  0
 17 18  2  0
 18 19  1  0
 19 20  1  0
 19 21  1  0
 19 22  1  0
 12  3  1  0
 11  6  1  0
 22  7  1  0
 16 10  1  0
  1 23  1  0
  1 24  1  0
  1 25  1  0
  4 26  1  0
  5 27  1  0
  9 28  1  0
 13 29  1  0
 13 30  1  0
 14 31  1  0
 14 32  1  0
 15 33  1  0
 15 34  1  0
 17 35  1  0
 18 36  1  0
 20 37  1  0
 20 38  1  0
 20 39  1  0
 21 40  1  0
 21 41  1  0
 21 42  1  0
 22 43  1  0
M  CHG  1  13   1
M  END
>  <UniqueID>  (30) 
25

>  <SMILES>  (30) 
COc1ccc2c3c(cc4c2c1[NH2+]CCO4)C=CC(C)(C)N3

>  <Energy>  (30) 
73.50355609688494

>  <Genealogy>  (30) 
COc1ccc2c3c(cc4c2c1[NH2+]CCO4)C=CC(C)(C)N3 (protonated)
COc1ccc2c3c(cc4c2c1[NH2+]CCO4)C=CC(C)(C)N3 (3D coordinates assigned)
COc1ccc2c3c(cc4c2c1[NH2+]CCO4)C=CC(C)(C)N3 (nonaromatic ring conformer: 73.50355609688494 kcal/mol)

>  <smiles>  (30) 
COc1ccc2c3c(cc4c2c1NCCO4)C=CC(C)(C)N3

>  <score_type>  (30) 
oracle

>  <origin>  (30) 
adg

>  <m_score__min__energy>  (30) 
-3.9100000000000001

>  <m_primary>  (30) 
energy

$$$$
30:0
     RDKit          3D

 46 49  0  0  1  0  0  0  0  0999 V2000
   54.8600   24.8790   45.6210 C   0  0  0  0  0  0  0  0  0  0  0  0
   55.0540   26.2390   45.9260 O   0  0  0  0  0  0  0  0  0  0  0  0
   56.3390   26.7410   46.0910 C   0  0  0  0  0  0  0  0  0  0  0  0
   57.2710   25.9520   46.7180 C   0  0  0  0  0  0  0  0  0  0  0  0
   58.5700   26.3820   46.9170 C   0  0  0  0  0  0  0  0  0  0  0  0
   58.8780   27.6610   46.4450 C   0  0  0  0  0  0  0  0  0  0  0  0
   60.8070   32.5930   47.3860 N   0  0  0  0  0  0  0  0  0  0  0  0
   60.7810   31.3850   47.8500 C   0  0  0  0  0  0  0  0  0  0  0  0
   60.4790   30.3640   47.0400 N   0  0  0  0  0  0  0  0  0  0  0  0
   60.4370   29.0690   47.4750 C   0  0  0  0  0  0  0  0  0  0  0  0
   60.1480   28.1840   46.6580 N   0  0  0  0  0  0  0  0  0  0  0  0
   59.7730   33.1630   46.6220 C   0  0  0  0  0  0  0  0  0  0  0  0
   58.4950   32.6940   46.8020 C   0  0  0  0  0  0  0  0  0  0  0  0
   57.4030   33.1890   46.0970 C   0  0  0  0  0  0  0  0  0  0  0  0
   57.6060   34.2010   45.1700 C   0  0  0  0  0  0  0  0  0  0  0  0
   58.8970   34.7010   44.9650 C   0  0  0  0  0  0  0  0  0  0  0  0
   59.9700   34.1760   45.6940 C   0  0  0  0  0  0  0  0  0  0  0  0
   61.0610   31.1780   49.1480 N   0  0  0  0  0  0  0  0  0  0  0  0
   61.0210   29.9050   49.5890 C   0  0  0  0  0  0  0  0  0  0  0  0
   61.2580   29.4480   50.8240 N   0  0  0  0  0  0  0  0  0  0  0  0
   61.1090   28.1140   50.8180 C   0  0  0  0  0  0  0  0  0  0  0  0
   60.7600   27.6800   49.5300 C   0  0  0  0  0  0  0  0  0  0  0  0
   60.7150   28.8290   48.7890 C   0  0  0  0  0  0  0  0  0  0  0  0
   57.9230   28.4530   45.8100 C   0  0  0  0  0  0  0  0  0  0  0  0
   56.6350   28.0040   45.6220 C   0  0  0  0  0  0  0  0  0  0  0  0
   55.6380   28.7190   45.0080 O   0  0  0  0  0  0  0  0  0  0  0  0
   55.8320   29.7550   44.0940 C   0  0  0  0  0  0  0  0  0  0  0  0
   54.7777   24.3021   46.5540 H   0  0  0  0  0  0  0  0  0  0  0  0
   53.9362   24.7627   45.0353 H   0  0  0  0  0  0  0  0  0  0  0  0
   55.7145   24.5091   45.0353 H   0  0  0  0  0  0  0  0  0  0  0  0
   56.9771   24.9525   47.0710 H   0  0  0  0  0  0  0  0  0  0  0  0
   59.3194   25.7524   47.4189 H   0  0  0  0  0  0  0  0  0  0  0  0
   60.2730   30.5750   46.0550 H   0  0  0  0  0  0  0  0  0  0  0  0
   58.3276   31.8918   47.5358 H   0  0  0  0  0  0  0  0  0  0  0  0
   56.3950   32.7847   46.2716 H   0  0  0  0  0  0  0  0  0  0  0  0
   56.7578   34.6078   44.5998 H   0  0  0  0  0  0  0  0  0  0  0  0
   59.0678   35.5042   44.2331 H   0  0  0  0  0  0  0  0  0  0  0  0
   60.9831   34.5715   45.5293 H   0  0  0  0  0  0  0  0  0  0  0  0
   61.2940   31.9760   49.7730 H   0  0  0  0  0  0  0  0  0  0  0  0
   61.5190   30.0290   51.6670 H   0  0  0  0  0  0  0  0  0  0  0  0
   61.2408   27.4591   51.6919 H   0  0  0  0  0  0  0  0  0  0  0  0
   60.5667   26.6508   49.1931 H   0  0  0  0  0  0  0  0  0  0  0  0
   58.2033   29.4548   45.4526 H   0  0  0  0  0  0  0  0  0  0  0  0
   56.0080   30.6951   44.6373 H   0  0  0  0  0  0  0  0  0  0  0  0
   56.7033   29.5281   43.4620 H   0  0  0  0  0  0  0  0  0  0  0  0
   54.9377   29.8587   43.4620 H   0  0  0  0  0  0  0  0  0  0  0  0
  1  2  1  0
  2  3  1  0
  3  4  2  0
  4  5  1  0
  5  6  2  0
  6  7  1  0
  7  8  2  0
  8  9  1  0
  9 10  1  0
 10 11  2  0
 11 12  1  0
 12 13  2  0
 13 14  1  0
 14 15  2  0
 15 16  1  0
 16 17  2  0
 10 18  1  0
 18 19  1  0
 19 20  1  0
 20 21  1  0
 21 22  2  0
 22 23  1  0
  6 24  1  0
 24 25  2  0
 25 26  1  0
 26 27  1  0
 25  3  1  0
 23  8  1  0
 17 12  1  0
 23 19  2  0
  1 28  1  0
  1 29  1  0
  1 30  1  0
  4 31  1  0
  5 32  1  0
  9 33  1  0
 13 34  1  0
 14 35  1  0
 15 36  1  0
 16 37  1  0
 17 38  1  0
 18 39  1  0
 20 40  1  0
 21 41  1  0
 22 42  1  0
 24 43  1  0
 27 44  1  0
 27 45  1  0
 27 46  1  0
M  END
>  <smiles>  (31) 
COc1ccc(N=c2[nH]c(=Nc3ccccc3)[nH]c3[nH]ccc23)cc1OC

>  <score_type>  (31) 
oracle

>  <origin>  (31) 
adg

>  <m_score__min__energy>  (31) 
-8.1500000000000004

>  <m_primary>  (31) 
energy

$$$$
31:0
     RDKit          3D

 41 43  0  0  0  0  0  0  0  0999 V2000
   55.6710   28.1480   44.5440 H   0  0  0  0  0  0  0  0  0  0  0  0
   55.5250   29.1300   44.8680 N   0  0  0  0  0  0  0  0  0  0  0  0
   56.3600   30.0700   44.5700 C   0  0  0  0  0  0  0  0  0  0  0  0
   57.1400   30.6260   45.5370 N   0  0  0  0  0  0  0  0  0  0  0  0
   58.0330   31.6150   45.2520 C   0  0  0  0  0  0  0  0  0  0  0  0
   58.8550   32.1910   46.3460 C   0  0  0  0  0  0  0  0  0  0  0  0
   58.4660   32.0150   47.6790 C   0  0  0  0  0  0  0  0  0  0  0  0
   57.5559   31.4416   47.9093 H   0  0  0  0  0  0  0  0  0  0  0  0
   59.2230   32.5610   48.7220 C   0  0  0  0  0  0  0  0  0  0  0  0
   58.7640   32.3950   50.1240 C   0  0  0  0  0  0  0  0  0  0  0  0
   58.1410   31.2080   50.5430 C   0  0  0  0  0  0  0  0  0  0  0  0
   57.9788   30.3897   49.8260 H   0  0  0  0  0  0  0  0  0  0  0  0
   57.7280   31.0660   51.8670 C   0  0  0  0  0  0  0  0  0  0  0  0
   57.1260   29.9220   52.2780 F   0  0  0  0  0  0  0  0  0  0  0  0
   57.9440   32.1090   52.7690 C   0  0  0  0  0  0  0  0  0  0  0  0
   57.6197   32.0066   53.8151 H   0  0  0  0  0  0  0  0  0  0  0  0
   58.5550   33.2520   52.3560 N   0  0  0  0  0  0  0  0  0  0  0  0
   58.7110   34.0230   53.0430 H   0  0  0  0  0  0  0  0  0  0  0  0
   58.9680   33.4140   51.0690 C   0  0  0  0  0  0  0  0  0  0  0  0
   59.4643   34.3482   50.7674 H   0  0  0  0  0  0  0  0  0  0  0  0
   60.4010   33.2670   48.4080 C   0  0  0  0  0  0  0  0  0  0  0  0
   61.1080   33.7440   49.3390 O   0  0  0  0  0  0  0  0  0  0  0  0
   60.7890   33.4240   47.1000 N   0  0  0  0  0  0  0  0  0  0  0  0
   61.9940   34.1980   46.7540 C   0  0  0  0  0  0  0  0  0  0  0  0
   61.8751   34.6189   45.7447 H   0  0  0  0  0  0  0  0  0  0  0  0
   62.1200   35.0041   47.4918 H   0  0  0  0  0  0  0  0  0  0  0  0
   63.2380   33.3060   46.7830 C   0  0  0  0  0  0  0  0  0  0  0  0
   63.5409   33.0701   45.7522 H   0  0  0  0  0  0  0  0  0  0  0  0
   64.0510   33.8378   47.2990 H   0  0  0  0  0  0  0  0  0  0  0  0
   62.9570   32.1030   47.4760 O   0  0  0  0  0  0  0  0  0  0  0  0
   63.6780   32.0450   48.6850 C   0  0  0  0  0  0  0  0  0  0  0  0
   62.9785   32.1013   49.5321 H   0  0  0  0  0  0  0  0  0  0  0  0
   64.2372   31.0990   48.7334 H   0  0  0  0  0  0  0  0  0  0  0  0
   64.3812   32.8895   48.7334 H   0  0  0  0  0  0  0  0  0  0  0  0
   60.0340   32.9050   46.0840 C   0  0  0  0  0  0  0  0  0  0  0  0
   60.3572   33.0501   45.0426 H   0  0  0  0  0  0  0  0  0  0  0  0
   58.1320   32.0770   43.9290 C   0  0  0  0  0  0  0  0  0  0  0  0
   58.8335   32.8832   43.6682 H   0  0  0  0  0  0  0  0  0  0  0  0
   57.3250   31.4950   42.9530 C   0  0  0  0  0  0  0  0  0  0  0  0
   57.3909   31.8377   41.9098 H   0  0  0  0  0  0  0  0  0  0  0  0
   56.4580   30.5060   43.2880 N   0  0  0  0  0  0  0  0  0  0  0  0
  1  2  1  0
  2  3  2  0
  3  4  1  0
  4  5  2  0
  5  6  1  0
  6  7  1  0
  7  8  1  0
  7  9  2  0
  9 10  1  0
 10 11  2  0
 11 12  1  0
 11 13  1  0
 13 14  1  0
 13 15  2  0
 15 16  1  0
 15 17  1  0
 17 18  1  0
 17 19  2  0
 19 20  1  0
  9 21  1  0
 21 22  2  0
 21 23  1  0
 23 24  1  0
 24 25  1  0
 24 26  1  0
 24 27  1  0
 27 28  1  0
 27 29  1  0
 27 30  1  0
 30 31  1  0
 31 32  1  0
 31 33  1  0
 31 34  1  0
 23 35  1  0
 35 36  1  0
  5 37  1  0
 37 38  1  0
 37 39  2  0
 39 40  1  0
 39 41  1  0
 41  3  1  0
 35  6  2  0
 19 10  1  0
M  CHG  2  17   1  41  -1
M  END
>  <UniqueID>  (32) 
26

>  <SMILES>  (32) 
[H]/N=c1\nc(-c2cc(-c3c[nH+]cc(F)c3)c(=O)n(CCOC)c2)cc[n-]1

>  <Energy>  (32) 
56.63339823150399

>  <Genealogy>  (32) 
COCCn1cc(-c2cc[n-]c(=N)n2)cc(-c2c[nH+]cc(F)c2)c1=O (protonated)
[H]/N=c1\nc(-c2cc(-c3c[nH+]cc(F)c3)c(=O)n(CCOC)c2)cc[n-]1 (cis-trans isomerization)
[H]/N=c1\nc(-c2cc(-c3c[nH+]cc(F)c3)c(=O)n(CCOC)c2)cc[n-]1 (3D coordinates assigned)
[H]/N=c1\nc(-c2cc(-c3c[nH+]cc(F)c3)c(=O)n(CCOC)c2)cc[n-]1 (optimized conformer: 56.63339823150399 kcal/mol)

>  <smiles>  (32) 
COCCn1cc(-c2cc[nH]c(=N)n2)cc(-c2cncc(F)c2)c1=O

>  <score_type>  (32) 
oracle

>  <origin>  (32) 
adg

>  <m_score__min__energy>  (32) 
-8.1199999999999992

>  <m_primary>  (32) 
energy

$$$$
32:0
     RDKit          3D

 39 41  0  0  0  0  0  0  0  0999 V2000
   54.6138   30.3201   43.6851 H   0  0  0  0  0  0  0  0  0  0  0  0
   55.5170   30.0030   44.2270 C   0  0  0  0  0  0  0  0  0  0  0  0
   55.5350   28.8070   44.8720 N   0  0  0  0  0  0  0  0  0  0  0  0
   56.6240   28.3780   45.5650 C   0  0  0  0  0  0  0  0  0  0  0  0
   56.5720   27.1020   46.2210 N   0  0  0  0  0  0  0  0  0  0  0  0
   55.8490   25.9410   45.7840 C   0  0  0  0  0  0  0  0  0  0  0  0
   54.5950   25.9320   45.8990 O   0  0  0  0  0  0  0  0  0  0  0  0
   56.5260   24.7700   45.1800 C   0  0  0  0  0  0  0  0  0  0  0  0
   57.7750   24.3350   45.6550 C   0  0  0  0  0  0  0  0  0  0  0  0
   58.2826   24.8968   46.4529 H   0  0  0  0  0  0  0  0  0  0  0  0
   58.3760   23.1920   45.1190 C   0  0  0  0  0  0  0  0  0  0  0  0
   59.3498   22.8524   45.5017 H   0  0  0  0  0  0  0  0  0  0  0  0
   57.7410   22.4810   44.0980 C   0  0  0  0  0  0  0  0  0  0  0  0
   58.2123   21.5784   43.6817 H   0  0  0  0  0  0  0  0  0  0  0  0
   56.5080   22.9150   43.6050 C   0  0  0  0  0  0  0  0  0  0  0  0
   55.8920   22.2210   42.6170 F   0  0  0  0  0  0  0  0  0  0  0  0
   55.9040   24.0600   44.1370 C   0  0  0  0  0  0  0  0  0  0  0  0
   54.9391   24.4061   43.7380 H   0  0  0  0  0  0  0  0  0  0  0  0
   57.7530   29.2080   45.6520 C   0  0  0  0  0  0  0  0  0  0  0  0
   58.6157   28.9017   46.2618 H   0  0  0  0  0  0  0  0  0  0  0  0
   57.7800   30.4330   44.9580 C   0  0  0  0  0  0  0  0  0  0  0  0
   58.8420   31.1920   44.9280 N   0  0  0  0  0  0  0  0  0  0  0  0
   58.9420   32.4960   45.5230 C   0  0  0  0  0  0  0  0  0  0  0  0
   58.7700   33.6190   44.7030 C   0  0  0  0  0  0  0  0  0  0  0  0
   58.4933   33.4863   43.6467 H   0  0  0  0  0  0  0  0  0  0  0  0
   58.9470   34.9040   45.2160 C   0  0  0  0  0  0  0  0  0  0  0  0
   58.8164   35.7798   44.5634 H   0  0  0  0  0  0  0  0  0  0  0  0
   59.2900   35.0780   46.5580 C   0  0  0  0  0  0  0  0  0  0  0  0
   59.4339   36.0915   46.9606 H   0  0  0  0  0  0  0  0  0  0  0  0
   59.4510   33.9680   47.3910 C   0  0  0  0  0  0  0  0  0  0  0  0
   59.7152   34.1137   48.4488 H   0  0  0  0  0  0  0  0  0  0  0  0
   59.2780   32.6650   46.8880 C   0  0  0  0  0  0  0  0  0  0  0  0
   59.4410   31.5000   47.7930 C   0  0  0  0  0  0  0  0  0  0  0  0
   59.1050   31.5920   49.0040 O   0  0  0  0  0  0  0  0  0  0  0  0
   59.9760   30.2650   47.3120 N   0  0  0  0  0  0  0  0  0  0  0  0
   60.1590   30.1100   46.2970 H   0  0  0  0  0  0  0  0  0  0  0  0
   60.1250   29.4690   47.9720 H   0  0  0  0  0  0  0  0  0  0  0  0
   56.6420   30.8310   44.2500 C   0  0  0  0  0  0  0  0  0  0  0  0
   56.6325   31.7914   43.7137 H   0  0  0  0  0  0  0  0  0  0  0  0
  1  2  1  0
  2  3  1  0
  3  4  1  0
  4  5  1  0
  5  6  1  0
  6  7  2  0
  6  8  1  0
  8  9  2  0
  9 10  1  0
  9 11  1  0
 11 12  1  0
 11 13  2  0
 13 14  1  0
 13 15  1  0
 15 16  1  0
 15 17  2  0
 17 18  1  0
  4 19  2  0
 19 20  1  0
 19 21  1  0
 21 22  2  0
 22 23  1  0
 23 24  2  0
 24 25  1  0
 24 26  1  0
 26 27  1  0
 26 28  2  0
 28 29  1  0
 28 30  1  0
 30 31  1  0
 30 32  2  0
 32 33  1  0
 33 34  2  0
 33 35  1  0
 35 36  1  0
 35 37  1  0
 21 38  1  0
 38 39  1  0
 38  2  2  0
 17  8  1  0
 32 23  1  0
M  CHG  2   3  -1   5  -1
M  END
>  <UniqueID>  (33) 
27

>  <SMILES>  (33) 
NC(=O)c1ccccc1/N=c1/cc[n-]c([N-]C(=O)c2cccc(F)c2)c1

>  <Energy>  (33) 
60.5178943164591

>  <Genealogy>  (33) 
NC(=O)c1ccccc1N=c1cc[n-]c([N-]C(=O)c2cccc(F)c2)c1 (protonated)
NC(=O)c1ccccc1/N=c1/cc[n-]c([N-]C(=O)c2cccc(F)c2)c1 (cis-trans isomerization)
NC(=O)c1ccccc1/N=c1/cc[n-]c([N-]C(=O)c2cccc(F)c2)c1 (3D coordinates assigned)
NC(=O)c1ccccc1/N=c1/cc[n-]c([N-]C(=O)c2cccc(F)c2)c1 (optimized conformer: 60.5178943164591 kcal/mol)

>  <smiles>  (33) 
NC(=O)c1ccccc1N=c1cc[nH]c(NC(=O)c2cccc(F)c2)c1

>  <score_type>  (33) 
oracle

>  <origin>  (33) 
adg

>  <m_score__min__energy>  (33) 
-12.550000000000001

>  <m_primary>  (33) 
energy

$$$$
33:0
     RDKit          3D

 23 24  0  0  0  0  0  0  0  0999 V2000
   54.3240   26.2830   46.3900 H   0  0  0  0  0  0  0  0  0  0  0  0
   55.1460   26.7130   45.9800 O   0  0  0  0  0  0  0  0  0  0  0  0
   56.4190   26.3160   46.3330 N   0  0  0  0  0  0  0  0  0  0  0  0
   57.4720   26.8200   45.7710 C   0  0  0  0  0  0  0  0  0  0  0  0
   58.3292   26.1708   45.5391 H   0  0  0  0  0  0  0  0  0  0  0  0
   57.5320   28.2480   45.4410 C   0  0  0  0  0  0  0  0  0  0  0  0
   58.2630   29.4190   46.3940 S   0  0  0  0  0  0  0  0  0  0  0  0
   57.9240   30.7310   45.3850 C   0  0  0  0  0  0  0  0  0  0  0  0
   58.3120   32.1410   45.6450 C   0  0  0  0  0  0  0  0  0  0  0  0
   58.2040   33.1230   44.6400 C   0  0  0  0  0  0  0  0  0  0  0  0
   57.8267   32.8462   43.6445 H   0  0  0  0  0  0  0  0  0  0  0  0
   58.5730   34.4470   44.8990 C   0  0  0  0  0  0  0  0  0  0  0  0
   58.4876   35.2048   44.1063 H   0  0  0  0  0  0  0  0  0  0  0  0
   59.0490   34.8100   46.1590 C   0  0  0  0  0  0  0  0  0  0  0  0
   59.3375   35.8525   46.3591 H   0  0  0  0  0  0  0  0  0  0  0  0
   59.1590   33.8490   47.1660 C   0  0  0  0  0  0  0  0  0  0  0  0
   59.5351   34.1351   48.1593 H   0  0  0  0  0  0  0  0  0  0  0  0
   58.7920   32.5240   46.9140 C   0  0  0  0  0  0  0  0  0  0  0  0
   58.8785   31.7732   47.7132 H   0  0  0  0  0  0  0  0  0  0  0  0
   57.2270   30.2440   44.2760 C   0  0  0  0  0  0  0  0  0  0  0  0
   56.8824   30.8871   43.4528 H   0  0  0  0  0  0  0  0  0  0  0  0
   57.0080   28.8610   44.3100 C   0  0  0  0  0  0  0  0  0  0  0  0
   56.4737   28.3142   43.5191 H   0  0  0  0  0  0  0  0  0  0  0  0
  1  2  1  0
  2  3  1  0
  3  4  2  0
  4  5  1  0
  4  6  1  0
  6  7  1  0
  7  8  1  0
  8  9  1  0
  9 10  2  0
 10 11  1  0
 10 12  1  0
 12 13  1  0
 12 14  2  0
 14 15  1  0
 14 16  1  0
 16 17  1  0
 16 18  2  0
 18 19  1  0
  8 20  2  0
 20 21  1  0
 20 22  1  0
 22 23  1  0
 22  6  2  0
 18  9  1  0
M  END
>  <UniqueID>  (34) 
28

>  <SMILES>  (34) 
O/N=C/c1ccc(-c2ccccc2)s1

>  <Energy>  (34) 
50.57163889373373

>  <Genealogy>  (34) 
O/N=C/c1ccc(-c2ccccc2)s1 (cis-trans isomerization)
O/N=C/c1ccc(-c2ccccc2)s1 (3D coordinates assigned)
O/N=C/c1ccc(-c2ccccc2)s1 (optimized conformer: 50.57163889373373 kcal/mol)

>  <smiles>  (34) 
ON=Cc1ccc(-c2ccccc2)s1

>  <score_type>  (34) 
oracle

>  <origin>  (34) 
adg

>  <m_score__min__energy>  (34) 
-7.54

>  <m_primary>  (34) 
energy

$$$$
34:0
     RDKit          3D

 65 71  0  0  0  0  0  0  0  0999 V2000
   63.3250   33.4730   47.0640 C   0  0  0  0  0  0  0  0  0  0  0  0
   63.0680   32.9610   48.4230 N   0  0  2  0  0  0  0  0  0  0  0  0
   63.6390   31.5920   48.5520 C   0  0  0  0  0  0  0  0  0  0  0  0
   63.2970   30.9300   49.9020 C   0  0  0  0  0  0  0  0  0  0  0  0
   61.8750   31.1300   50.1770 N   0  0  0  0  0  0  0  0  0  0  0  0
   61.0840   30.3470   49.2640 C   0  0  0  0  0  0  0  0  0  0  0  0
   60.9300   29.1130   49.4660 O   0  0  0  0  0  0  0  0  0  0  0  0
   60.5670   31.0050   48.0220 C   0  0  0  0  0  0  0  0  0  0  0  0
   59.9450   30.1690   46.9600 C   0  0  0  0  0  0  0  0  0  0  0  0
   58.5770   29.8490   47.0010 C   0  0  0  0  0  0  0  0  0  0  0  0
   58.0050   29.0700   45.9900 C   0  0  0  0  0  0  0  0  0  0  0  0
   58.7910   28.6060   44.9330 C   0  0  0  0  0  0  0  0  0  0  0  0
   60.1520   28.9180   44.8840 C   0  0  0  0  0  0  0  0  0  0  0  0
   60.7290   29.6960   45.8920 C   0  0  0  0  0  0  0  0  0  0  0  0
   60.6640   32.3680   47.9120 C   0  0  0  0  0  0  0  0  0  0  0  0
   59.7160   33.1580   47.0400 C   0  0  0  0  0  0  0  0  0  0  0  0
   60.2040   33.9500   45.9730 C   0  0  0  0  0  0  0  0  0  0  0  0
   59.3320   34.6670   45.1500 C   0  0  0  0  0  0  0  0  0  0  0  0
   57.9560   34.5890   45.3510 C   0  0  0  0  0  0  0  0  0  0  0  0
   57.4490   33.7760   46.3630 C   0  0  0  0  0  0  0  0  0  0  0  0
   58.3180   33.0580   47.1890 C   0  0  0  0  0  0  0  0  0  0  0  0
   61.6290   33.1180   48.8620 C   0  0  1  0  0  0  0  0  0  0  0  0
   61.4430   32.5350   50.3010 C   0  0  2  0  0  0  0  0  0  0  0  0
   62.1550   33.3330   51.4410 C   0  0  0  0  0  0  0  0  0  0  0  0
   63.5430   33.8310   51.5130 C   0  0  0  0  0  0  0  0  0  0  0  0
   64.6160   32.9260   51.5710 C   0  0  0  0  0  0  0  0  0  0  0  0
   65.9190   33.3890   51.7720 C   0  0  0  0  0  0  0  0  0  0  0  0
   66.1560   34.7510   51.9730 C   0  0  0  0  0  0  0  0  0  0  0  0
   65.0840   35.6480   51.9990 C   0  0  0  0  0  0  0  0  0  0  0  0
   63.7800   35.1870   51.7990 C   0  0  0  0  0  0  0  0  0  0  0  0
   61.3520   33.7360   52.3730 N   0  0  0  0  0  0  0  0  0  0  0  0
   60.0540   33.3150   52.0520 C   0  0  0  0  0  0  0  0  0  0  0  0
   58.9240   33.5580   52.8300 C   0  0  0  0  0  0  0  0  0  0  0  0
   57.6930   33.0650   52.3880 C   0  0  0  0  0  0  0  0  0  0  0  0
   57.6200   32.3350   51.1920 C   0  0  0  0  0  0  0  0  0  0  0  0
   58.7760   32.1040   50.4310 C   0  0  0  0  0  0  0  0  0  0  0  0
   60.0110   32.6310   50.8630 C   0  0  0  0  0  0  0  0  0  0  0  0
   63.8176   34.4544   47.1290 H   0  0  0  0  0  0  0  0  0  0  0  0
   63.9772   32.7703   46.5247 H   0  0  0  0  0  0  0  0  0  0  0  0
   62.3718   33.5762   46.5247 H   0  0  0  0  0  0  0  0  0  0  0  0
   63.6580   33.5660   49.0230 H   0  0  0  0  0  0  0  0  0  0  0  0
   63.2384   30.9657   47.7413 H   0  0  0  0  0  0  0  0  0  0  0  0
   64.7338   31.6815   48.4934 H   0  0  0  0  0  0  0  0  0  0  0  0
   63.5162   29.8532   49.8520 H   0  0  0  0  0  0  0  0  0  0  0  0
   63.9002   31.3814   50.7035 H   0  0  0  0  0  0  0  0  0  0  0  0
   57.9539   30.2126   47.8314 H   0  0  0  0  0  0  0  0  0  0  0  0
   56.9339   28.8223   46.0275 H   0  0  0  0  0  0  0  0  0  0  0  0
   58.3383   27.9945   44.1385 H   0  0  0  0  0  0  0  0  0  0  0  0
   60.7702   28.5511   44.0514 H   0  0  0  0  0  0  0  0  0  0  0  0
   61.8009   29.9394   45.8499 H   0  0  0  0  0  0  0  0  0  0  0  0
   61.2873   34.0017   45.7889 H   0  0  0  0  0  0  0  0  0  0  0  0
   59.7333   35.2950   44.3409 H   0  0  0  0  0  0  0  0  0  0  0  0
   57.2716   35.1673   44.7129 H   0  0  0  0  0  0  0  0  0  0  0  0
   56.3618   33.6992   46.5120 H   0  0  0  0  0  0  0  0  0  0  0  0
   57.9035   32.4030   47.9695 H   0  0  0  0  0  0  0  0  0  0  0  0
   61.3953   34.1927   48.8438 H   0  0  0  0  0  0  0  0  0  0  0  0
   64.4295   31.8479   51.4577 H   0  0  0  0  0  0  0  0  0  0  0  0
   66.7597   32.6797   51.7720 H   0  0  0  0  0  0  0  0  0  0  0  0
   67.1842   35.1170   52.1106 H   0  0  0  0  0  0  0  0  0  0  0  0
   65.2672   36.7179   52.1771 H   0  0  0  0  0  0  0  0  0  0  0  0
   62.9351   35.8883   51.8656 H   0  0  0  0  0  0  0  0  0  0  0  0
   58.9989   34.1245   53.7699 H   0  0  0  0  0  0  0  0  0  0  0  0
   56.7825   33.2491   52.9771 H   0  0  0  0  0  0  0  0  0  0  0  0
   56.6516   31.9418   50.8492 H   0  0  0  0  0  0  0  0  0  0  0  0
   58.7195   31.5156   49.5033 H   0  0  0  0  0  0  0  0  0  0  0  0
  1  2  1  0
  2  3  1  0
  3  4  1  0
  4  5  1  0
  5  6  1  0
  6  7  2  0
  6  8  1  0
  8  9  1  0
  9 10  2  0
 10 11  1  0
 11 12  2  0
 12 13  1  0
 13 14  2  0
  8 15  2  0
 15 16  1  0
 16 17  2  0
 17 18  1  0
 18 19  2  0
 19 20  1  0
 20 21  2  0
 15 22  1  0
 22 23  1  0
 23 24  1  1
 24 25  1  0
 25 26  2  0
 26 27  1  0
 27 28  2  0
 28 29  1  0
 29 30  2  0
 24 31  2  0
 31 32  1  0
 32 33  2  0
 33 34  1  0
 34 35  2  0
 35 36  1  0
 36 37  2  0
 22  2  1  0
 37 23  1  0
 23  5  1  0
 30 25  1  0
 37 32  1  0
 14  9  1  0
 21 16  1  0
  1 38  1  0
  1 39  1  0
  1 40  1  0
  2 41  1  1
  3 42  1  0
  3 43  1  0
  4 44  1  0
  4 45  1  0
 10 46  1  0
 11 47  1  0
 12 48  1  0
 13 49  1  0
 14 50  1  0
 17 51  1  0
 18 52  1  0
 19 53  1  0
 20 54  1  0
 21 55  1  0
 22 56  1  1
 26 57  1  0
 27 58  1  0
 28 59  1  0
 29 60  1  0
 30 61  1  0
 33 62  1  0
 34 63  1  0
 35 64  1  0
 36 65  1  0
M  CHG  1   2   1
M  END
>  <UniqueID>  (35) 
29

>  <SMILES>  (35) 
C[N@@H+]1CCN2C(=O)C(c3ccccc3)=C(c3ccccc3)[C@H]1C21C(c2ccccc2)=Nc2ccccc21

>  <Energy>  (35) 
162.4448123579754

>  <Genealogy>  (35) 
C[NH+]1CCN2C(=O)C(c3ccccc3)=C(c3ccccc3)C1C21C(c2ccccc2)=Nc2ccccc21 (protonated)
C[N@@H+]1CCN2C(=O)C(c3ccccc3)=C(c3ccccc3)[C@H]1C21C(c2ccccc2)=Nc2ccccc21 (chirality)
C[N@@H+]1CCN2C(=O)C(c3ccccc3)=C(c3ccccc3)[C@H]1C21C(c2ccccc2)=Nc2ccccc21 (3D coordinates assigned)
C[N@@H+]1CCN2C(=O)C(c3ccccc3)=C(c3ccccc3)[C@H]1C21C(c2ccccc2)=Nc2ccccc21 (nonaromatic ring conformer: 162.4448123579754 kcal/mol)

>  <smiles>  (35) 
CN1CCN2C(=O)C(c3ccccc3)=C(c3ccccc3)C1C21C(c2ccccc2)=Nc2ccccc21

>  <score_type>  (35) 
oracle

>  <origin>  (35) 
adg

>  <m_score__min__energy>  (35) 
-7.9900000000000002

>  <m_primary>  (35) 
energy

$$$$
35:0
     RDKit          3D

 36 38  0  0  0  0  0  0  0  0999 V2000
   55.6390   30.2450   44.5000 O   0  0  0  0  0  0  0  0  0  0  0  0
   57.1160   30.4920   44.6260 S   0  0  0  0  0  0  0  0  0  0  0  0
   57.6320   31.0610   43.3340 O   0  0  0  0  0  0  0  0  0  0  0  0
   57.3960   31.6270   45.9050 N   0  0  0  0  0  0  0  0  0  0  0  0
   58.2600   32.7710   45.8310 C   0  0  0  0  0  0  0  0  0  0  0  0
   57.9780   33.8530   44.9750 C   0  0  0  0  0  0  0  0  0  0  0  0
   58.8170   34.9690   44.9460 C   0  0  0  0  0  0  0  0  0  0  0  0
   59.9430   35.0200   45.7690 C   0  0  0  0  0  0  0  0  0  0  0  0
   60.2360   33.9530   46.6190 C   0  0  0  0  0  0  0  0  0  0  0  0
   59.4050   32.8230   46.6520 C   0  0  0  0  0  0  0  0  0  0  0  0
   59.7420   31.7320   47.5240 N   0  0  0  0  0  0  0  0  0  0  0  0
   60.9720   30.9700   47.3020 C   0  0  0  0  0  0  0  0  0  0  0  0
   60.7440   29.5100   47.7070 C   0  0  0  0  0  0  0  0  0  0  0  0
   60.2180   29.4280   49.0210 O   0  0  0  0  0  0  0  0  0  0  0  0
   58.9300   30.0170   49.0630 C   0  0  0  0  0  0  0  0  0  0  0  0
   59.0100   31.5190   48.7750 C   0  0  0  0  0  0  0  0  0  0  0  0
   57.9180   28.9770   44.9900 C   0  0  0  0  0  0  0  0  0  0  0  0
   59.2710   28.7180   44.8350 C   0  0  0  0  0  0  0  0  0  0  0  0
   59.6260   27.4230   45.2340 C   0  0  0  0  0  0  0  0  0  0  0  0
   58.5560   26.6710   45.7040 C   0  0  0  0  0  0  0  0  0  0  0  0
   57.1640   27.6160   45.6230 S   0  0  0  0  0  0  0  0  0  0  0  0
   57.0912   33.8189   44.3250 H   0  0  0  0  0  0  0  0  0  0  0  0
   58.5900   35.8093   44.2734 H   0  0  0  0  0  0  0  0  0  0  0  0
   60.6000   35.9020   45.7475 H   0  0  0  0  0  0  0  0  0  0  0  0
   61.1237   33.9980   47.2670 H   0  0  0  0  0  0  0  0  0  0  0  0
   61.2465   31.0174   46.2379 H   0  0  0  0  0  0  0  0  0  0  0  0
   61.7845   31.3976   47.9078 H   0  0  0  0  0  0  0  0  0  0  0  0
   60.0344   29.0477   47.0051 H   0  0  0  0  0  0  0  0  0  0  0  0
   61.7086   28.9820   47.6799 H   0  0  0  0  0  0  0  0  0  0  0  0
   58.2896   29.5384   48.3074 H   0  0  0  0  0  0  0  0  0  0  0  0
   58.5085   29.8725   50.0687 H   0  0  0  0  0  0  0  0  0  0  0  0
   57.9940   31.9301   48.6812 H   0  0  0  0  0  0  0  0  0  0  0  0
   59.5327   32.0258   49.5996 H   0  0  0  0  0  0  0  0  0  0  0  0
   59.9896   29.4515   44.4406 H   0  0  0  0  0  0  0  0  0  0  0  0
   60.6549   27.0376   45.1804 H   0  0  0  0  0  0  0  0  0  0  0  0
   58.6091   25.6341   46.0674 H   0  0  0  0  0  0  0  0  0  0  0  0
  1  2  2  0
  2  3  2  0
  2  4  1  0
  4  5  1  0
  5  6  2  0
  6  7  1  0
  7  8  2  0
  8  9  1  0
  9 10  2  0
 10 11  1  0
 11 12  1  0
 12 13  1  0
 13 14  1  0
 14 15  1  0
 15 16  1  0
  2 17  1  0
 17 18  2  0
 18 19  1  0
 19 20  2  0
 20 21  1  0
 10  5  1  0
 16 11  1  0
 21 17  1  0
  6 22  1  0
  7 23  1  0
  8 24  1  0
  9 25  1  0
 12 26  1  0
 12 27  1  0
 13 28  1  0
 13 29  1  0
 15 30  1  0
 15 31  1  0
 16 32  1  0
 16 33  1  0
 18 34  1  0
 19 35  1  0
 20 36  1  0
M  CHG  1   4  -1
M  END
>  <UniqueID>  (36) 
30

>  <SMILES>  (36) 
O=S(=O)([N-]c1ccccc1N1CCOCC1)c1cccs1

>  <Energy>  (36) 
72.79640105994531

>  <Genealogy>  (36) 
O=S(=O)([N-]c1ccccc1N1CCOCC1)c1cccs1 (protonated)
O=S(=O)([N-]c1ccccc1N1CCOCC1)c1cccs1 (3D coordinates assigned)
O=S(=O)([N-]c1ccccc1N1CCOCC1)c1cccs1 (nonaromatic ring conformer: 72.79640105994531 kcal/mol)

>  <smiles>  (36) 
O=S(=O)(Nc1ccccc1N1CCOCC1)c1cccs1

>  <score_type>  (36) 
oracle

>  <origin>  (36) 
adg

>  <m_score__min__energy>  (36) 
-8.7699999999999996

>  <m_primary>  (36) 
energy

$$$$
36:0
     RDKit          3D

 40 42  0  0  0  0  0  0  0  0999 V2000
   54.1119   24.3249   46.7368 H   0  0  0  0  0  0  0  0  0  0  0  0
   55.1300   23.9140   46.6690 C   0  0  0  0  0  0  0  0  0  0  0  0
   55.3280   22.6070   46.8640 C   0  0  0  0  0  0  0  0  0  0  0  0
   54.4822   21.9802   47.1830 H   0  0  0  0  0  0  0  0  0  0  0  0
   56.6860   21.9630   46.6580 C   0  0  0  0  0  0  0  0  0  0  0  0
   56.9350   20.9340   47.7660 C   0  0  0  0  0  0  0  0  0  0  0  0
   56.8182   21.4166   48.7476 H   0  0  0  0  0  0  0  0  0  0  0  0
   56.2098   20.1122   47.6729 H   0  0  0  0  0  0  0  0  0  0  0  0
   57.9557   20.5346   47.6729 H   0  0  0  0  0  0  0  0  0  0  0  0
   56.7080   21.2720   45.2880 C   0  0  0  0  0  0  0  0  0  0  0  0
   56.7427   20.1815   45.4279 H   0  0  0  0  0  0  0  0  0  0  0  0
   55.8008   21.5410   44.7270 H   0  0  0  0  0  0  0  0  0  0  0  0
   57.5962   21.5982   44.7270 H   0  0  0  0  0  0  0  0  0  0  0  0
   57.7460   22.9320   46.6980 O   0  0  0  0  0  0  0  0  0  0  0  0
   57.5560   24.2850   46.4020 C   0  0  0  0  0  0  0  0  0  0  0  0
   58.6570   25.1090   46.1640 C   0  0  0  0  0  0  0  0  0  0  0  0
   59.6741   24.6917   46.2009 H   0  0  0  0  0  0  0  0  0  0  0  0
   58.4680   26.4630   45.8790 C   0  0  0  0  0  0  0  0  0  0  0  0
   59.3383   27.1046   45.6764 H   0  0  0  0  0  0  0  0  0  0  0  0
   57.1760   27.0120   45.8490 C   0  0  0  0  0  0  0  0  0  0  0  0
   57.0110   28.4530   45.5440 C   0  0  0  0  0  0  0  0  0  0  0  0
   55.9510   28.8340   44.9800 O   0  0  0  0  0  0  0  0  0  0  0  0
   58.0380   29.4660   45.8640 C   0  0  0  0  0  0  0  0  0  0  0  0
   58.5582   29.4011   46.8311 H   0  0  0  0  0  0  0  0  0  0  0  0
   58.3630   30.4610   45.0260 C   0  0  0  0  0  0  0  0  0  0  0  0
   58.6188   30.2009   43.9883 H   0  0  0  0  0  0  0  0  0  0  0  0
   58.3980   31.8930   45.4160 C   0  0  0  0  0  0  0  0  0  0  0  0
   58.1030   32.9360   44.5140 C   0  0  0  0  0  0  0  0  0  0  0  0
   57.8264   32.6994   43.4760 H   0  0  0  0  0  0  0  0  0  0  0  0
   58.1600   34.2680   44.9310 C   0  0  0  0  0  0  0  0  0  0  0  0
   57.9215   35.0751   44.2227 H   0  0  0  0  0  0  0  0  0  0  0  0
   58.5190   34.5780   46.2450 C   0  0  0  0  0  0  0  0  0  0  0  0
   58.5589   35.6276   46.5716 H   0  0  0  0  0  0  0  0  0  0  0  0
   58.8270   33.5550   47.1430 C   0  0  0  0  0  0  0  0  0  0  0  0
   59.1135   33.7995   48.1765 H   0  0  0  0  0  0  0  0  0  0  0  0
   58.7720   32.2190   46.7310 C   0  0  0  0  0  0  0  0  0  0  0  0
   59.0233   31.4178   47.4416 H   0  0  0  0  0  0  0  0  0  0  0  0
   56.0630   26.1750   46.0750 C   0  0  0  0  0  0  0  0  0  0  0  0
   54.7720   26.6900   45.9960 O   0  0  0  0  0  0  0  0  0  0  0  0
   56.2590   24.8130   46.3640 C   0  0  0  0  0  0  0  0  0  0  0  0
  1  2  1  0
  2  3  2  0
  3  4  1  0
  3  5  1  0
  5  6  1  0
  6  7  1  0
  6  8  1  0
  6  9  1  0
  5 10  1  0
 10 11  1  0
 10 12  1  0
 10 13  1  0
  5 14  1  0
 14 15  1  0
 15 16  2  0
 16 17  1  0
 16 18  1  0
 18 19  1  0
 18 20  2  0
 20 21  1  0
 21 22  2  0
 21 23  1  0
 23 24  1  0
 23 25  2  0
 25 26  1  0
 25 27  1  0
 27 28  2  0
 28 29  1  0
 28 30  1  0
 30 31  1  0
 30 32  2  0
 32 33  1  0
 32 34  1  0
 34 35  1  0
 34 36  2  0
 36 37  1  0
 20 38  1  0
 38 39  1  0
 38 40  2  0
 40  2  1  0
 40 15  1  0
 36 27  1  0
M  CHG  1  39  -1
M  END
>  <UniqueID>  (37) 
31

>  <SMILES>  (37) 
CC1(C)C=Cc2c(ccc(C(=O)/C=C/c3ccccc3)c2[O-])O1

>  <Energy>  (37) 
49.837027748892574

>  <Genealogy>  (37) 
CC1(C)C=Cc2c(ccc(C(=O)C=Cc3ccccc3)c2[O-])O1 (protonated)
CC1(C)C=Cc2c(ccc(C(=O)/C=C/c3ccccc3)c2[O-])O1 (cis-trans isomerization)
CC1(C)C=Cc2c(ccc(C(=O)/C=C/c3ccccc3)c2[O-])O1 (3D coordinates assigned)
CC1(C)C=Cc2c(ccc(C(=O)/C=C/c3ccccc3)c2[O-])O1 (nonaromatic ring conformer: 49.837027748892574 kcal/mol)

>  <smiles>  (37) 
CC1(C)C=Cc2c(ccc(C(=O)C=Cc3ccccc3)c2O)O1

>  <score_type>  (37) 
oracle

>  <origin>  (37) 
adg

>  <m_score__min__energy>  (37) 
-12.15

>  <m_primary>  (37) 
energy

$$$$
37:0
     RDKit          3D

 44 47  0  0  0  0  0  0  0  0999 V2000
   62.8340   33.8650   49.3390 C   0  0  0  0  0  0  0  0  0  0  0  0
   61.4270   33.6800   49.4720 O   0  0  0  0  0  0  0  0  0  0  0  0
   60.5380   33.5480   48.3980 C   0  0  0  0  0  0  0  0  0  0  0  0
   60.9660   33.9410   47.1250 C   0  0  0  0  0  0  0  0  0  0  0  0
   60.1100   33.8330   46.0220 C   0  0  0  0  0  0  0  0  0  0  0  0
   58.8120   33.3340   46.1860 C   0  0  0  0  0  0  0  0  0  0  0  0
   57.7130   33.2100   44.8160 S   0  0  0  0  0  0  0  0  0  0  0  0
   56.7230   34.3420   44.8120 O   0  0  0  0  0  0  0  0  0  0  0  0
   58.5110   33.2750   43.5450 O   0  0  0  0  0  0  0  0  0  0  0  0
   56.8750   31.6940   44.8790 N   0  0  0  0  0  0  0  0  0  0  0  0
   57.4800   30.4160   45.1150 C   0  0  0  0  0  0  0  0  0  0  0  0
   58.8880   30.2330   45.0970 C   0  0  0  0  0  0  0  0  0  0  0  0
   59.4530   28.9690   45.3420 C   0  0  0  0  0  0  0  0  0  0  0  0
   58.5940   27.9090   45.6010 C   0  0  0  0  0  0  0  0  0  0  0  0
   57.2260   28.0730   45.6020 C   0  0  0  0  0  0  0  0  0  0  0  0
   56.6380   29.3150   45.3680 C   0  0  0  0  0  0  0  0  0  0  0  0
   56.6220   26.7720   45.8660 C   0  0  0  0  0  0  0  0  0  0  0  0
   55.3890   26.5510   45.9960 O   0  0  0  0  0  0  0  0  0  0  0  0
   57.6440   25.7840   46.0380 N   0  0  0  0  0  0  0  0  0  0  0  0
   57.4770   24.3740   46.2640 C   0  0  0  0  0  0  0  0  0  0  0  0
   56.7260   23.9130   47.3600 C   0  0  0  0  0  0  0  0  0  0  0  0
   56.5520   22.5400   47.5710 C   0  0  0  0  0  0  0  0  0  0  0  0
   57.1270   21.6190   46.6930 C   0  0  0  0  0  0  0  0  0  0  0  0
   57.8780   22.0690   45.6020 C   0  0  0  0  0  0  0  0  0  0  0  0
   58.0530   23.4410   45.3840 C   0  0  0  0  0  0  0  0  0  0  0  0
   58.8720   26.5010   45.8670 C   0  0  0  0  0  0  0  0  0  0  0  0
   60.0140   25.9710   45.8770 O   0  0  0  0  0  0  0  0  0  0  0  0
   58.3780   32.9370   47.4580 C   0  0  0  0  0  0  0  0  0  0  0  0
   59.2330   33.0400   48.5580 C   0  0  0  0  0  0  0  0  0  0  0  0
   63.2919   33.9252   50.3374 H   0  0  0  0  0  0  0  0  0  0  0  0
   63.2651   33.0158   48.7885 H   0  0  0  0  0  0  0  0  0  0  0  0
   63.0309   34.7968   48.7885 H   0  0  0  0  0  0  0  0  0  0  0  0
   61.9829   34.3379   46.9897 H   0  0  0  0  0  0  0  0  0  0  0  0
   60.4579   34.1407   45.0249 H   0  0  0  0  0  0  0  0  0  0  0  0
   59.5447   31.0906   44.8888 H   0  0  0  0  0  0  0  0  0  0  0  0
   60.5433   28.8240   45.3289 H   0  0  0  0  0  0  0  0  0  0  0  0
   55.5444   29.4325   45.3805 H   0  0  0  0  0  0  0  0  0  0  0  0
   56.2729   24.6351   48.0552 H   0  0  0  0  0  0  0  0  0  0  0  0
   55.9618   22.1864   48.4292 H   0  0  0  0  0  0  0  0  0  0  0  0
   56.9895   20.5403   46.8591 H   0  0  0  0  0  0  0  0  0  0  0  0
   58.3328   21.3423   44.9128 H   0  0  0  0  0  0  0  0  0  0  0  0
   58.6421   23.7894   44.5229 H   0  0  0  0  0  0  0  0  0  0  0  0
   57.3598   32.5426   47.5909 H   0  0  0  0  0  0  0  0  0  0  0  0
   58.8864   32.7234   49.5528 H   0  0  0  0  0  0  0  0  0  0  0  0
  1  2  1  0
  2  3  1  0
  3  4  2  0
  4  5  1  0
  5  6  2  0
  6  7  1  0
  7  8  2  0
  7  9  2  0
  7 10  1  0
 10 11  1  0
 11 12  2  0
 12 13  1  0
 13 14  2  0
 14 15  1  0
 15 16  2  0
 15 17  1  0
 17 18  2  0
 17 19  1  0
 19 20  1  0
 20 21  2  0
 21 22  1  0
 22 23  2  0
 23 24  1  0
 24 25  2  0
 19 26  1  0
 26 27  2  0
  6 28  1  0
 28 29  2  0
 29  3  1  0
 16 11  1  0
 25 20  1  0
 26 14  1  0
  1 30  1  0
  1 31  1  0
  1 32  1  0
  4 33  1  0
  5 34  1  0
 12 35  1  0
 13 36  1  0
 16 37  1  0
 21 38  1  0
 22 39  1  0
 23 40  1  0
 24 41  1  0
 25 42  1  0
 28 43  1  0
 29 44  1  0
M  CHG  1  10  -1
M  END
>  <UniqueID>  (38) 
32

>  <SMILES>  (38) 
COc1ccc(S(=O)(=O)[N-]c2ccc3c(c2)C(=O)N(c2ccccc2)C3=O)cc1

>  <Energy>  (38) 
88.72534877965802

>  <Genealogy>  (38) 
COc1ccc(S(=O)(=O)[N-]c2ccc3c(c2)C(=O)N(c2ccccc2)C3=O)cc1 (protonated)
COc1ccc(S(=O)(=O)[N-]c2ccc3c(c2)C(=O)N(c2ccccc2)C3=O)cc1 (3D coordinates assigned)
COc1ccc(S(=O)(=O)[N-]c2ccc3c(c2)C(=O)N(c2ccccc2)C3=O)cc1 (nonaromatic ring conformer: 88.72534877965802 kcal/mol)

>  <smiles>  (38) 
COc1ccc(S(=O)(=O)Nc2ccc3c(c2)C(=O)N(c2ccccc2)C3=O)cc1

>  <score_type>  (38) 
oracle

>  <origin>  (38) 
adg

>  <m_score__min__energy>  (38) 
-10.01

>  <m_primary>  (38) 
energy

$$$$
38:0
     RDKit          3D

 56 59  0  0  0  0  0  0  0  0999 V2000
   64.7860   32.8280   49.5810 C   0  0  0  0  0  0  0  0  0  0  0  0
   63.9190   31.7040   49.6940 O   0  0  0  0  0  0  0  0  0  0  0  0
   62.8180   31.4670   48.8580 C   0  0  0  0  0  0  0  0  0  0  0  0
   61.8420   30.4940   49.1510 C   0  0  0  0  0  0  0  0  0  0  0  0
   60.7610   30.2960   48.2850 C   0  0  0  0  0  0  0  0  0  0  0  0
   60.6440   31.0620   47.1190 C   0  0  0  0  0  0  0  0  0  0  0  0
   59.4930   30.8680   46.2200 C   0  0  0  0  0  0  0  0  0  0  0  0
   58.3470   31.6610   46.1790 C   0  0  0  0  0  0  0  0  0  0  0  0
   58.0430   32.8510   47.0070 C   0  0  0  0  0  0  0  0  0  0  0  0
   57.2850   33.7440   46.5430 O   0  0  0  0  0  0  0  0  0  0  0  0
   58.6070   33.0250   48.3650 C   0  0  0  0  0  0  0  0  0  0  0  0
   59.5770   34.0150   48.6030 C   0  0  0  0  0  0  0  0  0  0  0  0
   60.1010   34.1980   49.8860 C   0  0  0  0  0  0  0  0  0  0  0  0
   59.6540   33.4040   50.9470 C   0  0  0  0  0  0  0  0  0  0  0  0
   60.3110   33.6370   52.5560 Cl  0  0  0  0  0  0  0  0  0  0  0  0
   58.6780   32.4290   50.7240 C   0  0  0  0  0  0  0  0  0  0  0  0
   58.1510   32.2420   49.4430 C   0  0  0  0  0  0  0  0  0  0  0  0
   57.5320   31.0860   45.2180 C   0  0  0  0  0  0  0  0  0  0  0  0
   56.2550   31.4980   44.8560 O   0  0  0  0  0  0  0  0  0  0  0  0
   58.2040   30.0000   44.7080 C   0  0  0  0  0  0  0  0  0  0  0  0
   57.7210   29.1340   43.7280 O   0  0  0  0  0  0  0  0  0  0  0  0
   59.4040   29.8700   45.3060 N   0  0  0  0  0  0  0  0  0  0  0  0
   60.3670   28.7870   45.0790 C   0  0  0  0  0  0  0  0  0  0  0  0
   59.6590   27.4440   44.8810 C   0  0  0  0  0  0  0  0  0  0  0  0
   59.7790   26.6140   46.1050 N   0  0  0  0  0  0  0  0  0  0  0  0
   58.8410   25.4680   46.1120 C   0  0  0  0  0  0  0  0  0  0  0  0
   57.4660   25.8390   46.7060 C   0  0  0  0  0  0  0  0  0  0  0  0
   57.2620   27.2350   46.6750 O   0  0  0  0  0  0  0  0  0  0  0  0
   58.1740   27.8750   47.5510 C   0  0  0  0  0  0  0  0  0  0  0  0
   59.6340   27.4070   47.3410 C   0  0  0  0  0  0  0  0  0  0  0  0
   61.6120   32.0330   46.8270 C   0  0  0  0  0  0  0  0  0  0  0  0
   62.6910   32.2310   47.6920 C   0  0  0  0  0  0  0  0  0  0  0  0
   65.0595   33.1826   50.5857 H   0  0  0  0  0  0  0  0  0  0  0  0
   65.6953   32.5363   49.0350 H   0  0  0  0  0  0  0  0  0  0  0  0
   64.2730   33.6334   49.0350 H   0  0  0  0  0  0  0  0  0  0  0  0
   61.9302   29.8875   50.0644 H   0  0  0  0  0  0  0  0  0  0  0  0
   60.0011   29.5365   48.5209 H   0  0  0  0  0  0  0  0  0  0  0  0
   59.9255   34.6492   47.7746 H   0  0  0  0  0  0  0  0  0  0  0  0
   60.8666   34.9682   50.0615 H   0  0  0  0  0  0  0  0  0  0  0  0
   58.3235   31.8069   51.5590 H   0  0  0  0  0  0  0  0  0  0  0  0
   57.3761   31.4793   49.2761 H   0  0  0  0  0  0  0  0  0  0  0  0
   57.9050   29.3030   42.7460 H   0  0  0  0  0  0  0  0  0  0  0  0
   60.9583   29.0161   44.1801 H   0  0  0  0  0  0  0  0  0  0  0  0
   61.0165   28.7095   45.9634 H   0  0  0  0  0  0  0  0  0  0  0  0
   58.5950   27.6227   44.6665 H   0  0  0  0  0  0  0  0  0  0  0  0
   60.1285   26.9122   44.0403 H   0  0  0  0  0  0  0  0  0  0  0  0
   58.6976   25.1221   45.0777 H   0  0  0  0  0  0  0  0  0  0  0  0
   59.2780   24.6798   46.7428 H   0  0  0  0  0  0  0  0  0  0  0  0
   56.6761   25.3469   46.1196 H   0  0  0  0  0  0  0  0  0  0  0  0
   57.4343   25.5033   47.7530 H   0  0  0  0  0  0  0  0  0  0  0  0
   58.1243   28.9603   47.3788 H   0  0  0  0  0  0  0  0  0  0  0  0
   57.8860   27.6121   48.5796 H   0  0  0  0  0  0  0  0  0  0  0  0
   60.2861   28.2905   47.2766 H   0  0  0  0  0  0  0  0  0  0  0  0
   59.9166   26.7707   48.1926 H   0  0  0  0  0  0  0  0  0  0  0  0
   61.5218   32.6406   45.9145 H   0  0  0  0  0  0  0  0  0  0  0  0
   63.4472   32.9938   47.4548 H   0  0  0  0  0  0  0  0  0  0  0  0
  1  2  1  0
  2  3  1  0
  3  4  2  0
  4  5  1  0
  5  6  2  0
  6  7  1  0
  7  8  2  0
  8  9  1  0
  9 10  2  0
  9 11  1  0
 11 12  2  0
 12 13  1  0
 13 14  2  0
 14 15  1  0
 14 16  1  0
 16 17  2  0
  8 18  1  0
 18 19  1  0
 18 20  2  0
 20 21  1  0
 20 22  1  0
 22 23  1  0
 23 24  1  0
 24 25  1  0
 25 26  1  0
 26 27  1  0
 27 28  1  0
 28 29  1  0
 29 30  1  0
  6 31  1  0
 31 32  2  0
 32  3  1  0
 22  7  1  0
 30 25  1  0
 17 11  1  0
  1 33  1  0
  1 34  1  0
  1 35  1  0
  4 36  1  0
  5 37  1  0
 12 38  1  0
 13 39  1  0
 16 40  1  0
 17 41  1  0
 21 42  1  0
 23 43  1  0
 23 44  1  0
 24 45  1  0
 24 46  1  0
 26 47  1  0
 26 48  1  0
 27 49  1  0
 27 50  1  0
 29 51  1  0
 29 52  1  0
 30 53  1  0
 30 54  1  0
 31 55  1  0
 32 56  1  0
M  CHG  1  19  -1
M  END
>  <UniqueID>  (39) 
33

>  <SMILES>  (39) 
COc1ccc(-c2c(C(=O)c3ccc(Cl)cc3)c([O-])c(O)n2CCN2CCOCC2)cc1

>  <Energy>  (39) 
108.56788305864995

>  <Genealogy>  (39) 
COc1ccc(-c2c(C(=O)c3ccc(Cl)cc3)c([O-])c(O)n2CCN2CCOCC2)cc1 (protonated)
COc1ccc(-c2c(C(=O)c3ccc(Cl)cc3)c([O-])c(O)n2CCN2CCOCC2)cc1 (3D coordinates assigned)
COc1ccc(-c2c(C(=O)c3ccc(Cl)cc3)c([O-])c(O)n2CCN2CCOCC2)cc1 (nonaromatic ring conformer: 108.56788305864995 kcal/mol)

>  <smiles>  (39) 
COc1ccc(-c2c(C(=O)c3ccc(Cl)cc3)c(O)c(O)n2CCN2CCOCC2)cc1

>  <score_type>  (39) 
oracle

>  <origin>  (39) 
adg

>  <m_score__min__energy>  (39) 
-9.5899999999999999

>  <m_primary>  (39) 
energy

$$$$
39:0
     RDKit          3D

 37 38  0  0  0  0  0  0  0  0999 V2000
   55.5160   29.9010   43.7740 C   0  0  0  0  0  0  0  0  0  0  0  0
   55.5190   28.9780   44.8590 O   0  0  0  0  0  0  0  0  0  0  0  0
   56.6370   28.2490   45.2930 C   0  0  0  0  0  0  0  0  0  0  0  0
   57.9330   28.7930   45.1960 C   0  0  0  0  0  0  0  0  0  0  0  0
   59.0410   28.0760   45.6370 C   0  0  0  0  0  0  0  0  0  0  0  0
   58.8830   26.7970   46.1600 C   0  0  0  0  0  0  0  0  0  0  0  0
   57.6110   26.2120   46.2400 C   0  0  0  0  0  0  0  0  0  0  0  0
   57.5010   24.8290   46.7620 C   0  0  0  0  0  0  0  0  0  0  0  0
   56.7930   24.6130   47.7820 O   0  0  0  0  0  0  0  0  0  0  0  0
   58.1640   23.7200   46.1410 N   0  0  0  0  0  0  0  0  0  0  0  0
   57.6050   22.9220   45.1250 N   0  0  0  0  0  0  0  0  0  0  0  0
   57.2080   21.6320   45.2070 C   0  0  0  0  0  0  0  0  0  0  0  0
   57.2970   20.7560   46.4180 C   0  0  0  0  0  0  0  0  0  0  0  0
   56.6260   21.2500   44.0110 C   0  0  0  0  0  0  0  0  0  0  0  0
   56.6360   22.3630   43.1900 C   0  0  0  0  0  0  0  0  0  0  0  0
   57.2400   23.3760   43.9100 C   0  0  0  0  0  0  0  0  0  0  0  0
   57.3810   24.7940   43.4550 C   0  0  0  0  0  0  0  0  0  0  0  0
   56.4700   26.9470   45.8420 C   0  0  0  0  0  0  0  0  0  0  0  0
   55.2090   26.3520   46.0420 O   0  0  0  0  0  0  0  0  0  0  0  0
   54.7730   25.0920   45.5430 C   0  0  0  0  0  0  0  0  0  0  0  0
   55.5127   30.9285   44.1667 H   0  0  0  0  0  0  0  0  0  0  0  0
   56.4147   29.7465   43.1587 H   0  0  0  0  0  0  0  0  0  0  0  0
   54.6184   29.7407   43.1587 H   0  0  0  0  0  0  0  0  0  0  0  0
   58.0706   29.7963   44.7666 H   0  0  0  0  0  0  0  0  0  0  0  0
   60.0444   28.5219   45.5718 H   0  0  0  0  0  0  0  0  0  0  0  0
   59.7630   26.2398   46.5138 H   0  0  0  0  0  0  0  0  0  0  0  0
   57.2340   21.3760   47.3244 H   0  0  0  0  0  0  0  0  0  0  0  0
   56.4676   20.0334   46.4096 H   0  0  0  0  0  0  0  0  0  0  0  0
   58.2547   20.2150   46.4096 H   0  0  0  0  0  0  0  0  0  0  0  0
   56.2317   20.2539   43.7615 H   0  0  0  0  0  0  0  0  0  0  0  0
   56.2409   22.4288   42.1655 H   0  0  0  0  0  0  0  0  0  0  0  0
   57.4468   25.4555   44.3314 H   0  0  0  0  0  0  0  0  0  0  0  0
   58.2937   24.8958   42.8495 H   0  0  0  0  0  0  0  0  0  0  0  0
   56.5062   25.0735   42.8495 H   0  0  0  0  0  0  0  0  0  0  0  0
   54.5418   24.4239   46.3858 H   0  0  0  0  0  0  0  0  0  0  0  0
   53.8714   25.2329   44.9288 H   0  0  0  0  0  0  0  0  0  0  0  0
   55.5689   24.6455   44.9288 H   0  0  0  0  0  0  0  0  0  0  0  0
  1  2  1  0
  2  3  1  0
  3  4  2  0
  4  5  1  0
  5  6  2  0
  6  7  1  0
  7  8  1  0
  8  9  2  0
  8 10  1  0
 10 11  1  0
 11 12  1  0
 12 13  1  0
 12 14  2  0
 14 15  1  0
 15 16  2  0
 16 17  1  0
  7 18  2  0
 18 19  1  0
 19 20  1  0
 18  3  1  0
 16 11  1  0
  1 21  1  0
  1 22  1  0
  1 23  1  0
  4 24  1  0
  5 25  1  0
  6 26  1  0
 13 27  1  0
 13 28  1  0
 13 29  1  0
 14 30  1  0
 15 31  1  0
 17 32  1  0
 17 33  1  0
 17 34  1  0
 20 35  1  0
 20 36  1  0
 20 37  1  0
M  CHG  1  10  -1
M  END
>  <UniqueID>  (40) 
34

>  <SMILES>  (40) 
COc1cccc(C(=O)[N-]n2c(C)ccc2C)c1OC

>  <Energy>  (40) 
71.97250383769554

>  <Genealogy>  (40) 
COc1cccc(C(=O)[N-]n2c(C)ccc2C)c1OC (protonated)
COc1cccc(C(=O)[N-]n2c(C)ccc2C)c1OC (3D coordinates assigned)
COc1cccc(C(=O)[N-]n2c(C)ccc2C)c1OC (optimized conformer: 71.97250383769554 kcal/mol)

>  <smiles>  (40) 
COc1cccc(C(=O)Nn2c(C)ccc2C)c1OC

>  <score_type>  (40) 
oracle

>  <origin>  (40) 
adg

>  <m_score__min__energy>  (40) 
-8.7899999999999991

>  <m_primary>  (40) 
energy

$$$$
40:0
     RDKit          3D

 34 35  0  0  0  0  0  0  0  0999 V2000
   62.2780   33.8090   46.8010 C   0  0  0  0  0  0  0  0  0  0  0  0
   60.9970   34.4130   46.6560 O   0  0  0  0  0  0  0  0  0  0  0  0
   59.8570   33.7510   46.1750 C   0  0  0  0  0  0  0  0  0  0  0  0
   59.3150   34.0220   44.9050 C   0  0  0  0  0  0  0  0  0  0  0  0
   58.1790   33.3430   44.4610 C   0  0  0  0  0  0  0  0  0  0  0  0
   57.5640   32.3790   45.2760 C   0  0  0  0  0  0  0  0  0  0  0  0
   56.4010   31.6540   44.8560 N   0  0  0  0  0  0  0  0  0  0  0  0
   56.3870   29.9990   44.3360 S   0  0  0  0  0  0  0  0  0  0  0  0
   56.3600   29.9580   42.8340 O   0  0  0  0  0  0  0  0  0  0  0  0
   55.1530   29.3280   44.8680 O   0  0  0  0  0  0  0  0  0  0  0  0
   57.8040   29.1580   44.9540 C   0  0  0  0  0  0  0  0  0  0  0  0
   59.0880   29.5160   44.5180 C   0  0  0  0  0  0  0  0  0  0  0  0
   60.2110   28.8480   45.0190 C   0  0  0  0  0  0  0  0  0  0  0  0
   60.0560   27.8210   45.9540 C   0  0  0  0  0  0  0  0  0  0  0  0
   58.7780   27.4570   46.3880 C   0  0  0  0  0  0  0  0  0  0  0  0
   57.6530   28.1230   45.8890 C   0  0  0  0  0  0  0  0  0  0  0  0
   58.1000   32.1110   46.5410 C   0  0  0  0  0  0  0  0  0  0  0  0
   59.2450   32.7920   46.9970 C   0  0  0  0  0  0  0  0  0  0  0  0
   59.8060   32.5430   48.2610 O   0  0  0  0  0  0  0  0  0  0  0  0
   59.7690   33.4550   49.3540 C   0  0  0  0  0  0  0  0  0  0  0  0
   62.5124   33.6985   47.8700 H   0  0  0  0  0  0  0  0  0  0  0  0
   62.2727   32.8185   46.3225 H   0  0  0  0  0  0  0  0  0  0  0  0
   63.0387   34.4433   46.3225 H   0  0  0  0  0  0  0  0  0  0  0  0
   59.7897   34.7740   44.2577 H   0  0  0  0  0  0  0  0  0  0  0  0
   57.7632   33.5644   43.4670 H   0  0  0  0  0  0  0  0  0  0  0  0
   59.2125   30.3231   43.7811 H   0  0  0  0  0  0  0  0  0  0  0  0
   61.2171   29.1317   44.6764 H   0  0  0  0  0  0  0  0  0  0  0  0
   60.9401   27.2988   46.3486 H   0  0  0  0  0  0  0  0  0  0  0  0
   58.6566   26.6468   47.1220 H   0  0  0  0  0  0  0  0  0  0  0  0
   56.6480   27.8344   46.2306 H   0  0  0  0  0  0  0  0  0  0  0  0
   57.6212   31.3598   47.1863 H   0  0  0  0  0  0  0  0  0  0  0  0
   59.7917   32.8945   50.3002 H   0  0  0  0  0  0  0  0  0  0  0  0
   60.6407   34.1239   49.3031 H   0  0  0  0  0  0  0  0  0  0  0  0
   58.8459   34.0511   49.3031 H   0  0  0  0  0  0  0  0  0  0  0  0
  1  2  1  0
  2  3  1  0
  3  4  2  0
  4  5  1  0
  5  6  2  0
  6  7  1  0
  7  8  1  0
  8  9  2  0
  8 10  2  0
  8 11  1  0
 11 12  2  0
 12 13  1  0
 13 14  2  0
 14 15  1  0
 15 16  2  0
  6 17  1  0
 17 18  2  0
 18 19  1  0
 19 20  1  0
 18  3  1  0
 16 11  1  0
  1 21  1  0
  1 22  1  0
  1 23  1  0
  4 24  1  0
  5 25  1  0
 12 26  1  0
 13 27  1  0
 14 28  1  0
 15 29  1  0
 16 30  1  0
 17 31  1  0
 20 32  1  0
 20 33  1  0
 20 34  1  0
M  CHG  1   7  -1
M  END
>  <UniqueID>  (41) 
35

>  <SMILES>  (41) 
COc1ccc([N-]S(=O)(=O)c2ccccc2)cc1OC

>  <Energy>  (41) 
36.40660720230584

>  <Genealogy>  (41) 
COc1ccc([N-]S(=O)(=O)c2ccccc2)cc1OC (protonated)
COc1ccc([N-]S(=O)(=O)c2ccccc2)cc1OC (3D coordinates assigned)
COc1ccc([N-]S(=O)(=O)c2ccccc2)cc1OC (optimized conformer: 36.40660720230584 kcal/mol)

>  <smiles>  (41) 
COc1ccc(NS(=O)(=O)c2ccccc2)cc1OC

>  <score_type>  (41) 
oracle

>  <origin>  (41) 
adg

>  <m_score__min__energy>  (41) 
-8.5299999999999994

>  <m_primary>  (41) 
energy

$$$$
41:0
     RDKit          3D

 35 37  0  0  0  0  0  0  0  0999 V2000
   60.5970   27.8030   52.6120 C   0  0  0  0  0  0  0  0  0  0  0  0
   59.7750   28.1500   53.7210 O   0  0  0  0  0  0  0  0  0  0  0  0
   58.3980   27.8960   53.7970 C   0  0  0  0  0  0  0  0  0  0  0  0
   57.9770   26.6700   54.3170 C   0  0  0  0  0  0  0  0  0  0  0  0
   56.6170   26.3520   54.4070 C   0  0  0  0  0  0  0  0  0  0  0  0
   56.2730   25.0900   54.8970 O   0  0  0  0  0  0  0  0  0  0  0  0
   55.6430   27.2960   53.9930 C   0  0  0  0  0  0  0  0  0  0  0  0
   56.0720   28.5330   53.4780 C   0  0  0  0  0  0  0  0  0  0  0  0
   57.4350   28.8240   53.3680 C   0  0  0  0  0  0  0  0  0  0  0  0
   55.1460   29.4840   53.0550 O   0  0  0  0  0  0  0  0  0  0  0  0
   53.8020   29.5230   53.5260 C   0  0  1  0  0  0  0  0  0  0  0  0
   52.9510   30.2580   52.5180 C   0  0  0  0  0  0  0  0  0  0  0  0
   52.1830   31.3670   52.9130 C   0  0  0  0  0  0  0  0  0  0  0  0
   51.4080   32.0580   51.9760 C   0  0  0  0  0  0  0  0  0  0  0  0
   51.3960   31.6520   50.6390 C   0  0  0  0  0  0  0  0  0  0  0  0
   50.6250   32.3410   49.7100 O   0  0  0  0  0  0  0  0  0  0  0  0
   52.1630   30.5550   50.2350 C   0  0  0  0  0  0  0  0  0  0  0  0
   52.9390   29.8610   51.1680 C   0  0  0  0  0  0  0  0  0  0  0  0
   53.2600   28.1370   53.7850 C   0  0  0  0  0  0  0  0  0  0  0  0
   52.0530   27.9790   53.9030 O   0  0  0  0  0  0  0  0  0  0  0  0
   54.1690   26.9470   53.9990 C   0  0  1  0  0  0  0  0  0  0  0  0
   53.9290   25.9970   52.9950 O   0  0  0  0  0  0  0  0  0  0  0  0
   61.5532   27.3994   52.9764 H   0  0  0  0  0  0  0  0  0  0  0  0
   60.0872   27.0433   52.0013 H   0  0  0  0  0  0  0  0  0  0  0  0
   60.7858   28.6982   52.0013 H   0  0  0  0  0  0  0  0  0  0  0  0
   58.7266   25.9424   54.6615 H   0  0  0  0  0  0  0  0  0  0  0  0
   55.4380   24.5910   54.6190 H   0  0  0  0  0  0  0  0  0  0  0  0
   57.7554   29.7864   52.9425 H   0  0  0  0  0  0  0  0  0  0  0  0
   53.7775   30.0561   54.4879 H   0  0  0  0  0  0  0  0  0  0  0  0
   52.1916   31.6928   53.9636 H   0  0  0  0  0  0  0  0  0  0  0  0
   50.8066   32.9230   52.2923 H   0  0  0  0  0  0  0  0  0  0  0  0
   52.1558   30.2377   49.1818 H   0  0  0  0  0  0  0  0  0  0  0  0
   53.5432   29.0003   50.8453 H   0  0  0  0  0  0  0  0  0  0  0  0
   53.9355   26.5523   54.9989 H   0  0  0  0  0  0  0  0  0  0  0  0
   53.2260   26.3720   52.4010 H   0  0  0  0  0  0  0  0  0  0  0  0
  1  2  1  0
  2  3  1  0
  3  4  2  0
  4  5  1  0
  5  6  1  0
  5  7  2  0
  7  8  1  0
  8  9  2  0
  8 10  1  0
 10 11  1  0
 11 12  1  0
 12 13  2  0
 13 14  1  0
 14 15  2  0
 15 16  1  0
 15 17  1  0
 17 18  2  0
 11 19  1  0
 19 20  2  0
 19 21  1  0
 21 22  1  0
  9  3  1  0
 18 12  1  0
 21  7  1  0
  1 23  1  0
  1 24  1  0
  1 25  1  0
  4 26  1  0
  6 27  1  0
  9 28  1  0
 11 29  1  1
 13 30  1  0
 14 31  1  0
 17 32  1  0
 18 33  1  0
 21 34  1  1
 22 35  1  0
M  CHG  1  16  -1
M  END
>  <UniqueID>  (42) 
36

>  <SMILES>  (42) 
COc1cc(O)c2c(c1)O[C@@H](c1ccc([O-])cc1)C(=O)[C@H]2O

>  <Energy>  (42) 
42.24843786461452

>  <Genealogy>  (42) 
COc1cc(O)c2c(c1)OC(c1ccc([O-])cc1)C(=O)C2O (protonated)
COc1cc(O)c2c(c1)O[C@@H](c1ccc([O-])cc1)C(=O)[C@H]2O (chirality)
COc1cc(O)c2c(c1)O[C@@H](c1ccc([O-])cc1)C(=O)[C@H]2O (3D coordinates assigned)
COc1cc(O)c2c(c1)O[C@@H](c1ccc([O-])cc1)C(=O)[C@H]2O (nonaromatic ring conformer: 42.24843786461452 kcal/mol)

>  <smiles>  (42) 
COc1cc(O)c2c(c1)OC(c1ccc(O)cc1)C(=O)C2O

>  <score_type>  (42) 
oracle

>  <origin>  (42) 
adg

>  <m_score__min__energy>  (42) 
-8.6699999999999999

>  <m_primary>  (42) 
energy

$$$$
42:0
     RDKit          3D

 28 30  0  0  0  0  0  0  0  0999 V2000
   57.3790   26.0510   47.7730 F   0  0  0  0  0  0  0  0  0  0  0  0
   58.1280   26.7830   46.9120 C   0  0  0  0  0  0  0  0  0  0  0  0
   59.5010   26.9220   47.1290 C   0  0  0  0  0  0  0  0  0  0  0  0
   60.2780   27.6710   46.2410 C   0  0  0  0  0  0  0  0  0  0  0  0
   59.6840   28.2790   45.1320 C   0  0  0  0  0  0  0  0  0  0  0  0
   58.3040   28.1490   44.9040 C   0  0  0  0  0  0  0  0  0  0  0  0
   57.6860   28.7790   43.6830 C   0  0  0  0  0  0  0  0  0  0  0  0
   56.2050   29.7540   44.1240 S   0  0  0  0  0  0  0  0  0  0  0  0
   57.1260   31.2020   44.6340 C   0  0  0  0  0  0  0  0  0  0  0  0
   57.3950   31.4880   45.9310 N   0  0  0  0  0  0  0  0  0  0  0  0
   58.1330   32.6230   46.0280 C   0  0  0  0  0  0  0  0  0  0  0  0
   58.5800   33.1720   47.2310 C   0  0  0  0  0  0  0  0  0  0  0  0
   59.3450   34.3510   47.1920 C   0  0  0  0  0  0  0  0  0  0  0  0
   59.6530   34.9620   45.9600 C   0  0  0  0  0  0  0  0  0  0  0  0
   59.1990   34.4000   44.7560 C   0  0  0  0  0  0  0  0  0  0  0  0
   58.4430   33.2320   44.8220 C   0  0  0  0  0  0  0  0  0  0  0  0
   57.7810   32.3380   43.5640 S   0  0  0  0  0  0  0  0  0  0  0  0
   57.5260   27.3930   45.8040 C   0  0  0  0  0  0  0  0  0  0  0  0
   56.1920   27.2370   45.6070 F   0  0  0  0  0  0  0  0  0  0  0  0
   59.9711   26.4414   47.9997 H   0  0  0  0  0  0  0  0  0  0  0  0
   61.3584   27.7820   46.4153 H   0  0  0  0  0  0  0  0  0  0  0  0
   60.3008   28.8631   44.4332 H   0  0  0  0  0  0  0  0  0  0  0  0
   58.4243   29.4419   43.2081 H   0  0  0  0  0  0  0  0  0  0  0  0
   57.3841   27.9784   42.9917 H   0  0  0  0  0  0  0  0  0  0  0  0
   58.3385   32.6917   48.1907 H   0  0  0  0  0  0  0  0  0  0  0  0
   59.7055   34.7995   48.1295 H   0  0  0  0  0  0  0  0  0  0  0  0
   60.2523   35.8842   45.9415 H   0  0  0  0  0  0  0  0  0  0  0  0
   59.4335   34.8685   43.7888 H   0  0  0  0  0  0  0  0  0  0  0  0
  1  2  1  0
  2  3  2  0
  3  4  1  0
  4  5  2  0
  5  6  1  0
  6  7  1  0
  7  8  1  0
  8  9  1  0
  9 10  2  0
 10 11  1  0
 11 12  2  0
 12 13  1  0
 13 14  2  0
 14 15  1  0
 15 16  2  0
 16 17  1  0
  6 18  2  0
 18 19  1  0
 18  2  1  0
 17  9  1  0
 16 11  1  0
  3 20  1  0
  4 21  1  0
  5 22  1  0
  7 23  1  0
  7 24  1  0
 12 25  1  0
 13 26  1  0
 14 27  1  0
 15 28  1  0
M  END
>  <UniqueID>  (43) 
37

>  <SMILES>  (43) 
Fc1cccc(CSc2nc3ccccc3s2)c1F

>  <Energy>  (43) 
60.683730710389774

>  <Genealogy>  (43) 
Fc1cccc(CSc2nc3ccccc3s2)c1F (3D coordinates assigned)
Fc1cccc(CSc2nc3ccccc3s2)c1F (optimized conformer: 60.683730710389774 kcal/mol)

>  <smiles>  (43) 
Fc1cccc(CSc2nc3ccccc3s2)c1F

>  <score_type>  (43) 
oracle

>  <origin>  (43) 
adg

>  <m_score__min__energy>  (43) 
-7.54

>  <m_primary>  (43) 
energy

$$$$
43:0
     RDKit          3D

 42 44  0  0  0  0  0  0  0  0999 V2000
   61.3950   30.3240   49.7120 C   0  0  0  0  0  0  0  0  0  0  0  0
   62.4940   30.8510   48.9790 O   0  0  0  0  0  0  0  0  0  0  0  0
   62.4030   31.1980   47.6270 C   0  0  0  0  0  0  0  0  0  0  0  0
   63.4500   31.4220   46.9640 O   0  0  0  0  0  0  0  0  0  0  0  0
   61.0690   31.2550   46.9920 C   0  0  0  0  0  0  0  0  0  0  0  0
   60.4810   30.1420   46.3980 C   0  0  0  0  0  0  0  0  0  0  0  0
   59.2780   30.5830   45.9010 C   0  0  0  0  0  0  0  0  0  0  0  0
   58.2890   29.8900   45.2080 C   0  0  0  0  0  0  0  0  0  0  0  0
   57.1330   30.5960   44.8050 C   0  0  0  0  0  0  0  0  0  0  0  0
   56.0510   29.9050   44.0670 C   0  0  0  0  0  0  0  0  0  0  0  0
   55.1800   28.9960   44.7400 N   0  0  0  0  0  0  0  0  0  0  0  0
   55.8870   30.1110   42.8340 O   0  0  0  0  0  0  0  0  0  0  0  0
   57.0200   31.9770   45.1150 C   0  0  0  0  0  0  0  0  0  0  0  0
   58.0390   32.6440   45.8160 C   0  0  0  0  0  0  0  0  0  0  0  0
   59.1650   31.9140   46.2030 C   0  0  0  0  0  0  0  0  0  0  0  0
   60.2520   32.3470   46.8850 N   0  0  0  0  0  0  0  0  0  0  0  0
   60.4100   33.6900   47.4700 C   0  0  0  0  0  0  0  0  0  0  0  0
   60.4730   33.6190   48.9800 C   0  0  0  0  0  0  0  0  0  0  0  0
   59.3170   33.2850   49.7080 C   0  0  0  0  0  0  0  0  0  0  0  0
   59.3560   33.1980   51.1020 C   0  0  0  0  0  0  0  0  0  0  0  0
   57.7810   32.7300   52.0740 Br  0  0  0  0  0  0  0  0  0  0  0  0
   60.5470   33.4530   51.7830 C   0  0  0  0  0  0  0  0  0  0  0  0
   61.6980   33.8020   51.0770 C   0  0  0  0  0  0  0  0  0  0  0  0
   61.6730   33.8950   49.6700 C   0  0  0  0  0  0  0  0  0  0  0  0
   62.8120   34.2610   48.9370 O   0  0  0  0  0  0  0  0  0  0  0  0
   64.0550   33.5670   48.9670 C   0  0  0  0  0  0  0  0  0  0  0  0
   61.5936   30.4192   50.7897 H   0  0  0  0  0  0  0  0  0  0  0  0
   60.4824   30.8824   49.4566 H   0  0  0  0  0  0  0  0  0  0  0  0
   61.2590   29.2627   49.4566 H   0  0  0  0  0  0  0  0  0  0  0  0
   60.8926   29.1236   46.3388 H   0  0  0  0  0  0  0  0  0  0  0  0
   58.4045   28.8201   44.9800 H   0  0  0  0  0  0  0  0  0  0  0  0
   54.4040   29.3460   45.3460 H   0  0  0  0  0  0  0  0  0  0  0  0
   56.1232   32.5319   44.8024 H   0  0  0  0  0  0  0  0  0  0  0  0
   57.9520   33.7144   46.0540 H   0  0  0  0  0  0  0  0  0  0  0  0
   61.3397   34.1401   47.0918 H   0  0  0  0  0  0  0  0  0  0  0  0
   59.5418   34.3017   47.1836 H   0  0  0  0  0  0  0  0  0  0  0  0
   58.3743   33.0906   49.1755 H   0  0  0  0  0  0  0  0  0  0  0  0
   60.5781   33.3785   52.8800 H   0  0  0  0  0  0  0  0  0  0  0  0
   62.6318   34.0061   51.6214 H   0  0  0  0  0  0  0  0  0  0  0  0
   64.3560   33.3989   50.0116 H   0  0  0  0  0  0  0  0  0  0  0  0
   63.9468   32.5988   48.4563 H   0  0  0  0  0  0  0  0  0  0  0  0
   64.8225   34.1672   48.4563 H   0  0  0  0  0  0  0  0  0  0  0  0
  1  2  1  0
  2  3  1  0
  3  4  2  0
  3  5  1  0
  5  6  2  0
  6  7  1  0
  7  8  2  0
  8  9  1  0
  9 10  1  0
 10 11  1  0
 10 12  2  0
  9 13  2  0
 13 14  1  0
 14 15  2  0
 15 16  1  0
 16 17  1  0
 17 18  1  0
 18 19  2  0
 19 20  1  0
 20 21  1  0
 20 22  2  0
 22 23  1  0
 23 24  2  0
 24 25  1  0
 25 26  1  0
 16  5  1  0
 24 18  1  0
 15  7  1  0
  1 27  1  0
  1 28  1  0
  1 29  1  0
  6 30  1  0
  8 31  1  0
 11 32  1  0
 13 33  1  0
 14 34  1  0
 17 35  1  0
 17 36  1  0
 19 37  1  0
 22 38  1  0
 23 39  1  0
 26 40  1  0
 26 41  1  0
 26 42  1  0
M  CHG  1  11  -1
M  END
>  <UniqueID>  (44) 
38

>  <SMILES>  (44) 
COC(=O)c1cc2cc(C([NH-])=O)ccc2n1Cc1cc(Br)ccc1OC

>  <Energy>  (44) 
77.21517229116236

>  <Genealogy>  (44) 
COC(=O)c1cc2cc(C([NH-])=O)ccc2n1Cc1cc(Br)ccc1OC (protonated)
COC(=O)c1cc2cc(C([NH-])=O)ccc2n1Cc1cc(Br)ccc1OC (3D coordinates assigned)
COC(=O)c1cc2cc(C([NH-])=O)ccc2n1Cc1cc(Br)ccc1OC (optimized conformer: 77.21517229116236 kcal/mol)

>  <smiles>  (44) 
COC(=O)c1cc2cc(C(N)=O)ccc2n1Cc1cc(Br)ccc1OC

>  <score_type>  (44) 
oracle

>  <origin>  (44) 
adg

>  <m_score__min__energy>  (44) 
-10.43

>  <m_primary>  (44) 
energy

$$$$
44:0
     RDKit          3D

 32 33  0  0  0  0  0  0  0  0999 V2000
   55.5460   24.0480   44.6630 C   0  0  0  0  0  0  0  0  0  0  0  0
   54.7160   24.8850   45.5860 C   0  0  0  0  0  0  0  0  0  0  0  0
   53.6100   24.4370   45.9870 O   0  0  0  0  0  0  0  0  0  0  0  0
   55.1220   26.1980   45.9950 N   0  0  0  0  0  0  0  0  0  0  0  0
   56.4620   26.7080   46.0320 C   0  0  0  0  0  0  0  0  0  0  0  0
   57.4820   25.8890   46.5260 C   0  0  0  0  0  0  0  0  0  0  0  0
   58.8020   26.3430   46.5490 C   0  0  0  0  0  0  0  0  0  0  0  0
   59.1160   27.6160   46.0650 C   0  0  0  0  0  0  0  0  0  0  0  0
   58.1090   28.4480   45.5450 C   0  0  0  0  0  0  0  0  0  0  0  0
   58.4300   29.7910   45.0020 C   0  0  0  0  0  0  0  0  0  0  0  0
   59.1590   30.5710   45.6740 O   0  0  0  0  0  0  0  0  0  0  0  0
   57.9400   30.2090   43.7190 N   0  0  0  0  0  0  0  0  0  0  0  0
   58.1280   31.5810   43.2480 C   0  0  0  0  0  0  0  0  0  0  0  0
   57.8810   32.5570   44.3550 C   0  0  0  0  0  0  0  0  0  0  0  0
   58.5740   33.7320   44.5650 C   0  0  0  0  0  0  0  0  0  0  0  0
   57.9860   34.3160   45.6660 C   0  0  0  0  0  0  0  0  0  0  0  0
   56.9710   33.4650   46.0560 C   0  0  0  0  0  0  0  0  0  0  0  0
   56.9310   32.4270   45.2530 O   0  0  0  0  0  0  0  0  0  0  0  0
   56.7830   27.9750   45.5150 C   0  0  0  0  0  0  0  0  0  0  0  0
   56.1995   23.3890   45.2535 H   0  0  0  0  0  0  0  0  0  0  0  0
   54.8864   23.4376   44.0287 H   0  0  0  0  0  0  0  0  0  0  0  0
   56.1619   24.7024   44.0287 H   0  0  0  0  0  0  0  0  0  0  0  0
   57.2431   24.8819   46.8984 H   0  0  0  0  0  0  0  0  0  0  0  0
   59.5972   25.6969   46.9492 H   0  0  0  0  0  0  0  0  0  0  0  0
   60.1574   27.9691   46.0911 H   0  0  0  0  0  0  0  0  0  0  0  0
   57.4930   29.5080   43.0860 H   0  0  0  0  0  0  0  0  0  0  0  0
   59.1593   31.7002   42.8845 H   0  0  0  0  0  0  0  0  0  0  0  0
   57.4128   31.7780   42.4358 H   0  0  0  0  0  0  0  0  0  0  0  0
   59.4184   34.1207   43.9769 H   0  0  0  0  0  0  0  0  0  0  0  0
   58.2683   35.2682   46.1389 H   0  0  0  0  0  0  0  0  0  0  0  0
   56.2979   33.6315   46.9100 H   0  0  0  0  0  0  0  0  0  0  0  0
   55.9904   28.6034   45.0826 H   0  0  0  0  0  0  0  0  0  0  0  0
  1  2  1  0
  2  3  2  0
  2  4  1  0
  4  5  1  0
  5  6  2  0
  6  7  1  0
  7  8  2  0
  8  9  1  0
  9 10  1  0
 10 11  2  0
 10 12  1  0
 12 13  1  0
 13 14  1  0
 14 15  2  0
 15 16  1  0
 16 17  2  0
 17 18  1  0
  9 19  2  0
 19  5  1  0
 18 14  1  0
  1 20  1  0
  1 21  1  0
  1 22  1  0
  6 23  1  0
  7 24  1  0
  8 25  1  0
 12 26  1  0
 13 27  1  0
 13 28  1  0
 15 29  1  0
 16 30  1  0
 17 31  1  0
 19 32  1  0
M  CHG  1   4  -1
M  END
>  <UniqueID>  (45) 
39

>  <SMILES>  (45) 
CC(=O)[N-]c1cccc(C(=O)NCc2ccco2)c1

>  <Energy>  (45) 
61.131602820473304

>  <Genealogy>  (45) 
CC(=O)[N-]c1cccc(C(=O)NCc2ccco2)c1 (protonated)
CC(=O)[N-]c1cccc(C(=O)NCc2ccco2)c1 (3D coordinates assigned)
CC(=O)[N-]c1cccc(C(=O)NCc2ccco2)c1 (optimized conformer: 61.131602820473304 kcal/mol)

>  <smiles>  (45) 
CC(=O)Nc1cccc(C(=O)NCc2ccco2)c1

>  <score_type>  (45) 
oracle

>  <origin>  (45) 
adg

>  <m_score__min__energy>  (45) 
-8.5700000000000003

>  <m_primary>  (45) 
energy

$$$$
45:0
     RDKit          3D

 42 44  0  0  0  0  0  0  0  0999 V2000
   57.5400   28.4270   45.4120 C   0  0  0  0  0  0  0  0  0  0  0  0
   57.3540   29.7700   45.8490 O   0  0  0  0  0  0  0  0  0  0  0  0
   57.7750   30.9200   45.1600 C   0  0  0  0  0  0  0  0  0  0  0  0
   57.5040   31.0390   43.7820 C   0  0  0  0  0  0  0  0  0  0  0  0
   57.8010   32.2040   43.0890 C   0  0  0  0  0  0  0  0  0  0  0  0
   57.4060   32.3330   41.2240 Br  0  0  0  0  0  0  0  0  0  0  0  0
   58.3490   33.2880   43.7580 C   0  0  0  0  0  0  0  0  0  0  0  0
   58.6500   33.2070   45.1280 C   0  0  0  0  0  0  0  0  0  0  0  0
   59.1480   34.3300   45.7980 C   0  0  0  0  0  0  0  0  0  0  0  0
   59.3260   35.4250   45.1940 O   0  0  0  0  0  0  0  0  0  0  0  0
   59.4300   34.2560   47.1480 C   0  0  0  0  0  0  0  0  0  0  0  0
   59.3000   33.0480   47.8390 C   0  0  0  0  0  0  0  0  0  0  0  0
   59.6630   33.0640   49.3220 C   0  0  0  0  0  0  0  0  0  0  0  0
   61.1200   32.8580   49.5530 N   0  0  0  0  0  0  0  0  0  0  0  0
   61.6840   31.7870   48.6830 C   0  0  0  0  0  0  0  0  0  0  0  0
   62.4620   32.3620   47.4860 C   0  0  0  0  0  0  0  0  0  0  0  0
   63.5570   33.1820   47.8720 O   0  0  0  0  0  0  0  0  0  0  0  0
   63.3330   33.9020   49.0780 C   0  0  0  0  0  0  0  0  0  0  0  0
   61.8460   34.1420   49.3920 C   0  0  0  0  0  0  0  0  0  0  0  0
   58.8500   31.9130   47.1800 N   0  0  0  0  0  0  0  0  0  0  0  0
   58.8280   30.6170   47.8940 C   0  0  0  0  0  0  0  0  0  0  0  0
   58.4330   31.9960   45.8510 C   0  0  0  0  0  0  0  0  0  0  0  0
   57.6315   27.7662   46.2866 H   0  0  0  0  0  0  0  0  0  0  0  0
   56.6764   28.1157   44.8060 H   0  0  0  0  0  0  0  0  0  0  0  0
   58.4557   28.3621   44.8060 H   0  0  0  0  0  0  0  0  0  0  0  0
   57.0488   30.1930   43.2461 H   0  0  0  0  0  0  0  0  0  0  0  0
   58.5501   34.2207   43.2106 H   0  0  0  0  0  0  0  0  0  0  0  0
   59.7604   35.1573   47.6851 H   0  0  0  0  0  0  0  0  0  0  0  0
   59.3722   34.0364   49.7462 H   0  0  0  0  0  0  0  0  0  0  0  0
   59.1264   32.2354   49.8072 H   0  0  0  0  0  0  0  0  0  0  0  0
   61.2650   32.5480   50.5440 H   0  0  0  0  0  0  0  0  0  0  0  0
   62.3649   31.1650   49.2826 H   0  0  0  0  0  0  0  0  0  0  0  0
   60.8451   31.1949   48.2884 H   0  0  0  0  0  0  0  0  0  0  0  0
   62.8468   31.5252   46.8845 H   0  0  0  0  0  0  0  0  0  0  0  0
   61.7650   32.9941   46.9162 H   0  0  0  0  0  0  0  0  0  0  0  0
   63.7752   33.3327   49.9088 H   0  0  0  0  0  0  0  0  0  0  0  0
   63.7969   34.8913   48.9509 H   0  0  0  0  0  0  0  0  0  0  0  0
   61.7644   34.7202   50.3242 H   0  0  0  0  0  0  0  0  0  0  0  0
   61.3967   34.6947   48.5537 H   0  0  0  0  0  0  0  0  0  0  0  0
   58.8310   30.7962   48.9793 H   0  0  0  0  0  0  0  0  0  0  0  0
   57.9203   30.0610   47.6167 H   0  0  0  0  0  0  0  0  0  0  0  0
   59.7163   30.0305   47.6167 H   0  0  0  0  0  0  0  0  0  0  0  0
  1  2  1  0
  2  3  1  0
  3  4  2  0
  4  5  1  0
  5  6  1  0
  5  7  2  0
  7  8  1  0
  8  9  1  0
  9 10  2  0
  9 11  1  0
 11 12  2  0
 12 13  1  0
 13 14  1  0
 14 15  1  0
 15 16  1  0
 16 17  1  0
 17 18  1  0
 18 19  1  0
 12 20  1  0
 20 21  1  0
 20 22  1  0
 22  3  1  0
 22  8  2  0
 19 14  1  0
  1 23  1  0
  1 24  1  0
  1 25  1  0
  4 26  1  0
  7 27  1  0
 11 28  1  0
 13 29  1  0
 13 30  1  0
 14 31  1  0
 15 32  1  0
 15 33  1  0
 16 34  1  0
 16 35  1  0
 18 36  1  0
 18 37  1  0
 19 38  1  0
 19 39  1  0
 21 40  1  0
 21 41  1  0
 21 42  1  0
M  CHG  1  14   1
M  END
>  <UniqueID>  (46) 
40

>  <SMILES>  (46) 
COc1cc(Br)cc2c(=O)cc(C[NH+]3CCOCC3)n(C)c12

>  <Energy>  (46) 
79.6862785951195

>  <Genealogy>  (46) 
COc1cc(Br)cc2c(=O)cc(C[NH+]3CCOCC3)n(C)c12 (protonated)
COc1cc(Br)cc2c(=O)cc(C[NH+]3CCOCC3)n(C)c12 (3D coordinates assigned)
COc1cc(Br)cc2c(=O)cc(C[NH+]3CCOCC3)n(C)c12 (nonaromatic ring conformer: 79.6862785951195 kcal/mol)

>  <smiles>  (46) 
COc1cc(Br)cc2c(=O)cc(CN3CCOCC3)n(C)c12

>  <score_type>  (46) 
oracle

>  <origin>  (46) 
adg

>  <m_score__min__energy>  (46) 
-5.8600000000000003

>  <m_primary>  (46) 
energy

$$$$
46:0
     RDKit          3D

 45 47  0  0  0  0  0  0  0  0999 V2000
   57.3600   22.0270   43.8360 C   0  0  0  0  0  0  0  0  0  0  0  0
   58.4550   22.2780   44.8580 C   0  0  0  0  0  0  0  0  0  0  0  0
   57.9520   23.0860   45.9200 O   0  0  0  0  0  0  0  0  0  0  0  0
   57.5120   24.4110   45.7740 C   0  0  0  0  0  0  0  0  0  0  0  0
   58.1470   25.3280   44.9110 C   0  0  0  0  0  0  0  0  0  0  0  0
   57.6380   26.6220   44.7650 C   0  0  0  0  0  0  0  0  0  0  0  0
   56.5150   27.0350   45.4980 C   0  0  0  0  0  0  0  0  0  0  0  0
   55.9720   28.3390   45.2480 N   0  0  0  0  0  0  0  0  0  0  0  0
   56.5540   29.3430   44.4100 C   0  0  0  0  0  0  0  0  0  0  0  0
   56.3240   29.3350   43.1700 O   0  0  0  0  0  0  0  0  0  0  0  0
   57.4200   30.3890   45.0090 C   0  0  0  0  0  0  0  0  0  0  0  0
   57.4340   31.6780   44.4560 C   0  0  0  0  0  0  0  0  0  0  0  0
   58.1650   32.7020   45.0600 C   0  0  0  0  0  0  0  0  0  0  0  0
   58.1790   33.9960   44.5190 C   0  0  0  0  0  0  0  0  0  0  0  0
   58.9150   35.0020   45.1380 C   0  0  0  0  0  0  0  0  0  0  0  0
   59.6330   34.7290   46.3040 C   0  0  0  0  0  0  0  0  0  0  0  0
   59.6220   33.4460   46.8550 C   0  0  0  0  0  0  0  0  0  0  0  0
   58.8880   32.4230   46.2370 C   0  0  0  0  0  0  0  0  0  0  0  0
   58.8680   31.1660   46.7660 N   0  0  0  0  0  0  0  0  0  0  0  0
   58.1570   30.1490   46.1890 C   0  0  0  0  0  0  0  0  0  0  0  0
   58.1280   28.8700   46.7670 O   0  0  0  0  0  0  0  0  0  0  0  0
   59.2780   28.1340   47.1670 C   0  0  0  0  0  0  0  0  0  0  0  0
   60.3190   28.1770   46.0610 C   0  0  0  0  0  0  0  0  0  0  0  0
   55.8890   26.1240   46.3650 C   0  0  0  0  0  0  0  0  0  0  0  0
   56.3850   24.8240   46.5000 C   0  0  0  0  0  0  0  0  0  0  0  0
   56.4154   21.8105   44.3564 H   0  0  0  0  0  0  0  0  0  0  0  0
   57.2351   22.9198   43.2057 H   0  0  0  0  0  0  0  0  0  0  0  0
   57.6364   21.1689   43.2057 H   0  0  0  0  0  0  0  0  0  0  0  0
   58.8021   21.3165   45.2642 H   0  0  0  0  0  0  0  0  0  0  0  0
   59.2920   22.7999   44.3711 H   0  0  0  0  0  0  0  0  0  0  0  0
   59.0443   25.0247   44.3517 H   0  0  0  0  0  0  0  0  0  0  0  0
   58.1224   27.3228   44.0691 H   0  0  0  0  0  0  0  0  0  0  0  0
   56.8637   31.8836   43.5381 H   0  0  0  0  0  0  0  0  0  0  0  0
   57.6079   34.2158   43.6049 H   0  0  0  0  0  0  0  0  0  0  0  0
   58.9311   36.0143   44.7078 H   0  0  0  0  0  0  0  0  0  0  0  0
   60.2103   35.5287   46.7910 H   0  0  0  0  0  0  0  0  0  0  0  0
   60.1892   33.2375   47.7741 H   0  0  0  0  0  0  0  0  0  0  0  0
   59.4150   30.9830   47.6340 H   0  0  0  0  0  0  0  0  0  0  0  0
   59.6971   28.5779   48.0820 H   0  0  0  0  0  0  0  0  0  0  0  0
   58.9942   27.0893   47.3620 H   0  0  0  0  0  0  0  0  0  0  0  0
   61.3244   28.2185   46.5052 H   0  0  0  0  0  0  0  0  0  0  0  0
   60.2302   27.2744   45.4385 H   0  0  0  0  0  0  0  0  0  0  0  0
   60.1560   29.0692   45.4385 H   0  0  0  0  0  0  0  0  0  0  0  0
   55.0045   26.4350   46.9403 H   0  0  0  0  0  0  0  0  0  0  0  0
   55.8871   24.1186   47.1816 H   0  0  0  0  0  0  0  0  0  0  0  0
  1  2  1  0
  2  3  1  0
  3  4  1  0
  4  5  2  0
  5  6  1  0
  6  7  2  0
  7  8  1  0
  8  9  1  0
  9 10  2  0
  9 11  1  0
 11 12  2  0
 12 13  1  0
 13 14  2  0
 14 15  1  0
 15 16  2  0
 16 17  1  0
 17 18  2  0
 18 19  1  0
 19 20  2  0
 20 21  1  0
 21 22  1  0
 22 23  1  0
  7 24  1  0
 24 25  2  0
 25  4  1  0
 20 11  1  0
 18 13  1  0
  1 26  1  0
  1 27  1  0
  1 28  1  0
  2 29  1  0
  2 30  1  0
  5 31  1  0
  6 32  1  0
 12 33  1  0
 14 34  1  0
 15 35  1  0
 16 36  1  0
 17 37  1  0
 19 38  1  0
 22 39  1  0
 22 40  1  0
 23 41  1  0
 23 42  1  0
 23 43  1  0
 24 44  1  0
 25 45  1  0
M  CHG  2   8  -1  19   1
M  END
>  <UniqueID>  (47) 
41

>  <SMILES>  (47) 
CCOc1ccc([N-]C(=O)c2cc3ccccc3[nH+]c2OCC)cc1

>  <Energy>  (47) 
52.1300624212869

>  <Genealogy>  (47) 
CCOc1ccc([N-]C(=O)c2cc3ccccc3[nH+]c2OCC)cc1 (protonated)
CCOc1ccc([N-]C(=O)c2cc3ccccc3[nH+]c2OCC)cc1 (3D coordinates assigned)
CCOc1ccc([N-]C(=O)c2cc3ccccc3[nH+]c2OCC)cc1 (optimized conformer: 52.1300624212869 kcal/mol)

>  <smiles>  (47) 
CCOc1ccc(NC(=O)c2cc3ccccc3nc2OCC)cc1

>  <score_type>  (47) 
oracle

>  <origin>  (47) 
adg

>  <m_score__min__energy>  (47) 
-7.2800000000000002

>  <m_primary>  (47) 
energy

$$$$
47:0
     RDKit          3D

 31 33  0  0  0  0  0  0  0  0999 V2000
   65.2350   33.0430   49.7560 C   0  0  0  0  0  0  0  0  0  0  0  0
   63.9500   33.2830   49.0220 C   0  0  0  0  0  0  0  0  0  0  0  0
   62.8320   33.7860   49.7000 C   0  0  0  0  0  0  0  0  0  0  0  0
   61.6440   34.0460   49.0100 C   0  0  0  0  0  0  0  0  0  0  0  0
   61.5570   33.8180   47.6250 C   0  0  0  0  0  0  0  0  0  0  0  0
   60.3070   34.0870   46.8720 C   0  0  0  0  0  0  0  0  0  0  0  0
   59.2360   33.2620   46.8870 N   0  0  0  0  0  0  0  0  0  0  0  0
   58.3750   33.9110   46.0760 C   0  0  0  0  0  0  0  0  0  0  0  0
   57.0190   33.3990   45.7190 C   0  0  0  0  0  0  0  0  0  0  0  0
   57.1380   32.3250   44.7400 N   0  0  0  0  0  0  0  0  0  0  0  0
   57.7760   32.4010   43.5560 C   0  0  0  0  0  0  0  0  0  0  0  0
   57.6020   31.2050   42.8950 C   0  0  0  0  0  0  0  0  0  0  0  0
   56.8270   30.4410   43.7480 C   0  0  0  0  0  0  0  0  0  0  0  0
   56.5490   31.1460   44.8610 N   0  0  0  0  0  0  0  0  0  0  0  0
   58.8900   35.0210   45.6100 O   0  0  0  0  0  0  0  0  0  0  0  0
   60.0860   35.1610   46.0870 N   0  0  0  0  0  0  0  0  0  0  0  0
   62.6900   33.3300   46.9470 C   0  0  0  0  0  0  0  0  0  0  0  0
   63.8760   33.0720   47.6380 C   0  0  0  0  0  0  0  0  0  0  0  0
   65.0502   33.0775   50.8398 H   0  0  0  0  0  0  0  0  0  0  0  0
   65.6339   32.0548   49.4834 H   0  0  0  0  0  0  0  0  0  0  0  0
   65.9637   33.8206   49.4834 H   0  0  0  0  0  0  0  0  0  0  0  0
   62.8891   33.9776   50.7817 H   0  0  0  0  0  0  0  0  0  0  0  0
   60.7701   34.4321   49.5551 H   0  0  0  0  0  0  0  0  0  0  0  0
   56.5238   33.0155   46.6233 H   0  0  0  0  0  0  0  0  0  0  0  0
   56.4235   34.2178   45.2890 H   0  0  0  0  0  0  0  0  0  0  0  0
   58.3390   33.2687   43.1815 H   0  0  0  0  0  0  0  0  0  0  0  0
   57.9931   30.9206   41.9070 H   0  0  0  0  0  0  0  0  0  0  0  0
   56.4890   29.4135   43.5478 H   0  0  0  0  0  0  0  0  0  0  0  0
   60.7200   35.9610   45.8750 H   0  0  0  0  0  0  0  0  0  0  0  0
   62.6408   33.1502   45.8629 H   0  0  0  0  0  0  0  0  0  0  0  0
   64.7568   32.7012   47.0933 H   0  0  0  0  0  0  0  0  0  0  0  0
  1  2  1  0
  2  3  2  0
  3  4  1  0
  4  5  2  0
  5  6  1  0
  6  7  1  0
  7  8  2  0
  8  9  1  0
  9 10  1  0
 10 11  1  0
 11 12  2  0
 12 13  1  0
 13 14  2  0
  8 15  1  0
 15 16  1  0
  5 17  1  0
 17 18  2  0
 18  2  1  0
 16  6  2  0
 14 10  1  0
  1 19  1  0
  1 20  1  0
  1 21  1  0
  3 22  1  0
  4 23  1  0
  9 24  1  0
  9 25  1  0
 11 26  1  0
 12 27  1  0
 13 28  1  0
 16 29  1  0
 17 30  1  0
 18 31  1  0
M  CHG  1  16   1
M  END
>  <UniqueID>  (48) 
42

>  <SMILES>  (48) 
Cc1ccc(-c2nc(Cn3cccn3)o[nH+]2)cc1

>  <Energy>  (48) 
95.03526600474699

>  <Genealogy>  (48) 
Cc1ccc(-c2nc(Cn3cccn3)o[nH+]2)cc1 (protonated)
Cc1ccc(-c2nc(Cn3cccn3)o[nH+]2)cc1 (3D coordinates assigned)
Cc1ccc(-c2nc(Cn3cccn3)o[nH+]2)cc1 (optimized conformer: 95.03526600474699 kcal/mol)

>  <smiles>  (48) 
Cc1ccc(-c2noc(Cn3cccn3)n2)cc1

>  <score_type>  (48) 
oracle

>  <origin>  (48) 
adg

>  <m_score__min__energy>  (48) 
-5.6799999999999997

>  <m_primary>  (48) 
energy

$$$$
48:0
     RDKit          3D

 42 45  0  0  0  0  0  0  0  0999 V2000
   58.1630   22.3900   44.4400 C   0  0  0  0  0  0  0  0  0  0  0  0
   56.5600   23.0370   44.0080 S   0  0  0  0  0  0  0  0  0  0  0  0
   56.6420   23.6240   42.6270 O   0  0  0  0  0  0  0  0  0  0  0  0
   55.5350   21.9370   44.0080 O   0  0  0  0  0  0  0  0  0  0  0  0
   56.0950   24.2840   45.1220 N   0  0  0  0  0  0  0  0  0  0  0  0
   56.9020   25.4410   45.4120 C   0  0  0  0  0  0  0  0  0  0  0  0
   58.3040   25.4020   45.3020 C   0  0  0  0  0  0  0  0  0  0  0  0
   59.0690   26.5370   45.5840 C   0  0  0  0  0  0  0  0  0  0  0  0
   58.4450   27.7360   45.9590 C   0  0  0  0  0  0  0  0  0  0  0  0
   59.2190   28.8940   46.2940 N   0  0  0  0  0  0  0  0  0  0  0  0
   58.8380   30.0850   46.6900 C   0  0  0  0  0  0  0  0  0  0  0  0
   58.8750   30.3520   48.0820 C   0  0  0  0  0  0  0  0  0  0  0  0
   59.1410   29.3400   49.0310 C   0  0  0  0  0  0  0  0  0  0  0  0
   59.2180   29.6440   50.3930 C   0  0  0  0  0  0  0  0  0  0  0  0
   59.0430   30.9580   50.8290 C   0  0  0  0  0  0  0  0  0  0  0  0
   58.7900   31.9730   49.9070 C   0  0  0  0  0  0  0  0  0  0  0  0
   58.7030   31.6780   48.5410 C   0  0  0  0  0  0  0  0  0  0  0  0
   58.4670   32.6790   47.6590 N   0  0  0  0  0  0  0  0  0  0  0  0
   58.3260   32.4550   46.3300 C   0  0  0  0  0  0  0  0  0  0  0  0
   58.0090   33.5310   45.4930 C   0  0  0  0  0  0  0  0  0  0  0  0
   57.7300   33.3160   44.1450 C   0  0  0  0  0  0  0  0  0  0  0  0
   57.7270   32.0180   43.6370 C   0  0  0  0  0  0  0  0  0  0  0  0
   58.0520   30.9380   44.4600 C   0  0  0  0  0  0  0  0  0  0  0  0
   58.4430   31.1410   45.8060 C   0  0  0  0  0  0  0  0  0  0  0  0
   57.0570   27.7650   46.1250 C   0  0  0  0  0  0  0  0  0  0  0  0
   56.2860   26.6320   45.8450 C   0  0  0  0  0  0  0  0  0  0  0  0
   54.9060   26.7010   45.9910 O   0  0  0  0  0  0  0  0  0  0  0  0
   58.2597   22.3510   45.5350 H   0  0  0  0  0  0  0  0  0  0  0  0
   58.2733   21.3769   44.0258 H   0  0  0  0  0  0  0  0  0  0  0  0
   58.9456   23.0427   44.0258 H   0  0  0  0  0  0  0  0  0  0  0  0
   55.1230   24.2300   45.5000 H   0  0  0  0  0  0  0  0  0  0  0  0
   58.8017   24.4714   44.9918 H   0  0  0  0  0  0  0  0  0  0  0  0
   60.1656   26.4899   45.5116 H   0  0  0  0  0  0  0  0  0  0  0  0
   59.2889   28.3031   48.6949 H   0  0  0  0  0  0  0  0  0  0  0  0
   59.4170   28.8456   51.1230 H   0  0  0  0  0  0  0  0  0  0  0  0
   59.1047   31.1934   51.9017 H   0  0  0  0  0  0  0  0  0  0  0  0
   58.6584   33.0086   50.2538 H   0  0  0  0  0  0  0  0  0  0  0  0
   57.9800   34.5519   45.9016 H   0  0  0  0  0  0  0  0  0  0  0  0
   57.5128   34.1678   43.4838 H   0  0  0  0  0  0  0  0  0  0  0  0
   57.4673   31.8437   42.5824 H   0  0  0  0  0  0  0  0  0  0  0  0
   58.0037   29.9154   44.0575 H   0  0  0  0  0  0  0  0  0  0  0  0
   56.5681   28.6849   46.4781 H   0  0  0  0  0  0  0  0  0  0  0  0
  1  2  1  0
  2  3  2  0
  2  4  2  0
  2  5  1  0
  5  6  1  0
  6  7  2  0
  7  8  1  0
  8  9  2  0
  9 10  1  0
 10 11  2  3
 11 12  1  0
 12 13  2  0
 13 14  1  0
 14 15  2  0
 15 16  1  0
 16 17  2  0
 17 18  1  0
 18 19  1  0
 19 20  2  0
 20 21  1  0
 21 22  2  0
 22 23  1  0
 23 24  2  0
  9 25  1  0
 25 26  2  0
 26 27  1  0
 26  6  1  0
 24 11  1  0
 17 12  1  0
 24 19  1  0
  1 28  1  0
  1 29  1  0
  1 30  1  0
  5 31  1  0
  7 32  1  0
  8 33  1  0
 13 34  1  0
 14 35  1  0
 15 36  1  0
 16 37  1  0
 20 38  1  0
 21 39  1  0
 22 40  1  0
 23 41  1  0
 25 42  1  0
M  CHG  2  18  -1  27  -1
M  END
>  <UniqueID>  (49) 
43

>  <SMILES>  (49) 
CS(=O)(=O)Nc1ccc(N=c2c3ccccc3[n-]c3ccccc23)cc1[O-]

>  <Energy>  (49) 
74.48128840235692

>  <Genealogy>  (49) 
CS(=O)(=O)Nc1ccc(N=c2c3ccccc3[n-]c3ccccc23)cc1[O-] (protonated)
CS(=O)(=O)Nc1ccc(N=c2c3ccccc3[n-]c3ccccc23)cc1[O-] (3D coordinates assigned)
CS(=O)(=O)Nc1ccc(N=c2c3ccccc3[n-]c3ccccc23)cc1[O-] (optimized conformer: 74.48128840235692 kcal/mol)

>  <smiles>  (49) 
CS(=O)(=O)Nc1ccc(N=c2c3ccccc3[nH]c3ccccc23)cc1O

>  <score_type>  (49) 
oracle

>  <origin>  (49) 
adg

>  <m_score__min__energy>  (49) 
-13.050000000000001

>  <m_primary>  (49) 
energy

$$$$
49:0
     RDKit          3D

 38 40  0  0  0  0  0  0  0  0999 V2000
   56.6800   29.9020   43.0480 O   0  0  0  0  0  0  0  0  0  0  0  0
   56.9290   29.8380   44.2810 C   0  0  0  0  0  0  0  0  0  0  0  0
   56.6440   30.9800   45.1010 N   0  0  0  0  0  0  0  0  0  0  0  0
   57.3990   32.2000   45.1460 C   0  0  0  0  0  0  0  0  0  0  0  0
   57.3990   32.9610   46.3190 C   0  0  0  0  0  0  0  0  0  0  0  0
   58.1270   34.1520   46.3810 C   0  0  0  0  0  0  0  0  0  0  0  0
   58.8370   34.5780   45.2570 C   0  0  0  0  0  0  0  0  0  0  0  0
   58.8080   33.8430   44.1150 N   0  0  0  0  0  0  0  0  0  0  0  0
   58.1080   32.6800   44.0300 C   0  0  0  0  0  0  0  0  0  0  0  0
   57.4630   28.5790   44.8490 C   0  0  0  0  0  0  0  0  0  0  0  0
   58.8150   28.2440   44.6720 C   0  0  0  0  0  0  0  0  0  0  0  0
   59.3320   27.0780   45.2430 C   0  0  0  0  0  0  0  0  0  0  0  0
   58.5070   26.2360   45.9910 C   0  0  0  0  0  0  0  0  0  0  0  0
   57.1470   26.5470   46.1600 C   0  0  0  0  0  0  0  0  0  0  0  0
   56.2660   25.7200   46.9320 N   0  0  0  0  0  0  0  0  0  0  0  0
   55.2630   24.4660   46.2790 S   0  0  0  0  0  0  0  0  0  0  0  0
   54.0850   25.0980   45.5930 O   0  0  0  0  0  0  0  0  0  0  0  0
   54.7690   23.5980   47.4010 O   0  0  0  0  0  0  0  0  0  0  0  0
   56.2020   23.4690   45.1610 C   0  0  0  0  0  0  0  0  0  0  0  0
   55.6770   23.0980   43.9090 C   0  0  0  0  0  0  0  0  0  0  0  0
   54.4290   23.4780   43.5350 F   0  0  0  0  0  0  0  0  0  0  0  0
   56.4390   22.3200   43.0310 C   0  0  0  0  0  0  0  0  0  0  0  0
   57.7210   21.9030   43.3950 C   0  0  0  0  0  0  0  0  0  0  0  0
   58.2450   22.2570   44.6390 C   0  0  0  0  0  0  0  0  0  0  0  0
   57.4890   23.0320   45.5240 C   0  0  0  0  0  0  0  0  0  0  0  0
   58.0140   23.3500   46.7340 F   0  0  0  0  0  0  0  0  0  0  0  0
   56.6300   27.7070   45.5720 C   0  0  0  0  0  0  0  0  0  0  0  0
   56.8252   32.6217   47.1940 H   0  0  0  0  0  0  0  0  0  0  0  0
   58.1405   34.7477   47.3057 H   0  0  0  0  0  0  0  0  0  0  0  0
   59.4205   35.5097   45.2962 H   0  0  0  0  0  0  0  0  0  0  0  0
   58.0963   32.1138   43.0870 H   0  0  0  0  0  0  0  0  0  0  0  0
   59.4697   28.9019   44.0816 H   0  0  0  0  0  0  0  0  0  0  0  0
   60.3927   26.8227   45.1026 H   0  0  0  0  0  0  0  0  0  0  0  0
   58.9227   25.3266   46.4494 H   0  0  0  0  0  0  0  0  0  0  0  0
   56.0272   22.0360   42.0513 H   0  0  0  0  0  0  0  0  0  0  0  0
   58.3187   21.2946   42.7002 H   0  0  0  0  0  0  0  0  0  0  0  0
   59.2545   21.9258   44.9239 H   0  0  0  0  0  0  0  0  0  0  0  0
   55.5599   27.9392   45.6766 H   0  0  0  0  0  0  0  0  0  0  0  0
  1  2  2  0
  2  3  1  0
  3  4  1  0
  4  5  2  0
  5  6  1  0
  6  7  2  0
  7  8  1  0
  8  9  2  0
  2 10  1  0
 10 11  2  0
 11 12  1  0
 12 13  2  0
 13 14  1  0
 14 15  1  0
 15 16  1  0
 16 17  2  0
 16 18  2  0
 16 19  1  0
 19 20  2  0
 20 21  1  0
 20 22  1  0
 22 23  2  0
 23 24  1  0
 24 25  2  0
 25 26  1  0
 14 27  2  0
  9  4  1  0
 27 10  1  0
 25 19  1  0
  5 28  1  0
  6 29  1  0
  7 30  1  0
  9 31  1  0
 11 32  1  0
 12 33  1  0
 13 34  1  0
 22 35  1  0
 23 36  1  0
 24 37  1  0
 27 38  1  0
M  CHG  2   3  -1  15  -1
M  END
>  <UniqueID>  (50) 
44

>  <SMILES>  (50) 
O=C([N-]c1cccnc1)c1cccc([N-]S(=O)(=O)c2c(F)cccc2F)c1

>  <Energy>  (50) 
52.857054048999466

>  <Genealogy>  (50) 
O=C([N-]c1cccnc1)c1cccc([N-]S(=O)(=O)c2c(F)cccc2F)c1 (protonated)
O=C([N-]c1cccnc1)c1cccc([N-]S(=O)(=O)c2c(F)cccc2F)c1 (3D coordinates assigned)
O=C([N-]c1cccnc1)c1cccc([N-]S(=O)(=O)c2c(F)cccc2F)c1 (optimized conformer: 52.857054048999466 kcal/mol)

>  <smiles>  (50) 
O=C(Nc1cccnc1)c1cccc(NS(=O)(=O)c2c(F)cccc2F)c1

>  <score_type>  (50) 
oracle

>  <origin>  (50) 
adg

>  <m_score__min__energy>  (50) 
-11.98

>  <m_primary>  (50) 
energy

$$$$
50:0
     RDKit          3D

 47 50  0  0  0  0  0  0  0  0999 V2000
   57.0530   34.5420   44.8570 C   0  0  0  0  0  0  0  0  0  0  0  0
   58.0460   33.6920   45.5940 C   0  0  0  0  0  0  0  0  0  0  0  0
   58.0530   32.3080   45.4180 C   0  0  0  0  0  0  0  0  0  0  0  0
   58.9960   31.5140   46.0790 C   0  0  0  0  0  0  0  0  0  0  0  0
   59.9350   32.0940   46.9650 C   0  0  0  0  0  0  0  0  0  0  0  0
   59.9920   33.5140   47.0620 C   0  0  0  0  0  0  0  0  0  0  0  0
   59.0270   34.2870   46.3920 C   0  0  0  0  0  0  0  0  0  0  0  0
   61.0420   34.2680   47.8590 C   0  0  0  0  0  0  0  0  0  0  0  0
   62.3800   33.6540   47.8280 N   0  0  0  0  0  0  0  0  0  0  0  0
   62.8950   33.3890   46.4730 C   0  0  0  0  0  0  0  0  0  0  0  0
   62.6050   32.5500   48.7850 C   0  0  0  0  0  0  0  0  0  0  0  0
   61.3870   31.6190   49.0290 C   0  0  1  0  0  0  0  0  0  0  0  0
   60.3160   32.0930   50.0250 C   0  0  0  0  0  0  0  0  0  0  0  0
   60.5570   33.2230   50.8390 C   0  0  0  0  0  0  0  0  0  0  0  0
   59.5800   33.7000   51.7150 C   0  0  0  0  0  0  0  0  0  0  0  0
   58.3270   33.0930   51.7670 C   0  0  0  0  0  0  0  0  0  0  0  0
   57.3630   33.5700   52.6470 O   0  0  0  0  0  0  0  0  0  0  0  0
   58.0380   32.0160   50.9240 C   0  0  0  0  0  0  0  0  0  0  0  0
   56.7720   31.4340   50.9600 O   0  0  0  0  0  0  0  0  0  0  0  0
   59.0180   31.5350   50.0440 C   0  0  0  0  0  0  0  0  0  0  0  0
   60.8100   31.2150   47.7330 N   0  0  0  0  0  0  0  0  0  0  0  0
   60.9630   29.7920   47.3690 C   0  0  0  0  0  0  0  0  0  0  0  0
   60.3950   29.4730   45.9860 C   0  0  0  0  0  0  0  0  0  0  0  0
   58.9800   30.0260   45.8690 C   0  0  0  0  0  0  0  0  0  0  0  0
   56.4234   35.0809   45.5803 H   0  0  0  0  0  0  0  0  0  0  0  0
   57.5879   35.2664   44.2252 H   0  0  0  0  0  0  0  0  0  0  0  0
   56.4198   33.9018   44.2252 H   0  0  0  0  0  0  0  0  0  0  0  0
   57.3118   31.8380   44.7549 H   0  0  0  0  0  0  0  0  0  0  0  0
   59.0447   35.3817   46.4981 H   0  0  0  0  0  0  0  0  0  0  0  0
   61.1202   35.2861   47.4500 H   0  0  0  0  0  0  0  0  0  0  0  0
   60.7123   34.2542   48.9083 H   0  0  0  0  0  0  0  0  0  0  0  0
   63.8711   32.8867   46.5435 H   0  0  0  0  0  0  0  0  0  0  0  0
   62.1882   32.7426   45.9320 H   0  0  0  0  0  0  0  0  0  0  0  0
   63.0101   34.3398   45.9320 H   0  0  0  0  0  0  0  0  0  0  0  0
   63.4318   31.9333   48.4028 H   0  0  0  0  0  0  0  0  0  0  0  0
   62.8189   33.0277   49.7525 H   0  0  0  0  0  0  0  0  0  0  0  0
   61.8024   30.7501   49.5606 H   0  0  0  0  0  0  0  0  0  0  0  0
   61.5291   33.7345   50.7815 H   0  0  0  0  0  0  0  0  0  0  0  0
   59.8004   34.5584   52.3666 H   0  0  0  0  0  0  0  0  0  0  0  0
   55.9840   31.9010   51.3930 H   0  0  0  0  0  0  0  0  0  0  0  0
   58.7726   30.7108   49.3581 H   0  0  0  0  0  0  0  0  0  0  0  0
   62.0337   29.5399   47.3765 H   0  0  0  0  0  0  0  0  0  0  0  0
   60.4004   29.1983   48.1045 H   0  0  0  0  0  0  0  0  0  0  0  0
   61.0314   29.9321   45.2151 H   0  0  0  0  0  0  0  0  0  0  0  0
   60.3714   28.3822   45.8459 H   0  0  0  0  0  0  0  0  0  0  0  0
   58.5823   29.8027   44.8680 H   0  0  0  0  0  0  0  0  0  0  0  0
   58.3428   29.5581   46.6339 H   0  0  0  0  0  0  0  0  0  0  0  0
  1  2  1  0
  2  3  2  0
  3  4  1  0
  4  5  2  0
  5  6  1  0
  6  7  2  0
  6  8  1  0
  8  9  1  0
  9 10  1  0
  9 11  1  0
 11 12  1  0
 12 13  1  0
 13 14  2  0
 14 15  1  0
 15 16  2  0
 16 17  1  0
 16 18  1  0
 18 19  1  0
 18 20  2  0
 12 21  1  0
 21 22  1  0
 22 23  1  0
 23 24  1  0
  7  2  1  0
 20 13  1  0
 24  4  1  0
 21  5  1  0
  1 25  1  0
  1 26  1  0
  1 27  1  0
  3 28  1  0
  7 29  1  0
  8 30  1  0
  8 31  1  0
 10 32  1  0
 10 33  1  0
 10 34  1  0
 11 35  1  0
 11 36  1  0
 12 37  1  1
 14 38  1  0
 15 39  1  0
 19 40  1  0
 20 41  1  0
 22 42  1  0
 22 43  1  0
 23 44  1  0
 23 45  1  0
 24 46  1  0
 24 47  1  0
M  CHG  1  17  -1
M  END
>  <UniqueID>  (51) 
45

>  <SMILES>  (51) 
Cc1cc2c3c(c1)CN(C)C[C@@H](c1ccc([O-])c(O)c1)N3CCC2

>  <Energy>  (51) 
72.60747132826359

>  <Genealogy>  (51) 
Cc1cc2c3c(c1)CN(C)CC(c1ccc([O-])c(O)c1)N3CCC2 (protonated)
Cc1cc2c3c(c1)CN(C)C[C@@H](c1ccc([O-])c(O)c1)N3CCC2 (chirality)
Cc1cc2c3c(c1)CN(C)C[C@@H](c1ccc([O-])c(O)c1)N3CCC2 (3D coordinates assigned)
Cc1cc2c3c(c1)CN(C)C[C@@H](c1ccc([O-])c(O)c1)N3CCC2 (nonaromatic ring conformer: 72.60747132826359 kcal/mol)

>  <smiles>  (51) 
Cc1cc2c3c(c1)CN(C)CC(c1ccc(O)c(O)c1)N3CCC2

>  <score_type>  (51) 
oracle

>  <origin>  (51) 
adg

>  <m_score__min__energy>  (51) 
-7.6299999999999999

>  <m_primary>  (51) 
energy

$$$$
51:0
     RDKit          3D

 34 36  0  0  1  0  0  0  0  0999 V2000
   60.2520   34.5460   48.8110 C   0  0  0  0  0  0  0  0  0  0  0  0
   59.5490   33.7950   47.7120 C   0  0  0  0  0  0  0  0  0  0  0  0
   59.9430   32.5870   47.3010 N   0  0  0  0  0  0  0  0  0  0  0  0
   59.3250   31.9020   46.3190 C   0  0  0  0  0  0  0  0  0  0  0  0
   59.7340   30.7360   45.9470 N   0  0  0  0  0  0  0  0  0  0  0  0
   59.2340   29.5910   46.6550 C   0  0  0  0  0  0  0  0  0  0  0  0
   58.7800   28.4880   45.8060 C   0  0  0  0  0  0  0  0  0  0  0  0
   59.0070   28.2600   44.5050 C   0  0  0  0  0  0  0  0  0  0  0  0
   58.4880   27.1700   43.9140 C   0  0  0  0  0  0  0  0  0  0  0  0
   57.7330   26.3300   44.7040 C   0  0  0  0  0  0  0  0  0  0  0  0
   57.7570   27.1310   46.3920 S   0  0  0  0  0  0  0  0  0  0  0  0
   58.2370   32.4510   45.6980 C   0  0  0  0  0  0  0  0  0  0  0  0
   57.5800   31.6970   44.6380 C   0  0  0  0  0  0  0  0  0  0  0  0
   57.7880   31.9290   43.2960 C   0  0  0  0  0  0  0  0  0  0  0  0
   57.1660   31.2150   42.2950 C   0  0  0  0  0  0  0  0  0  0  0  0
   56.2910   30.2180   42.6180 C   0  0  0  0  0  0  0  0  0  0  0  0
   56.0810   29.9840   43.9750 C   0  0  0  0  0  0  0  0  0  0  0  0
   56.7010   30.6950   44.9310 N   0  0  0  0  0  0  0  0  0  0  0  0
   57.8240   33.6970   46.1160 C   0  0  0  0  0  0  0  0  0  0  0  0
   58.4690   34.3690   47.1140 N   0  0  0  0  0  0  0  0  0  0  0  0
   59.9058   34.1762   49.7874 H   0  0  0  0  0  0  0  0  0  0  0  0
   61.3376   34.3915   48.7243 H   0  0  0  0  0  0  0  0  0  0  0  0
   60.0263   35.6191   48.7243 H   0  0  0  0  0  0  0  0  0  0  0  0
   60.0378   29.2134   47.3041 H   0  0  0  0  0  0  0  0  0  0  0  0
   58.3493   29.9354   47.2106 H   0  0  0  0  0  0  0  0  0  0  0  0
   59.6177   28.9644   43.9212 H   0  0  0  0  0  0  0  0  0  0  0  0
   58.6581   26.9580   42.8481 H   0  0  0  0  0  0  0  0  0  0  0  0
   57.2297   25.3979   44.4075 H   0  0  0  0  0  0  0  0  0  0  0  0
   58.4882   32.7271   43.0082 H   0  0  0  0  0  0  0  0  0  0  0  0
   57.3736   31.4473   41.2400 H   0  0  0  0  0  0  0  0  0  0  0  0
   55.7770   29.6284   41.8445 H   0  0  0  0  0  0  0  0  0  0  0  0
   55.3826   29.1886   44.2743 H   0  0  0  0  0  0  0  0  0  0  0  0
   56.9521   34.1624   45.6332 H   0  0  0  0  0  0  0  0  0  0  0  0
   58.1610   35.3080   47.4320 H   0  0  0  0  0  0  0  0  0  0  0  0
  1  2  1  0
  2  3  2  0
  3  4  1  0
  4  5  2  0
  5  6  1  0
  6  7  1  0
  7  8  2  0
  8  9  1  0
  9 10  2  0
 10 11  1  0
  4 12  1  0
 12 13  1  0
 13 14  2  0
 14 15  1  0
 15 16  2  0
 16 17  1  0
 17 18  2  0
 12 19  2  0
 19 20  1  0
 20  2  1  0
 11  7  1  0
 18 13  1  0
  1 21  1  0
  1 22  1  0
  1 23  1  0
  6 24  1  0
  6 25  1  0
  8 26  1  0
  9 27  1  0
 10 28  1  0
 14 29  1  0
 15 30  1  0
 16 31  1  0
 17 32  1  0
 19 33  1  0
 20 34  1  0
M  END
>  <smiles>  (52) 
Cc1nc(=NCc2cccs2)c(-c2ccccn2)c[nH]1

>  <score_type>  (52) 
oracle

>  <origin>  (52) 
adg

>  <m_score__min__energy>  (52) 
-6.8200000000000003

>  <m_primary>  (52) 
energy

$$$$
52:0
     RDKit          3D

 55 58  0  0  0  0  0  0  0  0999 V2000
   56.7460   29.3720   43.0060 C   0  0  0  0  0  0  0  0  0  0  0  0
   56.0000   29.5840   44.2800 C   0  0  0  0  0  0  0  0  0  0  0  0
   55.5400   30.7250   44.5530 O   0  0  0  0  0  0  0  0  0  0  0  0
   55.9010   28.5070   45.2200 N   0  0  0  0  0  0  0  0  0  0  0  0
   56.9780   27.8900   45.9400 C   0  0  0  0  0  0  0  0  0  0  0  0
   57.1440   26.4940   45.9980 C   0  0  0  0  0  0  0  0  0  0  0  0
   58.2390   25.9430   46.6700 C   0  0  0  0  0  0  0  0  0  0  0  0
   59.1820   26.7750   47.2750 C   0  0  0  0  0  0  0  0  0  0  0  0
   59.0500   28.1650   47.1890 C   0  0  0  0  0  0  0  0  0  0  0  0
   60.0060   29.0070   47.8410 N   0  0  0  0  0  0  0  0  0  0  0  0
   60.5860   28.7510   49.1260 C   0  0  0  0  0  0  0  0  0  0  0  0
   61.1070   27.6230   49.3430 O   0  0  0  0  0  0  0  0  0  0  0  0
   60.7080   29.8290   50.1730 C   0  0  0  0  0  0  0  0  0  0  0  0
   61.8970   30.7380   49.9570 C   0  0  0  0  0  0  0  0  0  0  0  0
   61.6870   31.7650   49.0980 N   0  0  0  0  0  0  0  0  0  0  0  0
   62.4290   32.7970   48.6250 C   0  0  0  0  0  0  0  0  0  0  0  0
   61.8330   33.6730   47.6490 N   0  0  0  0  0  0  0  0  0  0  0  0
   62.4930   33.8390   46.3490 C   0  0  0  0  0  0  0  0  0  0  0  0
   60.5060   34.2670   47.8800 C   0  0  0  0  0  0  0  0  0  0  0  0
   59.4920   33.7910   46.8680 C   0  0  0  0  0  0  0  0  0  0  0  0
   58.9890   32.4780   46.9130 C   0  0  0  0  0  0  0  0  0  0  0  0
   58.1020   32.0270   45.9320 C   0  0  0  0  0  0  0  0  0  0  0  0
   57.7110   32.8800   44.8950 C   0  0  0  0  0  0  0  0  0  0  0  0
   58.2140   34.1820   44.8360 C   0  0  0  0  0  0  0  0  0  0  0  0
   59.1040   34.6350   45.8150 C   0  0  0  0  0  0  0  0  0  0  0  0
   63.6990   33.0560   49.0140 N   0  0  0  0  0  0  0  0  0  0  0  0
   64.5250   32.4180   49.8660 C   0  0  0  0  0  0  0  0  0  0  0  0
   65.8120   32.9310   50.0950 C   0  0  0  0  0  0  0  0  0  0  0  0
   66.5810   32.1720   50.9580 C   0  0  0  0  0  0  0  0  0  0  0  0
   65.6590   30.8600   51.4360 S   0  0  0  0  0  0  0  0  0  0  0  0
   64.2630   31.2340   50.5580 C   0  0  0  0  0  0  0  0  0  0  0  0
   63.1140   30.4470   50.6030 C   0  0  0  0  0  0  0  0  0  0  0  0
   63.1740   29.3930   51.2960 O   0  0  0  0  0  0  0  0  0  0  0  0
   57.9330   28.7160   46.5450 C   0  0  0  0  0  0  0  0  0  0  0  0
   57.7815   29.0777   43.2321 H   0  0  0  0  0  0  0  0  0  0  0  0
   56.2578   28.5770   42.4232 H   0  0  0  0  0  0  0  0  0  0  0  0
   56.7489   30.3049   42.4232 H   0  0  0  0  0  0  0  0  0  0  0  0
   56.4097   25.8340   45.5130 H   0  0  0  0  0  0  0  0  0  0  0  0
   58.3576   24.8507   46.7220 H   0  0  0  0  0  0  0  0  0  0  0  0
   60.0308   26.3369   47.8206 H   0  0  0  0  0  0  0  0  0  0  0  0
   59.7932   30.4396   50.1542 H   0  0  0  0  0  0  0  0  0  0  0  0
   60.8512   29.3285   51.1420 H   0  0  0  0  0  0  0  0  0  0  0  0
   63.5490   34.1046   46.5052 H   0  0  0  0  0  0  0  0  0  0  0  0
   62.4315   32.8974   45.7837 H   0  0  0  0  0  0  0  0  0  0  0  0
   61.9933   34.6394   45.7837 H   0  0  0  0  0  0  0  0  0  0  0  0
   60.1618   33.9877   48.8867 H   0  0  0  0  0  0  0  0  0  0  0  0
   60.5994   35.3586   47.7814 H   0  0  0  0  0  0  0  0  0  0  0  0
   59.2957   31.8025   47.7251 H   0  0  0  0  0  0  0  0  0  0  0  0
   57.7108   30.9998   45.9754 H   0  0  0  0  0  0  0  0  0  0  0  0
   57.0080   32.5261   44.1265 H   0  0  0  0  0  0  0  0  0  0  0  0
   57.9096   34.8518   44.0183 H   0  0  0  0  0  0  0  0  0  0  0  0
   59.5025   35.6588   45.7598 H   0  0  0  0  0  0  0  0  0  0  0  0
   66.1772   33.8575   49.6278 H   0  0  0  0  0  0  0  0  0  0  0  0
   67.6119   32.3910   51.2731 H   0  0  0  0  0  0  0  0  0  0  0  0
   57.8057   29.8082   46.5148 H   0  0  0  0  0  0  0  0  0  0  0  0
  1  2  1  0
  2  3  2  0
  2  4  1  0
  4  5  1  0
  5  6  2  0
  6  7  1  0
  7  8  2  0
  8  9  1  0
  9 10  1  0
 10 11  1  0
 11 12  2  0
 11 13  1  0
 13 14  1  0
 14 15  2  0
 15 16  1  0
 16 17  1  0
 17 18  1  0
 17 19  1  0
 19 20  1  0
 20 21  2  0
 21 22  1  0
 22 23  2  0
 23 24  1  0
 24 25  2  0
 16 26  2  0
 26 27  1  0
 27 28  1  0
 28 29  2  0
 29 30  1  0
 30 31  1  0
 31 32  1  0
 32 33  2  0
  9 34  2  0
 34  5  1  0
 32 14  1  0
 25 20  1  0
 31 27  2  0
  1 35  1  0
  1 36  1  0
  1 37  1  0
  6 38  1  0
  7 39  1  0
  8 40  1  0
 13 41  1  0
 13 42  1  0
 18 43  1  0
 18 44  1  0
 18 45  1  0
 19 46  1  0
 19 47  1  0
 21 48  1  0
 22 49  1  0
 23 50  1  0
 24 51  1  0
 25 52  1  0
 28 53  1  0
 29 54  1  0
 34 55  1  0
M  CHG  2   4  -1  10  -1
M  END
>  <UniqueID>  (53) 
46

>  <SMILES>  (53) 
CC(=O)[N-]c1cccc([N-]C(=O)Cc2nc(N(C)Cc3ccccc3)nc3ccsc3c2=O)c1

>  <Energy>  (53) 
107.63824238244447

>  <Genealogy>  (53) 
CC(=O)[N-]c1cccc([N-]C(=O)Cc2nc(N(C)Cc3ccccc3)nc3ccsc3c2=O)c1 (protonated)
CC(=O)[N-]c1cccc([N-]C(=O)Cc2nc(N(C)Cc3ccccc3)nc3ccsc3c2=O)c1 (3D coordinates assigned)
CC(=O)[N-]c1cccc([N-]C(=O)Cc2nc(N(C)Cc3ccccc3)nc3ccsc3c2=O)c1 (optimized conformer: 107.63824238244447 kcal/mol)

>  <smiles>  (53) 
CC(=O)Nc1cccc(NC(=O)Cc2nc(N(C)Cc3ccccc3)nc3ccsc3c2=O)c1

>  <score_type>  (53) 
oracle

>  <origin>  (53) 
adg

>  <m_score__min__energy>  (53) 
-12.98

>  <m_primary>  (53) 
energy

$$$$
53:0
     RDKit          3D

 32 35  0  0  0  0  0  0  0  0999 V2000
   56.1450   30.2220   44.7780 O   0  0  0  0  0  0  0  0  0  0  0  0
   57.1200   29.6280   45.3120 C   0  0  0  0  0  0  0  0  0  0  0  0
   58.3170   30.3520   45.6370 N   0  0  0  0  0  0  0  0  0  0  0  0
   58.4110   31.7830   45.5670 C   0  0  0  0  0  0  0  0  0  0  0  0
   57.4050   32.5020   44.9020 C   0  0  0  0  0  0  0  0  0  0  0  0
   57.4660   33.8970   44.8140 C   0  0  0  0  0  0  0  0  0  0  0  0
   58.5420   34.5910   45.3720 C   0  0  0  0  0  0  0  0  0  0  0  0
   59.5690   33.8890   46.0100 C   0  0  0  0  0  0  0  0  0  0  0  0
   60.6370   34.5520   46.5280 N   0  0  0  0  0  0  0  0  0  0  0  0
   61.6570   33.8830   47.1280 C   0  0  0  0  0  0  0  0  0  0  0  0
   61.6130   32.4880   47.2080 C   0  0  0  0  0  0  0  0  0  0  0  0
   62.5520   31.8510   47.7510 O   0  0  0  0  0  0  0  0  0  0  0  0
   60.5470   31.8200   46.6940 N   0  0  0  0  0  0  0  0  0  0  0  0
   59.5120   32.4810   46.1050 C   0  0  0  0  0  0  0  0  0  0  0  0
   57.0360   28.1800   45.5730 C   0  0  0  0  0  0  0  0  0  0  0  0
   55.8750   27.4780   45.6200 N   0  0  0  0  0  0  0  0  0  0  0  0
   56.2670   26.2050   45.8740 C   0  0  0  0  0  0  0  0  0  0  0  0
   55.4620   25.2450   45.9910 O   0  0  0  0  0  0  0  0  0  0  0  0
   57.6020   26.0800   45.9850 N   0  0  0  0  0  0  0  0  0  0  0  0
   58.3960   25.0100   46.2280 C   0  0  0  0  0  0  0  0  0  0  0  0
   59.7810   25.2250   46.2800 C   0  0  0  0  0  0  0  0  0  0  0  0
   60.2730   26.5310   46.0780 C   0  0  0  0  0  0  0  0  0  0  0  0
   59.4140   27.5670   45.8380 N   0  0  0  0  0  0  0  0  0  0  0  0
   58.0840   27.3110   45.7970 C   0  0  0  0  0  0  0  0  0  0  0  0
   59.2000   29.8110   45.7810 H   0  0  0  0  0  0  0  0  0  0  0  0
   56.5611   31.9636   44.4460 H   0  0  0  0  0  0  0  0  0  0  0  0
   56.6634   34.4494   44.3034 H   0  0  0  0  0  0  0  0  0  0  0  0
   58.5813   35.6885   45.3096 H   0  0  0  0  0  0  0  0  0  0  0  0
   62.5108   34.4353   47.5475 H   0  0  0  0  0  0  0  0  0  0  0  0
   57.9695   24.0074   46.3793 H   0  0  0  0  0  0  0  0  0  0  0  0
   60.4706   24.3904   46.4747 H   0  0  0  0  0  0  0  0  0  0  0  0
   61.3565   26.7176   46.1138 H   0  0  0  0  0  0  0  0  0  0  0  0
  1  2  2  0
  2  3  1  0
  3  4  1  0
  4  5  2  0
  5  6  1  0
  6  7  2  0
  7  8  1  0
  8  9  1  0
  9 10  2  0
 10 11  1  0
 11 12  2  0
 11 13  1  0
 13 14  1  0
  2 15  1  0
 15 16  1  0
 16 17  1  0
 17 18  2  0
 17 19  1  0
 19 20  1  0
 20 21  2  0
 21 22  1  0
 22 23  2  0
 23 24  1  0
 14  4  1  0
 24 15  2  0
 14  8  2  0
 24 19  1  0
  3 25  1  0
  5 26  1  0
  6 27  1  0
  7 28  1  0
 10 29  1  0
 20 30  1  0
 21 31  1  0
 22 32  1  0
M  CHG  2  13  -1  16  -1
M  END
>  <UniqueID>  (54) 
47

>  <SMILES>  (54) 
O=C(Nc1cccc2ncc(=O)[n-]c12)c1[n-]c(=O)n2cccnc12

>  <Energy>  (54) 
85.5866836629383

>  <Genealogy>  (54) 
O=C(Nc1cccc2ncc(=O)[n-]c12)c1[n-]c(=O)n2cccnc12 (protonated)
O=C(Nc1cccc2ncc(=O)[n-]c12)c1[n-]c(=O)n2cccnc12 (3D coordinates assigned)
O=C(Nc1cccc2ncc(=O)[n-]c12)c1[n-]c(=O)n2cccnc12 (optimized conformer: 85.5866836629383 kcal/mol)

>  <smiles>  (54) 
O=C(Nc1cccc2ncc(=O)[nH]c12)c1[nH]c(=O)n2cccnc12

>  <score_type>  (54) 
oracle

>  <origin>  (54) 
adg

>  <m_score__min__energy>  (54) 
-10.33

>  <m_primary>  (54) 
energy

$$$$
54:0
     RDKit          3D

 27 27  0  0  0  0  0  0  0  0999 V2000
   56.9630   28.5760   45.0850 C   0  0  0  0  0  0  0  0  0  0  0  0
   55.6710   29.2630   45.0450 N   0  0  0  0  0  0  0  0  0  0  0  0
   55.4000   29.7610   43.6900 C   0  0  0  0  0  0  0  0  0  0  0  0
   56.7090   30.1050   42.9700 C   0  0  0  0  0  0  0  0  0  0  0  0
   57.3260   31.4130   43.4710 C   0  0  0  0  0  0  0  0  0  0  0  0
   57.0220   31.5950   44.8520 O   0  0  0  0  0  0  0  0  0  0  0  0
   57.7470   32.4220   45.7220 C   0  0  0  0  0  0  0  0  0  0  0  0
   58.0700   33.7160   45.2930 C   0  0  0  0  0  0  0  0  0  0  0  0
   58.7970   34.5770   46.1210 C   0  0  0  0  0  0  0  0  0  0  0  0
   59.2120   34.1470   47.3850 C   0  0  0  0  0  0  0  0  0  0  0  0
   59.9190   34.9800   48.1870 F   0  0  0  0  0  0  0  0  0  0  0  0
   58.8910   32.8600   47.8250 C   0  0  0  0  0  0  0  0  0  0  0  0
   58.1610   31.9980   47.0000 C   0  0  0  0  0  0  0  0  0  0  0  0
   57.2616   28.4172   46.1317 H   0  0  0  0  0  0  0  0  0  0  0  0
   56.8775   27.6043   44.5767 H   0  0  0  0  0  0  0  0  0  0  0  0
   57.7208   29.1903   44.5767 H   0  0  0  0  0  0  0  0  0  0  0  0
   55.7310   30.0860   45.6890 H   0  0  0  0  0  0  0  0  0  0  0  0
   54.8667   28.9860   43.1199 H   0  0  0  0  0  0  0  0  0  0  0  0
   54.7855   30.6705   43.7626 H   0  0  0  0  0  0  0  0  0  0  0  0
   57.4280   29.2892   43.1360 H   0  0  0  0  0  0  0  0  0  0  0  0
   56.4802   30.2306   41.9014 H   0  0  0  0  0  0  0  0  0  0  0  0
   58.4175   31.3753   43.3397 H   0  0  0  0  0  0  0  0  0  0  0  0
   56.9111   32.2532   42.8950 H   0  0  0  0  0  0  0  0  0  0  0  0
   57.7494   34.0572   44.2976 H   0  0  0  0  0  0  0  0  0  0  0  0
   59.0424   35.5929   45.7778 H   0  0  0  0  0  0  0  0  0  0  0  0
   59.2130   32.5243   48.8218 H   0  0  0  0  0  0  0  0  0  0  0  0
   57.9095   30.9860   47.3502 H   0  0  0  0  0  0  0  0  0  0  0  0
  1  2  1  0
  2  3  1  0
  3  4  1  0
  4  5  1  0
  5  6  1  0
  6  7  1  0
  7  8  2  0
  8  9  1  0
  9 10  2  0
 10 11  1  0
 10 12  1  0
 12 13  2  0
 13  7  1  0
  1 14  1  0
  1 15  1  0
  1 16  1  0
  2 17  1  0
  3 18  1  0
  3 19  1  0
  4 20  1  0
  4 21  1  0
  5 22  1  0
  5 23  1  0
  8 24  1  0
  9 25  1  0
 12 26  1  0
 13 27  1  0
M  END
>  <UniqueID>  (55) 
48

>  <SMILES>  (55) 
CNCCCOc1ccc(F)cc1

>  <Energy>  (55) 
18.593337794413635

>  <Genealogy>  (55) 
CNCCCOc1ccc(F)cc1 (3D coordinates assigned)
CNCCCOc1ccc(F)cc1 (optimized conformer: 18.593337794413635 kcal/mol)

>  <smiles>  (55) 
CNCCCOc1ccc(F)cc1

>  <score_type>  (55) 
oracle

>  <origin>  (55) 
adg

>  <m_score__min__energy>  (55) 
-5.1100000000000003

>  <m_primary>  (55) 
energy

$$$$
55:0
     RDKit          3D

 32 34  0  0  0  0  0  0  0  0999 V2000
   56.4580   29.0460   42.5810 O   0  0  0  0  0  0  0  0  0  0  0  0
   56.9000   29.5410   43.9300 S   0  0  0  0  0  0  0  0  0  0  0  0
   55.6950   30.0100   44.6950 O   0  0  0  0  0  0  0  0  0  0  0  0
   57.9980   30.8680   43.7180 N   0  0  0  0  0  0  0  0  0  0  0  0
   58.0450   32.0050   44.6010 C   0  0  0  0  0  0  0  0  0  0  0  0
   57.7800   33.3030   44.1250 C   0  0  0  0  0  0  0  0  0  0  0  0
   57.8290   34.4020   44.9850 C   0  0  0  0  0  0  0  0  0  0  0  0
   58.1380   34.2290   46.3350 C   0  0  0  0  0  0  0  0  0  0  0  0
   58.3970   32.9470   46.8340 C   0  0  0  0  0  0  0  0  0  0  0  0
   58.7090   32.7490   48.1850 C   0  0  0  0  0  0  0  0  0  0  0  0
   58.9690   31.4610   48.6570 C   0  0  0  0  0  0  0  0  0  0  0  0
   58.9160   30.3830   47.7730 C   0  0  0  0  0  0  0  0  0  0  0  0
   58.6120   30.5870   46.4640 N   0  0  0  0  0  0  0  0  0  0  0  0
   58.3490   31.8290   45.9680 C   0  0  0  0  0  0  0  0  0  0  0  0
   57.6840   28.2550   44.8470 C   0  0  0  0  0  0  0  0  0  0  0  0
   59.0820   28.1320   44.8420 C   0  0  0  0  0  0  0  0  0  0  0  0
   59.7010   27.1220   45.5850 C   0  0  0  0  0  0  0  0  0  0  0  0
   58.9300   26.2290   46.3340 C   0  0  0  0  0  0  0  0  0  0  0  0
   59.5320   25.2520   47.0560 F   0  0  0  0  0  0  0  0  0  0  0  0
   57.5370   26.3460   46.3410 C   0  0  0  0  0  0  0  0  0  0  0  0
   56.9130   27.3530   45.5980 C   0  0  0  0  0  0  0  0  0  0  0  0
   55.5580   27.4500   45.6170 F   0  0  0  0  0  0  0  0  0  0  0  0
   58.5560   30.8750   42.8350 H   0  0  0  0  0  0  0  0  0  0  0  0
   57.5316   33.4532   43.0640 H   0  0  0  0  0  0  0  0  0  0  0  0
   57.6228   35.4101   44.5962 H   0  0  0  0  0  0  0  0  0  0  0  0
   58.1780   35.0994   47.0064 H   0  0  0  0  0  0  0  0  0  0  0  0
   58.7491   33.6065   48.8728 H   0  0  0  0  0  0  0  0  0  0  0  0
   59.2136   31.2976   49.7169 H   0  0  0  0  0  0  0  0  0  0  0  0
   59.1208   29.3651   48.1363 H   0  0  0  0  0  0  0  0  0  0  0  0
   59.6923   28.8318   44.2522 H   0  0  0  0  0  0  0  0  0  0  0  0
   60.7972   27.0302   45.5799 H   0  0  0  0  0  0  0  0  0  0  0  0
   56.9303   25.6443   46.9323 H   0  0  0  0  0  0  0  0  0  0  0  0
  1  2  2  0
  2  3  2  0
  2  4  1  0
  4  5  1  0
  5  6  2  0
  6  7  1  0
  7  8  2  0
  8  9  1  0
  9 10  2  0
 10 11  1  0
 11 12  2  0
 12 13  1  0
 13 14  2  0
  2 15  1  0
 15 16  2  0
 16 17  1  0
 17 18  2  0
 18 19  1  0
 18 20  1  0
 20 21  2  0
 21 22  1  0
 14  5  1  0
 21 15  1  0
 14  9  1  0
  4 23  1  0
  6 24  1  0
  7 25  1  0
  8 26  1  0
 10 27  1  0
 11 28  1  0
 12 29  1  0
 16 30  1  0
 17 31  1  0
 20 32  1  0
M  END
>  <UniqueID>  (56) 
49

>  <SMILES>  (56) 
O=S(=O)(Nc1cccc2cccnc12)c1ccc(F)cc1F

>  <Energy>  (56) 
42.32999254462227

>  <Genealogy>  (56) 
O=S(=O)(Nc1cccc2cccnc12)c1ccc(F)cc1F (3D coordinates assigned)
O=S(=O)(Nc1cccc2cccnc12)c1ccc(F)cc1F (optimized conformer: 42.32999254462227 kcal/mol)

>  <smiles>  (56) 
O=S(=O)(Nc1cccc2cccnc12)c1ccc(F)cc1F

>  <score_type>  (56) 
oracle

>  <origin>  (56) 
adg

>  <m_score__min__energy>  (56) 
-7.96

>  <m_primary>  (56) 
energy

$$$$
56:0
     RDKit          3D

 19 20  0  0  0  0  0  0  0  0999 V2000
   57.8223   34.2412   47.6789 H   0  0  0  0  0  0  0  0  0  0  0  0
   57.8970   33.8310   46.6610 C   0  0  0  0  0  0  0  0  0  0  0  0
   57.3910   32.6840   46.2700 O   0  0  0  0  0  0  0  0  0  0  0  0
   57.6660   32.5160   44.9970 C   0  0  0  0  0  0  0  0  0  0  0  0
   57.2660   31.3270   44.2250 C   0  0  0  0  0  0  0  0  0  0  0  0
   57.3010   31.3730   42.9680 O   0  0  0  0  0  0  0  0  0  0  0  0
   56.7680   30.1440   44.8640 N   0  0  0  0  0  0  0  0  0  0  0  0
   57.1570   28.9300   44.6040 C   0  0  0  0  0  0  0  0  0  0  0  0
   57.0250   27.5990   45.6340 S   0  0  0  0  0  0  0  0  0  0  0  0
   57.7910   26.5570   44.5540 C   0  0  0  0  0  0  0  0  0  0  0  0
   57.9835   25.4862   44.7164 H   0  0  0  0  0  0  0  0  0  0  0  0
   58.1380   27.2870   43.4200 C   0  0  0  0  0  0  0  0  0  0  0  0
   58.6553   26.8362   42.5603 H   0  0  0  0  0  0  0  0  0  0  0  0
   57.7880   28.5990   43.4580 N   0  0  0  0  0  0  0  0  0  0  0  0
   57.9890   29.2720   42.6850 H   0  0  0  0  0  0  0  0  0  0  0  0
   58.3920   33.5950   44.5280 C   0  0  0  0  0  0  0  0  0  0  0  0
   58.7752   33.7448   43.5078 H   0  0  0  0  0  0  0  0  0  0  0  0
   58.5360   34.4440   45.6040 C   0  0  0  0  0  0  0  0  0  0  0  0
   59.0552   35.4137   45.6170 H   0  0  0  0  0  0  0  0  0  0  0  0
  1  2  1  0
  2  3  1  0
  3  4  1  0
  4  5  1  0
  5  6  2  0
  5  7  1  0
  7  8  2  0
  8  9  1  0
  9 10  1  0
 10 11  1  0
 10 12  2  0
 12 13  1  0
 12 14  1  0
 14 15  1  0
  4 16  2  0
 16 17  1  0
 16 18  1  0
 18 19  1  0
 18  2  2  0
 14  8  1  0
M  END
>  <UniqueID>  (57) 
50

>  <SMILES>  (57) 
O=C(/N=c1/[nH]ccs1)c1ccco1

>  <Energy>  (57) 
81.91804408317128

>  <Genealogy>  (57) 
O=C(/N=c1/[nH]ccs1)c1ccco1 (cis-trans isomerization)
O=C(/N=c1/[nH]ccs1)c1ccco1 (3D coordinates assigned)
O=C(/N=c1/[nH]ccs1)c1ccco1 (optimized conformer: 81.91804408317128 kcal/mol)

>  <smiles>  (57) 
O=C(N=c1[nH]ccs1)c1ccco1

>  <score_type>  (57) 
oracle

>  <origin>  (57) 
adg

>  <m_score__min__energy>  (57) 
-5.4500000000000002

>  <m_primary>  (57) 
energy

$$$$
57:0
     RDKit          3D

 32 34  0  0  1  0  0  0  0  0999 V2000
   57.0890   26.6510   45.7060 C   0  0  0  0  0  0  0  0  0  0  0  0
   56.1640   27.7170   45.6070 O   0  0  0  0  0  0  0  0  0  0  0  0
   56.6070   28.9360   45.1090 C   0  0  0  0  0  0  0  0  0  0  0  0
   56.3030   29.3840   43.8370 C   0  0  0  0  0  0  0  0  0  0  0  0
   56.7840   30.6090   43.4170 C   0  0  0  0  0  0  0  0  0  0  0  0
   57.5630   31.4050   44.2350 C   0  0  0  0  0  0  0  0  0  0  0  0
   57.8720   30.9680   45.5040 C   0  0  0  0  0  0  0  0  0  0  0  0
   57.3880   29.7370   45.9240 C   0  0  0  0  0  0  0  0  0  0  0  0
   58.6990   31.7410   46.4650 C   0  0  2  0  0  0  0  0  0  0  0  0
   57.8770   32.6010   47.3890 C   0  0  0  0  0  0  0  0  0  0  0  0
   56.9980   33.4970   46.7080 N   0  0  0  0  0  0  0  0  0  0  0  0
   57.5580   34.2150   45.6130 C   0  0  0  0  0  0  0  0  0  0  0  0
   58.5880   33.5090   44.8100 C   0  0  2  0  0  0  0  0  0  0  0  0
   58.0190   32.6990   43.6710 C   0  0  0  0  0  0  0  0  0  0  0  0
   59.5450   32.6960   45.6510 C   0  0  0  0  0  0  0  0  0  0  0  0
   57.2812   26.4296   46.7662 H   0  0  0  0  0  0  0  0  0  0  0  0
   56.6741   25.7587   45.2144 H   0  0  0  0  0  0  0  0  0  0  0  0
   58.0309   26.9360   45.2144 H   0  0  0  0  0  0  0  0  0  0  0  0
   55.6839   28.7708   43.1656 H   0  0  0  0  0  0  0  0  0  0  0  0
   56.5402   30.9605   42.4036 H   0  0  0  0  0  0  0  0  0  0  0  0
   57.6330   29.3865   46.9375 H   0  0  0  0  0  0  0  0  0  0  0  0
   59.2727   31.0220   47.0682 H   0  0  0  0  0  0  0  0  0  0  0  0
   57.2731   31.9427   48.0308 H   0  0  0  0  0  0  0  0  0  0  0  0
   58.5815   33.2180   47.9660 H   0  0  0  0  0  0  0  0  0  0  0  0
   56.7020   34.2180   47.4310 H   0  0  0  0  0  0  0  0  0  0  0  0
   56.7346   34.4853   44.9355 H   0  0  0  0  0  0  0  0  0  0  0  0
   58.0804   35.0709   46.0653 H   0  0  0  0  0  0  0  0  0  0  0  0
   59.1770   34.3155   44.3489 H   0  0  0  0  0  0  0  0  0  0  0  0
   57.1704   33.2318   43.2172 H   0  0  0  0  0  0  0  0  0  0  0  0
   58.7772   32.5382   42.8905 H   0  0  0  0  0  0  0  0  0  0  0  0
   60.2360   32.1349   45.0047 H   0  0  0  0  0  0  0  0  0  0  0  0
   60.1507   33.3437   46.3018 H   0  0  0  0  0  0  0  0  0  0  0  0
  1  2  1  0
  2  3  1  0
  3  4  2  0
  4  5  1  0
  5  6  2  0
  6  7  1  0
  7  8  2  0
  7  9  1  0
  9 10  1  0
 10 11  1  0
 11 12  1  0
 12 13  1  0
 13 14  1  0
 13 15  1  0
  8  3  1  0
 15  9  1  0
 14  6  1  0
  1 16  1  0
  1 17  1  0
  1 18  1  0
  4 19  1  0
  5 20  1  0
  8 21  1  0
  9 22  1  1
 10 23  1  0
 10 24  1  0
 11 25  1  0
 12 26  1  0
 12 27  1  0
 13 28  1  6
 14 29  1  0
 14 30  1  0
 15 31  1  0
 15 32  1  0
M  END
>  <smiles>  (58) 
COc1ccc2c(c1)C1CNCC(C2)C1

>  <score_type>  (58) 
oracle

>  <origin>  (58) 
adg

>  <m_score__min__energy>  (58) 
-6.4199999999999999

>  <m_primary>  (58) 
energy

$$$$
58:0
     RDKit          3D

 49 51  0  0  0  0  0  0  0  0999 V2000
   60.5220   28.6690   50.4850 C   0  0  0  0  0  0  0  0  0  0  0  0
   59.6200   29.7790   50.9380 C   0  0  0  0  0  0  0  0  0  0  0  0
   59.3680   30.8710   50.0960 C   0  0  0  0  0  0  0  0  0  0  0  0
   58.4920   31.8820   50.4980 C   0  0  0  0  0  0  0  0  0  0  0  0
   57.8450   31.8100   51.7360 C   0  0  0  0  0  0  0  0  0  0  0  0
   56.9640   32.8340   52.0900 O   0  0  0  0  0  0  0  0  0  0  0  0
   58.0880   30.7110   52.5850 C   0  0  0  0  0  0  0  0  0  0  0  0
   57.4080   30.5900   53.8850 C   0  0  0  0  0  0  0  0  0  0  0  0
   57.3630   31.6030   54.6330 O   0  0  0  0  0  0  0  0  0  0  0  0
   56.7890   29.3490   54.2930 N   0  0  0  0  0  0  0  0  0  0  0  0
   56.1130   29.2450   55.5960 C   0  0  0  0  0  0  0  0  0  0  0  0
   54.7940   28.4380   55.5060 C   0  0  0  0  0  0  0  0  0  0  0  0
   54.6560   27.6330   54.2680 N   0  0  0  0  0  0  0  0  0  0  0  0
   53.9740   28.3940   53.1910 C   0  0  0  0  0  0  0  0  0  0  0  0
   53.2250   29.6350   53.7210 C   0  0  2  0  0  0  0  0  0  0  0  0
   52.2440   29.2440   54.6480 O   0  0  0  0  0  0  0  0  0  0  0  0
   52.5620   30.3750   52.5800 C   0  0  0  0  0  0  0  0  0  0  0  0
   52.5700   29.8350   51.2810 C   0  0  0  0  0  0  0  0  0  0  0  0
   51.9400   30.5110   50.2330 C   0  0  0  0  0  0  0  0  0  0  0  0
   51.2920   31.7270   50.4690 C   0  0  0  0  0  0  0  0  0  0  0  0
   50.6660   32.3920   49.4210 O   0  0  0  0  0  0  0  0  0  0  0  0
   51.2690   32.2680   51.7600 C   0  0  0  0  0  0  0  0  0  0  0  0
   50.6200   33.4720   52.0010 O   0  0  0  0  0  0  0  0  0  0  0  0
   51.9010   31.5940   52.8110 C   0  0  0  0  0  0  0  0  0  0  0  0
   55.9590   27.0510   53.8820 C   0  0  0  0  0  0  0  0  0  0  0  0
   56.9660   28.1360   53.4800 C   0  0  0  0  0  0  0  0  0  0  0  0
   58.9660   29.6980   52.1760 C   0  0  0  0  0  0  0  0  0  0  0  0
   60.9399   28.1547   51.3630 H   0  0  0  0  0  0  0  0  0  0  0  0
   59.9467   27.9528   49.8799 H   0  0  0  0  0  0  0  0  0  0  0  0
   61.3407   29.0856   49.8799 H   0  0  0  0  0  0  0  0  0  0  0  0
   59.8619   30.9320   49.1150 H   0  0  0  0  0  0  0  0  0  0  0  0
   58.3096   32.7413   49.8360 H   0  0  0  0  0  0  0  0  0  0  0  0
   56.6550   32.9830   53.0420 H   0  0  0  0  0  0  0  0  0  0  0  0
   56.7873   28.7442   56.3063 H   0  0  0  0  0  0  0  0  0  0  0  0
   55.8648   30.2630   55.9308 H   0  0  0  0  0  0  0  0  0  0  0  0
   54.7476   27.7559   56.3677 H   0  0  0  0  0  0  0  0  0  0  0  0
   53.9747   29.1720   55.4982 H   0  0  0  0  0  0  0  0  0  0  0  0
   54.7281   28.7233   52.4610 H   0  0  0  0  0  0  0  0  0  0  0  0
   53.2289   27.7266   52.7333 H   0  0  0  0  0  0  0  0  0  0  0  0
   53.9531   30.2984   54.2107 H   0  0  0  0  0  0  0  0  0  0  0  0
   52.5110   28.3480   54.9860 H   0  0  0  0  0  0  0  0  0  0  0  0
   53.0744   28.8764   51.0895 H   0  0  0  0  0  0  0  0  0  0  0  0
   51.9539   30.0850   49.2189 H   0  0  0  0  0  0  0  0  0  0  0  0
   51.8804   32.0209   53.8246 H   0  0  0  0  0  0  0  0  0  0  0  0
   56.3642   26.4863   54.7346 H   0  0  0  0  0  0  0  0  0  0  0  0
   55.7983   26.3930   53.0153 H   0  0  0  0  0  0  0  0  0  0  0  0
   57.9862   27.7513   53.6258 H   0  0  0  0  0  0  0  0  0  0  0  0
   56.7981   28.3950   52.4242 H   0  0  0  0  0  0  0  0  0  0  0  0
   59.1436   28.8325   52.8312 H   0  0  0  0  0  0  0  0  0  0  0  0
  1  2  1  0
  2  3  2  0
  3  4  1  0
  4  5  2  0
  5  6  1  0
  5  7  1  0
  7  8  1  0
  8  9  2  0
  8 10  1  0
 10 11  1  0
 11 12  1  0
 12 13  1  0
 13 14  1  0
 14 15  1  0
 15 16  1  0
 15 17  1  0
 17 18  2  0
 18 19  1  0
 19 20  2  0
 20 21  1  0
 20 22  1  0
 22 23  1  0
 22 24  2  0
 13 25  1  0
 25 26  1  0
  7 27  2  0
 27  2  1  0
 26 10  1  0
 24 17  1  0
  1 28  1  0
  1 29  1  0
  1 30  1  0
  3 31  1  0
  4 32  1  0
  6 33  1  0
 11 34  1  0
 11 35  1  0
 12 36  1  0
 12 37  1  0
 14 38  1  0
 14 39  1  0
 15 40  1  1
 16 41  1  0
 18 42  1  0
 19 43  1  0
 24 44  1  0
 25 45  1  0
 25 46  1  0
 26 47  1  0
 26 48  1  0
 27 49  1  0
M  CHG  2  21  -1  23  -1
M  END
>  <UniqueID>  (59) 
51

>  <SMILES>  (59) 
Cc1ccc(O)c(C(=O)N2CCN(C[C@H](O)c3ccc([O-])c([O-])c3)CC2)c1

>  <Energy>  (59) 
67.32422461527108

>  <Genealogy>  (59) 
Cc1ccc(O)c(C(=O)N2CCN(CC(O)c3ccc([O-])c([O-])c3)CC2)c1 (protonated)
Cc1ccc(O)c(C(=O)N2CCN(C[C@H](O)c3ccc([O-])c([O-])c3)CC2)c1 (chirality)
Cc1ccc(O)c(C(=O)N2CCN(C[C@H](O)c3ccc([O-])c([O-])c3)CC2)c1 (3D coordinates assigned)
Cc1ccc(O)c(C(=O)N2CCN(C[C@H](O)c3ccc([O-])c([O-])c3)CC2)c1 (nonaromatic ring conformer: 67.32422461527108 kcal/mol)

>  <smiles>  (59) 
Cc1ccc(O)c(C(=O)N2CCN(CC(O)c3ccc(O)c(O)c3)CC2)c1

>  <score_type>  (59) 
oracle

>  <origin>  (59) 
adg

>  <m_score__min__energy>  (59) 
-16.050000000000001

>  <m_primary>  (59) 
energy

$$$$
59:0
     RDKit          3D

 34 36  0  0  0  0  0  0  0  0999 V2000
   62.7470   32.5330   47.4960 N   0  0  0  0  0  0  0  0  0  0  0  0
   61.6800   32.7400   47.0990 C   0  0  0  0  0  0  0  0  0  0  0  0
   60.3460   32.9970   46.6050 C   0  0  0  0  0  0  0  0  0  0  0  0
   60.0120   34.3030   46.2210 C   0  0  0  0  0  0  0  0  0  0  0  0
   58.7310   34.5920   45.7450 C   0  0  0  0  0  0  0  0  0  0  0  0
   57.7750   33.5790   45.6520 C   0  0  0  0  0  0  0  0  0  0  0  0
   58.0970   32.2730   46.0310 C   0  0  0  0  0  0  0  0  0  0  0  0
   59.3840   31.9640   46.5030 C   0  0  0  0  0  0  0  0  0  0  0  0
   59.7080   30.5430   46.9020 C   0  0  0  0  0  0  0  0  0  0  0  0
   58.5160   29.7650   47.0180 O   0  0  0  0  0  0  0  0  0  0  0  0
   58.3990   28.3940   46.7320 C   0  0  0  0  0  0  0  0  0  0  0  0
   59.0630   27.4220   47.5070 C   0  0  0  0  0  0  0  0  0  0  0  0
   58.8950   26.0630   47.2390 C   0  0  0  0  0  0  0  0  0  0  0  0
   58.0650   25.6530   46.1960 C   0  0  0  0  0  0  0  0  0  0  0  0
   57.8300   23.7920   45.8380 Br  0  0  0  0  0  0  0  0  0  0  0  0
   57.4090   26.6040   45.4110 C   0  0  0  0  0  0  0  0  0  0  0  0
   57.5800   27.9780   45.6560 C   0  0  0  0  0  0  0  0  0  0  0  0
   56.8530   28.9420   44.7950 C   0  0  0  0  0  0  0  0  0  0  0  0
   57.3820   29.7370   43.7910 C   0  0  0  0  0  0  0  0  0  0  0  0
   56.3180   30.4440   43.2730 C   0  0  0  0  0  0  0  0  0  0  0  0
   55.2070   30.0380   43.9810 C   0  0  0  0  0  0  0  0  0  0  0  0
   55.5560   29.1430   44.8740 O   0  0  0  0  0  0  0  0  0  0  0  0
   60.7622   35.1041   46.2948 H   0  0  0  0  0  0  0  0  0  0  0  0
   58.4753   35.6184   45.4432 H   0  0  0  0  0  0  0  0  0  0  0  0
   56.7659   33.8093   45.2795 H   0  0  0  0  0  0  0  0  0  0  0  0
   57.3372   31.4808   45.9593 H   0  0  0  0  0  0  0  0  0  0  0  0
   60.3593   30.0934   46.1380 H   0  0  0  0  0  0  0  0  0  0  0  0
   60.2161   30.5576   47.8775 H   0  0  0  0  0  0  0  0  0  0  0  0
   59.7199   27.7377   48.3309 H   0  0  0  0  0  0  0  0  0  0  0  0
   59.4181   25.3138   47.8514 H   0  0  0  0  0  0  0  0  0  0  0  0
   56.7518   26.2747   44.5927 H   0  0  0  0  0  0  0  0  0  0  0  0
   58.4336   29.7925   43.4730 H   0  0  0  0  0  0  0  0  0  0  0  0
   56.3492   31.1831   42.4589 H   0  0  0  0  0  0  0  0  0  0  0  0
   54.1836   30.4083   43.8213 H   0  0  0  0  0  0  0  0  0  0  0  0
  1  2  3  0
  2  3  1  0
  3  4  2  0
  4  5  1  0
  5  6  2  0
  6  7  1  0
  7  8  2  0
  8  9  1  0
  9 10  1  0
 10 11  1  0
 11 12  2  0
 12 13  1  0
 13 14  2  0
 14 15  1  0
 14 16  1  0
 16 17  2  0
 17 18  1  0
 18 19  2  0
 19 20  1  0
 20 21  2  0
 21 22  1  0
  8  3  1  0
 17 11  1  0
 22 18  1  0
  4 23  1  0
  5 24  1  0
  6 25  1  0
  7 26  1  0
  9 27  1  0
  9 28  1  0
 12 29  1  0
 13 30  1  0
 16 31  1  0
 19 32  1  0
 20 33  1  0
 21 34  1  0
M  END
>  <UniqueID>  (60) 
52

>  <SMILES>  (60) 
N#Cc1ccccc1COc1ccc(Br)cc1-c1ccco1

>  <Energy>  (60) 
65.90659702829645

>  <Genealogy>  (60) 
N#Cc1ccccc1COc1ccc(Br)cc1-c1ccco1 (3D coordinates assigned)
N#Cc1ccccc1COc1ccc(Br)cc1-c1ccco1 (optimized conformer: 65.90659702829645 kcal/mol)

>  <smiles>  (60) 
N#Cc1ccccc1COc1ccc(Br)cc1-c1ccco1

>  <score_type>  (60) 
oracle

>  <origin>  (60) 
adg

>  <m_score__min__energy>  (60) 
-7.5899999999999999

>  <m_primary>  (60) 
energy

$$$$
60:0
     RDKit          3D

 29 30  0  0  0  0  0  0  0  0999 V2000
   58.1720   25.8380   47.8720 F   0  0  0  0  0  0  0  0  0  0  0  0
   58.2710   26.8380   46.9620 C   0  0  0  0  0  0  0  0  0  0  0  0
   57.8050   26.6440   45.6590 C   0  0  0  0  0  0  0  0  0  0  0  0
   57.9090   27.6720   44.7160 C   0  0  0  0  0  0  0  0  0  0  0  0
   58.4950   28.9030   45.0670 C   0  0  0  0  0  0  0  0  0  0  0  0
   58.6100   29.9630   44.0960 N   0  0  0  0  0  0  0  0  0  0  0  0
   57.3500   30.6450   43.9170 C   0  0  0  0  0  0  0  0  0  0  0  0
   56.2620   30.0720   42.8300 S   0  0  0  0  0  0  0  0  0  0  0  0
   56.9110   31.6240   44.8700 N   0  0  0  0  0  0  0  0  0  0  0  0
   57.7560   32.6730   45.3550 C   0  0  0  0  0  0  0  0  0  0  0  0
   58.1580   33.7000   44.4890 C   0  0  0  0  0  0  0  0  0  0  0  0
   58.9960   34.7210   44.9490 C   0  0  0  0  0  0  0  0  0  0  0  0
   59.4480   34.7120   46.2710 C   0  0  0  0  0  0  0  0  0  0  0  0
   59.0760   33.6760   47.1320 C   0  0  0  0  0  0  0  0  0  0  0  0
   59.6490   33.6600   48.7900 Cl  0  0  0  0  0  0  0  0  0  0  0  0
   58.2430   32.6500   46.6710 C   0  0  0  0  0  0  0  0  0  0  0  0
   58.9400   29.0950   46.3900 C   0  0  0  0  0  0  0  0  0  0  0  0
   58.8340   28.0630   47.3280 C   0  0  0  0  0  0  0  0  0  0  0  0
   57.3556   25.6812   45.3743 H   0  0  0  0  0  0  0  0  0  0  0  0
   57.5308   27.5177   43.6946 H   0  0  0  0  0  0  0  0  0  0  0  0
   58.9220   29.5910   43.1700 H   0  0  0  0  0  0  0  0  0  0  0  0
   59.3440   30.6350   44.4200 H   0  0  0  0  0  0  0  0  0  0  0  0
   55.9370   31.5560   45.2450 H   0  0  0  0  0  0  0  0  0  0  0  0
   57.8132   33.7027   43.4444 H   0  0  0  0  0  0  0  0  0  0  0  0
   59.2993   35.5313   44.2697 H   0  0  0  0  0  0  0  0  0  0  0  0
   60.0977   35.5217   46.6347 H   0  0  0  0  0  0  0  0  0  0  0  0
   57.9691   31.8229   47.3425 H   0  0  0  0  0  0  0  0  0  0  0  0
   59.3731   30.0617   46.6867 H   0  0  0  0  0  0  0  0  0  0  0  0
   59.1946   28.2162   48.3559 H   0  0  0  0  0  0  0  0  0  0  0  0
  1  2  1  0
  2  3  2  0
  3  4  1  0
  4  5  2  0
  5  6  1  0
  6  7  1  0
  7  8  2  0
  7  9  1  0
  9 10  1  0
 10 11  2  0
 11 12  1  0
 12 13  2  0
 13 14  1  0
 14 15  1  0
 14 16  2  0
  5 17  1  0
 17 18  2  0
 18  2  1  0
 16 10  1  0
  3 19  1  0
  4 20  1  0
  6 21  1  0
  6 22  1  0
  9 23  1  0
 11 24  1  0
 12 25  1  0
 13 26  1  0
 16 27  1  0
 17 28  1  0
 18 29  1  0
M  CHG  1   6   1
M  END
>  <UniqueID>  (61) 
53

>  <SMILES>  (61) 
Fc1ccc([NH2+]C(=S)Nc2cccc(Cl)c2)cc1

>  <Energy>  (61) 
36.666562049037445

>  <Genealogy>  (61) 
Fc1ccc([NH2+]C(=S)Nc2cccc(Cl)c2)cc1 (protonated)
Fc1ccc([NH2+]C(=S)Nc2cccc(Cl)c2)cc1 (3D coordinates assigned)
Fc1ccc([NH2+]C(=S)Nc2cccc(Cl)c2)cc1 (optimized conformer: 36.666562049037445 kcal/mol)

>  <smiles>  (61) 
Fc1ccc(NC(=S)Nc2cccc(Cl)c2)cc1

>  <score_type>  (61) 
oracle

>  <origin>  (61) 
adg

>  <m_score__min__energy>  (61) 
-5.5599999999999996

>  <m_primary>  (61) 
energy

$$$$
61:0
     RDKit          3D

 36 37  0  0  0  0  0  0  0  0999 V2000
   58.3560   30.0810   44.0870 C   0  0  0  0  0  0  0  0  0  0  0  0
   57.9660   29.0840   45.1330 C   0  0  0  0  0  0  0  0  0  0  0  0
   56.9690   28.1900   44.9710 N   0  0  0  0  0  0  0  0  0  0  0  0
   56.9900   27.4320   46.0850 C   0  0  0  0  0  0  0  0  0  0  0  0
   56.0920   26.2990   46.3400 C   0  0  0  0  0  0  0  0  0  0  0  0
   56.5100   25.2860   46.9580 O   0  0  0  0  0  0  0  0  0  0  0  0
   54.7750   26.3390   45.8970 O   0  0  0  0  0  0  0  0  0  0  0  0
   58.0010   27.8730   46.9130 C   0  0  0  0  0  0  0  0  0  0  0  0
   58.6070   28.9160   46.3120 N   0  0  0  0  0  0  0  0  0  0  0  0
   59.8100   29.5990   46.7860 C   0  0  0  0  0  0  0  0  0  0  0  0
   59.4380   30.7620   47.6010 N   0  0  0  0  0  0  0  0  0  0  0  0
   59.2450   30.6330   49.0510 C   0  0  0  0  0  0  0  0  0  0  0  0
   60.1940   29.5910   49.6410 C   0  0  0  0  0  0  0  0  0  0  0  0
   60.2110   29.7140   51.0190 F   0  0  0  0  0  0  0  0  0  0  0  0
   61.4770   29.7860   49.1630 F   0  0  0  0  0  0  0  0  0  0  0  0
   59.7690   28.3170   49.3090 F   0  0  0  0  0  0  0  0  0  0  0  0
   59.3460   32.0520   46.9740 C   0  0  0  0  0  0  0  0  0  0  0  0
   58.1000   32.5160   46.5250 C   0  0  0  0  0  0  0  0  0  0  0  0
   57.9880   33.7770   45.9340 C   0  0  0  0  0  0  0  0  0  0  0  0
   59.1170   34.5880   45.7960 C   0  0  0  0  0  0  0  0  0  0  0  0
   60.3590   34.1400   46.2520 C   0  0  0  0  0  0  0  0  0  0  0  0
   60.4810   32.8780   46.8440 C   0  0  0  0  0  0  0  0  0  0  0  0
   62.0510   32.3810   47.4590 Cl  0  0  0  0  0  0  0  0  0  0  0  0
   58.7156   31.0002   44.5726 H   0  0  0  0  0  0  0  0  0  0  0  0
   59.1560   29.6606   43.4599 H   0  0  0  0  0  0  0  0  0  0  0  0
   57.4831   30.3149   43.4599 H   0  0  0  0  0  0  0  0  0  0  0  0
   56.3350   28.0910   44.1450 H   0  0  0  0  0  0  0  0  0  0  0  0
   58.2662   27.4479   47.8923 H   0  0  0  0  0  0  0  0  0  0  0  0
   60.4079   28.9041   47.3940 H   0  0  0  0  0  0  0  0  0  0  0  0
   60.3982   29.9376   45.9203 H   0  0  0  0  0  0  0  0  0  0  0  0
   59.4382   31.6056   49.5272 H   0  0  0  0  0  0  0  0  0  0  0  0
   58.2104   30.3097   49.2387 H   0  0  0  0  0  0  0  0  0  0  0  0
   57.2071   31.8837   46.6389 H   0  0  0  0  0  0  0  0  0  0  0  0
   57.0098   34.1316   45.5770 H   0  0  0  0  0  0  0  0  0  0  0  0
   59.0280   35.5796   45.3282 H   0  0  0  0  0  0  0  0  0  0  0  0
   61.2455   34.7824   46.1452 H   0  0  0  0  0  0  0  0  0  0  0  0
  1  2  1  0
  2  3  2  0
  3  4  1  0
  4  5  1  0
  5  6  2  0
  5  7  1  0
  4  8  2  0
  8  9  1  0
  9 10  1  0
 10 11  1  0
 11 12  1  0
 12 13  1  0
 13 14  1  0
 13 15  1  0
 13 16  1  0
 11 17  1  0
 17 18  2  0
 18 19  1  0
 19 20  2  0
 20 21  1  0
 21 22  2  0
 22 23  1  0
  9  2  1  0
 22 17  1  0
  1 24  1  0
  1 25  1  0
  1 26  1  0
  3 27  1  0
  8 28  1  0
 10 29  1  0
 10 30  1  0
 12 31  1  0
 12 32  1  0
 18 33  1  0
 19 34  1  0
 20 35  1  0
 21 36  1  0
M  CHG  2   3   1   7  -1
M  END
>  <UniqueID>  (62) 
54

>  <SMILES>  (62) 
Cc1[nH+]c(C(=O)[O-])cn1CN(CC(F)(F)F)c1ccccc1Cl

>  <Energy>  (62) 
63.89613349027297

>  <Genealogy>  (62) 
Cc1[nH+]c(C(=O)[O-])cn1CN(CC(F)(F)F)c1ccccc1Cl (protonated)
Cc1[nH+]c(C(=O)[O-])cn1CN(CC(F)(F)F)c1ccccc1Cl (3D coordinates assigned)
Cc1[nH+]c(C(=O)[O-])cn1CN(CC(F)(F)F)c1ccccc1Cl (optimized conformer: 63.89613349027297 kcal/mol)

>  <smiles>  (62) 
Cc1nc(C(=O)O)cn1CN(CC(F)(F)F)c1ccccc1Cl

>  <score_type>  (62) 
oracle

>  <origin>  (62) 
adg

>  <m_score__min__energy>  (62) 
-7.21

>  <m_primary>  (62) 
energy

$$$$
62:0
     RDKit          3D

 67 73  0  0  0  0  0  0  0  0999 V2000
   59.6508   25.3487   48.1579 H   0  0  0  0  0  0  0  0  0  0  0  0
   59.1830   25.8910   47.3230 C   0  0  0  0  0  0  0  0  0  0  0  0
   58.4440   25.1040   46.3130 C   0  0  0  0  0  0  0  0  0  0  0  0
   59.0730   24.0050   45.7070 C   0  0  0  0  0  0  0  0  0  0  0  0
   60.0950   23.7267   46.0036 H   0  0  0  0  0  0  0  0  0  0  0  0
   58.4050   23.2620   44.7270 C   0  0  0  0  0  0  0  0  0  0  0  0
   58.8974   22.3924   44.2672 H   0  0  0  0  0  0  0  0  0  0  0  0
   57.1140   23.6220   44.3310 C   0  0  0  0  0  0  0  0  0  0  0  0
   56.2800   22.6890   43.1030 Cl  0  0  0  0  0  0  0  0  0  0  0  0
   56.4920   24.7340   44.9080 C   0  0  0  0  0  0  0  0  0  0  0  0
   55.4797   25.0237   44.5896 H   0  0  0  0  0  0  0  0  0  0  0  0
   57.1550   25.4780   45.8890 C   0  0  0  0  0  0  0  0  0  0  0  0
   56.6671   26.3592   46.3312 H   0  0  0  0  0  0  0  0  0  0  0  0
   59.3190   27.2270   47.2850 C   0  0  0  0  0  0  0  0  0  0  0  0
   58.9830   28.2420   45.9690 S   0  0  0  0  0  0  0  0  0  0  0  0
   59.3690   29.6330   46.8230 C   0  0  0  0  0  0  0  0  0  0  0  0
   59.7370   29.3720   48.0940 N   0  0  0  0  0  0  0  0  0  0  0  0
   59.7130   28.0320   48.3600 C   0  0  0  0  0  0  0  0  0  0  0  0
   60.0200   27.5680   49.4930 O   0  0  0  0  0  0  0  0  0  0  0  0
   60.0700   30.4290   49.0650 C   0  0  2  0  0  0  0  0  0  0  0  0
   61.0706   30.2090   49.4654 H   0  0  0  0  0  0  0  0  0  0  0  0
   59.0580   30.4360   50.1900 C   0  0  0  0  0  0  0  0  0  0  0  0
   59.0900   29.4430   51.1790 C   0  0  0  0  0  0  0  0  0  0  0  0
   59.8496   28.6488   51.1311 H   0  0  0  0  0  0  0  0  0  0  0  0
   58.1640   29.4550   52.2250 C   0  0  0  0  0  0  0  0  0  0  0  0
   58.1999   28.6697   52.9944 H   0  0  0  0  0  0  0  0  0  0  0  0
   57.1910   30.4580   52.3020 C   0  0  0  0  0  0  0  0  0  0  0  0
   56.2750   30.4210   53.3640 O   0  0  0  0  0  0  0  0  0  0  0  0
   54.9030   30.0680   53.2300 C   0  0  0  0  0  0  0  0  0  0  0  0
   54.4549   29.9527   54.2280 H   0  0  0  0  0  0  0  0  0  0  0  0
   54.3730   30.8590   52.6792 H   0  0  0  0  0  0  0  0  0  0  0  0
   54.8206   29.1194   52.6792 H   0  0  0  0  0  0  0  0  0  0  0  0
   57.1650   31.4650   51.3190 C   0  0  0  0  0  0  0  0  0  0  0  0
   56.4096   32.2628   51.3724 H   0  0  0  0  0  0  0  0  0  0  0  0
   58.0940   31.4560   50.2760 C   0  0  0  0  0  0  0  0  0  0  0  0
   58.0713   32.2519   49.5171 H   0  0  0  0  0  0  0  0  0  0  0  0
   60.1190   31.8070   48.4090 C   0  0  0  0  0  0  0  0  0  0  0  0
   59.7380   31.9670   47.1190 C   0  0  0  0  0  0  0  0  0  0  0  0
   59.3440   30.8300   46.3340 N   0  0  0  0  0  0  0  0  0  0  0  0
   59.7290   33.3090   46.5000 C   0  0  0  0  0  0  0  0  0  0  0  0
   59.3780   33.4980   45.1500 C   0  0  0  0  0  0  0  0  0  0  0  0
   59.1411   32.6298   44.5175 H   0  0  0  0  0  0  0  0  0  0  0  0
   59.3300   34.7870   44.6120 C   0  0  0  0  0  0  0  0  0  0  0  0
   59.0586   34.9311   43.5558 H   0  0  0  0  0  0  0  0  0  0  0  0
   59.6260   35.8930   45.4130 C   0  0  0  0  0  0  0  0  0  0  0  0
   59.5817   36.9068   44.9885 H   0  0  0  0  0  0  0  0  0  0  0  0
   59.9780   35.7120   46.7520 C   0  0  0  0  0  0  0  0  0  0  0  0
   60.2099   36.5835   47.3818 H   0  0  0  0  0  0  0  0  0  0  0  0
   60.0360   34.4240   47.2930 C   0  0  0  0  0  0  0  0  0  0  0  0
   60.3850   34.2500   48.6330 O   0  0  0  0  0  0  0  0  0  0  0  0
   60.6700   32.9740   49.2170 C   0  0  2  0  0  0  0  0  0  0  0  0
   60.1626   32.9446   50.1926 H   0  0  0  0  0  0  0  0  0  0  0  0
   62.1630   32.8230   49.3940 C   0  0  0  0  0  0  0  0  0  0  0  0
   62.6810   32.1560   50.5160 C   0  0  0  0  0  0  0  0  0  0  0  0
   61.9963   31.7713   51.2862 H   0  0  0  0  0  0  0  0  0  0  0  0
   64.0590   31.9770   50.6620 C   0  0  0  0  0  0  0  0  0  0  0  0
   64.4536   31.4596   51.5489 H   0  0  0  0  0  0  0  0  0  0  0  0
   64.9450   32.4570   49.6770 C   0  0  0  0  0  0  0  0  0  0  0  0
   66.3350   32.2910   49.7690 O   0  0  0  0  0  0  0  0  0  0  0  0
   67.1870   33.0880   50.5890 C   0  0  0  0  0  0  0  0  0  0  0  0
   66.9706   32.8855   51.6483 H   0  0  0  0  0  0  0  0  0  0  0  0
   68.2374   32.8407   50.3756 H   0  0  0  0  0  0  0  0  0  0  0  0
   67.0103   34.1525   50.3756 H   0  0  0  0  0  0  0  0  0  0  0  0
   64.4290   33.1250   48.5600 C   0  0  0  0  0  0  0  0  0  0  0  0
   65.1131   33.5046   47.7868 H   0  0  0  0  0  0  0  0  0  0  0  0
   63.0520   33.3130   48.4200 C   0  0  0  0  0  0  0  0  0  0  0  0
   62.6601   33.8478   47.5423 H   0  0  0  0  0  0  0  0  0  0  0  0
  1  2  1  0
  2  3  1  0
  3  4  2  0
  4  5  1  0
  4  6  1  0
  6  7  1  0
  6  8  2  0
  8  9  1  0
  8 10  1  0
 10 11  1  0
 10 12  2  0
 12 13  1  0
  2 14  2  0
 14 15  1  0
 15 16  1  0
 16 17  1  0
 17 18  1  0
 18 19  2  0
 17 20  1  0
 20 21  1  1
 20 22  1  0
 22 23  2  0
 23 24  1  0
 23 25  1  0
 25 26  1  0
 25 27  2  0
 27 28  1  0
 28 29  1  0
 29 30  1  0
 29 31  1  0
 29 32  1  0
 27 33  1  0
 33 34  1  0
 33 35  2  0
 35 36  1  0
 20 37  1  0
 37 38  2  0
 38 39  1  0
 38 40  1  0
 40 41  2  0
 41 42  1  0
 41 43  1  0
 43 44  1  0
 43 45  2  0
 45 46  1  0
 45 47  1  0
 47 48  1  0
 47 49  2  0
 49 50  1  0
 50 51  1  0
 51 52  1  1
 51 53  1  0
 53 54  2  0
 54 55  1  0
 54 56  1  0
 56 57  1  0
 56 58  2  0
 58 59  1  0
 59 60  1  0
 60 61  1  0
 60 62  1  0
 60 63  1  0
 58 64  1  0
 64 65  1  0
 64 66  2  0
 66 67  1  0
 12  3  1  0
 18 14  1  0
 35 22  1  0
 51 37  1  0
 66 53  1  0
 39 16  2  0
 49 40  1  0
M  END
>  <UniqueID>  (63) 
55

>  <SMILES>  (63) 
COc1ccc([C@H]2Oc3ccccc3C3=C2[C@@H](c2ccc(OC)cc2)n2c(s/c(=C\c4ccc(Cl)cc4)c2=O)=N3)cc1

>  <Energy>  (63) 
119.81371359898714

>  <Genealogy>  (63) 
COc1ccc([C@H]2Oc3ccccc3C3=C2[C@@H](c2ccc(OC)cc2)n2c(sc(=Cc4ccc(Cl)cc4)c2=O)=N3)cc1 (chirality)
COc1ccc([C@H]2Oc3ccccc3C3=C2[C@@H](c2ccc(OC)cc2)n2c(s/c(=C\c4ccc(Cl)cc4)c2=O)=N3)cc1 (cis-trans isomerization)
COc1ccc([C@H]2Oc3ccccc3C3=C2[C@@H](c2ccc(OC)cc2)n2c(s/c(=C\c4ccc(Cl)cc4)c2=O)=N3)cc1 (3D coordinates assigned)
COc1ccc([C@H]2Oc3ccccc3C3=C2[C@@H](c2ccc(OC)cc2)n2c(s/c(=C\c4ccc(Cl)cc4)c2=O)=N3)cc1 (nonaromatic ring conformer: 119.81371359898714 kcal/mol)

>  <smiles>  (63) 
COc1ccc(C2Oc3ccccc3C3=C2C(c2ccc(OC)cc2)n2c(sc(=Cc4ccc(Cl)cc4)c2=O)=N3)cc1

>  <score_type>  (63) 
oracle

>  <origin>  (63) 
adg

>  <m_score__min__energy>  (63) 
-9.1799999999999997

>  <m_primary>  (63) 
energy

$$$$
63:0
     RDKit          3D

 43 46  0  0  0  0  0  0  0  0999 V2000
   56.4090   23.2820   47.4410 C   0  0  0  0  0  0  0  0  0  0  0  0
   56.3820   23.1270   45.9430 C   0  0  0  0  0  0  0  0  0  0  0  0
   57.1770   22.1240   45.3580 C   0  0  0  0  0  0  0  0  0  0  0  0
   57.1610   21.9150   43.9790 C   0  0  0  0  0  0  0  0  0  0  0  0
   56.3550   22.7040   43.1630 C   0  0  0  0  0  0  0  0  0  0  0  0
   55.5700   23.7140   43.7200 C   0  0  0  0  0  0  0  0  0  0  0  0
   55.5780   23.9530   45.1080 C   0  0  0  0  0  0  0  0  0  0  0  0
   54.7420   25.0580   45.6390 C   0  0  0  0  0  0  0  0  0  0  0  0
   53.5040   24.9000   45.8130 O   0  0  0  0  0  0  0  0  0  0  0  0
   55.3500   26.3060   45.9860 N   0  0  0  0  0  0  0  0  0  0  0  0
   57.0640   26.5470   45.9520 S   0  0  0  0  0  0  0  0  0  0  0  0
   57.6750   25.6220   44.9380 O   0  0  0  0  0  0  0  0  0  0  0  0
   57.6420   26.2270   47.3020 O   0  0  0  0  0  0  0  0  0  0  0  0
   57.4140   28.2130   45.5010 C   0  0  0  0  0  0  0  0  0  0  0  0
   57.0590   28.6760   44.2310 C   0  0  0  0  0  0  0  0  0  0  0  0
   57.3080   30.0020   43.8700 C   0  0  0  0  0  0  0  0  0  0  0  0
   57.9110   30.8870   44.7790 C   0  0  0  0  0  0  0  0  0  0  0  0
   58.2670   30.4260   46.0650 C   0  0  0  0  0  0  0  0  0  0  0  0
   58.0130   29.0870   46.4160 C   0  0  0  0  0  0  0  0  0  0  0  0
   58.8980   31.3530   47.0340 C   0  0  0  0  0  0  0  0  0  0  0  0
   59.2130   30.9420   48.1850 O   0  0  0  0  0  0  0  0  0  0  0  0
   59.1580   32.7610   46.6550 C   0  0  0  0  0  0  0  0  0  0  0  0
   59.7570   33.6510   47.5680 C   0  0  0  0  0  0  0  0  0  0  0  0
   60.0000   34.9770   47.2070 C   0  0  0  0  0  0  0  0  0  0  0  0
   59.6510   35.4320   45.9350 C   0  0  0  0  0  0  0  0  0  0  0  0
   59.0570   34.5620   45.0190 C   0  0  0  0  0  0  0  0  0  0  0  0
   58.8050   33.2210   45.3680 C   0  0  0  0  0  0  0  0  0  0  0  0
   58.1730   32.2960   44.3990 C   0  0  0  0  0  0  0  0  0  0  0  0
   57.8580   32.7070   43.2490 O   0  0  0  0  0  0  0  0  0  0  0  0
   56.2386   22.3036   47.9140 H   0  0  0  0  0  0  0  0  0  0  0  0
   57.3889   23.6737   47.7515 H   0  0  0  0  0  0  0  0  0  0  0  0
   55.6193   23.9819   47.7515 H   0  0  0  0  0  0  0  0  0  0  0  0
   57.8183   21.4977   45.9955 H   0  0  0  0  0  0  0  0  0  0  0  0
   57.7860   21.1258   43.5357 H   0  0  0  0  0  0  0  0  0  0  0  0
   56.3370   22.5308   42.0769 H   0  0  0  0  0  0  0  0  0  0  0  0
   54.9365   24.3318   43.0665 H   0  0  0  0  0  0  0  0  0  0  0  0
   56.5815   27.9932   43.5128 H   0  0  0  0  0  0  0  0  0  0  0  0
   57.0298   30.3560   42.8663 H   0  0  0  0  0  0  0  0  0  0  0  0
   58.2874   28.7242   47.4175 H   0  0  0  0  0  0  0  0  0  0  0  0
   60.0351   33.2984   48.5722 H   0  0  0  0  0  0  0  0  0  0  0  0
   60.4677   35.6649   47.9268 H   0  0  0  0  0  0  0  0  0  0  0  0
   59.8442   36.4777   45.6536 H   0  0  0  0  0  0  0  0  0  0  0  0
   58.7839   34.9264   44.0177 H   0  0  0  0  0  0  0  0  0  0  0  0
  1  2  1  0
  2  3  2  0
  3  4  1  0
  4  5  2  0
  5  6  1  0
  6  7  2  0
  7  8  1  0
  8  9  2  0
  8 10  1  0
 10 11  1  0
 11 12  2  0
 11 13  2  0
 11 14  1  0
 14 15  2  0
 15 16  1  0
 16 17  2  0
 17 18  1  0
 18 19  2  0
 18 20  1  0
 20 21  2  0
 20 22  1  0
 22 23  2  0
 23 24  1  0
 24 25  2  0
 25 26  1  0
 26 27  2  0
 27 28  1  0
 28 29  2  0
  7  2  1  0
 19 14  1  0
 27 22  1  0
 28 17  1  0
  1 30  1  0
  1 31  1  0
  1 32  1  0
  3 33  1  0
  4 34  1  0
  5 35  1  0
  6 36  1  0
 15 37  1  0
 16 38  1  0
 19 39  1  0
 23 40  1  0
 24 41  1  0
 25 42  1  0
 26 43  1  0
M  CHG  1  10  -1
M  END
>  <UniqueID>  (64) 
56

>  <SMILES>  (64) 
Cc1ccccc1C(=O)[N-]S(=O)(=O)c1ccc2c(c1)C(=O)c1ccccc1C2=O

>  <Energy>  (64) 
58.73990328175979

>  <Genealogy>  (64) 
Cc1ccccc1C(=O)[N-]S(=O)(=O)c1ccc2c(c1)C(=O)c1ccccc1C2=O (protonated)
Cc1ccccc1C(=O)[N-]S(=O)(=O)c1ccc2c(c1)C(=O)c1ccccc1C2=O (3D coordinates assigned)
Cc1ccccc1C(=O)[N-]S(=O)(=O)c1ccc2c(c1)C(=O)c1ccccc1C2=O (nonaromatic ring conformer: 58.73990328175979 kcal/mol)

>  <smiles>  (64) 
Cc1ccccc1C(=O)NS(=O)(=O)c1ccc2c(c1)C(=O)c1ccccc1C2=O

>  <score_type>  (64) 
oracle

>  <origin>  (64) 
adg

>  <m_score__min__energy>  (64) 
-11.949999999999999

>  <m_primary>  (64) 
energy

$$$$
64:0
     RDKit          3D

 45 48  0  0  0  0  0  0  0  0999 V2000
   59.6510   35.6340   45.6120 C   0  0  0  0  0  0  0  0  0  0  0  0
   59.4340   34.4730   46.4780 N   0  0  0  0  0  0  0  0  0  0  0  0
   60.1060   34.4030   47.7830 C   0  0  0  0  0  0  0  0  0  0  0  0
   61.2820   33.4680   47.7110 C   0  0  0  0  0  0  0  0  0  0  0  0
   62.4320   33.8310   46.9890 C   0  0  0  0  0  0  0  0  0  0  0  0
   63.5070   32.9420   46.8790 C   0  0  0  0  0  0  0  0  0  0  0  0
   63.4380   31.6830   47.4800 C   0  0  0  0  0  0  0  0  0  0  0  0
   62.2950   31.3100   48.1930 C   0  0  0  0  0  0  0  0  0  0  0  0
   61.2200   32.1980   48.3110 C   0  0  0  0  0  0  0  0  0  0  0  0
   58.6420   33.3670   46.0030 C   0  0  0  0  0  0  0  0  0  0  0  0
   58.8760   32.0770   46.3520 N   0  0  0  0  0  0  0  0  0  0  0  0
   58.0150   31.2350   45.7850 N   0  0  0  0  0  0  0  0  0  0  0  0
   58.0240   29.8880   45.9640 C   0  0  0  0  0  0  0  0  0  0  0  0
   58.8990   29.3550   46.7000 O   0  0  0  0  0  0  0  0  0  0  0  0
   57.0500   29.1060   45.3000 C   0  0  0  0  0  0  0  0  0  0  0  0
   56.9880   27.6310   45.4550 C   0  0  0  0  0  0  0  0  0  0  0  0
   55.8720   27.0660   45.6240 O   0  0  0  0  0  0  0  0  0  0  0  0
   58.1910   26.8440   45.4540 N   0  0  0  0  0  0  0  0  0  0  0  0
   58.2190   25.4260   45.2130 C   0  0  0  0  0  0  0  0  0  0  0  0
   57.3310   24.8180   44.3050 C   0  0  0  0  0  0  0  0  0  0  0  0
   57.3950   23.4410   44.0710 C   0  0  0  0  0  0  0  0  0  0  0  0
   58.3470   22.6610   44.7310 C   0  0  0  0  0  0  0  0  0  0  0  0
   59.2450   23.2580   45.6190 C   0  0  0  0  0  0  0  0  0  0  0  0
   59.1870   24.6360   45.8540 C   0  0  0  0  0  0  0  0  0  0  0  0
   56.1100   29.7770   44.4850 C   0  0  0  0  0  0  0  0  0  0  0  0
   56.1510   31.1290   44.3440 N   0  0  0  0  0  0  0  0  0  0  0  0
   57.1030   31.8350   44.9950 C   0  0  0  0  0  0  0  0  0  0  0  0
   57.3130   33.5020   44.9470 S   0  0  0  0  0  0  0  0  0  0  0  0
   59.8180   36.5275   46.2316 H   0  0  0  0  0  0  0  0  0  0  0  0
   60.5319   35.4583   44.9770 H   0  0  0  0  0  0  0  0  0  0  0  0
   58.7661   35.7883   44.9770 H   0  0  0  0  0  0  0  0  0  0  0  0
   60.4563   35.4066   48.0658 H   0  0  0  0  0  0  0  0  0  0  0  0
   59.3947   34.0286   48.5339 H   0  0  0  0  0  0  0  0  0  0  0  0
   62.4872   34.8188   46.5081 H   0  0  0  0  0  0  0  0  0  0  0  0
   64.4072   33.2349   46.3188 H   0  0  0  0  0  0  0  0  0  0  0  0
   64.2834   30.9848   47.3922 H   0  0  0  0  0  0  0  0  0  0  0  0
   62.2405   30.3166   48.6622 H   0  0  0  0  0  0  0  0  0  0  0  0
   60.3234   31.9014   48.8751 H   0  0  0  0  0  0  0  0  0  0  0  0
   59.0780   27.3060   45.7550 H   0  0  0  0  0  0  0  0  0  0  0  0
   56.5837   25.4290   43.7775 H   0  0  0  0  0  0  0  0  0  0  0  0
   56.6940   22.9710   43.3655 H   0  0  0  0  0  0  0  0  0  0  0  0
   58.3897   21.5766   44.5516 H   0  0  0  0  0  0  0  0  0  0  0  0
   59.9985   22.6440   46.1340 H   0  0  0  0  0  0  0  0  0  0  0  0
   59.9040   25.1034   46.5450 H   0  0  0  0  0  0  0  0  0  0  0  0
   55.3363   29.1988   43.9587 H   0  0  0  0  0  0  0  0  0  0  0  0
  1  2  1  0
  2  3  1  0
  3  4  1  0
  4  5  2  0
  5  6  1  0
  6  7  2  0
  7  8  1  0
  8  9  2  0
  2 10  1  0
 10 11  2  0
 11 12  1  0
 12 13  1  0
 13 14  2  0
 13 15  1  0
 15 16  1  0
 16 17  2  0
 16 18  1  0
 18 19  1  0
 19 20  2  0
 20 21  1  0
 21 22  2  0
 22 23  1  0
 23 24  2  0
 15 25  2  0
 25 26  1  0
 26 27  2  0
 27 28  1  0
  9  4  1  0
 28 10  1  0
 27 12  1  0
 24 19  1  0
  1 29  1  0
  1 30  1  0
  1 31  1  0
  3 32  1  0
  3 33  1  0
  5 34  1  0
  6 35  1  0
  7 36  1  0
  8 37  1  0
  9 38  1  0
 18 39  1  0
 20 40  1  0
 21 41  1  0
 22 42  1  0
 23 43  1  0
 24 44  1  0
 25 45  1  0
M  END
>  <UniqueID>  (65) 
57

>  <SMILES>  (65) 
CN(Cc1ccccc1)c1nn2c(=O)c(C(=O)Nc3ccccc3)cnc2s1

>  <Energy>  (65) 
92.23163101869915

>  <Genealogy>  (65) 
CN(Cc1ccccc1)c1nn2c(=O)c(C(=O)Nc3ccccc3)cnc2s1 (3D coordinates assigned)
CN(Cc1ccccc1)c1nn2c(=O)c(C(=O)Nc3ccccc3)cnc2s1 (optimized conformer: 92.23163101869915 kcal/mol)

>  <smiles>  (65) 
CN(Cc1ccccc1)c1nn2c(=O)c(C(=O)Nc3ccccc3)cnc2s1

>  <score_type>  (65) 
oracle

>  <origin>  (65) 
adg

>  <m_score__min__energy>  (65) 
-8.8900000000000006

>  <m_primary>  (65) 
energy

$$$$
65:0
     RDKit          3D

 53 53  0  0  0  0  0  0  0  0999 V2000
   58.4326   28.2772   43.2810 H   0  0  0  0  0  0  0  0  0  0  0  0
   57.3520   31.2010   43.0670 C   0  0  0  0  0  0  0  0  0  0  0  0
   57.8370   28.3970   44.1980 C   0  0  0  0  0  0  0  0  0  0  0  0
   57.0374   31.2229   45.8601 H   0  0  0  0  0  0  0  0  0  0  0  0
   56.6630   29.0350   44.1030 C   0  0  0  0  0  0  0  0  0  0  0  0
   59.3502   31.5036   43.9671 H   0  0  0  0  0  0  0  0  0  0  0  0
   58.2750   31.4900   44.1990 C   0  0  0  0  0  0  0  0  0  0  0  0
   57.9310   31.7360   45.4750 C   0  0  0  0  0  0  0  0  0  0  0  0
   55.8165   28.6606   44.6974 H   0  0  0  0  0  0  0  0  0  0  0  0
   56.4450   30.2200   43.2380 C   0  0  0  0  0  0  0  0  0  0  0  0
   55.4864   30.3025   42.7049 H   0  0  0  0  0  0  0  0  0  0  0  0
   59.7190   27.8990   45.7170 C   0  0  0  0  0  0  0  0  0  0  0  0
   58.3870   27.8410   45.4600 C   0  0  0  0  0  0  0  0  0  0  0  0
   57.4360   27.1390   46.4020 C   0  0  0  0  0  0  0  0  0  0  0  0
   57.7253   27.3526   47.4416 H   0  0  0  0  0  0  0  0  0  0  0  0
   56.4119   27.4994   46.2250 H   0  0  0  0  0  0  0  0  0  0  0  0
   57.4787   26.0542   46.2250 H   0  0  0  0  0  0  0  0  0  0  0  0
   59.3020   34.9390   47.1870 C   0  0  0  0  0  0  0  0  0  0  0  0
   59.7271   35.8026   46.6545 H   0  0  0  0  0  0  0  0  0  0  0  0
   58.4805   35.2290   47.8585 H   0  0  0  0  0  0  0  0  0  0  0  0
   60.3930   34.3190   48.0510 C   0  0  0  0  0  0  0  0  0  0  0  0
   61.2979   34.1697   47.4436 H   0  0  0  0  0  0  0  0  0  0  0  0
   60.6149   34.9931   48.8914 H   0  0  0  0  0  0  0  0  0  0  0  0
   59.9240   32.9740   48.5980 C   0  0  0  0  0  0  0  0  0  0  0  0
   60.7268   32.5396   49.2119 H   0  0  0  0  0  0  0  0  0  0  0  0
   59.0176   33.1453   49.1972 H   0  0  0  0  0  0  0  0  0  0  0  0
   59.5700   31.9830   47.4600 C   0  0  0  0  0  0  0  0  0  0  0  0
   60.8610   31.5060   46.7550 C   0  0  0  0  0  0  0  0  0  0  0  0
   61.6106   31.2290   47.5109 H   0  0  0  0  0  0  0  0  0  0  0  0
   60.6341   30.6324   46.1263 H   0  0  0  0  0  0  0  0  0  0  0  0
   61.2566   32.3173   46.1263 H   0  0  0  0  0  0  0  0  0  0  0  0
   58.8990   30.7480   48.1080 C   0  0  0  0  0  0  0  0  0  0  0  0
   58.9473   30.8370   49.2033 H   0  0  0  0  0  0  0  0  0  0  0  0
   57.8472   30.6934   47.7906 H   0  0  0  0  0  0  0  0  0  0  0  0
   59.4256   29.8359   47.7906 H   0  0  0  0  0  0  0  0  0  0  0  0
   57.4090   31.9960   41.7860 C   0  0  0  0  0  0  0  0  0  0  0  0
   57.4858   33.0675   42.0226 H   0  0  0  0  0  0  0  0  0  0  0  0
   58.2872   31.6858   41.2007 H   0  0  0  0  0  0  0  0  0  0  0  0
   56.4955   31.8143   41.2007 H   0  0  0  0  0  0  0  0  0  0  0  0
   58.7280   33.9790   46.1650 C   0  0  0  0  0  0  0  0  0  0  0  0
   58.6500   32.6400   46.4140 C   0  0  0  0  0  0  0  0  0  0  0  0
   60.3200   27.1180   46.8620 C   0  0  0  0  0  0  0  0  0  0  0  0
   59.9865   27.5514   47.8164 H   0  0  0  0  0  0  0  0  0  0  0  0
   59.9938   26.0692   46.8016 H   0  0  0  0  0  0  0  0  0  0  0  0
   61.4173   27.1647   46.8016 H   0  0  0  0  0  0  0  0  0  0  0  0
   58.1990   34.5790   44.8830 C   0  0  0  0  0  0  0  0  0  0  0  0
   57.4888   35.3846   45.1209 H   0  0  0  0  0  0  0  0  0  0  0  0
   59.0353   34.9886   44.2974 H   0  0  0  0  0  0  0  0  0  0  0  0
   57.6879   33.8006   44.2974 H   0  0  0  0  0  0  0  0  0  0  0  0
   60.6430   28.7160   44.8450 C   0  0  0  0  0  0  0  0  0  0  0  0
   61.3158   29.3109   45.4802 H   0  0  0  0  0  0  0  0  0  0  0  0
   61.2380   28.0432   44.2099 H   0  0  0  0  0  0  0  0  0  0  0  0
   60.0481   29.3889   44.2099 H   0  0  0  0  0  0  0  0  0  0  0  0
  1  2  1  0
  2  3  2  0
  3  4  1  0
  3  5  1  0
  5  6  1  0
  5  7  2  0
  7  8  1  0
  8  9  1  0
  8 10  2  0
 10 11  1  0
 10 12  1  0
 12 13  2  0
 13 14  1  0
 14 15  1  0
 14 16  1  0
 14 17  1  0
 13 18  1  0
 18 19  1  0
 18 20  1  0
 18 21  1  0
 21 22  1  0
 21 23  1  0
 21 24  1  0
 24 25  1  0
 24 26  1  0
 24 27  1  0
 27 28  1  0
 28 29  1  0
 28 30  1  0
 28 31  1  0
 27 32  1  0
 32 33  1  0
 32 34  1  0
 32 35  1  0
  7 36  1  0
 36 37  1  0
 36 38  1  0
 36 39  1  0
  2 40  1  0
 40 41  2  3
 41 42  1  0
 42 43  1  0
 42 44  1  0
 42 45  1  0
 41 46  1  0
 46 47  1  0
 46 48  1  0
 46 49  1  0
 40 50  1  0
 50 51  1  0
 50 52  1  0
 50 53  1  0
 27 12  1  0
M  END
>  <UniqueID>  (66) 
58

>  <SMILES>  (66) 
CC(C)=C(C)C=C/C=C(C)/C=C\C1=C(C)CCCC1(C)C

>  <Energy>  (66) 
64.32554785956627

>  <Genealogy>  (66) 
CC(C)=C(C)C=C/C=C(C)/C=C\C1=C(C)CCCC1(C)C (cis-trans isomerization)
CC(C)=C(C)C=C/C=C(C)/C=C\C1=C(C)CCCC1(C)C (3D coordinates assigned)
CC(C)=C(C)C=C/C=C(C)/C=C\C1=C(C)CCCC1(C)C (nonaromatic ring conformer: 64.32554785956627 kcal/mol)

>  <smiles>  (66) 
CC(C=CC1=C(C)CCCC1(C)C)=CC=CC(C)=C(C)C

>  <score_type>  (66) 
oracle

>  <origin>  (66) 
adg

>  <m_score__min__energy>  (66) 
-7.8499999999999996

>  <m_primary>  (66) 
energy

$$$$
66:0
     RDKit          3D

 53 55  0  0  0  0  0  0  0  0999 V2000
   61.3740   30.6280   47.2910 C   0  0  0  0  0  0  0  0  0  0  0  0
   60.6810   31.8480   46.7460 C   0  0  0  0  0  0  0  0  0  0  0  0
   59.4990   31.6720   46.0030 C   0  0  0  0  0  0  0  0  0  0  0  0
   58.8450   32.7670   45.4230 C   0  0  0  0  0  0  0  0  0  0  0  0
   57.6300   32.5630   44.5570 C   0  0  0  0  0  0  0  0  0  0  0  0
   57.8640   31.4950   43.5630 N   0  0  0  0  0  0  0  0  0  0  0  0
   57.6070   32.0080   42.2100 C   0  0  0  0  0  0  0  0  0  0  0  0
   56.8180   30.1190   43.8570 S   0  0  0  0  0  0  0  0  0  0  0  0
   56.4180   29.4880   42.5520 O   0  0  0  0  0  0  0  0  0  0  0  0
   55.5760   30.5660   44.5760 O   0  0  0  0  0  0  0  0  0  0  0  0
   57.6640   28.8990   44.8080 C   0  0  0  0  0  0  0  0  0  0  0  0
   57.8440   29.0630   46.1910 C   0  0  0  0  0  0  0  0  0  0  0  0
   58.5520   28.1060   46.9240 C   0  0  0  0  0  0  0  0  0  0  0  0
   59.0790   26.9820   46.2830 C   0  0  0  0  0  0  0  0  0  0  0  0
   58.8910   26.8070   44.9100 C   0  0  0  0  0  0  0  0  0  0  0  0
   58.1790   27.7600   44.1740 C   0  0  0  0  0  0  0  0  0  0  0  0
   59.3520   34.0560   45.6210 C   0  0  0  0  0  0  0  0  0  0  0  0
   60.5110   34.2470   46.3720 C   0  0  0  0  0  0  0  0  0  0  0  0
   61.1820   33.1600   46.9510 C   0  0  0  0  0  0  0  0  0  0  0  0
   62.6630   33.5130   47.8670 S   0  0  0  0  0  0  0  0  0  0  0  0
   63.6220   34.2240   46.9550 O   0  0  0  0  0  0  0  0  0  0  0  0
   63.3260   32.2650   48.3780 O   0  0  0  0  0  0  0  0  0  0  0  0
   62.3090   34.5460   49.2240 N   0  0  0  0  0  0  0  0  0  0  0  0
   62.0470   33.7680   50.4380 C   0  0  0  0  0  0  0  0  0  0  0  0
   60.8960   32.8180   50.2410 C   0  0  0  0  0  0  0  0  0  0  0  0
   61.0510   31.4480   50.5110 C   0  0  0  0  0  0  0  0  0  0  0  0
   59.9730   30.5720   50.3440 C   0  0  0  0  0  0  0  0  0  0  0  0
   58.7380   31.0570   49.9070 C   0  0  0  0  0  0  0  0  0  0  0  0
   58.5770   32.4190   49.6360 C   0  0  0  0  0  0  0  0  0  0  0  0
   59.6520   33.2980   49.8030 C   0  0  0  0  0  0  0  0  0  0  0  0
   61.3573   30.6573   48.3905 H   0  0  0  0  0  0  0  0  0  0  0  0
   60.8546   29.7240   46.9404 H   0  0  0  0  0  0  0  0  0  0  0  0
   62.4165   30.6112   46.9404 H   0  0  0  0  0  0  0  0  0  0  0  0
   59.0831   30.6616   45.8759 H   0  0  0  0  0  0  0  0  0  0  0  0
   56.7775   32.2825   45.1930 H   0  0  0  0  0  0  0  0  0  0  0  0
   57.4184   33.5006   44.0221 H   0  0  0  0  0  0  0  0  0  0  0  0
   57.1152   32.9896   42.2773 H   0  0  0  0  0  0  0  0  0  0  0  0
   58.5597   32.1115   41.6700 H   0  0  0  0  0  0  0  0  0  0  0  0
   56.9537   31.3069   41.6700 H   0  0  0  0  0  0  0  0  0  0  0  0
   57.4274   29.9457   46.6983 H   0  0  0  0  0  0  0  0  0  0  0  0
   58.6943   28.2381   48.0067 H   0  0  0  0  0  0  0  0  0  0  0  0
   59.6425   26.2341   46.8601 H   0  0  0  0  0  0  0  0  0  0  0  0
   59.3030   25.9195   44.4073 H   0  0  0  0  0  0  0  0  0  0  0  0
   58.0229   27.6151   43.0948 H   0  0  0  0  0  0  0  0  0  0  0  0
   58.8343   34.9218   45.1825 H   0  0  0  0  0  0  0  0  0  0  0  0
   60.9047   35.2645   46.5124 H   0  0  0  0  0  0  0  0  0  0  0  0
   62.9476   33.1913   50.6953 H   0  0  0  0  0  0  0  0  0  0  0  0
   61.7869   34.4654   51.2479 H   0  0  0  0  0  0  0  0  0  0  0  0
   62.0225   31.0631   50.8546 H   0  0  0  0  0  0  0  0  0  0  0  0
   60.0981   29.5001   50.5571 H   0  0  0  0  0  0  0  0  0  0  0  0
   57.8916   30.3667   49.7760 H   0  0  0  0  0  0  0  0  0  0  0  0
   57.6042   32.7996   49.2912 H   0  0  0  0  0  0  0  0  0  0  0  0
   59.5220   34.3694   49.5903 H   0  0  0  0  0  0  0  0  0  0  0  0
  1  2  1  0
  2  3  2  0
  3  4  1  0
  4  5  1  0
  5  6  1  0
  6  7  1  0
  6  8  1  0
  8  9  2  0
  8 10  2  0
  8 11  1  0
 11 12  2  0
 12 13  1  0
 13 14  2  0
 14 15  1  0
 15 16  2  0
  4 17  2  0
 17 18  1  0
 18 19  2  0
 19 20  1  0
 20 21  2  0
 20 22  2  0
 20 23  1  0
 23 24  1  0
 24 25  1  0
 25 26  2  0
 26 27  1  0
 27 28  2  0
 28 29  1  0
 29 30  2  0
 19  2  1  0
 30 25  1  0
 16 11  1  0
  1 31  1  0
  1 32  1  0
  1 33  1  0
  3 34  1  0
  5 35  1  0
  5 36  1  0
  7 37  1  0
  7 38  1  0
  7 39  1  0
 12 40  1  0
 13 41  1  0
 14 42  1  0
 15 43  1  0
 16 44  1  0
 17 45  1  0
 18 46  1  0
 24 47  1  0
 24 48  1  0
 26 49  1  0
 27 50  1  0
 28 51  1  0
 29 52  1  0
 30 53  1  0
M  CHG  1  23  -1
M  END
>  <UniqueID>  (67) 
59

>  <SMILES>  (67) 
Cc1cc(CN(C)S(=O)(=O)c2ccccc2)ccc1S(=O)(=O)[N-]Cc1ccccc1

>  <Energy>  (67) 
50.477568662824595

>  <Genealogy>  (67) 
Cc1cc(CN(C)S(=O)(=O)c2ccccc2)ccc1S(=O)(=O)[N-]Cc1ccccc1 (protonated)
Cc1cc(CN(C)S(=O)(=O)c2ccccc2)ccc1S(=O)(=O)[N-]Cc1ccccc1 (3D coordinates assigned)
Cc1cc(CN(C)S(=O)(=O)c2ccccc2)ccc1S(=O)(=O)[N-]Cc1ccccc1 (optimized conformer: 50.477568662824595 kcal/mol)

>  <smiles>  (67) 
Cc1cc(CN(C)S(=O)(=O)c2ccccc2)ccc1S(=O)(=O)NCc1ccccc1

>  <score_type>  (67) 
oracle

>  <origin>  (67) 
adg

>  <m_score__min__energy>  (67) 
-11.24

>  <m_primary>  (67) 
energy

$$$$
67:0
     RDKit          3D

 37 40  0  0  0  0  0  0  0  0999 V2000
   54.1640   26.7870   46.7250 H   0  0  0  0  0  0  0  0  0  0  0  0
   54.7540   26.3300   46.0000 N   0  0  0  0  0  0  0  0  0  0  0  0
   55.9120   25.7740   46.1910 C   0  0  0  0  0  0  0  0  0  0  0  0
   55.9350   24.4400   46.4540 N   0  0  0  0  0  0  0  0  0  0  0  0
   57.0830   23.7530   46.6740 C   0  0  0  0  0  0  0  0  0  0  0  0
   57.0453   22.6740   46.8845 H   0  0  0  0  0  0  0  0  0  0  0  0
   58.3080   24.4100   46.6340 C   0  0  0  0  0  0  0  0  0  0  0  0
   59.2403   23.8542   46.8126 H   0  0  0  0  0  0  0  0  0  0  0  0
   58.3470   25.7830   46.3650 C   0  0  0  0  0  0  0  0  0  0  0  0
   59.5790   26.4490   46.3260 C   0  0  0  0  0  0  0  0  0  0  0  0
   60.5084   25.8894   46.5075 H   0  0  0  0  0  0  0  0  0  0  0  0
   59.6350   27.8150   46.0590 C   0  0  0  0  0  0  0  0  0  0  0  0
   60.6080   28.3274   46.0331 H   0  0  0  0  0  0  0  0  0  0  0  0
   58.4590   28.5410   45.8230 C   0  0  0  0  0  0  0  0  0  0  0  0
   58.5220   30.0000   45.5510 C   0  0  0  0  0  0  0  0  0  0  0  0
   58.9980   30.8610   46.5390 C   0  0  0  0  0  0  0  0  0  0  0  0
   59.3164   30.4550   47.5105 H   0  0  0  0  0  0  0  0  0  0  0  0
   59.0730   32.2320   46.3040 C   0  0  0  0  0  0  0  0  0  0  0  0
   59.5550   33.0890   47.3060 C   0  0  0  0  0  0  0  0  0  0  0  0
   59.8709   32.6754   48.2751 H   0  0  0  0  0  0  0  0  0  0  0  0
   59.6350   34.4620   47.0780 C   0  0  0  0  0  0  0  0  0  0  0  0
   60.0144   35.1288   47.8663 H   0  0  0  0  0  0  0  0  0  0  0  0
   59.2350   34.9900   45.8530 C   0  0  0  0  0  0  0  0  0  0  0  0
   59.2987   36.0740   45.6771 H   0  0  0  0  0  0  0  0  0  0  0  0
   58.7530   34.1490   44.8460 C   0  0  0  0  0  0  0  0  0  0  0  0
   58.4404   34.5788   43.8829 H   0  0  0  0  0  0  0  0  0  0  0  0
   58.6620   32.7500   45.0500 C   0  0  0  0  0  0  0  0  0  0  0  0
   58.1890   31.8930   44.0720 N   0  0  0  0  0  0  0  0  0  0  0  0
   57.7600   32.4260   42.7630 C   0  0  0  0  0  0  0  0  0  0  0  0
   57.0772   33.2743   42.9185 H   0  0  0  0  0  0  0  0  0  0  0  0
   58.6413   32.7635   42.1978 H   0  0  0  0  0  0  0  0  0  0  0  0
   57.2420   31.6372   42.1978 H   0  0  0  0  0  0  0  0  0  0  0  0
   58.1080   30.5390   44.3160 C   0  0  0  0  0  0  0  0  0  0  0  0
   57.6410   29.7610   43.4380 O   0  0  0  0  0  0  0  0  0  0  0  0
   57.2180   27.8830   45.8670 C   0  0  0  0  0  0  0  0  0  0  0  0
   56.2947   28.4538   45.6891 H   0  0  0  0  0  0  0  0  0  0  0  0
   57.1400   26.4960   46.1370 C   0  0  0  0  0  0  0  0  0  0  0  0
  1  2  1  0
  2  3  2  0
  3  4  1  0
  4  5  1  0
  5  6  1  0
  5  7  2  0
  7  8  1  0
  7  9  1  0
  9 10  2  0
 10 11  1  0
 10 12  1  0
 12 13  1  0
 12 14  2  0
 14 15  1  0
 15 16  2  0
 16 17  1  0
 16 18  1  0
 18 19  2  0
 19 20  1  0
 19 21  1  0
 21 22  1  0
 21 23  2  0
 23 24  1  0
 23 25  1  0
 25 26  1  0
 25 27  2  0
 27 28  1  0
 28 29  1  0
 29 30  1  0
 29 31  1  0
 29 32  1  0
 28 33  1  0
 33 34  2  0
 14 35  1  0
 35 36  1  0
 35 37  2  0
 37  3  1  0
 37  9  1  0
 33 15  1  0
 27 18  1  0
M  CHG  1   4  -1
M  END
>  <UniqueID>  (68) 
60

>  <SMILES>  (68) 
[H]/N=c1/[n-]ccc2ccc(-c3cc4ccccc4n(C)c3=O)cc12

>  <Energy>  (68) 
67.39754703519087

>  <Genealogy>  (68) 
Cn1c(=O)c(-c2ccc3cc[n-]c(=N)c3c2)cc2ccccc21 (protonated)
[H]/N=c1/[n-]ccc2ccc(-c3cc4ccccc4n(C)c3=O)cc12 (cis-trans isomerization)
[H]/N=c1/[n-]ccc2ccc(-c3cc4ccccc4n(C)c3=O)cc12 (3D coordinates assigned)
[H]/N=c1/[n-]ccc2ccc(-c3cc4ccccc4n(C)c3=O)cc12 (optimized conformer: 67.39754703519087 kcal/mol)

>  <smiles>  (68) 
Cn1c(=O)c(-c2ccc3cc[nH]c(=N)c3c2)cc2ccccc21

>  <score_type>  (68) 
oracle

>  <origin>  (68) 
adg

>  <m_score__min__energy>  (68) 
-11.029999999999999

>  <m_primary>  (68) 
energy

$$$$
68:0
     RDKit          3D

 47 48  0  0  0  0  0  0  0  0999 V2000
   59.2760   34.5980   45.2710 C   0  0  0  0  0  0  0  0  0  0  0  0
   57.8990   34.0490   44.9050 C   0  0  0  0  0  0  0  0  0  0  0  0
   57.7290   32.6090   45.4100 C   0  0  0  0  0  0  0  0  0  0  0  0
   57.3860   31.6190   44.2850 C   0  0  0  0  0  0  0  0  0  0  0  0
   57.5380   30.1340   44.6650 C   0  0  0  0  0  0  0  0  0  0  0  0
   59.0040   29.6530   44.7180 C   0  0  0  0  0  0  0  0  0  0  0  0
   59.1300   28.1400   44.4910 C   0  0  0  0  0  0  0  0  0  0  0  0
   58.1600   27.3970   45.3660 C   0  0  0  0  0  0  0  0  0  0  0  0
   57.0220   26.8490   44.9100 N   0  0  0  0  0  0  0  0  0  0  0  0
   56.3740   26.4340   46.0110 C   0  0  0  0  0  0  0  0  0  0  0  0
   55.2510   25.8660   45.9760 O   0  0  0  0  0  0  0  0  0  0  0  0
   57.0270   26.6950   47.1610 N   0  0  0  0  0  0  0  0  0  0  0  0
   58.1570   27.3110   46.7530 C   0  0  0  0  0  0  0  0  0  0  0  0
   59.1860   27.8050   47.6880 C   0  0  0  0  0  0  0  0  0  0  0  0
   60.1450   27.0590   48.0140 O   0  0  0  0  0  0  0  0  0  0  0  0
   59.0700   29.0910   48.3120 N   0  0  0  0  0  0  0  0  0  0  0  0
   59.8490   30.2520   47.9960 C   0  0  0  0  0  0  0  0  0  0  0  0
   61.1250   30.1490   47.4170 C   0  0  0  0  0  0  0  0  0  0  0  0
   61.8700   31.3010   47.1400 C   0  0  0  0  0  0  0  0  0  0  0  0
   61.3550   32.5720   47.4570 C   0  0  0  0  0  0  0  0  0  0  0  0
   62.0600   33.7560   47.1960 O   0  0  0  0  0  0  0  0  0  0  0  0
   63.3790   33.8040   46.6630 C   0  0  0  0  0  0  0  0  0  0  0  0
   60.0940   32.6660   48.0600 C   0  0  0  0  0  0  0  0  0  0  0  0
   59.3510   31.5160   48.3350 C   0  0  0  0  0  0  0  0  0  0  0  0
   59.3757   34.6378   46.3657 H   0  0  0  0  0  0  0  0  0  0  0  0
   60.0547   33.9416   44.8555 H   0  0  0  0  0  0  0  0  0  0  0  0
   59.3895   35.6101   44.8555 H   0  0  0  0  0  0  0  0  0  0  0  0
   57.1255   34.6840   45.3616 H   0  0  0  0  0  0  0  0  0  0  0  0
   57.8010   34.0501   43.8094 H   0  0  0  0  0  0  0  0  0  0  0  0
   58.6687   32.2898   45.8844 H   0  0  0  0  0  0  0  0  0  0  0  0
   56.8902   32.6048   46.1216 H   0  0  0  0  0  0  0  0  0  0  0  0
   56.3419   31.7905   43.9844 H   0  0  0  0  0  0  0  0  0  0  0  0
   58.1064   31.8075   43.4753 H   0  0  0  0  0  0  0  0  0  0  0  0
   57.0866   29.9814   45.6564 H   0  0  0  0  0  0  0  0  0  0  0  0
   57.0362   29.5488   43.8803 H   0  0  0  0  0  0  0  0  0  0  0  0
   59.5763   30.1765   43.9380 H   0  0  0  0  0  0  0  0  0  0  0  0
   59.3950   29.8761   45.7217 H   0  0  0  0  0  0  0  0  0  0  0  0
   58.9148   27.9124   43.4365 H   0  0  0  0  0  0  0  0  0  0  0  0
   60.1530   27.8249   44.7443 H   0  0  0  0  0  0  0  0  0  0  0  0
   56.6950   26.7880   43.9190 H   0  0  0  0  0  0  0  0  0  0  0  0
   61.5404   29.1583   47.1803 H   0  0  0  0  0  0  0  0  0  0  0  0
   62.8619   31.2128   46.6727 H   0  0  0  0  0  0  0  0  0  0  0  0
   64.1068   33.8305   47.4873 H   0  0  0  0  0  0  0  0  0  0  0  0
   63.5574   32.9118   46.0449 H   0  0  0  0  0  0  0  0  0  0  0  0
   63.4921   34.7069   46.0449 H   0  0  0  0  0  0  0  0  0  0  0  0
   59.6857   33.6540   48.3191 H   0  0  0  0  0  0  0  0  0  0  0  0
   58.3681   31.6037   48.8211 H   0  0  0  0  0  0  0  0  0  0  0  0
  1  2  1  0
  2  3  1  0
  3  4  1  0
  4  5  1  0
  5  6  1  0
  6  7  1  0
  7  8  1  0
  8  9  1  0
  9 10  1  0
 10 11  2  0
 10 12  1  0
 12 13  1  0
 13 14  1  0
 14 15  2  0
 14 16  1  0
 16 17  1  0
 17 18  2  0
 18 19  1  0
 19 20  2  0
 20 21  1  0
 21 22  1  0
 20 23  1  0
 23 24  2  0
 13  8  2  0
 24 17  1  0
  1 25  1  0
  1 26  1  0
  1 27  1  0
  2 28  1  0
  2 29  1  0
  3 30  1  0
  3 31  1  0
  4 32  1  0
  4 33  1  0
  5 34  1  0
  5 35  1  0
  6 36  1  0
  6 37  1  0
  7 38  1  0
  7 39  1  0
  9 40  1  0
 18 41  1  0
 19 42  1  0
 22 43  1  0
 22 44  1  0
 22 45  1  0
 23 46  1  0
 24 47  1  0
M  CHG  2  12  -1  16  -1
M  END
>  <UniqueID>  (69) 
61

>  <SMILES>  (69) 
CCCCCCCc1[nH]c(=O)[n-]c1C(=O)[N-]c1ccc(OC)cc1

>  <Energy>  (69) 
71.05129315809931

>  <Genealogy>  (69) 
CCCCCCCc1[nH]c(=O)[n-]c1C(=O)[N-]c1ccc(OC)cc1 (protonated)
CCCCCCCc1[nH]c(=O)[n-]c1C(=O)[N-]c1ccc(OC)cc1 (3D coordinates assigned)
CCCCCCCc1[nH]c(=O)[n-]c1C(=O)[N-]c1ccc(OC)cc1 (optimized conformer: 71.05129315809931 kcal/mol)

>  <smiles>  (69) 
CCCCCCCc1[nH]c(=O)[nH]c1C(=O)Nc1ccc(OC)cc1

>  <score_type>  (69) 
oracle

>  <origin>  (69) 
adg

>  <m_score__min__energy>  (69) 
-10.529999999999999

>  <m_primary>  (69) 
energy

$$$$
69:0
     RDKit          3D

 32 34  0  0  0  0  0  0  0  0999 V2000
   65.8060   32.9600   50.2570 C   0  0  0  0  0  0  0  0  0  0  0  0
   64.6870   33.8400   50.2880 O   0  0  0  0  0  0  0  0  0  0  0  0
   63.6190   33.7960   49.3790 C   0  0  0  0  0  0  0  0  0  0  0  0
   62.3330   34.0750   49.8510 C   0  0  0  0  0  0  0  0  0  0  0  0
   61.2360   34.0430   48.9860 C   0  0  0  0  0  0  0  0  0  0  0  0
   61.4070   33.7310   47.6270 C   0  0  0  0  0  0  0  0  0  0  0  0
   60.2280   33.7030   46.7310 C   0  0  0  0  0  0  0  0  0  0  0  0
   59.3610   34.7160   46.5350 N   0  0  0  0  0  0  0  0  0  0  0  0
   58.4520   34.3020   45.6700 N   0  0  0  0  0  0  0  0  0  0  0  0
   58.7960   33.0350   45.3600 C   0  0  0  0  0  0  0  0  0  0  0  0
   58.0540   32.1740   44.4190 C   0  0  0  0  0  0  0  0  0  0  0  0
   58.0070   32.4970   43.0520 C   0  0  0  0  0  0  0  0  0  0  0  0
   57.3030   31.6840   42.1590 C   0  0  0  0  0  0  0  0  0  0  0  0
   56.6430   30.5420   42.6210 C   0  0  0  0  0  0  0  0  0  0  0  0
   56.6850   30.2120   43.9780 C   0  0  0  0  0  0  0  0  0  0  0  0
   57.3860   31.0240   44.8760 C   0  0  0  0  0  0  0  0  0  0  0  0
   59.8800   32.6650   46.0060 O   0  0  0  0  0  0  0  0  0  0  0  0
   62.7010   33.4500   47.1510 C   0  0  0  0  0  0  0  0  0  0  0  0
   63.7970   33.4820   48.0190 C   0  0  0  0  0  0  0  0  0  0  0  0
   66.1119   32.7194   51.2859 H   0  0  0  0  0  0  0  0  0  0  0  0
   65.5301   32.0344   49.7306 H   0  0  0  0  0  0  0  0  0  0  0  0
   66.6405   33.4464   49.7306 H   0  0  0  0  0  0  0  0  0  0  0  0
   62.1834   34.3218   50.9125 H   0  0  0  0  0  0  0  0  0  0  0  0
   60.2301   34.2640   49.3725 H   0  0  0  0  0  0  0  0  0  0  0  0
   59.3670   35.6660   46.9650 H   0  0  0  0  0  0  0  0  0  0  0  0
   58.5266   33.3936   42.6831 H   0  0  0  0  0  0  0  0  0  0  0  0
   57.2684   31.9436   41.0906 H   0  0  0  0  0  0  0  0  0  0  0  0
   56.0905   29.9030   41.9164 H   0  0  0  0  0  0  0  0  0  0  0  0
   56.1661   29.3125   44.3408 H   0  0  0  0  0  0  0  0  0  0  0  0
   57.4148   30.7618   45.9439 H   0  0  0  0  0  0  0  0  0  0  0  0
   62.8514   33.2036   46.0895 H   0  0  0  0  0  0  0  0  0  0  0  0
   64.8042   33.2604   47.6363 H   0  0  0  0  0  0  0  0  0  0  0  0
  1  2  1  0
  2  3  1  0
  3  4  2  0
  4  5  1  0
  5  6  2  0
  6  7  1  0
  7  8  2  0
  8  9  1  0
  9 10  2  0
 10 11  1  0
 11 12  2  0
 12 13  1  0
 13 14  2  0
 14 15  1  0
 15 16  2  0
 10 17  1  0
  6 18  1  0
 18 19  2  0
 19  3  1  0
 17  7  1  0
 16 11  1  0
  1 20  1  0
  1 21  1  0
  1 22  1  0
  4 23  1  0
  5 24  1  0
  8 25  1  0
 12 26  1  0
 13 27  1  0
 14 28  1  0
 15 29  1  0
 16 30  1  0
 18 31  1  0
 19 32  1  0
M  CHG  1   8   1
M  END
>  <UniqueID>  (70) 
62

>  <SMILES>  (70) 
COc1ccc(-c2[nH+]nc(-c3ccccc3)o2)cc1

>  <Energy>  (70) 
70.41158128136216

>  <Genealogy>  (70) 
COc1ccc(-c2[nH+]nc(-c3ccccc3)o2)cc1 (protonated)
COc1ccc(-c2[nH+]nc(-c3ccccc3)o2)cc1 (3D coordinates assigned)
COc1ccc(-c2[nH+]nc(-c3ccccc3)o2)cc1 (optimized conformer: 70.41158128136216 kcal/mol)

>  <smiles>  (70) 
COc1ccc(-c2nnc(-c3ccccc3)o2)cc1

>  <score_type>  (70) 
oracle

>  <origin>  (70) 
adg

>  <m_score__min__energy>  (70) 
-5.3200000000000003

>  <m_primary>  (70) 
energy

$$$$
70:0
     RDKit          3D

 30 32  0  0  0  0  0  0  0  0999 V2000
   56.5680   21.8190   48.4040 H   0  0  0  0  0  0  0  0  0  0  0  0
   57.0520   22.6230   47.9420 N   0  0  0  0  0  0  0  0  0  0  0  0
   56.4230   23.4830   47.2060 C   0  0  0  0  0  0  0  0  0  0  0  0
   55.2470   23.1290   46.6250 N   0  0  0  0  0  0  0  0  0  0  0  0
   54.5460   23.9900   45.8420 C   0  0  0  0  0  0  0  0  0  0  0  0
   53.5966   23.6699   45.3880 H   0  0  0  0  0  0  0  0  0  0  0  0
   55.0280   25.2810   45.6120 C   0  0  0  0  0  0  0  0  0  0  0  0
   54.4604   25.9772   44.9771 H   0  0  0  0  0  0  0  0  0  0  0  0
   56.2410   25.6870   46.1950 C   0  0  0  0  0  0  0  0  0  0  0  0
   56.7680   27.0550   45.9640 C   0  0  0  0  0  0  0  0  0  0  0  0
   58.0150   27.5370   46.3290 C   0  0  0  0  0  0  0  0  0  0  0  0
   58.7912   26.9595   46.8525 H   0  0  0  0  0  0  0  0  0  0  0  0
   58.1290   28.8230   45.9430 N   0  0  0  0  0  0  0  0  0  0  0  0
   56.9420   29.0950   45.3570 C   0  0  0  0  0  0  0  0  0  0  0  0
   56.6450   30.2330   44.8020 N   0  0  0  0  0  0  0  0  0  0  0  0
   57.3960   31.4550   44.8930 C   0  0  0  0  0  0  0  0  0  0  0  0
   57.7580   32.0230   46.1310 C   0  0  0  0  0  0  0  0  0  0  0  0
   57.4869   31.5140   47.0677 H   0  0  0  0  0  0  0  0  0  0  0  0
   58.4610   33.2320   46.1730 C   0  0  0  0  0  0  0  0  0  0  0  0
   58.7525   33.6648   47.1413 H   0  0  0  0  0  0  0  0  0  0  0  0
   58.7930   33.8900   44.9860 C   0  0  0  0  0  0  0  0  0  0  0  0
   59.4730   35.0630   45.0290 F   0  0  0  0  0  0  0  0  0  0  0  0
   58.4130   33.3470   43.7560 C   0  0  0  0  0  0  0  0  0  0  0  0
   58.6689   33.8691   42.8222 H   0  0  0  0  0  0  0  0  0  0  0  0
   57.7080   32.1410   43.7110 C   0  0  0  0  0  0  0  0  0  0  0  0
   57.3957   31.7271   42.7409 H   0  0  0  0  0  0  0  0  0  0  0  0
   56.0980   28.0470   45.3460 N   0  0  0  0  0  0  0  0  0  0  0  0
   55.1450   28.0170   44.9230 H   0  0  0  0  0  0  0  0  0  0  0  0
   56.9410   24.7720   47.0020 C   0  0  0  0  0  0  0  0  0  0  0  0
   57.8914   25.0654   47.4719 H   0  0  0  0  0  0  0  0  0  0  0  0
  1  2  1  0
  2  3  2  0
  3  4  1  0
  4  5  1  0
  5  6  1  0
  5  7  2  0
  7  8  1  0
  7  9  1  0
  9 10  1  0
 10 11  2  0
 11 12  1  0
 11 13  1  0
 13 14  1  0
 14 15  2  0
 15 16  1  0
 16 17  2  0
 17 18  1  0
 17 19  1  0
 19 20  1  0
 19 21  2  0
 21 22  1  0
 21 23  1  0
 23 24  1  0
 23 25  2  0
 25 26  1  0
 14 27  1  0
 27 28  1  0
  9 29  2  0
 29 30  1  0
 29  3  1  0
 27 10  1  0
 25 16  1  0
M  CHG  2   4  -1  13  -1
M  END
>  <UniqueID>  (71) 
63

>  <SMILES>  (71) 
[H]/N=c1\cc(-c2c[n-]/c(=N\c3ccc(F)cc3)[nH]2)cc[n-]1

>  <Energy>  (71) 
71.4196386471379

>  <Genealogy>  (71) 
N=c1cc(-c2c[n-]c(=Nc3ccc(F)cc3)[nH]2)cc[n-]1 (protonated)
[H]/N=c1\cc(-c2c[n-]/c(=N\c3ccc(F)cc3)[nH]2)cc[n-]1 (cis-trans isomerization)
[H]/N=c1\cc(-c2c[n-]/c(=N\c3ccc(F)cc3)[nH]2)cc[n-]1 (3D coordinates assigned)
[H]/N=c1\cc(-c2c[n-]/c(=N\c3ccc(F)cc3)[nH]2)cc[n-]1 (optimized conformer: 71.4196386471379 kcal/mol)

>  <smiles>  (71) 
N=c1cc(-c2c[nH]c(=Nc3ccc(F)cc3)[nH]2)cc[nH]1

>  <score_type>  (71) 
oracle

>  <origin>  (71) 
adg

>  <m_score__min__energy>  (71) 
-10.94

>  <m_primary>  (71) 
energy

$$$$
71:0
     RDKit          3D

 27 28  0  0  0  0  0  0  0  0999 V2000
   58.0510   33.8100   46.7910 C   0  0  0  0  0  0  0  0  0  0  0  0
   57.5570   34.2190   45.5500 C   0  0  0  0  0  0  0  0  0  0  0  0
   57.4180   33.2950   44.5110 C   0  0  0  0  0  0  0  0  0  0  0  0
   57.7830   31.9510   44.7050 C   0  0  0  0  0  0  0  0  0  0  0  0
   57.6030   30.9460   43.5990 C   0  0  0  0  0  0  0  0  0  0  0  0
   56.1870   30.3620   43.6280 C   0  0  0  0  0  0  0  0  0  0  0  0
   55.9670   29.6050   44.8600 N   0  0  0  0  0  0  0  0  0  0  0  0
   56.6120   28.5280   45.1970 C   0  0  0  0  0  0  0  0  0  0  0  0
   57.9720   28.4740   45.1300 N   0  0  0  0  0  0  0  0  0  0  0  0
   58.6470   27.3500   45.4840 C   0  0  0  0  0  0  0  0  0  0  0  0
   57.9470   26.2300   45.9270 C   0  0  0  0  0  0  0  0  0  0  0  0
   56.5550   26.3000   45.9920 C   0  0  0  0  0  0  0  0  0  0  0  0
   55.9170   27.4420   45.6290 N   0  0  0  0  0  0  0  0  0  0  0  0
   58.2660   31.5440   45.9600 C   0  0  0  0  0  0  0  0  0  0  0  0
   58.4030   32.4730   46.9970 C   0  0  0  0  0  0  0  0  0  0  0  0
   58.1630   34.5401   47.6061 H   0  0  0  0  0  0  0  0  0  0  0  0
   57.2768   35.2707   45.3903 H   0  0  0  0  0  0  0  0  0  0  0  0
   57.0216   33.6202   43.5378 H   0  0  0  0  0  0  0  0  0  0  0  0
   57.7708   31.4399   42.6306 H   0  0  0  0  0  0  0  0  0  0  0  0
   58.3268   30.1297   43.7396 H   0  0  0  0  0  0  0  0  0  0  0  0
   55.4564   31.1825   43.5726 H   0  0  0  0  0  0  0  0  0  0  0  0
   56.0651   29.6851   42.7695 H   0  0  0  0  0  0  0  0  0  0  0  0
   59.7449   27.3240   45.4210 H   0  0  0  0  0  0  0  0  0  0  0  0
   58.4790   25.3124   46.2186 H   0  0  0  0  0  0  0  0  0  0  0  0
   55.9753   25.4311   46.3369 H   0  0  0  0  0  0  0  0  0  0  0  0
   58.5374   30.4913   46.1278 H   0  0  0  0  0  0  0  0  0  0  0  0
   58.7882   32.1509   47.9757 H   0  0  0  0  0  0  0  0  0  0  0  0
  1  2  2  0
  2  3  1  0
  3  4  2  0
  4  5  1  0
  5  6  1  0
  6  7  1  0
  7  8  2  3
  8  9  1  0
  9 10  2  0
 10 11  1  0
 11 12  2  0
 12 13  1  0
  4 14  1  0
 14 15  2  0
 15  1  1  0
 13  8  1  0
  1 16  1  0
  2 17  1  0
  3 18  1  0
  5 19  1  0
  5 20  1  0
  6 21  1  0
  6 22  1  0
 10 23  1  0
 11 24  1  0
 12 25  1  0
 14 26  1  0
 15 27  1  0
M  CHG  1  13  -1
M  END
>  <UniqueID>  (72) 
64

>  <SMILES>  (72) 
c1ccc(CCN=c2nccc[n-]2)cc1

>  <Energy>  (72) 
25.804461845358887

>  <Genealogy>  (72) 
c1ccc(CCN=c2nccc[n-]2)cc1 (protonated)
c1ccc(CCN=c2nccc[n-]2)cc1 (3D coordinates assigned)
c1ccc(CCN=c2nccc[n-]2)cc1 (optimized conformer: 25.804461845358887 kcal/mol)

>  <smiles>  (72) 
c1ccc(CCN=c2nccc[nH]2)cc1

>  <score_type>  (72) 
oracle

>  <origin>  (72) 
adg

>  <m_score__min__energy>  (72) 
-7.4800000000000004

>  <m_primary>  (72) 
energy

$$$$
72:0
     RDKit          3D

 61 64  0  0  0  0  0  0  0  0999 V2000
   60.3720   27.1220   46.0040 C   0  0  0  0  0  0  0  0  0  0  0  0
   59.5290   28.3060   45.6340 C   0  0  0  0  0  0  0  0  0  0  0  0
   60.0110   29.6080   45.8370 C   0  0  0  0  0  0  0  0  0  0  0  0
   59.2410   30.7120   45.4610 C   0  0  0  0  0  0  0  0  0  0  0  0
   57.9870   30.5290   44.8580 C   0  0  0  0  0  0  0  0  0  0  0  0
   57.1420   31.7190   44.4870 C   0  0  0  0  0  0  0  0  0  0  0  0
   57.2570   32.8390   45.5300 C   0  0  0  0  0  0  0  0  0  0  0  0
   57.4660   34.1510   44.8950 N   0  0  0  0  0  0  0  0  0  0  0  0
   58.8770   34.5760   44.8940 C   0  0  0  0  0  0  0  0  0  0  0  0
   59.5580   34.3050   46.2150 C   0  0  0  0  0  0  0  0  0  0  0  0
   59.0280   34.8200   47.4060 C   0  0  0  0  0  0  0  0  0  0  0  0
   59.6650   34.5790   48.6260 C   0  0  0  0  0  0  0  0  0  0  0  0
   60.8480   33.8170   48.6830 C   0  0  0  0  0  0  0  0  0  0  0  0
   61.3790   33.3040   47.4790 C   0  0  0  0  0  0  0  0  0  0  0  0
   60.7360   33.5480   46.2600 C   0  0  0  0  0  0  0  0  0  0  0  0
   62.8510   32.3450   47.4920 S   0  0  0  0  0  0  0  0  0  0  0  0
   62.5960   30.9970   46.8780 O   0  0  0  0  0  0  0  0  0  0  0  0
   63.9270   33.0600   46.7250 O   0  0  0  0  0  0  0  0  0  0  0  0
   63.3640   32.1390   49.1820 C   0  0  0  0  0  0  0  0  0  0  0  0
   62.9720   33.3760   49.9790 C   0  0  0  0  0  0  0  0  0  0  0  0
   61.5150   33.5650   49.9460 N   0  0  0  0  0  0  0  0  0  0  0  0
   60.7670   33.5090   51.2100 C   0  0  0  0  0  0  0  0  0  0  0  0
   59.4690   32.7120   51.0330 C   0  0  0  0  0  0  0  0  0  0  0  0
   59.7610   31.3590   50.4440 C   0  0  0  0  0  0  0  0  0  0  0  0
   58.9220   30.8250   49.4550 C   0  0  0  0  0  0  0  0  0  0  0  0
   59.2250   29.5850   48.8930 C   0  0  0  0  0  0  0  0  0  0  0  0
   60.3630   28.8930   49.3110 C   0  0  0  0  0  0  0  0  0  0  0  0
   61.1850   29.4590   50.2890 C   0  0  0  0  0  0  0  0  0  0  0  0
   60.8760   30.6710   50.8280 N   0  0  0  0  0  0  0  0  0  0  0  0
   57.5090   29.2250   44.6470 C   0  0  0  0  0  0  0  0  0  0  0  0
   58.2790   28.1210   45.0240 C   0  0  0  0  0  0  0  0  0  0  0  0
   60.4297   27.0410   47.0995 H   0  0  0  0  0  0  0  0  0  0  0  0
   59.9207   26.2074   45.5919 H   0  0  0  0  0  0  0  0  0  0  0  0
   61.3839   27.2493   45.5919 H   0  0  0  0  0  0  0  0  0  0  0  0
   60.9997   29.7605   46.2943 H   0  0  0  0  0  0  0  0  0  0  0  0
   59.6197   31.7294   45.6385 H   0  0  0  0  0  0  0  0  0  0  0  0
   57.4751   32.1035   43.5117 H   0  0  0  0  0  0  0  0  0  0  0  0
   56.0916   31.3955   44.4430 H   0  0  0  0  0  0  0  0  0  0  0  0
   56.3304   32.8723   46.1218 H   0  0  0  0  0  0  0  0  0  0  0  0
   58.1248   32.6247   46.1711 H   0  0  0  0  0  0  0  0  0  0  0  0
   56.8920   34.8660   45.4020 H   0  0  0  0  0  0  0  0  0  0  0  0
   59.4105   34.0296   44.1023 H   0  0  0  0  0  0  0  0  0  0  0  0
   58.9014   35.6617   44.7191 H   0  0  0  0  0  0  0  0  0  0  0  0
   58.1049   35.4176   47.3801 H   0  0  0  0  0  0  0  0  0  0  0  0
   59.2375   34.9892   49.5528 H   0  0  0  0  0  0  0  0  0  0  0  0
   61.1592   33.1419   45.3294 H   0  0  0  0  0  0  0  0  0  0  0  0
   62.8713   31.2538   49.6107 H   0  0  0  0  0  0  0  0  0  0  0  0
   64.4548   32.0035   49.2230 H   0  0  0  0  0  0  0  0  0  0  0  0
   63.2983   33.2536   51.0223 H   0  0  0  0  0  0  0  0  0  0  0  0
   63.4567   34.2569   49.5328 H   0  0  0  0  0  0  0  0  0  0  0  0
   61.3882   33.0229   51.9767 H   0  0  0  0  0  0  0  0  0  0  0  0
   60.5148   34.5341   51.5191 H   0  0  0  0  0  0  0  0  0  0  0  0
   58.9856   32.5842   52.0128 H   0  0  0  0  0  0  0  0  0  0  0  0
   58.8027   33.2616   50.3518 H   0  0  0  0  0  0  0  0  0  0  0  0
   58.0315   31.3801   49.1250 H   0  0  0  0  0  0  0  0  0  0  0  0
   58.5691   29.1535   48.1225 H   0  0  0  0  0  0  0  0  0  0  0  0
   60.6098   27.9135   48.8755 H   0  0  0  0  0  0  0  0  0  0  0  0
   62.0853   28.9235   50.6249 H   0  0  0  0  0  0  0  0  0  0  0  0
   61.5150   31.0730   51.5500 H   0  0  0  0  0  0  0  0  0  0  0  0
   56.5236   29.0719   44.1827 H   0  0  0  0  0  0  0  0  0  0  0  0
   57.9036   27.1032   44.8418 H   0  0  0  0  0  0  0  0  0  0  0  0
  1  2  1  0
  2  3  2  0
  3  4  1  0
  4  5  2  0
  5  6  1  0
  6  7  1  0
  7  8  1  0
  8  9  1  0
  9 10  1  0
 10 11  2  0
 11 12  1  0
 12 13  2  0
 13 14  1  0
 14 15  2  0
 14 16  1  0
 16 17  2  0
 16 18  2  0
 16 19  1  0
 19 20  1  0
 20 21  1  0
 21 22  1  0
 22 23  1  0
 23 24  1  0
 24 25  2  0
 25 26  1  0
 26 27  2  0
 27 28  1  0
 28 29  2  0
  5 30  1  0
 30 31  2  0
 31  2  1  0
 15 10  1  0
 29 24  1  0
 21 13  1  0
  1 32  1  0
  1 33  1  0
  1 34  1  0
  3 35  1  0
  4 36  1  0
  6 37  1  0
  6 38  1  0
  7 39  1  0
  7 40  1  0
  8 41  1  0
  9 42  1  0
  9 43  1  0
 11 44  1  0
 12 45  1  0
 15 46  1  0
 19 47  1  0
 19 48  1  0
 20 49  1  0
 20 50  1  0
 22 51  1  0
 22 52  1  0
 23 53  1  0
 23 54  1  0
 25 55  1  0
 26 56  1  0
 27 57  1  0
 28 58  1  0
 29 59  1  0
 30 60  1  0
 31 61  1  0
M  CHG  1  29   1
M  END
>  <UniqueID>  (73) 
65

>  <SMILES>  (73) 
Cc1ccc(CCNCc2ccc3c(c2)S(=O)(=O)CCN3CCc2cccc[nH+]2)cc1

>  <Energy>  (73) 
58.99188004704558

>  <Genealogy>  (73) 
Cc1ccc(CCNCc2ccc3c(c2)S(=O)(=O)CCN3CCc2cccc[nH+]2)cc1 (protonated)
Cc1ccc(CCNCc2ccc3c(c2)S(=O)(=O)CCN3CCc2cccc[nH+]2)cc1 (3D coordinates assigned)
Cc1ccc(CCNCc2ccc3c(c2)S(=O)(=O)CCN3CCc2cccc[nH+]2)cc1 (nonaromatic ring conformer: 58.99188004704558 kcal/mol)

>  <smiles>  (73) 
Cc1ccc(CCNCc2ccc3c(c2)S(=O)(=O)CCN3CCc2ccccn2)cc1

>  <score_type>  (73) 
oracle

>  <origin>  (73) 
adg

>  <m_score__min__energy>  (73) 
-8.2300000000000004

>  <m_primary>  (73) 
energy

$$$$
73:0
     RDKit          3D

 30 32  0  0  0  0  0  0  0  0999 V2000
   56.6500   33.2740   45.2250 O   0  0  0  0  0  0  0  0  0  0  0  0
   57.1080   32.1120   45.0780 C   0  0  0  0  0  0  0  0  0  0  0  0
   56.2760   31.2150   44.4960 N   0  0  0  0  0  0  0  0  0  0  0  0
   56.6480   29.9380   44.2830 C   0  0  0  0  0  0  0  0  0  0  0  0
   57.9210   29.5450   44.6730 C   0  0  0  0  0  0  0  0  0  0  0  0
   58.7220   30.4980   45.2590 C   0  0  0  0  0  0  0  0  0  0  0  0
   58.3560   31.7610   45.4720 N   0  0  0  0  0  0  0  0  0  0  0  0
   59.1640   32.7770   46.0770 C   0  0  0  0  0  0  0  0  0  0  0  0
   59.3780   33.9710   45.1940 C   0  0  0  0  0  0  0  0  0  0  0  0
   59.6160   35.1390   46.1270 C   0  0  0  0  0  0  0  0  0  0  0  0
   59.4780   34.6070   47.5230 C   0  0  0  0  0  0  0  0  0  0  0  0
   58.5570   33.3970   47.3160 C   0  0  0  0  0  0  0  0  0  0  0  0
   59.8960   30.1290   45.6200 N   0  0  0  0  0  0  0  0  0  0  0  0
   60.4810   28.8410   45.4880 C   0  0  0  0  0  0  0  0  0  0  0  0
   59.5650   27.8560   44.8450 C   0  0  0  0  0  0  0  0  0  0  0  0
   58.2860   28.3580   44.4830 N   0  0  0  0  0  0  0  0  0  0  0  0
   55.9586   29.2227   43.8107 H   0  0  0  0  0  0  0  0  0  0  0  0
   60.0877   32.2199   46.2923 H   0  0  0  0  0  0  0  0  0  0  0  0
   60.2524   33.8152   44.5450 H   0  0  0  0  0  0  0  0  0  0  0  0
   58.5135   34.1481   44.5373 H   0  0  0  0  0  0  0  0  0  0  0  0
   60.6260   35.5471   45.9744 H   0  0  0  0  0  0  0  0  0  0  0  0
   58.8974   35.9502   45.9386 H   0  0  0  0  0  0  0  0  0  0  0  0
   60.4524   34.3018   47.9322 H   0  0  0  0  0  0  0  0  0  0  0  0
   59.0871   35.3433   48.2407 H   0  0  0  0  0  0  0  0  0  0  0  0
   58.5970   32.7083   48.1728 H   0  0  0  0  0  0  0  0  0  0  0  0
   57.4912   33.6512   47.2188 H   0  0  0  0  0  0  0  0  0  0  0  0
   61.3900   28.9286   44.8748 H   0  0  0  0  0  0  0  0  0  0  0  0
   60.7067   28.4734   46.4999 H   0  0  0  0  0  0  0  0  0  0  0  0
   60.0538   27.4836   43.9327 H   0  0  0  0  0  0  0  0  0  0  0  0
   59.3818   27.0761   45.5988 H   0  0  0  0  0  0  0  0  0  0  0  0
  1  2  2  0
  2  3  1  0
  3  4  2  0
  4  5  1  0
  5  6  1  0
  6  7  1  0
  7  8  1  0
  8  9  1  0
  9 10  1  0
 10 11  1  0
 11 12  1  0
  6 13  2  0
 13 14  1  0
 14 15  1  0
 15 16  1  0
  7  2  1  0
 12  8  1  0
 16  5  2  0
  4 17  1  0
  8 18  1  0
  9 19  1  0
  9 20  1  0
 10 21  1  0
 10 22  1  0
 11 23  1  0
 11 24  1  0
 12 25  1  0
 12 26  1  0
 14 27  1  0
 14 28  1  0
 15 29  1  0
 15 30  1  0
M  END
>  <smiles>  (74) 
O=c1ncc2c(n1C1CCCC1)=NCCN=2

>  <score_type>  (74) 
oracle

>  <origin>  (74) 
adg

>  <m_score__min__energy>  (74) 
-6.1399999999999997

>  <m_primary>  (74) 
energy

$$$$
74:0
     RDKit          3D

 42 43  0  0  0  0  0  0  0  0999 V2000
   61.3100   26.8020   51.2780 C   0  0  0  0  0  0  0  0  0  0  0  0
   60.7630   27.6090   50.1050 C   0  0  0  0  0  0  0  0  0  0  0  0
   60.5820   26.7760   48.9590 O   0  0  0  0  0  0  0  0  0  0  0  0
   59.7290   27.0480   47.8770 C   0  0  0  0  0  0  0  0  0  0  0  0
   59.5790   26.1740   46.7830 C   0  0  0  0  0  0  0  0  0  0  0  0
   58.7120   26.4960   45.7340 C   0  0  0  0  0  0  0  0  0  0  0  0
   57.9700   27.6890   45.7680 C   0  0  0  0  0  0  0  0  0  0  0  0
   57.0930   28.0730   44.7000 N   0  0  0  0  0  0  0  0  0  0  0  0
   56.3680   29.3070   44.5840 C   0  0  0  0  0  0  0  0  0  0  0  0
   55.1470   29.3540   44.8950 O   0  0  0  0  0  0  0  0  0  0  0  0
   57.0610   30.5690   44.1040 C   0  0  0  0  0  0  0  0  0  0  0  0
   56.7850   30.8370   42.6080 C   0  0  0  0  0  0  0  0  0  0  0  0
   58.5780   30.4150   44.3000 C   0  0  0  0  0  0  0  0  0  0  0  0
   56.6290   31.6910   44.8840 O   0  0  0  0  0  0  0  0  0  0  0  0
   57.4970   32.6740   45.3770 C   0  0  0  0  0  0  0  0  0  0  0  0
   58.0560   33.6110   44.4980 C   0  0  0  0  0  0  0  0  0  0  0  0
   58.9210   34.5980   44.9810 C   0  0  0  0  0  0  0  0  0  0  0  0
   59.2390   34.6450   46.3420 C   0  0  0  0  0  0  0  0  0  0  0  0
   58.6970   33.7010   47.2200 C   0  0  0  0  0  0  0  0  0  0  0  0
   57.8320   32.7130   46.7370 C   0  0  0  0  0  0  0  0  0  0  0  0
   58.1340   28.5640   46.8480 C   0  0  0  0  0  0  0  0  0  0  0  0
   58.9990   28.2420   47.8970 C   0  0  0  0  0  0  0  0  0  0  0  0
   60.9940   27.2682   52.2229 H   0  0  0  0  0  0  0  0  0  0  0  0
   60.9218   25.7740   51.2285 H   0  0  0  0  0  0  0  0  0  0  0  0
   62.4087   26.7818   51.2285 H   0  0  0  0  0  0  0  0  0  0  0  0
   59.7950   28.0477   50.3889 H   0  0  0  0  0  0  0  0  0  0  0  0
   61.4833   28.4020   49.8552 H   0  0  0  0  0  0  0  0  0  0  0  0
   60.1471   25.2325   46.7534 H   0  0  0  0  0  0  0  0  0  0  0  0
   58.6104   25.8123   44.8783 H   0  0  0  0  0  0  0  0  0  0  0  0
   55.9989   31.6003   42.5112 H   0  0  0  0  0  0  0  0  0  0  0  0
   57.7055   31.1951   42.1237 H   0  0  0  0  0  0  0  0  0  0  0  0
   56.4541   29.9064   42.1237 H   0  0  0  0  0  0  0  0  0  0  0  0
   58.8083   30.3916   45.3754 H   0  0  0  0  0  0  0  0  0  0  0  0
   58.9149   29.4780   43.8324 H   0  0  0  0  0  0  0  0  0  0  0  0
   59.0963   31.2651   43.8324 H   0  0  0  0  0  0  0  0  0  0  0  0
   57.8140   33.5702   43.4257 H   0  0  0  0  0  0  0  0  0  0  0  0
   59.3515   35.3378   44.2900 H   0  0  0  0  0  0  0  0  0  0  0  0
   59.9156   35.4246   46.7220 H   0  0  0  0  0  0  0  0  0  0  0  0
   58.9506   33.7352   48.2898 H   0  0  0  0  0  0  0  0  0  0  0  0
   57.4139   31.9650   47.4267 H   0  0  0  0  0  0  0  0  0  0  0  0
   57.5776   29.5126   46.8711 H   0  0  0  0  0  0  0  0  0  0  0  0
   59.1072   28.9330   48.7460 H   0  0  0  0  0  0  0  0  0  0  0  0
  1  2  1  0
  2  3  1  0
  3  4  1  0
  4  5  2  0
  5  6  1  0
  6  7  2  0
  7  8  1  0
  8  9  1  0
  9 10  2  0
  9 11  1  0
 11 12  1  0
 11 13  1  0
 11 14  1  0
 14 15  1  0
 15 16  2  0
 16 17  1  0
 17 18  2  0
 18 19  1  0
 19 20  2  0
  7 21  1  0
 21 22  2  0
 22  4  1  0
 20 15  1  0
  1 23  1  0
  1 24  1  0
  1 25  1  0
  2 26  1  0
  2 27  1  0
  5 28  1  0
  6 29  1  0
 12 30  1  0
 12 31  1  0
 12 32  1  0
 13 33  1  0
 13 34  1  0
 13 35  1  0
 16 36  1  0
 17 37  1  0
 18 38  1  0
 19 39  1  0
 20 40  1  0
 21 41  1  0
 22 42  1  0
M  CHG  1   8  -1
M  END
>  <UniqueID>  (75) 
66

>  <SMILES>  (75) 
CCOc1ccc([N-]C(=O)C(C)(C)Oc2ccccc2)cc1

>  <Energy>  (75) 
47.81441518131

>  <Genealogy>  (75) 
CCOc1ccc([N-]C(=O)C(C)(C)Oc2ccccc2)cc1 (protonated)
CCOc1ccc([N-]C(=O)C(C)(C)Oc2ccccc2)cc1 (3D coordinates assigned)
CCOc1ccc([N-]C(=O)C(C)(C)Oc2ccccc2)cc1 (optimized conformer: 47.81441518131 kcal/mol)

>  <smiles>  (75) 
CCOc1ccc(NC(=O)C(C)(C)Oc2ccccc2)cc1

>  <score_type>  (75) 
oracle

>  <origin>  (75) 
adg

>  <m_score__min__energy>  (75) 
-9.2100000000000009

>  <m_primary>  (75) 
energy

$$$$
75:0
     RDKit          3D

 44 47  0  0  0  0  0  0  0  0999 V2000
   61.1439   28.6985   53.2999 H   0  0  0  0  0  0  0  0  0  0  0  0
   61.0260   28.4250   52.2410 C   0  0  0  0  0  0  0  0  0  0  0  0
   61.2530   27.1080   51.8290 C   0  0  0  0  0  0  0  0  0  0  0  0
   61.5387   26.3430   52.5660 H   0  0  0  0  0  0  0  0  0  0  0  0
   61.1170   26.7630   50.4810 C   0  0  0  0  0  0  0  0  0  0  0  0
   61.2787   25.7227   50.1623 H   0  0  0  0  0  0  0  0  0  0  0  0
   60.7740   27.7420   49.5310 C   0  0  0  0  0  0  0  0  0  0  0  0
   60.5750   27.4060   48.1500 N   0  0  0  0  0  0  0  0  0  0  0  0
   59.5460   27.7240   47.4200 C   0  0  0  0  0  0  0  0  0  0  0  0
   59.2820   29.2700   46.8260 S   0  0  0  0  0  0  0  0  0  0  0  0
   57.8680   28.8390   46.0050 C   0  0  0  0  0  0  0  0  0  0  0  0
   57.0120   29.7700   45.2360 C   0  0  0  0  0  0  0  0  0  0  0  0
   55.8350   29.4410   44.9320 O   0  0  0  0  0  0  0  0  0  0  0  0
   57.5130   31.0840   44.7930 C   0  0  0  0  0  0  0  0  0  0  0  0
   57.5060   31.5860   43.4920 C   0  0  0  0  0  0  0  0  0  0  0  0
   56.9950   30.8710   42.2810 C   0  0  0  0  0  0  0  0  0  0  0  0
   56.3817   30.0129   42.5934 H   0  0  0  0  0  0  0  0  0  0  0  0
   56.3831   31.5595   41.6797 H   0  0  0  0  0  0  0  0  0  0  0  0
   57.8445   30.5150   41.6797 H   0  0  0  0  0  0  0  0  0  0  0  0
   57.9870   32.8510   43.4650 N   0  0  0  0  0  0  0  0  0  0  0  0
   58.0810   33.4730   42.6300 H   0  0  0  0  0  0  0  0  0  0  0  0
   58.2950   33.1550   44.7380 C   0  0  0  0  0  0  0  0  0  0  0  0
   58.7910   34.3670   45.2180 C   0  0  0  0  0  0  0  0  0  0  0  0
   59.0163   35.1984   44.5339 H   0  0  0  0  0  0  0  0  0  0  0  0
   58.9940   34.4930   46.6030 C   0  0  0  0  0  0  0  0  0  0  0  0
   59.3969   35.4308   47.0131 H   0  0  0  0  0  0  0  0  0  0  0  0
   58.6840   33.4230   47.4720 C   0  0  0  0  0  0  0  0  0  0  0  0
   58.8397   33.5361   48.5550 H   0  0  0  0  0  0  0  0  0  0  0  0
   58.1780   32.2150   46.9620 C   0  0  0  0  0  0  0  0  0  0  0  0
   57.9206   31.3808   47.6313 H   0  0  0  0  0  0  0  0  0  0  0  0
   58.0120   32.1060   45.5800 C   0  0  0  0  0  0  0  0  0  0  0  0
   57.6730   27.4650   46.1980 C   0  0  0  0  0  0  0  0  0  0  0  0
   56.6070   26.7200   45.6020 N   0  0  0  0  0  0  0  0  0  0  0  0
   55.9540   27.2430   44.9760 H   0  0  0  0  0  0  0  0  0  0  0  0
   56.0600   25.5510   46.2800 C   0  0  0  0  0  0  0  0  0  0  0  0
   56.1268   25.6938   47.3686 H   0  0  0  0  0  0  0  0  0  0  0  0
   55.0067   25.4192   45.9915 H   0  0  0  0  0  0  0  0  0  0  0  0
   56.6337   24.6579   45.9915 H   0  0  0  0  0  0  0  0  0  0  0  0
   58.5970   26.8580   46.9900 N   0  0  0  0  0  0  0  0  0  0  0  0
   58.5910   25.8320   47.1780 H   0  0  0  0  0  0  0  0  0  0  0  0
   60.5120   29.0500   49.9580 C   0  0  0  0  0  0  0  0  0  0  0  0
   60.1967   29.8107   49.2287 H   0  0  0  0  0  0  0  0  0  0  0  0
   60.6490   29.3940   51.3060 C   0  0  0  0  0  0  0  0  0  0  0  0
   60.4601   30.4276   51.6314 H   0  0  0  0  0  0  0  0  0  0  0  0
  1  2  1  0
  2  3  2  0
  3  4  1  0
  3  5  1  0
  5  6  1  0
  5  7  2  0
  7  8  1  0
  8  9  2  0
  9 10  1  0
 10 11  1  0
 11 12  1  0
 12 13  2  0
 12 14  1  0
 14 15  2  0
 15 16  1  0
 16 17  1  0
 16 18  1  0
 16 19  1  0
 15 20  1  0
 20 21  1  0
 20 22  1  0
 22 23  2  0
 23 24  1  0
 23 25  1  0
 25 26  1  0
 25 27  2  0
 27 28  1  0
 27 29  1  0
 29 30  1  0
 29 31  2  0
 11 32  2  0
 32 33  1  0
 33 34  1  0
 33 35  1  0
 35 36  1  0
 35 37  1  0
 35 38  1  0
 32 39  1  0
 39 40  1  0
  7 41  1  0
 41 42  1  0
 41 43  2  0
 43 44  1  0
 43  2  1  0
 39  9  1  0
 31 14  1  0
 31 22  1  0
M  END
>  <UniqueID>  (76) 
67

>  <SMILES>  (76) 
CNc1[nH]/c(=N\c2ccccc2)sc1C(=O)c1c(C)[nH]c2ccccc12

>  <Energy>  (76) 
127.68372618203306

>  <Genealogy>  (76) 
CNc1[nH]/c(=N\c2ccccc2)sc1C(=O)c1c(C)[nH]c2ccccc12 (cis-trans isomerization)
CNc1[nH]/c(=N\c2ccccc2)sc1C(=O)c1c(C)[nH]c2ccccc12 (3D coordinates assigned)
CNc1[nH]/c(=N\c2ccccc2)sc1C(=O)c1c(C)[nH]c2ccccc12 (optimized conformer: 127.68372618203306 kcal/mol)

>  <smiles>  (76) 
CNc1[nH]c(=Nc2ccccc2)sc1C(=O)c1c(C)[nH]c2ccccc12

>  <score_type>  (76) 
oracle

>  <origin>  (76) 
adg

>  <m_score__min__energy>  (76) 
-8.4199999999999999

>  <m_primary>  (76) 
energy

$$$$
76:0
     RDKit          3D

 49 51  0  0  0  0  0  0  0  0999 V2000
   60.1870   30.1170   48.0490 C   0  0  0  0  0  0  0  0  0  0  0  0
   60.1620   29.1720   46.9180 N   0  0  0  0  0  0  0  0  0  0  0  0
   59.9540   29.9100   45.6440 C   0  0  0  0  0  0  0  0  0  0  0  0
   59.4300   28.9840   44.5350 C   0  0  0  0  0  0  0  0  0  0  0  0
   58.1340   28.3480   44.8900 N   0  0  0  0  0  0  0  0  0  0  0  0
   57.0040   28.9480   44.1510 C   0  0  0  0  0  0  0  0  0  0  0  0
   57.1620   30.4360   44.0550 C   0  0  0  0  0  0  0  0  0  0  0  0
   57.3130   30.9740   42.9260 O   0  0  0  0  0  0  0  0  0  0  0  0
   57.0480   31.2320   45.2420 N   0  0  0  0  0  0  0  0  0  0  0  0
   57.7400   32.4560   45.5260 C   0  0  0  0  0  0  0  0  0  0  0  0
   57.9190   33.4600   44.5560 C   0  0  0  0  0  0  0  0  0  0  0  0
   58.6320   34.6220   44.8690 C   0  0  0  0  0  0  0  0  0  0  0  0
   59.1700   34.7930   46.1470 C   0  0  0  0  0  0  0  0  0  0  0  0
   59.0120   33.7930   47.1200 C   0  0  0  0  0  0  0  0  0  0  0  0
   59.6510   33.9460   48.4740 C   0  0  0  0  0  0  0  0  0  0  0  0
   61.1280   33.6690   48.3850 C   0  0  0  0  0  0  0  0  0  0  0  0
   61.9760   33.9920   49.4590 C   0  0  0  0  0  0  0  0  0  0  0  0
   63.3520   33.7570   49.3620 C   0  0  0  0  0  0  0  0  0  0  0  0
   63.8910   33.2130   48.1900 C   0  0  0  0  0  0  0  0  0  0  0  0
   63.0570   32.9080   47.1120 C   0  0  0  0  0  0  0  0  0  0  0  0
   61.6790   33.1370   47.2060 C   0  0  0  0  0  0  0  0  0  0  0  0
   58.3100   32.6210   46.7960 C   0  0  0  0  0  0  0  0  0  0  0  0
   57.8710   28.3210   46.3510 C   0  0  0  0  0  0  0  0  0  0  0  0
   59.1650   28.0890   47.1410 C   0  0  0  0  0  0  0  0  0  0  0  0
   60.1722   29.5566   48.9954 H   0  0  0  0  0  0  0  0  0  0  0  0
   61.1016   30.7260   47.9978 H   0  0  0  0  0  0  0  0  0  0  0  0
   59.3059   30.7736   47.9978 H   0  0  0  0  0  0  0  0  0  0  0  0
   61.1110   28.7260   46.8740 H   0  0  0  0  0  0  0  0  0  0  0  0
   59.2233   30.7148   45.8125 H   0  0  0  0  0  0  0  0  0  0  0  0
   60.9221   30.3208   45.3214 H   0  0  0  0  0  0  0  0  0  0  0  0
   59.2934   29.5748   43.6172 H   0  0  0  0  0  0  0  0  0  0  0  0
   60.1686   28.1813   44.3928 H   0  0  0  0  0  0  0  0  0  0  0  0
   56.9694   28.5227   43.1371 H   0  0  0  0  0  0  0  0  0  0  0  0
   56.0716   28.7261   44.6908 H   0  0  0  0  0  0  0  0  0  0  0  0
   57.4968   33.3305   43.5485 H   0  0  0  0  0  0  0  0  0  0  0  0
   58.7695   35.4032   44.1069 H   0  0  0  0  0  0  0  0  0  0  0  0
   59.7192   35.7141   46.3918 H   0  0  0  0  0  0  0  0  0  0  0  0
   59.4949   34.9730   48.8357 H   0  0  0  0  0  0  0  0  0  0  0  0
   59.1923   33.2291   49.1709 H   0  0  0  0  0  0  0  0  0  0  0  0
   61.5571   34.4301   50.3769 H   0  0  0  0  0  0  0  0  0  0  0  0
   64.0114   34.0001   50.2082 H   0  0  0  0  0  0  0  0  0  0  0  0
   64.9725   33.0256   48.1181 H   0  0  0  0  0  0  0  0  0  0  0  0
   63.4829   32.4878   46.1889 H   0  0  0  0  0  0  0  0  0  0  0  0
   61.0249   32.8998   46.3541 H   0  0  0  0  0  0  0  0  0  0  0  0
   58.2062   31.8238   47.5468 H   0  0  0  0  0  0  0  0  0  0  0  0
   57.4322   29.2828   46.6548 H   0  0  0  0  0  0  0  0  0  0  0  0
   57.1776   27.4945   46.5659 H   0  0  0  0  0  0  0  0  0  0  0  0
   58.9226   28.0459   48.2131 H   0  0  0  0  0  0  0  0  0  0  0  0
   59.6086   27.1447   46.7925 H   0  0  0  0  0  0  0  0  0  0  0  0
  1  2  1  0
  2  3  1  0
  3  4  1  0
  4  5  1  0
  5  6  1  0
  6  7  1  0
  7  8  2  0
  7  9  1  0
  9 10  1  0
 10 11  2  0
 11 12  1  0
 12 13  2  0
 13 14  1  0
 14 15  1  0
 15 16  1  0
 16 17  2  0
 17 18  1  0
 18 19  2  0
 19 20  1  0
 20 21  2  0
 14 22  2  0
  5 23  1  0
 23 24  1  0
 24  2  1  0
 22 10  1  0
 21 16  1  0
  1 25  1  0
  1 26  1  0
  1 27  1  0
  2 28  1  0
  3 29  1  0
  3 30  1  0
  4 31  1  0
  4 32  1  0
  6 33  1  0
  6 34  1  0
 11 35  1  0
 12 36  1  0
 13 37  1  0
 15 38  1  0
 15 39  1  0
 17 40  1  0
 18 41  1  0
 19 42  1  0
 20 43  1  0
 21 44  1  0
 22 45  1  0
 23 46  1  0
 23 47  1  0
 24 48  1  0
 24 49  1  0
M  CHG  2   2   1   9  -1
M  END
>  <UniqueID>  (77) 
68

>  <SMILES>  (77) 
C[NH+]1CCN(CC(=O)[N-]c2cccc(Cc3ccccc3)c2)CC1

>  <Energy>  (77) 
63.79868059738526

>  <Genealogy>  (77) 
C[NH+]1CCN(CC(=O)[N-]c2cccc(Cc3ccccc3)c2)CC1 (protonated)
C[NH+]1CCN(CC(=O)[N-]c2cccc(Cc3ccccc3)c2)CC1 (3D coordinates assigned)
C[NH+]1CCN(CC(=O)[N-]c2cccc(Cc3ccccc3)c2)CC1 (nonaromatic ring conformer: 63.79868059738526 kcal/mol)

>  <smiles>  (77) 
CN1CCN(CC(=O)Nc2cccc(Cc3ccccc3)c2)CC1

>  <score_type>  (77) 
oracle

>  <origin>  (77) 
adg

>  <m_score__min__energy>  (77) 
-8.6500000000000004

>  <m_primary>  (77) 
energy

$$$$
77:0
     RDKit          3D

 36 38  0  0  0  0  0  0  0  0999 V2000
   56.1880   30.1020   44.8460 O   0  0  0  0  0  0  0  0  0  0  0  0
   57.3810   30.5080   44.8930 C   0  0  0  0  0  0  0  0  0  0  0  0
   58.4650   29.5890   44.6770 N   0  0  0  0  0  0  0  0  0  0  0  0
   58.3070   28.1590   44.7110 C   0  0  0  0  0  0  0  0  0  0  0  0
   57.9710   27.4500   43.5430 C   0  0  0  0  0  0  0  0  0  0  0  0
   57.7890   26.0650   43.5820 C   0  0  0  0  0  0  0  0  0  0  0  0
   57.9310   25.3740   44.7860 C   0  0  0  0  0  0  0  0  0  0  0  0
   58.2490   26.0680   45.9560 C   0  0  0  0  0  0  0  0  0  0  0  0
   58.4320   27.4550   45.9270 C   0  0  0  0  0  0  0  0  0  0  0  0
   58.8550   28.2800   47.4230 Cl  0  0  0  0  0  0  0  0  0  0  0  0
   57.6370   31.9380   45.1350 C   0  0  0  0  0  0  0  0  0  0  0  0
   58.8680   32.5440   45.2990 C   0  0  0  0  0  0  0  0  0  0  0  0
   58.5470   33.8660   45.5170 C   0  0  0  0  0  0  0  0  0  0  0  0
   59.5100   34.9870   45.7520 C   0  0  0  0  0  0  0  0  0  0  0  0
   60.1830   34.8200   47.0000 O   0  0  0  0  0  0  0  0  0  0  0  0
   61.1210   33.8140   47.2890 C   0  0  0  0  0  0  0  0  0  0  0  0
   62.4370   33.8410   46.7820 C   0  0  0  0  0  0  0  0  0  0  0  0
   63.3360   32.8190   47.1000 C   0  0  0  0  0  0  0  0  0  0  0  0
   62.9370   31.7630   47.9220 C   0  0  0  0  0  0  0  0  0  0  0  0
   61.6350   31.7250   48.4260 C   0  0  0  0  0  0  0  0  0  0  0  0
   60.7290   32.7450   48.1120 C   0  0  0  0  0  0  0  0  0  0  0  0
   59.0990   32.6750   48.7660 Cl  0  0  0  0  0  0  0  0  0  0  0  0
   57.2430   34.0030   45.4740 O   0  0  0  0  0  0  0  0  0  0  0  0
   56.6610   32.8610   45.2490 N   0  0  0  0  0  0  0  0  0  0  0  0
   59.3980   29.9760   44.4140 H   0  0  0  0  0  0  0  0  0  0  0  0
   57.8507   27.9899   42.5922 H   0  0  0  0  0  0  0  0  0  0  0  0
   57.5334   25.5186   42.6621 H   0  0  0  0  0  0  0  0  0  0  0  0
   57.7926   24.2831   44.8138 H   0  0  0  0  0  0  0  0  0  0  0  0
   58.3561   25.5215   46.9046 H   0  0  0  0  0  0  0  0  0  0  0  0
   59.8655   32.0816   45.2639 H   0  0  0  0  0  0  0  0  0  0  0  0
   60.2524   35.0016   44.9404 H   0  0  0  0  0  0  0  0  0  0  0  0
   58.9515   35.9344   45.7750 H   0  0  0  0  0  0  0  0  0  0  0  0
   62.7572   34.6699   46.1336 H   0  0  0  0  0  0  0  0  0  0  0  0
   64.3609   32.8466   46.7015 H   0  0  0  0  0  0  0  0  0  0  0  0
   63.6477   30.9616   48.1724 H   0  0  0  0  0  0  0  0  0  0  0  0
   61.3206   30.8915   49.0713 H   0  0  0  0  0  0  0  0  0  0  0  0
  1  2  2  0
  2  3  1  0
  3  4  1  0
  4  5  2  0
  5  6  1  0
  6  7  2  0
  7  8  1  0
  8  9  2  0
  9 10  1  0
  2 11  1  0
 11 12  1  0
 12 13  2  0
 13 14  1  0
 14 15  1  0
 15 16  1  0
 16 17  2  0
 17 18  1  0
 18 19  2  0
 19 20  1  0
 20 21  2  0
 21 22  1  0
 13 23  1  0
 23 24  1  0
  9  4  1  0
 24 11  2  0
 21 16  1  0
  3 25  1  0
  5 26  1  0
  6 27  1  0
  7 28  1  0
  8 29  1  0
 12 30  1  0
 14 31  1  0
 14 32  1  0
 17 33  1  0
 18 34  1  0
 19 35  1  0
 20 36  1  0
M  END
>  <UniqueID>  (78) 
69

>  <SMILES>  (78) 
O=C(Nc1ccccc1Cl)c1cc(COc2ccccc2Cl)on1

>  <Energy>  (78) 
72.43956407310412

>  <Genealogy>  (78) 
O=C(Nc1ccccc1Cl)c1cc(COc2ccccc2Cl)on1 (3D coordinates assigned)
O=C(Nc1ccccc1Cl)c1cc(COc2ccccc2Cl)on1 (optimized conformer: 72.43956407310412 kcal/mol)

>  <smiles>  (78) 
O=C(Nc1ccccc1Cl)c1cc(COc2ccccc2Cl)on1

>  <score_type>  (78) 
oracle

>  <origin>  (78) 
adg

>  <m_score__min__energy>  (78) 
-8.1099999999999994

>  <m_primary>  (78) 
energy

$$$$
78:0
     RDKit          3D

 29 30  0  0  0  0  0  0  0  0999 V2000
   57.7027   29.4461   46.4600 H   0  0  0  0  0  0  0  0  0  0  0  0
   57.2260   28.9040   45.6300 C   0  0  0  0  0  0  0  0  0  0  0  0
   56.1540   29.6040   44.8880 C   0  0  0  0  0  0  0  0  0  0  0  0
   55.1530   28.9630   44.4700 O   0  0  0  0  0  0  0  0  0  0  0  0
   56.2580   30.9950   44.5700 N   0  0  0  0  0  0  0  0  0  0  0  0
   57.4270   31.6100   43.9540 C   0  0  0  0  0  0  0  0  0  0  0  0
   58.1570   30.8299   43.6923 H   0  0  0  0  0  0  0  0  0  0  0  0
   57.1228   32.1467   43.0433 H   0  0  0  0  0  0  0  0  0  0  0  0
   58.0500   32.5750   44.9200 C   0  0  0  0  0  0  0  0  0  0  0  0
   58.6620   33.7500   44.4540 C   0  0  0  0  0  0  0  0  0  0  0  0
   58.7088   33.9527   43.3738 H   0  0  0  0  0  0  0  0  0  0  0  0
   59.2120   34.6630   45.3590 C   0  0  0  0  0  0  0  0  0  0  0  0
   59.6984   35.5775   44.9888 H   0  0  0  0  0  0  0  0  0  0  0  0
   59.1450   34.4160   46.7330 C   0  0  0  0  0  0  0  0  0  0  0  0
   59.6770   35.3040   47.6090 F   0  0  0  0  0  0  0  0  0  0  0  0
   58.5230   33.2560   47.2050 C   0  0  0  0  0  0  0  0  0  0  0  0
   58.4668   33.0641   48.2867 H   0  0  0  0  0  0  0  0  0  0  0  0
   57.9720   32.3390   46.3030 C   0  0  0  0  0  0  0  0  0  0  0  0
   57.4766   31.4311   46.6775 H   0  0  0  0  0  0  0  0  0  0  0  0
   57.6640   27.6620   45.3730 C   0  0  0  0  0  0  0  0  0  0  0  0
   58.7166   27.5530   45.0728 H   0  0  0  0  0  0  0  0  0  0  0  0
   56.8570   26.4300   45.4580 C   0  0  0  0  0  0  0  0  0  0  0  0
   55.6430   26.4040   45.9560 O   0  0  0  0  0  0  0  0  0  0  0  0
   55.1670   25.1850   45.8510 C   0  0  0  0  0  0  0  0  0  0  0  0
   54.1729   24.8613   46.1930 H   0  0  0  0  0  0  0  0  0  0  0  0
   56.1040   24.3710   45.2460 C   0  0  0  0  0  0  0  0  0  0  0  0
   56.0016   23.2997   45.0185 H   0  0  0  0  0  0  0  0  0  0  0  0
   57.1940   25.1740   44.9850 C   0  0  0  0  0  0  0  0  0  0  0  0
   58.1363   24.8776   44.5010 H   0  0  0  0  0  0  0  0  0  0  0  0
  1  2  1  0
  2  3  1  0
  3  4  2  0
  3  5  1  0
  5  6  1  0
  6  7  1  0
  6  8  1  0
  6  9  1  0
  9 10  2  0
 10 11  1  0
 10 12  1  0
 12 13  1  0
 12 14  2  0
 14 15  1  0
 14 16  1  0
 16 17  1  0
 16 18  2  0
 18 19  1  0
  2 20  2  0
 20 21  1  0
 20 22  1  0
 22 23  1  0
 23 24  1  0
 24 25  1  0
 24 26  2  0
 26 27  1  0
 26 28  1  0
 28 29  1  0
 18  9  1  0
 28 22  2  0
M  CHG  1   5  -1
M  END
>  <UniqueID>  (79) 
70

>  <SMILES>  (79) 
O=C(/C=C\c1ccco1)[N-]Cc1ccc(F)cc1

>  <Energy>  (79) 
59.82587413975987

>  <Genealogy>  (79) 
O=C(C=Cc1ccco1)[N-]Cc1ccc(F)cc1 (protonated)
O=C(/C=C\c1ccco1)[N-]Cc1ccc(F)cc1 (cis-trans isomerization)
O=C(/C=C\c1ccco1)[N-]Cc1ccc(F)cc1 (3D coordinates assigned)
O=C(/C=C\c1ccco1)[N-]Cc1ccc(F)cc1 (optimized conformer: 59.82587413975987 kcal/mol)

>  <smiles>  (79) 
O=C(C=Cc1ccco1)NCc1ccc(F)cc1

>  <score_type>  (79) 
oracle

>  <origin>  (79) 
adg

>  <m_score__min__energy>  (79) 
-8.6899999999999995

>  <m_primary>  (79) 
energy

$$$$
79:0
     RDKit          3D

 37 38  0  0  0  0  0  0  0  0999 V2000
   57.9127   25.9068   45.5912 H   0  0  0  0  0  0  0  0  0  0  0  0
   57.6280   26.9650   45.4960 C   0  0  0  0  0  0  0  0  0  0  0  0
   56.2090   27.3340   45.6300 C   0  0  0  0  0  0  0  0  0  0  0  0
   55.3700   26.5310   46.1190 O   0  0  0  0  0  0  0  0  0  0  0  0
   55.7870   28.5870   45.2090 O   0  0  0  0  0  0  0  0  0  0  0  0
   58.5850   27.8740   45.2620 C   0  0  0  0  0  0  0  0  0  0  0  0
   59.3336   27.6522   44.4871 H   0  0  0  0  0  0  0  0  0  0  0  0
   58.6910   29.1630   45.9900 C   0  0  0  0  0  0  0  0  0  0  0  0
   59.3670   29.1840   47.2190 C   0  0  0  0  0  0  0  0  0  0  0  0
   59.7936   28.2538   47.6225 H   0  0  0  0  0  0  0  0  0  0  0  0
   59.5030   30.3740   47.9340 C   0  0  0  0  0  0  0  0  0  0  0  0
   60.0223   30.3731   48.9037 H   0  0  0  0  0  0  0  0  0  0  0  0
   58.9830   31.5680   47.4250 C   0  0  0  0  0  0  0  0  0  0  0  0
   59.1940   33.0860   48.3660 S   0  0  0  0  0  0  0  0  0  0  0  0
   60.9370   33.2280   47.9500 C   0  0  0  0  0  0  0  0  0  0  0  0
   61.8970   32.8120   48.8830 C   0  0  0  0  0  0  0  0  0  0  0  0
   61.5781   32.4158   49.8584 H   0  0  0  0  0  0  0  0  0  0  0  0
   63.2570   32.8990   48.5780 C   0  0  0  0  0  0  0  0  0  0  0  0
   64.0070   32.5659   49.3105 H   0  0  0  0  0  0  0  0  0  0  0  0
   63.6650   33.4080   47.3450 C   0  0  0  0  0  0  0  0  0  0  0  0
   64.7366   33.4712   47.1048 H   0  0  0  0  0  0  0  0  0  0  0  0
   62.7150   33.8380   46.4140 C   0  0  0  0  0  0  0  0  0  0  0  0
   63.0426   34.2417   45.4446 H   0  0  0  0  0  0  0  0  0  0  0  0
   61.3390   33.7570   46.7110 C   0  0  0  0  0  0  0  0  0  0  0  0
   60.3580   34.1950   45.8090 O   0  0  0  0  0  0  0  0  0  0  0  0
   59.6580   35.4300   45.9130 C   0  0  0  0  0  0  0  0  0  0  0  0
   59.5150   35.6822   46.9741 H   0  0  0  0  0  0  0  0  0  0  0  0
   60.2404   36.2240   45.4226 H   0  0  0  0  0  0  0  0  0  0  0  0
   58.6776   35.3382   45.4226 H   0  0  0  0  0  0  0  0  0  0  0  0
   58.3050   31.5730   46.1960 C   0  0  0  0  0  0  0  0  0  0  0  0
   57.7770   32.7850   45.7220 O   0  0  0  0  0  0  0  0  0  0  0  0
   57.7460   33.1740   44.3520 C   0  0  0  0  0  0  0  0  0  0  0  0
   57.6588   34.2684   44.2835 H   0  0  0  0  0  0  0  0  0  0  0  0
   58.6729   32.8484   43.8573 H   0  0  0  0  0  0  0  0  0  0  0  0
   56.8823   32.7056   43.8573 H   0  0  0  0  0  0  0  0  0  0  0  0
   58.1720   30.3680   45.4760 C   0  0  0  0  0  0  0  0  0  0  0  0
   57.6580   30.3686   44.5035 H   0  0  0  0  0  0  0  0  0  0  0  0
  1  2  1  0
  2  3  1  0
  3  4  2  0
  3  5  1  0
  2  6  2  0
  6  7  1  0
  6  8  1  0
  8  9  2  0
  9 10  1  0
  9 11  1  0
 11 12  1  0
 11 13  2  0
 13 14  1  0
 14 15  1  0
 15 16  2  0
 16 17  1  0
 16 18  1  0
 18 19  1  0
 18 20  2  0
 20 21  1  0
 20 22  1  0
 22 23  1  0
 22 24  2  0
 24 25  1  0
 25 26  1  0
 26 27  1  0
 26 28  1  0
 26 29  1  0
 13 30  1  0
 30 31  1  0
 31 32  1  0
 32 33  1  0
 32 34  1  0
 32 35  1  0
 30 36  2  0
 36 37  1  0
 36  8  1  0
 24 15  1  0
M  CHG  1   5  -1
M  END
>  <UniqueID>  (80) 
71

>  <SMILES>  (80) 
COc1ccccc1Sc1ccc(/C=C/C(=O)[O-])cc1OC

>  <Energy>  (80) 
32.900705301325296

>  <Genealogy>  (80) 
COc1ccccc1Sc1ccc(C=CC(=O)[O-])cc1OC (protonated)
COc1ccccc1Sc1ccc(/C=C/C(=O)[O-])cc1OC (cis-trans isomerization)
COc1ccccc1Sc1ccc(/C=C/C(=O)[O-])cc1OC (3D coordinates assigned)
COc1ccccc1Sc1ccc(/C=C/C(=O)[O-])cc1OC (optimized conformer: 32.900705301325296 kcal/mol)

>  <smiles>  (80) 
COc1ccccc1Sc1ccc(C=CC(=O)O)cc1OC

>  <score_type>  (80) 
oracle

>  <origin>  (80) 
adg

>  <m_score__min__energy>  (80) 
-9.6899999999999995

>  <m_primary>  (80) 
energy

$$$$
80:0
     RDKit          3D

 88 92  0  0  0  0  0  0  0  0999 V2000
   59.8350   33.9420   53.7450 O   0  0  0  0  0  0  0  0  0  0  0  0
   59.0950   33.6160   52.4770 S   0  0  0  0  0  0  0  0  0  0  0  0
   58.1380   34.7340   52.1700 O   0  0  0  0  0  0  0  0  0  0  0  0
   60.2410   33.4070   51.1840 N   0  0  0  0  0  0  0  0  0  0  0  0
   59.8720   34.2160   50.0220 C   0  0  0  0  0  0  0  0  0  0  0  0
   59.3990   33.3340   48.8980 C   0  0  0  0  0  0  0  0  0  0  0  0
   59.2160   33.8570   47.6070 C   0  0  0  0  0  0  0  0  0  0  0  0
   58.7770   33.0340   46.5660 C   0  0  0  0  0  0  0  0  0  0  0  0
   58.5220   31.6690   46.7920 C   0  0  0  0  0  0  0  0  0  0  0  0
   58.0500   30.8100   45.6810 C   0  0  0  0  0  0  0  0  0  0  0  0
   58.5410   29.5730   45.2970 C   0  0  0  0  0  0  0  0  0  0  0  0
   57.7870   29.1700   44.2620 N   0  0  0  0  0  0  0  0  0  0  0  0
   57.9110   27.9160   43.5230 C   0  0  0  0  0  0  0  0  0  0  0  0
   57.7540   26.6950   44.4450 C   0  0  2  0  0  0  0  0  0  0  0  0
   56.7920   27.0170   45.6120 C   0  0  0  0  0  0  0  0  0  0  0  0
   56.6480   25.8340   46.5800 C   0  0  0  0  0  0  0  0  0  0  0  0
   57.7700   24.8100   46.4040 C   0  0  0  0  0  0  0  0  0  0  0  0
   59.1090   25.5000   46.0530 C   0  0  2  0  0  0  0  0  0  0  0  0
   59.6950   26.3420   47.2110 C   0  0  0  0  0  0  0  0  0  0  0  0
   60.5650   27.5440   46.7940 C   0  0  0  0  0  0  0  0  0  0  0  0
   60.5900   28.6670   47.8410 C   0  0  0  0  0  0  0  0  0  0  0  0
   60.3120   28.1060   49.2400 C   0  0  0  0  0  0  0  0  0  0  0  0
   59.9700   29.1470   50.1380 O   0  0  0  0  0  0  0  0  0  0  0  0
   60.7110   29.0660   51.3410 C   0  0  0  0  0  0  0  0  0  0  0  0
   62.1870   29.4580   51.1450 C   0  0  0  0  0  0  0  0  0  0  0  0
   62.4220   30.9690   51.3010 C   0  0  0  0  0  0  0  0  0  0  0  0
   63.6620   31.4450   50.5280 C   0  0  0  0  0  0  0  0  0  0  0  0
   63.2930   32.1200   49.2280 C   0  0  0  0  0  0  0  0  0  0  0  0
   63.8880   33.3380   48.8630 C   0  0  0  0  0  0  0  0  0  0  0  0
   63.5760   33.9380   47.6360 C   0  0  0  0  0  0  0  0  0  0  0  0
   62.6720   33.3260   46.7650 C   0  0  0  0  0  0  0  0  0  0  0  0
   62.0760   32.1150   47.1200 C   0  0  0  0  0  0  0  0  0  0  0  0
   62.3830   31.5120   48.3460 C   0  0  0  0  0  0  0  0  0  0  0  0
   59.0540   26.3200   44.8870 O   0  0  0  0  0  0  0  0  0  0  0  0
   56.8930   30.1110   44.0250 N   0  0  0  0  0  0  0  0  0  0  0  0
   57.0240   31.1240   44.8650 N   0  0  0  0  0  0  0  0  0  0  0  0
   58.7140   31.1460   48.0860 C   0  0  0  0  0  0  0  0  0  0  0  0
   59.1450   31.9740   49.1290 C   0  0  0  0  0  0  0  0  0  0  0  0
   58.1830   32.1170   52.6670 C   0  0  0  0  0  0  0  0  0  0  0  0
   56.8800   32.0260   52.1460 C   0  0  0  0  0  0  0  0  0  0  0  0
   56.1410   30.8470   52.2900 C   0  0  0  0  0  0  0  0  0  0  0  0
   54.5180   30.7430   51.6290 Cl  0  0  0  0  0  0  0  0  0  0  0  0
   56.6990   29.7510   52.9500 C   0  0  0  0  0  0  0  0  0  0  0  0
   57.9940   29.8290   53.4720 C   0  0  0  0  0  0  0  0  0  0  0  0
   58.7400   31.0050   53.3320 C   0  0  0  0  0  0  0  0  0  0  0  0
   60.3670   31.0400   54.0030 Cl  0  0  0  0  0  0  0  0  0  0  0  0
   59.0649   34.9083   50.3038 H   0  0  0  0  0  0  0  0  0  0  0  0
   60.7540   34.7808   49.6856 H   0  0  0  0  0  0  0  0  0  0  0  0
   59.4194   34.9207   47.4142 H   0  0  0  0  0  0  0  0  0  0  0  0
   58.6296   33.4572   45.5614 H   0  0  0  0  0  0  0  0  0  0  0  0
   59.3824   29.0285   45.7505 H   0  0  0  0  0  0  0  0  0  0  0  0
   57.1312   27.8802   42.7480 H   0  0  0  0  0  0  0  0  0  0  0  0
   58.9146   27.8801   43.0740 H   0  0  0  0  0  0  0  0  0  0  0  0
   57.3023   25.8466   43.9100 H   0  0  0  0  0  0  0  0  0  0  0  0
   57.1824   27.8837   46.1656 H   0  0  0  0  0  0  0  0  0  0  0  0
   55.8005   27.2313   45.1865 H   0  0  0  0  0  0  0  0  0  0  0  0
   56.6730   26.2144   47.6118 H   0  0  0  0  0  0  0  0  0  0  0  0
   55.6932   25.3324   46.3639 H   0  0  0  0  0  0  0  0  0  0  0  0
   57.8917   24.2469   47.3410 H   0  0  0  0  0  0  0  0  0  0  0  0
   57.4992   24.1360   45.5779 H   0  0  0  0  0  0  0  0  0  0  0  0
   59.7747   24.6475   45.8527 H   0  0  0  0  0  0  0  0  0  0  0  0
   58.8546   26.7250   47.8085 H   0  0  0  0  0  0  0  0  0  0  0  0
   60.3649   25.6658   47.7623 H   0  0  0  0  0  0  0  0  0  0  0  0
   61.5948   27.1914   46.6353 H   0  0  0  0  0  0  0  0  0  0  0  0
   60.1247   27.9628   45.8770 H   0  0  0  0  0  0  0  0  0  0  0  0
   61.5801   29.1461   47.8337 H   0  0  0  0  0  0  0  0  0  0  0  0
   59.8101   29.4017   47.5919 H   0  0  0  0  0  0  0  0  0  0  0  0
   59.4788   27.3901   49.1830 H   0  0  0  0  0  0  0  0  0  0  0  0
   61.2203   27.6060   49.6075 H   0  0  0  0  0  0  0  0  0  0  0  0
   60.2601   29.7439   52.0807 H   0  0  0  0  0  0  0  0  0  0  0  0
   60.6827   28.0213   51.6842 H   0  0  0  0  0  0  0  0  0  0  0  0
   62.7948   28.9277   51.8929 H   0  0  0  0  0  0  0  0  0  0  0  0
   62.4726   29.1801   50.1197 H   0  0  0  0  0  0  0  0  0  0  0  0
   61.5401   31.5060   50.9217 H   0  0  0  0  0  0  0  0  0  0  0  0
   62.5881   31.1771   52.3683 H   0  0  0  0  0  0  0  0  0  0  0  0
   64.2182   32.1587   51.1535 H   0  0  0  0  0  0  0  0  0  0  0  0
   64.2745   30.5625   50.2911 H   0  0  0  0  0  0  0  0  0  0  0  0
   64.6027   33.8237   49.5437 H   0  0  0  0  0  0  0  0  0  0  0  0
   64.0443   34.8937   47.3579 H   0  0  0  0  0  0  0  0  0  0  0  0
   62.4302   33.7975   45.8010 H   0  0  0  0  0  0  0  0  0  0  0  0
   61.3631   31.6329   46.4349 H   0  0  0  0  0  0  0  0  0  0  0  0
   61.9096   30.5577   48.6202 H   0  0  0  0  0  0  0  0  0  0  0  0
   56.1700   30.0670   43.2750 H   0  0  0  0  0  0  0  0  0  0  0  0
   58.5239   30.0797   48.2780 H   0  0  0  0  0  0  0  0  0  0  0  0
   59.2855   31.5554   50.1365 H   0  0  0  0  0  0  0  0  0  0  0  0
   56.4393   32.8870   51.6221 H   0  0  0  0  0  0  0  0  0  0  0  0
   56.1184   28.8232   53.0599 H   0  0  0  0  0  0  0  0  0  0  0  0
   58.4277   28.9635   53.9942 H   0  0  0  0  0  0  0  0  0  0  0  0
  1  2  2  0
  2  3  2  0
  2  4  1  0
  4  5  1  0
  5  6  1  0
  6  7  2  0
  7  8  1  0
  8  9  2  0
  9 10  1  0
 10 11  2  0
 11 12  1  0
 12 13  1  0
 13 14  1  0
 14 15  1  0
 15 16  1  0
 16 17  1  0
 17 18  1  0
 18 19  1  0
 19 20  1  0
 20 21  1  0
 21 22  1  0
 22 23  1  0
 23 24  1  0
 24 25  1  0
 25 26  1  0
 26 27  1  0
 27 28  1  0
 28 29  2  0
 29 30  1  0
 30 31  2  0
 31 32  1  0
 32 33  2  0
 18 34  1  0
 12 35  1  0
 35 36  2  0
  9 37  1  0
 37 38  2  0
  2 39  1  0
 39 40  2  0
 40 41  1  0
 41 42  1  0
 41 43  2  0
 43 44  1  0
 44 45  2  0
 45 46  1  0
 38  6  1  0
 45 39  1  0
 36 10  1  0
 34 14  1  0
 33 28  1  0
  5 47  1  0
  5 48  1  0
  7 49  1  0
  8 50  1  0
 11 51  1  0
 13 52  1  0
 13 53  1  0
 14 54  1  6
 15 55  1  0
 15 56  1  0
 16 57  1  0
 16 58  1  0
 17 59  1  0
 17 60  1  0
 18 61  1  6
 19 62  1  0
 19 63  1  0
 20 64  1  0
 20 65  1  0
 21 66  1  0
 21 67  1  0
 22 68  1  0
 22 69  1  0
 24 70  1  0
 24 71  1  0
 25 72  1  0
 25 73  1  0
 26 74  1  0
 26 75  1  0
 27 76  1  0
 27 77  1  0
 29 78  1  0
 30 79  1  0
 31 80  1  0
 32 81  1  0
 33 82  1  0
 35 83  1  0
 37 84  1  0
 38 85  1  0
 40 86  1  0
 43 87  1  0
 44 88  1  0
M  CHG  2   4  -1  35   1
M  END
>  <UniqueID>  (81) 
72

>  <SMILES>  (81) 
O=S(=O)([N-]Cc1ccc(-c2cn(C[C@@H]3CCC[C@H](CCCCOCCCCc4ccccc4)O3)[nH+]n2)cc1)c1cc(Cl)ccc1Cl

>  <Energy>  (81) 
130.40160536595818

>  <Genealogy>  (81) 
O=S(=O)([N-]Cc1ccc(-c2cn(CC3CCCC(CCCCOCCCCc4ccccc4)O3)[nH+]n2)cc1)c1cc(Cl)ccc1Cl (protonated)
O=S(=O)([N-]Cc1ccc(-c2cn(C[C@@H]3CCC[C@H](CCCCOCCCCc4ccccc4)O3)[nH+]n2)cc1)c1cc(Cl)ccc1Cl (chirality)
O=S(=O)([N-]Cc1ccc(-c2cn(C[C@@H]3CCC[C@H](CCCCOCCCCc4ccccc4)O3)[nH+]n2)cc1)c1cc(Cl)ccc1Cl (3D coordinates assigned)
O=S(=O)([N-]Cc1ccc(-c2cn(C[C@@H]3CCC[C@H](CCCCOCCCCc4ccccc4)O3)[nH+]n2)cc1)c1cc(Cl)ccc1Cl (nonaromatic ring conformer: 130.40160536595818 kcal/mol)

>  <smiles>  (81) 
O=S(=O)(NCc1ccc(-c2cn(CC3CCCC(CCCCOCCCCc4ccccc4)O3)nn2)cc1)c1cc(Cl)ccc1Cl

>  <score_type>  (81) 
oracle

>  <origin>  (81) 
adg

>  <m_score__min__energy>  (81) 
-10.380000000000001

>  <m_primary>  (81) 
energy

$$$$
81:0
     RDKit          3D

 33 35  0  0  0  0  0  0  0  0999 V2000
   58.9878   25.7996   46.4186 H   0  0  0  0  0  0  0  0  0  0  0  0
   58.5800   26.6810   45.9020 C   0  0  0  0  0  0  0  0  0  0  0  0
   59.4820   27.8580   45.1080 S   0  0  0  0  0  0  0  0  0  0  0  0
   58.1610   28.7540   44.5680 C   0  0  0  0  0  0  0  0  0  0  0  0
   58.2190   30.0280   43.9090 N   0  0  0  0  0  0  0  0  0  0  0  0
   58.0280   30.0210   42.8810 H   0  0  0  0  0  0  0  0  0  0  0  0
   58.4640   31.1690   44.5020 C   0  0  0  0  0  0  0  0  0  0  0  0
   59.1660   31.2320   45.7610 N   0  0  0  0  0  0  0  0  0  0  0  0
   59.7070   30.4010   46.0880 H   0  0  0  0  0  0  0  0  0  0  0  0
   59.3710   32.4750   46.4540 C   0  0  0  0  0  0  0  0  0  0  0  0
   60.3950   32.5790   47.4090 C   0  0  0  0  0  0  0  0  0  0  0  0
   60.9735   31.6868   47.6905 H   0  0  0  0  0  0  0  0  0  0  0  0
   60.6830   33.8110   48.0040 C   0  0  0  0  0  0  0  0  0  0  0  0
   61.4841   33.8843   48.7542 H   0  0  0  0  0  0  0  0  0  0  0  0
   59.9560   34.9480   47.6480 C   0  0  0  0  0  0  0  0  0  0  0  0
   60.1957   35.9193   48.1053 H   0  0  0  0  0  0  0  0  0  0  0  0
   58.9240   34.8530   46.7110 C   0  0  0  0  0  0  0  0  0  0  0  0
   58.3542   35.7510   46.4299 H   0  0  0  0  0  0  0  0  0  0  0  0
   58.6130   33.6190   46.1290 C   0  0  0  0  0  0  0  0  0  0  0  0
   57.2160   33.5070   45.0020 S   0  0  0  0  0  0  0  0  0  0  0  0
   58.1050   32.4590   43.8150 C   0  0  0  0  0  0  0  0  0  0  0  0
   59.0200   32.9695   43.4801 H   0  0  0  0  0  0  0  0  0  0  0  0
   57.4725   32.2586   42.9376 H   0  0  0  0  0  0  0  0  0  0  0  0
   56.9960   28.1760   45.0500 C   0  0  0  0  0  0  0  0  0  0  0  0
   55.9929   28.5886   44.8671 H   0  0  0  0  0  0  0  0  0  0  0  0
   57.2300   27.0090   45.7960 C   0  0  0  0  0  0  0  0  0  0  0  0
   56.1660   26.1680   46.3800 C   0  0  0  0  0  0  0  0  0  0  0  0
   56.4700   25.3480   47.2850 O   0  0  0  0  0  0  0  0  0  0  0  0
   54.7910   26.2780   45.9910 N   0  0  0  0  0  0  0  0  0  0  0  0
   53.9250   25.1660   45.6230 C   0  0  0  0  0  0  0  0  0  0  0  0
   53.5460   24.6794   46.5338 H   0  0  0  0  0  0  0  0  0  0  0  0
   53.0789   25.5413   45.0286 H   0  0  0  0  0  0  0  0  0  0  0  0
   54.4961   24.4376   45.0286 H   0  0  0  0  0  0  0  0  0  0  0  0
  1  2  1  0
  2  3  1  0
  3  4  1  0
  4  5  1  0
  5  6  1  0
  5  7  2  0
  7  8  1  0
  8  9  1  0
  8 10  1  0
 10 11  2  0
 11 12  1  0
 11 13  1  0
 13 14  1  0
 13 15  2  0
 15 16  1  0
 15 17  1  0
 17 18  1  0
 17 19  2  0
 19 20  1  0
 20 21  1  0
 21 22  1  0
 21 23  1  0
  4 24  2  0
 24 25  1  0
 24 26  1  0
 26 27  1  0
 27 28  2  0
 27 29  1  0
 29 30  1  0
 30 31  1  0
 30 32  1  0
 30 33  1  0
 26  2  2  0
 21  7  1  0
 19 10  1  0
M  CHG  2   5   1  29  -1
M  END
>  <UniqueID>  (82) 
73

>  <SMILES>  (82) 
C[N-]C(=O)c1csc(/[NH+]=C2/CSc3ccccc3N2)c1

>  <Energy>  (82) 
74.90770116901278

>  <Genealogy>  (82) 
C[N-]C(=O)c1csc([NH+]=C2CSc3ccccc3N2)c1 (protonated)
C[N-]C(=O)c1csc(/[NH+]=C2/CSc3ccccc3N2)c1 (cis-trans isomerization)
C[N-]C(=O)c1csc(/[NH+]=C2/CSc3ccccc3N2)c1 (3D coordinates assigned)
C[N-]C(=O)c1csc(/[NH+]=C2/CSc3ccccc3N2)c1 (nonaromatic ring conformer: 74.90770116901278 kcal/mol)

>  <smiles>  (82) 
CNC(=O)c1csc(N=C2CSc3ccccc3N2)c1

>  <score_type>  (82) 
oracle

>  <origin>  (82) 
adg

>  <m_score__min__energy>  (82) 
-8.6199999999999992

>  <m_primary>  (82) 
energy

$$$$
82:0
     RDKit          3D

 39 40  0  0  0  0  0  0  0  0999 V2000
   60.7690   28.0340   49.9370 C   0  0  0  0  0  0  0  0  0  0  0  0
   60.5720   27.8820   48.5350 O   0  0  0  0  0  0  0  0  0  0  0  0
   60.0680   28.8850   47.6930 C   0  0  0  0  0  0  0  0  0  0  0  0
   60.2590   28.8660   46.2980 C   0  0  0  0  0  0  0  0  0  0  0  0
   59.7380   29.8890   45.5010 C   0  0  0  0  0  0  0  0  0  0  0  0
   59.0150   30.9450   46.0790 C   0  0  0  0  0  0  0  0  0  0  0  0
   58.4820   32.0040   45.2620 N   0  0  0  0  0  0  0  0  0  0  0  0
   57.7680   31.7040   44.0160 C   0  0  0  0  0  0  0  0  0  0  0  0
   56.6450   30.7990   44.2820 C   0  0  0  0  0  0  0  0  0  0  0  0
   55.7590   30.0850   44.4940 N   0  0  0  0  0  0  0  0  0  0  0  0
   58.7270   33.6630   45.7260 S   0  0  0  0  0  0  0  0  0  0  0  0
   58.9950   34.5030   44.5080 O   0  0  0  0  0  0  0  0  0  0  0  0
   57.4820   34.1870   46.3880 O   0  0  0  0  0  0  0  0  0  0  0  0
   60.0950   33.7750   46.8310 C   0  0  0  0  0  0  0  0  0  0  0  0
   61.3850   33.4840   46.3710 C   0  0  0  0  0  0  0  0  0  0  0  0
   62.4770   33.5520   47.2420 C   0  0  0  0  0  0  0  0  0  0  0  0
   62.2880   33.9160   48.5890 C   0  0  0  0  0  0  0  0  0  0  0  0
   63.3500   33.9980   49.5020 O   0  0  0  0  0  0  0  0  0  0  0  0
   64.4930   33.1490   49.4840 C   0  0  0  0  0  0  0  0  0  0  0  0
   60.9960   34.2080   49.0420 C   0  0  0  0  0  0  0  0  0  0  0  0
   59.9050   34.1380   48.1710 C   0  0  0  0  0  0  0  0  0  0  0  0
   58.8270   30.9600   47.4710 C   0  0  0  0  0  0  0  0  0  0  0  0
   59.3500   29.9380   48.2670 C   0  0  0  0  0  0  0  0  0  0  0  0
   60.0113   27.4494   50.4793 H   0  0  0  0  0  0  0  0  0  0  0  0
   61.7726   27.6739   50.2074 H   0  0  0  0  0  0  0  0  0  0  0  0
   60.6753   29.0961   50.2074 H   0  0  0  0  0  0  0  0  0  0  0  0
   60.8208   28.0422   45.8335 H   0  0  0  0  0  0  0  0  0  0  0  0
   59.8955   29.8668   44.4126 H   0  0  0  0  0  0  0  0  0  0  0  0
   57.3859   32.6396   43.5817 H   0  0  0  0  0  0  0  0  0  0  0  0
   58.4610   31.2195   43.3125 H   0  0  0  0  0  0  0  0  0  0  0  0
   61.5403   33.2006   45.3195 H   0  0  0  0  0  0  0  0  0  0  0  0
   63.4872   33.3203   46.8735 H   0  0  0  0  0  0  0  0  0  0  0  0
   64.7978   32.9226   50.5164 H   0  0  0  0  0  0  0  0  0  0  0  0
   64.2465   32.2133   48.9609 H   0  0  0  0  0  0  0  0  0  0  0  0
   65.3176   33.6553   48.9609 H   0  0  0  0  0  0  0  0  0  0  0  0
   60.8380   34.4949   50.0921 H   0  0  0  0  0  0  0  0  0  0  0  0
   58.8942   34.3686   48.5386 H   0  0  0  0  0  0  0  0  0  0  0  0
   58.2642   31.7820   47.9374 H   0  0  0  0  0  0  0  0  0  0  0  0
   59.1953   29.9622   49.3558 H   0  0  0  0  0  0  0  0  0  0  0  0
  1  2  1  0
  2  3  1  0
  3  4  2  0
  4  5  1  0
  5  6  2  0
  6  7  1  0
  7  8  1  0
  8  9  1  0
  9 10  3  0
  7 11  1  0
 11 12  2  0
 11 13  2  0
 11 14  1  0
 14 15  2  0
 15 16  1  0
 16 17  2  0
 17 18  1  0
 18 19  1  0
 17 20  1  0
 20 21  2  0
  6 22  1  0
 22 23  2  0
 23  3  1  0
 21 14  1  0
  1 24  1  0
  1 25  1  0
  1 26  1  0
  4 27  1  0
  5 28  1  0
  8 29  1  0
  8 30  1  0
 15 31  1  0
 16 32  1  0
 19 33  1  0
 19 34  1  0
 19 35  1  0
 20 36  1  0
 21 37  1  0
 22 38  1  0
 23 39  1  0
M  END
>  <UniqueID>  (83) 
74

>  <SMILES>  (83) 
COc1ccc(N(CC#N)S(=O)(=O)c2ccc(OC)cc2)cc1

>  <Energy>  (83) 
41.16971259885483

>  <Genealogy>  (83) 
COc1ccc(N(CC#N)S(=O)(=O)c2ccc(OC)cc2)cc1 (3D coordinates assigned)
COc1ccc(N(CC#N)S(=O)(=O)c2ccc(OC)cc2)cc1 (optimized conformer: 41.16971259885483 kcal/mol)

>  <smiles>  (83) 
COc1ccc(N(CC#N)S(=O)(=O)c2ccc(OC)cc2)cc1

>  <score_type>  (83) 
oracle

>  <origin>  (83) 
adg

>  <m_score__min__energy>  (83) 
-6.6399999999999997

>  <m_primary>  (83) 
energy

$$$$
83:0
     RDKit          3D

 38 40  0  0  0  0  0  0  0  0999 V2000
   57.0170   29.3240   52.1910 O   0  0  0  0  0  0  0  0  0  0  0  0
   57.0980   30.4520   51.6310 C   0  0  0  0  0  0  0  0  0  0  0  0
   58.4420   30.9960   51.2720 C   0  0  0  0  0  0  0  0  0  0  0  0
   58.2770   32.0830   50.3680 O   0  0  0  0  0  0  0  0  0  0  0  0
   59.3320   32.7910   49.7650 C   0  0  0  0  0  0  0  0  0  0  0  0
   60.5420   33.0340   50.4440 C   0  0  0  0  0  0  0  0  0  0  0  0
   61.5750   33.7390   49.8250 C   0  0  0  0  0  0  0  0  0  0  0  0
   61.4230   34.2140   48.5230 C   0  0  0  0  0  0  0  0  0  0  0  0
   60.2290   33.9860   47.8250 C   0  0  0  0  0  0  0  0  0  0  0  0
   60.0740   34.4630   46.5130 C   0  0  0  0  0  0  0  0  0  0  0  0
   58.8830   34.2350   45.8200 C   0  0  0  0  0  0  0  0  0  0  0  0
   57.8400   33.5330   46.4260 C   0  0  0  0  0  0  0  0  0  0  0  0
   57.9810   33.0510   47.7310 C   0  0  0  0  0  0  0  0  0  0  0  0
   59.1730   33.2700   48.4470 C   0  0  0  0  0  0  0  0  0  0  0  0
   55.9130   31.1700   51.2550 N   0  0  0  0  0  0  0  0  0  0  0  0
   54.5860   30.8240   51.6890 C   0  0  0  0  0  0  0  0  0  0  0  0
   54.3630   29.7670   52.5890 C   0  0  0  0  0  0  0  0  0  0  0  0
   53.0670   29.4660   53.0130 C   0  0  0  0  0  0  0  0  0  0  0  0
   51.9840   30.2200   52.5550 C   0  0  0  0  0  0  0  0  0  0  0  0
   52.1880   31.2950   51.6740 C   0  0  0  0  0  0  0  0  0  0  0  0
   51.0410   32.0990   51.2000 C   0  0  0  0  0  0  0  0  0  0  0  0
   50.2640   32.6560   52.0200 O   0  0  0  0  0  0  0  0  0  0  0  0
   50.8030   32.2520   49.8380 O   0  0  0  0  0  0  0  0  0  0  0  0
   53.4980   31.5930   51.2520 C   0  0  0  0  0  0  0  0  0  0  0  0
   58.9524   31.3469   52.1811 H   0  0  0  0  0  0  0  0  0  0  0  0
   59.0468   30.2084   50.7988 H   0  0  0  0  0  0  0  0  0  0  0  0
   60.6738   32.6646   51.4717 H   0  0  0  0  0  0  0  0  0  0  0  0
   62.5145   33.9210   50.3673 H   0  0  0  0  0  0  0  0  0  0  0  0
   62.2421   34.7690   48.0424 H   0  0  0  0  0  0  0  0  0  0  0  0
   60.8924   35.0173   46.0303 H   0  0  0  0  0  0  0  0  0  0  0  0
   58.7666   34.6102   44.7925 H   0  0  0  0  0  0  0  0  0  0  0  0
   56.9040   33.3583   45.8752 H   0  0  0  0  0  0  0  0  0  0  0  0
   57.1551   32.4971   48.2011 H   0  0  0  0  0  0  0  0  0  0  0  0
   56.0160   31.9380   50.5530 H   0  0  0  0  0  0  0  0  0  0  0  0
   55.2125   29.1751   52.9604 H   0  0  0  0  0  0  0  0  0  0  0  0
   52.8983   28.6321   53.7102 H   0  0  0  0  0  0  0  0  0  0  0  0
   50.9652   29.9705   52.8862 H   0  0  0  0  0  0  0  0  0  0  0  0
   53.6699   32.4396   50.5710 H   0  0  0  0  0  0  0  0  0  0  0  0
  1  2  2  0
  2  3  1  0
  3  4  1  0
  4  5  1  0
  5  6  2  0
  6  7  1  0
  7  8  2  0
  8  9  1  0
  9 10  2  0
 10 11  1  0
 11 12  2  0
 12 13  1  0
 13 14  2  0
  2 15  1  0
 15 16  1  0
 16 17  2  0
 17 18  1  0
 18 19  2  0
 19 20  1  0
 20 21  1  0
 21 22  2  0
 21 23  1  0
 20 24  2  0
 14  5  1  0
 24 16  1  0
 14  9  1  0
  3 25  1  0
  3 26  1  0
  6 27  1  0
  7 28  1  0
  8 29  1  0
 10 30  1  0
 11 31  1  0
 12 32  1  0
 13 33  1  0
 15 34  1  0
 17 35  1  0
 18 36  1  0
 19 37  1  0
 24 38  1  0
M  CHG  1  23  -1
M  END
>  <UniqueID>  (84) 
75

>  <SMILES>  (84) 
O=C(COc1cccc2ccccc12)Nc1cccc(C(=O)[O-])c1

>  <Energy>  (84) 
46.83137792925103

>  <Genealogy>  (84) 
O=C(COc1cccc2ccccc12)Nc1cccc(C(=O)[O-])c1 (protonated)
O=C(COc1cccc2ccccc12)Nc1cccc(C(=O)[O-])c1 (3D coordinates assigned)
O=C(COc1cccc2ccccc12)Nc1cccc(C(=O)[O-])c1 (optimized conformer: 46.83137792925103 kcal/mol)

>  <smiles>  (84) 
O=C(COc1cccc2ccccc12)Nc1cccc(C(=O)O)c1

>  <score_type>  (84) 
oracle

>  <origin>  (84) 
adg

>  <m_score__min__energy>  (84) 
-12.15

>  <m_primary>  (84) 
energy

$$$$
84:0
     RDKit          3D

 29 31  0  0  0  0  0  0  0  0999 V2000
   59.8762   32.6615   46.9216 H   0  0  0  0  0  0  0  0  0  0  0  0
   59.0750   32.4130   46.2100 C   0  0  0  0  0  0  0  0  0  0  0  0
   58.5220   31.1280   46.2010 C   0  0  0  0  0  0  0  0  0  0  0  0
   58.8852   30.3722   46.9129 H   0  0  0  0  0  0  0  0  0  0  0  0
   57.5060   30.7960   45.2890 C   0  0  0  0  0  0  0  0  0  0  0  0
   56.9100   29.4370   45.2790 C   0  0  0  0  0  0  0  0  0  0  0  0
   55.7270   29.2830   44.8760 O   0  0  0  0  0  0  0  0  0  0  0  0
   57.6180   28.2950   45.7810 N   0  0  0  0  0  0  0  0  0  0  0  0
   57.1200   27.1030   45.9360 C   0  0  0  0  0  0  0  0  0  0  0  0
   57.9690   25.7300   46.4750 S   0  0  0  0  0  0  0  0  0  0  0  0
   56.6180   24.7450   46.3090 C   0  0  0  0  0  0  0  0  0  0  0  0
   56.4970   23.3840   46.5750 C   0  0  0  0  0  0  0  0  0  0  0  0
   57.3522   22.8033   46.9510 H   0  0  0  0  0  0  0  0  0  0  0  0
   55.2530   22.7730   46.3500 C   0  0  0  0  0  0  0  0  0  0  0  0
   55.1264   21.6991   46.5519 H   0  0  0  0  0  0  0  0  0  0  0  0
   54.1660   23.5280   45.8670 C   0  0  0  0  0  0  0  0  0  0  0  0
   53.1957   23.0393   45.6944 H   0  0  0  0  0  0  0  0  0  0  0  0
   54.3120   24.9010   45.6040 C   0  0  0  0  0  0  0  0  0  0  0  0
   53.4656   25.4930   45.2257 H   0  0  0  0  0  0  0  0  0  0  0  0
   55.5550   25.4990   45.8330 C   0  0  0  0  0  0  0  0  0  0  0  0
   55.8360   26.8110   45.6200 N   0  0  0  0  0  0  0  0  0  0  0  0
   55.1460   27.5090   45.2590 H   0  0  0  0  0  0  0  0  0  0  0  0
   57.0340   31.7800   44.4030 C   0  0  0  0  0  0  0  0  0  0  0  0
   56.2252   31.5382   43.6978 H   0  0  0  0  0  0  0  0  0  0  0  0
   57.5870   33.0650   44.4130 C   0  0  0  0  0  0  0  0  0  0  0  0
   57.2177   33.8274   43.7113 H   0  0  0  0  0  0  0  0  0  0  0  0
   58.6100   33.3820   45.3150 C   0  0  0  0  0  0  0  0  0  0  0  0
   59.1780   34.7060   45.3240 C   0  0  0  0  0  0  0  0  0  0  0  0
   59.6350   35.7690   45.3310 N   0  0  0  0  0  0  0  0  0  0  0  0
  1  2  1  0
  2  3  2  0
  3  4  1  0
  3  5  1  0
  5  6  1  0
  6  7  2  0
  6  8  1  0
  8  9  2  0
  9 10  1  0
 10 11  1  0
 11 12  2  0
 12 13  1  0
 12 14  1  0
 14 15  1  0
 14 16  2  0
 16 17  1  0
 16 18  1  0
 18 19  1  0
 18 20  2  0
 20 21  1  0
 21 22  1  0
  5 23  2  0
 23 24  1  0
 23 25  1  0
 25 26  1  0
 25 27  2  0
 27 28  1  0
 28 29  3  0
 27  2  1  0
 21  9  1  0
 20 11  1  0
M  END
>  <UniqueID>  (85) 
76

>  <SMILES>  (85) 
N#Cc1ccc(C(=O)/N=c2/[nH]c3ccccc3s2)cc1

>  <Energy>  (85) 
74.40094247662901

>  <Genealogy>  (85) 
N#Cc1ccc(C(=O)/N=c2/[nH]c3ccccc3s2)cc1 (cis-trans isomerization)
N#Cc1ccc(C(=O)/N=c2/[nH]c3ccccc3s2)cc1 (3D coordinates assigned)
N#Cc1ccc(C(=O)/N=c2/[nH]c3ccccc3s2)cc1 (optimized conformer: 74.40094247662901 kcal/mol)

>  <smiles>  (85) 
N#Cc1ccc(C(=O)N=c2[nH]c3ccccc3s2)cc1

>  <score_type>  (85) 
oracle

>  <origin>  (85) 
adg

>  <m_score__min__energy>  (85) 
-7.1299999999999999

>  <m_primary>  (85) 
energy

$$$$
85:0
     RDKit          3D

 67 71  0  0  0  0  0  0  0  0999 V2000
   57.9950   30.8520   50.4860 C   0  0  0  0  0  0  0  0  0  0  0  0
   58.9280   29.6860   50.8380 C   0  0  1  0  0  0  0  0  0  0  0  0
   59.3120   29.0340   49.6330 O   0  0  0  0  0  0  0  0  0  0  0  0
   60.2330   27.9940   49.9140 C   0  0  1  0  0  0  0  0  0  0  0  0
   60.3700   27.1670   48.7530 O   0  0  0  0  0  0  0  0  0  0  0  0
   59.3150   26.8330   47.8860 C   0  0  0  0  0  0  0  0  0  0  0  0
   58.8040   25.5880   47.8660 C   0  0  0  0  0  0  0  0  0  0  0  0
   57.7240   25.1820   46.8830 C   0  0  1  0  0  0  0  0  0  0  0  0
   58.3120   24.9240   45.6280 O   0  0  0  0  0  0  0  0  0  0  0  0
   57.0050   23.9110   47.3960 C   0  0  0  0  0  0  0  0  0  0  0  0
   55.6960   23.2250   46.1300 Br  0  0  0  0  0  0  0  0  0  0  0  0
   56.7140   26.3420   46.7260 C   0  0  0  0  0  0  0  0  0  0  0  0
   57.4210   27.6470   46.4470 C   0  0  0  0  0  0  0  0  0  0  0  0
   58.7010   27.8890   47.0310 C   0  0  0  0  0  0  0  0  0  0  0  0
   59.3620   29.1200   46.7810 C   0  0  0  0  0  0  0  0  0  0  0  0
   60.6170   29.4030   47.3100 O   0  0  0  0  0  0  0  0  0  0  0  0
   58.7280   30.0610   45.9730 C   0  0  0  0  0  0  0  0  0  0  0  0
   59.1900   31.2370   45.6060 O   0  0  0  0  0  0  0  0  0  0  0  0
   58.2780   31.7990   44.8360 C   0  0  0  0  0  0  0  0  0  0  0  0
   58.4440   33.0970   44.2530 N   0  0  0  0  0  0  0  0  0  0  0  0
   58.1690   34.3620   44.8730 C   0  0  0  0  0  0  0  0  0  0  0  0
   56.9830   34.6210   45.2020 O   0  0  0  0  0  0  0  0  0  0  0  0
   59.2680   35.3080   45.2940 C   0  0  0  0  0  0  0  0  0  0  0  0
   60.0640   34.7830   46.5130 C   0  0  1  0  0  0  0  0  0  0  0  0
   59.1920   34.5070   47.7440 C   0  0  0  0  0  0  0  0  0  0  0  0
   59.7660   33.2370   48.3510 C   0  0  2  0  0  0  0  0  0  0  0  0
   60.1750   33.4470   49.6610 F   0  0  0  0  0  0  0  0  0  0  0  0
   60.9500   32.8640   47.4720 C   0  0  0  0  0  0  0  0  0  0  0  0
   60.7670   33.5380   46.1900 N   0  0  0  0  0  0  0  0  0  0  0  0
   57.1670   30.9720   44.7250 C   0  0  0  0  0  0  0  0  0  0  0  0
   55.9790   31.2630   44.0610 O   0  0  0  0  0  0  0  0  0  0  0  0
   57.4800   29.8370   45.4480 C   0  0  0  0  0  0  0  0  0  0  0  0
   56.7900   28.6460   45.6730 C   0  0  0  0  0  0  0  0  0  0  0  0
   55.5210   28.4440   45.1390 O   0  0  0  0  0  0  0  0  0  0  0  0
   61.6080   28.5910   50.2880 C   0  0  0  0  0  0  0  0  0  0  0  0
   61.4870   30.0020   50.9010 C   0  0  1  0  0  0  0  0  0  0  0  0
   61.6410   31.0280   49.8600 N   0  0  0  0  0  0  0  0  0  0  0  0
   60.1560   30.1720   51.6770 C   0  0  2  0  0  0  0  0  0  0  0  0
   60.2170   29.4230   52.8680 O   0  0  0  0  0  0  0  0  0  0  0  0
   57.6234   31.3164   51.4113 H   0  0  0  0  0  0  0  0  0  0  0  0
   58.5476   31.5989   49.8972 H   0  0  0  0  0  0  0  0  0  0  0  0
   57.1451   30.4766   49.8972 H   0  0  0  0  0  0  0  0  0  0  0  0
   58.4001   28.9622   51.4763 H   0  0  0  0  0  0  0  0  0  0  0  0
   59.8627   27.3957   50.7595 H   0  0  0  0  0  0  0  0  0  0  0  0
   59.1808   24.8441   48.5833 H   0  0  0  0  0  0  0  0  0  0  0  0
   57.9440   25.5860   44.9810 H   0  0  0  0  0  0  0  0  0  0  0  0
   57.7583   23.1309   47.5805 H   0  0  0  0  0  0  0  0  0  0  0  0
   56.4665   24.1827   48.3159 H   0  0  0  0  0  0  0  0  0  0  0  0
   56.0349   26.1160   45.8907 H   0  0  0  0  0  0  0  0  0  0  0  0
   56.1517   26.4442   47.6659 H   0  0  0  0  0  0  0  0  0  0  0  0
   59.9613   35.4417   44.4505 H   0  0  0  0  0  0  0  0  0  0  0  0
   58.7984   36.2593   45.5847 H   0  0  0  0  0  0  0  0  0  0  0  0
   60.7705   35.5911   46.7534 H   0  0  0  0  0  0  0  0  0  0  0  0
   59.2556   35.3409   48.4586 H   0  0  0  0  0  0  0  0  0  0  0  0
   58.1289   34.3984   47.4833 H   0  0  0  0  0  0  0  0  0  0  0  0
   59.0139   32.4351   48.3874 H   0  0  0  0  0  0  0  0  0  0  0  0
   61.8874   33.1965   47.9419 H   0  0  0  0  0  0  0  0  0  0  0  0
   61.0057   31.7740   47.3350 H   0  0  0  0  0  0  0  0  0  0  0  0
   60.1410   32.9290   45.6100 H   0  0  0  0  0  0  0  0  0  0  0  0
   55.2000   30.6190   44.0400 H   0  0  0  0  0  0  0  0  0  0  0  0
   62.0943   27.9283   51.0190 H   0  0  0  0  0  0  0  0  0  0  0  0
   62.2006   28.6749   49.3651 H   0  0  0  0  0  0  0  0  0  0  0  0
   62.3008   30.1304   51.6298 H   0  0  0  0  0  0  0  0  0  0  0  0
   62.6470   31.1410   49.6050 H   0  0  0  0  0  0  0  0  0  0  0  0
   61.1270   30.7200   49.0010 H   0  0  0  0  0  0  0  0  0  0  0  0
   60.0243   31.2427   51.8919 H   0  0  0  0  0  0  0  0  0  0  0  0
   60.0290   28.4780   52.6260 H   0  0  0  0  0  0  0  0  0  0  0  0
  1  2  1  0
  2  3  1  0
  3  4  1  0
  4  5  1  0
  5  6  1  0
  6  7  2  0
  7  8  1  0
  8  9  1  6
  8 10  1  0
 10 11  1  0
  8 12  1  0
 12 13  1  0
 13 14  2  0
 14 15  1  0
 15 16  1  0
 15 17  2  0
 17 18  1  0
 18 19  1  0
 19 20  1  0
 20 21  1  0
 21 22  2  0
 21 23  1  0
 23 24  1  0
 24 25  1  0
 25 26  1  0
 26 27  1  0
 26 28  1  0
 28 29  1  0
 19 30  2  0
 30 31  1  0
 30 32  1  0
 32 33  2  0
 33 34  1  0
  4 35  1  0
 35 36  1  0
 36 37  1  0
 36 38  1  0
 38 39  1  0
 38  2  1  0
 14  6  1  0
 32 17  1  0
 33 13  1  0
 29 24  1  0
  1 40  1  0
  1 41  1  0
  1 42  1  0
  2 43  1  1
  4 44  1  1
  7 45  1  0
  9 46  1  0
 10 47  1  0
 10 48  1  0
 12 49  1  0
 12 50  1  0
 23 51  1  0
 23 52  1  0
 24 53  1  1
 25 54  1  0
 25 55  1  0
 26 56  1  1
 28 57  1  0
 28 58  1  0
 29 59  1  0
 31 60  1  0
 35 61  1  0
 35 62  1  0
 36 63  1  1
 37 64  1  0
 37 65  1  0
 38 66  1  1
 39 67  1  0
M  CHG  3  16  -1  20  -1  34  -1
M  END
>  <UniqueID>  (86) 
77

>  <SMILES>  (86) 
C[C@H]1O[C@@H](OC2=CC(O)(CBr)Cc3c2c([O-])c2oc([N-]C(=O)CC4CC(F)CN4)c(O)c2c3[O-])CC(N)C1O

>  <Energy>  (86) 
129.22207196159783

>  <Genealogy>  (86) 
CC1OC(OC2=CC(O)(CBr)Cc3c2c([O-])c2oc([N-]C(=O)CC4CC(F)CN4)c(O)c2c3[O-])CC(N)C1O (protonated)
C[C@H]1O[C@@H](OC2=CC(O)(CBr)Cc3c2c([O-])c2oc([N-]C(=O)CC4CC(F)CN4)c(O)c2c3[O-])CC(N)C1O (chirality)
C[C@H]1O[C@@H](OC2=CC(O)(CBr)Cc3c2c([O-])c2oc([N-]C(=O)CC4CC(F)CN4)c(O)c2c3[O-])CC(N)C1O (3D coordinates assigned)
C[C@H]1O[C@@H](OC2=CC(O)(CBr)Cc3c2c([O-])c2oc([N-]C(=O)CC4CC(F)CN4)c(O)c2c3[O-])CC(N)C1O (nonaromatic ring conformer: 129.22207196159783 kcal/mol)

>  <smiles>  (86) 
CC1OC(OC2=CC(O)(CBr)Cc3c2c(O)c2oc(NC(=O)CC4CC(F)CN4)c(O)c2c3O)CC(N)C1O

>  <score_type>  (86) 
oracle

>  <origin>  (86) 
adg

>  <m_score__min__energy>  (86) 
-15.07

>  <m_primary>  (86) 
energy

$$$$
86:0
     RDKit          3D

 33 35  0  0  0  0  0  0  0  0999 V2000
   57.4700   26.1650   45.7330 C   0  0  0  0  0  0  0  0  0  0  0  0
   56.1690   26.9070   45.7010 C   0  0  0  0  0  0  0  0  0  0  0  0
   55.1180   26.3100   46.0510 O   0  0  0  0  0  0  0  0  0  0  0  0
   56.0770   28.2650   45.2450 N   0  0  0  0  0  0  0  0  0  0  0  0
   57.0220   29.3160   45.4880 C   0  0  0  0  0  0  0  0  0  0  0  0
   56.9910   30.4540   44.6740 C   0  0  0  0  0  0  0  0  0  0  0  0
   57.8810   31.5090   44.8990 C   0  0  0  0  0  0  0  0  0  0  0  0
   58.8040   31.4470   45.9540 C   0  0  0  0  0  0  0  0  0  0  0  0
   59.7410   32.5680   46.1900 C   0  0  0  0  0  0  0  0  0  0  0  0
   59.5470   33.9270   45.9350 C   0  0  0  0  0  0  0  0  0  0  0  0
   58.3230   34.5650   45.3640 C   0  0  0  0  0  0  0  0  0  0  0  0
   60.6560   34.6320   46.2780 N   0  0  0  0  0  0  0  0  0  0  0  0
   61.4950   33.6870   46.7460 C   0  0  0  0  0  0  0  0  0  0  0  0
   62.7870   33.8870   47.2180 C   0  0  0  0  0  0  0  0  0  0  0  0
   63.5010   32.7560   47.6380 C   0  0  0  0  0  0  0  0  0  0  0  0
   62.9030   31.4820   47.5620 C   0  0  0  0  0  0  0  0  0  0  0  0
   61.6320   31.3590   47.0860 N   0  0  0  0  0  0  0  0  0  0  0  0
   60.9730   32.4540   46.7080 N   0  0  0  0  0  0  0  0  0  0  0  0
   58.8090   30.3210   46.7930 C   0  0  0  0  0  0  0  0  0  0  0  0
   57.9200   29.2660   46.5670 C   0  0  0  0  0  0  0  0  0  0  0  0
   57.7692   25.9944   46.7777 H   0  0  0  0  0  0  0  0  0  0  0  0
   57.3531   25.1977   45.2224 H   0  0  0  0  0  0  0  0  0  0  0  0
   58.2430   26.7581   45.2224 H   0  0  0  0  0  0  0  0  0  0  0  0
   56.2624   30.5190   43.8525 H   0  0  0  0  0  0  0  0  0  0  0  0
   57.8573   32.3930   44.2448 H   0  0  0  0  0  0  0  0  0  0  0  0
   57.6710   34.9048   46.1822 H   0  0  0  0  0  0  0  0  0  0  0  0
   58.6135   35.4264   44.7447 H   0  0  0  0  0  0  0  0  0  0  0  0
   57.7832   33.8335   44.7447 H   0  0  0  0  0  0  0  0  0  0  0  0
   63.2314   34.8924   47.2603 H   0  0  0  0  0  0  0  0  0  0  0  0
   64.5249   32.8626   48.0257 H   0  0  0  0  0  0  0  0  0  0  0  0
   63.4601   30.5904   47.8857 H   0  0  0  0  0  0  0  0  0  0  0  0
   59.5169   30.2687   47.6333 H   0  0  0  0  0  0  0  0  0  0  0  0
   57.9237   28.3934   47.2367 H   0  0  0  0  0  0  0  0  0  0  0  0
  1  2  1  0
  2  3  2  0
  2  4  1  0
  4  5  1  0
  5  6  2  0
  6  7  1  0
  7  8  2  0
  8  9  1  0
  9 10  2  0
 10 11  1  0
 10 12  1  0
 12 13  2  0
 13 14  1  0
 14 15  2  0
 15 16  1  0
 16 17  2  0
 17 18  1  0
  8 19  1  0
 19 20  2  0
 20  5  1  0
 18  9  1  0
 18 13  1  0
  1 21  1  0
  1 22  1  0
  1 23  1  0
  6 24  1  0
  7 25  1  0
 11 26  1  0
 11 27  1  0
 11 28  1  0
 14 29  1  0
 15 30  1  0
 16 31  1  0
 19 32  1  0
 20 33  1  0
M  CHG  1   4  -1
M  END
>  <UniqueID>  (87) 
78

>  <SMILES>  (87) 
CC(=O)[N-]c1ccc(-c2c(C)nc3cccnn23)cc1

>  <Energy>  (87) 
79.29092040182556

>  <Genealogy>  (87) 
CC(=O)[N-]c1ccc(-c2c(C)nc3cccnn23)cc1 (protonated)
CC(=O)[N-]c1ccc(-c2c(C)nc3cccnn23)cc1 (3D coordinates assigned)
CC(=O)[N-]c1ccc(-c2c(C)nc3cccnn23)cc1 (optimized conformer: 79.29092040182556 kcal/mol)

>  <smiles>  (87) 
CC(=O)Nc1ccc(-c2c(C)nc3cccnn23)cc1

>  <score_type>  (87) 
oracle

>  <origin>  (87) 
adg

>  <m_score__min__energy>  (87) 
-9.3399999999999999

>  <m_primary>  (87) 
energy

$$$$
87:0
     RDKit          3D

 43 44  0  0  0  0  0  0  0  0999 V2000
   63.3500   33.8400   46.3880 C   0  0  0  0  0  0  0  0  0  0  0  0
   62.3070   33.3200   47.2870 N   0  0  0  0  0  0  0  0  0  0  0  0
   62.8520   33.0590   48.6290 C   0  0  0  0  0  0  0  0  0  0  0  0
   61.1000   34.1770   47.3170 C   0  0  0  0  0  0  0  0  0  0  0  0
   59.8830   33.5440   46.6760 C   0  0  0  0  0  0  0  0  0  0  0  0
   59.2600   32.4360   47.2720 C   0  0  0  0  0  0  0  0  0  0  0  0
   58.1620   31.8300   46.6590 C   0  0  0  0  0  0  0  0  0  0  0  0
   57.6690   32.3130   45.4420 C   0  0  0  0  0  0  0  0  0  0  0  0
   56.6020   31.6240   44.8420 O   0  0  0  0  0  0  0  0  0  0  0  0
   56.6760   30.8450   43.6480 C   0  0  0  0  0  0  0  0  0  0  0  0
   56.4540   29.3460   43.9120 C   0  0  0  0  0  0  0  0  0  0  0  0
   57.7410   28.5080   43.8220 C   0  0  0  0  0  0  0  0  0  0  0  0
   58.6410   28.7010   45.0190 C   0  0  0  0  0  0  0  0  0  0  0  0
   59.9160   29.2700   44.8630 C   0  0  0  0  0  0  0  0  0  0  0  0
   60.7420   29.4700   45.9740 C   0  0  0  0  0  0  0  0  0  0  0  0
   60.3050   29.0930   47.2460 C   0  0  0  0  0  0  0  0  0  0  0  0
   59.0440   28.5140   47.4100 C   0  0  0  0  0  0  0  0  0  0  0  0
   58.2120   28.3180   46.3020 C   0  0  0  0  0  0  0  0  0  0  0  0
   58.2610   33.4510   44.8660 C   0  0  0  0  0  0  0  0  0  0  0  0
   59.3630   34.0560   45.4770 C   0  0  0  0  0  0  0  0  0  0  0  0
   64.1767   34.2522   46.9852 H   0  0  0  0  0  0  0  0  0  0  0  0
   63.7271   33.0244   45.7535 H   0  0  0  0  0  0  0  0  0  0  0  0
   62.9256   34.6320   45.7535 H   0  0  0  0  0  0  0  0  0  0  0  0
   62.1349   33.4024   49.3891 H   0  0  0  0  0  0  0  0  0  0  0  0
   63.0263   31.9797   48.7504 H   0  0  0  0  0  0  0  0  0  0  0  0
   63.8022   33.5998   48.7504 H   0  0  0  0  0  0  0  0  0  0  0  0
   60.8610   34.4022   48.3668 H   0  0  0  0  0  0  0  0  0  0  0  0
   61.3347   35.0802   46.7346 H   0  0  0  0  0  0  0  0  0  0  0  0
   59.6391   32.0433   48.2270 H   0  0  0  0  0  0  0  0  0  0  0  0
   57.6799   30.9646   47.1373 H   0  0  0  0  0  0  0  0  0  0  0  0
   55.9053   31.1983   42.9472 H   0  0  0  0  0  0  0  0  0  0  0  0
   57.6863   30.9662   43.2301 H   0  0  0  0  0  0  0  0  0  0  0  0
   56.0328   29.2292   44.9214 H   0  0  0  0  0  0  0  0  0  0  0  0
   55.7738   28.9778   43.1299 H   0  0  0  0  0  0  0  0  0  0  0  0
   57.4660   27.4450   43.7551 H   0  0  0  0  0  0  0  0  0  0  0  0
   58.2942   28.8393   42.9308 H   0  0  0  0  0  0  0  0  0  0  0  0
   60.2667   29.5599   43.8615 H   0  0  0  0  0  0  0  0  0  0  0  0
   61.7357   29.9241   45.8460 H   0  0  0  0  0  0  0  0  0  0  0  0
   60.9543   29.2521   48.1195 H   0  0  0  0  0  0  0  0  0  0  0  0
   58.7047   28.2117   48.4117 H   0  0  0  0  0  0  0  0  0  0  0  0
   57.2194   27.8629   46.4352 H   0  0  0  0  0  0  0  0  0  0  0  0
   57.8556   33.8664   43.9316 H   0  0  0  0  0  0  0  0  0  0  0  0
   59.8263   34.9401   45.0147 H   0  0  0  0  0  0  0  0  0  0  0  0
  1  2  1  0
  2  3  1  0
  2  4  1  0
  4  5  1  0
  5  6  2  0
  6  7  1  0
  7  8  2  0
  8  9  1  0
  9 10  1  0
 10 11  1  0
 11 12  1  0
 12 13  1  0
 13 14  2  0
 14 15  1  0
 15 16  2  0
 16 17  1  0
 17 18  2  0
  8 19  1  0
 19 20  2  0
 20  5  1  0
 18 13  1  0
  1 21  1  0
  1 22  1  0
  1 23  1  0
  3 24  1  0
  3 25  1  0
  3 26  1  0
  4 27  1  0
  4 28  1  0
  6 29  1  0
  7 30  1  0
 10 31  1  0
 10 32  1  0
 11 33  1  0
 11 34  1  0
 12 35  1  0
 12 36  1  0
 14 37  1  0
 15 38  1  0
 16 39  1  0
 17 40  1  0
 18 41  1  0
 19 42  1  0
 20 43  1  0
M  END
>  <UniqueID>  (88) 
79

>  <SMILES>  (88) 
CN(C)Cc1ccc(OCCCc2ccccc2)cc1

>  <Energy>  (88) 
37.79809767738717

>  <Genealogy>  (88) 
CN(C)Cc1ccc(OCCCc2ccccc2)cc1 (3D coordinates assigned)
CN(C)Cc1ccc(OCCCc2ccccc2)cc1 (optimized conformer: 37.79809767738717 kcal/mol)

>  <smiles>  (88) 
CN(C)Cc1ccc(OCCCc2ccccc2)cc1

>  <score_type>  (88) 
oracle

>  <origin>  (88) 
adg

>  <m_score__min__energy>  (88) 
-6.2000000000000002

>  <m_primary>  (88) 
energy

$$$$
88:0
     RDKit          3D

 56 58  0  0  0  0  0  0  0  0999 V2000
   57.0180   30.8780   42.8470 C   0  0  0  0  0  0  0  0  0  0  0  0
   57.7200   31.3270   44.1230 C   0  0  0  0  0  0  0  0  0  0  0  0
   57.2000   30.6340   45.2540 O   0  0  0  0  0  0  0  0  0  0  0  0
   56.8940   29.2660   45.2530 C   0  0  0  0  0  0  0  0  0  0  0  0
   55.6930   28.8960   45.1180 O   0  0  0  0  0  0  0  0  0  0  0  0
   57.9960   28.2390   45.5180 C   0  0  0  0  0  0  0  0  0  0  0  0
   57.8100   27.0430   44.5170 C   0  0  0  0  0  0  0  0  0  0  0  0
   57.3930   25.7200   45.1260 C   0  0  0  0  0  0  0  0  0  0  0  0
   56.0770   25.5280   45.5840 C   0  0  0  0  0  0  0  0  0  0  0  0
   55.6910   24.3050   46.1400 C   0  0  0  0  0  0  0  0  0  0  0  0
   56.6080   23.2550   46.2260 C   0  0  0  0  0  0  0  0  0  0  0  0
   57.9070   23.4210   45.7440 C   0  0  0  0  0  0  0  0  0  0  0  0
   58.7900   22.3940   45.8090 F   0  0  0  0  0  0  0  0  0  0  0  0
   58.2980   24.6430   45.1850 C   0  0  0  0  0  0  0  0  0  0  0  0
   57.8330   27.7490   46.9910 C   0  0  0  0  0  0  0  0  0  0  0  0
   58.5620   28.6730   47.9720 C   0  0  0  0  0  0  0  0  0  0  0  0
   60.0230   28.6710   47.7290 N   0  0  0  0  0  0  0  0  0  0  0  0
   60.7430   29.7660   48.4180 C   0  0  0  0  0  0  0  0  0  0  0  0
   60.4710   31.1410   47.8400 C   0  0  0  0  0  0  0  0  0  0  0  0
   61.5110   31.8870   47.2590 C   0  0  0  0  0  0  0  0  0  0  0  0
   61.2560   33.1430   46.6990 C   0  0  0  0  0  0  0  0  0  0  0  0
   59.9570   33.6620   46.7000 C   0  0  0  0  0  0  0  0  0  0  0  0
   59.6200   35.2490   45.9330 S   0  0  0  0  0  0  0  0  0  0  0  0
   58.2860   34.6010   44.8820 C   0  0  0  0  0  0  0  0  0  0  0  0
   58.9140   32.9210   47.2640 C   0  0  0  0  0  0  0  0  0  0  0  0
   59.1660   31.6650   47.8250 C   0  0  0  0  0  0  0  0  0  0  0  0
   60.4390   28.4370   46.3250 C   0  0  0  0  0  0  0  0  0  0  0  0
   59.3900   28.9270   45.3150 C   0  0  0  0  0  0  0  0  0  0  0  0
   56.1176   30.3021   43.1071 H   0  0  0  0  0  0  0  0  0  0  0  0
   56.7309   31.7605   42.2565 H   0  0  0  0  0  0  0  0  0  0  0  0
   57.6988   30.2473   42.2565 H   0  0  0  0  0  0  0  0  0  0  0  0
   58.7965   31.1187   44.0354 H   0  0  0  0  0  0  0  0  0  0  0  0
   57.5500   32.4051   44.2597 H   0  0  0  0  0  0  0  0  0  0  0  0
   57.0408   27.3334   43.7863 H   0  0  0  0  0  0  0  0  0  0  0  0
   58.8045   26.8662   44.0814 H   0  0  0  0  0  0  0  0  0  0  0  0
   55.3462   26.3463   45.5040 H   0  0  0  0  0  0  0  0  0  0  0  0
   54.6641   24.1694   46.5102 H   0  0  0  0  0  0  0  0  0  0  0  0
   56.3061   22.2968   46.6739 H   0  0  0  0  0  0  0  0  0  0  0  0
   59.3175   24.7627   44.7897 H   0  0  0  0  0  0  0  0  0  0  0  0
   56.7630   27.7298   47.2454 H   0  0  0  0  0  0  0  0  0  0  0  0
   58.2717   26.7435   47.0717 H   0  0  0  0  0  0  0  0  0  0  0  0
   58.1800   29.6974   47.8506 H   0  0  0  0  0  0  0  0  0  0  0  0
   58.3795   28.3080   48.9935 H   0  0  0  0  0  0  0  0  0  0  0  0
   60.4390   29.7686   49.4752 H   0  0  0  0  0  0  0  0  0  0  0  0
   61.8179   29.5723   48.2874 H   0  0  0  0  0  0  0  0  0  0  0  0
   62.5329   31.4800   47.2446 H   0  0  0  0  0  0  0  0  0  0  0  0
   62.0788   33.7240   46.2568 H   0  0  0  0  0  0  0  0  0  0  0  0
   57.4775   34.2083   45.5162 H   0  0  0  0  0  0  0  0  0  0  0  0
   57.8942   35.4092   44.2469 H   0  0  0  0  0  0  0  0  0  0  0  0
   58.6790   33.7934   44.2469 H   0  0  0  0  0  0  0  0  0  0  0  0
   57.8918   33.3273   47.2665 H   0  0  0  0  0  0  0  0  0  0  0  0
   58.3384   31.0834   48.2572 H   0  0  0  0  0  0  0  0  0  0  0  0
   61.3826   28.9719   46.1421 H   0  0  0  0  0  0  0  0  0  0  0  0
   60.5578   27.3523   46.1863 H   0  0  0  0  0  0  0  0  0  0  0  0
   59.2677   30.0139   45.4323 H   0  0  0  0  0  0  0  0  0  0  0  0
   59.7480   28.6674   44.3078 H   0  0  0  0  0  0  0  0  0  0  0  0
  1  2  1  0
  2  3  1  0
  3  4  1  0
  4  5  2  0
  4  6  1  0
  6  7  1  0
  7  8  1  0
  8  9  2  0
  9 10  1  0
 10 11  2  0
 11 12  1  0
 12 13  1  0
 12 14  2  0
  6 15  1  0
 15 16  1  0
 16 17  1  0
 17 18  1  0
 18 19  1  0
 19 20  2  0
 20 21  1  0
 21 22  2  0
 22 23  1  0
 23 24  1  0
 22 25  1  0
 25 26  2  0
 17 27  1  0
 27 28  1  0
 28  6  1  0
 14  8  1  0
 26 19  1  0
  1 29  1  0
  1 30  1  0
  1 31  1  0
  2 32  1  0
  2 33  1  0
  7 34  1  0
  7 35  1  0
  9 36  1  0
 10 37  1  0
 11 38  1  0
 14 39  1  0
 15 40  1  0
 15 41  1  0
 16 42  1  0
 16 43  1  0
 18 44  1  0
 18 45  1  0
 20 46  1  0
 21 47  1  0
 24 48  1  0
 24 49  1  0
 24 50  1  0
 25 51  1  0
 26 52  1  0
 27 53  1  0
 27 54  1  0
 28 55  1  0
 28 56  1  0
M  END
>  <UniqueID>  (89) 
80

>  <SMILES>  (89) 
CCOC(=O)C1(Cc2cccc(F)c2)CCN(Cc2ccc(SC)cc2)CC1

>  <Energy>  (89) 
62.65788854308592

>  <Genealogy>  (89) 
CCOC(=O)C1(Cc2cccc(F)c2)CCN(Cc2ccc(SC)cc2)CC1 (3D coordinates assigned)
CCOC(=O)C1(Cc2cccc(F)c2)CCN(Cc2ccc(SC)cc2)CC1 (nonaromatic ring conformer: 62.65788854308592 kcal/mol)

>  <smiles>  (89) 
CCOC(=O)C1(Cc2cccc(F)c2)CCN(Cc2ccc(SC)cc2)CC1

>  <score_type>  (89) 
oracle

>  <origin>  (89) 
adg

>  <m_score__min__energy>  (89) 
-8.2699999999999996

>  <m_primary>  (89) 
energy

$$$$
89:0
     RDKit          3D

 46 48  0  0  0  0  0  0  0  0999 V2000
   58.0760   27.0930   43.0230 C   0  0  0  0  0  0  0  0  0  0  0  0
   58.2370   27.9840   44.2170 C   0  0  0  0  0  0  0  0  0  0  0  0
   58.9910   27.5570   45.3220 C   0  0  0  0  0  0  0  0  0  0  0  0
   59.1830   28.4090   46.4150 C   0  0  0  0  0  0  0  0  0  0  0  0
   58.6210   29.6880   46.4130 C   0  0  0  0  0  0  0  0  0  0  0  0
   57.8510   30.1240   45.3200 C   0  0  0  0  0  0  0  0  0  0  0  0
   57.2620   31.4330   45.2690 N   0  0  0  0  0  0  0  0  0  0  0  0
   57.9270   32.6920   45.4680 C   0  0  0  0  0  0  0  0  0  0  0  0
   58.6670   33.1850   44.5730 O   0  0  0  0  0  0  0  0  0  0  0  0
   57.8000   33.3870   46.7880 C   0  0  0  0  0  0  0  0  0  0  0  0
   59.0370   33.2650   47.5670 N   0  0  0  0  0  0  0  0  0  0  0  0
   60.0570   34.2680   47.4730 C   0  0  0  0  0  0  0  0  0  0  0  0
   59.8800   35.2640   46.7230 O   0  0  0  0  0  0  0  0  0  0  0  0
   61.3190   34.1500   48.2700 C   0  0  0  0  0  0  0  0  0  0  0  0
   62.3860   33.2180   47.6400 C   0  0  0  0  0  0  0  0  0  0  0  0
   63.6160   33.0480   48.5600 C   0  0  0  0  0  0  0  0  0  0  0  0
   62.8580   33.8500   46.3200 C   0  0  0  0  0  0  0  0  0  0  0  0
   61.6150   31.6000   47.1950 S   0  0  0  0  0  0  0  0  0  0  0  0
   60.4140   31.4600   48.5290 C   0  0  0  0  0  0  0  0  0  0  0  0
   60.6380   30.5220   49.5440 C   0  0  0  0  0  0  0  0  0  0  0  0
   59.6650   30.2980   50.5220 C   0  0  0  0  0  0  0  0  0  0  0  0
   58.4630   31.0090   50.4900 C   0  0  0  0  0  0  0  0  0  0  0  0
   58.2400   31.9610   49.4910 C   0  0  0  0  0  0  0  0  0  0  0  0
   59.2160   32.2000   48.5100 C   0  0  0  0  0  0  0  0  0  0  0  0
   57.6890   29.2760   44.2160 C   0  0  0  0  0  0  0  0  0  0  0  0
   57.8897   26.0618   43.3575 H   0  0  0  0  0  0  0  0  0  0  0  0
   57.2262   27.4413   42.4175 H   0  0  0  0  0  0  0  0  0  0  0  0
   58.9939   27.1219   42.4175 H   0  0  0  0  0  0  0  0  0  0  0  0
   59.4321   26.5493   45.3283 H   0  0  0  0  0  0  0  0  0  0  0  0
   59.7772   28.0714   47.2770 H   0  0  0  0  0  0  0  0  0  0  0  0
   58.7816   30.3575   47.2709 H   0  0  0  0  0  0  0  0  0  0  0  0
   57.5875   34.4523   46.6148 H   0  0  0  0  0  0  0  0  0  0  0  0
   56.9815   32.9181   47.3539 H   0  0  0  0  0  0  0  0  0  0  0  0
   61.7563   35.1540   48.3735 H   0  0  0  0  0  0  0  0  0  0  0  0
   61.0412   33.7034   49.2361 H   0  0  0  0  0  0  0  0  0  0  0  0
   63.2962   33.0922   49.6116 H   0  0  0  0  0  0  0  0  0  0  0  0
   64.0907   32.0757   48.3616 H   0  0  0  0  0  0  0  0  0  0  0  0
   64.3366   33.8551   48.3616 H   0  0  0  0  0  0  0  0  0  0  0  0
   63.5033   34.7140   46.5372 H   0  0  0  0  0  0  0  0  0  0  0  0
   63.4238   33.1066   45.7393 H   0  0  0  0  0  0  0  0  0  0  0  0
   61.9846   34.1815   45.7393 H   0  0  0  0  0  0  0  0  0  0  0  0
   61.5829   29.9595   49.5718 H   0  0  0  0  0  0  0  0  0  0  0  0
   59.8460   29.5608   51.3181 H   0  0  0  0  0  0  0  0  0  0  0  0
   57.6918   30.8197   51.2511 H   0  0  0  0  0  0  0  0  0  0  0  0
   57.2960   32.5253   49.4732 H   0  0  0  0  0  0  0  0  0  0  0  0
   57.1259   29.6271   43.3387 H   0  0  0  0  0  0  0  0  0  0  0  0
  1  2  1  0
  2  3  2  0
  3  4  1  0
  4  5  2  0
  5  6  1  0
  6  7  1  0
  7  8  1  0
  8  9  2  0
  8 10  1  0
 10 11  1  0
 11 12  1  0
 12 13  2  0
 12 14  1  0
 14 15  1  0
 15 16  1  0
 15 17  1  0
 15 18  1  0
 18 19  1  0
 19 20  2  0
 20 21  1  0
 21 22  2  0
 22 23  1  0
 23 24  2  0
  6 25  2  0
 25  2  1  0
 24 11  1  0
 24 19  1  0
  1 26  1  0
  1 27  1  0
  1 28  1  0
  3 29  1  0
  4 30  1  0
  5 31  1  0
 10 32  1  0
 10 33  1  0
 14 34  1  0
 14 35  1  0
 16 36  1  0
 16 37  1  0
 16 38  1  0
 17 39  1  0
 17 40  1  0
 17 41  1  0
 20 42  1  0
 21 43  1  0
 22 44  1  0
 23 45  1  0
 25 46  1  0
M  CHG  1   7  -1
M  END
>  <UniqueID>  (90) 
81

>  <SMILES>  (90) 
Cc1cccc([N-]C(=O)CN2C(=O)CC(C)(C)Sc3ccccc32)c1

>  <Energy>  (90) 
62.63655332266047

>  <Genealogy>  (90) 
Cc1cccc([N-]C(=O)CN2C(=O)CC(C)(C)Sc3ccccc32)c1 (protonated)
Cc1cccc([N-]C(=O)CN2C(=O)CC(C)(C)Sc3ccccc32)c1 (3D coordinates assigned)
Cc1cccc([N-]C(=O)CN2C(=O)CC(C)(C)Sc3ccccc32)c1 (nonaromatic ring conformer: 62.63655332266047 kcal/mol)

>  <smiles>  (90) 
Cc1cccc(NC(=O)CN2C(=O)CC(C)(C)Sc3ccccc32)c1

>  <score_type>  (90) 
oracle

>  <origin>  (90) 
adg

>  <m_score__min__energy>  (90) 
-8.0299999999999994

>  <m_primary>  (90) 
energy

$$$$
90:0
     RDKit          3D

 52 55  0  0  0  0  0  0  0  0999 V2000
   56.7515   31.2160   41.4597 H   0  0  0  0  0  0  0  0  0  0  0  0
   56.8820   31.1020   42.5460 C   0  0  0  0  0  0  0  0  0  0  0  0
   57.4550   32.0950   43.2670 N   0  0  0  0  0  0  0  0  0  0  0  0
   57.6190   31.9630   44.6110 C   0  0  0  0  0  0  0  0  0  0  0  0
   58.2240   33.0280   45.3770 N   0  0  0  0  0  0  0  0  0  0  0  0
   57.8370   33.2040   46.7860 C   0  0  0  0  0  0  0  0  0  0  0  0
   56.7675   33.4573   46.8317 H   0  0  0  0  0  0  0  0  0  0  0  0
   58.0458   32.2630   47.3160 H   0  0  0  0  0  0  0  0  0  0  0  0
   58.6400   34.3200   47.4670 C   0  0  0  0  0  0  0  0  0  0  0  0
   58.2499   35.2935   47.1351 H   0  0  0  0  0  0  0  0  0  0  0  0
   58.5341   34.2038   48.5557 H   0  0  0  0  0  0  0  0  0  0  0  0
   60.1390   34.2370   47.1180 C   0  0  0  0  0  0  0  0  0  0  0  0
   60.6240   35.1561   47.4785 H   0  0  0  0  0  0  0  0  0  0  0  0
   60.8050   33.0710   47.8540 C   0  0  0  0  0  0  0  0  0  0  0  0
   60.0590   32.2570   48.7350 C   0  0  0  0  0  0  0  0  0  0  0  0
   58.9839   32.4469   48.8697 H   0  0  0  0  0  0  0  0  0  0  0  0
   60.6670   31.2150   49.4370 C   0  0  0  0  0  0  0  0  0  0  0  0
   60.0672   30.5817   50.1072 H   0  0  0  0  0  0  0  0  0  0  0  0
   62.0320   30.9750   49.2910 C   0  0  0  0  0  0  0  0  0  0  0  0
   62.5074   30.1480   49.8388 H   0  0  0  0  0  0  0  0  0  0  0  0
   62.7950   31.7850   48.4490 C   0  0  0  0  0  0  0  0  0  0  0  0
   63.8735   31.5974   48.3413 H   0  0  0  0  0  0  0  0  0  0  0  0
   62.1980   32.8350   47.7400 C   0  0  0  0  0  0  0  0  0  0  0  0
   63.2490   33.8390   46.7420 Cl  0  0  0  0  0  0  0  0  0  0  0  0
   60.3900   34.2280   45.5810 C   0  0  0  0  0  0  0  0  0  0  0  0
   60.8288   35.1957   45.2963 H   0  0  0  0  0  0  0  0  0  0  0  0
   61.0609   33.3816   45.3726 H   0  0  0  0  0  0  0  0  0  0  0  0
   59.1200   34.0070   44.7420 C   0  0  0  0  0  0  0  0  0  0  0  0
   58.5884   34.9643   44.6375 H   0  0  0  0  0  0  0  0  0  0  0  0
   59.4176   33.6178   43.7571 H   0  0  0  0  0  0  0  0  0  0  0  0
   57.2020   30.8210   45.2210 N   0  0  0  0  0  0  0  0  0  0  0  0
   56.6360   29.8180   44.5040 C   0  0  0  0  0  0  0  0  0  0  0  0
   56.2260   28.7500   45.1230 N   0  0  0  0  0  0  0  0  0  0  0  0
   57.0420   27.7570   45.7680 C   0  0  0  0  0  0  0  0  0  0  0  0
   58.3650   28.0220   46.1630 C   0  0  0  0  0  0  0  0  0  0  0  0
   58.8139   29.0036   45.9512 H   0  0  0  0  0  0  0  0  0  0  0  0
   59.1110   27.0440   46.8230 C   0  0  0  0  0  0  0  0  0  0  0  0
   60.1489   27.2542   47.1206 H   0  0  0  0  0  0  0  0  0  0  0  0
   58.5440   25.7990   47.1070 C   0  0  0  0  0  0  0  0  0  0  0  0
   59.1398   25.0317   47.6230 H   0  0  0  0  0  0  0  0  0  0  0  0
   57.2160   25.5210   46.7370 C   0  0  0  0  0  0  0  0  0  0  0  0
   56.5910   24.2120   47.0510 C   0  0  0  0  0  0  0  0  0  0  0  0
   57.3160   23.2640   47.4630 O   0  0  0  0  0  0  0  0  0  0  0  0
   55.1760   24.0110   46.9120 N   0  0  0  0  0  0  0  0  0  0  0  0
   54.5440   24.8210   46.7330 H   0  0  0  0  0  0  0  0  0  0  0  0
   54.5740   22.6950   47.0810 C   0  0  0  0  0  0  0  0  0  0  0  0
   54.4725   22.4732   48.1536 H   0  0  0  0  0  0  0  0  0  0  0  0
   53.5807   22.6827   46.6085 H   0  0  0  0  0  0  0  0  0  0  0  0
   55.2142   21.9355   46.6085 H   0  0  0  0  0  0  0  0  0  0  0  0
   56.4680   26.5180   46.0850 C   0  0  0  0  0  0  0  0  0  0  0  0
   55.4183   26.3228   45.8203 H   0  0  0  0  0  0  0  0  0  0  0  0
   56.4690   29.9670   43.1630 N   0  0  0  0  0  0  0  0  0  0  0  0
  1  2  1  0
  2  3  2  0
  3  4  1  0
  4  5  1  0
  5  6  1  0
  6  7  1  0
  6  8  1  0
  6  9  1  0
  9 10  1  0
  9 11  1  0
  9 12  1  0
 12 13  1  0
 12 14  1  0
 14 15  2  0
 15 16  1  0
 15 17  1  0
 17 18  1  0
 17 19  2  0
 19 20  1  0
 19 21  1  0
 21 22  1  0
 21 23  2  0
 23 24  1  0
 12 25  1  0
 25 26  1  0
 25 27  1  0
 25 28  1  0
 28 29  1  0
 28 30  1  0
  4 31  2  0
 31 32  1  0
 32 33  2  0
 33 34  1  0
 34 35  2  0
 35 36  1  0
 35 37  1  0
 37 38  1  0
 37 39  2  0
 39 40  1  0
 39 41  1  0
 41 42  1  0
 42 43  2  0
 42 44  1  0
 44 45  1  0
 44 46  1  0
 46 47  1  0
 46 48  1  0
 46 49  1  0
 41 50  2  0
 50 51  1  0
 32 52  1  0
 52  2  1  0
 28  5  1  0
 50 34  1  0
 23 14  1  0
M  CHG  1  52  -1
M  END
>  <UniqueID>  (91) 
82

>  <SMILES>  (91) 
CNC(=O)c1cccc(/N=c2/nc(N3CCC(c4ccccc4Cl)CC3)nc[n-]2)c1

>  <Energy>  (91) 
69.58276365531066

>  <Genealogy>  (91) 
CNC(=O)c1cccc(N=c2nc(N3CCC(c4ccccc4Cl)CC3)nc[n-]2)c1 (protonated)
CNC(=O)c1cccc(/N=c2/nc(N3CCC(c4ccccc4Cl)CC3)nc[n-]2)c1 (cis-trans isomerization)
CNC(=O)c1cccc(/N=c2/nc(N3CCC(c4ccccc4Cl)CC3)nc[n-]2)c1 (3D coordinates assigned)
CNC(=O)c1cccc(/N=c2/nc(N3CCC(c4ccccc4Cl)CC3)nc[n-]2)c1 (nonaromatic ring conformer: 69.58276365531066 kcal/mol)

>  <smiles>  (91) 
CNC(=O)c1cccc(N=c2nc(N3CCC(c4ccccc4Cl)CC3)nc[nH]2)c1

>  <score_type>  (91) 
oracle

>  <origin>  (91) 
adg

>  <m_score__min__energy>  (91) 
-11.01

>  <m_primary>  (91) 
energy

$$$$
91:0
     RDKit          3D

 36 38  0  0  0  0  0  0  0  0999 V2000
   57.8980   33.4860   44.7310 C   0  0  0  0  0  0  0  0  0  0  0  0
   58.2750   32.1940   45.3340 N   0  0  0  0  0  0  0  0  0  0  0  0
   57.4610   31.1050   45.1780 C   0  0  0  0  0  0  0  0  0  0  0  0
   56.3820   31.2050   44.5250 O   0  0  0  0  0  0  0  0  0  0  0  0
   57.8170   29.8740   45.7440 C   0  0  0  0  0  0  0  0  0  0  0  0
   56.9950   28.7380   45.6450 C   0  0  0  0  0  0  0  0  0  0  0  0
   57.3890   27.5270   46.2300 C   0  0  0  0  0  0  0  0  0  0  0  0
   56.5220   26.3280   46.1320 C   0  0  0  0  0  0  0  0  0  0  0  0
   55.2810   26.4750   45.9740 O   0  0  0  0  0  0  0  0  0  0  0  0
   57.0430   24.9990   46.2660 N   0  0  0  0  0  0  0  0  0  0  0  0
   57.0240   23.9760   45.2590 C   0  0  0  0  0  0  0  0  0  0  0  0
   56.1340   24.0270   44.1700 C   0  0  0  0  0  0  0  0  0  0  0  0
   56.1310   23.0060   43.2150 C   0  0  0  0  0  0  0  0  0  0  0  0
   57.0030   21.9210   43.3480 C   0  0  0  0  0  0  0  0  0  0  0  0
   56.9990   20.9300   42.4220 F   0  0  0  0  0  0  0  0  0  0  0  0
   57.8720   21.8530   44.4400 C   0  0  0  0  0  0  0  0  0  0  0  0
   57.8770   22.8740   45.3960 C   0  0  0  0  0  0  0  0  0  0  0  0
   58.6020   27.4870   46.9320 C   0  0  0  0  0  0  0  0  0  0  0  0
   59.3840   28.5940   47.0120 N   0  0  0  0  0  0  0  0  0  0  0  0
   59.0360   29.7790   46.4360 C   0  0  0  0  0  0  0  0  0  0  0  0
   59.8640   30.8670   46.5260 N   0  0  0  0  0  0  0  0  0  0  0  0
   61.1390   30.7570   47.2590 C   0  0  0  0  0  0  0  0  0  0  0  0
   59.4760   32.0710   45.9900 C   0  0  0  0  0  0  0  0  0  0  0  0
   60.2310   33.0790   46.1030 O   0  0  0  0  0  0  0  0  0  0  0  0
   57.6855   34.2143   45.5275 H   0  0  0  0  0  0  0  0  0  0  0  0
   58.7258   33.8553   44.1079 H   0  0  0  0  0  0  0  0  0  0  0  0
   57.0015   33.3521   44.1079 H   0  0  0  0  0  0  0  0  0  0  0  0
   56.0382   28.7999   45.1059 H   0  0  0  0  0  0  0  0  0  0  0  0
   55.4383   24.8732   44.0699 H   0  0  0  0  0  0  0  0  0  0  0  0
   55.4424   23.0562   42.3586 H   0  0  0  0  0  0  0  0  0  0  0  0
   58.5528   20.9958   44.5480 H   0  0  0  0  0  0  0  0  0  0  0  0
   58.5547   22.8109   46.2601 H   0  0  0  0  0  0  0  0  0  0  0  0
   58.9216   26.5545   47.4202 H   0  0  0  0  0  0  0  0  0  0  0  0
   60.9424   30.7740   48.3412 H   0  0  0  0  0  0  0  0  0  0  0  0
   61.6356   29.8127   46.9913 H   0  0  0  0  0  0  0  0  0  0  0  0
   61.7900   31.6023   46.9913 H   0  0  0  0  0  0  0  0  0  0  0  0
  1  2  1  0
  2  3  1  0
  3  4  2  0
  3  5  1  0
  5  6  2  0
  6  7  1  0
  7  8  1  0
  8  9  2  0
  8 10  1  0
 10 11  1  0
 11 12  2  0
 12 13  1  0
 13 14  2  0
 14 15  1  0
 14 16  1  0
 16 17  2  0
  7 18  2  0
 18 19  1  0
 19 20  2  0
 20 21  1  0
 21 22  1  0
 21 23  1  0
 23 24  2  0
 23  2  1  0
 20  5  1  0
 17 11  1  0
  1 25  1  0
  1 26  1  0
  1 27  1  0
  6 28  1  0
 12 29  1  0
 13 30  1  0
 16 31  1  0
 17 32  1  0
 18 33  1  0
 22 34  1  0
 22 35  1  0
 22 36  1  0
M  CHG  1  10  -1
M  END
>  <UniqueID>  (92) 
83

>  <SMILES>  (92) 
Cn1c(=O)c2cc(C(=O)[N-]c3ccc(F)cc3)cnc2n(C)c1=O

>  <Energy>  (92) 
57.99569108029488

>  <Genealogy>  (92) 
Cn1c(=O)c2cc(C(=O)[N-]c3ccc(F)cc3)cnc2n(C)c1=O (protonated)
Cn1c(=O)c2cc(C(=O)[N-]c3ccc(F)cc3)cnc2n(C)c1=O (3D coordinates assigned)
Cn1c(=O)c2cc(C(=O)[N-]c3ccc(F)cc3)cnc2n(C)c1=O (optimized conformer: 57.99569108029488 kcal/mol)

>  <smiles>  (92) 
Cn1c(=O)c2cc(C(=O)Nc3ccc(F)cc3)cnc2n(C)c1=O

>  <score_type>  (92) 
oracle

>  <origin>  (92) 
adg

>  <m_score__min__energy>  (92) 
-8.6300000000000008

>  <m_primary>  (92) 
energy

$$$$
92:0
     RDKit          3D

 35 36  0  0  0  0  0  0  0  0999 V2000
   60.7020   34.0520   49.0430 C   0  0  0  0  0  0  0  0  0  0  0  0
   59.3800   34.2500   48.5500 O   0  0  0  0  0  0  0  0  0  0  0  0
   58.9940   34.0440   47.2170 C   0  0  0  0  0  0  0  0  0  0  0  0
   59.6300   34.7890   46.2180 C   0  0  0  0  0  0  0  0  0  0  0  0
   59.2740   34.6270   44.8770 C   0  0  0  0  0  0  0  0  0  0  0  0
   58.2850   33.7070   44.5200 C   0  0  0  0  0  0  0  0  0  0  0  0
   57.6550   32.9330   45.5010 C   0  0  0  0  0  0  0  0  0  0  0  0
   56.6260   32.0140   45.1050 N   0  0  0  0  0  0  0  0  0  0  0  0
   56.7720   30.9230   44.1870 C   0  0  0  0  0  0  0  0  0  0  0  0
   57.3380   31.1330   43.0820 O   0  0  0  0  0  0  0  0  0  0  0  0
   56.3440   29.5550   44.5250 C   0  0  0  0  0  0  0  0  0  0  0  0
   55.1510   29.3330   44.8690 O   0  0  0  0  0  0  0  0  0  0  0  0
   57.2870   28.4790   44.4330 N   0  0  0  0  0  0  0  0  0  0  0  0
   57.9690   27.8440   45.5260 C   0  0  0  0  0  0  0  0  0  0  0  0
   57.4880   26.6500   46.0940 C   0  0  0  0  0  0  0  0  0  0  0  0
   58.1560   26.0590   47.1690 C   0  0  0  0  0  0  0  0  0  0  0  0
   59.3010   26.6560   47.6960 C   0  0  0  0  0  0  0  0  0  0  0  0
   59.7760   27.8530   47.1580 C   0  0  0  0  0  0  0  0  0  0  0  0
   59.1120   28.4620   46.0800 C   0  0  0  0  0  0  0  0  0  0  0  0
   59.6350   29.7500   45.5080 C   0  0  0  0  0  0  0  0  0  0  0  0
   57.9950   33.1200   46.8540 C   0  0  0  0  0  0  0  0  0  0  0  0
   60.6873   34.0542   50.1429 H   0  0  0  0  0  0  0  0  0  0  0  0
   61.0866   33.0862   48.6834 H   0  0  0  0  0  0  0  0  0  0  0  0
   61.3527   34.8627   48.6834 H   0  0  0  0  0  0  0  0  0  0  0  0
   60.4166   35.5080   46.4907 H   0  0  0  0  0  0  0  0  0  0  0  0
   59.7734   35.2250   44.1005 H   0  0  0  0  0  0  0  0  0  0  0  0
   58.0005   33.5906   43.4638 H   0  0  0  0  0  0  0  0  0  0  0  0
   56.5802   26.1790   45.6890 H   0  0  0  0  0  0  0  0  0  0  0  0
   57.7781   25.1206   47.6009 H   0  0  0  0  0  0  0  0  0  0  0  0
   59.8302   26.1830   48.5364 H   0  0  0  0  0  0  0  0  0  0  0  0
   60.6763   28.3228   47.5808 H   0  0  0  0  0  0  0  0  0  0  0  0
   59.9110   30.4298   46.3276 H   0  0  0  0  0  0  0  0  0  0  0  0
   60.5205   29.5435   44.8889 H   0  0  0  0  0  0  0  0  0  0  0  0
   58.8562   30.2193   44.8889 H   0  0  0  0  0  0  0  0  0  0  0  0
   57.4772   32.5408   47.6327 H   0  0  0  0  0  0  0  0  0  0  0  0
  1  2  1  0
  2  3  1  0
  3  4  2  0
  4  5  1  0
  5  6  2  0
  6  7  1  0
  7  8  1  0
  8  9  1  0
  9 10  2  0
  9 11  1  0
 11 12  2  0
 11 13  1  0
 13 14  1  0
 14 15  2  0
 15 16  1  0
 16 17  2  0
 17 18  1  0
 18 19  2  0
 19 20  1  0
  7 21  2  0
 21  3  1  0
 19 14  1  0
  1 22  1  0
  1 23  1  0
  1 24  1  0
  4 25  1  0
  5 26  1  0
  6 27  1  0
 15 28  1  0
 16 29  1  0
 17 30  1  0
 18 31  1  0
 20 32  1  0
 20 33  1  0
 20 34  1  0
 21 35  1  0
M  CHG  2   8  -1  13  -1
M  END
>  <UniqueID>  (93) 
84

>  <SMILES>  (93) 
COc1cccc([N-]C(=O)C(=O)[N-]c2ccccc2C)c1

>  <Energy>  (93) 
42.884934265027155

>  <Genealogy>  (93) 
COc1cccc([N-]C(=O)C(=O)[N-]c2ccccc2C)c1 (protonated)
COc1cccc([N-]C(=O)C(=O)[N-]c2ccccc2C)c1 (3D coordinates assigned)
COc1cccc([N-]C(=O)C(=O)[N-]c2ccccc2C)c1 (optimized conformer: 42.884934265027155 kcal/mol)

>  <smiles>  (93) 
COc1cccc(NC(=O)C(=O)Nc2ccccc2C)c1

>  <score_type>  (93) 
oracle

>  <origin>  (93) 
adg

>  <m_score__min__energy>  (93) 
-10.32

>  <m_primary>  (93) 
energy

$$$$
93:0
     RDKit          3D

 55 58  0  0  0  0  0  0  0  0999 V2000
   51.0270   32.2900   50.0280 O   0  0  0  0  0  0  0  0  0  0  0  0
   51.3120   32.3240   51.2550 C   0  0  0  0  0  0  0  0  0  0  0  0
   50.5330   33.1010   52.1060 O   0  0  0  0  0  0  0  0  0  0  0  0
   52.4590   31.5530   51.7840 C   0  0  0  0  0  0  0  0  0  0  0  0
   52.4930   31.1710   53.1370 C   0  0  0  0  0  0  0  0  0  0  0  0
   53.5840   30.4590   53.6430 C   0  0  0  0  0  0  0  0  0  0  0  0
   54.6620   30.1220   52.8100 C   0  0  0  0  0  0  0  0  0  0  0  0
   55.8480   29.3700   53.3560 C   0  0  0  0  0  0  0  0  0  0  0  0
   57.0200   30.1850   53.3280 O   0  0  0  0  0  0  0  0  0  0  0  0
   57.6490   30.6500   52.1630 C   0  0  0  0  0  0  0  0  0  0  0  0
   58.1120   29.7810   51.1570 C   0  0  0  0  0  0  0  0  0  0  0  0
   58.7900   30.2880   50.0450 C   0  0  0  0  0  0  0  0  0  0  0  0
   59.0330   31.6640   49.9330 C   0  0  0  0  0  0  0  0  0  0  0  0
   59.8100   32.1640   48.7840 C   0  0  0  0  0  0  0  0  0  0  0  0
   59.3510   33.0600   47.8890 C   0  0  0  0  0  0  0  0  0  0  0  0
   60.3140   34.5180   47.4150 S   0  0  0  0  0  0  0  0  0  0  0  0
   61.8430   33.9400   48.1600 C   0  0  0  0  0  0  0  0  0  0  0  0
   62.1450   34.2800   49.4860 C   0  0  0  0  0  0  0  0  0  0  0  0
   63.3260   33.8270   50.0780 C   0  0  0  0  0  0  0  0  0  0  0  0
   64.2270   33.0530   49.3390 C   0  0  0  0  0  0  0  0  0  0  0  0
   65.8440   32.4420   50.1490 Br  0  0  0  0  0  0  0  0  0  0  0  0
   63.9450   32.7370   48.0060 C   0  0  0  0  0  0  0  0  0  0  0  0
   62.7580   33.1840   47.4150 C   0  0  0  0  0  0  0  0  0  0  0  0
   58.0510   32.8440   47.2050 C   0  0  0  0  0  0  0  0  0  0  0  0
   56.9870   33.1000   47.8300 O   0  0  0  0  0  0  0  0  0  0  0  0
   57.9490   32.3170   45.8220 C   0  0  0  0  0  0  0  0  0  0  0  0
   57.9010   33.2060   44.7340 C   0  0  0  0  0  0  0  0  0  0  0  0
   57.7860   32.7200   43.4280 C   0  0  0  0  0  0  0  0  0  0  0  0
   57.7070   31.3450   43.1970 C   0  0  0  0  0  0  0  0  0  0  0  0
   57.7360   30.4540   44.2710 C   0  0  0  0  0  0  0  0  0  0  0  0
   57.8510   30.9340   45.5790 C   0  0  0  0  0  0  0  0  0  0  0  0
   58.5150   32.5360   50.9020 C   0  0  0  0  0  0  0  0  0  0  0  0
   57.8290   32.0280   52.0090 C   0  0  0  0  0  0  0  0  0  0  0  0
   54.6230   30.4890   51.4570 C   0  0  0  0  0  0  0  0  0  0  0  0
   53.5340   31.2030   50.9490 C   0  0  0  0  0  0  0  0  0  0  0  0
   51.6562   31.4341   53.8008 H   0  0  0  0  0  0  0  0  0  0  0  0
   53.5978   30.1606   54.7017 H   0  0  0  0  0  0  0  0  0  0  0  0
   55.6399   29.0726   54.3944 H   0  0  0  0  0  0  0  0  0  0  0  0
   56.0208   28.4812   52.7313 H   0  0  0  0  0  0  0  0  0  0  0  0
   57.9394   28.6983   51.2465 H   0  0  0  0  0  0  0  0  0  0  0  0
   59.1342   29.6047   49.2547 H   0  0  0  0  0  0  0  0  0  0  0  0
   60.8319   31.7800   48.6487 H   0  0  0  0  0  0  0  0  0  0  0  0
   61.4487   34.9064   50.0628 H   0  0  0  0  0  0  0  0  0  0  0  0
   63.5478   34.0789   51.1256 H   0  0  0  0  0  0  0  0  0  0  0  0
   64.6573   32.1363   47.4214 H   0  0  0  0  0  0  0  0  0  0  0  0
   62.5428   32.9416   46.3639 H   0  0  0  0  0  0  0  0  0  0  0  0
   57.9542   34.2903   44.9112 H   0  0  0  0  0  0  0  0  0  0  0  0
   57.7577   33.4217   42.5813 H   0  0  0  0  0  0  0  0  0  0  0  0
   57.6219   30.9641   42.1686 H   0  0  0  0  0  0  0  0  0  0  0  0
   57.6682   29.3715   44.0878 H   0  0  0  0  0  0  0  0  0  0  0  0
   57.8650   30.2277   46.4221 H   0  0  0  0  0  0  0  0  0  0  0  0
   58.6489   33.6221   50.7905 H   0  0  0  0  0  0  0  0  0  0  0  0
   57.4273   32.7183   52.7654 H   0  0  0  0  0  0  0  0  0  0  0  0
   55.4544   30.2133   50.7916 H   0  0  0  0  0  0  0  0  0  0  0  0
   53.5182   31.4931   49.8880 H   0  0  0  0  0  0  0  0  0  0  0  0
  1  2  2  0
  2  3  1  0
  2  4  1  0
  4  5  2  0
  5  6  1  0
  6  7  2  0
  7  8  1  0
  8  9  1  0
  9 10  1  0
 10 11  2  0
 11 12  1  0
 12 13  2  0
 13 14  1  0
 14 15  2  3
 15 16  1  0
 16 17  1  0
 17 18  2  0
 18 19  1  0
 19 20  2  0
 20 21  1  0
 20 22  1  0
 22 23  2  0
 15 24  1  0
 24 25  2  0
 24 26  1  0
 26 27  2  0
 27 28  1  0
 28 29  2  0
 29 30  1  0
 30 31  2  0
 13 32  1  0
 32 33  2  0
  7 34  1  0
 34 35  2  0
 35  4  1  0
 33 10  1  0
 23 17  1  0
 31 26  1  0
  5 36  1  0
  6 37  1  0
  8 38  1  0
  8 39  1  0
 11 40  1  0
 12 41  1  0
 14 42  1  0
 18 43  1  0
 19 44  1  0
 22 45  1  0
 23 46  1  0
 27 47  1  0
 28 48  1  0
 29 49  1  0
 30 50  1  0
 31 51  1  0
 32 52  1  0
 33 53  1  0
 34 54  1  0
 35 55  1  0
M  CHG  1   3  -1
M  END
>  <UniqueID>  (94) 
85

>  <SMILES>  (94) 
O=C([O-])c1ccc(COc2ccc(C=C(Sc3ccc(Br)cc3)C(=O)c3ccccc3)cc2)cc1

>  <Energy>  (94) 
64.29043854057612

>  <Genealogy>  (94) 
O=C([O-])c1ccc(COc2ccc(C=C(Sc3ccc(Br)cc3)C(=O)c3ccccc3)cc2)cc1 (protonated)
O=C([O-])c1ccc(COc2ccc(C=C(Sc3ccc(Br)cc3)C(=O)c3ccccc3)cc2)cc1 (3D coordinates assigned)
O=C([O-])c1ccc(COc2ccc(C=C(Sc3ccc(Br)cc3)C(=O)c3ccccc3)cc2)cc1 (optimized conformer: 64.29043854057612 kcal/mol)

>  <smiles>  (94) 
O=C(O)c1ccc(COc2ccc(C=C(Sc3ccc(Br)cc3)C(=O)c3ccccc3)cc2)cc1

>  <score_type>  (94) 
oracle

>  <origin>  (94) 
adg

>  <m_score__min__energy>  (94) 
-14.82

>  <m_primary>  (94) 
energy

$$$$
94:0
     RDKit          3D

 58 61  0  0  0  0  0  0  0  0999 V2000
   62.0488   29.0639   51.8283 H   0  0  0  0  0  0  0  0  0  0  0  0
   62.1080   29.9520   51.1820 C   0  0  0  0  0  0  0  0  0  0  0  0
   61.8400   29.8440   49.8560 N   0  0  0  0  0  0  0  0  0  0  0  0
   61.9140   30.9100   49.0120 C   0  0  0  0  0  0  0  0  0  0  0  0
   61.4600   30.6490   47.2900 S   0  0  0  0  0  0  0  0  0  0  0  0
   59.7650   30.0710   47.6480 C   0  0  0  0  0  0  0  0  0  0  0  0
   59.8030   29.3245   48.4550 H   0  0  0  0  0  0  0  0  0  0  0  0
   59.1573   30.9367   47.9502 H   0  0  0  0  0  0  0  0  0  0  0  0
   59.1370   29.4480   46.4320 C   0  0  0  0  0  0  0  0  0  0  0  0
   59.9390   28.9550   45.3890 C   0  0  0  0  0  0  0  0  0  0  0  0
   61.0337   29.0427   45.4510 H   0  0  0  0  0  0  0  0  0  0  0  0
   59.3500   28.3530   44.2720 C   0  0  0  0  0  0  0  0  0  0  0  0
   59.9817   27.9722   43.4559 H   0  0  0  0  0  0  0  0  0  0  0  0
   57.9610   28.2350   44.1920 C   0  0  0  0  0  0  0  0  0  0  0  0
   57.4999   27.7614   43.3128 H   0  0  0  0  0  0  0  0  0  0  0  0
   57.1550   28.7180   45.2280 C   0  0  0  0  0  0  0  0  0  0  0  0
   55.8070   28.5930   45.1530 F   0  0  0  0  0  0  0  0  0  0  0  0
   57.7410   29.3260   46.3430 C   0  0  0  0  0  0  0  0  0  0  0  0
   57.1052   29.7105   47.1541 H   0  0  0  0  0  0  0  0  0  0  0  0
   62.3020   32.1760   49.5140 C   0  0  0  0  0  0  0  0  0  0  0  0
   62.4440   33.3750   48.6540 C   0  0  0  0  0  0  0  0  0  0  0  0
   63.5860   33.6800   48.2190 O   0  0  0  0  0  0  0  0  0  0  0  0
   61.3380   34.2300   48.3270 N   0  0  0  0  0  0  0  0  0  0  0  0
   60.2290   33.8840   47.7350 C   0  0  0  0  0  0  0  0  0  0  0  0
   59.9240   34.0270   46.3900 C   0  0  0  0  0  0  0  0  0  0  0  0
   60.5673   34.4235   45.5907 H   0  0  0  0  0  0  0  0  0  0  0  0
   58.6220   33.5560   46.2810 C   0  0  0  0  0  0  0  0  0  0  0  0
   57.8400   33.4260   44.9790 C   0  0  0  0  0  0  0  0  0  0  0  0
   57.0670   32.0910   44.9130 C   0  0  0  0  0  0  0  0  0  0  0  0
   56.8612   31.7356   45.9335 H   0  0  0  0  0  0  0  0  0  0  0  0
   56.1173   32.2432   44.3793 H   0  0  0  0  0  0  0  0  0  0  0  0
   57.6718   31.3431   44.3793 H   0  0  0  0  0  0  0  0  0  0  0  0
   58.8250   33.4910   43.7960 C   0  0  0  0  0  0  0  0  0  0  0  0
   59.8540   33.5589   44.1789 H   0  0  0  0  0  0  0  0  0  0  0  0
   58.7213   32.5841   43.1822 H   0  0  0  0  0  0  0  0  0  0  0  0
   58.6030   34.3764   43.1822 H   0  0  0  0  0  0  0  0  0  0  0  0
   56.8290   34.5850   44.8700 C   0  0  0  0  0  0  0  0  0  0  0  0
   56.5404   34.9159   45.8786 H   0  0  0  0  0  0  0  0  0  0  0  0
   57.2895   35.4234   44.3268 H   0  0  0  0  0  0  0  0  0  0  0  0
   55.9358   34.2426   44.3268 H   0  0  0  0  0  0  0  0  0  0  0  0
   58.1950   33.1640   47.5030 N   0  0  0  0  0  0  0  0  0  0  0  0
   57.2710   32.7380   47.7360 H   0  0  0  0  0  0  0  0  0  0  0  0
   59.1640   33.3650   48.3840 N   0  0  0  0  0  0  0  0  0  0  0  0
   59.0640   33.0280   49.7810 C   0  0  0  0  0  0  0  0  0  0  0  0
   58.4690   31.8160   50.1720 C   0  0  0  0  0  0  0  0  0  0  0  0
   58.0650   31.1339   49.4094 H   0  0  0  0  0  0  0  0  0  0  0  0
   58.3880   31.4730   51.5240 C   0  0  0  0  0  0  0  0  0  0  0  0
   57.9208   30.5228   51.8221 H   0  0  0  0  0  0  0  0  0  0  0  0
   58.8990   32.3340   52.4980 C   0  0  0  0  0  0  0  0  0  0  0  0
   58.8288   32.0646   53.5622 H   0  0  0  0  0  0  0  0  0  0  0  0
   59.4990   33.5370   52.1200 C   0  0  0  0  0  0  0  0  0  0  0  0
   59.9043   34.2136   52.8868 H   0  0  0  0  0  0  0  0  0  0  0  0
   59.5850   33.8820   50.7690 C   0  0  0  0  0  0  0  0  0  0  0  0
   60.0636   34.8282   50.4762 H   0  0  0  0  0  0  0  0  0  0  0  0
   62.5490   32.2990   50.8910 C   0  0  0  0  0  0  0  0  0  0  0  0
   62.8158   33.2790   51.3133 H   0  0  0  0  0  0  0  0  0  0  0  0
   62.4580   31.1860   51.7260 C   0  0  0  0  0  0  0  0  0  0  0  0
   62.6604   31.2812   52.8030 H   0  0  0  0  0  0  0  0  0  0  0  0
  1  2  1  0
  2  3  2  0
  3  4  1  0
  4  5  1  0
  5  6  1  0
  6  7  1  0
  6  8  1  0
  6  9  1  0
  9 10  2  0
 10 11  1  0
 10 12  1  0
 12 13  1  0
 12 14  2  0
 14 15  1  0
 14 16  1  0
 16 17  1  0
 16 18  2  0
 18 19  1  0
  4 20  2  0
 20 21  1  0
 21 22  2  0
 21 23  1  0
 23 24  2  0
 24 25  1  0
 25 26  1  0
 25 27  2  0
 27 28  1  0
 28 29  1  0
 29 30  1  0
 29 31  1  0
 29 32  1  0
 28 33  1  0
 33 34  1  0
 33 35  1  0
 33 36  1  0
 28 37  1  0
 37 38  1  0
 37 39  1  0
 37 40  1  0
 27 41  1  0
 41 42  1  0
 41 43  1  0
 43 44  1  0
 44 45  2  0
 45 46  1  0
 45 47  1  0
 47 48  1  0
 47 49  2  0
 49 50  1  0
 49 51  1  0
 51 52  1  0
 51 53  2  0
 53 54  1  0
 20 55  1  0
 55 56  1  0
 55 57  2  0
 57 58  1  0
 57  2  1  0
 18  9  1  0
 43 24  1  0
 53 44  1  0
M  END
>  <UniqueID>  (95) 
86

>  <SMILES>  (95) 
CC(C)(C)c1c/c(=N\C(=O)c2cccnc2SCc2cccc(F)c2)n(-c2ccccc2)[nH]1

>  <Energy>  (95) 
98.5042882280398

>  <Genealogy>  (95) 
CC(C)(C)c1c/c(=N\C(=O)c2cccnc2SCc2cccc(F)c2)n(-c2ccccc2)[nH]1 (cis-trans isomerization)
CC(C)(C)c1c/c(=N\C(=O)c2cccnc2SCc2cccc(F)c2)n(-c2ccccc2)[nH]1 (3D coordinates assigned)
CC(C)(C)c1c/c(=N\C(=O)c2cccnc2SCc2cccc(F)c2)n(-c2ccccc2)[nH]1 (optimized conformer: 98.5042882280398 kcal/mol)

>  <smiles>  (95) 
CC(C)(C)c1cc(=NC(=O)c2cccnc2SCc2cccc(F)c2)n(-c2ccccc2)[nH]1

>  <score_type>  (95) 
oracle

>  <origin>  (95) 
adg

>  <m_score__min__energy>  (95) 
-9.3000000000000007

>  <m_primary>  (95) 
energy

$$$$
