0:0
     RDKit          3D

 48 50  0  0  0  0  0  0  0  0999 V2000
   58.6910   29.6270   50.0180 C   0  0  0  0  0  0  0  0  0  0  0  0
   58.2760   30.7190   50.9700 C   0  0  0  0  0  0  0  0  0  0  0  0
   57.0820   30.5730   51.6980 C   0  0  0  0  0  0  0  0  0  0  0  0
   56.6670   31.5670   52.5880 C   0  0  0  0  0  0  0  0  0  0  0  0
   57.4380   32.7150   52.7610 C   0  0  0  0  0  0  0  0  0  0  0  0
   58.6200   32.8820   52.0380 C   0  0  0  0  0  0  0  0  0  0  0  0
   59.0440   31.9010   51.1250 C   0  0  0  0  0  0  0  0  0  0  0  0
   60.3440   32.1100   50.3810 C   0  0  0  0  0  0  0  0  0  0  0  0
   60.0900   32.3770   48.9660 N   0  0  0  0  0  0  0  0  0  0  0  0
   59.6560   33.6680   48.5160 C   0  0  0  0  0  0  0  0  0  0  0  0
   59.5060   34.6050   49.3450 O   0  0  0  0  0  0  0  0  0  0  0  0
   59.3820   33.9090   47.0870 C   0  0  0  0  0  0  0  0  0  0  0  0
   59.4670   35.1680   46.4930 C   0  0  0  0  0  0  0  0  0  0  0  0
   59.0960   34.9960   44.8620 S   0  0  0  0  0  0  0  0  0  0  0  0
   58.8260   33.3430   44.9830 C   0  0  0  0  0  0  0  0  0  0  0  0
   58.5040   32.4420   43.8350 C   0  0  0  0  0  0  0  0  0  0  0  0
   57.8190   31.2000   44.3350 C   0  0  0  0  0  0  0  0  0  0  0  0
   58.4730   30.3460   45.2350 C   0  0  0  0  0  0  0  0  0  0  0  0
   57.8520   29.1720   45.6720 C   0  0  0  0  0  0  0  0  0  0  0  0
   56.5710   28.8280   45.2040 C   0  0  0  0  0  0  0  0  0  0  0  0
   55.8980   27.6330   45.6230 N   0  0  0  0  0  0  0  0  0  0  0  0
   56.6630   26.1520   46.1040 S   0  0  0  0  0  0  0  0  0  0  0  0
   57.5360   25.4360   44.7280 C   0  0  0  0  0  0  0  0  0  0  0  0
   55.6030   25.1870   46.5560 O   0  0  0  0  0  0  0  0  0  0  0  0
   57.6030   26.4060   47.2470 O   0  0  0  0  0  0  0  0  0  0  0  0
   55.9250   29.6790   44.2940 C   0  0  0  0  0  0  0  0  0  0  0  0
   54.6920   29.3630   43.8250 F   0  0  0  0  0  0  0  0  0  0  0  0
   56.5460   30.8530   43.8590 C   0  0  0  0  0  0  0  0  0  0  0  0
   59.0340   32.9000   46.2410 N   0  0  0  0  0  0  0  0  0  0  0  0
   59.0247   28.7489   50.5903 H   0  0  0  0  0  0  0  0  0  0  0  0
   57.8360   29.3484   49.3844 H   0  0  0  0  0  0  0  0  0  0  0  0
   59.5152   29.9866   49.3844 H   0  0  0  0  0  0  0  0  0  0  0  0
   56.4696   29.6689   51.5658 H   0  0  0  0  0  0  0  0  0  0  0  0
   55.7310   31.4433   53.1525 H   0  0  0  0  0  0  0  0  0  0  0  0
   57.1140   33.4917   53.4694 H   0  0  0  0  0  0  0  0  0  0  0  0
   59.2250   33.7891   52.1839 H   0  0  0  0  0  0  0  0  0  0  0  0
   60.8783   32.9654   50.8201 H   0  0  0  0  0  0  0  0  0  0  0  0
   60.9520   31.1972   50.4661 H   0  0  0  0  0  0  0  0  0  0  0  0
   60.2250   31.6130   48.2650 H   0  0  0  0  0  0  0  0  0  0  0  0
   59.7302   36.1073   47.0015 H   0  0  0  0  0  0  0  0  0  0  0  0
   57.8392   32.9680   43.1340 H   0  0  0  0  0  0  0  0  0  0  0  0
   59.4362   32.1602   43.3235 H   0  0  0  0  0  0  0  0  0  0  0  0
   59.4793   30.6010   45.5988 H   0  0  0  0  0  0  0  0  0  0  0  0
   58.3683   28.5135   46.3860 H   0  0  0  0  0  0  0  0  0  0  0  0
   58.3357   24.7801   45.1024 H   0  0  0  0  0  0  0  0  0  0  0  0
   56.8363   24.8483   44.1156 H   0  0  0  0  0  0  0  0  0  0  0  0
   57.9754   26.2372   44.1156 H   0  0  0  0  0  0  0  0  0  0  0  0
   56.0337   31.5085   43.1394 H   0  0  0  0  0  0  0  0  0  0  0  0
  1  2  1  0
  2  3  2  0
  3  4  1  0
  4  5  2  0
  5  6  1  0
  6  7  2  0
  7  8  1  0
  8  9  1  0
  9 10  1  0
 10 11  2  0
 10 12  1  0
 12 13  2  0
 13 14  1  0
 14 15  1  0
 15 16  1  0
 16 17  1  0
 17 18  2  0
 18 19  1  0
 19 20  2  0
 20 21  1  0
 21 22  1  0
 22 23  1  0
 22 24  2  0
 22 25  2  0
 20 26  1  0
 26 27  1  0
 26 28  2  0
 15 29  2  0
  7  2  1  0
 29 12  1  0
 28 17  1  0
  1 30  1  0
  1 31  1  0
  1 32  1  0
  3 33  1  0
  4 34  1  0
  5 35  1  0
  6 36  1  0
  8 37  1  0
  8 38  1  0
  9 39  1  0
 13 40  1  0
 16 41  1  0
 16 42  1  0
 18 43  1  0
 19 44  1  0
 23 45  1  0
 23 46  1  0
 23 47  1  0
 28 48  1  0
M  CHG  1  21  -1
M  END
>  <UniqueID>  (1) 
1

>  <SMILES>  (1) 
Cc1ccccc1CNC(=O)c1csc(Cc2ccc([N-]S(C)(=O)=O)c(F)c2)n1

>  <Energy>  (1) 
74.22838265700548

>  <Genealogy>  (1) 
Cc1ccccc1CNC(=O)c1csc(Cc2ccc([N-]S(C)(=O)=O)c(F)c2)n1 (protonated)
Cc1ccccc1CNC(=O)c1csc(Cc2ccc([N-]S(C)(=O)=O)c(F)c2)n1 (3D coordinates assigned)
Cc1ccccc1CNC(=O)c1csc(Cc2ccc([N-]S(C)(=O)=O)c(F)c2)n1 (optimized conformer: 74.22838265700548 kcal/mol)

>  <smiles>  (1) 
Cc1ccccc1CNC(=O)c1csc(Cc2ccc(NS(C)(=O)=O)c(F)c2)n1

>  <score_type>  (1) 
oracle

>  <origin>  (1) 
adg

>  <m_score__min__energy>  (1) 
-10.92

>  <m_primary>  (1) 
energy

$$$$
1:0
     RDKit          3D

 63 67  0  0  0  0  0  0  0  0999 V2000
   59.3170   29.5950   44.4980 C   0  0  0  0  0  0  0  0  0  0  0  0
   59.3380   29.0830   45.7360 C   0  0  0  0  0  0  0  0  0  0  0  0
   58.6170   27.9700   46.1920 C   0  0  0  0  0  0  0  0  0  0  0  0
   57.9420   27.0250   45.5120 C   0  0  0  0  0  0  0  0  0  0  0  0
   57.2450   25.8810   46.1220 C   0  0  0  0  0  0  0  0  0  0  0  0
   57.8620   24.8120   46.6580 N   0  0  0  0  0  0  0  0  0  0  0  0
   56.8450   24.0950   47.1830 C   0  0  0  0  0  0  0  0  0  0  0  0
   57.0250   23.0000   47.7780 O   0  0  0  0  0  0  0  0  0  0  0  0
   55.6240   24.6500   47.0330 N   0  0  0  0  0  0  0  0  0  0  0  0
   55.8980   25.7840   46.3670 C   0  0  0  0  0  0  0  0  0  0  0  0
   54.9350   26.7070   45.9840 O   0  0  0  0  0  0  0  0  0  0  0  0
   58.7130   27.9820   47.5710 C   0  0  0  0  0  0  0  0  0  0  0  0
   59.5450   29.0320   47.9030 C   0  0  0  0  0  0  0  0  0  0  0  0
   59.8420   29.4660   49.2850 C   0  0  0  0  0  0  0  0  0  0  0  0
   61.0510   29.6000   49.6140 O   0  0  0  0  0  0  0  0  0  0  0  0
   58.7990   29.7580   50.2520 N   0  0  0  0  0  0  0  0  0  0  0  0
   59.1740   29.2400   51.5840 C   0  0  0  0  0  0  0  0  0  0  0  0
   58.2030   29.7100   52.6880 C   0  0  0  0  0  0  0  0  0  0  0  0
   56.9920   30.3280   52.1130 N   0  0  0  0  0  0  0  0  0  0  0  0
   56.0500   30.7180   53.1830 C   0  0  0  0  0  0  0  0  0  0  0  0
   54.6350   30.4230   52.7690 C   0  0  0  0  0  0  0  0  0  0  0  0
   53.9480   29.3420   53.3490 C   0  0  0  0  0  0  0  0  0  0  0  0
   52.6440   29.0410   52.9480 C   0  0  0  0  0  0  0  0  0  0  0  0
   52.0090   29.8280   51.9810 C   0  0  0  0  0  0  0  0  0  0  0  0
   52.6770   30.9170   51.4160 C   0  0  0  0  0  0  0  0  0  0  0  0
   53.9860   31.2170   51.8090 C   0  0  0  0  0  0  0  0  0  0  0  0
   57.3600   31.5120   51.3130 C   0  0  0  0  0  0  0  0  0  0  0  0
   58.4780   31.2000   50.2990 C   0  0  0  0  0  0  0  0  0  0  0  0
   59.9400   29.6960   46.7910 N   0  0  0  0  0  0  0  0  0  0  0  0
   60.7790   30.9100   46.7760 C   0  0  0  0  0  0  0  0  0  0  0  0
   59.9510   32.1720   46.7470 C   0  0  0  0  0  0  0  0  0  0  0  0
   60.5800   33.4220   46.6190 C   0  0  0  0  0  0  0  0  0  0  0  0
   59.8190   34.5930   46.5610 C   0  0  0  0  0  0  0  0  0  0  0  0
   58.4230   34.5260   46.6110 C   0  0  0  0  0  0  0  0  0  0  0  0
   57.7870   33.2870   46.7310 C   0  0  0  0  0  0  0  0  0  0  0  0
   58.5450   32.1140   46.7940 C   0  0  0  0  0  0  0  0  0  0  0  0
   59.9292   30.4765   44.2569 H   0  0  0  0  0  0  0  0  0  0  0  0
   58.6875   29.1338   43.7227 H   0  0  0  0  0  0  0  0  0  0  0  0
   57.9086   27.1144   44.4161 H   0  0  0  0  0  0  0  0  0  0  0  0
   58.2212   27.2885   48.2690 H   0  0  0  0  0  0  0  0  0  0  0  0
   57.9360   29.2520   49.9310 H   0  0  0  0  0  0  0  0  0  0  0  0
   59.1672   28.1405   51.5511 H   0  0  0  0  0  0  0  0  0  0  0  0
   60.1743   29.6276   51.8272 H   0  0  0  0  0  0  0  0  0  0  0  0
   57.9075   28.8433   53.2975 H   0  0  0  0  0  0  0  0  0  0  0  0
   58.7170   30.4630   53.3034 H   0  0  0  0  0  0  0  0  0  0  0  0
   56.2855   30.1529   54.0969 H   0  0  0  0  0  0  0  0  0  0  0  0
   56.1494   31.7975   53.3698 H   0  0  0  0  0  0  0  0  0  0  0  0
   54.4389   28.7313   54.1210 H   0  0  0  0  0  0  0  0  0  0  0  0
   52.1161   28.1846   53.3929 H   0  0  0  0  0  0  0  0  0  0  0  0
   50.9827   29.5889   51.6654 H   0  0  0  0  0  0  0  0  0  0  0  0
   52.1735   31.5393   50.6615 H   0  0  0  0  0  0  0  0  0  0  0  0
   54.5084   32.0772   51.3649 H   0  0  0  0  0  0  0  0  0  0  0  0
   56.4717   31.8608   50.7659 H   0  0  0  0  0  0  0  0  0  0  0  0
   57.7324   32.2846   52.0018 H   0  0  0  0  0  0  0  0  0  0  0  0
   58.1510   31.5234   49.2998 H   0  0  0  0  0  0  0  0  0  0  0  0
   59.3832   31.7385   50.6162 H   0  0  0  0  0  0  0  0  0  0  0  0
   61.4069   30.9184   47.6791 H   0  0  0  0  0  0  0  0  0  0  0  0
   61.3928   30.8864   45.8635 H   0  0  0  0  0  0  0  0  0  0  0  0
   61.6771   33.4793   46.5641 H   0  0  0  0  0  0  0  0  0  0  0  0
   60.3191   35.5691   46.4759 H   0  0  0  0  0  0  0  0  0  0  0  0
   57.8256   35.4480   46.5559 H   0  0  0  0  0  0  0  0  0  0  0  0
   56.6892   33.2349   46.7759 H   0  0  0  0  0  0  0  0  0  0  0  0
   58.0402   31.1405   46.8808 H   0  0  0  0  0  0  0  0  0  0  0  0
  1  2  2  0
  2  3  1  0
  3  4  2  3
  4  5  1  0
  5  6  1  0
  6  7  1  0
  7  8  2  0
  7  9  1  0
  9 10  1  0
 10 11  1  0
  3 12  1  0
 12 13  2  0
 13 14  1  0
 14 15  2  0
 14 16  1  0
 16 17  1  0
 17 18  1  0
 18 19  1  0
 19 20  1  0
 20 21  1  0
 21 22  2  0
 22 23  1  0
 23 24  2  0
 24 25  1  0
 25 26  2  0
 19 27  1  0
 27 28  1  0
 13 29  1  0
 29 30  1  0
 30 31  1  0
 31 32  2  0
 32 33  1  0
 33 34  2  0
 34 35  1  0
 35 36  2  0
 29  2  1  0
 36 31  1  0
 10  5  2  0
 28 16  1  0
 26 21  1  0
  1 37  1  0
  1 38  1  0
  4 39  1  0
 12 40  1  0
 16 41  1  0
 17 42  1  0
 17 43  1  0
 18 44  1  0
 18 45  1  0
 20 46  1  0
 20 47  1  0
 22 48  1  0
 23 49  1  0
 24 50  1  0
 25 51  1  0
 26 52  1  0
 27 53  1  0
 27 54  1  0
 28 55  1  0
 28 56  1  0
 30 57  1  0
 30 58  1  0
 32 59  1  0
 33 60  1  0
 34 61  1  0
 35 62  1  0
 36 63  1  0
M  CHG  4   6  -1   9  -1  11  -1  16   1
M  END
>  <UniqueID>  (2) 
2

>  <SMILES>  (2) 
C=c1c(=Cc2[n-]c(=O)[n-]c2[O-])cc(C(=O)[NH+]2CCN(Cc3ccccc3)CC2)n1Cc1ccccc1

>  <Energy>  (2) 
156.1750969055194

>  <Genealogy>  (2) 
C=c1c(=Cc2[n-]c(=O)[n-]c2[O-])cc(C(=O)[NH+]2CCN(Cc3ccccc3)CC2)n1Cc1ccccc1 (protonated)
C=c1c(=Cc2[n-]c(=O)[n-]c2[O-])cc(C(=O)[NH+]2CCN(Cc3ccccc3)CC2)n1Cc1ccccc1 (3D coordinates assigned)
C=c1c(=Cc2[n-]c(=O)[n-]c2[O-])cc(C(=O)[NH+]2CCN(Cc3ccccc3)CC2)n1Cc1ccccc1 (nonaromatic ring conformer: 156.1750969055194 kcal/mol)

>  <smiles>  (2) 
C=c1c(=Cc2[nH]c(=O)[nH]c2O)cc(C(=O)N2CCN(Cc3ccccc3)CC2)n1Cc1ccccc1

>  <score_type>  (2) 
oracle

>  <origin>  (2) 
adg

>  <m_score__min__energy>  (2) 
-17.530000000000001

>  <m_primary>  (2) 
energy

$$$$
2:0
     RDKit          3D

 36 38  0  0  0  0  0  0  0  0999 V2000
   60.6813   30.0623   44.5960 H   0  0  0  0  0  0  0  0  0  0  0  0
   59.9250   29.3050   44.8500 C   0  0  0  0  0  0  0  0  0  0  0  0
   59.4523   28.7112   44.0538 H   0  0  0  0  0  0  0  0  0  0  0  0
   59.5780   29.1050   46.1350 C   0  0  0  0  0  0  0  0  0  0  0  0
   58.6310   28.1740   46.5890 C   0  0  0  0  0  0  0  0  0  0  0  0
   57.8790   27.3440   45.8330 C   0  0  0  0  0  0  0  0  0  0  0  0
   57.7134   27.6310   44.7841 H   0  0  0  0  0  0  0  0  0  0  0  0
   57.2590   26.0820   46.2950 C   0  0  0  0  0  0  0  0  0  0  0  0
   57.9170   24.9740   46.6860 N   0  0  0  0  0  0  0  0  0  0  0  0
   56.9270   24.0980   46.9580 C   0  0  0  0  0  0  0  0  0  0  0  0
   57.1510   22.9280   47.3640 O   0  0  0  0  0  0  0  0  0  0  0  0
   55.6790   24.5710   46.7550 N   0  0  0  0  0  0  0  0  0  0  0  0
   55.9080   25.8240   46.3320 C   0  0  0  0  0  0  0  0  0  0  0  0
   54.9010   26.7150   45.9830 O   0  0  0  0  0  0  0  0  0  0  0  0
   58.6010   28.3000   47.9710 C   0  0  0  0  0  0  0  0  0  0  0  0
   57.9666   27.7319   48.6673 H   0  0  0  0  0  0  0  0  0  0  0  0
   59.5190   29.2740   48.3040 C   0  0  0  0  0  0  0  0  0  0  0  0
   59.7620   29.7470   49.7050 C   0  0  0  0  0  0  0  0  0  0  0  0
   59.3784   29.0003   50.4158 H   0  0  0  0  0  0  0  0  0  0  0  0
   60.8419   29.8835   49.8638 H   0  0  0  0  0  0  0  0  0  0  0  0
   59.2441   30.7044   49.8638 H   0  0  0  0  0  0  0  0  0  0  0  0
   60.1080   29.7790   47.1940 N   0  0  0  0  0  0  0  0  0  0  0  0
   61.1230   30.8490   47.1880 C   0  0  0  0  0  0  0  0  0  0  0  0
   61.7342   30.7695   48.0991 H   0  0  0  0  0  0  0  0  0  0  0  0
   61.7490   30.7318   46.2911 H   0  0  0  0  0  0  0  0  0  0  0  0
   60.4750   32.2130   47.1460 C   0  0  0  0  0  0  0  0  0  0  0  0
   59.4440   32.4710   46.2240 C   0  0  0  0  0  0  0  0  0  0  0  0
   59.1081   31.6742   45.5441 H   0  0  0  0  0  0  0  0  0  0  0  0
   58.8430   33.7320   46.1650 C   0  0  0  0  0  0  0  0  0  0  0  0
   57.4560   34.0700   44.8980 Br  0  0  0  0  0  0  0  0  0  0  0  0
   59.2600   34.7450   47.0320 C   0  0  0  0  0  0  0  0  0  0  0  0
   58.7893   35.7380   46.9837 H   0  0  0  0  0  0  0  0  0  0  0  0
   60.2740   34.4980   47.9600 C   0  0  0  0  0  0  0  0  0  0  0  0
   60.5974   35.2969   48.6435 H   0  0  0  0  0  0  0  0  0  0  0  0
   60.8800   33.2390   48.0240 C   0  0  0  0  0  0  0  0  0  0  0  0
   61.8790   33.0170   48.9640 O   0  0  0  0  0  0  0  0  0  0  0  0
  1  2  1  0
  2  3  1  0
  2  4  2  0
  4  5  1  0
  5  6  2  0
  6  7  1  0
  6  8  1  0
  8  9  1  0
  9 10  1  0
 10 11  2  0
 10 12  1  0
 12 13  1  0
 13 14  1  0
  5 15  1  0
 15 16  1  0
 15 17  2  0
 17 18  1  0
 18 19  1  0
 18 20  1  0
 18 21  1  0
 17 22  1  0
 22 23  1  0
 23 24  1  0
 23 25  1  0
 23 26  1  0
 26 27  2  0
 27 28  1  0
 27 29  1  0
 29 30  1  0
 29 31  2  0
 31 32  1  0
 31 33  1  0
 33 34  1  0
 33 35  2  0
 35 36  1  0
 22  4  1  0
 35 26  1  0
 13  8  2  0
M  CHG  4   9  -1  12  -1  14  -1  36  -1
M  END
>  <UniqueID>  (3) 
3

>  <SMILES>  (3) 
C=c1/c(=C/c2[n-]c(=O)[n-]c2[O-])cc(C)n1Cc1cc(Br)ccc1[O-]

>  <Energy>  (3) 
101.6159637639331

>  <Genealogy>  (3) 
C=c1c(=Cc2[n-]c(=O)[n-]c2[O-])cc(C)n1Cc1cc(Br)ccc1[O-] (protonated)
C=c1/c(=C/c2[n-]c(=O)[n-]c2[O-])cc(C)n1Cc1cc(Br)ccc1[O-] (cis-trans isomerization)
C=c1/c(=C/c2[n-]c(=O)[n-]c2[O-])cc(C)n1Cc1cc(Br)ccc1[O-] (3D coordinates assigned)
C=c1/c(=C/c2[n-]c(=O)[n-]c2[O-])cc(C)n1Cc1cc(Br)ccc1[O-] (optimized conformer: 101.6159637639331 kcal/mol)

>  <smiles>  (3) 
C=c1c(=Cc2[nH]c(=O)[nH]c2O)cc(C)n1Cc1cc(Br)ccc1O

>  <score_type>  (3) 
oracle

>  <origin>  (3) 
adg

>  <m_score__min__energy>  (3) 
-16.190000000000001

>  <m_primary>  (3) 
energy

$$$$
3:0
     RDKit          3D

 41 43  0  0  0  0  0  0  0  0999 V2000
   57.3840   33.7900   44.1520 O   0  0  0  0  0  0  0  0  0  0  0  0
   57.7760   32.5920   44.1340 C   0  0  0  0  0  0  0  0  0  0  0  0
   57.4420   31.7320   42.9530 C   0  0  0  0  0  0  0  0  0  0  0  0
   56.2660   30.4130   43.4210 S   0  0  0  0  0  0  0  0  0  0  0  0
   57.4140   29.5770   44.5110 C   0  0  0  0  0  0  0  0  0  0  0  0
   58.6350   29.1490   44.1410 N   0  0  0  0  0  0  0  0  0  0  0  0
   59.1620   28.5780   45.2130 N   0  0  0  0  0  0  0  0  0  0  0  0
   58.2420   28.6790   46.1930 C   0  0  0  0  0  0  0  0  0  0  0  0
   58.4400   28.1610   47.5590 C   0  0  0  0  0  0  0  0  0  0  0  0
   58.2650   26.9330   47.7680 O   0  0  0  0  0  0  0  0  0  0  0  0
   58.8110   28.9970   48.6650 N   0  0  0  0  0  0  0  0  0  0  0  0
   60.0790   28.9860   49.3880 C   0  0  0  0  0  0  0  0  0  0  0  0
   60.9930   30.0860   48.9120 C   0  0  0  0  0  0  0  0  0  0  0  0
   61.6540   30.9140   49.8360 C   0  0  0  0  0  0  0  0  0  0  0  0
   62.4820   31.9490   49.3900 C   0  0  0  0  0  0  0  0  0  0  0  0
   62.6430   32.1770   48.0210 C   0  0  0  0  0  0  0  0  0  0  0  0
   63.6860   33.4730   47.4640 Cl  0  0  0  0  0  0  0  0  0  0  0  0
   61.9690   31.3750   47.0950 C   0  0  0  0  0  0  0  0  0  0  0  0
   61.1390   30.3400   47.5380 C   0  0  0  0  0  0  0  0  0  0  0  0
   57.1670   29.2940   45.7650 O   0  0  0  0  0  0  0  0  0  0  0  0
   58.4610   32.0260   45.2640 N   0  0  0  0  0  0  0  0  0  0  0  0
   58.8630   32.7810   46.4170 C   0  0  0  0  0  0  0  0  0  0  0  0
   59.6510   33.9390   46.2970 C   0  0  0  0  0  0  0  0  0  0  0  0
   60.0500   34.6410   47.4400 C   0  0  0  0  0  0  0  0  0  0  0  0
   59.6730   34.1900   48.7070 C   0  0  0  0  0  0  0  0  0  0  0  0
   58.9070   33.0280   48.8350 C   0  0  0  0  0  0  0  0  0  0  0  0
   58.5110   32.3210   47.6970 C   0  0  0  0  0  0  0  0  0  0  0  0
   56.9896   32.3566   42.1687 H   0  0  0  0  0  0  0  0  0  0  0  0
   58.3672   31.2646   42.5848 H   0  0  0  0  0  0  0  0  0  0  0  0
   59.8804   29.1249   50.4610 H   0  0  0  0  0  0  0  0  0  0  0  0
   60.5739   28.0209   49.2044 H   0  0  0  0  0  0  0  0  0  0  0  0
   61.5193   30.7470   50.9149 H   0  0  0  0  0  0  0  0  0  0  0  0
   63.0073   32.5845   50.1181 H   0  0  0  0  0  0  0  0  0  0  0  0
   62.0916   31.5581   46.0173 H   0  0  0  0  0  0  0  0  0  0  0  0
   60.5977   29.7217   46.8068 H   0  0  0  0  0  0  0  0  0  0  0  0
   58.5720   30.9870   45.2980 H   0  0  0  0  0  0  0  0  0  0  0  0
   59.9550   34.2945   45.3014 H   0  0  0  0  0  0  0  0  0  0  0  0
   60.6617   35.5498   47.3404 H   0  0  0  0  0  0  0  0  0  0  0  0
   59.9788   34.7491   49.6036 H   0  0  0  0  0  0  0  0  0  0  0  0
   58.6155   32.6696   49.8333 H   0  0  0  0  0  0  0  0  0  0  0  0
   57.9204   31.3992   47.8037 H   0  0  0  0  0  0  0  0  0  0  0  0
  1  2  2  0
  2  3  1  0
  3  4  1  0
  4  5  1  0
  5  6  2  0
  6  7  1  0
  7  8  2  0
  8  9  1  0
  9 10  2  0
  9 11  1  0
 11 12  1  0
 12 13  1  0
 13 14  2  0
 14 15  1  0
 15 16  2  0
 16 17  1  0
 16 18  1  0
 18 19  2  0
  8 20  1  0
  2 21  1  0
 21 22  1  0
 22 23  2  0
 23 24  1  0
 24 25  2  0
 25 26  1  0
 26 27  2  0
 20  5  1  0
 27 22  1  0
 19 13  1  0
  3 28  1  0
  3 29  1  0
 12 30  1  0
 12 31  1  0
 14 32  1  0
 15 33  1  0
 18 34  1  0
 19 35  1  0
 21 36  1  0
 23 37  1  0
 24 38  1  0
 25 39  1  0
 26 40  1  0
 27 41  1  0
M  CHG  1  11  -1
M  END
>  <UniqueID>  (4) 
4

>  <SMILES>  (4) 
O=C(CSc1nnc(C(=O)[N-]Cc2ccc(Cl)cc2)o1)Nc1ccccc1

>  <Energy>  (4) 
73.70450299406141

>  <Genealogy>  (4) 
O=C(CSc1nnc(C(=O)[N-]Cc2ccc(Cl)cc2)o1)Nc1ccccc1 (protonated)
O=C(CSc1nnc(C(=O)[N-]Cc2ccc(Cl)cc2)o1)Nc1ccccc1 (3D coordinates assigned)
O=C(CSc1nnc(C(=O)[N-]Cc2ccc(Cl)cc2)o1)Nc1ccccc1 (optimized conformer: 73.70450299406141 kcal/mol)

>  <smiles>  (4) 
O=C(CSc1nnc(C(=O)NCc2ccc(Cl)cc2)o1)Nc1ccccc1

>  <score_type>  (4) 
oracle

>  <origin>  (4) 
adg

>  <m_score__min__energy>  (4) 
-10.26

>  <m_primary>  (4) 
energy

$$$$
4:0
     RDKit          3D

 55 58  0  0  0  0  0  0  0  0999 V2000
   59.6499   28.4882   48.0157 H   0  0  0  0  0  0  0  0  0  0  0  0
   59.4870   29.5740   47.9490 C   0  0  0  0  0  0  0  0  0  0  0  0
   59.8086   30.2300   48.7713 H   0  0  0  0  0  0  0  0  0  0  0  0
   58.8940   30.1000   46.8610 C   0  0  0  0  0  0  0  0  0  0  0  0
   58.5680   29.3300   45.7010 C   0  0  0  0  0  0  0  0  0  0  0  0
   58.4770   27.9760   45.6500 C   0  0  0  0  0  0  0  0  0  0  0  0
   59.3861   27.4289   45.3597 H   0  0  0  0  0  0  0  0  0  0  0  0
   57.2810   27.1670   45.9450 C   0  0  0  0  0  0  0  0  0  0  0  0
   57.3350   25.9250   46.4570 N   0  0  0  0  0  0  0  0  0  0  0  0
   56.0410   25.5350   46.4710 C   0  0  0  0  0  0  0  0  0  0  0  0
   55.6780   24.4110   46.9030 O   0  0  0  0  0  0  0  0  0  0  0  0
   55.1710   26.4410   45.9760 N   0  0  0  0  0  0  0  0  0  0  0  0
   55.9710   27.4630   45.6350 C   0  0  0  0  0  0  0  0  0  0  0  0
   55.5180   28.6260   45.0230 O   0  0  0  0  0  0  0  0  0  0  0  0
   58.2920   30.0320   44.5130 C   0  0  0  0  0  0  0  0  0  0  0  0
   58.1361   29.4689   43.5810 H   0  0  0  0  0  0  0  0  0  0  0  0
   58.2110   31.4290   44.4880 C   0  0  0  0  0  0  0  0  0  0  0  0
   57.8750   32.1180   43.1850 C   0  0  0  0  0  0  0  0  0  0  0  0
   57.3403   33.0548   43.4006 H   0  0  0  0  0  0  0  0  0  0  0  0
   58.8112   32.3247   42.6457 H   0  0  0  0  0  0  0  0  0  0  0  0
   56.9950   31.2310   42.3100 C   0  0  0  0  0  0  0  0  0  0  0  0
   56.3645   30.5955   42.9492 H   0  0  0  0  0  0  0  0  0  0  0  0
   56.3554   31.8615   41.6749 H   0  0  0  0  0  0  0  0  0  0  0  0
   57.6306   30.5964   41.6749 H   0  0  0  0  0  0  0  0  0  0  0  0
   58.4040   32.1370   45.6890 C   0  0  0  0  0  0  0  0  0  0  0  0
   58.3080   33.6180   45.7260 C   0  0  0  0  0  0  0  0  0  0  0  0
   57.5639   34.1034   45.0773 H   0  0  0  0  0  0  0  0  0  0  0  0
   59.0730   34.4010   46.5020 C   0  0  0  0  0  0  0  0  0  0  0  0
   58.7353   35.4312   46.6883 H   0  0  0  0  0  0  0  0  0  0  0  0
   60.3420   33.9640   47.1220 C   0  0  0  0  0  0  0  0  0  0  0  0
   60.3490   33.5610   48.4650 C   0  0  0  0  0  0  0  0  0  0  0  0
   59.4301   33.6372   49.0649 H   0  0  0  0  0  0  0  0  0  0  0  0
   61.5190   33.0630   49.0440 C   0  0  0  0  0  0  0  0  0  0  0  0
   61.5109   32.7278   50.0917 H   0  0  0  0  0  0  0  0  0  0  0  0
   62.7040   32.9880   48.2970 C   0  0  0  0  0  0  0  0  0  0  0  0
   63.9320   32.3570   48.8910 C   0  0  0  0  0  0  0  0  0  0  0  0
   63.6823   31.3520   49.2619 H   0  0  0  0  0  0  0  0  0  0  0  0
   64.7118   32.2858   48.1184 H   0  0  0  0  0  0  0  0  0  0  0  0
   64.4270   33.1750   50.0010 N   0  0  0  0  0  0  0  0  0  0  0  0
   65.5740   33.0320   50.7050 C   0  0  0  0  0  0  0  0  0  0  0  0
   66.6130   31.9900   50.4410 C   0  0  0  0  0  0  0  0  0  0  0  0
   66.9971   31.6048   51.3970 H   0  0  0  0  0  0  0  0  0  0  0  0
   66.1672   31.1651   49.8659 H   0  0  0  0  0  0  0  0  0  0  0  0
   67.4392   32.4334   49.8659 H   0  0  0  0  0  0  0  0  0  0  0  0
   65.6580   33.8990   51.7370 N   0  0  0  0  0  0  0  0  0  0  0  0
   64.5170   34.6130   51.6670 C   0  0  0  0  0  0  0  0  0  0  0  0
   64.2365   35.4280   52.3504 H   0  0  0  0  0  0  0  0  0  0  0  0
   63.7560   34.1670   50.6100 C   0  0  0  0  0  0  0  0  0  0  0  0
   62.7699   34.5553   50.3153 H   0  0  0  0  0  0  0  0  0  0  0  0
   62.7100   33.4420   46.9690 C   0  0  0  0  0  0  0  0  0  0  0  0
   63.6408   33.4109   46.3836 H   0  0  0  0  0  0  0  0  0  0  0  0
   61.5390   33.9330   46.3880 C   0  0  0  0  0  0  0  0  0  0  0  0
   61.5541   34.2973   45.3502 H   0  0  0  0  0  0  0  0  0  0  0  0
   58.7160   31.4560   46.8300 N   0  0  0  0  0  0  0  0  0  0  0  0
   58.8640   32.0080   47.7070 H   0  0  0  0  0  0  0  0  0  0  0  0
  1  2  1  0
  2  3  1  0
  2  4  2  0
  4  5  1  0
  5  6  2  0
  6  7  1  0
  6  8  1  0
  8  9  1  0
  9 10  1  0
 10 11  2  0
 10 12  1  0
 12 13  1  0
 13 14  1  0
  5 15  1  0
 15 16  1  0
 15 17  2  0
 17 18  1  0
 18 19  1  0
 18 20  1  0
 18 21  1  0
 21 22  1  0
 21 23  1  0
 21 24  1  0
 17 25  1  0
 25 26  1  0
 26 27  1  0
 26 28  2  0
 28 29  1  0
 28 30  1  0
 30 31  2  0
 31 32  1  0
 31 33  1  0
 33 34  1  0
 33 35  2  0
 35 36  1  0
 36 37  1  0
 36 38  1  0
 36 39  1  0
 39 40  1  0
 40 41  1  0
 41 42  1  0
 41 43  1  0
 41 44  1  0
 40 45  2  0
 45 46  1  0
 46 47  1  0
 46 48  2  0
 48 49  1  0
 35 50  1  0
 50 51  1  0
 50 52  2  0
 52 53  1  0
 25 54  2  0
 54 55  1  0
 54  4  1  0
 13  8  2  0
 52 30  1  0
 48 39  1  0
M  CHG  4   9  -1  12  -1  14  -1  54   1
M  END
>  <UniqueID>  (5) 
5

>  <SMILES>  (5) 
C=c1[nH+]c(/C=C\c2ccc(Cn3ccnc3C)cc2)c(CC)c/c1=C/c1[n-]c(=O)[n-]c1[O-]

>  <Energy>  (5) 
141.74785380926497

>  <Genealogy>  (5) 
C=c1[nH+]c(C=Cc2ccc(Cn3ccnc3C)cc2)c(CC)cc1=Cc1[n-]c(=O)[n-]c1[O-] (protonated)
C=c1[nH+]c(/C=C\c2ccc(Cn3ccnc3C)cc2)c(CC)c/c1=C/c1[n-]c(=O)[n-]c1[O-] (cis-trans isomerization)
C=c1[nH+]c(/C=C\c2ccc(Cn3ccnc3C)cc2)c(CC)c/c1=C/c1[n-]c(=O)[n-]c1[O-] (3D coordinates assigned)
C=c1[nH+]c(/C=C\c2ccc(Cn3ccnc3C)cc2)c(CC)c/c1=C/c1[n-]c(=O)[n-]c1[O-] (optimized conformer: 141.74785380926497 kcal/mol)

>  <smiles>  (5) 
C=c1nc(C=Cc2ccc(Cn3ccnc3C)cc2)c(CC)cc1=Cc1[nH]c(=O)[nH]c1O

>  <score_type>  (5) 
oracle

>  <origin>  (5) 
adg

>  <m_score__min__energy>  (5) 
-16.82

>  <m_primary>  (5) 
energy

$$$$
5:0
     RDKit          3D

 52 55  0  0  0  0  0  0  0  0999 V2000
   54.7760   27.0770   46.4170 H   0  0  0  0  0  0  0  0  0  0  0  0
   54.7600   26.2640   45.7630 N   0  0  0  0  0  0  0  0  0  0  0  0
   55.4790   25.0700   46.0590 C   0  0  0  0  0  0  0  0  0  0  0  0
   55.1500   24.3700   47.0520 O   0  0  0  0  0  0  0  0  0  0  0  0
   56.6010   24.6580   45.2120 C   0  0  0  0  0  0  0  0  0  0  0  0
   56.7550   23.8340   44.1310 C   0  0  0  0  0  0  0  0  0  0  0  0
   55.8630   22.9450   43.3260 C   0  0  0  0  0  0  0  0  0  0  0  0
   55.4528   23.5165   42.4803 H   0  0  0  0  0  0  0  0  0  0  0  0
   55.0512   22.5817   43.9733 H   0  0  0  0  0  0  0  0  0  0  0  0
   56.6340   21.7440   42.7900 C   0  0  0  0  0  0  0  0  0  0  0  0
   57.0164   21.1483   43.6320 H   0  0  0  0  0  0  0  0  0  0  0  0
   55.9651   21.1234   42.1756 H   0  0  0  0  0  0  0  0  0  0  0  0
   57.4768   22.0938   42.1756 H   0  0  0  0  0  0  0  0  0  0  0  0
   58.0750   24.0960   44.1430 N   0  0  0  0  0  0  0  0  0  0  0  0
   57.9220   24.9280   45.1700 N   0  0  0  0  0  0  0  0  0  0  0  0
   58.8390   25.7260   45.9740 C   0  0  0  0  0  0  0  0  0  0  0  0
   58.6095   25.5823   47.0402 H   0  0  0  0  0  0  0  0  0  0  0  0
   59.8719   25.4069   45.7707 H   0  0  0  0  0  0  0  0  0  0  0  0
   58.6900   27.1900   45.6210 C   0  0  0  0  0  0  0  0  0  0  0  0
   59.8530   27.8550   45.2310 C   0  0  0  0  0  0  0  0  0  0  0  0
   60.7649   27.2402   45.2094 H   0  0  0  0  0  0  0  0  0  0  0  0
   60.0200   29.1820   44.8670 C   0  0  0  0  0  0  0  0  0  0  0  0
   61.0464   29.4690   44.5947 H   0  0  0  0  0  0  0  0  0  0  0  0
   59.0800   30.2020   44.7960 C   0  0  0  0  0  0  0  0  0  0  0  0
   59.4706   31.1713   44.4527 H   0  0  0  0  0  0  0  0  0  0  0  0
   57.7160   30.1870   45.0930 C   0  0  0  0  0  0  0  0  0  0  0  0
   57.1060   31.3350   44.9340 N   0  0  0  0  0  0  0  0  0  0  0  0
   57.6250   32.5530   44.3160 C   0  0  0  0  0  0  0  0  0  0  0  0
   58.2577   32.2867   43.4565 H   0  0  0  0  0  0  0  0  0  0  0  0
   56.7853   33.1766   43.9753 H   0  0  0  0  0  0  0  0  0  0  0  0
   58.4360   33.3140   45.3140 C   0  0  0  0  0  0  0  0  0  0  0  0
   59.6190   32.9060   45.8150 N   0  0  0  0  0  0  0  0  0  0  0  0
   60.0400   33.8810   46.6090 N   0  0  0  0  0  0  0  0  0  0  0  0
   61.2660   33.8200   47.3640 C   0  0  0  0  0  0  0  0  0  0  0  0
   61.2510   34.0640   48.7500 C   0  0  0  0  0  0  0  0  0  0  0  0
   60.3015   34.3014   49.2521 H   0  0  0  0  0  0  0  0  0  0  0  0
   62.4340   34.0070   49.4940 C   0  0  0  0  0  0  0  0  0  0  0  0
   62.4125   34.2049   50.5758 H   0  0  0  0  0  0  0  0  0  0  0  0
   63.6430   33.6990   48.8650 C   0  0  0  0  0  0  0  0  0  0  0  0
   64.5733   33.6575   49.4505 H   0  0  0  0  0  0  0  0  0  0  0  0
   63.6690   33.4440   47.4930 C   0  0  0  0  0  0  0  0  0  0  0  0
   64.6205   33.1974   46.9991 H   0  0  0  0  0  0  0  0  0  0  0  0
   62.4890   33.5010   46.7440 C   0  0  0  0  0  0  0  0  0  0  0  0
   62.5168   33.2953   45.6638 H   0  0  0  0  0  0  0  0  0  0  0  0
   59.1800   34.8920   46.6260 N   0  0  0  0  0  0  0  0  0  0  0  0
   59.2610   35.7670   47.1880 H   0  0  0  0  0  0  0  0  0  0  0  0
   58.1610   34.5710   45.8110 C   0  0  0  0  0  0  0  0  0  0  0  0
   57.2800   35.1895   45.5845 H   0  0  0  0  0  0  0  0  0  0  0  0
   56.9940   29.0640   45.5370 C   0  0  0  0  0  0  0  0  0  0  0  0
   55.9271   29.2457   45.7337 H   0  0  0  0  0  0  0  0  0  0  0  0
   57.4200   27.7590   45.7660 C   0  0  0  0  0  0  0  0  0  0  0  0
   56.6378   27.0686   46.1147 H   0  0  0  0  0  0  0  0  0  0  0  0
  1  2  1  0
  2  3  1  0
  3  4  2  0
  3  5  1  0
  5  6  2  0
  6  7  1  0
  7  8  1  0
  7  9  1  0
  7 10  1  0
 10 11  1  0
 10 12  1  0
 10 13  1  0
  6 14  1  0
 14 15  1  0
 15 16  1  0
 16 17  1  0
 16 18  1  0
 16 19  1  0
 19 20  2  0
 20 21  1  0
 20 22  1  0
 22 23  1  0
 22 24  2  0
 24 25  1  0
 24 26  1  0
 26 27  2  0
 27 28  1  0
 28 29  1  0
 28 30  1  0
 28 31  1  0
 31 32  2  0
 32 33  1  0
 33 34  1  0
 34 35  2  0
 35 36  1  0
 35 37  1  0
 37 38  1  0
 37 39  2  0
 39 40  1  0
 39 41  1  0
 41 42  1  0
 41 43  2  0
 43 44  1  0
 33 45  1  0
 45 46  1  0
 45 47  2  0
 47 48  1  0
 26 49  1  0
 49 50  1  0
 49 51  2  0
 51 52  1  0
 15  5  1  0
 51 19  1  0
 47 31  1  0
 43 34  1  0
M  CHG  3   2  -1  14  -1  45   1
M  END
>  <UniqueID>  (6) 
6

>  <SMILES>  (6) 
CCc1[n-]n(Cc2ccc/c(=N/Cc3c[nH+]n(-c4ccccc4)n3)cc2)c1C([NH-])=O

>  <Energy>  (6) 
98.33002703263524

>  <Genealogy>  (6) 
CCc1[n-]n(Cc2cccc(=NCc3c[nH+]n(-c4ccccc4)n3)cc2)c1C([NH-])=O (protonated)
CCc1[n-]n(Cc2ccc/c(=N/Cc3c[nH+]n(-c4ccccc4)n3)cc2)c1C([NH-])=O (cis-trans isomerization)
CCc1[n-]n(Cc2ccc/c(=N/Cc3c[nH+]n(-c4ccccc4)n3)cc2)c1C([NH-])=O (3D coordinates assigned)
CCc1[n-]n(Cc2ccc/c(=N/Cc3c[nH+]n(-c4ccccc4)n3)cc2)c1C([NH-])=O (optimized conformer: 98.33002703263524 kcal/mol)

>  <smiles>  (6) 
CCc1[nH]n(Cc2cccc(=NCc3cnn(-c4ccccc4)n3)cc2)c1C(N)=O

>  <score_type>  (6) 
oracle

>  <origin>  (6) 
adg

>  <m_score__min__energy>  (6) 
-12.880000000000001

>  <m_primary>  (6) 
energy

$$$$
6:0
     RDKit          3D

 40 42  0  0  0  0  0  0  0  0999 V2000
   56.8113   28.5451   53.7267 H   0  0  0  0  0  0  0  0  0  0  0  0
   56.7090   29.4290   53.0800 C   0  0  0  0  0  0  0  0  0  0  0  0
   57.7650   30.2160   52.7420 N   0  0  0  0  0  0  0  0  0  0  0  0
   57.3930   31.2460   51.9520 C   0  0  0  0  0  0  0  0  0  0  0  0
   58.2540   32.1160   51.5120 N   0  0  0  0  0  0  0  0  0  0  0  0
   59.4010   31.8760   50.6770 C   0  0  0  0  0  0  0  0  0  0  0  0
   60.5050   32.4370   50.9070 O   0  0  0  0  0  0  0  0  0  0  0  0
   59.3000   30.9780   49.5690 N   0  0  0  0  0  0  0  0  0  0  0  0
   60.1320   31.0710   48.3750 C   0  0  0  0  0  0  0  0  0  0  0  0
   59.9875   30.1693   47.7617 H   0  0  0  0  0  0  0  0  0  0  0  0
   61.1853   31.1563   48.6806 H   0  0  0  0  0  0  0  0  0  0  0  0
   59.7590   32.2850   47.5670 C   0  0  0  0  0  0  0  0  0  0  0  0
   60.7410   33.2050   47.1640 C   0  0  0  0  0  0  0  0  0  0  0  0
   61.7905   33.0488   47.4540 H   0  0  0  0  0  0  0  0  0  0  0  0
   60.3890   34.3180   46.3960 C   0  0  0  0  0  0  0  0  0  0  0  0
   61.1620   35.0355   46.0833 H   0  0  0  0  0  0  0  0  0  0  0  0
   59.0570   34.5220   46.0240 C   0  0  0  0  0  0  0  0  0  0  0  0
   58.7843   35.4004   45.4206 H   0  0  0  0  0  0  0  0  0  0  0  0
   58.0680   33.6100   46.4180 C   0  0  0  0  0  0  0  0  0  0  0  0
   56.7060   33.8170   46.0340 N   0  0  0  0  0  0  0  0  0  0  0  0
   56.4420   33.9130   45.0290 H   0  0  0  0  0  0  0  0  0  0  0  0
   55.9510   33.8750   46.7540 H   0  0  0  0  0  0  0  0  0  0  0  0
   58.4220   32.4940   47.1880 C   0  0  0  0  0  0  0  0  0  0  0  0
   57.6479   31.7765   47.4979 H   0  0  0  0  0  0  0  0  0  0  0  0
   55.7320   31.2260   51.6390 S   0  0  0  0  0  0  0  0  0  0  0  0
   55.4890   29.8290   52.5440 C   0  0  0  0  0  0  0  0  0  0  0  0
   54.1620   29.1930   52.8120 C   0  0  0  0  0  0  0  0  0  0  0  0
   54.0164   28.3495   52.1211 H   0  0  0  0  0  0  0  0  0  0  0  0
   54.1379   28.8332   53.8512 H   0  0  0  0  0  0  0  0  0  0  0  0
   53.0600   30.1960   52.6120 C   0  0  0  0  0  0  0  0  0  0  0  0
   52.6200   30.5160   51.3170 C   0  0  0  0  0  0  0  0  0  0  0  0
   53.1035   30.0526   50.4444 H   0  0  0  0  0  0  0  0  0  0  0  0
   51.5700   31.4210   51.1320 C   0  0  0  0  0  0  0  0  0  0  0  0
   51.1570   31.7270   49.8770 F   0  0  0  0  0  0  0  0  0  0  0  0
   50.9440   32.0040   52.2390 C   0  0  0  0  0  0  0  0  0  0  0  0
   49.9000   32.9030   52.0550 O   0  0  0  0  0  0  0  0  0  0  0  0
   51.3680   31.6800   53.5330 C   0  0  0  0  0  0  0  0  0  0  0  0
   50.7600   32.2370   54.6090 F   0  0  0  0  0  0  0  0  0  0  0  0
   52.4190   30.7750   53.7200 C   0  0  0  0  0  0  0  0  0  0  0  0
   52.7444   30.5160   54.7383 H   0  0  0  0  0  0  0  0  0  0  0  0
  1  2  1  0
  2  3  1  0
  3  4  1  0
  4  5  2  0
  5  6  1  0
  6  7  2  0
  6  8  1  0
  8  9  1  0
  9 10  1  0
  9 11  1  0
  9 12  1  0
 12 13  2  0
 13 14  1  0
 13 15  1  0
 15 16  1  0
 15 17  2  0
 17 18  1  0
 17 19  1  0
 19 20  1  0
 20 21  1  0
 20 22  1  0
 19 23  2  0
 23 24  1  0
  4 25  1  0
 25 26  1  0
 26 27  1  0
 27 28  1  0
 27 29  1  0
 27 30  1  0
 30 31  2  0
 31 32  1  0
 31 33  1  0
 33 34  1  0
 33 35  2  0
 35 36  1  0
 35 37  1  0
 37 38  1  0
 37 39  2  0
 39 40  1  0
 26  2  2  0
 39 30  1  0
 23 12  1  0
M  CHG  3   3  -1   8  -1  36  -1
M  END
>  <UniqueID>  (7) 
7

>  <SMILES>  (7) 
Nc1cccc(C[N-]C(=O)/N=c2/[n-]cc(Cc3cc(F)c([O-])c(F)c3)s2)c1

>  <Energy>  (7) 
70.36145250774798

>  <Genealogy>  (7) 
Nc1cccc(C[N-]C(=O)N=c2[n-]cc(Cc3cc(F)c([O-])c(F)c3)s2)c1 (protonated)
Nc1cccc(C[N-]C(=O)/N=c2/[n-]cc(Cc3cc(F)c([O-])c(F)c3)s2)c1 (cis-trans isomerization)
Nc1cccc(C[N-]C(=O)/N=c2/[n-]cc(Cc3cc(F)c([O-])c(F)c3)s2)c1 (3D coordinates assigned)
Nc1cccc(C[N-]C(=O)/N=c2/[n-]cc(Cc3cc(F)c([O-])c(F)c3)s2)c1 (optimized conformer: 70.36145250774798 kcal/mol)

>  <smiles>  (7) 
Nc1cccc(CNC(=O)N=c2[nH]cc(Cc3cc(F)c(O)c(F)c3)s2)c1

>  <score_type>  (7) 
oracle

>  <origin>  (7) 
adg

>  <m_score__min__energy>  (7) 
-13.039999999999999

>  <m_primary>  (7) 
energy

$$$$
7:0
     RDKit          3D

 30 32  0  0  0  0  0  0  0  0999 V2000
   60.2604   35.9455   45.2435 H   0  0  0  0  0  0  0  0  0  0  0  0
   59.6400   35.1010   45.5780 C   0  0  0  0  0  0  0  0  0  0  0  0
   59.1090   34.1930   44.7900 O   0  0  0  0  0  0  0  0  0  0  0  0
   58.4370   33.3410   45.5290 C   0  0  0  0  0  0  0  0  0  0  0  0
   57.7140   32.1870   44.9890 C   0  0  0  0  0  0  0  0  0  0  0  0
   56.3840   32.0040   45.0960 N   0  0  0  0  0  0  0  0  0  0  0  0
   56.1170   30.8510   44.5010 N   0  0  0  0  0  0  0  0  0  0  0  0
   57.2980   30.3820   44.0580 C   0  0  0  0  0  0  0  0  0  0  0  0
   57.4170   29.2500   43.4310 N   0  0  0  0  0  0  0  0  0  0  0  0
   57.7260   27.9600   43.9870 C   0  0  0  0  0  0  0  0  0  0  0  0
   58.2440   27.0960   43.2320 O   0  0  0  0  0  0  0  0  0  0  0  0
   57.4610   27.5870   45.4250 C   0  0  0  0  0  0  0  0  0  0  0  0
   58.3648   27.7998   46.0148 H   0  0  0  0  0  0  0  0  0  0  0  0
   56.5997   28.1802   45.7659 H   0  0  0  0  0  0  0  0  0  0  0  0
   57.1030   26.1250   45.6000 C   0  0  0  0  0  0  0  0  0  0  0  0
   58.1020   25.1320   45.5640 C   0  0  0  0  0  0  0  0  0  0  0  0
   59.1504   25.4178   45.3930 H   0  0  0  0  0  0  0  0  0  0  0  0
   57.7700   23.7870   45.7440 C   0  0  0  0  0  0  0  0  0  0  0  0
   58.5539   23.0169   45.6941 H   0  0  0  0  0  0  0  0  0  0  0  0
   56.4460   23.4180   45.9870 C   0  0  0  0  0  0  0  0  0  0  0  0
   56.1862   22.3573   46.1186 H   0  0  0  0  0  0  0  0  0  0  0  0
   55.4520   24.3940   46.0630 C   0  0  0  0  0  0  0  0  0  0  0  0
   54.4104   24.1010   46.2613 H   0  0  0  0  0  0  0  0  0  0  0  0
   55.7750   25.7440   45.8880 C   0  0  0  0  0  0  0  0  0  0  0  0
   54.7690   26.6980   46.0050 O   0  0  0  0  0  0  0  0  0  0  0  0
   58.2840   31.1950   44.3480 O   0  0  0  0  0  0  0  0  0  0  0  0
   58.5230   33.6960   46.8600 C   0  0  0  0  0  0  0  0  0  0  0  0
   58.0668   33.1796   47.7174 H   0  0  0  0  0  0  0  0  0  0  0  0
   59.3010   34.8340   46.8890 C   0  0  0  0  0  0  0  0  0  0  0  0
   59.5927   35.4125   47.7779 H   0  0  0  0  0  0  0  0  0  0  0  0
  1  2  1  0
  2  3  1  0
  3  4  1  0
  4  5  1  0
  5  6  2  0
  6  7  1  0
  7  8  1  0
  8  9  2  0
  9 10  1  0
 10 11  2  0
 10 12  1  0
 12 13  1  0
 12 14  1  0
 12 15  1  0
 15 16  2  0
 16 17  1  0
 16 18  1  0
 18 19  1  0
 18 20  2  0
 20 21  1  0
 20 22  1  0
 22 23  1  0
 22 24  2  0
 24 25  1  0
  8 26  1  0
  4 27  2  0
 27 28  1  0
 27 29  1  0
 29 30  1  0
 29  2  2  0
 26  5  1  0
 24 15  1  0
M  CHG  2   7  -1  25  -1
M  END
>  <UniqueID>  (8) 
8

>  <SMILES>  (8) 
O=C(Cc1ccccc1[O-])/N=c1/[n-]nc(-c2ccco2)o1

>  <Energy>  (8) 
95.02061146774646

>  <Genealogy>  (8) 
O=C(Cc1ccccc1[O-])N=c1[n-]nc(-c2ccco2)o1 (protonated)
O=C(Cc1ccccc1[O-])/N=c1/[n-]nc(-c2ccco2)o1 (cis-trans isomerization)
O=C(Cc1ccccc1[O-])/N=c1/[n-]nc(-c2ccco2)o1 (3D coordinates assigned)
O=C(Cc1ccccc1[O-])/N=c1/[n-]nc(-c2ccco2)o1 (optimized conformer: 95.02061146774646 kcal/mol)

>  <smiles>  (8) 
O=C(Cc1ccccc1O)N=c1[nH]nc(-c2ccco2)o1

>  <score_type>  (8) 
oracle

>  <origin>  (8) 
adg

>  <m_score__min__energy>  (8) 
-12.02

>  <m_primary>  (8) 
energy

$$$$
8:0
     RDKit          3D

 58 61  0  0  0  0  0  0  0  0999 V2000
   56.5405   24.1506   42.2515 H   0  0  0  0  0  0  0  0  0  0  0  0
   56.3270   23.3610   42.9870 C   0  0  0  0  0  0  0  0  0  0  0  0
   55.4050   23.5920   44.0120 C   0  0  0  0  0  0  0  0  0  0  0  0
   54.8903   24.5618   44.0797 H   0  0  0  0  0  0  0  0  0  0  0  0
   55.1360   22.5910   44.9520 C   0  0  0  0  0  0  0  0  0  0  0  0
   54.4045   22.7729   45.7532 H   0  0  0  0  0  0  0  0  0  0  0  0
   55.7980   21.3540   44.8750 C   0  0  0  0  0  0  0  0  0  0  0  0
   55.4890   20.2670   45.8700 C   0  0  0  0  0  0  0  0  0  0  0  0
   54.8877   19.4878   45.3787 H   0  0  0  0  0  0  0  0  0  0  0  0
   54.9316   20.7050   46.7111 H   0  0  0  0  0  0  0  0  0  0  0  0
   56.7770   19.6440   46.4050 C   0  0  0  0  0  0  0  0  0  0  0  0
   57.6436   20.1509   45.9554 H   0  0  0  0  0  0  0  0  0  0  0  0
   56.8018   18.5752   46.1462 H   0  0  0  0  0  0  0  0  0  0  0  0
   56.8250   19.7940   47.8570 N   0  0  0  0  0  0  0  0  0  0  0  0
   57.0910   20.9110   48.4640 C   0  0  0  0  0  0  0  0  0  0  0  0
   57.4890   20.9230   49.7640 N   0  0  0  0  0  0  0  0  0  0  0  0
   57.7620   22.1000   50.3860 C   0  0  0  0  0  0  0  0  0  0  0  0
   58.1710   22.1270   51.7220 O   0  0  0  0  0  0  0  0  0  0  0  0
   57.9910   23.2620   52.5590 C   0  0  0  0  0  0  0  0  0  0  0  0
   58.0402   22.9517   53.6132 H   0  0  0  0  0  0  0  0  0  0  0  0
   58.7838   23.9969   52.3557 H   0  0  0  0  0  0  0  0  0  0  0  0
   57.0097   23.7156   52.3557 H   0  0  0  0  0  0  0  0  0  0  0  0
   57.6350   23.2650   49.7030 N   0  0  0  0  0  0  0  0  0  0  0  0
   57.2390   23.2650   48.4010 C   0  0  0  0  0  0  0  0  0  0  0  0
   57.1060   24.5420   47.6570 C   0  0  0  0  0  0  0  0  0  0  0  0
   58.1840   25.4420   47.5800 C   0  0  0  0  0  0  0  0  0  0  0  0
   59.1366   25.1954   48.0717 H   0  0  0  0  0  0  0  0  0  0  0  0
   58.0550   26.6470   46.8840 C   0  0  0  0  0  0  0  0  0  0  0  0
   58.9104   27.3359   46.8234 H   0  0  0  0  0  0  0  0  0  0  0  0
   56.8460   26.9850   46.2630 C   0  0  0  0  0  0  0  0  0  0  0  0
   56.7470   28.2300   45.5520 N   0  0  0  0  0  0  0  0  0  0  0  0
   55.8520   28.7660   45.6150 H   0  0  0  0  0  0  0  0  0  0  0  0
   57.7170   28.6680   44.5920 C   0  0  0  0  0  0  0  0  0  0  0  0
   58.6670   27.9110   44.2550 O   0  0  0  0  0  0  0  0  0  0  0  0
   57.5990   29.9830   44.0330 N   0  0  0  0  0  0  0  0  0  0  0  0
   57.7820   31.2290   44.7210 C   0  0  0  0  0  0  0  0  0  0  0  0
   57.4430   32.4140   44.0600 C   0  0  0  0  0  0  0  0  0  0  0  0
   57.0474   32.3731   43.0344 H   0  0  0  0  0  0  0  0  0  0  0  0
   57.6030   33.6480   44.6920 C   0  0  0  0  0  0  0  0  0  0  0  0
   57.3180   34.5727   44.1689 H   0  0  0  0  0  0  0  0  0  0  0  0
   58.1240   33.7130   45.9870 C   0  0  0  0  0  0  0  0  0  0  0  0
   58.2285   34.6869   46.4876 H   0  0  0  0  0  0  0  0  0  0  0  0
   58.5150   32.5380   46.6520 C   0  0  0  0  0  0  0  0  0  0  0  0
   59.0790   32.5790   48.0510 C   0  0  0  0  0  0  0  0  0  0  0  0
   60.3050   31.9390   48.0820 F   0  0  0  0  0  0  0  0  0  0  0  0
   59.2540   33.8800   48.4920 F   0  0  0  0  0  0  0  0  0  0  0  0
   58.2100   31.9300   48.9100 F   0  0  0  0  0  0  0  0  0  0  0  0
   58.3380   31.2980   46.0130 C   0  0  0  0  0  0  0  0  0  0  0  0
   58.6368   30.3727   46.5274 H   0  0  0  0  0  0  0  0  0  0  0  0
   55.7750   26.0740   46.3030 C   0  0  0  0  0  0  0  0  0  0  0  0
   54.5910   26.3390   45.6240 O   0  0  0  0  0  0  0  0  0  0  0  0
   55.9020   24.8710   47.0070 C   0  0  0  0  0  0  0  0  0  0  0  0
   55.0514   24.1751   47.0527 H   0  0  0  0  0  0  0  0  0  0  0  0
   56.9690   22.0810   47.7890 N   0  0  0  0  0  0  0  0  0  0  0  0
   56.7110   21.1240   43.8330 C   0  0  0  0  0  0  0  0  0  0  0  0
   57.2180   20.1511   43.7536 H   0  0  0  0  0  0  0  0  0  0  0  0
   56.9780   22.1270   42.8960 C   0  0  0  0  0  0  0  0  0  0  0  0
   57.7006   21.9451   42.0869 H   0  0  0  0  0  0  0  0  0  0  0  0
  1  2  1  0
  2  3  2  0
  3  4  1  0
  3  5  1  0
  5  6  1  0
  5  7  2  0
  7  8  1  0
  8  9  1  0
  8 10  1  0
  8 11  1  0
 11 12  1  0
 11 13  1  0
 11 14  1  0
 14 15  2  0
 15 16  1  0
 16 17  2  0
 17 18  1  0
 18 19  1  0
 19 20  1  0
 19 21  1  0
 19 22  1  0
 17 23  1  0
 23 24  2  0
 24 25  1  0
 25 26  2  0
 26 27  1  0
 26 28  1  0
 28 29  1  0
 28 30  2  0
 30 31  1  0
 31 32  1  0
 31 33  1  0
 33 34  2  0
 33 35  1  0
 35 36  1  0
 36 37  2  0
 37 38  1  0
 37 39  1  0
 39 40  1  0
 39 41  2  0
 41 42  1  0
 41 43  1  0
 43 44  1  0
 44 45  1  0
 44 46  1  0
 44 47  1  0
 43 48  2  0
 48 49  1  0
 30 50  1  0
 50 51  1  0
 50 52  2  0
 52 53  1  0
 24 54  1  0
  7 55  1  0
 55 56  1  0
 55 57  2  0
 57 58  1  0
 57  2  1  0
 54 15  1  0
 52 25  1  0
 48 36  1  0
M  CHG  3  35  -1  51  -1  54  -1
M  END
>  <UniqueID>  (9) 
9

>  <SMILES>  (9) 
COc1nc(-c2ccc(NC(=O)[N-]c3cccc(C(F)(F)F)c3)c([O-])c2)[n-]/c(=N/CCc2ccccc2)n1

>  <Energy>  (9) 
67.94114174425953

>  <Genealogy>  (9) 
COc1nc(-c2ccc(NC(=O)[N-]c3cccc(C(F)(F)F)c3)c([O-])c2)[n-]c(=NCCc2ccccc2)n1 (protonated)
COc1nc(-c2ccc(NC(=O)[N-]c3cccc(C(F)(F)F)c3)c([O-])c2)[n-]/c(=N/CCc2ccccc2)n1 (cis-trans isomerization)
COc1nc(-c2ccc(NC(=O)[N-]c3cccc(C(F)(F)F)c3)c([O-])c2)[n-]/c(=N/CCc2ccccc2)n1 (3D coordinates assigned)
COc1nc(-c2ccc(NC(=O)[N-]c3cccc(C(F)(F)F)c3)c([O-])c2)[n-]/c(=N/CCc2ccccc2)n1 (optimized conformer: 67.94114174425953 kcal/mol)

>  <smiles>  (9) 
COc1nc(-c2ccc(NC(=O)Nc3cccc(C(F)(F)F)c3)c(O)c2)[nH]c(=NCCc2ccccc2)n1

>  <score_type>  (9) 
oracle

>  <origin>  (9) 
adg

>  <m_score__min__energy>  (9) 
-14.26

>  <m_primary>  (9) 
energy

$$$$
9:0
     RDKit          3D

 41 43  0  0  0  0  0  0  0  0999 V2000
   57.7570   25.5890   47.4700 C   0  0  0  0  0  0  0  0  0  0  0  0
   57.7300   26.8420   46.7180 N   0  0  0  0  0  0  0  0  0  0  0  0
   58.7970   27.6460   46.7720 N   0  0  0  0  0  0  0  0  0  0  0  0
   58.8550   28.8290   46.1020 C   0  0  0  0  0  0  0  0  0  0  0  0
   60.0640   29.6740   46.2020 C   0  0  0  0  0  0  0  0  0  0  0  0
   61.0760   29.4020   45.4990 O   0  0  0  0  0  0  0  0  0  0  0  0
   60.1050   30.7810   47.1180 N   0  0  0  0  0  0  0  0  0  0  0  0
   61.1980   31.7120   47.1820 C   0  0  0  0  0  0  0  0  0  0  0  0
   62.4750   31.2780   47.5780 C   0  0  0  0  0  0  0  0  0  0  0  0
   63.5570   32.1620   47.5690 C   0  0  0  0  0  0  0  0  0  0  0  0
   63.3790   33.4820   47.1530 C   0  0  0  0  0  0  0  0  0  0  0  0
   62.1170   33.9230   46.7480 C   0  0  0  0  0  0  0  0  0  0  0  0
   61.0200   33.0490   46.7610 C   0  0  0  0  0  0  0  0  0  0  0  0
   59.7270   33.5440   46.3810 N   0  0  0  0  0  0  0  0  0  0  0  0
   59.4750   34.0110   45.0170 C   0  0  0  0  0  0  0  0  0  0  0  0
   58.0380   33.6620   44.6190 C   0  0  0  0  0  0  0  0  0  0  0  0
   57.1210   34.1370   45.5900 O   0  0  0  0  0  0  0  0  0  0  0  0
   57.3220   33.4600   46.8170 C   0  0  0  0  0  0  0  0  0  0  0  0
   58.7030   33.7820   47.3980 C   0  0  0  0  0  0  0  0  0  0  0  0
   57.7550   29.2200   45.3300 C   0  0  0  0  0  0  0  0  0  0  0  0
   56.6380   28.3920   45.2660 C   0  0  0  0  0  0  0  0  0  0  0  0
   56.6360   27.1910   45.9730 C   0  0  0  0  0  0  0  0  0  0  0  0
   55.6260   26.4370   45.9180 O   0  0  0  0  0  0  0  0  0  0  0  0
   57.7523   25.8081   48.5479 H   0  0  0  0  0  0  0  0  0  0  0  0
   56.8716   24.9886   47.2140 H   0  0  0  0  0  0  0  0  0  0  0  0
   58.6675   25.0273   47.2140 H   0  0  0  0  0  0  0  0  0  0  0  0
   59.3420   30.8780   47.8250 H   0  0  0  0  0  0  0  0  0  0  0  0
   62.6234   30.2358   47.8970 H   0  0  0  0  0  0  0  0  0  0  0  0
   64.5508   31.8168   47.8904 H   0  0  0  0  0  0  0  0  0  0  0  0
   64.2328   34.1755   47.1440 H   0  0  0  0  0  0  0  0  0  0  0  0
   61.9825   34.9632   46.4165 H   0  0  0  0  0  0  0  0  0  0  0  0
   59.6146   35.1011   44.9703 H   0  0  0  0  0  0  0  0  0  0  0  0
   60.1774   33.5231   44.3252 H   0  0  0  0  0  0  0  0  0  0  0  0
   57.8091   34.1261   43.6483 H   0  0  0  0  0  0  0  0  0  0  0  0
   57.9454   32.5681   44.5496 H   0  0  0  0  0  0  0  0  0  0  0  0
   56.5478   33.7737   47.5327 H   0  0  0  0  0  0  0  0  0  0  0  0
   57.2603   32.3768   46.6356 H   0  0  0  0  0  0  0  0  0  0  0  0
   58.7332   34.8367   47.7090 H   0  0  0  0  0  0  0  0  0  0  0  0
   58.8940   33.1375   48.2687 H   0  0  0  0  0  0  0  0  0  0  0  0
   57.7730   30.1721   44.7794 H   0  0  0  0  0  0  0  0  0  0  0  0
   55.7651   28.6828   44.6631 H   0  0  0  0  0  0  0  0  0  0  0  0
  1  2  1  0
  2  3  1  0
  3  4  2  0
  4  5  1  0
  5  6  2  0
  5  7  1  0
  7  8  1  0
  8  9  2  0
  9 10  1  0
 10 11  2  0
 11 12  1  0
 12 13  2  0
 13 14  1  0
 14 15  1  0
 15 16  1  0
 16 17  1  0
 17 18  1  0
 18 19  1  0
  4 20  1  0
 20 21  2  0
 21 22  1  0
 22 23  2  0
 22  2  1  0
 13  8  1  0
 19 14  1  0
  1 24  1  0
  1 25  1  0
  1 26  1  0
  7 27  1  0
  9 28  1  0
 10 29  1  0
 11 30  1  0
 12 31  1  0
 15 32  1  0
 15 33  1  0
 16 34  1  0
 16 35  1  0
 18 36  1  0
 18 37  1  0
 19 38  1  0
 19 39  1  0
 20 40  1  0
 21 41  1  0
M  END
>  <UniqueID>  (10) 
10

>  <SMILES>  (10) 
Cn1nc(C(=O)Nc2ccccc2N2CCOCC2)ccc1=O

>  <Energy>  (10) 
53.5735397361037

>  <Genealogy>  (10) 
Cn1nc(C(=O)Nc2ccccc2N2CCOCC2)ccc1=O (3D coordinates assigned)
Cn1nc(C(=O)Nc2ccccc2N2CCOCC2)ccc1=O (nonaromatic ring conformer: 53.5735397361037 kcal/mol)

>  <smiles>  (10) 
Cn1nc(C(=O)Nc2ccccc2N2CCOCC2)ccc1=O

>  <score_type>  (10) 
oracle

>  <origin>  (10) 
adg

>  <m_score__min__energy>  (10) 
-6.8899999999999997

>  <m_primary>  (10) 
energy

$$$$
10:0
     RDKit          3D

 42 44  0  0  0  0  0  0  0  0999 V2000
   56.8168   31.4066   41.0843 H   0  0  0  0  0  0  0  0  0  0  0  0
   57.0450   31.3350   42.1580 C   0  0  0  0  0  0  0  0  0  0  0  0
   57.6600   32.4050   42.8130 C   0  0  0  0  0  0  0  0  0  0  0  0
   57.9156   33.3177   42.2548 H   0  0  0  0  0  0  0  0  0  0  0  0
   57.9510   32.3160   44.1790 C   0  0  0  0  0  0  0  0  0  0  0  0
   58.7330   33.6910   45.0240 S   0  0  0  0  0  0  0  0  0  0  0  0
   58.1760   33.1310   46.6400 C   0  0  0  0  0  0  0  0  0  0  0  0
   57.0090   33.4330   47.0050 O   0  0  0  0  0  0  0  0  0  0  0  0
   59.0280   32.3570   47.5090 N   0  0  0  0  0  0  0  0  0  0  0  0
   60.2870   31.7900   47.0120 C   0  0  0  0  0  0  0  0  0  0  0  0
   60.1615   31.4945   45.9599 H   0  0  0  0  0  0  0  0  0  0  0  0
   61.0795   32.5479   47.0988 H   0  0  0  0  0  0  0  0  0  0  0  0
   60.6800   30.5620   47.8380 C   0  0  0  0  0  0  0  0  0  0  0  0
   59.9678   29.7484   47.6361 H   0  0  0  0  0  0  0  0  0  0  0  0
   61.6985   30.2577   47.5552 H   0  0  0  0  0  0  0  0  0  0  0  0
   60.6630   30.8610   49.2200 O   0  0  0  0  0  0  0  0  0  0  0  0
   59.3390   31.1390   49.6270 C   0  0  0  0  0  0  0  0  0  0  0  0
   58.6902   30.2974   49.3429 H   0  0  0  0  0  0  0  0  0  0  0  0
   59.3278   31.2800   50.7179 H   0  0  0  0  0  0  0  0  0  0  0  0
   58.8220   32.4190   48.9610 C   0  0  0  0  0  0  0  0  0  0  0  0
   57.7478   32.5287   49.1707 H   0  0  0  0  0  0  0  0  0  0  0  0
   59.3747   33.2804   49.3642 H   0  0  0  0  0  0  0  0  0  0  0  0
   57.6440   31.1460   44.8820 C   0  0  0  0  0  0  0  0  0  0  0  0
   57.9046   31.0646   45.9476 H   0  0  0  0  0  0  0  0  0  0  0  0
   57.0060   30.0760   44.2370 C   0  0  0  0  0  0  0  0  0  0  0  0
   56.7070   28.8850   44.9790 N   0  0  0  0  0  0  0  0  0  0  0  0
   55.9160   28.2920   44.6450 H   0  0  0  0  0  0  0  0  0  0  0  0
   57.5540   28.3690   46.0220 C   0  0  0  0  0  0  0  0  0  0  0  0
   58.4540   29.0900   46.5290 O   0  0  0  0  0  0  0  0  0  0  0  0
   57.3610   27.0440   46.5350 N   0  0  0  0  0  0  0  0  0  0  0  0
   56.3520   26.2640   46.2700 C   0  0  0  0  0  0  0  0  0  0  0  0
   55.1520   26.7160   45.9970 O   0  0  0  0  0  0  0  0  0  0  0  0
   54.3210   25.7330   45.8020 N   0  0  0  0  0  0  0  0  0  0  0  0
   55.0240   24.5920   45.9550 C   0  0  0  0  0  0  0  0  0  0  0  0
   54.4290   23.2260   45.8740 C   0  0  0  0  0  0  0  0  0  0  0  0
   54.2603   22.8387   46.8897 H   0  0  0  0  0  0  0  0  0  0  0  0
   53.4706   23.2748   45.3363 H   0  0  0  0  0  0  0  0  0  0  0  0
   55.1175   22.5575   45.3363 H   0  0  0  0  0  0  0  0  0  0  0  0
   56.3360   24.8810   46.2710 C   0  0  0  0  0  0  0  0  0  0  0  0
   57.1632   24.1847   46.4733 H   0  0  0  0  0  0  0  0  0  0  0  0
   56.7190   30.1730   42.8650 C   0  0  0  0  0  0  0  0  0  0  0  0
   56.2363   29.3323   42.3452 H   0  0  0  0  0  0  0  0  0  0  0  0
  1  2  1  0
  2  3  2  0
  3  4  1  0
  3  5  1  0
  5  6  1  0
  6  7  1  0
  7  8  2  0
  7  9  1  0
  9 10  1  0
 10 11  1  0
 10 12  1  0
 10 13  1  0
 13 14  1  0
 13 15  1  0
 13 16  1  0
 16 17  1  0
 17 18  1  0
 17 19  1  0
 17 20  1  0
 20 21  1  0
 20 22  1  0
  5 23  2  0
 23 24  1  0
 23 25  1  0
 25 26  1  0
 26 27  1  0
 26 28  1  0
 28 29  2  0
 28 30  1  0
 30 31  2  0
 31 32  1  0
 32 33  1  0
 33 34  1  0
 34 35  1  0
 35 36  1  0
 35 37  1  0
 35 38  1  0
 34 39  2  0
 39 40  1  0
 25 41  2  0
 41 42  1  0
 41  2  1  0
 20  9  1  0
 39 31  1  0
M  CHG  1  33  -1
M  END
>  <UniqueID>  (11) 
11

>  <SMILES>  (11) 
Cc1c/c(=N\C(=O)Nc2cccc(SC(=O)N3CCOCC3)c2)o[n-]1

>  <Energy>  (11) 
80.78948733819348

>  <Genealogy>  (11) 
Cc1cc(=NC(=O)Nc2cccc(SC(=O)N3CCOCC3)c2)o[n-]1 (protonated)
Cc1c/c(=N\C(=O)Nc2cccc(SC(=O)N3CCOCC3)c2)o[n-]1 (cis-trans isomerization)
Cc1c/c(=N\C(=O)Nc2cccc(SC(=O)N3CCOCC3)c2)o[n-]1 (3D coordinates assigned)
Cc1c/c(=N\C(=O)Nc2cccc(SC(=O)N3CCOCC3)c2)o[n-]1 (nonaromatic ring conformer: 80.78948733819348 kcal/mol)

>  <smiles>  (11) 
Cc1cc(=NC(=O)Nc2cccc(SC(=O)N3CCOCC3)c2)o[nH]1

>  <score_type>  (11) 
oracle

>  <origin>  (11) 
adg

>  <m_score__min__energy>  (11) 
-11.6

>  <m_primary>  (11) 
energy

$$$$
11:0
     RDKit          3D

 48 51  0  0  0  0  0  0  0  0999 V2000
   56.9680   29.2660   43.2560 O   0  0  0  0  0  0  0  0  0  0  0  0
   56.3170   29.6240   44.2750 C   0  0  0  0  0  0  0  0  0  0  0  0
   56.0730   31.0120   44.5480 N   0  0  0  0  0  0  0  0  0  0  0  0
   56.9390   31.9830   44.5620 C   0  0  0  0  0  0  0  0  0  0  0  0
   57.8700   32.1180   43.5920 N   0  0  0  0  0  0  0  0  0  0  0  0
   58.6790   33.1900   43.8110 C   0  0  0  0  0  0  0  0  0  0  0  0
   58.3890   33.9040   44.9640 C   0  0  0  0  0  0  0  0  0  0  0  0
   59.2720   35.3450   45.5520 S   0  0  0  0  0  0  0  0  0  0  0  0
   60.2120   34.3870   46.7400 C   0  0  0  0  0  0  0  0  0  0  0  0
   61.5010   33.9540   46.4240 C   0  0  0  0  0  0  0  0  0  0  0  0
   62.2360   33.2150   47.3510 C   0  0  0  0  0  0  0  0  0  0  0  0
   61.6920   32.9030   48.6020 C   0  0  0  0  0  0  0  0  0  0  0  0
   62.4640   32.1670   49.4940 O   0  0  0  0  0  0  0  0  0  0  0  0
   60.3860   33.3330   48.9370 C   0  0  0  0  0  0  0  0  0  0  0  0
   59.7650   33.0300   50.2540 C   0  0  0  0  0  0  0  0  0  0  0  0
   60.2530   33.5290   51.3060 O   0  0  0  0  0  0  0  0  0  0  0  0
   58.6180   32.1770   50.3490 N   0  0  0  0  0  0  0  0  0  0  0  0
   58.6690   30.7270   50.1940 C   0  0  0  0  0  0  0  0  0  0  0  0
   59.2200   30.3650   48.8430 C   0  0  0  0  0  0  0  0  0  0  0  0
   58.6690   30.9210   47.6800 C   0  0  0  0  0  0  0  0  0  0  0  0
   59.1730   30.5650   46.4280 C   0  0  0  0  0  0  0  0  0  0  0  0
   60.2260   29.6510   46.3500 C   0  0  0  0  0  0  0  0  0  0  0  0
   60.7490   29.1160   47.4850 N   0  0  0  0  0  0  0  0  0  0  0  0
   60.2750   29.4470   48.7160 C   0  0  0  0  0  0  0  0  0  0  0  0
   59.6570   34.0760   47.9850 C   0  0  0  0  0  0  0  0  0  0  0  0
   57.0820   33.1880   45.7410 S   0  0  0  0  0  0  0  0  0  0  0  0
   55.8650   28.6500   45.2210 N   0  0  0  0  0  0  0  0  0  0  0  0
   56.5820   27.4870   45.6640 C   0  0  0  0  0  0  0  0  0  0  0  0
   57.9890   27.4490   45.7000 C   0  0  0  0  0  0  0  0  0  0  0  0
   58.6520   26.2900   46.1150 C   0  0  0  0  0  0  0  0  0  0  0  0
   57.9220   25.1570   46.4820 C   0  0  0  0  0  0  0  0  0  0  0  0
   56.5270   25.1760   46.4210 C   0  0  0  0  0  0  0  0  0  0  0  0
   55.8570   26.3340   46.0090 C   0  0  0  0  0  0  0  0  0  0  0  0
   54.4670   26.3370   45.9500 O   0  0  0  0  0  0  0  0  0  0  0  0
   59.4963   33.4676   43.1291 H   0  0  0  0  0  0  0  0  0  0  0  0
   61.9372   34.1957   45.4436 H   0  0  0  0  0  0  0  0  0  0  0  0
   63.2508   32.8750   47.0968 H   0  0  0  0  0  0  0  0  0  0  0  0
   59.3156   30.3012   50.9754 H   0  0  0  0  0  0  0  0  0  0  0  0
   57.6504   30.3217   50.2850 H   0  0  0  0  0  0  0  0  0  0  0  0
   57.8386   31.6386   47.7542 H   0  0  0  0  0  0  0  0  0  0  0  0
   58.7453   30.9997   45.5125 H   0  0  0  0  0  0  0  0  0  0  0  0
   60.6326   29.3637   45.3691 H   0  0  0  0  0  0  0  0  0  0  0  0
   60.7193   28.9943   49.6147 H   0  0  0  0  0  0  0  0  0  0  0  0
   58.6386   34.4151   48.2253 H   0  0  0  0  0  0  0  0  0  0  0  0
   58.5689   28.3345   45.4005 H   0  0  0  0  0  0  0  0  0  0  0  0
   59.7512   26.2704   46.1526 H   0  0  0  0  0  0  0  0  0  0  0  0
   58.4458   24.2503   46.8189 H   0  0  0  0  0  0  0  0  0  0  0  0
   55.9534   24.2790   46.6973 H   0  0  0  0  0  0  0  0  0  0  0  0
  1  2  2  0
  2  3  1  0
  3  4  2  3
  4  5  1  0
  5  6  1  0
  6  7  2  0
  7  8  1  0
  8  9  1  0
  9 10  2  0
 10 11  1  0
 11 12  2  0
 12 13  1  0
 12 14  1  0
 14 15  1  0
 15 16  2  0
 15 17  1  0
 17 18  1  0
 18 19  1  0
 19 20  2  0
 20 21  1  0
 21 22  2  0
 22 23  1  0
 23 24  2  0
 14 25  2  0
  7 26  1  0
  2 27  1  0
 27 28  1  0
 28 29  2  0
 29 30  1  0
 30 31  2  0
 31 32  1  0
 32 33  2  0
 33 34  1  0
 26  4  1  0
 33 28  1  0
 25  9  1  0
 24 19  1  0
  6 35  1  0
 10 36  1  0
 11 37  1  0
 18 38  1  0
 18 39  1  0
 20 40  1  0
 21 41  1  0
 22 42  1  0
 24 43  1  0
 25 44  1  0
 29 45  1  0
 30 46  1  0
 31 47  1  0
 32 48  1  0
M  CHG  5   5  -1  13  -1  17  -1  27  -1  34  -1
M  END
>  <UniqueID>  (12) 
12

>  <SMILES>  (12) 
O=C(N=c1[n-]cc(Sc2ccc([O-])c(C(=O)[N-]Cc3cccnc3)c2)s1)[N-]c1ccccc1[O-]

>  <Energy>  (12) 
87.73262047423218

>  <Genealogy>  (12) 
O=C(N=c1[n-]cc(Sc2ccc([O-])c(C(=O)[N-]Cc3cccnc3)c2)s1)[N-]c1ccccc1[O-] (protonated)
O=C(N=c1[n-]cc(Sc2ccc([O-])c(C(=O)[N-]Cc3cccnc3)c2)s1)[N-]c1ccccc1[O-] (3D coordinates assigned)
O=C(N=c1[n-]cc(Sc2ccc([O-])c(C(=O)[N-]Cc3cccnc3)c2)s1)[N-]c1ccccc1[O-] (optimized conformer: 87.73262047423218 kcal/mol)

>  <smiles>  (12) 
O=C(N=c1[nH]cc(Sc2ccc(O)c(C(=O)NCc3cccnc3)c2)s1)Nc1ccccc1O

>  <score_type>  (12) 
oracle

>  <origin>  (12) 
adg

>  <m_score__min__energy>  (12) 
-16.93

>  <m_primary>  (12) 
energy

$$$$
12:0
     RDKit          3D

 49 52  0  0  0  0  0  0  0  0999 V2000
   55.1470   29.2440   44.8590 N   0  0  0  0  0  0  0  0  0  0  0  0
   56.3240   30.0500   44.8650 C   0  0  0  0  0  0  0  0  0  0  0  0
   56.2410   31.2580   44.5160 O   0  0  0  0  0  0  0  0  0  0  0  0
   57.6280   29.4770   45.2760 C   0  0  0  0  0  0  0  0  0  0  0  0
   58.3380   28.6250   44.4130 C   0  0  0  0  0  0  0  0  0  0  0  0
   59.5640   28.0840   44.8050 C   0  0  0  0  0  0  0  0  0  0  0  0
   60.1000   28.3890   46.0570 C   0  0  0  0  0  0  0  0  0  0  0  0
   59.4160   29.2480   46.9330 C   0  0  0  0  0  0  0  0  0  0  0  0
   59.9580   29.5600   48.2330 N   0  0  0  0  0  0  0  0  0  0  0  0
   59.2960   29.2960   49.5090 C   0  0  0  0  0  0  0  0  0  0  0  0
   60.3240   29.6570   50.6090 C   0  0  0  0  0  0  0  0  0  0  0  0
   61.5120   30.1280   49.9050 N   0  0  0  0  0  0  0  0  0  0  0  0
   62.6910   30.6410   50.5440 C   0  0  0  0  0  0  0  0  0  0  0  0
   62.8240   30.5140   51.7920 O   0  0  0  0  0  0  0  0  0  0  0  0
   63.7370   31.2510   49.7730 N   0  0  0  0  0  0  0  0  0  0  0  0
   64.7420   32.1010   50.3490 C   0  0  0  0  0  0  0  0  0  0  0  0
   66.0380   31.5980   50.5330 C   0  0  0  0  0  0  0  0  0  0  0  0
   67.0390   32.4000   51.0840 C   0  0  0  0  0  0  0  0  0  0  0  0
   66.7560   33.7160   51.4530 C   0  0  0  0  0  0  0  0  0  0  0  0
   65.4770   34.2390   51.2510 C   0  0  0  0  0  0  0  0  0  0  0  0
   64.4670   33.4480   50.6710 C   0  0  0  0  0  0  0  0  0  0  0  0
   63.1860   33.9700   50.4320 O   0  0  0  0  0  0  0  0  0  0  0  0
   62.4620   33.8400   49.2380 C   0  0  0  0  0  0  0  0  0  0  0  0
   63.1560   33.8340   48.0230 C   0  0  0  0  0  0  0  0  0  0  0  0
   62.4810   33.7270   46.8480 N   0  0  0  0  0  0  0  0  0  0  0  0
   61.1240   33.6350   46.8080 C   0  0  0  0  0  0  0  0  0  0  0  0
   60.3880   33.6560   47.9940 C   0  0  0  0  0  0  0  0  0  0  0  0
   59.0350   33.5810   47.9610 F   0  0  0  0  0  0  0  0  0  0  0  0
   61.0590   33.7650   49.2140 C   0  0  0  0  0  0  0  0  0  0  0  0
   61.2410   30.0880   48.5170 C   0  0  0  0  0  0  0  0  0  0  0  0
   62.0070   30.5700   47.6410 O   0  0  0  0  0  0  0  0  0  0  0  0
   58.1750   29.7790   46.5380 C   0  0  0  0  0  0  0  0  0  0  0  0
   54.4250   29.3420   45.6070 H   0  0  0  0  0  0  0  0  0  0  0  0
   57.9253   28.3828   43.4225 H   0  0  0  0  0  0  0  0  0  0  0  0
   60.1099   27.4144   44.1240 H   0  0  0  0  0  0  0  0  0  0  0  0
   61.0640   27.9541   46.3596 H   0  0  0  0  0  0  0  0  0  0  0  0
   58.3957   29.9201   49.6083 H   0  0  0  0  0  0  0  0  0  0  0  0
   58.9767   28.2462   49.5864 H   0  0  0  0  0  0  0  0  0  0  0  0
   59.9257   30.4490   51.2602 H   0  0  0  0  0  0  0  0  0  0  0  0
   60.5502   28.7926   51.2506 H   0  0  0  0  0  0  0  0  0  0  0  0
   63.8750   30.9230   48.7910 H   0  0  0  0  0  0  0  0  0  0  0  0
   66.2678   30.5627   50.2407 H   0  0  0  0  0  0  0  0  0  0  0  0
   68.0514   31.9945   51.2274 H   0  0  0  0  0  0  0  0  0  0  0  0
   67.5409   34.3415   51.9032 H   0  0  0  0  0  0  0  0  0  0  0  0
   65.2573   35.2754   51.5469 H   0  0  0  0  0  0  0  0  0  0  0  0
   64.2529   33.9163   48.0187 H   0  0  0  0  0  0  0  0  0  0  0  0
   60.6071   33.5441   45.8413 H   0  0  0  0  0  0  0  0  0  0  0  0
   60.4899   33.7921   50.1550 H   0  0  0  0  0  0  0  0  0  0  0  0
   57.6242   30.4392   47.2242 H   0  0  0  0  0  0  0  0  0  0  0  0
  1  2  1  0
  2  3  2  0
  2  4  1  0
  4  5  2  0
  5  6  1  0
  6  7  2  0
  7  8  1  0
  8  9  1  0
  9 10  1  0
 10 11  1  0
 11 12  1  0
 12 13  1  0
 13 14  2  0
 13 15  1  0
 15 16  1  0
 16 17  2  0
 17 18  1  0
 18 19  2  0
 19 20  1  0
 20 21  2  0
 21 22  1  0
 22 23  1  0
 23 24  2  0
 24 25  1  0
 25 26  2  0
 26 27  1  0
 27 28  1  0
 27 29  2  0
 12 30  1  0
 30 31  2  0
  8 32  2  0
 32  4  1  0
 30  9  1  0
 21 16  1  0
 29 23  1  0
  1 33  1  0
  5 34  1  0
  6 35  1  0
  7 36  1  0
 10 37  1  0
 10 38  1  0
 11 39  1  0
 11 40  1  0
 15 41  1  0
 17 42  1  0
 18 43  1  0
 19 44  1  0
 20 45  1  0
 24 46  1  0
 26 47  1  0
 29 48  1  0
 32 49  1  0
M  CHG  1   1  -1
M  END
>  <UniqueID>  (13) 
13

>  <SMILES>  (13) 
[NH-]C(=O)c1cccc(N2CCN(C(=O)Nc3ccccc3Oc3cncc(F)c3)C2=O)c1

>  <Energy>  (13) 
83.67971698555122

>  <Genealogy>  (13) 
[NH-]C(=O)c1cccc(N2CCN(C(=O)Nc3ccccc3Oc3cncc(F)c3)C2=O)c1 (protonated)
[NH-]C(=O)c1cccc(N2CCN(C(=O)Nc3ccccc3Oc3cncc(F)c3)C2=O)c1 (3D coordinates assigned)
[NH-]C(=O)c1cccc(N2CCN(C(=O)Nc3ccccc3Oc3cncc(F)c3)C2=O)c1 (nonaromatic ring conformer: 83.67971698555122 kcal/mol)

>  <smiles>  (13) 
NC(=O)c1cccc(N2CCN(C(=O)Nc3ccccc3Oc3cncc(F)c3)C2=O)c1

>  <score_type>  (13) 
oracle

>  <origin>  (13) 
adg

>  <m_score__min__energy>  (13) 
-11.789999999999999

>  <m_primary>  (13) 
energy

$$$$
13:0
     RDKit          3D

 67 71  0  0  0  0  0  0  0  0999 V2000
   59.3910   34.8780   46.9700 C   0  0  0  0  0  0  0  0  0  0  0  0
   58.7380   33.6910   46.3200 C   0  0  0  0  0  0  0  0  0  0  0  0
   58.0330   33.8670   45.1190 C   0  0  0  0  0  0  0  0  0  0  0  0
   57.3920   32.7880   44.5050 C   0  0  0  0  0  0  0  0  0  0  0  0
   57.4380   31.5090   45.0840 C   0  0  0  0  0  0  0  0  0  0  0  0
   56.7380   30.3640   44.4550 C   0  0  0  0  0  0  0  0  0  0  0  0
   56.3840   30.4260   43.2460 O   0  0  0  0  0  0  0  0  0  0  0  0
   56.4120   29.2150   45.2490 N   0  0  0  0  0  0  0  0  0  0  0  0
   57.2890   28.2010   45.7580 C   0  0  0  0  0  0  0  0  0  0  0  0
   58.1230   28.4100   46.8700 C   0  0  0  0  0  0  0  0  0  0  0  0
   58.9120   27.3650   47.3580 C   0  0  0  0  0  0  0  0  0  0  0  0
   58.8630   26.1040   46.7580 C   0  0  0  0  0  0  0  0  0  0  0  0
   58.0250   25.8780   45.6540 C   0  0  0  0  0  0  0  0  0  0  0  0
   57.9140   24.5020   45.0470 C   0  0  0  0  0  0  0  0  0  0  0  0
   57.1240   23.5950   45.9580 C   0  0  0  0  0  0  0  0  0  0  0  0
   57.7560   23.1320   47.0710 N   0  0  0  0  0  0  0  0  0  0  0  0
   57.1470   22.3510   47.9630 N   0  0  0  0  0  0  0  0  0  0  0  0
   55.8530   21.9770   47.8140 C   0  0  0  0  0  0  0  0  0  0  0  0
   55.3230   21.2280   48.6770 O   0  0  0  0  0  0  0  0  0  0  0  0
   55.1280   22.4310   46.7040 C   0  0  0  0  0  0  0  0  0  0  0  0
   55.7620   23.2540   45.7560 C   0  0  0  0  0  0  0  0  0  0  0  0
   54.9600   23.6340   44.5260 C   0  0  0  0  0  0  0  0  0  0  0  0
   53.5220   24.0620   44.8860 C   0  0  0  0  0  0  0  0  0  0  0  0
   52.8730   23.2600   46.0400 C   0  0  0  0  0  0  0  0  0  0  0  0
   53.6870   22.0370   46.4760 C   0  0  0  0  0  0  0  0  0  0  0  0
   57.2400   26.9340   45.1660 C   0  0  0  0  0  0  0  0  0  0  0  0
   58.1420   31.3330   46.2850 C   0  0  0  0  0  0  0  0  0  0  0  0
   58.7750   32.4120   46.9150 C   0  0  0  0  0  0  0  0  0  0  0  0
   59.4190   32.1980   48.1830 N   0  0  0  0  0  0  0  0  0  0  0  0
   59.1150   33.1030   49.2930 C   0  0  0  0  0  0  0  0  0  0  0  0
   60.6010   31.3300   48.2600 C   0  0  0  0  0  0  0  0  0  0  0  0
   61.8610   32.1380   48.0830 C   0  0  0  0  0  0  0  0  0  0  0  0
   62.0500   32.9120   46.9240 C   0  0  0  0  0  0  0  0  0  0  0  0
   63.1770   33.7290   46.8000 C   0  0  0  0  0  0  0  0  0  0  0  0
   64.1210   33.7830   47.8290 C   0  0  0  0  0  0  0  0  0  0  0  0
   63.9360   33.0230   48.9880 C   0  0  0  0  0  0  0  0  0  0  0  0
   62.8090   32.2060   49.1180 C   0  0  0  0  0  0  0  0  0  0  0  0
   59.3341   34.7746   48.0636 H   0  0  0  0  0  0  0  0  0  0  0  0
   60.4454   34.9313   46.6611 H   0  0  0  0  0  0  0  0  0  0  0  0
   58.8715   35.7971   46.6611 H   0  0  0  0  0  0  0  0  0  0  0  0
   57.9847   34.8640   44.6568 H   0  0  0  0  0  0  0  0  0  0  0  0
   56.8475   32.9411   43.5616 H   0  0  0  0  0  0  0  0  0  0  0  0
   58.1546   29.3963   47.3561 H   0  0  0  0  0  0  0  0  0  0  0  0
   59.5751   27.5359   48.2189 H   0  0  0  0  0  0  0  0  0  0  0  0
   59.4831   25.2853   47.1519 H   0  0  0  0  0  0  0  0  0  0  0  0
   57.4051   24.5735   44.0744 H   0  0  0  0  0  0  0  0  0  0  0  0
   58.9232   24.0858   44.9120 H   0  0  0  0  0  0  0  0  0  0  0  0
   55.4631   24.4698   44.0178 H   0  0  0  0  0  0  0  0  0  0  0  0
   54.8993   22.7512   43.8726 H   0  0  0  0  0  0  0  0  0  0  0  0
   53.5439   25.1226   45.1770 H   0  0  0  0  0  0  0  0  0  0  0  0
   52.9097   23.8681   43.9930 H   0  0  0  0  0  0  0  0  0  0  0  0
   52.7598   23.9283   46.9063 H   0  0  0  0  0  0  0  0  0  0  0  0
   51.9074   22.8868   45.6680 H   0  0  0  0  0  0  0  0  0  0  0  0
   53.2673   21.6338   47.4094 H   0  0  0  0  0  0  0  0  0  0  0  0
   53.6419   21.2725   45.6864 H   0  0  0  0  0  0  0  0  0  0  0  0
   56.5764   26.7632   44.3055 H   0  0  0  0  0  0  0  0  0  0  0  0
   58.1976   30.3324   46.7386 H   0  0  0  0  0  0  0  0  0  0  0  0
   59.2892   32.5843   50.2472 H   0  0  0  0  0  0  0  0  0  0  0  0
   59.7651   33.9883   49.2329 H   0  0  0  0  0  0  0  0  0  0  0  0
   58.0623   33.4163   49.2329 H   0  0  0  0  0  0  0  0  0  0  0  0
   60.6233   30.8349   49.2420 H   0  0  0  0  0  0  0  0  0  0  0  0
   60.5441   30.5791   47.4582 H   0  0  0  0  0  0  0  0  0  0  0  0
   61.3083   32.8742   46.1125 H   0  0  0  0  0  0  0  0  0  0  0  0
   63.3213   34.3308   45.8906 H   0  0  0  0  0  0  0  0  0  0  0  0
   65.0096   34.4234   47.7272 H   0  0  0  0  0  0  0  0  0  0  0  0
   64.6782   33.0680   49.7986 H   0  0  0  0  0  0  0  0  0  0  0  0
   62.6638   31.6143   50.0338 H   0  0  0  0  0  0  0  0  0  0  0  0
  1  2  1  0
  2  3  2  0
  3  4  1  0
  4  5  2  0
  5  6  1  0
  6  7  2  0
  6  8  1  0
  8  9  1  0
  9 10  2  0
 10 11  1  0
 11 12  2  0
 12 13  1  0
 13 14  1  0
 14 15  1  0
 15 16  2  0
 16 17  1  0
 17 18  1  0
 18 19  2  0
 18 20  1  0
 20 21  2  0
 21 22  1  0
 22 23  1  0
 23 24  1  0
 24 25  1  0
 13 26  2  0
  5 27  1  0
 27 28  2  0
 28 29  1  0
 29 30  1  0
 29 31  1  0
 31 32  1  0
 32 33  2  0
 33 34  1  0
 34 35  2  0
 35 36  1  0
 36 37  2  0
 28  2  1  0
 37 32  1  0
 26  9  1  0
 21 15  1  0
 25 20  1  0
  1 38  1  0
  1 39  1  0
  1 40  1  0
  3 41  1  0
  4 42  1  0
 10 43  1  0
 11 44  1  0
 12 45  1  0
 14 46  1  0
 14 47  1  0
 22 48  1  0
 22 49  1  0
 23 50  1  0
 23 51  1  0
 24 52  1  0
 24 53  1  0
 25 54  1  0
 25 55  1  0
 26 56  1  0
 27 57  1  0
 30 58  1  0
 30 59  1  0
 30 60  1  0
 31 61  1  0
 31 62  1  0
 33 63  1  0
 34 64  1  0
 35 65  1  0
 36 66  1  0
 37 67  1  0
M  CHG  2   8  -1  17  -1
M  END
>  <UniqueID>  (14) 
14

>  <SMILES>  (14) 
Cc1ccc(C(=O)[N-]c2cccc(Cc3n[n-]c(=O)c4c3CCCC4)c2)cc1N(C)Cc1ccccc1

>  <Energy>  (14) 
85.72583626546573

>  <Genealogy>  (14) 
Cc1ccc(C(=O)[N-]c2cccc(Cc3n[n-]c(=O)c4c3CCCC4)c2)cc1N(C)Cc1ccccc1 (protonated)
Cc1ccc(C(=O)[N-]c2cccc(Cc3n[n-]c(=O)c4c3CCCC4)c2)cc1N(C)Cc1ccccc1 (3D coordinates assigned)
Cc1ccc(C(=O)[N-]c2cccc(Cc3n[n-]c(=O)c4c3CCCC4)c2)cc1N(C)Cc1ccccc1 (nonaromatic ring conformer: 85.72583626546573 kcal/mol)

>  <smiles>  (14) 
Cc1ccc(C(=O)Nc2cccc(Cc3n[nH]c(=O)c4c3CCCC4)c2)cc1N(C)Cc1ccccc1

>  <score_type>  (14) 
oracle

>  <origin>  (14) 
adg

>  <m_score__min__energy>  (14) 
-15.210000000000001

>  <m_primary>  (14) 
energy

$$$$
14:0
     RDKit          3D

 39 41  0  0  0  0  0  0  0  0999 V2000
   58.9130   30.2240   46.9450 C   0  0  0  0  0  0  0  0  0  0  0  0
   58.5240   31.1370   46.0390 C   0  0  0  0  0  0  0  0  0  0  0  0
   58.0720   30.8590   44.7440 C   0  0  0  0  0  0  0  0  0  0  0  0
   57.9080   29.6500   44.1720 C   0  0  0  0  0  0  0  0  0  0  0  0
   57.4730   28.4460   44.9170 C   0  0  0  0  0  0  0  0  0  0  0  0
   56.1250   28.2330   45.2520 C   0  0  0  0  0  0  0  0  0  0  0  0
   55.1500   29.1570   44.8870 O   0  0  0  0  0  0  0  0  0  0  0  0
   55.7600   27.1070   45.9210 N   0  0  0  0  0  0  0  0  0  0  0  0
   56.6820   26.1630   46.2540 C   0  0  0  0  0  0  0  0  0  0  0  0
   56.3290   25.1240   46.8710 O   0  0  0  0  0  0  0  0  0  0  0  0
   57.9850   26.3340   45.9130 N   0  0  0  0  0  0  0  0  0  0  0  0
   58.3980   27.4450   45.2510 C   0  0  0  0  0  0  0  0  0  0  0  0
   59.6160   27.5680   44.9500 O   0  0  0  0  0  0  0  0  0  0  0  0
   57.7680   32.0810   44.1660 C   0  0  0  0  0  0  0  0  0  0  0  0
   58.0540   33.0480   45.1080 C   0  0  0  0  0  0  0  0  0  0  0  0
   57.8010   34.5120   44.9100 C   0  0  0  0  0  0  0  0  0  0  0  0
   58.5130   32.4810   46.2510 N   0  0  0  0  0  0  0  0  0  0  0  0
   58.8560   33.2120   47.4820 C   0  0  0  0  0  0  0  0  0  0  0  0
   60.3410   33.4600   47.5550 C   0  0  0  0  0  0  0  0  0  0  0  0
   61.0980   33.5910   46.3780 C   0  0  0  0  0  0  0  0  0  0  0  0
   62.4780   33.8060   46.4470 C   0  0  0  0  0  0  0  0  0  0  0  0
   63.1140   33.8910   47.6880 C   0  0  0  0  0  0  0  0  0  0  0  0
   62.3690   33.7630   48.8650 C   0  0  0  0  0  0  0  0  0  0  0  0
   63.2390   33.8760   50.5610 Br  0  0  0  0  0  0  0  0  0  0  0  0
   60.9870   33.5500   48.8000 C   0  0  0  0  0  0  0  0  0  0  0  0
   59.2531   30.5468   47.9400 H   0  0  0  0  0  0  0  0  0  0  0  0
   58.8913   29.1538   46.6916 H   0  0  0  0  0  0  0  0  0  0  0  0
   58.1078   29.5520   43.0947 H   0  0  0  0  0  0  0  0  0  0  0  0
   54.7570   26.9620   46.1730 H   0  0  0  0  0  0  0  0  0  0  0  0
   57.3748   32.2480   43.1524 H   0  0  0  0  0  0  0  0  0  0  0  0
   57.7158   35.0051   45.8896 H   0  0  0  0  0  0  0  0  0  0  0  0
   58.6358   34.9556   44.3476 H   0  0  0  0  0  0  0  0  0  0  0  0
   56.8657   34.6497   44.3476 H   0  0  0  0  0  0  0  0  0  0  0  0
   58.3275   34.1767   47.4888 H   0  0  0  0  0  0  0  0  0  0  0  0
   58.5543   32.6069   48.3497 H   0  0  0  0  0  0  0  0  0  0  0  0
   60.6026   33.5241   45.3981 H   0  0  0  0  0  0  0  0  0  0  0  0
   63.0642   33.9085   45.5219 H   0  0  0  0  0  0  0  0  0  0  0  0
   64.2000   34.0585   47.7395 H   0  0  0  0  0  0  0  0  0  0  0  0
   60.4039   33.4526   49.7276 H   0  0  0  0  0  0  0  0  0  0  0  0
  1  2  2  0
  2  3  1  0
  3  4  2  3
  4  5  1  0
  5  6  2  0
  6  7  1  0
  6  8  1  0
  8  9  1  0
  9 10  2  0
  9 11  1  0
 11 12  1  0
 12 13  2  0
  3 14  1  0
 14 15  2  0
 15 16  1  0
 15 17  1  0
 17 18  1  0
 18 19  1  0
 19 20  2  0
 20 21  1  0
 21 22  2  0
 22 23  1  0
 23 24  1  0
 23 25  2  0
 17  2  1  0
 25 19  1  0
 12  5  1  0
  1 26  1  0
  1 27  1  0
  4 28  1  0
  8 29  1  0
 14 30  1  0
 16 31  1  0
 16 32  1  0
 16 33  1  0
 18 34  1  0
 18 35  1  0
 20 36  1  0
 21 37  1  0
 22 38  1  0
 25 39  1  0
M  CHG  2   7  -1  11  -1
M  END
>  <UniqueID>  (15) 
15

>  <SMILES>  (15) 
C=c1c(=Cc2c([O-])[nH]c(=O)[n-]c2=O)cc(C)n1Cc1cccc(Br)c1

>  <Energy>  (15) 
79.31618905705479

>  <Genealogy>  (15) 
C=c1c(=Cc2c([O-])[nH]c(=O)[n-]c2=O)cc(C)n1Cc1cccc(Br)c1 (protonated)
C=c1c(=Cc2c([O-])[nH]c(=O)[n-]c2=O)cc(C)n1Cc1cccc(Br)c1 (3D coordinates assigned)
C=c1c(=Cc2c([O-])[nH]c(=O)[n-]c2=O)cc(C)n1Cc1cccc(Br)c1 (optimized conformer: 79.31618905705479 kcal/mol)

>  <smiles>  (15) 
C=c1c(=Cc2c(O)[nH]c(=O)[nH]c2=O)cc(C)n1Cc1cccc(Br)c1

>  <score_type>  (15) 
oracle

>  <origin>  (15) 
adg

>  <m_score__min__energy>  (15) 
-14.27

>  <m_primary>  (15) 
energy

$$$$
15:0
     RDKit          3D

 44 46  0  0  0  0  0  0  0  0999 V2000
   66.1750   32.2430   50.3740 C   0  0  0  0  0  0  0  0  0  0  0  0
   65.4250   33.2700   49.7330 O   0  0  0  0  0  0  0  0  0  0  0  0
   64.1120   33.1140   49.2620 C   0  0  0  0  0  0  0  0  0  0  0  0
   63.7880   32.2460   48.2010 C   0  0  0  0  0  0  0  0  0  0  0  0
   62.4640   32.1270   47.7680 C   0  0  0  0  0  0  0  0  0  0  0  0
   61.4490   32.8690   48.3870 C   0  0  0  0  0  0  0  0  0  0  0  0
   59.7800   32.7460   47.8410 S   0  0  0  0  0  0  0  0  0  0  0  0
   58.8730   32.8940   49.0300 O   0  0  0  0  0  0  0  0  0  0  0  0
   59.5470   31.3940   47.2220 O   0  0  0  0  0  0  0  0  0  0  0  0
   59.4670   34.0120   46.6730 N   0  0  0  0  0  0  0  0  0  0  0  0
   59.8940   33.6150   45.3060 C   0  0  0  0  0  0  0  0  0  0  0  0
   58.7270   33.2980   44.3550 C   0  0  0  0  0  0  0  0  0  0  0  0
   57.6170   32.7030   45.1030 N   0  0  0  0  0  0  0  0  0  0  0  0
   57.0140   31.4570   44.7090 C   0  0  0  0  0  0  0  0  0  0  0  0
   55.7670   31.3060   44.8310 O   0  0  0  0  0  0  0  0  0  0  0  0
   57.8440   30.3270   44.1630 C   0  0  0  0  0  0  0  0  0  0  0  0
   57.6110   29.0700   44.9430 C   0  0  0  0  0  0  0  0  0  0  0  0
   58.5900   28.3540   45.5250 N   0  0  0  0  0  0  0  0  0  0  0  0
   57.9170   27.3650   46.1540 C   0  0  0  0  0  0  0  0  0  0  0  0
   58.4980   26.4690   46.8200 O   0  0  0  0  0  0  0  0  0  0  0  0
   56.5750   27.4150   46.0160 N   0  0  0  0  0  0  0  0  0  0  0  0
   56.3990   28.5040   45.2520 C   0  0  0  0  0  0  0  0  0  0  0  0
   55.1540   28.9750   44.8510 O   0  0  0  0  0  0  0  0  0  0  0  0
   57.0700   33.4390   46.2470 C   0  0  0  0  0  0  0  0  0  0  0  0
   58.0720   34.4930   46.7450 C   0  0  0  0  0  0  0  0  0  0  0  0
   61.7710   33.7360   49.4380 C   0  0  0  0  0  0  0  0  0  0  0  0
   63.0940   33.8550   49.8720 C   0  0  0  0  0  0  0  0  0  0  0  0
   66.0928   32.3556   51.4651 H   0  0  0  0  0  0  0  0  0  0  0  0
   65.7804   31.2604   50.0760 H   0  0  0  0  0  0  0  0  0  0  0  0
   67.2311   32.3198   50.0760 H   0  0  0  0  0  0  0  0  0  0  0  0
   64.5795   31.6597   47.7114 H   0  0  0  0  0  0  0  0  0  0  0  0
   62.2180   31.4482   46.9381 H   0  0  0  0  0  0  0  0  0  0  0  0
   60.4793   34.4396   44.8730 H   0  0  0  0  0  0  0  0  0  0  0  0
   60.4802   32.6901   45.4109 H   0  0  0  0  0  0  0  0  0  0  0  0
   58.3859   34.2271   43.8750 H   0  0  0  0  0  0  0  0  0  0  0  0
   59.0689   32.5857   43.5897 H   0  0  0  0  0  0  0  0  0  0  0  0
   57.5711   30.1546   43.1114 H   0  0  0  0  0  0  0  0  0  0  0  0
   58.9067   30.5996   44.2434 H   0  0  0  0  0  0  0  0  0  0  0  0
   56.1399   33.9408   45.9421 H   0  0  0  0  0  0  0  0  0  0  0  0
   56.8707   32.7278   47.0622 H   0  0  0  0  0  0  0  0  0  0  0  0
   57.9756   35.3955   46.1235 H   0  0  0  0  0  0  0  0  0  0  0  0
   57.8418   34.7075   47.7990 H   0  0  0  0  0  0  0  0  0  0  0  0
   60.9797   34.3257   49.9239 H   0  0  0  0  0  0  0  0  0  0  0  0
   63.3371   34.5370   50.7002 H   0  0  0  0  0  0  0  0  0  0  0  0
  1  2  1  0
  2  3  1  0
  3  4  2  0
  4  5  1  0
  5  6  2  0
  6  7  1  0
  7  8  2  0
  7  9  2  0
  7 10  1  0
 10 11  1  0
 11 12  1  0
 12 13  1  0
 13 14  1  0
 14 15  2  0
 14 16  1  0
 16 17  1  0
 17 18  1  0
 18 19  1  0
 19 20  2  0
 19 21  1  0
 21 22  1  0
 22 23  1  0
 13 24  1  0
 24 25  1  0
  6 26  1  0
 26 27  2  0
 27  3  1  0
 25 10  1  0
 22 17  2  0
  1 28  1  0
  1 29  1  0
  1 30  1  0
  4 31  1  0
  5 32  1  0
 11 33  1  0
 11 34  1  0
 12 35  1  0
 12 36  1  0
 16 37  1  0
 16 38  1  0
 24 39  1  0
 24 40  1  0
 25 41  1  0
 25 42  1  0
 26 43  1  0
 27 44  1  0
M  CHG  3  18  -1  21  -1  23  -1
M  END
>  <UniqueID>  (16) 
16

>  <SMILES>  (16) 
COc1ccc(S(=O)(=O)N2CCN(C(=O)Cc3[n-]c(=O)[n-]c3[O-])CC2)cc1

>  <Energy>  (16) 
81.15174583446016

>  <Genealogy>  (16) 
COc1ccc(S(=O)(=O)N2CCN(C(=O)Cc3[n-]c(=O)[n-]c3[O-])CC2)cc1 (protonated)
COc1ccc(S(=O)(=O)N2CCN(C(=O)Cc3[n-]c(=O)[n-]c3[O-])CC2)cc1 (3D coordinates assigned)
COc1ccc(S(=O)(=O)N2CCN(C(=O)Cc3[n-]c(=O)[n-]c3[O-])CC2)cc1 (nonaromatic ring conformer: 81.15174583446016 kcal/mol)

>  <smiles>  (16) 
COc1ccc(S(=O)(=O)N2CCN(C(=O)Cc3[nH]c(=O)[nH]c3O)CC2)cc1

>  <score_type>  (16) 
oracle

>  <origin>  (16) 
adg

>  <m_score__min__energy>  (16) 
-16.190000000000001

>  <m_primary>  (16) 
energy

$$$$
16:0
     RDKit          3D

 53 56  0  0  0  0  0  0  0  0999 V2000
   57.3560   33.1050   52.3350 C   0  0  0  0  0  0  0  0  0  0  0  0
   57.6620   32.0580   51.5640 C   0  0  0  0  0  0  0  0  0  0  0  0
   58.8410   32.1230   50.7400 C   0  0  0  0  0  0  0  0  0  0  0  0
   59.8220   32.1780   50.0410 C   0  0  0  0  0  0  0  0  0  0  0  0
   61.0030   32.2510   49.2150 C   0  0  0  0  0  0  0  0  0  0  0  0
   61.0480   31.8340   47.8750 C   0  0  0  0  0  0  0  0  0  0  0  0
   59.9280   31.3060   47.0630 C   0  0  0  0  0  0  0  0  0  0  0  0
   59.6650   29.9260   47.0450 C   0  0  0  0  0  0  0  0  0  0  0  0
   58.6080   29.4160   46.2870 C   0  0  0  0  0  0  0  0  0  0  0  0
   57.8020   30.2750   45.5310 C   0  0  0  0  0  0  0  0  0  0  0  0
   56.4660   29.6170   44.5900 S   0  0  0  0  0  0  0  0  0  0  0  0
   57.0310   29.2110   42.9520 C   0  0  0  0  0  0  0  0  0  0  0  0
   55.9340   28.3700   45.2400 O   0  0  0  0  0  0  0  0  0  0  0  0
   55.3630   30.6350   44.5100 O   0  0  0  0  0  0  0  0  0  0  0  0
   58.0710   31.6500   45.5280 C   0  0  0  0  0  0  0  0  0  0  0  0
   59.1300   32.1620   46.2820 C   0  0  0  0  0  0  0  0  0  0  0  0
   62.6390   31.9940   47.3120 S   0  0  0  0  0  0  0  0  0  0  0  0
   63.2610   32.5990   48.7470 C   0  0  0  0  0  0  0  0  0  0  0  0
   64.5750   32.9710   49.0240 C   0  0  0  0  0  0  0  0  0  0  0  0
   64.8730   33.4430   50.3110 C   0  0  0  0  0  0  0  0  0  0  0  0
   66.1720   33.8230   50.6240 O   0  0  0  0  0  0  0  0  0  0  0  0
   63.8610   33.5300   51.2870 C   0  0  0  0  0  0  0  0  0  0  0  0
   62.5430   33.1480   50.9840 C   0  0  0  0  0  0  0  0  0  0  0  0
   62.2520   32.6810   49.6950 C   0  0  0  0  0  0  0  0  0  0  0  0
   56.8240   30.8400   51.5400 C   0  0  0  0  0  0  0  0  0  0  0  0
   55.5740   30.9460   51.4080 O   0  0  0  0  0  0  0  0  0  0  0  0
   57.4210   29.5430   51.6600 N   0  0  0  0  0  0  0  0  0  0  0  0
   58.4340   29.2080   52.6540 C   0  0  0  0  0  0  0  0  0  0  0  0
   59.8070   29.2960   52.0480 C   0  0  0  0  0  0  0  0  0  0  0  0
   60.8750   29.8550   52.7710 C   0  0  0  0  0  0  0  0  0  0  0  0
   62.1430   29.9530   52.1890 C   0  0  0  0  0  0  0  0  0  0  0  0
   62.3520   29.5000   50.8830 C   0  0  0  0  0  0  0  0  0  0  0  0
   61.2940   28.9460   50.1570 C   0  0  0  0  0  0  0  0  0  0  0  0
   60.0260   28.8440   50.7350 C   0  0  0  0  0  0  0  0  0  0  0  0
   56.4597   33.0757   52.9720 H   0  0  0  0  0  0  0  0  0  0  0  0
   58.0003   33.9965   52.3329 H   0  0  0  0  0  0  0  0  0  0  0  0
   60.2958   29.2422   47.6319 H   0  0  0  0  0  0  0  0  0  0  0  0
   58.4083   28.3343   46.2843 H   0  0  0  0  0  0  0  0  0  0  0  0
   57.9226   28.5703   43.0200 H   0  0  0  0  0  0  0  0  0  0  0  0
   56.2357   28.6765   42.4118 H   0  0  0  0  0  0  0  0  0  0  0  0
   57.2839   30.1352   42.4118 H   0  0  0  0  0  0  0  0  0  0  0  0
   57.4459   32.3292   44.9296 H   0  0  0  0  0  0  0  0  0  0  0  0
   59.3412   33.2414   46.2649 H   0  0  0  0  0  0  0  0  0  0  0  0
   65.3574   32.8966   48.2544 H   0  0  0  0  0  0  0  0  0  0  0  0
   64.1043   33.8998   52.2940 H   0  0  0  0  0  0  0  0  0  0  0  0
   61.7526   33.2144   51.7461 H   0  0  0  0  0  0  0  0  0  0  0  0
   58.3630   29.9120   53.4963 H   0  0  0  0  0  0  0  0  0  0  0  0
   58.2634   28.1803   53.0072 H   0  0  0  0  0  0  0  0  0  0  0  0
   60.7131   30.2163   53.7973 H   0  0  0  0  0  0  0  0  0  0  0  0
   62.9771   30.3872   52.7597 H   0  0  0  0  0  0  0  0  0  0  0  0
   63.3497   29.5796   50.4266 H   0  0  0  0  0  0  0  0  0  0  0  0
   61.4597   28.5899   49.1295 H   0  0  0  0  0  0  0  0  0  0  0  0
   59.1956   28.4082   50.1602 H   0  0  0  0  0  0  0  0  0  0  0  0
  1  2  2  0
  2  3  1  0
  3  4  3  0
  4  5  1  0
  5  6  2  0
  6  7  1  0
  7  8  2  0
  8  9  1  0
  9 10  2  0
 10 11  1  0
 11 12  1  0
 11 13  2  0
 11 14  2  0
 10 15  1  0
 15 16  2  0
  6 17  1  0
 17 18  1  0
 18 19  2  0
 19 20  1  0
 20 21  1  0
 20 22  2  0
 22 23  1  0
 23 24  2  0
  2 25  1  0
 25 26  2  0
 25 27  1  0
 27 28  1  0
 28 29  1  0
 29 30  2  0
 30 31  1  0
 31 32  2  0
 32 33  1  0
 33 34  2  0
 24  5  1  0
 34 29  1  0
 16  7  1  0
 24 18  1  0
  1 35  1  0
  1 36  1  0
  8 37  1  0
  9 38  1  0
 12 39  1  0
 12 40  1  0
 12 41  1  0
 15 42  1  0
 16 43  1  0
 19 44  1  0
 22 45  1  0
 23 46  1  0
 28 47  1  0
 28 48  1  0
 30 49  1  0
 31 50  1  0
 32 51  1  0
 33 52  1  0
 34 53  1  0
M  CHG  2  21  -1  27  -1
M  END
>  <UniqueID>  (17) 
17

>  <SMILES>  (17) 
C=C(C#Cc1c(-c2ccc(S(C)(=O)=O)cc2)sc2cc([O-])ccc12)C(=O)[N-]Cc1ccccc1

>  <Energy>  (17) 
82.81263755355033

>  <Genealogy>  (17) 
C=C(C#Cc1c(-c2ccc(S(C)(=O)=O)cc2)sc2cc([O-])ccc12)C(=O)[N-]Cc1ccccc1 (protonated)
C=C(C#Cc1c(-c2ccc(S(C)(=O)=O)cc2)sc2cc([O-])ccc12)C(=O)[N-]Cc1ccccc1 (3D coordinates assigned)
C=C(C#Cc1c(-c2ccc(S(C)(=O)=O)cc2)sc2cc([O-])ccc12)C(=O)[N-]Cc1ccccc1 (optimized conformer: 82.81263755355033 kcal/mol)

>  <smiles>  (17) 
C=C(C#Cc1c(-c2ccc(S(C)(=O)=O)cc2)sc2cc(O)ccc12)C(=O)NCc1ccccc1

>  <score_type>  (17) 
oracle

>  <origin>  (17) 
adg

>  <m_score__min__energy>  (17) 
-11.369999999999999

>  <m_primary>  (17) 
energy

$$$$
17:0
     RDKit          3D

 31 33  0  0  0  0  0  0  0  0999 V2000
   55.8893   31.0378   41.6290 H   0  0  0  0  0  0  0  0  0  0  0  0
   56.6300   30.7730   42.3980 C   0  0  0  0  0  0  0  0  0  0  0  0
   57.5440   31.6070   42.8790 C   0  0  0  0  0  0  0  0  0  0  0  0
   57.6599   32.6536   42.5608 H   0  0  0  0  0  0  0  0  0  0  0  0
   58.3920   30.9400   43.9060 C   0  0  0  0  0  0  0  0  0  0  0  0
   59.4477   30.9269   43.5973 H   0  0  0  0  0  0  0  0  0  0  0  0
   58.3739   31.4534   44.8787 H   0  0  0  0  0  0  0  0  0  0  0  0
   57.8490   29.5910   43.9640 N   0  0  0  0  0  0  0  0  0  0  0  0
   58.3420   28.5520   44.8220 C   0  0  0  0  0  0  0  0  0  0  0  0
   59.9640   28.2220   45.0890 S   0  0  0  0  0  0  0  0  0  0  0  0
   59.6510   26.9510   46.1520 C   0  0  0  0  0  0  0  0  0  0  0  0
   60.6270   26.3380   46.8260 C   0  0  0  0  0  0  0  0  0  0  0  0
   60.3871   25.5120   47.5116 H   0  0  0  0  0  0  0  0  0  0  0  0
   61.6710   26.6590   46.6957 H   0  0  0  0  0  0  0  0  0  0  0  0
   58.2440   26.7880   46.2470 C   0  0  0  0  0  0  0  0  0  0  0  0
   57.5690   25.8450   46.9410 C   0  0  0  0  0  0  0  0  0  0  0  0
   57.9005   25.6537   47.9723 H   0  0  0  0  0  0  0  0  0  0  0  0
   56.4290   25.0470   46.4470 C   0  0  0  0  0  0  0  0  0  0  0  0
   55.2790   25.6830   45.9620 C   0  0  0  0  0  0  0  0  0  0  0  0
   55.1710   27.0690   45.9890 O   0  0  0  0  0  0  0  0  0  0  0  0
   54.2520   24.9440   45.4670 N   0  0  0  0  0  0  0  0  0  0  0  0
   54.3250   23.5890   45.4180 C   0  0  0  0  0  0  0  0  0  0  0  0
   53.3590   22.9250   44.9600 O   0  0  0  0  0  0  0  0  0  0  0  0
   55.4400   22.9500   45.8560 N   0  0  0  0  0  0  0  0  0  0  0  0
   56.4940   23.6440   46.3580 C   0  0  0  0  0  0  0  0  0  0  0  0
   57.5220   23.0210   46.7340 O   0  0  0  0  0  0  0  0  0  0  0  0
   57.5470   27.7110   45.5210 N   0  0  0  0  0  0  0  0  0  0  0  0
   56.5040   27.7500   45.4780 H   0  0  0  0  0  0  0  0  0  0  0  0
   56.7390   29.4320   43.0360 C   0  0  0  0  0  0  0  0  0  0  0  0
   56.9592   28.6565   42.2876 H   0  0  0  0  0  0  0  0  0  0  0  0
   55.8087   29.1132   43.5288 H   0  0  0  0  0  0  0  0  0  0  0  0
  1  2  1  0
  2  3  2  0
  3  4  1  0
  3  5  1  0
  5  6  1  0
  5  7  1  0
  5  8  1  0
  8  9  1  0
  9 10  1  0
 10 11  1  0
 11 12  2  0
 12 13  1  0
 12 14  1  0
 11 15  1  0
 15 16  2  0
 16 17  1  0
 16 18  1  0
 18 19  2  0
 19 20  1  0
 19 21  1  0
 21 22  1  0
 22 23  2  0
 22 24  1  0
 24 25  1  0
 25 26  2  0
 15 27  1  0
 27 28  1  0
  8 29  1  0
 29 30  1  0
 29 31  1  0
 29  2  1  0
 27  9  2  0
 25 18  1  0
M  CHG  4  20  -1  21  -1  24  -1  27   1
M  END
>  <UniqueID>  (18) 
18

>  <SMILES>  (18) 
C=c1sc(N2CC=CC2)[nH+]/c1=C/c1c([O-])[n-]c(=O)[n-]c1=O

>  <Energy>  (18) 
84.90605694317826

>  <Genealogy>  (18) 
C=c1sc(N2CC=CC2)[nH+]c1=Cc1c([O-])[n-]c(=O)[n-]c1=O (protonated)
C=c1sc(N2CC=CC2)[nH+]/c1=C/c1c([O-])[n-]c(=O)[n-]c1=O (cis-trans isomerization)
C=c1sc(N2CC=CC2)[nH+]/c1=C/c1c([O-])[n-]c(=O)[n-]c1=O (3D coordinates assigned)
C=c1sc(N2CC=CC2)[nH+]/c1=C/c1c([O-])[n-]c(=O)[n-]c1=O (nonaromatic ring conformer: 84.90605694317826 kcal/mol)

>  <smiles>  (18) 
C=c1sc(N2CC=CC2)nc1=Cc1c(O)[nH]c(=O)[nH]c1=O

>  <score_type>  (18) 
oracle

>  <origin>  (18) 
adg

>  <m_score__min__energy>  (18) 
-12.94

>  <m_primary>  (18) 
energy

$$$$
18:0
     RDKit          3D

 42 44  0  0  0  0  0  0  0  0999 V2000
   55.6110   28.9640   45.1670 N   0  0  0  0  0  0  0  0  0  0  0  0
   56.6260   29.4260   43.8470 S   0  0  0  0  0  0  0  0  0  0  0  0
   55.8030   29.5400   42.5950 O   0  0  0  0  0  0  0  0  0  0  0  0
   57.6850   28.3810   43.6360 O   0  0  0  0  0  0  0  0  0  0  0  0
   57.3800   30.9750   44.2070 C   0  0  0  0  0  0  0  0  0  0  0  0
   57.7580   31.8330   43.1660 C   0  0  0  0  0  0  0  0  0  0  0  0
   58.3270   33.0760   43.4520 C   0  0  0  0  0  0  0  0  0  0  0  0
   58.5280   33.4650   44.7790 C   0  0  0  0  0  0  0  0  0  0  0  0
   58.1760   32.6090   45.8290 C   0  0  0  0  0  0  0  0  0  0  0  0
   58.3660   33.0520   47.1800 N   0  0  0  0  0  0  0  0  0  0  0  0
   58.7670   32.2420   48.2930 C   0  0  0  0  0  0  0  0  0  0  0  0
   58.1190   32.3280   49.3700 O   0  0  0  0  0  0  0  0  0  0  0  0
   59.9580   31.3270   48.2230 C   0  0  0  0  0  0  0  0  0  0  0  0
   59.6630   30.1750   47.3770 N   0  0  0  0  0  0  0  0  0  0  0  0
   58.5540   29.4120   47.4370 C   0  0  0  0  0  0  0  0  0  0  0  0
   58.6960   28.4060   46.5020 C   0  0  0  0  0  0  0  0  0  0  0  0
   57.7600   27.3760   46.1510 N   0  0  0  0  0  0  0  0  0  0  0  0
   57.5780   26.1580   46.8940 C   0  0  0  0  0  0  0  0  0  0  0  0
   58.4230   25.8170   47.7660 O   0  0  0  0  0  0  0  0  0  0  0  0
   56.4180   25.2820   46.6200 C   0  0  0  0  0  0  0  0  0  0  0  0
   56.3770   23.9610   47.1000 C   0  0  0  0  0  0  0  0  0  0  0  0
   55.2640   23.1650   46.8260 C   0  0  0  0  0  0  0  0  0  0  0  0
   54.2030   23.6830   46.0820 C   0  0  0  0  0  0  0  0  0  0  0  0
   54.2740   24.9980   45.6200 C   0  0  0  0  0  0  0  0  0  0  0  0
   55.3660   25.7590   45.8970 N   0  0  0  0  0  0  0  0  0  0  0  0
   59.9180   28.6240   45.8980 C   0  0  0  0  0  0  0  0  0  0  0  0
   60.4950   29.7060   46.4580 N   0  0  0  0  0  0  0  0  0  0  0  0
   57.5740   31.3720   45.5380 C   0  0  0  0  0  0  0  0  0  0  0  0
   55.5440   27.9210   45.1500 H   0  0  0  0  0  0  0  0  0  0  0  0
   57.6062   31.5268   42.1204 H   0  0  0  0  0  0  0  0  0  0  0  0
   58.6172   33.7493   42.6320 H   0  0  0  0  0  0  0  0  0  0  0  0
   58.9655   34.4498   44.9997 H   0  0  0  0  0  0  0  0  0  0  0  0
   60.8133   31.8763   47.8027 H   0  0  0  0  0  0  0  0  0  0  0  0
   60.1980   30.9741   49.2368 H   0  0  0  0  0  0  0  0  0  0  0  0
   57.6946   29.5627   48.1069 H   0  0  0  0  0  0  0  0  0  0  0  0
   57.2030   27.5180   45.2780 H   0  0  0  0  0  0  0  0  0  0  0  0
   57.2156   23.5582   47.6869 H   0  0  0  0  0  0  0  0  0  0  0  0
   55.2230   22.1300   47.1962 H   0  0  0  0  0  0  0  0  0  0  0  0
   53.3216   23.0625   45.8624 H   0  0  0  0  0  0  0  0  0  0  0  0
   53.4457   25.4191   45.0312 H   0  0  0  0  0  0  0  0  0  0  0  0
   60.3505   28.0141   45.0911 H   0  0  0  0  0  0  0  0  0  0  0  0
   57.2537   30.7126   46.3582 H   0  0  0  0  0  0  0  0  0  0  0  0
  1  2  1  0
  2  3  2  0
  2  4  2  0
  2  5  1  0
  5  6  2  0
  6  7  1  0
  7  8  2  0
  8  9  1  0
  9 10  1  0
 10 11  1  0
 11 12  2  0
 11 13  1  0
 13 14  1  0
 14 15  1  0
 15 16  2  0
 16 17  1  0
 17 18  1  0
 18 19  2  0
 18 20  1  0
 20 21  2  0
 21 22  1  0
 22 23  2  0
 23 24  1  0
 24 25  2  0
 16 26  1  0
 26 27  2  0
  9 28  2  0
 28  5  1  0
 27 14  1  0
 25 20  1  0
  1 29  1  0
  6 30  1  0
  7 31  1  0
  8 32  1  0
 13 33  1  0
 13 34  1  0
 15 35  1  0
 17 36  1  0
 21 37  1  0
 22 38  1  0
 23 39  1  0
 24 40  1  0
 26 41  1  0
 28 42  1  0
M  CHG  2   1  -1  10  -1
M  END
>  <UniqueID>  (19) 
19

>  <SMILES>  (19) 
[NH-]S(=O)(=O)c1cccc([N-]C(=O)Cn2cc(NC(=O)c3ccccn3)cn2)c1

>  <Energy>  (19) 
81.21356092270425

>  <Genealogy>  (19) 
[NH-]S(=O)(=O)c1cccc([N-]C(=O)Cn2cc(NC(=O)c3ccccn3)cn2)c1 (protonated)
[NH-]S(=O)(=O)c1cccc([N-]C(=O)Cn2cc(NC(=O)c3ccccn3)cn2)c1 (3D coordinates assigned)
[NH-]S(=O)(=O)c1cccc([N-]C(=O)Cn2cc(NC(=O)c3ccccn3)cn2)c1 (optimized conformer: 81.21356092270425 kcal/mol)

>  <smiles>  (19) 
NS(=O)(=O)c1cccc(NC(=O)Cn2cc(NC(=O)c3ccccn3)cn2)c1

>  <score_type>  (19) 
oracle

>  <origin>  (19) 
adg

>  <m_score__min__energy>  (19) 
-12.92

>  <m_primary>  (19) 
energy

$$$$
19:0
     RDKit          3D

 50 52  0  0  0  0  0  0  0  0999 V2000
   56.3380   30.5420   53.9280 C   0  0  0  0  0  0  0  0  0  0  0  0
   56.2960   31.0130   52.2150 S   0  0  0  0  0  0  0  0  0  0  0  0
   56.7760   32.4330   52.1020 O   0  0  0  0  0  0  0  0  0  0  0  0
   54.8960   30.9260   51.6740 O   0  0  0  0  0  0  0  0  0  0  0  0
   57.3520   30.0010   51.2880 N   0  0  0  0  0  0  0  0  0  0  0  0
   58.6620   30.3460   50.8200 C   0  0  0  0  0  0  0  0  0  0  0  0
   59.6850   29.4020   50.9620 C   0  0  0  0  0  0  0  0  0  0  0  0
   60.9720   29.6730   50.4960 C   0  0  0  0  0  0  0  0  0  0  0  0
   61.2480   30.8920   49.8800 C   0  0  0  0  0  0  0  0  0  0  0  0
   60.2420   31.8600   49.7440 C   0  0  0  0  0  0  0  0  0  0  0  0
   60.6120   33.3710   48.9170 S   0  0  0  0  0  0  0  0  0  0  0  0
   59.6140   34.4420   49.2540 O   0  0  0  0  0  0  0  0  0  0  0  0
   61.9660   33.8450   49.3610 O   0  0  0  0  0  0  0  0  0  0  0  0
   60.6600   33.0850   47.2070 N   0  0  0  0  0  0  0  0  0  0  0  0
   59.5710   33.2500   46.2850 C   0  0  0  0  0  0  0  0  0  0  0  0
   58.9810   32.1520   45.6310 C   0  0  0  0  0  0  0  0  0  0  0  0
   57.8910   32.3330   44.7600 C   0  0  0  0  0  0  0  0  0  0  0  0
   57.2420   31.1680   44.1170 C   0  0  0  0  0  0  0  0  0  0  0  0
   57.5640   30.8300   42.9460 O   0  0  0  0  0  0  0  0  0  0  0  0
   56.2460   30.4210   44.8230 N   0  0  0  0  0  0  0  0  0  0  0  0
   55.8920   29.0370   44.5260 C   0  0  0  0  0  0  0  0  0  0  0  0
   56.7920   28.0860   45.2760 C   0  0  0  0  0  0  0  0  0  0  0  0
   58.1810   28.3120   45.2840 C   0  0  0  0  0  0  0  0  0  0  0  0
   59.0380   27.4390   45.9630 C   0  0  0  0  0  0  0  0  0  0  0  0
   58.5170   26.3340   46.6420 C   0  0  0  0  0  0  0  0  0  0  0  0
   57.1360   26.1030   46.6470 C   0  0  0  0  0  0  0  0  0  0  0  0
   56.2710   26.9710   45.9680 C   0  0  0  0  0  0  0  0  0  0  0  0
   54.9060   26.7150   45.9880 O   0  0  0  0  0  0  0  0  0  0  0  0
   57.4160   33.6340   44.5210 C   0  0  0  0  0  0  0  0  0  0  0  0
   57.9960   34.7280   45.1670 C   0  0  0  0  0  0  0  0  0  0  0  0
   59.0610   34.5440   46.0540 C   0  0  0  0  0  0  0  0  0  0  0  0
   59.6050   35.6630   46.6880 O   0  0  0  0  0  0  0  0  0  0  0  0
   58.9500   31.5890   50.2180 C   0  0  0  0  0  0  0  0  0  0  0  0
   56.2579   31.4406   54.5574 H   0  0  0  0  0  0  0  0  0  0  0  0
   55.4965   29.8672   54.1435 H   0  0  0  0  0  0  0  0  0  0  0  0
   57.2857   30.0267   54.1435 H   0  0  0  0  0  0  0  0  0  0  0  0
   59.4726   28.4371   51.4456 H   0  0  0  0  0  0  0  0  0  0  0  0
   61.7689   28.9241   50.6149 H   0  0  0  0  0  0  0  0  0  0  0  0
   62.2594   31.0961   49.4986 H   0  0  0  0  0  0  0  0  0  0  0  0
   59.3769   31.1402   45.8030 H   0  0  0  0  0  0  0  0  0  0  0  0
   54.8485   28.8587   44.8248 H   0  0  0  0  0  0  0  0  0  0  0  0
   56.0137   28.8636   43.4466 H   0  0  0  0  0  0  0  0  0  0  0  0
   58.5959   29.1812   44.7526 H   0  0  0  0  0  0  0  0  0  0  0  0
   60.1226   27.6224   45.9624 H   0  0  0  0  0  0  0  0  0  0  0  0
   59.1918   25.6459   47.1724 H   0  0  0  0  0  0  0  0  0  0  0  0
   56.7282   25.2356   47.1868 H   0  0  0  0  0  0  0  0  0  0  0  0
   56.5823   33.7915   43.8209 H   0  0  0  0  0  0  0  0  0  0  0  0
   57.6124   35.7412   44.9767 H   0  0  0  0  0  0  0  0  0  0  0  0
   60.1640   35.5910   47.5290 H   0  0  0  0  0  0  0  0  0  0  0  0
   58.1594   32.3475   50.1201 H   0  0  0  0  0  0  0  0  0  0  0  0
  1  2  1  0
  2  3  2  0
  2  4  2  0
  2  5  1  0
  5  6  1  0
  6  7  2  0
  7  8  1  0
  8  9  2  0
  9 10  1  0
 10 11  1  0
 11 12  2  0
 11 13  2  0
 11 14  1  0
 14 15  1  0
 15 16  2  0
 16 17  1  0
 17 18  1  0
 18 19  2  0
 18 20  1  0
 20 21  1  0
 21 22  1  0
 22 23  2  0
 23 24  1  0
 24 25  2  0
 25 26  1  0
 26 27  2  0
 27 28  1  0
 17 29  2  0
 29 30  1  0
 30 31  2  0
 31 32  1  0
 10 33  2  0
 33  6  1  0
 31 15  1  0
 27 22  1  0
  1 34  1  0
  1 35  1  0
  1 36  1  0
  7 37  1  0
  8 38  1  0
  9 39  1  0
 16 40  1  0
 21 41  1  0
 21 42  1  0
 23 43  1  0
 24 44  1  0
 25 45  1  0
 26 46  1  0
 29 47  1  0
 30 48  1  0
 32 49  1  0
 33 50  1  0
M  CHG  4   5  -1  14  -1  20  -1  28  -1
M  END
>  <UniqueID>  (20) 
20

>  <SMILES>  (20) 
CS(=O)(=O)[N-]c1cccc(S(=O)(=O)[N-]c2cc(C(=O)[N-]Cc3ccccc3[O-])ccc2O)c1

>  <Energy>  (20) 
54.49805861957833

>  <Genealogy>  (20) 
CS(=O)(=O)[N-]c1cccc(S(=O)(=O)[N-]c2cc(C(=O)[N-]Cc3ccccc3[O-])ccc2O)c1 (protonated)
CS(=O)(=O)[N-]c1cccc(S(=O)(=O)[N-]c2cc(C(=O)[N-]Cc3ccccc3[O-])ccc2O)c1 (3D coordinates assigned)
CS(=O)(=O)[N-]c1cccc(S(=O)(=O)[N-]c2cc(C(=O)[N-]Cc3ccccc3[O-])ccc2O)c1 (optimized conformer: 54.49805861957833 kcal/mol)

>  <smiles>  (20) 
CS(=O)(=O)Nc1cccc(S(=O)(=O)Nc2cc(C(=O)NCc3ccccc3O)ccc2O)c1

>  <score_type>  (20) 
oracle

>  <origin>  (20) 
adg

>  <m_score__min__energy>  (20) 
-17.34

>  <m_primary>  (20) 
energy

$$$$
20:0
     RDKit          3D

 55 59  0  0  0  0  0  0  0  0999 V2000
   55.1530   29.0470   44.8020 F   0  0  0  0  0  0  0  0  0  0  0  0
   56.4710   29.3650   44.8010 C   0  0  0  0  0  0  0  0  0  0  0  0
   56.9310   30.4500   44.0490 C   0  0  0  0  0  0  0  0  0  0  0  0
   58.2930   30.7670   44.0350 C   0  0  0  0  0  0  0  0  0  0  0  0
   59.1980   29.9990   44.7730 C   0  0  0  0  0  0  0  0  0  0  0  0
   58.7440   28.9090   45.5340 C   0  0  0  0  0  0  0  0  0  0  0  0
   59.7240   28.0450   46.2810 C   0  0  0  0  0  0  0  0  0  0  0  0
   59.0260   27.4540   47.8650 S   0  0  0  0  0  0  0  0  0  0  0  0
   59.4020   28.9580   48.7630 C   0  0  0  0  0  0  0  0  0  0  0  0
   60.5340   29.6630   48.4560 N   0  0  0  0  0  0  0  0  0  0  0  0
   60.8160   30.8590   49.0530 C   0  0  0  0  0  0  0  0  0  0  0  0
   61.9780   31.6080   48.6570 N   0  0  0  0  0  0  0  0  0  0  0  0
   62.3250   31.7270   47.2400 C   0  0  0  0  0  0  0  0  0  0  0  0
   62.0310   33.1530   46.7320 C   0  0  0  0  0  0  0  0  0  0  0  0
   62.0900   34.1930   47.7930 N   0  0  0  0  0  0  0  0  0  0  0  0
   60.7400   34.5550   48.2830 C   0  0  0  0  0  0  0  0  0  0  0  0
   59.6750   34.2330   47.2660 C   0  0  0  0  0  0  0  0  0  0  0  0
   59.6370   34.9220   46.0420 C   0  0  0  0  0  0  0  0  0  0  0  0
   58.6430   34.6340   45.1020 C   0  0  0  0  0  0  0  0  0  0  0  0
   57.6860   33.6520   45.3730 C   0  0  0  0  0  0  0  0  0  0  0  0
   57.7180   32.9610   46.5890 C   0  0  0  0  0  0  0  0  0  0  0  0
   58.7080   33.2480   47.5340 C   0  0  0  0  0  0  0  0  0  0  0  0
   63.0320   33.8300   48.8790 C   0  0  0  0  0  0  0  0  0  0  0  0
   62.6080   32.5390   49.6000 C   0  0  0  0  0  0  0  0  0  0  0  0
   59.9090   31.3400   49.9980 C   0  0  0  0  0  0  0  0  0  0  0  0
   58.8050   30.6130   50.3000 C   0  0  0  0  0  0  0  0  0  0  0  0
   58.5270   29.4330   49.6990 N   0  0  0  0  0  0  0  0  0  0  0  0
   58.0440   31.2470   51.3050 N   0  0  0  0  0  0  0  0  0  0  0  0
   58.6380   32.3270   51.6340 N   0  0  0  0  0  0  0  0  0  0  0  0
   59.8770   32.5440   50.8740 C   0  0  0  0  0  0  0  0  0  0  0  0
   57.3730   28.5960   45.5420 C   0  0  0  0  0  0  0  0  0  0  0  0
   56.2204   31.0555   43.4673 H   0  0  0  0  0  0  0  0  0  0  0  0
   58.6523   31.6214   43.4427 H   0  0  0  0  0  0  0  0  0  0  0  0
   60.2691   30.2489   44.7579 H   0  0  0  0  0  0  0  0  0  0  0  0
   59.9817   27.1760   45.6577 H   0  0  0  0  0  0  0  0  0  0  0  0
   60.6173   28.6479   46.5013 H   0  0  0  0  0  0  0  0  0  0  0  0
   63.3953   31.5093   47.1095 H   0  0  0  0  0  0  0  0  0  0  0  0
   61.7205   31.0113   46.6635 H   0  0  0  0  0  0  0  0  0  0  0  0
   62.7712   33.4048   45.9582 H   0  0  0  0  0  0  0  0  0  0  0  0
   61.0014   33.1488   46.3449 H   0  0  0  0  0  0  0  0  0  0  0  0
   60.5331   33.9939   49.2062 H   0  0  0  0  0  0  0  0  0  0  0  0
   60.7211   35.6390   48.4691 H   0  0  0  0  0  0  0  0  0  0  0  0
   60.3923   35.6910   45.8225 H   0  0  0  0  0  0  0  0  0  0  0  0
   58.6140   35.1809   44.1480 H   0  0  0  0  0  0  0  0  0  0  0  0
   56.9078   33.4225   44.6302 H   0  0  0  0  0  0  0  0  0  0  0  0
   56.9627   32.1902   46.8022 H   0  0  0  0  0  0  0  0  0  0  0  0
   58.7303   32.7022   48.4888 H   0  0  0  0  0  0  0  0  0  0  0  0
   64.0330   33.6835   48.4470 H   0  0  0  0  0  0  0  0  0  0  0  0
   63.0331   34.6468   49.6158 H   0  0  0  0  0  0  0  0  0  0  0  0
   63.4958   32.0622   50.0411 H   0  0  0  0  0  0  0  0  0  0  0  0
   61.8834   32.7926   50.3878 H   0  0  0  0  0  0  0  0  0  0  0  0
   57.6580   28.9060   49.9400 H   0  0  0  0  0  0  0  0  0  0  0  0
   59.8271   33.4696   50.2817 H   0  0  0  0  0  0  0  0  0  0  0  0
   60.7716   32.6623   51.5030 H   0  0  0  0  0  0  0  0  0  0  0  0
   57.0091   27.7430   46.1335 H   0  0  0  0  0  0  0  0  0  0  0  0
  1  2  1  0
  2  3  2  0
  3  4  1  0
  4  5  2  0
  5  6  1  0
  6  7  1  0
  7  8  1  0
  8  9  1  0
  9 10  2  0
 10 11  1  0
 11 12  1  0
 12 13  1  0
 13 14  1  0
 14 15  1  0
 15 16  1  0
 16 17  1  0
 17 18  2  0
 18 19  1  0
 19 20  2  0
 20 21  1  0
 21 22  2  0
 15 23  1  0
 23 24  1  0
 11 25  2  0
 25 26  1  0
 26 27  2  0
 26 28  1  0
 28 29  2  0
 29 30  1  0
  6 31  2  0
 31  2  1  0
 27  9  1  0
 24 12  1  0
 30 25  1  0
 22 17  1  0
  3 32  1  0
  4 33  1  0
  5 34  1  0
  7 35  1  0
  7 36  1  0
 13 37  1  0
 13 38  1  0
 14 39  1  0
 14 40  1  0
 16 41  1  0
 16 42  1  0
 18 43  1  0
 19 44  1  0
 20 45  1  0
 21 46  1  0
 22 47  1  0
 23 48  1  0
 23 49  1  0
 24 50  1  0
 24 51  1  0
 27 52  1  0
 30 53  1  0
 30 54  1  0
 31 55  1  0
M  CHG  1  27   1
M  END
>  <UniqueID>  (21) 
21

>  <SMILES>  (21) 
Fc1cccc(CSc2nc(N3CCN(Cc4ccccc4)CC3)c3c([nH+]2)N=NC3)c1

>  <Energy>  (21) 
93.40105393078292

>  <Genealogy>  (21) 
Fc1cccc(CSc2nc(N3CCN(Cc4ccccc4)CC3)c3c([nH+]2)N=NC3)c1 (protonated)
Fc1cccc(CSc2nc(N3CCN(Cc4ccccc4)CC3)c3c([nH+]2)N=NC3)c1 (3D coordinates assigned)
Fc1cccc(CSc2nc(N3CCN(Cc4ccccc4)CC3)c3c([nH+]2)N=NC3)c1 (nonaromatic ring conformer: 93.40105393078292 kcal/mol)

>  <smiles>  (21) 
Fc1cccc(CSc2nc3c(c(N4CCN(Cc5ccccc5)CC4)n2)CN=N3)c1

>  <score_type>  (21) 
oracle

>  <origin>  (21) 
adg

>  <m_score__min__energy>  (21) 
-8.1600000000000001

>  <m_primary>  (21) 
energy

$$$$
21:0
     RDKit          3D

 28 29  0  0  0  0  0  0  0  0999 V2000
   58.1795   32.4847   41.8795 H   0  0  0  0  0  0  0  0  0  0  0  0
   57.4180   31.6910   41.8750 C   0  0  0  0  0  0  0  0  0  0  0  0
   57.0432   31.2939   40.9201 H   0  0  0  0  0  0  0  0  0  0  0  0
   56.9480   31.2090   43.0300 C   0  0  0  0  0  0  0  0  0  0  0  0
   57.3830   31.4620   44.3390 C   0  0  0  0  0  0  0  0  0  0  0  0
   58.2590   32.3700   44.8040 C   0  0  0  0  0  0  0  0  0  0  0  0
   58.8350   32.9395   44.0597 H   0  0  0  0  0  0  0  0  0  0  0  0
   58.5140   32.6680   46.2230 C   0  0  0  0  0  0  0  0  0  0  0  0
   59.3290   33.6790   46.6890 C   0  0  0  0  0  0  0  0  0  0  0  0
   59.9470   34.6500   45.8960 O   0  0  0  0  0  0  0  0  0  0  0  0
   59.2550   35.3730   44.8840 C   0  0  0  0  0  0  0  0  0  0  0  0
   58.5669   36.0920   45.3525 H   0  0  0  0  0  0  0  0  0  0  0  0
   59.9805   35.9139   44.2587 H   0  0  0  0  0  0  0  0  0  0  0  0
   58.6828   34.6719   44.2587 H   0  0  0  0  0  0  0  0  0  0  0  0
   59.4220   33.5350   48.0630 C   0  0  0  0  0  0  0  0  0  0  0  0
   59.9800   34.1731   48.7640 H   0  0  0  0  0  0  0  0  0  0  0  0
   58.6640   32.4180   48.3670 C   0  0  0  0  0  0  0  0  0  0  0  0
   58.5420   31.8040   49.7230 C   0  0  0  0  0  0  0  0  0  0  0  0
   58.6956   32.5768   50.4906 H   0  0  0  0  0  0  0  0  0  0  0  0
   57.5394   31.3665   49.8386 H   0  0  0  0  0  0  0  0  0  0  0  0
   59.3012   31.0165   49.8386 H   0  0  0  0  0  0  0  0  0  0  0  0
   58.1370   31.8790   47.2490 N   0  0  0  0  0  0  0  0  0  0  0  0
   57.5800   30.9980   47.1870 H   0  0  0  0  0  0  0  0  0  0  0  0
   56.7560   30.6060   45.1760 N   0  0  0  0  0  0  0  0  0  0  0  0
   55.9370   29.8980   44.3750 C   0  0  0  0  0  0  0  0  0  0  0  0
   55.1780   28.9890   44.8020 O   0  0  0  0  0  0  0  0  0  0  0  0
   56.0170   30.2390   43.0790 N   0  0  0  0  0  0  0  0  0  0  0  0
   55.5060   29.7990   42.2790 H   0  0  0  0  0  0  0  0  0  0  0  0
  1  2  1  0
  2  3  1  0
  2  4  2  0
  4  5  1  0
  5  6  2  0
  6  7  1  0
  6  8  1  0
  8  9  2  0
  9 10  1  0
 10 11  1  0
 11 12  1  0
 11 13  1  0
 11 14  1  0
  9 15  1  0
 15 16  1  0
 15 17  2  0
 17 18  1  0
 18 19  1  0
 18 20  1  0
 18 21  1  0
 17 22  1  0
 22 23  1  0
  5 24  1  0
 24 25  1  0
 25 26  2  0
 25 27  1  0
 27 28  1  0
 27  4  1  0
 22  8  1  0
M  CHG  1  24  -1
M  END
>  <UniqueID>  (22) 
22

>  <SMILES>  (22) 
C=c1[nH]c(=O)[n-]/c1=C/c1[nH]c(C)cc1OC

>  <Energy>  (22) 
92.26496841517161

>  <Genealogy>  (22) 
C=c1[nH]c(=O)[n-]c1=Cc1[nH]c(C)cc1OC (protonated)
C=c1[nH]c(=O)[n-]/c1=C/c1[nH]c(C)cc1OC (cis-trans isomerization)
C=c1[nH]c(=O)[n-]/c1=C/c1[nH]c(C)cc1OC (3D coordinates assigned)
C=c1[nH]c(=O)[n-]/c1=C/c1[nH]c(C)cc1OC (optimized conformer: 92.26496841517161 kcal/mol)

>  <smiles>  (22) 
C=c1[nH]c(=O)[nH]c1=Cc1[nH]c(C)cc1OC

>  <score_type>  (22) 
oracle

>  <origin>  (22) 
adg

>  <m_score__min__energy>  (22) 
-7.9199999999999999

>  <m_primary>  (22) 
energy

$$$$
22:0
     RDKit          3D

 50 51  0  0  0  0  0  0  0  0999 V2000
   56.8970   30.3953   52.4202 H   0  0  0  0  0  0  0  0  0  0  0  0
   57.6050   30.6630   51.6220 C   0  0  0  0  0  0  0  0  0  0  0  0
   58.1310   29.6920   50.8270 N   0  0  0  0  0  0  0  0  0  0  0  0
   59.0130   29.9650   49.8270 C   0  0  0  0  0  0  0  0  0  0  0  0
   59.4790   28.9710   49.1270 N   0  0  0  0  0  0  0  0  0  0  0  0
   59.1030   28.5930   47.7960 C   0  0  0  0  0  0  0  0  0  0  0  0
   58.0020   28.9960   47.3380 O   0  0  0  0  0  0  0  0  0  0  0  0
   59.9490   27.6160   47.0170 C   0  0  0  0  0  0  0  0  0  0  0  0
   59.6985   26.5982   47.3508 H   0  0  0  0  0  0  0  0  0  0  0  0
   60.9995   27.8781   47.2113 H   0  0  0  0  0  0  0  0  0  0  0  0
   59.7450   27.6900   45.4920 C   0  0  0  0  0  0  0  0  0  0  0  0
   60.5425   27.1178   44.9954 H   0  0  0  0  0  0  0  0  0  0  0  0
   59.7776   28.7466   45.1878 H   0  0  0  0  0  0  0  0  0  0  0  0
   58.4020   27.1170   45.0890 C   0  0  0  0  0  0  0  0  0  0  0  0
   57.9840   26.1520   45.7150 O   0  0  0  0  0  0  0  0  0  0  0  0
   57.6710   27.6110   43.9210 N   0  0  2  0  0  0  0  0  0  0  0  0
   56.6780   27.3030   44.0520 H   0  0  0  0  0  0  0  0  0  0  0  0
   58.1350   27.0060   42.6510 C   0  0  0  0  0  0  0  0  0  0  0  0
   58.7910   26.1507   42.8704 H   0  0  0  0  0  0  0  0  0  0  0  0
   57.2666   26.6624   42.0697 H   0  0  0  0  0  0  0  0  0  0  0  0
   58.6920   27.7556   42.0697 H   0  0  0  0  0  0  0  0  0  0  0  0
   57.6350   29.0960   43.8420 C   0  0  0  0  0  0  0  0  0  0  0  0
   57.6111   29.3829   42.7803 H   0  0  0  0  0  0  0  0  0  0  0  0
   58.5316   29.4586   44.3660 H   0  0  0  0  0  0  0  0  0  0  0  0
   56.4500   29.7320   44.5290 C   0  0  0  0  0  0  0  0  0  0  0  0
   55.4880   29.0020   44.8740 O   0  0  0  0  0  0  0  0  0  0  0  0
   56.3570   31.1560   44.6550 N   0  0  0  0  0  0  0  0  0  0  0  0
   57.3390   32.0310   45.2260 C   0  0  0  0  0  0  0  0  0  0  0  0
   57.1610   33.4270   45.2730 C   0  0  0  0  0  0  0  0  0  0  0  0
   56.2479   33.8778   44.8571 H   0  0  0  0  0  0  0  0  0  0  0  0
   58.1420   34.2420   45.8470 C   0  0  0  0  0  0  0  0  0  0  0  0
   58.0000   35.3325   45.8736 H   0  0  0  0  0  0  0  0  0  0  0  0
   59.3060   33.6770   46.3890 C   0  0  0  0  0  0  0  0  0  0  0  0
   60.3350   34.5610   47.0310 C   0  0  0  0  0  0  0  0  0  0  0  0
   60.2499   34.4879   48.1253 H   0  0  0  0  0  0  0  0  0  0  0  0
   61.3399   34.2403   46.7191 H   0  0  0  0  0  0  0  0  0  0  0  0
   60.1694   35.6028   46.7191 H   0  0  0  0  0  0  0  0  0  0  0  0
   59.4660   32.2840   46.3740 C   0  0  0  0  0  0  0  0  0  0  0  0
   60.3672   31.8310   46.8130 H   0  0  0  0  0  0  0  0  0  0  0  0
   58.4840   31.4690   45.8030 C   0  0  0  0  0  0  0  0  0  0  0  0
   58.6122   30.3765   45.8072 H   0  0  0  0  0  0  0  0  0  0  0  0
   59.3710   31.3030   49.5830 C   0  0  0  0  0  0  0  0  0  0  0  0
   60.0559   31.5504   48.7586 H   0  0  0  0  0  0  0  0  0  0  0  0
   58.8530   32.3150   50.3920 C   0  0  0  0  0  0  0  0  0  0  0  0
   59.1444   33.3612   50.2170 H   0  0  0  0  0  0  0  0  0  0  0  0
   57.9630   32.0010   51.4260 C   0  0  0  0  0  0  0  0  0  0  0  0
   57.4090   33.0660   52.3250 C   0  0  0  0  0  0  0  0  0  0  0  0
   57.5604   32.7749   53.3749 H   0  0  0  0  0  0  0  0  0  0  0  0
   57.9269   34.0166   52.1297 H   0  0  0  0  0  0  0  0  0  0  0  0
   56.3333   33.1876   52.1297 H   0  0  0  0  0  0  0  0  0  0  0  0
  1  2  1  0
  2  3  1  0
  3  4  1  0
  4  5  2  0
  5  6  1  0
  6  7  2  0
  6  8  1  0
  8  9  1  0
  8 10  1  0
  8 11  1  0
 11 12  1  0
 11 13  1  0
 11 14  1  0
 14 15  2  0
 14 16  1  0
 16 17  1  1
 16 18  1  0
 18 19  1  0
 18 20  1  0
 18 21  1  0
 16 22  1  0
 22 23  1  0
 22 24  1  0
 22 25  1  0
 25 26  2  0
 25 27  1  0
 27 28  1  0
 28 29  2  0
 29 30  1  0
 29 31  1  0
 31 32  1  0
 31 33  2  0
 33 34  1  0
 34 35  1  0
 34 36  1  0
 34 37  1  0
 33 38  1  0
 38 39  1  0
 38 40  2  0
 40 41  1  0
  4 42  1  0
 42 43  1  0
 42 44  2  0
 44 45  1  0
 44 46  1  0
 46 47  1  0
 47 48  1  0
 47 49  1  0
 47 50  1  0
 46  2  2  0
 40 28  1  0
M  CHG  3   3  -1  16   1  27  -1
M  END
>  <UniqueID>  (23) 
23

>  <SMILES>  (23) 
Cc1ccc([N-]C(=O)C[N@@H+](C)C(=O)CCC(=O)/N=c2\ccc(C)c[n-]2)cc1

>  <Energy>  (23) 
67.68505902356

>  <Genealogy>  (23) 
Cc1ccc([N-]C(=O)C[NH+](C)C(=O)CCC(=O)N=c2ccc(C)c[n-]2)cc1 (protonated)
Cc1ccc([N-]C(=O)C[N@@H+](C)C(=O)CCC(=O)N=c2ccc(C)c[n-]2)cc1 (chirality)
Cc1ccc([N-]C(=O)C[N@@H+](C)C(=O)CCC(=O)/N=c2\ccc(C)c[n-]2)cc1 (cis-trans isomerization)
Cc1ccc([N-]C(=O)C[N@@H+](C)C(=O)CCC(=O)/N=c2\ccc(C)c[n-]2)cc1 (3D coordinates assigned)
Cc1ccc([N-]C(=O)C[N@@H+](C)C(=O)CCC(=O)/N=c2\ccc(C)c[n-]2)cc1 (optimized conformer: 67.68505902356 kcal/mol)

>  <smiles>  (23) 
Cc1ccc(NC(=O)CN(C)C(=O)CCC(=O)N=c2ccc(C)c[nH]2)cc1

>  <score_type>  (23) 
oracle

>  <origin>  (23) 
adg

>  <m_score__min__energy>  (23) 
-10.26

>  <m_primary>  (23) 
energy

$$$$
23:0
     RDKit          3D

 52 53  0  0  0  0  0  0  0  0999 V2000
   56.4260   23.3250   43.2250 C   0  0  0  0  0  0  0  0  0  0  0  0
   56.5370   24.3050   44.1270 C   0  0  0  0  0  0  0  0  0  0  0  0
   57.8020   24.5250   44.9090 C   0  0  0  0  0  0  0  0  0  0  0  0
   57.7030   25.7400   45.7320 N   0  0  0  0  0  0  0  0  0  0  0  0
   58.1540   25.6730   47.1320 C   0  0  0  0  0  0  0  0  0  0  0  0
   59.1180   26.7800   47.4460 C   0  0  0  0  0  0  0  0  0  0  0  0
   60.2740   26.5000   47.8770 O   0  0  0  0  0  0  0  0  0  0  0  0
   58.7480   28.1430   47.1870 N   0  0  0  0  0  0  0  0  0  0  0  0
   59.4360   29.2770   47.7400 C   0  0  0  0  0  0  0  0  0  0  0  0
   58.8350   30.0130   48.7740 C   0  0  0  0  0  0  0  0  0  0  0  0
   59.4990   31.1000   49.3490 C   0  0  0  0  0  0  0  0  0  0  0  0
   60.7860   31.4610   48.9140 C   0  0  0  0  0  0  0  0  0  0  0  0
   61.4940   32.5950   49.5440 C   0  0  0  0  0  0  0  0  0  0  0  0
   61.2790   33.7800   49.1590 O   0  0  0  0  0  0  0  0  0  0  0  0
   62.4080   32.3730   50.5680 O   0  0  0  0  0  0  0  0  0  0  0  0
   61.3990   30.7060   47.8950 C   0  0  0  0  0  0  0  0  0  0  0  0
   60.7300   29.6250   47.3140 C   0  0  0  0  0  0  0  0  0  0  0  0
   57.1390   26.9520   45.1670 C   0  0  0  0  0  0  0  0  0  0  0  0
   56.0830   27.4390   45.6580 O   0  0  0  0  0  0  0  0  0  0  0  0
   57.7810   27.6770   44.0130 C   0  0  0  0  0  0  0  0  0  0  0  0
   58.3450   28.9540   44.4550 N   0  0  0  0  0  0  0  0  0  0  0  0
   57.1980   30.2480   44.2350 S   0  0  0  0  0  0  0  0  0  0  0  0
   55.8970   29.8710   44.8920 O   0  0  0  0  0  0  0  0  0  0  0  0
   56.9450   30.4640   42.7670 O   0  0  0  0  0  0  0  0  0  0  0  0
   57.8010   31.7330   44.9730 C   0  0  0  0  0  0  0  0  0  0  0  0
   59.0440   31.7320   45.6190 C   0  0  0  0  0  0  0  0  0  0  0  0
   59.5360   32.9050   46.2000 C   0  0  0  0  0  0  0  0  0  0  0  0
   58.7880   34.0900   46.1450 C   0  0  0  0  0  0  0  0  0  0  0  0
   59.3290   35.3560   46.7430 C   0  0  0  0  0  0  0  0  0  0  0  0
   57.5550   34.0950   45.4720 C   0  0  0  0  0  0  0  0  0  0  0  0
   57.0610   32.9210   44.8970 C   0  0  0  0  0  0  0  0  0  0  0  0
   55.4855   23.1921   42.6702 H   0  0  0  0  0  0  0  0  0  0  0  0
   57.2751   22.6514   43.0374 H   0  0  0  0  0  0  0  0  0  0  0  0
   55.6782   24.9696   44.3022 H   0  0  0  0  0  0  0  0  0  0  0  0
   57.9761   23.6588   45.5643 H   0  0  0  0  0  0  0  0  0  0  0  0
   58.6367   24.6448   44.2026 H   0  0  0  0  0  0  0  0  0  0  0  0
   57.2804   25.7594   47.7948 H   0  0  0  0  0  0  0  0  0  0  0  0
   58.6655   24.7116   47.2873 H   0  0  0  0  0  0  0  0  0  0  0  0
   57.9710   28.3190   46.5100 H   0  0  0  0  0  0  0  0  0  0  0  0
   57.8343   29.7319   49.1340 H   0  0  0  0  0  0  0  0  0  0  0  0
   59.0109   31.6774   50.1480 H   0  0  0  0  0  0  0  0  0  0  0  0
   62.4112   30.9690   47.5541 H   0  0  0  0  0  0  0  0  0  0  0  0
   61.2188   29.0430   46.5187 H   0  0  0  0  0  0  0  0  0  0  0  0
   58.5845   27.0522   43.5958 H   0  0  0  0  0  0  0  0  0  0  0  0
   57.0152   27.8738   43.2482 H   0  0  0  0  0  0  0  0  0  0  0  0
   59.6349   30.8056   45.6694 H   0  0  0  0  0  0  0  0  0  0  0  0
   60.5144   32.8982   46.7026 H   0  0  0  0  0  0  0  0  0  0  0  0
   59.2988   35.2853   47.8403 H   0  0  0  0  0  0  0  0  0  0  0  0
   60.3682   35.5023   46.4135 H   0  0  0  0  0  0  0  0  0  0  0  0
   58.7164   36.2082   46.4135 H   0  0  0  0  0  0  0  0  0  0  0  0
   56.9757   35.0271   45.3973 H   0  0  0  0  0  0  0  0  0  0  0  0
   56.0884   32.9292   44.3832 H   0  0  0  0  0  0  0  0  0  0  0  0
  1  2  2  0
  2  3  1  0
  3  4  1  0
  4  5  1  0
  5  6  1  0
  6  7  2  0
  6  8  1  0
  8  9  1  0
  9 10  2  0
 10 11  1  0
 11 12  2  0
 12 13  1  0
 13 14  2  0
 13 15  1  0
 12 16  1  0
 16 17  2  0
  4 18  1  0
 18 19  2  0
 18 20  1  0
 20 21  1  0
 21 22  1  0
 22 23  2  0
 22 24  2  0
 22 25  1  0
 25 26  2  0
 26 27  1  0
 27 28  2  0
 28 29  1  0
 28 30  1  0
 30 31  2  0
 17  9  1  0
 31 25  1  0
  1 32  1  0
  1 33  1  0
  2 34  1  0
  3 35  1  0
  3 36  1  0
  5 37  1  0
  5 38  1  0
  8 39  1  0
 10 40  1  0
 11 41  1  0
 16 42  1  0
 17 43  1  0
 20 44  1  0
 20 45  1  0
 26 46  1  0
 27 47  1  0
 29 48  1  0
 29 49  1  0
 29 50  1  0
 30 51  1  0
 31 52  1  0
M  CHG  2  15  -1  21  -1
M  END
>  <UniqueID>  (24) 
24

>  <SMILES>  (24) 
C=CCN(CC(=O)Nc1ccc(C(=O)[O-])cc1)C(=O)C[N-]S(=O)(=O)c1ccc(C)cc1

>  <Energy>  (24) 
48.63141536734563

>  <Genealogy>  (24) 
C=CCN(CC(=O)Nc1ccc(C(=O)[O-])cc1)C(=O)C[N-]S(=O)(=O)c1ccc(C)cc1 (protonated)
C=CCN(CC(=O)Nc1ccc(C(=O)[O-])cc1)C(=O)C[N-]S(=O)(=O)c1ccc(C)cc1 (3D coordinates assigned)
C=CCN(CC(=O)Nc1ccc(C(=O)[O-])cc1)C(=O)C[N-]S(=O)(=O)c1ccc(C)cc1 (optimized conformer: 48.63141536734563 kcal/mol)

>  <smiles>  (24) 
C=CCN(CC(=O)Nc1ccc(C(=O)O)cc1)C(=O)CNS(=O)(=O)c1ccc(C)cc1

>  <score_type>  (24) 
oracle

>  <origin>  (24) 
adg

>  <m_score__min__energy>  (24) 
-11.24

>  <m_primary>  (24) 
energy

$$$$
24:0
     RDKit          3D

 43 45  0  0  0  0  0  0  0  0999 V2000
   56.6920   30.3800   53.4690 H   0  0  0  0  0  0  0  0  0  0  0  0
   57.1700   31.2340   53.7280 O   0  0  0  0  0  0  0  0  0  0  0  0
   57.8710   31.9900   52.7910 C   0  0  0  0  0  0  0  0  0  0  0  0
   58.5230   33.1650   53.1750 C   0  0  0  0  0  0  0  0  0  0  0  0
   58.4843   33.4943   54.2238 H   0  0  0  0  0  0  0  0  0  0  0  0
   59.2230   33.9230   52.2350 C   0  0  0  0  0  0  0  0  0  0  0  0
   59.7289   34.8486   52.5470 H   0  0  0  0  0  0  0  0  0  0  0  0
   59.2860   33.5110   50.8900 C   0  0  0  0  0  0  0  0  0  0  0  0
   60.0030   34.2410   49.9280 O   0  0  0  0  0  0  0  0  0  0  0  0
   61.3230   33.9290   49.4920 C   0  0  0  0  0  0  0  0  0  0  0  0
   61.9716   33.7757   50.3671 H   0  0  0  0  0  0  0  0  0  0  0  0
   61.3017   33.0111   48.8861 H   0  0  0  0  0  0  0  0  0  0  0  0
   61.7149   34.7593   48.8861 H   0  0  0  0  0  0  0  0  0  0  0  0
   58.6240   32.3270   50.4970 C   0  0  0  0  0  0  0  0  0  0  0  0
   58.6690   31.8790   49.0850 C   0  0  0  0  0  0  0  0  0  0  0  0
   59.1750   30.6100   48.7590 C   0  0  0  0  0  0  0  0  0  0  0  0
   59.5386   29.9447   49.5560 H   0  0  0  0  0  0  0  0  0  0  0  0
   59.2190   30.1880   47.4270 C   0  0  0  0  0  0  0  0  0  0  0  0
   59.6307   29.1981   47.1808 H   0  0  0  0  0  0  0  0  0  0  0  0
   58.7420   31.0180   46.4030 C   0  0  0  0  0  0  0  0  0  0  0  0
   58.8420   30.5630   44.9990 C   0  0  0  0  0  0  0  0  0  0  0  0
   59.7011   30.9187   44.4112 H   0  0  0  0  0  0  0  0  0  0  0  0
   57.9680   29.7510   44.3860 C   0  0  0  0  0  0  0  0  0  0  0  0
   58.3585   29.0829   43.6042 H   0  0  0  0  0  0  0  0  0  0  0  0
   56.5180   29.6840   44.6800 C   0  0  0  0  0  0  0  0  0  0  0  0
   55.8050   30.7120   44.5340 O   0  0  0  0  0  0  0  0  0  0  0  0
   55.9140   28.5090   45.2450 N   0  0  0  0  0  0  0  0  0  0  0  0
   56.5250   27.4630   45.7230 C   0  0  0  0  0  0  0  0  0  0  0  0
   57.8840   27.4220   45.8280 N   0  0  0  0  0  0  0  0  0  0  0  0
   58.5410   26.3310   46.3040 C   0  0  0  0  0  0  0  0  0  0  0  0
   59.6384   26.3390   46.3786 H   0  0  0  0  0  0  0  0  0  0  0  0
   57.8230   25.2010   46.6980 C   0  0  0  0  0  0  0  0  0  0  0  0
   58.3480   24.3157   47.0860 H   0  0  0  0  0  0  0  0  0  0  0  0
   56.4300   25.2070   46.5940 C   0  0  0  0  0  0  0  0  0  0  0  0
   55.8507   24.3226   46.8979 H   0  0  0  0  0  0  0  0  0  0  0  0
   55.7740   26.3390   46.1030 C   0  0  0  0  0  0  0  0  0  0  0  0
   54.3870   26.3410   45.9950 O   0  0  0  0  0  0  0  0  0  0  0  0
   58.2650   32.3000   46.7260 C   0  0  0  0  0  0  0  0  0  0  0  0
   57.9260   32.9749   45.9263 H   0  0  0  0  0  0  0  0  0  0  0  0
   58.2190   32.7220   48.0570 C   0  0  0  0  0  0  0  0  0  0  0  0
   57.8278   33.7208   48.3007 H   0  0  0  0  0  0  0  0  0  0  0  0
   57.9170   31.5710   51.4560 C   0  0  0  0  0  0  0  0  0  0  0  0
   57.2440   30.4120   51.0840 O   0  0  0  0  0  0  0  0  0  0  0  0
  1  2  1  0
  2  3  1  0
  3  4  2  0
  4  5  1  0
  4  6  1  0
  6  7  1  0
  6  8  2  0
  8  9  1  0
  9 10  1  0
 10 11  1  0
 10 12  1  0
 10 13  1  0
  8 14  1  0
 14 15  1  0
 15 16  2  0
 16 17  1  0
 16 18  1  0
 18 19  1  0
 18 20  2  0
 20 21  1  0
 21 22  1  0
 21 23  2  0
 23 24  1  0
 23 25  1  0
 25 26  2  0
 25 27  1  0
 27 28  2  0
 28 29  1  0
 29 30  1  0
 30 31  1  0
 30 32  2  0
 32 33  1  0
 32 34  1  0
 34 35  1  0
 34 36  2  0
 36 37  1  0
 20 38  1  0
 38 39  1  0
 38 40  2  0
 40 41  1  0
 14 42  2  0
 42 43  1  0
 42  3  1  0
 40 15  1  0
 36 28  1  0
M  CHG  3  29  -1  37  -1  43  -1
M  END
>  <UniqueID>  (25) 
25

>  <SMILES>  (25) 
COc1ccc(O)c([O-])c1-c1ccc(/C=C\C(=O)/N=c2\[n-]cccc2[O-])cc1

>  <Energy>  (25) 
66.30336696623809

>  <Genealogy>  (25) 
COc1ccc(O)c([O-])c1-c1ccc(C=CC(=O)N=c2[n-]cccc2[O-])cc1 (protonated)
COc1ccc(O)c([O-])c1-c1ccc(/C=C\C(=O)/N=c2\[n-]cccc2[O-])cc1 (cis-trans isomerization)
COc1ccc(O)c([O-])c1-c1ccc(/C=C\C(=O)/N=c2\[n-]cccc2[O-])cc1 (3D coordinates assigned)
COc1ccc(O)c([O-])c1-c1ccc(/C=C\C(=O)/N=c2\[n-]cccc2[O-])cc1 (optimized conformer: 66.30336696623809 kcal/mol)

>  <smiles>  (25) 
COc1ccc(O)c(O)c1-c1ccc(C=CC(=O)N=c2[nH]cccc2O)cc1

>  <score_type>  (25) 
oracle

>  <origin>  (25) 
adg

>  <m_score__min__energy>  (25) 
-15.34

>  <m_primary>  (25) 
energy

$$$$
25:0
     RDKit          3D

 57 61  0  0  0  0  0  0  0  0999 V2000
   60.4770   35.2940   49.0810 H   0  0  0  0  0  0  0  0  0  0  0  0
   61.3180   34.9670   48.6690 O   0  0  0  0  0  0  0  0  0  0  0  0
   61.1020   33.6660   48.1710 C   0  0  2  0  0  0  0  0  0  0  0  0
   62.0156   33.0719   48.3204 H   0  0  0  0  0  0  0  0  0  0  0  0
   60.8150   33.7210   46.6650 C   0  0  0  0  0  0  0  0  0  0  0  0
   61.5446   34.3853   46.1789 H   0  0  0  0  0  0  0  0  0  0  0  0
   60.8957   32.7079   46.2442 H   0  0  0  0  0  0  0  0  0  0  0  0
   59.4010   34.2560   46.4220 C   0  0  1  0  0  0  0  0  0  0  0  0
   59.3806   35.2916   46.7922 H   0  0  0  0  0  0  0  0  0  0  0  0
   59.0380   34.3330   44.9300 C   0  0  0  0  0  0  0  0  0  0  0  0
   58.3565   35.1850   44.7899 H   0  0  0  0  0  0  0  0  0  0  0  0
   59.9911   34.4367   44.3907 H   0  0  0  0  0  0  0  0  0  0  0  0
   58.3680   33.1000   44.3610 C   0  0  0  0  0  0  0  0  0  0  0  0
   58.1740   33.0600   42.9800 C   0  0  0  0  0  0  0  0  0  0  0  0
   58.5657   33.8654   42.3414 H   0  0  0  0  0  0  0  0  0  0  0  0
   57.4830   31.9960   42.4190 C   0  0  0  0  0  0  0  0  0  0  0  0
   57.3280   31.9630   41.1660 O   0  0  0  0  0  0  0  0  0  0  0  0
   56.9820   31.0040   43.2140 N   0  0  0  0  0  0  0  0  0  0  0  0
   56.2800   29.8570   42.6100 C   0  0  0  0  0  0  0  0  0  0  0  0
   55.8836   29.2093   43.4058 H   0  0  0  0  0  0  0  0  0  0  0  0
   55.4502   30.2218   41.9867 H   0  0  0  0  0  0  0  0  0  0  0  0
   56.9824   29.2841   41.9867 H   0  0  0  0  0  0  0  0  0  0  0  0
   57.2050   31.0350   44.5680 C   0  0  0  0  0  0  0  0  0  0  0  0
   56.8120   30.0710   45.2870 O   0  0  0  0  0  0  0  0  0  0  0  0
   57.8610   32.0960   45.1500 N   0  0  0  0  0  0  0  0  0  0  0  0
   58.1530   32.0430   46.5950 C   0  0  0  0  0  0  0  0  0  0  0  0
   57.3062   31.5634   47.1077 H   0  0  0  0  0  0  0  0  0  0  0  0
   59.0839   31.4716   46.7250 H   0  0  0  0  0  0  0  0  0  0  0  0
   58.3740   33.4370   47.2080 C   0  0  1  0  0  0  0  0  0  0  0  0
   57.4166   33.9710   47.1170 H   0  0  0  0  0  0  0  0  0  0  0  0
   58.6510   33.3920   48.6060 O   0  0  0  0  0  0  0  0  0  0  0  0
   59.9620   32.9450   48.9570 C   0  0  1  0  0  0  0  0  0  0  0  0
   60.1824   33.2779   49.9820 H   0  0  0  0  0  0  0  0  0  0  0  0
   60.0230   31.4230   49.0550 C   0  0  0  0  0  0  0  0  0  0  0  0
   60.6760   30.7230   48.0260 C   0  0  0  0  0  0  0  0  0  0  0  0
   61.1117   31.2802   47.1835 H   0  0  0  0  0  0  0  0  0  0  0  0
   60.7800   29.3310   48.0570 C   0  0  0  0  0  0  0  0  0  0  0  0
   61.3010   28.8048   47.2436 H   0  0  0  0  0  0  0  0  0  0  0  0
   60.2250   28.5970   49.1180 C   0  0  0  0  0  0  0  0  0  0  0  0
   60.3400   27.1190   49.1570 C   0  0  0  0  0  0  0  0  0  0  0  0
   60.9920   26.5700   50.0860 O   0  0  0  0  0  0  0  0  0  0  0  0
   59.6360   26.3210   48.1890 N   0  0  0  0  0  0  0  0  0  0  0  0
   59.0830   26.6800   47.0610 C   0  0  0  0  0  0  0  0  0  0  0  0
   59.8240   27.1990   45.9760 C   0  0  0  0  0  0  0  0  0  0  0  0
   60.9151   27.3139   46.0551 H   0  0  0  0  0  0  0  0  0  0  0  0
   59.1620   27.5650   44.8030 C   0  0  0  0  0  0  0  0  0  0  0  0
   59.7328   27.9610   43.9502 H   0  0  0  0  0  0  0  0  0  0  0  0
   57.7790   27.4290   44.7120 C   0  0  0  0  0  0  0  0  0  0  0  0
   57.2522   27.7091   43.7879 H   0  0  0  0  0  0  0  0  0  0  0  0
   57.0700   26.9340   45.8050 C   0  0  0  0  0  0  0  0  0  0  0  0
   55.9767   26.8283   45.7465 H   0  0  0  0  0  0  0  0  0  0  0  0
   57.7250   26.5810   46.9440 N   0  0  0  0  0  0  0  0  0  0  0  0
   57.1630   26.2140   47.7460 H   0  0  0  0  0  0  0  0  0  0  0  0
   59.5630   29.2890   50.1460 C   0  0  0  0  0  0  0  0  0  0  0  0
   59.1210   28.7280   50.9826 H   0  0  0  0  0  0  0  0  0  0  0  0
   59.4600   30.6830   50.1170 C   0  0  0  0  0  0  0  0  0  0  0  0
   58.9355   31.2078   50.9291 H   0  0  0  0  0  0  0  0  0  0  0  0
  1  2  1  0
  2  3  1  0
  3  4  1  6
  3  5  1  0
  5  6  1  0
  5  7  1  0
  5  8  1  0
  8  9  1  1
  8 10  1  0
 10 11  1  0
 10 12  1  0
 10 13  1  0
 13 14  2  0
 14 15  1  0
 14 16  1  0
 16 17  2  0
 16 18  1  0
 18 19  1  0
 19 20  1  0
 19 21  1  0
 19 22  1  0
 18 23  1  0
 23 24  2  0
 23 25  1  0
 25 26  1  0
 26 27  1  0
 26 28  1  0
 26 29  1  0
 29 30  1  1
 29 31  1  0
 31 32  1  0
 32 33  1  1
 32 34  1  0
 34 35  2  0
 35 36  1  0
 35 37  1  0
 37 38  1  0
 37 39  2  0
 39 40  1  0
 40 41  2  0
 40 42  1  0
 42 43  2  0
 43 44  1  0
 44 45  1  0
 44 46  2  0
 46 47  1  0
 46 48  1  0
 48 49  1  0
 48 50  2  0
 50 51  1  0
 50 52  1  0
 52 53  1  0
 39 54  1  0
 54 55  1  0
 54 56  2  0
 56 57  1  0
 32  3  1  0
 56 34  1  0
 29  8  1  0
 52 43  1  0
 25 13  1  0
M  END
>  <UniqueID>  (26) 
26

>  <SMILES>  (26) 
Cn1c(=O)cc2n(c1=O)C[C@H]1O[C@@H](c3ccc(C(=O)/N=c4\cccc[nH]4)cc3)C(O)CC1C2

>  <Energy>  (26) 
97.0772929939587

>  <Genealogy>  (26) 
Cn1c(=O)cc2n(c1=O)C[C@H]1O[C@@H](c3ccc(C(=O)N=c4cccc[nH]4)cc3)C(O)CC1C2 (chirality)
Cn1c(=O)cc2n(c1=O)C[C@H]1O[C@@H](c3ccc(C(=O)/N=c4\cccc[nH]4)cc3)C(O)CC1C2 (cis-trans isomerization)
Cn1c(=O)cc2n(c1=O)C[C@H]1O[C@@H](c3ccc(C(=O)/N=c4\cccc[nH]4)cc3)C(O)CC1C2 (3D coordinates assigned)
Cn1c(=O)cc2n(c1=O)C[C@H]1O[C@@H](c3ccc(C(=O)/N=c4\cccc[nH]4)cc3)C(O)CC1C2 (nonaromatic ring conformer: 97.0772929939587 kcal/mol)

>  <smiles>  (26) 
Cn1c(=O)cc2n(c1=O)CC1OC(c3ccc(C(=O)N=c4cccc[nH]4)cc3)C(O)CC1C2

>  <score_type>  (26) 
oracle

>  <origin>  (26) 
adg

>  <m_score__min__energy>  (26) 
-8.8499999999999996

>  <m_primary>  (26) 
energy

$$$$
26:0
     RDKit          3D

 52 54  0  0  0  0  0  0  0  0999 V2000
   63.4050   31.9220   47.1930 C   0  0  0  0  0  0  0  0  0  0  0  0
   63.0130   33.3810   46.9610 C   0  0  0  0  0  0  0  0  0  0  0  0
   62.1390   33.9350   48.0940 C   0  0  0  0  0  0  0  0  0  0  0  0
   60.7710   33.4070   48.0280 N   0  0  0  0  0  0  0  0  0  0  0  0
   60.2500   32.6200   49.1100 C   0  0  0  0  0  0  0  0  0  0  0  0
   59.2240   33.1250   49.9260 C   0  0  0  0  0  0  0  0  0  0  0  0
   58.7290   32.3600   50.9870 C   0  0  0  0  0  0  0  0  0  0  0  0
   59.2520   31.0890   51.2390 C   0  0  0  0  0  0  0  0  0  0  0  0
   60.2700   30.5790   50.4270 C   0  0  0  0  0  0  0  0  0  0  0  0
   60.7680   31.3410   49.3640 C   0  0  0  0  0  0  0  0  0  0  0  0
   59.6870   33.9250   46.7710 S   0  0  0  0  0  0  0  0  0  0  0  0
   60.4640   34.4950   45.6160 O   0  0  0  0  0  0  0  0  0  0  0  0
   58.7890   35.0060   47.3070 O   0  0  0  0  0  0  0  0  0  0  0  0
   58.7220   32.5680   46.2020 C   0  0  0  0  0  0  0  0  0  0  0  0
   58.8460   31.3100   46.8050 C   0  0  0  0  0  0  0  0  0  0  0  0
   58.1090   30.2220   46.3270 C   0  0  0  0  0  0  0  0  0  0  0  0
   57.2350   30.3770   45.2370 C   0  0  0  0  0  0  0  0  0  0  0  0
   56.4640   29.2230   44.7180 C   0  0  0  0  0  0  0  0  0  0  0  0
   55.2280   29.3370   44.4980 O   0  0  0  0  0  0  0  0  0  0  0  0
   57.1160   27.9680   44.4790 N   0  0  0  0  0  0  0  0  0  0  0  0
   58.0470   27.3640   45.3860 C   0  0  0  0  0  0  0  0  0  0  0  0
   59.3980   27.7130   45.2720 C   0  0  0  0  0  0  0  0  0  0  0  0
   60.3370   27.2160   46.1780 C   0  0  0  0  0  0  0  0  0  0  0  0
   59.9350   26.3570   47.2010 C   0  0  0  0  0  0  0  0  0  0  0  0
   58.5970   25.9730   47.3090 C   0  0  0  0  0  0  0  0  0  0  0  0
   57.6390   26.4480   46.3930 C   0  0  0  0  0  0  0  0  0  0  0  0
   56.2560   25.9220   46.4750 C   0  0  0  0  0  0  0  0  0  0  0  0
   55.1540   26.6900   45.9960 N   0  0  0  0  0  0  0  0  0  0  0  0
   56.0470   24.7630   46.9290 O   0  0  0  0  0  0  0  0  0  0  0  0
   57.1120   31.6440   44.6380 C   0  0  0  0  0  0  0  0  0  0  0  0
   57.8500   32.7300   45.1170 C   0  0  0  0  0  0  0  0  0  0  0  0
   63.4582   31.7240   48.2737 H   0  0  0  0  0  0  0  0  0  0  0  0
   62.6521   31.2629   46.7361 H   0  0  0  0  0  0  0  0  0  0  0  0
   64.3868   31.7290   46.7361 H   0  0  0  0  0  0  0  0  0  0  0  0
   63.9285   33.9868   46.8916 H   0  0  0  0  0  0  0  0  0  0  0  0
   62.4287   33.4292   46.0302 H   0  0  0  0  0  0  0  0  0  0  0  0
   62.5845   33.6527   49.0593 H   0  0  0  0  0  0  0  0  0  0  0  0
   62.0913   35.0289   47.9886 H   0  0  0  0  0  0  0  0  0  0  0  0
   58.8089   34.1246   49.7299 H   0  0  0  0  0  0  0  0  0  0  0  0
   57.9264   32.7596   51.6243 H   0  0  0  0  0  0  0  0  0  0  0  0
   58.8632   30.4899   52.0756 H   0  0  0  0  0  0  0  0  0  0  0  0
   60.6799   29.5774   50.6241 H   0  0  0  0  0  0  0  0  0  0  0  0
   61.5675   30.9362   48.7261 H   0  0  0  0  0  0  0  0  0  0  0  0
   59.5266   31.1772   47.6589 H   0  0  0  0  0  0  0  0  0  0  0  0
   58.2139   29.2380   46.8073 H   0  0  0  0  0  0  0  0  0  0  0  0
   59.7221   28.3837   44.4627 H   0  0  0  0  0  0  0  0  0  0  0  0
   61.3950   27.5022   46.0850 H   0  0  0  0  0  0  0  0  0  0  0  0
   60.6738   25.9813   47.9242 H   0  0  0  0  0  0  0  0  0  0  0  0
   58.2885   25.2933   48.1170 H   0  0  0  0  0  0  0  0  0  0  0  0
   55.1880   27.1540   45.0620 H   0  0  0  0  0  0  0  0  0  0  0  0
   56.4297   31.7810   43.7861 H   0  0  0  0  0  0  0  0  0  0  0  0
   57.7459   33.7159   44.6404 H   0  0  0  0  0  0  0  0  0  0  0  0
  1  2  1  0
  2  3  1  0
  3  4  1  0
  4  5  1  0
  5  6  2  0
  6  7  1  0
  7  8  2  0
  8  9  1  0
  9 10  2  0
  4 11  1  0
 11 12  2  0
 11 13  2  0
 11 14  1  0
 14 15  2  0
 15 16  1  0
 16 17  2  0
 17 18  1  0
 18 19  2  0
 18 20  1  0
 20 21  1  0
 21 22  2  0
 22 23  1  0
 23 24  2  0
 24 25  1  0
 25 26  2  0
 26 27  1  0
 27 28  1  0
 27 29  2  0
 17 30  1  0
 30 31  2  0
 10  5  1  0
 31 14  1  0
 26 21  1  0
  1 32  1  0
  1 33  1  0
  1 34  1  0
  2 35  1  0
  2 36  1  0
  3 37  1  0
  3 38  1  0
  6 39  1  0
  7 40  1  0
  8 41  1  0
  9 42  1  0
 10 43  1  0
 15 44  1  0
 16 45  1  0
 22 46  1  0
 23 47  1  0
 24 48  1  0
 25 49  1  0
 28 50  1  0
 30 51  1  0
 31 52  1  0
M  CHG  2  20  -1  28  -1
M  END
>  <UniqueID>  (27) 
27

>  <SMILES>  (27) 
CCCN(c1ccccc1)S(=O)(=O)c1ccc(C(=O)[N-]c2ccccc2C([NH-])=O)cc1

>  <Energy>  (27) 
65.45570410145956

>  <Genealogy>  (27) 
CCCN(c1ccccc1)S(=O)(=O)c1ccc(C(=O)[N-]c2ccccc2C([NH-])=O)cc1 (protonated)
CCCN(c1ccccc1)S(=O)(=O)c1ccc(C(=O)[N-]c2ccccc2C([NH-])=O)cc1 (3D coordinates assigned)
CCCN(c1ccccc1)S(=O)(=O)c1ccc(C(=O)[N-]c2ccccc2C([NH-])=O)cc1 (optimized conformer: 65.45570410145956 kcal/mol)

>  <smiles>  (27) 
CCCN(c1ccccc1)S(=O)(=O)c1ccc(C(=O)Nc2ccccc2C(N)=O)cc1

>  <score_type>  (27) 
oracle

>  <origin>  (27) 
adg

>  <m_score__min__energy>  (27) 
-14.539999999999999

>  <m_primary>  (27) 
energy

$$$$
27:0
     RDKit          3D

 46 48  0  0  0  0  0  0  0  0999 V2000
   56.2580   30.1600   42.5550 C   0  0  0  0  0  0  0  0  0  0  0  0
   56.3970   29.9240   44.0720 C   0  0  0  0  0  0  0  0  0  0  0  0
   57.5860   29.1150   44.5200 N   0  0  1  0  0  0  0  0  0  0  0  0
   57.9990   28.2240   43.3970 C   0  0  0  0  0  0  0  0  0  0  0  0
   58.6990   30.0770   44.8440 C   0  0  0  0  0  0  0  0  0  0  0  0
   58.2790   31.4890   45.2080 C   0  0  0  0  0  0  0  0  0  0  0  0
   58.1590   32.4660   44.2010 C   0  0  0  0  0  0  0  0  0  0  0  0
   57.8350   33.7860   44.5300 C   0  0  0  0  0  0  0  0  0  0  0  0
   57.6500   34.1500   45.8650 C   0  0  0  0  0  0  0  0  0  0  0  0
   57.8100   33.1990   46.8760 C   0  0  0  0  0  0  0  0  0  0  0  0
   58.1430   31.8800   46.5520 C   0  0  0  0  0  0  0  0  0  0  0  0
   57.1450   28.3430   45.7540 C   0  0  0  0  0  0  0  0  0  0  0  0
   57.7640   26.9520   45.9700 C   0  0  0  0  0  0  0  0  0  0  0  0
   59.1530   26.8910   46.1650 C   0  0  0  0  0  0  0  0  0  0  0  0
   59.8010   25.6620   46.2310 C   0  0  0  0  0  0  0  0  0  0  0  0
   61.0520   25.6170   46.3690 O   0  0  0  0  0  0  0  0  0  0  0  0
   59.1120   24.5370   46.1480 O   0  0  0  0  0  0  0  0  0  0  0  0
   57.7900   24.5110   46.0350 C   0  0  0  0  0  0  0  0  0  0  0  0
   57.1560   23.2660   45.9820 C   0  0  0  0  0  0  0  0  0  0  0  0
   55.7670   23.1820   45.9050 C   0  0  0  0  0  0  0  0  0  0  0  0
   55.1300   21.9440   45.8470 O   0  0  0  0  0  0  0  0  0  0  0  0
   55.0050   24.3490   45.8960 C   0  0  0  0  0  0  0  0  0  0  0  0
   55.6160   25.6060   45.9490 C   0  0  0  0  0  0  0  0  0  0  0  0
   54.7800   26.7100   45.9980 O   0  0  0  0  0  0  0  0  0  0  0  0
   57.0350   25.7180   45.9790 C   0  0  0  0  0  0  0  0  0  0  0  0
   55.7070   31.0955   42.3784 H   0  0  0  0  0  0  0  0  0  0  0  0
   57.2578   30.2322   42.1020 H   0  0  0  0  0  0  0  0  0  0  0  0
   55.7100   29.3206   42.1020 H   0  0  0  0  0  0  0  0  0  0  0  0
   56.4598   30.9083   44.5590 H   0  0  0  0  0  0  0  0  0  0  0  0
   55.5164   29.3292   44.3560 H   0  0  0  0  0  0  0  0  0  0  0  0
   58.4288   27.2967   43.8037 H   0  0  0  0  0  0  0  0  0  0  0  0
   57.1215   27.9814   42.7796 H   0  0  0  0  0  0  0  0  0  0  0  0
   58.7512   28.7369   42.7796 H   0  0  0  0  0  0  0  0  0  0  0  0
   59.2622   29.6646   45.6941 H   0  0  0  0  0  0  0  0  0  0  0  0
   59.2840   30.1734   43.9175 H   0  0  0  0  0  0  0  0  0  0  0  0
   58.3212   32.1891   43.1488 H   0  0  0  0  0  0  0  0  0  0  0  0
   57.7257   34.5388   43.7355 H   0  0  0  0  0  0  0  0  0  0  0  0
   57.3785   35.1848   46.1208 H   0  0  0  0  0  0  0  0  0  0  0  0
   57.6738   33.4883   47.9285 H   0  0  0  0  0  0  0  0  0  0  0  0
   58.2996   31.1434   47.3538 H   0  0  0  0  0  0  0  0  0  0  0  0
   57.3921   28.9556   46.6336 H   0  0  0  0  0  0  0  0  0  0  0  0
   56.0716   28.1558   45.6033 H   0  0  0  0  0  0  0  0  0  0  0  0
   59.7323   27.8206   46.2662 H   0  0  0  0  0  0  0  0  0  0  0  0
   57.7582   22.3457   46.0012 H   0  0  0  0  0  0  0  0  0  0  0  0
   54.9040   21.4250   46.6880 H   0  0  0  0  0  0  0  0  0  0  0  0
   53.9083   24.2805   45.8465 H   0  0  0  0  0  0  0  0  0  0  0  0
  1  2  1  0
  3  2  1  6
  3  4  1  0
  3  5  1  0
  5  6  1  0
  6  7  2  0
  7  8  1  0
  8  9  2  0
  9 10  1  0
 10 11  2  0
  3 12  1  0
 12 13  1  0
 13 14  2  0
 14 15  1  0
 15 16  2  0
 15 17  1  0
 17 18  1  0
 18 19  2  0
 19 20  1  0
 20 21  1  0
 20 22  2  0
 22 23  1  0
 23 24  1  0
 23 25  2  0
 11  6  1  0
 25 13  1  0
 25 18  1  0
  1 26  1  0
  1 27  1  0
  1 28  1  0
  2 29  1  0
  2 30  1  0
  4 31  1  0
  4 32  1  0
  4 33  1  0
  5 34  1  0
  5 35  1  0
  7 36  1  0
  8 37  1  0
  9 38  1  0
 10 39  1  0
 11 40  1  0
 12 41  1  0
 12 42  1  0
 14 43  1  0
 19 44  1  0
 21 45  1  0
 22 46  1  0
M  CHG  2   3   1  24  -1
M  END
>  <UniqueID>  (28) 
28

>  <SMILES>  (28) 
CC[N@@+](C)(Cc1ccccc1)Cc1cc(=O)oc2cc(O)cc([O-])c12

>  <Energy>  (28) 
83.03360442892921

>  <Genealogy>  (28) 
CC[N+](C)(Cc1ccccc1)Cc1cc(=O)oc2cc(O)cc([O-])c12 (protonated)
CC[N@@+](C)(Cc1ccccc1)Cc1cc(=O)oc2cc(O)cc([O-])c12 (chirality)
CC[N@@+](C)(Cc1ccccc1)Cc1cc(=O)oc2cc(O)cc([O-])c12 (3D coordinates assigned)
CC[N@@+](C)(Cc1ccccc1)Cc1cc(=O)oc2cc(O)cc([O-])c12 (optimized conformer: 83.03360442892921 kcal/mol)

>  <smiles>  (28) 
CC[N+](C)(Cc1ccccc1)Cc1cc(=O)oc2cc(O)cc(O)c12

>  <score_type>  (28) 
oracle

>  <origin>  (28) 
adg

>  <m_score__min__energy>  (28) 
-9.6199999999999992

>  <m_primary>  (28) 
energy

$$$$
28:0
     RDKit          3D

 54 56  0  0  0  0  0  0  0  0999 V2000
   57.1550   34.1690   45.2310 C   0  0  0  0  0  0  0  0  0  0  0  0
   58.2650   33.4900   44.4250 C   0  0  0  0  0  0  0  0  0  0  0  0
   58.2430   32.0250   44.6010 N   0  0  0  0  0  0  0  0  0  0  0  0
   57.4950   31.2080   43.6270 C   0  0  0  0  0  0  0  0  0  0  0  0
   57.1610   29.8630   44.2060 C   0  0  0  0  0  0  0  0  0  0  0  0
   56.0980   29.7230   44.8750 O   0  0  0  0  0  0  0  0  0  0  0  0
   58.0760   28.7650   44.0690 N   0  0  0  0  0  0  0  0  0  0  0  0
   57.6840   27.3880   44.1960 C   0  0  0  0  0  0  0  0  0  0  0  0
   57.7710   26.5060   43.1030 C   0  0  0  0  0  0  0  0  0  0  0  0
   57.4160   25.1620   43.2540 C   0  0  0  0  0  0  0  0  0  0  0  0
   56.9550   24.6840   44.4950 C   0  0  0  0  0  0  0  0  0  0  0  0
   56.6060   23.3070   44.6920 N   0  0  0  0  0  0  0  0  0  0  0  0
   56.8390   22.2170   43.7910 C   0  0  0  0  0  0  0  0  0  0  0  0
   58.1440   21.4750   43.7590 C   0  0  0  0  0  0  0  0  0  0  0  0
   55.9260   21.8790   42.9930 O   0  0  0  0  0  0  0  0  0  0  0  0
   56.9150   25.5530   45.5920 C   0  0  0  0  0  0  0  0  0  0  0  0
   57.2750   26.8950   45.4460 C   0  0  0  0  0  0  0  0  0  0  0  0
   58.9270   31.3650   45.6940 C   0  0  0  0  0  0  0  0  0  0  0  0
   59.6590   30.3670   45.4490 O   0  0  0  0  0  0  0  0  0  0  0  0
   58.8270   31.8210   47.1320 C   0  0  0  0  0  0  0  0  0  0  0  0
   60.0190   31.4700   47.9290 N   0  0  0  0  0  0  0  0  0  0  0  0
   59.8950   30.5340   49.0250 C   0  0  0  0  0  0  0  0  0  0  0  0
   58.7620   30.1700   49.4440 O   0  0  0  0  0  0  0  0  0  0  0  0
   61.1270   29.9230   49.6200 C   0  0  0  0  0  0  0  0  0  0  0  0
   62.1920   30.8680   49.6430 O   0  0  0  0  0  0  0  0  0  0  0  0
   62.3570   31.8370   48.6490 C   0  0  0  0  0  0  0  0  0  0  0  0
   63.5790   32.5100   48.5570 C   0  0  0  0  0  0  0  0  0  0  0  0
   63.7680   33.4890   47.5820 C   0  0  0  0  0  0  0  0  0  0  0  0
   62.7340   33.8070   46.7000 C   0  0  0  0  0  0  0  0  0  0  0  0
   61.5020   33.1530   46.7950 C   0  0  0  0  0  0  0  0  0  0  0  0
   61.2950   32.1480   47.7670 C   0  0  0  0  0  0  0  0  0  0  0  0
   57.3550   34.0467   46.3057 H   0  0  0  0  0  0  0  0  0  0  0  0
   57.1248   35.2403   44.9833 H   0  0  0  0  0  0  0  0  0  0  0  0
   56.1875   33.7080   44.9833 H   0  0  0  0  0  0  0  0  0  0  0  0
   58.1269   33.7240   43.3591 H   0  0  0  0  0  0  0  0  0  0  0  0
   59.2333   33.8663   44.7865 H   0  0  0  0  0  0  0  0  0  0  0  0
   56.5629   31.7277   43.3604 H   0  0  0  0  0  0  0  0  0  0  0  0
   58.1204   31.0626   42.7339 H   0  0  0  0  0  0  0  0  0  0  0  0
   59.0810   28.9820   43.8880 H   0  0  0  0  0  0  0  0  0  0  0  0
   58.1193   26.8749   42.1270 H   0  0  0  0  0  0  0  0  0  0  0  0
   57.4974   24.4750   42.3988 H   0  0  0  0  0  0  0  0  0  0  0  0
   58.4819   21.2829   44.7880 H   0  0  0  0  0  0  0  0  0  0  0  0
   58.0091   20.5185   43.2328 H   0  0  0  0  0  0  0  0  0  0  0  0
   58.8970   22.0800   43.2328 H   0  0  0  0  0  0  0  0  0  0  0  0
   56.5979   25.1765   46.5757 H   0  0  0  0  0  0  0  0  0  0  0  0
   57.2379   27.5690   46.3145 H   0  0  0  0  0  0  0  0  0  0  0  0
   58.7045   32.9141   47.1461 H   0  0  0  0  0  0  0  0  0  0  0  0
   57.9650   31.3072   47.5826 H   0  0  0  0  0  0  0  0  0  0  0  0
   60.9094   29.5980   50.6481 H   0  0  0  0  0  0  0  0  0  0  0  0
   61.4290   29.0620   49.0056 H   0  0  0  0  0  0  0  0  0  0  0  0
   64.3933   32.2667   49.2553 H   0  0  0  0  0  0  0  0  0  0  0  0
   64.7333   34.0113   47.5079 H   0  0  0  0  0  0  0  0  0  0  0  0
   62.8890   34.5747   45.9276 H   0  0  0  0  0  0  0  0  0  0  0  0
   60.6869   33.4229   46.1074 H   0  0  0  0  0  0  0  0  0  0  0  0
  1  2  1  0
  2  3  1  0
  3  4  1  0
  4  5  1  0
  5  6  2  0
  5  7  1  0
  7  8  1  0
  8  9  2  0
  9 10  1  0
 10 11  2  0
 11 12  1  0
 12 13  1  0
 13 14  1  0
 13 15  2  0
 11 16  1  0
 16 17  2  0
  3 18  1  0
 18 19  2  0
 18 20  1  0
 20 21  1  0
 21 22  1  0
 22 23  2  0
 22 24  1  0
 24 25  1  0
 25 26  1  0
 26 27  2  0
 27 28  1  0
 28 29  2  0
 29 30  1  0
 30 31  2  0
 17  8  1  0
 31 21  1  0
 31 26  1  0
  1 32  1  0
  1 33  1  0
  1 34  1  0
  2 35  1  0
  2 36  1  0
  4 37  1  0
  4 38  1  0
  7 39  1  0
  9 40  1  0
 10 41  1  0
 14 42  1  0
 14 43  1  0
 14 44  1  0
 16 45  1  0
 17 46  1  0
 20 47  1  0
 20 48  1  0
 24 49  1  0
 24 50  1  0
 27 51  1  0
 28 52  1  0
 29 53  1  0
 30 54  1  0
M  CHG  1  12  -1
M  END
>  <UniqueID>  (29) 
29

>  <SMILES>  (29) 
CCN(CC(=O)Nc1ccc([N-]C(C)=O)cc1)C(=O)CN1C(=O)COc2ccccc21

>  <Energy>  (29) 
64.36228538762607

>  <Genealogy>  (29) 
CCN(CC(=O)Nc1ccc([N-]C(C)=O)cc1)C(=O)CN1C(=O)COc2ccccc21 (protonated)
CCN(CC(=O)Nc1ccc([N-]C(C)=O)cc1)C(=O)CN1C(=O)COc2ccccc21 (3D coordinates assigned)
CCN(CC(=O)Nc1ccc([N-]C(C)=O)cc1)C(=O)CN1C(=O)COc2ccccc21 (nonaromatic ring conformer: 64.36228538762607 kcal/mol)

>  <smiles>  (29) 
CCN(CC(=O)Nc1ccc(NC(C)=O)cc1)C(=O)CN1C(=O)COc2ccccc21

>  <score_type>  (29) 
oracle

>  <origin>  (29) 
adg

>  <m_score__min__energy>  (29) 
-9.5

>  <m_primary>  (29) 
energy

$$$$
29:0
     RDKit          3D

 53 55  0  0  0  0  0  0  0  0999 V2000
   56.6370   28.9660   45.6070 O   0  0  0  0  0  0  0  0  0  0  0  0
   57.4940   29.8530   45.3450 C   0  0  0  0  0  0  0  0  0  0  0  0
   58.9520   29.5230   45.4560 C   0  0  0  0  0  0  0  0  0  0  0  0
   59.3170   28.2970   44.6100 C   0  0  0  0  0  0  0  0  0  0  0  0
   58.6370   27.0540   45.1100 C   0  0  0  0  0  0  0  0  0  0  0  0
   59.1990   26.3610   46.0010 O   0  0  0  0  0  0  0  0  0  0  0  0
   57.3230   26.7110   44.6400 N   0  0  0  0  0  0  0  0  0  0  0  0
   56.6520   25.4780   44.9530 C   0  0  0  0  0  0  0  0  0  0  0  0
   57.1890   24.2400   44.5540 C   0  0  0  0  0  0  0  0  0  0  0  0
   56.5210   23.0430   44.8530 C   0  0  0  0  0  0  0  0  0  0  0  0
   57.1940   21.4890   44.3660 S   0  0  0  0  0  0  0  0  0  0  0  0
   56.2650   20.8690   43.3610 O   0  0  0  0  0  0  0  0  0  0  0  0
   58.5380   21.6870   43.7200 O   0  0  0  0  0  0  0  0  0  0  0  0
   57.3480   20.4270   45.7490 N   0  0  0  0  0  0  0  0  0  0  0  0
   56.6280   19.1520   45.5560 C   0  0  0  0  0  0  0  0  0  0  0  0
   55.1020   19.2940   45.6950 C   0  0  0  0  0  0  0  0  0  0  0  0
   54.6830   20.2630   46.8140 C   0  0  0  0  0  0  0  0  0  0  0  0
   55.8310   20.5470   47.7800 C   0  0  0  0  0  0  0  0  0  0  0  0
   57.0380   21.1260   47.0210 C   0  0  0  0  0  0  0  0  0  0  0  0
   55.3040   23.0840   45.5420 C   0  0  0  0  0  0  0  0  0  0  0  0
   54.7520   24.3090   45.9200 C   0  0  0  0  0  0  0  0  0  0  0  0
   55.4130   25.5030   45.6200 C   0  0  0  0  0  0  0  0  0  0  0  0
   54.8380   26.7130   45.9930 O   0  0  0  0  0  0  0  0  0  0  0  0
   57.0950   31.1990   45.0570 N   0  0  0  0  0  0  0  0  0  0  0  0
   57.7950   32.4030   45.4100 C   0  0  0  0  0  0  0  0  0  0  0  0
   58.0070   33.4450   44.4890 C   0  0  0  0  0  0  0  0  0  0  0  0
   58.6950   34.6000   44.8750 C   0  0  0  0  0  0  0  0  0  0  0  0
   59.1900   34.7180   46.1750 C   0  0  0  0  0  0  0  0  0  0  0  0
   59.0070   33.6770   47.0890 C   0  0  0  0  0  0  0  0  0  0  0  0
   58.3240   32.5180   46.7060 C   0  0  0  0  0  0  0  0  0  0  0  0
   58.1660   31.5090   47.6010 F   0  0  0  0  0  0  0  0  0  0  0  0
   59.5409   30.3848   45.1090 H   0  0  0  0  0  0  0  0  0  0  0  0
   59.1749   29.2946   46.5087 H   0  0  0  0  0  0  0  0  0  0  0  0
   59.0093   28.4776   43.5695 H   0  0  0  0  0  0  0  0  0  0  0  0
   60.4042   28.1443   44.6790 H   0  0  0  0  0  0  0  0  0  0  0  0
   56.7970   27.4320   44.0940 H   0  0  0  0  0  0  0  0  0  0  0  0
   58.1406   24.2105   44.0030 H   0  0  0  0  0  0  0  0  0  0  0  0
   56.8540   18.7712   44.5491 H   0  0  0  0  0  0  0  0  0  0  0  0
   56.9664   18.4616   46.3427 H   0  0  0  0  0  0  0  0  0  0  0  0
   54.6971   19.6647   44.7418 H   0  0  0  0  0  0  0  0  0  0  0  0
   54.7038   18.3022   45.9553 H   0  0  0  0  0  0  0  0  0  0  0  0
   54.3571   21.2106   46.3604 H   0  0  0  0  0  0  0  0  0  0  0  0
   53.8664   19.7945   47.3829 H   0  0  0  0  0  0  0  0  0  0  0  0
   55.4971   21.2717   48.5372 H   0  0  0  0  0  0  0  0  0  0  0  0
   56.1313   19.6063   48.2647 H   0  0  0  0  0  0  0  0  0  0  0  0
   56.8281   22.1814   46.7926 H   0  0  0  0  0  0  0  0  0  0  0  0
   57.9137   20.9978   47.6742 H   0  0  0  0  0  0  0  0  0  0  0  0
   54.7806   22.1479   45.7866 H   0  0  0  0  0  0  0  0  0  0  0  0
   53.7921   24.3346   46.4566 H   0  0  0  0  0  0  0  0  0  0  0  0
   57.6298   33.3510   43.4600 H   0  0  0  0  0  0  0  0  0  0  0  0
   58.8462   35.4163   44.1534 H   0  0  0  0  0  0  0  0  0  0  0  0
   59.7239   35.6302   46.4797 H   0  0  0  0  0  0  0  0  0  0  0  0
   59.4009   33.7692   48.1119 H   0  0  0  0  0  0  0  0  0  0  0  0
  1  2  2  0
  2  3  1  0
  3  4  1  0
  4  5  1  0
  5  6  2  0
  5  7  1  0
  7  8  1  0
  8  9  2  0
  9 10  1  0
 10 11  1  0
 11 12  2  0
 11 13  2  0
 11 14  1  0
 14 15  1  0
 15 16  1  0
 16 17  1  0
 17 18  1  0
 18 19  1  0
 10 20  2  0
 20 21  1  0
 21 22  2  0
 22 23  1  0
  2 24  1  0
 24 25  1  0
 25 26  2  0
 26 27  1  0
 27 28  2  0
 28 29  1  0
 29 30  2  0
 30 31  1  0
 22  8  1  0
 30 25  1  0
 19 14  1  0
  3 32  1  0
  3 33  1  0
  4 34  1  0
  4 35  1  0
  7 36  1  0
  9 37  1  0
 15 38  1  0
 15 39  1  0
 16 40  1  0
 16 41  1  0
 17 42  1  0
 17 43  1  0
 18 44  1  0
 18 45  1  0
 19 46  1  0
 19 47  1  0
 20 48  1  0
 21 49  1  0
 26 50  1  0
 27 51  1  0
 28 52  1  0
 29 53  1  0
M  CHG  2  23  -1  24  -1
M  END
>  <UniqueID>  (30) 
30

>  <SMILES>  (30) 
O=C(CCC(=O)Nc1cc(S(=O)(=O)N2CCCCC2)ccc1[O-])[N-]c1ccccc1F

>  <Energy>  (30) 
62.635545648165525

>  <Genealogy>  (30) 
O=C(CCC(=O)Nc1cc(S(=O)(=O)N2CCCCC2)ccc1[O-])[N-]c1ccccc1F (protonated)
O=C(CCC(=O)Nc1cc(S(=O)(=O)N2CCCCC2)ccc1[O-])[N-]c1ccccc1F (3D coordinates assigned)
O=C(CCC(=O)Nc1cc(S(=O)(=O)N2CCCCC2)ccc1[O-])[N-]c1ccccc1F (nonaromatic ring conformer: 62.635545648165525 kcal/mol)

>  <smiles>  (30) 
O=C(CCC(=O)Nc1ccccc1F)Nc1cc(S(=O)(=O)N2CCCCC2)ccc1O

>  <score_type>  (30) 
oracle

>  <origin>  (30) 
adg

>  <m_score__min__energy>  (30) 
-13.720000000000001

>  <m_primary>  (30) 
energy

$$$$
30:0
     RDKit          3D

 57 61  0  0  0  0  0  0  0  0999 V2000
   54.7630   28.7740   52.3790 N   0  0  0  0  0  0  0  0  0  0  0  0
   54.7890   30.4760   52.6840 S   0  0  0  0  0  0  0  0  0  0  0  0
   54.2940   30.7430   54.0780 O   0  0  0  0  0  0  0  0  0  0  0  0
   53.8830   31.1730   51.7080 O   0  0  0  0  0  0  0  0  0  0  0  0
   56.4350   31.0810   52.5140 C   0  0  0  0  0  0  0  0  0  0  0  0
   57.1380   31.5430   53.6330 C   0  0  0  0  0  0  0  0  0  0  0  0
   58.4340   32.0380   53.4900 C   0  0  0  0  0  0  0  0  0  0  0  0
   59.0350   32.0820   52.2290 C   0  0  0  0  0  0  0  0  0  0  0  0
   58.3430   31.6290   51.0910 C   0  0  0  0  0  0  0  0  0  0  0  0
   58.9740   31.6880   49.7480 C   0  0  0  0  0  0  0  0  0  0  0  0
   60.0880   32.4290   49.3870 C   0  0  0  0  0  0  0  0  0  0  0  0
   60.3090   32.1930   48.0410 C   0  0  0  0  0  0  0  0  0  0  0  0
   61.3870   32.8570   47.2780 C   0  0  0  0  0  0  0  0  0  0  0  0
   62.5030   32.2840   47.1700 O   0  0  0  0  0  0  0  0  0  0  0  0
   61.2000   34.1510   46.7050 N   0  0  0  0  0  0  0  0  0  0  0  0
   59.9530   34.8930   46.8080 C   0  0  0  0  0  0  0  0  0  0  0  0
   58.9160   34.2220   45.9740 C   0  0  0  0  0  0  0  0  0  0  0  0
   57.6600   33.8400   46.4000 C   0  0  0  0  0  0  0  0  0  0  0  0
   57.0730   33.2310   45.3120 C   0  0  0  0  0  0  0  0  0  0  0  0
   58.0050   33.2790   44.2930 C   0  0  0  0  0  0  0  0  0  0  0  0
   59.0940   33.8750   44.7200 O   0  0  0  0  0  0  0  0  0  0  0  0
   59.3840   31.3120   47.5700 N   0  0  0  0  0  0  0  0  0  0  0  0
   59.2590   30.7010   46.2400 C   0  0  0  0  0  0  0  0  0  0  0  0
   59.2820   29.1920   46.3460 C   0  0  0  0  0  0  0  0  0  0  0  0
   60.3510   28.5820   47.0230 C   0  0  0  0  0  0  0  0  0  0  0  0
   60.4790   27.1930   47.0450 C   0  0  0  0  0  0  0  0  0  0  0  0
   59.5480   26.3950   46.3800 C   0  0  0  0  0  0  0  0  0  0  0  0
   58.4840   26.9810   45.7010 C   0  0  0  0  0  0  0  0  0  0  0  0
   58.3300   28.3750   45.6840 C   0  0  0  0  0  0  0  0  0  0  0  0
   57.1830   28.9330   44.9450 C   0  0  0  0  0  0  0  0  0  0  0  0
   57.2330   29.8870   43.9480 C   0  0  0  0  0  0  0  0  0  0  0  0
   55.9100   30.1430   43.6590 C   0  0  0  0  0  0  0  0  0  0  0  0
   55.1240   29.3920   44.4560 N   0  0  0  0  0  0  0  0  0  0  0  0
   55.8980   28.6640   45.2470 N   0  0  0  0  0  0  0  0  0  0  0  0
   58.5660   31.0190   48.6070 C   0  0  0  0  0  0  0  0  0  0  0  0
   57.0360   31.1290   51.2460 C   0  0  0  0  0  0  0  0  0  0  0  0
   54.3610   28.3160   53.2300 H   0  0  0  0  0  0  0  0  0  0  0  0
   54.0800   28.6160   51.6040 H   0  0  0  0  0  0  0  0  0  0  0  0
   56.6673   31.5156   54.6268 H   0  0  0  0  0  0  0  0  0  0  0  0
   58.9850   32.3950   54.3726 H   0  0  0  0  0  0  0  0  0  0  0  0
   60.0575   32.4741   52.1255 H   0  0  0  0  0  0  0  0  0  0  0  0
   60.6829   33.0802   50.0443 H   0  0  0  0  0  0  0  0  0  0  0  0
   59.6236   34.9160   47.8573 H   0  0  0  0  0  0  0  0  0  0  0  0
   60.1043   35.9232   46.4532 H   0  0  0  0  0  0  0  0  0  0  0  0
   57.2204   33.9900   47.3972 H   0  0  0  0  0  0  0  0  0  0  0  0
   56.0646   32.7942   45.2643 H   0  0  0  0  0  0  0  0  0  0  0  0
   57.8571   32.8790   43.2790 H   0  0  0  0  0  0  0  0  0  0  0  0
   58.3093   31.0174   45.7840 H   0  0  0  0  0  0  0  0  0  0  0  0
   60.1055   31.0269   45.6177 H   0  0  0  0  0  0  0  0  0  0  0  0
   61.0945   29.2057   47.5409 H   0  0  0  0  0  0  0  0  0  0  0  0
   61.3148   26.7267   47.5872 H   0  0  0  0  0  0  0  0  0  0  0  0
   59.6551   25.3003   46.3923 H   0  0  0  0  0  0  0  0  0  0  0  0
   57.7576   26.3456   45.1732 H   0  0  0  0  0  0  0  0  0  0  0  0
   58.1247   30.3392   43.4894 H   0  0  0  0  0  0  0  0  0  0  0  0
   55.5513   30.8501   42.8966 H   0  0  0  0  0  0  0  0  0  0  0  0
   57.6990   30.3443   48.5513 H   0  0  0  0  0  0  0  0  0  0  0  0
   56.4807   30.7728   50.3658 H   0  0  0  0  0  0  0  0  0  0  0  0
  1  2  1  0
  2  3  2  0
  2  4  2  0
  2  5  1  0
  5  6  2  0
  6  7  1  0
  7  8  2  0
  8  9  1  0
  9 10  1  0
 10 11  1  0
 11 12  2  0
 12 13  1  0
 13 14  2  0
 13 15  1  0
 15 16  1  0
 16 17  1  0
 17 18  2  0
 18 19  1  0
 19 20  2  0
 20 21  1  0
 12 22  1  0
 22 23  1  0
 23 24  1  0
 24 25  2  0
 25 26  1  0
 26 27  2  0
 27 28  1  0
 28 29  2  0
 29 30  1  0
 30 31  1  0
 31 32  2  0
 32 33  1  0
 33 34  1  0
 22 35  1  0
  9 36  2  0
 36  5  1  0
 35 10  2  0
 21 17  1  0
 29 24  1  0
 34 30  2  0
  1 37  1  0
  1 38  1  0
  6 39  1  0
  7 40  1  0
  8 41  1  0
 11 42  1  0
 16 43  1  0
 16 44  1  0
 18 45  1  0
 19 46  1  0
 20 47  1  0
 23 48  1  0
 23 49  1  0
 25 50  1  0
 26 51  1  0
 27 52  1  0
 28 53  1  0
 31 54  1  0
 32 55  1  0
 35 56  1  0
 36 57  1  0
M  CHG  2  15  -1  33  -1
M  END
>  <UniqueID>  (31) 
31

>  <SMILES>  (31) 
NS(=O)(=O)c1cccc(-c2cc(C(=O)[N-]Cc3ccco3)n(Cc3ccccc3-c3cc[n-]n3)c2)c1

>  <Energy>  (31) 
149.51412512990686

>  <Genealogy>  (31) 
NS(=O)(=O)c1cccc(-c2cc(C(=O)[N-]Cc3ccco3)n(Cc3ccccc3-c3cc[n-]n3)c2)c1 (protonated)
NS(=O)(=O)c1cccc(-c2cc(C(=O)[N-]Cc3ccco3)n(Cc3ccccc3-c3cc[n-]n3)c2)c1 (3D coordinates assigned)
NS(=O)(=O)c1cccc(-c2cc(C(=O)[N-]Cc3ccco3)n(Cc3ccccc3-c3cc[n-]n3)c2)c1 (optimized conformer: 149.51412512990686 kcal/mol)

>  <smiles>  (31) 
NS(=O)(=O)c1cccc(-c2cc(C(=O)NCc3ccco3)n(Cc3ccccc3-c3cc[nH]n3)c2)c1

>  <score_type>  (31) 
oracle

>  <origin>  (31) 
adg

>  <m_score__min__energy>  (31) 
-13.699999999999999

>  <m_primary>  (31) 
energy

$$$$
31:0
     RDKit          3D

 48 50  0  0  0  0  0  0  0  0999 V2000
   57.8610   33.3600   52.3630 C   0  0  0  0  0  0  0  0  0  0  0  0
   59.1060   32.7340   51.8050 C   0  0  0  0  0  0  0  0  0  0  0  0
   59.0830   31.4040   51.3550 C   0  0  0  0  0  0  0  0  0  0  0  0
   60.2660   30.7760   50.9290 C   0  0  0  0  0  0  0  0  0  0  0  0
   60.2290   29.3400   50.4940 C   0  0  0  0  0  0  0  0  0  0  0  0
   61.4780   31.4860   50.9600 C   0  0  0  0  0  0  0  0  0  0  0  0
   61.5030   32.8110   51.4060 C   0  0  0  0  0  0  0  0  0  0  0  0
   63.0560   33.7100   51.4820 S   0  0  0  0  0  0  0  0  0  0  0  0
   62.9080   34.4490   49.8170 C   0  0  0  0  0  0  0  0  0  0  0  0
   63.2220   33.4050   48.7850 C   0  0  0  0  0  0  0  0  0  0  0  0
   64.4180   33.0190   48.6630 O   0  0  0  0  0  0  0  0  0  0  0  0
   62.1870   32.7640   48.0140 N   0  0  0  0  0  0  0  0  0  0  0  0
   61.2290   33.5570   47.2320 C   0  0  0  0  0  0  0  0  0  0  0  0
   59.8740   32.8440   47.1680 C   0  0  0  0  0  0  0  0  0  0  0  0
   60.0210   31.4320   46.7680 N   0  0  0  0  0  0  0  0  0  0  0  0
   58.8660   30.7070   46.2890 C   0  0  0  0  0  0  0  0  0  0  0  0
   58.5560   29.4360   46.8030 C   0  0  0  0  0  0  0  0  0  0  0  0
   57.4440   28.7300   46.3330 C   0  0  0  0  0  0  0  0  0  0  0  0
   56.6190   29.2910   45.3510 C   0  0  0  0  0  0  0  0  0  0  0  0
   55.5140   28.5870   44.8860 O   0  0  0  0  0  0  0  0  0  0  0  0
   56.9080   30.5570   44.8410 C   0  0  0  0  0  0  0  0  0  0  0  0
   58.0170   31.2700   45.3120 C   0  0  0  0  0  0  0  0  0  0  0  0
   61.3610   30.8320   46.6750 C   0  0  0  0  0  0  0  0  0  0  0  0
   62.2530   31.3040   47.8300 C   0  0  0  0  0  0  0  0  0  0  0  0
   60.3260   33.4250   51.8470 C   0  0  0  0  0  0  0  0  0  0  0  0
   57.9013   33.3397   53.4621 H   0  0  0  0  0  0  0  0  0  0  0  0
   57.7881   34.4019   52.0179 H   0  0  0  0  0  0  0  0  0  0  0  0
   56.9812   32.7971   52.0179 H   0  0  0  0  0  0  0  0  0  0  0  0
   58.1329   30.8500   51.3358 H   0  0  0  0  0  0  0  0  0  0  0  0
   60.2122   28.6887   51.3803 H   0  0  0  0  0  0  0  0  0  0  0  0
   59.3260   29.1626   49.8914 H   0  0  0  0  0  0  0  0  0  0  0  0
   61.1217   29.1163   49.8914 H   0  0  0  0  0  0  0  0  0  0  0  0
   62.4085   30.9989   50.6330 H   0  0  0  0  0  0  0  0  0  0  0  0
   61.8824   34.8174   49.6677 H   0  0  0  0  0  0  0  0  0  0  0  0
   63.6127   35.2882   49.7207 H   0  0  0  0  0  0  0  0  0  0  0  0
   61.0992   34.5406   47.7071 H   0  0  0  0  0  0  0  0  0  0  0  0
   61.6169   33.6798   46.2100 H   0  0  0  0  0  0  0  0  0  0  0  0
   59.4012   32.8864   48.1603 H   0  0  0  0  0  0  0  0  0  0  0  0
   59.2536   33.3518   46.4148 H   0  0  0  0  0  0  0  0  0  0  0  0
   59.1938   28.9927   47.5819 H   0  0  0  0  0  0  0  0  0  0  0  0
   57.2172   27.7318   46.7358 H   0  0  0  0  0  0  0  0  0  0  0  0
   56.2624   30.9964   44.0663 H   0  0  0  0  0  0  0  0  0  0  0  0
   58.2280   32.2752   44.9182 H   0  0  0  0  0  0  0  0  0  0  0  0
   61.2688   29.7366   46.7155 H   0  0  0  0  0  0  0  0  0  0  0  0
   61.8208   31.1439   45.7256 H   0  0  0  0  0  0  0  0  0  0  0  0
   61.9229   30.8134   48.7576 H   0  0  0  0  0  0  0  0  0  0  0  0
   63.2926   31.0376   47.5886 H   0  0  0  0  0  0  0  0  0  0  0  0
   60.3574   34.4560   52.2291 H   0  0  0  0  0  0  0  0  0  0  0  0
  1  2  1  0
  2  3  2  0
  3  4  1  0
  4  5  1  0
  4  6  2  0
  6  7  1  0
  7  8  1  0
  8  9  1  0
  9 10  1  0
 10 11  2  0
 10 12  1  0
 12 13  1  0
 13 14  1  0
 14 15  1  0
 15 16  1  0
 16 17  2  0
 17 18  1  0
 18 19  2  0
 19 20  1  0
 19 21  1  0
 21 22  2  0
 15 23  1  0
 23 24  1  0
  7 25  2  0
 25  2  1  0
 24 12  1  0
 22 16  1  0
  1 26  1  0
  1 27  1  0
  1 28  1  0
  3 29  1  0
  5 30  1  0
  5 31  1  0
  5 32  1  0
  6 33  1  0
  9 34  1  0
  9 35  1  0
 13 36  1  0
 13 37  1  0
 14 38  1  0
 14 39  1  0
 17 40  1  0
 18 41  1  0
 21 42  1  0
 22 43  1  0
 23 44  1  0
 23 45  1  0
 24 46  1  0
 24 47  1  0
 25 48  1  0
M  CHG  1  20  -1
M  END
>  <UniqueID>  (32) 
32

>  <SMILES>  (32) 
Cc1cc(C)cc(SCC(=O)N2CCN(c3ccc([O-])cc3)CC2)c1

>  <Energy>  (32) 
48.63665526165585

>  <Genealogy>  (32) 
Cc1cc(C)cc(SCC(=O)N2CCN(c3ccc([O-])cc3)CC2)c1 (protonated)
Cc1cc(C)cc(SCC(=O)N2CCN(c3ccc([O-])cc3)CC2)c1 (3D coordinates assigned)
Cc1cc(C)cc(SCC(=O)N2CCN(c3ccc([O-])cc3)CC2)c1 (nonaromatic ring conformer: 48.63665526165585 kcal/mol)

>  <smiles>  (32) 
Cc1cc(C)cc(SCC(=O)N2CCN(c3ccc(O)cc3)CC2)c1

>  <score_type>  (32) 
oracle

>  <origin>  (32) 
adg

>  <m_score__min__energy>  (32) 
-9.5399999999999991

>  <m_primary>  (32) 
energy

$$$$
32:0
     RDKit          3D

 63 66  0  0  0  0  0  0  0  0999 V2000
   55.2130   23.7550   48.0970 O   0  0  0  0  0  0  0  0  0  0  0  0
   55.2950   22.7250   47.3770 C   0  0  0  0  0  0  0  0  0  0  0  0
   54.4730   22.6290   46.2060 N   0  0  0  0  0  0  0  0  0  0  0  0
   53.2210   23.3500   45.9860 C   0  0  0  0  0  0  0  0  0  0  0  0
   53.4750   24.6900   45.2950 C   0  0  0  0  0  0  0  0  0  0  0  0
   54.5290   25.3590   45.9280 O   0  0  0  0  0  0  0  0  0  0  0  0
   56.2390   21.6580   47.7590 C   0  0  0  0  0  0  0  0  0  0  0  0
   56.3870   21.3080   49.1110 C   0  0  0  0  0  0  0  0  0  0  0  0
   57.2840   20.3030   49.4870 C   0  0  0  0  0  0  0  0  0  0  0  0
   58.0330   19.6380   48.5160 C   0  0  0  0  0  0  0  0  0  0  0  0
   57.8990   19.9840   47.1680 C   0  0  0  0  0  0  0  0  0  0  0  0
   57.0210   21.0130   46.7800 C   0  0  0  0  0  0  0  0  0  0  0  0
   56.8600   21.3730   45.4320 O   0  0  0  0  0  0  0  0  0  0  0  0
   57.1240   22.6340   44.8750 C   0  0  0  0  0  0  0  0  0  0  0  0
   57.8390   23.6240   45.5720 C   0  0  0  0  0  0  0  0  0  0  0  0
   58.0850   24.8740   44.9870 C   0  0  0  0  0  0  0  0  0  0  0  0
   58.8790   25.8410   45.6960 N   0  0  0  0  0  0  0  0  0  0  0  0
   58.6050   27.2510   45.7210 C   0  0  0  0  0  0  0  0  0  0  0  0
   58.2650   27.9100   44.5320 C   0  0  0  0  0  0  0  0  0  0  0  0
   57.9960   29.2810   44.5360 C   0  0  0  0  0  0  0  0  0  0  0  0
   58.1020   30.0220   45.7220 C   0  0  0  0  0  0  0  0  0  0  0  0
   57.8000   31.4700   45.7080 C   0  0  0  0  0  0  0  0  0  0  0  0
   56.8260   31.8780   45.0180 O   0  0  0  0  0  0  0  0  0  0  0  0
   58.5840   32.4190   46.4550 N   0  0  0  0  0  0  0  0  0  0  0  0
   57.9390   33.6520   46.9270 C   0  0  0  0  0  0  0  0  0  0  0  0
   58.9030   34.5120   47.7530 C   0  0  0  0  0  0  0  0  0  0  0  0
   60.2200   34.7580   46.9960 C   0  0  0  0  0  0  0  0  0  0  0  0
   59.9940   35.7110   45.9890 O   0  0  0  0  0  0  0  0  0  0  0  0
   60.8150   33.4620   46.3780 C   0  0  0  0  0  0  0  0  0  0  0  0
   60.0150   32.1960   46.7090 C   0  0  0  0  0  0  0  0  0  0  0  0
   58.4570   29.3630   46.9140 C   0  0  0  0  0  0  0  0  0  0  0  0
   58.5160   30.0390   48.0910 F   0  0  0  0  0  0  0  0  0  0  0  0
   58.7140   27.9900   46.9100 C   0  0  0  0  0  0  0  0  0  0  0  0
   57.6050   25.1310   43.6910 C   0  0  0  0  0  0  0  0  0  0  0  0
   56.8630   24.1640   43.0120 C   0  0  0  0  0  0  0  0  0  0  0  0
   56.6190   22.9230   43.6030 C   0  0  0  0  0  0  0  0  0  0  0  0
   55.9100   21.9870   42.9280 F   0  0  0  0  0  0  0  0  0  0  0  0
   52.5601   22.7388   45.3538 H   0  0  0  0  0  0  0  0  0  0  0  0
   52.7510   23.5422   46.9618 H   0  0  0  0  0  0  0  0  0  0  0  0
   53.7354   24.5135   44.2410 H   0  0  0  0  0  0  0  0  0  0  0  0
   52.5661   25.3068   45.3546 H   0  0  0  0  0  0  0  0  0  0  0  0
   54.7230   24.8470   46.7560 H   0  0  0  0  0  0  0  0  0  0  0  0
   55.7942   21.8272   49.8785 H   0  0  0  0  0  0  0  0  0  0  0  0
   57.3989   20.0370   50.5481 H   0  0  0  0  0  0  0  0  0  0  0  0
   58.7302   18.8401   48.8114 H   0  0  0  0  0  0  0  0  0  0  0  0
   58.4838   19.4483   46.4057 H   0  0  0  0  0  0  0  0  0  0  0  0
   58.2091   23.4155   46.5867 H   0  0  0  0  0  0  0  0  0  0  0  0
   59.7290   25.5010   46.2010 H   0  0  0  0  0  0  0  0  0  0  0  0
   58.2096   27.3446   43.5900 H   0  0  0  0  0  0  0  0  0  0  0  0
   57.6992   29.7824   43.6030 H   0  0  0  0  0  0  0  0  0  0  0  0
   57.5986   34.2326   46.0569 H   0  0  0  0  0  0  0  0  0  0  0  0
   57.0905   33.3727   47.5689 H   0  0  0  0  0  0  0  0  0  0  0  0
   58.4263   35.4800   47.9670 H   0  0  0  0  0  0  0  0  0  0  0  0
   59.1332   33.9773   48.6863 H   0  0  0  0  0  0  0  0  0  0  0  0
   60.9596   35.1259   47.7224 H   0  0  0  0  0  0  0  0  0  0  0  0
   59.6800   36.5380   46.4410 H   0  0  0  0  0  0  0  0  0  0  0  0
   60.8419   33.5796   45.2846 H   0  0  0  0  0  0  0  0  0  0  0  0
   61.8174   33.3307   46.8115 H   0  0  0  0  0  0  0  0  0  0  0  0
   60.3708   31.3665   46.0802 H   0  0  0  0  0  0  0  0  0  0  0  0
   60.1569   31.9492   47.7715 H   0  0  0  0  0  0  0  0  0  0  0  0
   59.0034   27.4849   47.8434 H   0  0  0  0  0  0  0  0  0  0  0  0
   57.8151   26.0979   43.2105 H   0  0  0  0  0  0  0  0  0  0  0  0
   56.4691   24.3801   42.0080 H   0  0  0  0  0  0  0  0  0  0  0  0
  1  2  2  0
  2  3  1  0
  3  4  1  0
  4  5  1  0
  5  6  1  0
  2  7  1  0
  7  8  2  0
  8  9  1  0
  9 10  2  0
 10 11  1  0
 11 12  2  0
 12 13  1  0
 13 14  1  0
 14 15  2  0
 15 16  1  0
 16 17  1  0
 17 18  1  0
 18 19  2  0
 19 20  1  0
 20 21  2  0
 21 22  1  0
 22 23  2  0
 22 24  1  0
 24 25  1  0
 25 26  1  0
 26 27  1  0
 27 28  1  0
 27 29  1  0
 29 30  1  0
 21 31  1  0
 31 32  1  0
 31 33  2  0
 16 34  2  0
 34 35  1  0
 35 36  2  0
 36 37  1  0
 12  7  1  0
 36 14  1  0
 33 18  1  0
 30 24  1  0
  4 38  1  0
  4 39  1  0
  5 40  1  0
  5 41  1  0
  6 42  1  0
  8 43  1  0
  9 44  1  0
 10 45  1  0
 11 46  1  0
 15 47  1  0
 17 48  1  0
 19 49  1  0
 20 50  1  0
 25 51  1  0
 25 52  1  0
 26 53  1  0
 26 54  1  0
 27 55  1  0
 28 56  1  0
 29 57  1  0
 29 58  1  0
 30 59  1  0
 30 60  1  0
 33 61  1  0
 34 62  1  0
 35 63  1  0
M  CHG  1   3  -1
M  END
>  <UniqueID>  (33) 
33

>  <SMILES>  (33) 
O=C([N-]CCO)c1ccccc1Oc1cc(Nc2ccc(C(=O)N3CCC(O)CC3)c(F)c2)ccc1F

>  <Energy>  (33) 
87.85809173579145

>  <Genealogy>  (33) 
O=C([N-]CCO)c1ccccc1Oc1cc(Nc2ccc(C(=O)N3CCC(O)CC3)c(F)c2)ccc1F (protonated)
O=C([N-]CCO)c1ccccc1Oc1cc(Nc2ccc(C(=O)N3CCC(O)CC3)c(F)c2)ccc1F (3D coordinates assigned)
O=C([N-]CCO)c1ccccc1Oc1cc(Nc2ccc(C(=O)N3CCC(O)CC3)c(F)c2)ccc1F (nonaromatic ring conformer: 87.85809173579145 kcal/mol)

>  <smiles>  (33) 
O=C(NCCO)c1ccccc1Oc1cc(Nc2ccc(C(=O)N3CCC(O)CC3)c(F)c2)ccc1F

>  <score_type>  (33) 
oracle

>  <origin>  (33) 
adg

>  <m_score__min__energy>  (33) 
-11.73

>  <m_primary>  (33) 
energy

$$$$
33:0
     RDKit          3D

 48 50  0  0  0  0  0  0  0  0999 V2000
   55.6300   29.0000   45.1740 O   0  0  0  0  0  0  0  0  0  0  0  0
   56.5760   29.4780   44.4950 C   0  0  0  0  0  0  0  0  0  0  0  0
   57.6150   28.5870   43.9210 C   0  0  0  0  0  0  0  0  0  0  0  0
   58.8810   28.4800   44.3530 C   0  0  0  0  0  0  0  0  0  0  0  0
   59.3060   28.3600   45.7590 C   0  0  0  0  0  0  0  0  0  0  0  0
   59.8430   29.3530   46.3220 O   0  0  0  0  0  0  0  0  0  0  0  0
   59.0480   27.1630   46.5040 N   0  0  0  0  0  0  0  0  0  0  0  0
   57.9900   26.2450   46.2100 C   0  0  0  0  0  0  0  0  0  0  0  0
   56.6690   26.7100   46.2620 C   0  0  0  0  0  0  0  0  0  0  0  0
   55.6060   25.8580   45.9460 C   0  0  0  0  0  0  0  0  0  0  0  0
   54.3000   26.3340   45.9830 O   0  0  0  0  0  0  0  0  0  0  0  0
   55.8560   24.5320   45.5880 C   0  0  0  0  0  0  0  0  0  0  0  0
   57.1670   24.0490   45.5670 C   0  0  0  0  0  0  0  0  0  0  0  0
   58.2380   24.8880   45.8970 C   0  0  0  0  0  0  0  0  0  0  0  0
   59.5210   24.3410   45.9400 O   0  0  0  0  0  0  0  0  0  0  0  0
   56.6220   30.8960   44.2950 N   0  0  0  0  0  0  0  0  0  0  0  0
   57.4100   31.8310   45.0430 C   0  0  0  0  0  0  0  0  0  0  0  0
   57.7590   33.0530   44.4520 C   0  0  0  0  0  0  0  0  0  0  0  0
   58.5560   33.9700   45.1430 C   0  0  0  0  0  0  0  0  0  0  0  0
   59.0250   33.6670   46.4290 C   0  0  0  0  0  0  0  0  0  0  0  0
   60.0470   34.8110   47.2960 S   0  0  0  0  0  0  0  0  0  0  0  0
   59.5420   34.9520   48.7050 O   0  0  0  0  0  0  0  0  0  0  0  0
   59.9810   36.1570   46.6270 O   0  0  0  0  0  0  0  0  0  0  0  0
   61.6870   34.2160   47.3210 N   0  0  0  0  0  0  0  0  0  0  0  0
   62.2110   34.1610   48.6840 C   0  0  0  0  0  0  0  0  0  0  0  0
   63.2750   33.0750   48.6940 C   0  0  0  0  0  0  0  0  0  0  0  0
   62.9650   32.1990   47.4910 C   0  0  0  0  0  0  0  0  0  0  0  0
   61.7630   32.8450   46.8170 C   0  0  0  0  0  0  0  0  0  0  0  0
   58.7120   32.4290   47.0060 C   0  0  0  0  0  0  0  0  0  0  0  0
   57.9150   31.5130   46.3140 C   0  0  0  0  0  0  0  0  0  0  0  0
   57.3216   27.9594   43.0666 H   0  0  0  0  0  0  0  0  0  0  0  0
   59.6725   28.4820   43.5891 H   0  0  0  0  0  0  0  0  0  0  0  0
   56.4670   27.7514   46.5531 H   0  0  0  0  0  0  0  0  0  0  0  0
   55.0208   23.8673   45.3224 H   0  0  0  0  0  0  0  0  0  0  0  0
   57.3589   23.0021   45.2892 H   0  0  0  0  0  0  0  0  0  0  0  0
   60.3530   24.9060   46.0550 H   0  0  0  0  0  0  0  0  0  0  0  0
   57.4037   33.2917   43.4387 H   0  0  0  0  0  0  0  0  0  0  0  0
   58.8159   34.9318   44.6767 H   0  0  0  0  0  0  0  0  0  0  0  0
   62.6537   35.1293   48.9603 H   0  0  0  0  0  0  0  0  0  0  0  0
   61.4127   33.9424   49.4085 H   0  0  0  0  0  0  0  0  0  0  0  0
   64.2779   33.5172   48.6005 H   0  0  0  0  0  0  0  0  0  0  0  0
   63.2666   32.5011   49.6324 H   0  0  0  0  0  0  0  0  0  0  0  0
   63.8232   32.1724   46.8034 H   0  0  0  0  0  0  0  0  0  0  0  0
   62.7582   31.1595   47.7854 H   0  0  0  0  0  0  0  0  0  0  0  0
   61.8970   32.8490   45.7252 H   0  0  0  0  0  0  0  0  0  0  0  0
   60.8393   32.2899   47.0374 H   0  0  0  0  0  0  0  0  0  0  0  0
   59.0946   32.1775   48.0062 H   0  0  0  0  0  0  0  0  0  0  0  0
   57.6822   30.5381   46.7672 H   0  0  0  0  0  0  0  0  0  0  0  0
  1  2  2  0
  2  3  1  0
  3  4  2  3
  4  5  1  0
  5  6  2  0
  5  7  1  0
  7  8  1  0
  8  9  2  0
  9 10  1  0
 10 11  1  0
 10 12  2  0
 12 13  1  0
 13 14  2  0
 14 15  1  0
  2 16  1  0
 16 17  1  0
 17 18  2  0
 18 19  1  0
 19 20  2  0
 20 21  1  0
 21 22  2  0
 21 23  2  0
 21 24  1  0
 24 25  1  0
 25 26  1  0
 26 27  1  0
 27 28  1  0
 20 29  1  0
 29 30  2  0
 14  8  1  0
 30 17  1  0
 28 24  1  0
  3 31  1  0
  4 32  1  0
  9 33  1  0
 12 34  1  0
 13 35  1  0
 15 36  1  0
 18 37  1  0
 19 38  1  0
 25 39  1  0
 25 40  1  0
 26 41  1  0
 26 42  1  0
 27 43  1  0
 27 44  1  0
 28 45  1  0
 28 46  1  0
 29 47  1  0
 30 48  1  0
M  CHG  3   7  -1  11  -1  16  -1
M  END
>  <UniqueID>  (34) 
34

>  <SMILES>  (34) 
O=C(C=CC(=O)[N-]c1cc([O-])ccc1O)[N-]c1ccc(S(=O)(=O)N2CCCC2)cc1

>  <Energy>  (34) 
68.68161310832984

>  <Genealogy>  (34) 
O=C(C=CC(=O)[N-]c1cc([O-])ccc1O)[N-]c1ccc(S(=O)(=O)N2CCCC2)cc1 (protonated)
O=C(C=CC(=O)[N-]c1cc([O-])ccc1O)[N-]c1ccc(S(=O)(=O)N2CCCC2)cc1 (3D coordinates assigned)
O=C(C=CC(=O)[N-]c1cc([O-])ccc1O)[N-]c1ccc(S(=O)(=O)N2CCCC2)cc1 (nonaromatic ring conformer: 68.68161310832984 kcal/mol)

>  <smiles>  (34) 
O=C(C=CC(=O)Nc1cc(O)ccc1O)Nc1ccc(S(=O)(=O)N2CCCC2)cc1

>  <score_type>  (34) 
oracle

>  <origin>  (34) 
adg

>  <m_score__min__energy>  (34) 
-15.390000000000001

>  <m_primary>  (34) 
energy

$$$$
34:0
     RDKit          3D

 57 61  0  0  0  0  0  0  0  0999 V2000
   56.5460   20.8760   43.3710 N   0  0  0  0  0  0  0  0  0  0  0  0
   56.8210   21.8490   44.4310 C   0  0  1  0  0  0  0  0  0  0  0  0
   58.3110   21.9410   44.7720 C   0  0  0  0  0  0  0  0  0  0  0  0
   58.5550   23.4030   45.1220 C   0  0  0  0  0  0  0  0  0  0  0  0
   57.4340   24.1410   44.5590 N   0  0  0  0  0  0  0  0  0  0  0  0
   57.3390   25.5830   44.5540 C   0  0  0  0  0  0  0  0  0  0  0  0
   56.7180   26.2670   45.6180 C   0  0  0  0  0  0  0  0  0  0  0  0
   56.6360   27.6620   45.6170 C   0  0  0  0  0  0  0  0  0  0  0  0
   57.1880   28.4090   44.5650 C   0  0  0  0  0  0  0  0  0  0  0  0
   57.0900   29.9200   44.5710 C   0  0  0  0  0  0  0  0  0  0  0  0
   57.8550   30.5830   45.6480 N   0  0  0  0  0  0  0  0  0  0  0  0
   58.1250   32.0130   45.4170 C   0  0  0  0  0  0  0  0  0  0  0  0
   58.4930   32.7220   46.7380 C   0  0  0  0  0  0  0  0  0  0  0  0
   59.7120   32.1280   47.4000 C   0  0  0  0  0  0  0  0  0  0  0  0
   60.5230   32.8130   48.3160 C   0  0  0  0  0  0  0  0  0  0  0  0
   61.5580   32.0270   48.8140 C   0  0  0  0  0  0  0  0  0  0  0  0
   62.5760   32.5100   49.7060 N   0  0  0  0  0  0  0  0  0  0  0  0
   63.8340   33.0580   49.2870 C   0  0  0  0  0  0  0  0  0  0  0  0
   64.2260   32.9120   48.1000 O   0  0  0  0  0  0  0  0  0  0  0  0
   64.6380   33.7530   50.2550 N   0  0  0  0  0  0  0  0  0  0  0  0
   65.7400   33.2850   51.1080 C   0  0  0  0  0  0  0  0  0  0  0  0
   67.1330   33.3690   50.5060 C   0  0  0  0  0  0  0  0  0  0  0  0
   66.4460   32.0140   50.6670 C   0  0  0  0  0  0  0  0  0  0  0  0
   61.4780   30.4840   48.1270 S   0  0  0  0  0  0  0  0  0  0  0  0
   60.1040   30.8130   47.2200 C   0  0  0  0  0  0  0  0  0  0  0  0
   59.3310   29.7570   46.0750 S   0  0  0  0  0  0  0  0  0  0  0  0
   59.0230   28.4270   46.7010 O   0  0  0  0  0  0  0  0  0  0  0  0
   60.2350   29.5860   44.8880 O   0  0  0  0  0  0  0  0  0  0  0  0
   57.7780   27.7310   43.4880 C   0  0  0  0  0  0  0  0  0  0  0  0
   57.8620   26.3370   43.4850 C   0  0  0  0  0  0  0  0  0  0  0  0
   56.4080   23.2590   44.0180 C   0  0  0  0  0  0  0  0  0  0  0  0
   55.5170   20.6910   43.3550 H   0  0  0  0  0  0  0  0  0  0  0  0
   57.0180   19.9700   43.5950 H   0  0  0  0  0  0  0  0  0  0  0  0
   56.2439   21.4905   45.2961 H   0  0  0  0  0  0  0  0  0  0  0  0
   58.5505   21.2947   45.6293 H   0  0  0  0  0  0  0  0  0  0  0  0
   58.9438   21.6089   43.9358 H   0  0  0  0  0  0  0  0  0  0  0  0
   58.5899   23.5343   46.2136 H   0  0  0  0  0  0  0  0  0  0  0  0
   59.5152   23.7593   44.7206 H   0  0  0  0  0  0  0  0  0  0  0  0
   56.2935   25.6972   46.4577 H   0  0  0  0  0  0  0  0  0  0  0  0
   56.1343   28.1792   46.4482 H   0  0  0  0  0  0  0  0  0  0  0  0
   57.4643   30.2917   43.6057 H   0  0  0  0  0  0  0  0  0  0  0  0
   56.0315   30.1626   44.7464 H   0  0  0  0  0  0  0  0  0  0  0  0
   58.9613   32.1123   44.7093 H   0  0  0  0  0  0  0  0  0  0  0  0
   57.2182   32.4811   45.0065 H   0  0  0  0  0  0  0  0  0  0  0  0
   58.6907   33.7828   46.5244 H   0  0  0  0  0  0  0  0  0  0  0  0
   57.6463   32.5961   47.4288 H   0  0  0  0  0  0  0  0  0  0  0  0
   60.3587   33.8602   48.6098 H   0  0  0  0  0  0  0  0  0  0  0  0
   62.3700   32.5000   50.7310 H   0  0  0  0  0  0  0  0  0  0  0  0
   65.2735   33.6270   52.0436 H   0  0  0  0  0  0  0  0  0  0  0  0
   67.2745   33.7989   49.5034 H   0  0  0  0  0  0  0  0  0  0  0  0
   68.0947   33.7975   50.8246 H   0  0  0  0  0  0  0  0  0  0  0  0
   66.0925   31.4673   49.7804 H   0  0  0  0  0  0  0  0  0  0  0  0
   66.7074   31.0608   51.1498 H   0  0  0  0  0  0  0  0  0  0  0  0
   58.1783   28.3027   42.6378 H   0  0  0  0  0  0  0  0  0  0  0  0
   58.3415   25.8224   42.6392 H   0  0  0  0  0  0  0  0  0  0  0  0
   55.4238   23.5102   44.4402 H   0  0  0  0  0  0  0  0  0  0  0  0
   56.3228   23.3551   42.9255 H   0  0  0  0  0  0  0  0  0  0  0  0
  1  2  1  0
  2  3  1  0
  3  4  1  0
  4  5  1  0
  5  6  1  0
  6  7  2  0
  7  8  1  0
  8  9  2  0
  9 10  1  0
 10 11  1  0
 11 12  1  0
 12 13  1  0
 13 14  1  0
 14 15  1  0
 15 16  2  0
 16 17  1  0
 17 18  1  0
 18 19  2  0
 18 20  1  0
 20 21  1  0
 21 22  1  0
 22 23  1  0
 16 24  1  0
 24 25  1  0
 25 26  1  0
 26 27  2  0
 26 28  2  0
  9 29  1  0
 29 30  2  0
  5 31  1  0
 31  2  1  0
 30  6  1  0
 26 11  1  0
 25 14  2  0
 23 21  1  0
  1 32  1  0
  1 33  1  0
  2 34  1  1
  3 35  1  0
  3 36  1  0
  4 37  1  0
  4 38  1  0
  7 39  1  0
  8 40  1  0
 10 41  1  0
 10 42  1  0
 12 43  1  0
 12 44  1  0
 13 45  1  0
 13 46  1  0
 15 47  1  0
 17 48  1  0
 21 49  1  0
 22 50  1  0
 22 51  1  0
 23 52  1  0
 23 53  1  0
 29 54  1  0
 30 55  1  0
 31 56  1  0
 31 57  1  0
M  CHG  1  20  -1
M  END
>  <UniqueID>  (35) 
35

>  <SMILES>  (35) 
N[C@H]1CCN(c2ccc(CN3CCc4cc(NC(=O)[N-]C5CC5)sc4S3(=O)=O)cc2)C1

>  <Energy>  (35) 
367.0696757423054

>  <Genealogy>  (35) 
NC1CCN(c2ccc(CN3CCc4cc(NC(=O)[N-]C5CC5)sc4S3(=O)=O)cc2)C1 (protonated)
N[C@H]1CCN(c2ccc(CN3CCc4cc(NC(=O)[N-]C5CC5)sc4S3(=O)=O)cc2)C1 (chirality)
N[C@H]1CCN(c2ccc(CN3CCc4cc(NC(=O)[N-]C5CC5)sc4S3(=O)=O)cc2)C1 (3D coordinates assigned)
N[C@H]1CCN(c2ccc(CN3CCc4cc(NC(=O)[N-]C5CC5)sc4S3(=O)=O)cc2)C1 (nonaromatic ring conformer: 367.0696757423054 kcal/mol)

>  <smiles>  (35) 
NC1CCN(c2ccc(CN3CCc4cc(NC(=O)NC5CC5)sc4S3(=O)=O)cc2)C1

>  <score_type>  (35) 
oracle

>  <origin>  (35) 
adg

>  <m_score__min__energy>  (35) 
-11.359999999999999

>  <m_primary>  (35) 
energy

$$$$
35:0
     RDKit          3D

 32 34  0  0  0  0  0  0  0  0999 V2000
   61.2964   27.3399   50.7023 H   0  0  0  0  0  0  0  0  0  0  0  0
   60.6330   27.8110   49.9620 C   0  0  0  0  0  0  0  0  0  0  0  0
   59.8330   28.8460   50.3280 N   0  0  0  0  0  0  0  0  0  0  0  0
   58.9940   29.4710   49.4570 C   0  0  0  0  0  0  0  0  0  0  0  0
   58.2910   30.4750   49.9050 N   0  0  0  0  0  0  0  0  0  0  0  0
   57.7350   30.6570   51.2150 C   0  0  0  0  0  0  0  0  0  0  0  0
   57.7150   31.8080   51.7190 O   0  0  0  0  0  0  0  0  0  0  0  0
   57.1530   29.5650   51.9390 N   0  0  0  0  0  0  0  0  0  0  0  0
   55.8980   29.6130   52.6340 C   0  0  0  0  0  0  0  0  0  0  0  0
   54.8200   30.2710   52.0300 C   0  0  0  0  0  0  0  0  0  0  0  0
   54.9468   30.7201   51.0339 H   0  0  0  0  0  0  0  0  0  0  0  0
   53.5770   30.3650   52.6810 C   0  0  0  0  0  0  0  0  0  0  0  0
   52.4570   31.0990   52.0450 C   0  0  0  0  0  0  0  0  0  0  0  0
   51.4330   31.8010   52.6630 C   0  0  0  0  0  0  0  0  0  0  0  0
   51.2530   31.9210   54.0340 O   0  0  0  0  0  0  0  0  0  0  0  0
   50.5880   32.3460   51.7670 N   0  0  0  0  0  0  0  0  0  0  0  0
   51.0820   31.9800   50.5700 C   0  0  0  0  0  0  0  0  0  0  0  0
   50.4990   32.3430   49.3640 O   0  0  0  0  0  0  0  0  0  0  0  0
   52.2220   31.2120   50.6880 C   0  0  0  0  0  0  0  0  0  0  0  0
   52.8194   30.7797   49.8718 H   0  0  0  0  0  0  0  0  0  0  0  0
   53.4260   29.7760   53.9480 C   0  0  0  0  0  0  0  0  0  0  0  0
   52.4651   29.8569   54.4772 H   0  0  0  0  0  0  0  0  0  0  0  0
   54.4890   29.0880   54.5400 C   0  0  0  0  0  0  0  0  0  0  0  0
   54.3565   28.6207   55.5269 H   0  0  0  0  0  0  0  0  0  0  0  0
   55.7180   28.9910   53.8850 C   0  0  0  0  0  0  0  0  0  0  0  0
   56.7440   28.2580   54.4720 O   0  0  0  0  0  0  0  0  0  0  0  0
   58.9140   28.9870   48.1240 C   0  0  0  0  0  0  0  0  0  0  0  0
   57.9990   29.4870   47.2040 O   0  0  0  0  0  0  0  0  0  0  0  0
   59.7480   27.9370   47.7300 C   0  0  0  0  0  0  0  0  0  0  0  0
   59.7212   27.5760   46.6913 H   0  0  0  0  0  0  0  0  0  0  0  0
   60.6130   27.3460   48.6480 C   0  0  0  0  0  0  0  0  0  0  0  0
   61.2728   26.5217   48.3396 H   0  0  0  0  0  0  0  0  0  0  0  0
  1  2  1  0
  2  3  1  0
  3  4  1  0
  4  5  2  0
  5  6  1  0
  6  7  2  0
  6  8  1  0
  8  9  1  0
  9 10  2  0
 10 11  1  0
 10 12  1  0
 12 13  1  0
 13 14  2  0
 14 15  1  0
 14 16  1  0
 16 17  1  0
 17 18  1  0
 17 19  2  0
 19 20  1  0
 12 21  2  0
 21 22  1  0
 21 23  1  0
 23 24  1  0
 23 25  2  0
 25 26  1  0
  4 27  1  0
 27 28  1  0
 27 29  2  0
 29 30  1  0
 29 31  1  0
 31 32  1  0
 31  2  2  0
 25  9  1  0
 19 13  1  0
M  CHG  7   3  -1   8  -1  15  -1  16  -1  18  -1  26  -1  28  -1
M  END
>  <UniqueID>  (36) 
36

>  <SMILES>  (36) 
O=C(/N=c1/[n-]cccc1[O-])[N-]c1cc(-c2cc([O-])[n-]c2[O-])ccc1[O-]

>  <Energy>  (36) 
82.61329496870249

>  <Genealogy>  (36) 
O=C(N=c1[n-]cccc1[O-])[N-]c1cc(-c2cc([O-])[n-]c2[O-])ccc1[O-] (protonated)
O=C(/N=c1/[n-]cccc1[O-])[N-]c1cc(-c2cc([O-])[n-]c2[O-])ccc1[O-] (cis-trans isomerization)
O=C(/N=c1/[n-]cccc1[O-])[N-]c1cc(-c2cc([O-])[n-]c2[O-])ccc1[O-] (3D coordinates assigned)
O=C(/N=c1/[n-]cccc1[O-])[N-]c1cc(-c2cc([O-])[n-]c2[O-])ccc1[O-] (optimized conformer: 82.61329496870249 kcal/mol)

>  <smiles>  (36) 
O=C(N=c1[nH]cccc1O)Nc1cc(-c2cc(O)[nH]c2O)ccc1O

>  <score_type>  (36) 
oracle

>  <origin>  (36) 
adg

>  <m_score__min__energy>  (36) 
-19.52

>  <m_primary>  (36) 
energy

$$$$
36:0
     RDKit          3D

 56 59  0  0  0  0  0  0  0  0999 V2000
   60.0470   28.2330   47.8110 C   0  0  0  0  0  0  0  0  0  0  0  0
   60.5140   29.4330   48.6260 C   0  0  0  0  0  0  0  0  0  0  0  0
   60.1900   30.6770   47.9290 N   0  0  0  0  0  0  0  0  0  0  0  0
   58.9430   31.1080   47.6220 C   0  0  0  0  0  0  0  0  0  0  0  0
   59.0020   32.3650   47.0330 C   0  0  0  0  0  0  0  0  0  0  0  0
   57.8540   33.1530   46.5670 C   0  0  0  0  0  0  0  0  0  0  0  0
   56.9350   33.4320   47.3820 O   0  0  0  0  0  0  0  0  0  0  0  0
   57.7650   33.6500   45.2260 N   0  0  0  0  0  0  0  0  0  0  0  0
   58.4940   33.1250   44.0700 C   0  0  0  0  0  0  0  0  0  0  0  0
   57.6200   32.2000   43.2100 C   0  0  0  0  0  0  0  0  0  0  0  0
   57.4140   30.8600   43.8660 C   0  0  0  0  0  0  0  0  0  0  0  0
   58.5130   30.1150   44.3170 C   0  0  0  0  0  0  0  0  0  0  0  0
   58.3180   28.9110   45.0010 C   0  0  0  0  0  0  0  0  0  0  0  0
   57.0190   28.4420   45.2570 C   0  0  0  0  0  0  0  0  0  0  0  0
   56.8210   27.2050   46.0450 C   0  0  0  0  0  0  0  0  0  0  0  0
   57.7640   26.7680   46.7560 O   0  0  0  0  0  0  0  0  0  0  0  0
   55.5810   26.4810   46.0230 N   0  0  0  0  0  0  0  0  0  0  0  0
   55.4490   25.0520   45.9690 C   0  0  0  0  0  0  0  0  0  0  0  0
   54.7040   24.4960   44.9200 C   0  0  0  0  0  0  0  0  0  0  0  0
   54.4690   23.1200   44.8680 C   0  0  0  0  0  0  0  0  0  0  0  0
   54.9880   22.2850   45.8580 C   0  0  0  0  0  0  0  0  0  0  0  0
   55.7650   22.8210   46.8890 C   0  0  0  0  0  0  0  0  0  0  0  0
   56.0220   24.1990   46.9440 C   0  0  0  0  0  0  0  0  0  0  0  0
   56.9040   24.7010   47.9560 N   0  0  0  0  0  0  0  0  0  0  0  0
   55.9210   29.1700   44.7690 C   0  0  0  0  0  0  0  0  0  0  0  0
   56.1160   30.3730   44.0880 C   0  0  0  0  0  0  0  0  0  0  0  0
   60.3440   32.6930   46.9700 C   0  0  0  0  0  0  0  0  0  0  0  0
   60.9960   33.8010   46.4260 C   0  0  0  0  0  0  0  0  0  0  0  0
   62.3990   33.8440   46.5080 C   0  0  0  0  0  0  0  0  0  0  0  0
   63.1130   32.7870   47.1130 C   0  0  0  0  0  0  0  0  0  0  0  0
   62.4320   31.6710   47.6320 C   0  0  0  0  0  0  0  0  0  0  0  0
   61.0380   31.6500   47.5350 C   0  0  0  0  0  0  0  0  0  0  0  0
   59.7335   27.4274   48.4912 H   0  0  0  0  0  0  0  0  0  0  0  0
   59.1982   28.5284   47.1767 H   0  0  0  0  0  0  0  0  0  0  0  0
   60.8722   27.8770   47.1767 H   0  0  0  0  0  0  0  0  0  0  0  0
   60.0123   29.4242   49.6049 H   0  0  0  0  0  0  0  0  0  0  0  0
   61.6040   29.3717   48.7606 H   0  0  0  0  0  0  0  0  0  0  0  0
   58.0176   30.5444   47.8116 H   0  0  0  0  0  0  0  0  0  0  0  0
   58.8338   33.9687   43.4514 H   0  0  0  0  0  0  0  0  0  0  0  0
   59.3454   32.5372   44.4437 H   0  0  0  0  0  0  0  0  0  0  0  0
   56.6404   32.6762   43.0567 H   0  0  0  0  0  0  0  0  0  0  0  0
   58.1335   32.0370   42.2509 H   0  0  0  0  0  0  0  0  0  0  0  0
   59.5341   30.4797   44.1317 H   0  0  0  0  0  0  0  0  0  0  0  0
   59.1868   28.3279   45.3405 H   0  0  0  0  0  0  0  0  0  0  0  0
   54.3011   25.1485   44.1313 H   0  0  0  0  0  0  0  0  0  0  0  0
   53.8745   22.6945   44.0461 H   0  0  0  0  0  0  0  0  0  0  0  0
   54.7856   21.2042   45.8272 H   0  0  0  0  0  0  0  0  0  0  0  0
   56.1780   22.1573   47.6629 H   0  0  0  0  0  0  0  0  0  0  0  0
   57.1180   24.1520   48.8170 H   0  0  0  0  0  0  0  0  0  0  0  0
   57.2750   25.6750   47.8990 H   0  0  0  0  0  0  0  0  0  0  0  0
   54.9007   28.7895   44.9246 H   0  0  0  0  0  0  0  0  0  0  0  0
   55.2482   30.9423   43.7235 H   0  0  0  0  0  0  0  0  0  0  0  0
   60.4302   34.6145   45.9484 H   0  0  0  0  0  0  0  0  0  0  0  0
   62.9440   34.7071   46.0980 H   0  0  0  0  0  0  0  0  0  0  0  0
   64.2099   32.8365   47.1790 H   0  0  0  0  0  0  0  0  0  0  0  0
   62.9801   30.8400   48.1000 H   0  0  0  0  0  0  0  0  0  0  0  0
  1  2  1  0
  2  3  1  0
  3  4  1  0
  4  5  2  0
  5  6  1  0
  6  7  2  0
  6  8  1  0
  8  9  1  0
  9 10  1  0
 10 11  1  0
 11 12  2  0
 12 13  1  0
 13 14  2  0
 14 15  1  0
 15 16  2  0
 15 17  1  0
 17 18  1  0
 18 19  2  0
 19 20  1  0
 20 21  2  0
 21 22  1  0
 22 23  2  0
 23 24  1  0
 14 25  1  0
 25 26  2  0
  5 27  1  0
 27 28  2  0
 28 29  1  0
 29 30  2  0
 30 31  1  0
 31 32  2  0
 32  3  1  0
 26 11  1  0
 32 27  1  0
 23 18  1  0
  1 33  1  0
  1 34  1  0
  1 35  1  0
  2 36  1  0
  2 37  1  0
  4 38  1  0
  9 39  1  0
  9 40  1  0
 10 41  1  0
 10 42  1  0
 12 43  1  0
 13 44  1  0
 19 45  1  0
 20 46  1  0
 21 47  1  0
 22 48  1  0
 24 49  1  0
 24 50  1  0
 25 51  1  0
 26 52  1  0
 28 53  1  0
 29 54  1  0
 30 55  1  0
 31 56  1  0
M  CHG  2   8  -1  17  -1
M  END
>  <UniqueID>  (37) 
37

>  <SMILES>  (37) 
CCn1cc(C(=O)[N-]CCc2ccc(C(=O)[N-]c3ccccc3N)cc2)c2ccccc21

>  <Energy>  (37) 
100.27320768801567

>  <Genealogy>  (37) 
CCn1cc(C(=O)[N-]CCc2ccc(C(=O)[N-]c3ccccc3N)cc2)c2ccccc21 (protonated)
CCn1cc(C(=O)[N-]CCc2ccc(C(=O)[N-]c3ccccc3N)cc2)c2ccccc21 (3D coordinates assigned)
CCn1cc(C(=O)[N-]CCc2ccc(C(=O)[N-]c3ccccc3N)cc2)c2ccccc21 (optimized conformer: 100.27320768801567 kcal/mol)

>  <smiles>  (37) 
CCn1cc(C(=O)NCCc2ccc(C(=O)Nc3ccccc3N)cc2)c2ccccc21

>  <score_type>  (37) 
oracle

>  <origin>  (37) 
adg

>  <m_score__min__energy>  (37) 
-11.449999999999999

>  <m_primary>  (37) 
energy

$$$$
37:0
     RDKit          3D

 13 13  0  0  0  0  0  0  0  0999 V2000
   57.1560   28.2290   45.1790 O   0  0  0  0  0  0  0  0  0  0  0  0
   57.8820   27.2110   45.3240 C   0  0  0  0  0  0  0  0  0  0  0  0
   57.3770   25.9840   45.9810 C   0  0  0  0  0  0  0  0  0  0  0  0
   56.0180   25.7970   46.3340 C   0  0  0  0  0  0  0  0  0  0  0  0
   55.0160   26.7030   45.9840 O   0  0  0  0  0  0  0  0  0  0  0  0
   55.6520   24.6770   47.0100 N   0  0  0  0  0  0  0  0  0  0  0  0
   56.5500   23.7140   47.3310 C   0  0  0  0  0  0  0  0  0  0  0  0
   56.0650   22.3820   48.1390 S   0  0  0  0  0  0  0  0  0  0  0  0
   57.8490   23.8510   46.9690 N   0  0  0  0  0  0  0  0  0  0  0  0
   58.2810   24.9530   46.3040 C   0  0  0  0  0  0  0  0  0  0  0  0
   59.5000   25.0440   45.9990 O   0  0  0  0  0  0  0  0  0  0  0  0
   58.9174   27.2335   44.9534 H   0  0  0  0  0  0  0  0  0  0  0  0
   55.1540   27.4740   45.3480 H   0  0  0  0  0  0  0  0  0  0  0  0
  1  2  2  0
  2  3  1  0
  3  4  2  0
  4  5  1  0
  4  6  1  0
  6  7  1  0
  7  8  2  0
  7  9  1  0
  9 10  1  0
 10 11  2  0
 10  3  1  0
  2 12  1  0
  5 13  1  0
M  CHG  2   6  -1   9  -1
M  END
>  <UniqueID>  (38) 
38

>  <SMILES>  (38) 
O=Cc1c(O)[n-]c(=S)[n-]c1=O

>  <Energy>  (38) 
18.569703552143988

>  <Genealogy>  (38) 
O=Cc1c(O)[n-]c(=S)[n-]c1=O (protonated)
O=Cc1c(O)[n-]c(=S)[n-]c1=O (3D coordinates assigned)
O=Cc1c(O)[n-]c(=S)[n-]c1=O (optimized conformer: 18.569703552143988 kcal/mol)

>  <smiles>  (38) 
O=Cc1c(O)[nH]c(=S)[nH]c1=O

>  <score_type>  (38) 
oracle

>  <origin>  (38) 
adg

>  <m_score__min__energy>  (38) 
-10.16

>  <m_primary>  (38) 
energy

$$$$
38:0
     RDKit          3D

 41 43  0  0  0  0  0  0  0  0999 V2000
   57.1720   24.2550   47.5060 C   0  0  0  0  0  0  0  0  0  0  0  0
   57.0690   23.8490   46.0580 C   0  0  0  0  0  0  0  0  0  0  0  0
   57.9720   22.8890   45.5650 C   0  0  0  0  0  0  0  0  0  0  0  0
   57.9420   22.5060   44.2250 C   0  0  0  0  0  0  0  0  0  0  0  0
   57.0100   23.0700   43.3580 C   0  0  0  0  0  0  0  0  0  0  0  0
   56.0960   24.0130   43.8280 C   0  0  0  0  0  0  0  0  0  0  0  0
   56.0970   24.4080   45.1810 C   0  0  0  0  0  0  0  0  0  0  0  0
   55.0830   25.3950   45.6300 C   0  0  0  0  0  0  0  0  0  0  0  0
   53.8560   25.1050   45.6060 O   0  0  0  0  0  0  0  0  0  0  0  0
   55.4980   26.7140   46.0150 N   0  0  0  0  0  0  0  0  0  0  0  0
   56.6440   27.4270   45.5240 C   0  0  0  0  0  0  0  0  0  0  0  0
   57.9180   26.8350   45.4750 C   0  0  0  0  0  0  0  0  0  0  0  0
   59.0050   27.5520   44.9720 C   0  0  0  0  0  0  0  0  0  0  0  0
   58.8320   28.8530   44.4990 C   0  0  0  0  0  0  0  0  0  0  0  0
   57.5590   29.4490   44.5060 C   0  0  0  0  0  0  0  0  0  0  0  0
   57.3770   30.8350   44.0090 C   0  0  0  0  0  0  0  0  0  0  0  0
   56.8130   31.0150   42.8960 O   0  0  0  0  0  0  0  0  0  0  0  0
   57.8290   32.0180   44.7840 C   0  0  0  0  0  0  0  0  0  0  0  0
   58.1680   33.2080   44.1240 C   0  0  0  0  0  0  0  0  0  0  0  0
   58.6050   34.3130   44.8530 C   0  0  0  0  0  0  0  0  0  0  0  0
   58.7120   34.2230   46.2430 C   0  0  0  0  0  0  0  0  0  0  0  0
   59.1060   35.2210   46.9020 O   0  0  0  0  0  0  0  0  0  0  0  0
   58.3960   33.0590   46.8810 N   0  0  0  0  0  0  0  0  0  0  0  0
   58.5190   32.9890   48.2550 O   0  0  0  0  0  0  0  0  0  0  0  0
   57.9660   31.9670   46.1820 C   0  0  0  0  0  0  0  0  0  0  0  0
   56.4670   28.7270   45.0250 C   0  0  0  0  0  0  0  0  0  0  0  0
   55.2240   29.2760   45.0360 F   0  0  0  0  0  0  0  0  0  0  0  0
   56.9521   23.3881   48.1464 H   0  0  0  0  0  0  0  0  0  0  0  0
   58.1901   24.6157   47.7141 H   0  0  0  0  0  0  0  0  0  0  0  0
   56.4490   25.0574   47.7141 H   0  0  0  0  0  0  0  0  0  0  0  0
   58.7093   22.4360   46.2441 H   0  0  0  0  0  0  0  0  0  0  0  0
   58.6559   21.7569   43.8520 H   0  0  0  0  0  0  0  0  0  0  0  0
   56.9944   22.7711   42.2995 H   0  0  0  0  0  0  0  0  0  0  0  0
   55.3653   24.4539   43.1340 H   0  0  0  0  0  0  0  0  0  0  0  0
   58.0587   25.8047   45.8337 H   0  0  0  0  0  0  0  0  0  0  0  0
   60.0026   27.0890   44.9485 H   0  0  0  0  0  0  0  0  0  0  0  0
   59.6970   29.4158   44.1183 H   0  0  0  0  0  0  0  0  0  0  0  0
   58.0889   33.2697   43.0286 H   0  0  0  0  0  0  0  0  0  0  0  0
   58.8638   35.2495   44.3372 H   0  0  0  0  0  0  0  0  0  0  0  0
   58.8790   33.7670   48.7960 H   0  0  0  0  0  0  0  0  0  0  0  0
   57.7244   31.0378   46.7189 H   0  0  0  0  0  0  0  0  0  0  0  0
  1  2  1  0
  2  3  2  0
  3  4  1  0
  4  5  2  0
  5  6  1  0
  6  7  2  0
  7  8  1  0
  8  9  2  0
  8 10  1  0
 10 11  1  0
 11 12  2  0
 12 13  1  0
 13 14  2  0
 14 15  1  0
 15 16  1  0
 16 17  2  0
 16 18  1  0
 18 19  1  0
 19 20  2  0
 20 21  1  0
 21 22  2  0
 21 23  1  0
 23 24  1  0
 23 25  1  0
 15 26  2  0
 26 27  1  0
  7  2  1  0
 26 11  1  0
 25 18  2  0
  1 28  1  0
  1 29  1  0
  1 30  1  0
  3 31  1  0
  4 32  1  0
  5 33  1  0
  6 34  1  0
 12 35  1  0
 13 36  1  0
 14 37  1  0
 19 38  1  0
 20 39  1  0
 24 40  1  0
 25 41  1  0
M  CHG  1  10  -1
M  END
>  <UniqueID>  (39) 
39

>  <SMILES>  (39) 
Cc1ccccc1C(=O)[N-]c1cccc(C(=O)c2ccc(=O)n(O)c2)c1F

>  <Energy>  (39) 
59.77485761674355

>  <Genealogy>  (39) 
Cc1ccccc1C(=O)[N-]c1cccc(C(=O)c2ccc(=O)n(O)c2)c1F (protonated)
Cc1ccccc1C(=O)[N-]c1cccc(C(=O)c2ccc(=O)n(O)c2)c1F (3D coordinates assigned)
Cc1ccccc1C(=O)[N-]c1cccc(C(=O)c2ccc(=O)n(O)c2)c1F (optimized conformer: 59.77485761674355 kcal/mol)

>  <smiles>  (39) 
Cc1ccccc1C(=O)Nc1cccc(C(=O)c2ccc(=O)n(O)c2)c1F

>  <score_type>  (39) 
oracle

>  <origin>  (39) 
adg

>  <m_score__min__energy>  (39) 
-11.199999999999999

>  <m_primary>  (39) 
energy

$$$$
39:0
     RDKit          3D

 34 36  0  0  0  0  0  0  0  0999 V2000
   58.1470   27.1020   43.4950 C   0  0  0  0  0  0  0  0  0  0  0  0
   57.9160   28.0760   44.3820 C   0  0  0  0  0  0  0  0  0  0  0  0
   57.7100   29.3530   43.9970 N   0  0  0  0  0  0  0  0  0  0  0  0
   57.7050   30.1100   45.1110 C   0  0  0  0  0  0  0  0  0  0  0  0
   57.5650   31.5800   45.1240 C   0  0  0  0  0  0  0  0  0  0  0  0
   56.4390   32.0870   44.8720 O   0  0  0  0  0  0  0  0  0  0  0  0
   58.6830   32.4400   45.4160 N   0  0  0  0  0  0  0  0  0  0  0  0
   59.4300   32.2810   46.6680 C   0  0  0  0  0  0  0  0  0  0  0  0
   59.1520   33.4840   47.5640 C   0  0  0  0  0  0  0  0  0  0  0  0
   59.4060   34.7230   46.8350 N   0  0  0  0  0  0  0  0  0  0  0  0
   59.1930   34.8360   45.4230 C   0  0  0  0  0  0  0  0  0  0  0  0
   59.2600   35.9680   44.8770 O   0  0  0  0  0  0  0  0  0  0  0  0
   58.9740   33.6110   44.5780 C   0  0  0  0  0  0  0  0  0  0  0  0
   57.9110   29.3220   46.2260 C   0  0  0  0  0  0  0  0  0  0  0  0
   58.0010   28.0130   45.7810 C   0  0  0  0  0  0  0  0  0  0  0  0
   58.1340   26.9620   46.6120 C   0  0  0  0  0  0  0  0  0  0  0  0
   57.2000   25.8290   46.7170 C   0  0  0  0  0  0  0  0  0  0  0  0
   57.5600   24.5600   46.9840 N   0  0  0  0  0  0  0  0  0  0  0  0
   56.4080   23.8710   46.8360 C   0  0  0  0  0  0  0  0  0  0  0  0
   56.3330   22.6290   47.0210 O   0  0  0  0  0  0  0  0  0  0  0  0
   55.3460   24.6170   46.4630 N   0  0  0  0  0  0  0  0  0  0  0  0
   55.8700   25.8510   46.3780 C   0  0  0  0  0  0  0  0  0  0  0  0
   55.1460   26.9720   45.9930 O   0  0  0  0  0  0  0  0  0  0  0  0
   58.3112   26.0708   43.8408 H   0  0  0  0  0  0  0  0  0  0  0  0
   58.1728   27.3322   42.4197 H   0  0  0  0  0  0  0  0  0  0  0  0
   57.6560   29.6990   43.0130 H   0  0  0  0  0  0  0  0  0  0  0  0
   59.1082   31.3598   47.1758 H   0  0  0  0  0  0  0  0  0  0  0  0
   60.5071   32.2158   46.4543 H   0  0  0  0  0  0  0  0  0  0  0  0
   58.1009   33.4613   47.8874 H   0  0  0  0  0  0  0  0  0  0  0  0
   59.8149   33.4402   48.4407 H   0  0  0  0  0  0  0  0  0  0  0  0
   58.1260   33.7882   43.9001 H   0  0  0  0  0  0  0  0  0  0  0  0
   59.8908   33.4124   44.0035 H   0  0  0  0  0  0  0  0  0  0  0  0
   57.9887   29.6672   47.2675 H   0  0  0  0  0  0  0  0  0  0  0  0
   59.0163   26.9488   47.2688 H   0  0  0  0  0  0  0  0  0  0  0  0
  1  2  2  0
  2  3  1  0
  3  4  1  0
  4  5  1  0
  5  6  2  0
  5  7  1  0
  7  8  1  0
  8  9  1  0
  9 10  1  0
 10 11  1  0
 11 12  2  0
 11 13  1  0
  4 14  2  0
 14 15  1  0
 15 16  2  3
 16 17  1  0
 17 18  1  0
 18 19  1  0
 19 20  2  0
 19 21  1  0
 21 22  1  0
 22 23  1  0
 15  2  1  0
 22 17  2  0
 13  7  1  0
  1 24  1  0
  1 25  1  0
  3 26  1  0
  8 27  1  0
  8 28  1  0
  9 29  1  0
  9 30  1  0
 13 31  1  0
 13 32  1  0
 14 33  1  0
 16 34  1  0
M  CHG  4  10  -1  18  -1  21  -1  23  -1
M  END
>  <UniqueID>  (40) 
40

>  <SMILES>  (40) 
C=c1[nH]c(C(=O)N2CC[N-]C(=O)C2)cc1=Cc1[n-]c(=O)[n-]c1[O-]

>  <Energy>  (40) 
105.5375605361857

>  <Genealogy>  (40) 
C=c1[nH]c(C(=O)N2CC[N-]C(=O)C2)cc1=Cc1[n-]c(=O)[n-]c1[O-] (protonated)
C=c1[nH]c(C(=O)N2CC[N-]C(=O)C2)cc1=Cc1[n-]c(=O)[n-]c1[O-] (3D coordinates assigned)
C=c1[nH]c(C(=O)N2CC[N-]C(=O)C2)cc1=Cc1[n-]c(=O)[n-]c1[O-] (nonaromatic ring conformer: 105.5375605361857 kcal/mol)

>  <smiles>  (40) 
C=c1[nH]c(C(=O)N2CCNC(=O)C2)cc1=Cc1[nH]c(=O)[nH]c1O

>  <score_type>  (40) 
oracle

>  <origin>  (40) 
adg

>  <m_score__min__energy>  (40) 
-16.91

>  <m_primary>  (40) 
energy

$$$$
40:0
     RDKit          3D

 46 49  0  0  0  0  0  0  0  0999 V2000
   56.6210   23.3110   42.7810 N   0  0  0  0  0  0  0  0  0  0  0  0
   56.4760   22.0950   43.5180 C   0  0  0  0  0  0  0  0  0  0  0  0
   56.2830   21.0170   42.8940 O   0  0  0  0  0  0  0  0  0  0  0  0
   56.5040   22.0880   44.9990 C   0  0  0  0  0  0  0  0  0  0  0  0
   56.9860   20.9480   45.6650 C   0  0  0  0  0  0  0  0  0  0  0  0
   57.0250   20.9010   47.0600 C   0  0  0  0  0  0  0  0  0  0  0  0
   56.5820   21.9900   47.8080 C   0  0  0  0  0  0  0  0  0  0  0  0
   56.1140   23.1360   47.1630 C   0  0  0  0  0  0  0  0  0  0  0  0
   56.0990   23.2120   45.7570 C   0  0  0  0  0  0  0  0  0  0  0  0
   55.6950   24.4220   45.0950 N   0  0  0  0  0  0  0  0  0  0  0  0
   55.8040   25.7490   45.6310 C   0  0  0  0  0  0  0  0  0  0  0  0
   54.7600   26.3300   46.0290 O   0  0  0  0  0  0  0  0  0  0  0  0
   57.1010   26.4530   45.6980 C   0  0  0  0  0  0  0  0  0  0  0  0
   57.6810   26.7580   46.9410 C   0  0  0  0  0  0  0  0  0  0  0  0
   58.8500   27.5170   47.0060 C   0  0  0  0  0  0  0  0  0  0  0  0
   59.4630   27.9750   45.8300 C   0  0  0  0  0  0  0  0  0  0  0  0
   60.6130   28.9420   45.9100 C   0  0  0  0  0  0  0  0  0  0  0  0
   60.1430   30.2220   46.4420 N   0  0  0  0  0  0  0  0  0  0  0  0
   58.9180   30.8630   46.0750 C   0  0  0  0  0  0  0  0  0  0  0  0
   57.9120   30.2570   45.6200 O   0  0  0  0  0  0  0  0  0  0  0  0
   59.0170   32.3030   46.2720 C   0  0  0  0  0  0  0  0  0  0  0  0
   58.1010   33.3220   46.0230 C   0  0  0  0  0  0  0  0  0  0  0  0
   58.5000   34.6460   46.2790 C   0  0  0  0  0  0  0  0  0  0  0  0
   59.7960   34.9200   46.7670 C   0  0  0  0  0  0  0  0  0  0  0  0
   60.7050   33.8740   47.0000 C   0  0  0  0  0  0  0  0  0  0  0  0
   60.2820   32.5710   46.7450 C   0  0  0  0  0  0  0  0  0  0  0  0
   60.9920   31.3020   46.8450 C   0  0  0  0  0  0  0  0  0  0  0  0
   62.1930   31.1640   47.1990 O   0  0  0  0  0  0  0  0  0  0  0  0
   58.9120   27.6300   44.5870 C   0  0  0  0  0  0  0  0  0  0  0  0
   57.7460   26.8620   44.5210 C   0  0  0  0  0  0  0  0  0  0  0  0
   56.6470   23.2890   41.7370 H   0  0  0  0  0  0  0  0  0  0  0  0
   56.6080   24.2370   43.2600 H   0  0  0  0  0  0  0  0  0  0  0  0
   57.3361   20.0839   45.0813 H   0  0  0  0  0  0  0  0  0  0  0  0
   57.4059   20.0033   47.5690 H   0  0  0  0  0  0  0  0  0  0  0  0
   56.6011   21.9466   48.9070 H   0  0  0  0  0  0  0  0  0  0  0  0
   55.7535   23.9877   47.7586 H   0  0  0  0  0  0  0  0  0  0  0  0
   57.2110   26.3965   47.8676 H   0  0  0  0  0  0  0  0  0  0  0  0
   59.2930   27.7574   47.9837 H   0  0  0  0  0  0  0  0  0  0  0  0
   61.3895   28.5331   46.5731 H   0  0  0  0  0  0  0  0  0  0  0  0
   61.0309   29.0961   44.9042 H   0  0  0  0  0  0  0  0  0  0  0  0
   57.0954   33.0979   45.6376 H   0  0  0  0  0  0  0  0  0  0  0  0
   57.7979   35.4732   46.0979 H   0  0  0  0  0  0  0  0  0  0  0  0
   60.0963   35.9593   46.9662 H   0  0  0  0  0  0  0  0  0  0  0  0
   61.7198   34.0776   47.3724 H   0  0  0  0  0  0  0  0  0  0  0  0
   59.3998   27.9654   43.6599 H   0  0  0  0  0  0  0  0  0  0  0  0
   57.3324   26.5771   43.5423 H   0  0  0  0  0  0  0  0  0  0  0  0
  1  2  1  0
  2  3  2  0
  2  4  1  0
  4  5  2  0
  5  6  1  0
  6  7  2  0
  7  8  1  0
  8  9  2  0
  9 10  1  0
 10 11  1  0
 11 12  2  0
 11 13  1  0
 13 14  2  0
 14 15  1  0
 15 16  2  0
 16 17  1  0
 17 18  1  0
 18 19  1  0
 19 20  2  0
 19 21  1  0
 21 22  2  0
 22 23  1  0
 23 24  2  0
 24 25  1  0
 25 26  2  0
 26 27  1  0
 27 28  2  0
 16 29  1  0
 29 30  2  0
  9  4  1  0
 30 13  1  0
 27 18  1  0
 26 21  1  0
  1 31  1  0
  1 32  1  0
  5 33  1  0
  6 34  1  0
  7 35  1  0
  8 36  1  0
 14 37  1  0
 15 38  1  0
 17 39  1  0
 17 40  1  0
 22 41  1  0
 23 42  1  0
 24 43  1  0
 25 44  1  0
 29 45  1  0
 30 46  1  0
M  CHG  1  10  -1
M  END
>  <UniqueID>  (41) 
41

>  <SMILES>  (41) 
NC(=O)c1ccccc1[N-]C(=O)c1ccc(CN2C(=O)c3ccccc3C2=O)cc1

>  <Energy>  (41) 
91.00371264088403

>  <Genealogy>  (41) 
NC(=O)c1ccccc1[N-]C(=O)c1ccc(CN2C(=O)c3ccccc3C2=O)cc1 (protonated)
NC(=O)c1ccccc1[N-]C(=O)c1ccc(CN2C(=O)c3ccccc3C2=O)cc1 (3D coordinates assigned)
NC(=O)c1ccccc1[N-]C(=O)c1ccc(CN2C(=O)c3ccccc3C2=O)cc1 (nonaromatic ring conformer: 91.00371264088403 kcal/mol)

>  <smiles>  (41) 
NC(=O)c1ccccc1NC(=O)c1ccc(CN2C(=O)c3ccccc3C2=O)cc1

>  <score_type>  (41) 
oracle

>  <origin>  (41) 
adg

>  <m_score__min__energy>  (41) 
-11.710000000000001

>  <m_primary>  (41) 
energy

$$$$
41:0
     RDKit          3D

 25 26  0  0  0  0  0  0  0  0999 V2000
   58.8820   26.3100   47.9860 O   0  0  0  0  0  0  0  0  0  0  0  0
   58.2900   25.9760   46.9250 C   0  0  0  0  0  0  0  0  0  0  0  0
   58.6000   26.6910   45.6480 C   0  0  0  0  0  0  0  0  0  0  0  0
   57.6350   27.8190   45.4440 C   0  0  0  0  0  0  0  0  0  0  0  0
   57.9520   29.0880   45.0080 C   0  0  0  0  0  0  0  0  0  0  0  0
   56.7460   29.7520   44.9060 C   0  0  0  0  0  0  0  0  0  0  0  0
   56.6080   31.0720   44.4990 O   0  0  0  0  0  0  0  0  0  0  0  0
   55.7020   28.9700   45.2420 N   0  0  0  0  0  0  0  0  0  0  0  0
   56.2550   27.7850   45.5640 C   0  0  0  0  0  0  0  0  0  0  0  0
   55.4990   26.6830   45.9560 O   0  0  0  0  0  0  0  0  0  0  0  0
   57.2500   24.9900   46.9420 N   0  0  0  0  0  0  0  0  0  0  0  0
   56.9480   24.0440   45.9050 C   0  0  0  0  0  0  0  0  0  0  0  0
   57.9500   23.4830   45.0920 C   0  0  0  0  0  0  0  0  0  0  0  0
   57.6060   22.5860   44.0800 C   0  0  0  0  0  0  0  0  0  0  0  0
   56.2630   22.2660   43.8750 C   0  0  0  0  0  0  0  0  0  0  0  0
   55.9030   21.3740   42.8720 O   0  0  0  0  0  0  0  0  0  0  0  0
   55.3030   22.8320   44.6530 N   0  0  0  0  0  0  0  0  0  0  0  0
   55.6100   23.7080   45.6470 C   0  0  0  0  0  0  0  0  0  0  0  0
   54.6840   24.2110   46.3380 O   0  0  0  0  0  0  0  0  0  0  0  0
   59.6236   27.0913   45.6940 H   0  0  0  0  0  0  0  0  0  0  0  0
   58.5124   25.9851   44.8089 H   0  0  0  0  0  0  0  0  0  0  0  0
   58.9533   29.4867   44.7881 H   0  0  0  0  0  0  0  0  0  0  0  0
   55.9070   25.9190   46.4800 H   0  0  0  0  0  0  0  0  0  0  0  0
   59.0043   23.7515   45.2541 H   0  0  0  0  0  0  0  0  0  0  0  0
   58.3864   22.1351   43.4494 H   0  0  0  0  0  0  0  0  0  0  0  0
  1  2  2  0
  2  3  1  0
  3  4  1  0
  4  5  1  0
  5  6  2  0
  6  7  1  0
  6  8  1  0
  8  9  1  0
  9 10  1  0
  2 11  1  0
 11 12  1  0
 12 13  2  0
 13 14  1  0
 14 15  2  0
 15 16  1  0
 15 17  1  0
 17 18  1  0
 18 19  2  0
  9  4  2  0
 18 12  1  0
  3 20  1  0
  3 21  1  0
  5 22  1  0
 10 23  1  0
 13 24  1  0
 14 25  1  0
M  CHG  5   7  -1   8  -1  11  -1  16  -1  17  -1
M  END
>  <UniqueID>  (42) 
42

>  <SMILES>  (42) 
O=C(Cc1cc([O-])[n-]c1O)[N-]c1ccc([O-])[n-]c1=O

>  <Energy>  (42) 
53.8109807672171

>  <Genealogy>  (42) 
O=C(Cc1cc([O-])[n-]c1O)[N-]c1ccc([O-])[n-]c1=O (protonated)
O=C(Cc1cc([O-])[n-]c1O)[N-]c1ccc([O-])[n-]c1=O (3D coordinates assigned)
O=C(Cc1cc([O-])[n-]c1O)[N-]c1ccc([O-])[n-]c1=O (optimized conformer: 53.8109807672171 kcal/mol)

>  <smiles>  (42) 
O=C(Cc1cc(O)[nH]c1O)Nc1ccc(O)[nH]c1=O

>  <score_type>  (42) 
oracle

>  <origin>  (42) 
adg

>  <m_score__min__energy>  (42) 
-15.58

>  <m_primary>  (42) 
energy

$$$$
42:0
     RDKit          3D

 50 52  0  0  0  0  0  0  0  0999 V2000
   57.6760   32.1260   44.2990 C   0  0  0  0  0  0  0  0  0  0  0  0
   58.2420   33.3220   44.1140 C   0  0  0  0  0  0  0  0  0  0  0  0
   58.5980   34.2100   45.2750 C   0  0  0  0  0  0  0  0  0  0  0  0
   59.8970   33.8400   45.8340 N   0  0  0  0  0  0  0  0  0  0  0  0
   60.3220   34.3100   47.1200 C   0  0  0  0  0  0  0  0  0  0  0  0
   59.6920   35.2410   47.6890 O   0  0  0  0  0  0  0  0  0  0  0  0
   61.4510   33.7350   47.7840 N   0  0  0  0  0  0  0  0  0  0  0  0
   61.9970   32.1080   47.5360 S   0  0  0  0  0  0  0  0  0  0  0  0
   63.4480   32.1350   47.1470 O   0  0  0  0  0  0  0  0  0  0  0  0
   61.1970   31.5020   46.4180 O   0  0  0  0  0  0  0  0  0  0  0  0
   61.8230   31.1800   49.0350 C   0  0  0  0  0  0  0  0  0  0  0  0
   62.7050   31.4000   50.0530 N   0  0  0  0  0  0  0  0  0  0  0  0
   62.6070   30.7500   51.2430 C   0  0  0  0  0  0  0  0  0  0  0  0
   61.5870   29.8240   51.4540 C   0  0  0  0  0  0  0  0  0  0  0  0
   60.6790   29.5650   50.4320 C   0  0  0  0  0  0  0  0  0  0  0  0
   60.7880   30.2350   49.2080 C   0  0  0  0  0  0  0  0  0  0  0  0
   59.8570   29.9270   48.1560 N   0  0  0  0  0  0  0  0  0  0  0  0
   58.8280   30.7080   47.7600 C   0  0  0  0  0  0  0  0  0  0  0  0
   58.5420   32.0800   48.2910 C   0  0  0  0  0  0  0  0  0  0  0  0
   58.1280   30.0990   46.7370 C   0  0  0  0  0  0  0  0  0  0  0  0
   58.7400   28.8720   46.5140 C   0  0  0  0  0  0  0  0  0  0  0  0
   58.3880   27.9650   45.5830 C   0  0  0  0  0  0  0  0  0  0  0  0
   57.3920   26.8950   45.8250 C   0  0  0  0  0  0  0  0  0  0  0  0
   56.0150   27.1180   45.6550 C   0  0  0  0  0  0  0  0  0  0  0  0
   55.5400   28.3590   45.2460 O   0  0  0  0  0  0  0  0  0  0  0  0
   55.1310   26.1210   45.9110 N   0  0  0  0  0  0  0  0  0  0  0  0
   55.5510   24.9060   46.3470 C   0  0  0  0  0  0  0  0  0  0  0  0
   54.7130   23.9950   46.5750 O   0  0  0  0  0  0  0  0  0  0  0  0
   56.8740   24.6730   46.5440 N   0  0  0  0  0  0  0  0  0  0  0  0
   57.7990   25.6380   46.3020 C   0  0  0  0  0  0  0  0  0  0  0  0
   59.0190   25.3890   46.5000 O   0  0  0  0  0  0  0  0  0  0  0  0
   59.8070   28.7940   47.4130 C   0  0  0  0  0  0  0  0  0  0  0  0
   60.6510   27.7610   47.5660 C   0  0  0  0  0  0  0  0  0  0  0  0
   57.4256   31.4961   43.4327 H   0  0  0  0  0  0  0  0  0  0  0  0
   57.4604   31.7712   45.3176 H   0  0  0  0  0  0  0  0  0  0  0  0
   58.4523   33.6650   43.0902 H   0  0  0  0  0  0  0  0  0  0  0  0
   58.6378   35.2541   44.9312 H   0  0  0  0  0  0  0  0  0  0  0  0
   57.8323   34.0923   46.0559 H   0  0  0  0  0  0  0  0  0  0  0  0
   60.5280   33.2170   45.2840 H   0  0  0  0  0  0  0  0  0  0  0  0
   63.4830   32.0850   49.9270 H   0  0  0  0  0  0  0  0  0  0  0  0
   63.3349   30.9555   52.0417 H   0  0  0  0  0  0  0  0  0  0  0  0
   61.5006   29.3030   52.4190 H   0  0  0  0  0  0  0  0  0  0  0  0
   59.8736   28.8319   50.5864 H   0  0  0  0  0  0  0  0  0  0  0  0
   58.5470   32.0559   49.3907 H   0  0  0  0  0  0  0  0  0  0  0  0
   59.3138   32.7788   47.9360 H   0  0  0  0  0  0  0  0  0  0  0  0
   57.5553   32.4122   47.9360 H   0  0  0  0  0  0  0  0  0  0  0  0
   57.2565   30.5059   46.2033 H   0  0  0  0  0  0  0  0  0  0  0  0
   58.8639   28.0213   44.5929 H   0  0  0  0  0  0  0  0  0  0  0  0
   61.4580   27.8159   48.3114 H   0  0  0  0  0  0  0  0  0  0  0  0
   60.5354   26.8598   46.9459 H   0  0  0  0  0  0  0  0  0  0  0  0
  1  2  2  0
  2  3  1  0
  3  4  1  0
  4  5  1  0
  5  6  2  0
  5  7  1  0
  7  8  1  0
  8  9  2  0
  8 10  2  0
  8 11  1  0
 11 12  2  0
 12 13  1  0
 13 14  2  0
 14 15  1  0
 15 16  2  0
 16 17  1  0
 17 18  1  0
 18 19  1  0
 18 20  2  0
 20 21  1  0
 21 22  2  3
 22 23  1  0
 23 24  2  0
 24 25  1  0
 24 26  1  0
 26 27  1  0
 27 28  2  0
 27 29  1  0
 29 30  1  0
 30 31  2  0
 21 32  1  0
 32 33  2  0
 16 11  1  0
 32 17  1  0
 30 23  1  0
  1 34  1  0
  1 35  1  0
  2 36  1  0
  3 37  1  0
  3 38  1  0
  4 39  1  0
 12 40  1  0
 13 41  1  0
 14 42  1  0
 15 43  1  0
 19 44  1  0
 19 45  1  0
 19 46  1  0
 20 47  1  0
 22 48  1  0
 33 49  1  0
 33 50  1  0
M  CHG  5   7  -1  12   1  25  -1  26  -1  29  -1
M  END
>  <UniqueID>  (43) 
43

>  <SMILES>  (43) 
C=CCNC(=O)[N-]S(=O)(=O)c1[nH+]cccc1-n1c(C)cc(=Cc2c([O-])[n-]c(=O)[n-]c2=O)c1=C

>  <Energy>  (43) 
92.90071187670183

>  <Genealogy>  (43) 
C=CCNC(=O)[N-]S(=O)(=O)c1[nH+]cccc1-n1c(C)cc(=Cc2c([O-])[n-]c(=O)[n-]c2=O)c1=C (protonated)
C=CCNC(=O)[N-]S(=O)(=O)c1[nH+]cccc1-n1c(C)cc(=Cc2c([O-])[n-]c(=O)[n-]c2=O)c1=C (3D coordinates assigned)
C=CCNC(=O)[N-]S(=O)(=O)c1[nH+]cccc1-n1c(C)cc(=Cc2c([O-])[n-]c(=O)[n-]c2=O)c1=C (optimized conformer: 92.90071187670183 kcal/mol)

>  <smiles>  (43) 
C=CCNC(=O)NS(=O)(=O)c1ncccc1-n1c(C)cc(=Cc2c(O)[nH]c(=O)[nH]c2=O)c1=C

>  <score_type>  (43) 
oracle

>  <origin>  (43) 
adg

>  <m_score__min__energy>  (43) 
-15.69

>  <m_primary>  (43) 
energy

$$$$
43:0
     RDKit          3D

 38 40  0  0  0  0  0  0  0  0999 V2000
   56.0920   30.2120   44.8680 O   0  0  0  0  0  0  0  0  0  0  0  0
   57.2200   30.5550   44.4260 C   0  0  0  0  0  0  0  0  0  0  0  0
   57.4290   31.9300   44.0690 N   0  0  0  0  0  0  0  0  0  0  0  0
   57.9880   32.8370   44.8110 C   0  0  0  0  0  0  0  0  0  0  0  0
   58.4090   34.0410   44.3580 N   0  0  0  0  0  0  0  0  0  0  0  0
   58.9910   34.7700   45.3470 C   0  0  0  0  0  0  0  0  0  0  0  0
   59.0280   34.1420   46.5880 C   0  0  0  0  0  0  0  0  0  0  0  0
   59.6780   34.6790   47.8220 C   0  0  0  0  0  0  0  0  0  0  0  0
   61.1180   34.2460   47.8790 C   0  0  0  0  0  0  0  0  0  0  0  0
   61.7790   33.8330   46.7090 C   0  0  0  0  0  0  0  0  0  0  0  0
   63.1060   33.3950   46.7690 C   0  0  0  0  0  0  0  0  0  0  0  0
   63.7770   33.3570   47.9940 C   0  0  0  0  0  0  0  0  0  0  0  0
   63.1210   33.7510   49.1640 C   0  0  0  0  0  0  0  0  0  0  0  0
   63.7710   33.7050   50.3530 F   0  0  0  0  0  0  0  0  0  0  0  0
   61.7940   34.1900   49.1090 C   0  0  0  0  0  0  0  0  0  0  0  0
   58.3350   32.6140   46.4400 S   0  0  0  0  0  0  0  0  0  0  0  0
   58.2350   29.5630   44.2010 N   0  0  0  0  0  0  0  0  0  0  0  0
   58.2900   28.3060   44.8980 C   0  0  0  0  0  0  0  0  0  0  0  0
   59.5140   27.6680   45.1600 C   0  0  0  0  0  0  0  0  0  0  0  0
   59.5410   26.4360   45.8170 C   0  0  0  0  0  0  0  0  0  0  0  0
   58.3490   25.8210   46.2080 C   0  0  0  0  0  0  0  0  0  0  0  0
   57.1130   26.4310   45.9390 C   0  0  0  0  0  0  0  0  0  0  0  0
   55.8850   25.7920   46.3340 N   0  0  0  0  0  0  0  0  0  0  0  0
   54.7800   26.2730   46.0050 O   0  0  0  0  0  0  0  0  0  0  0  0
   55.9070   24.6370   47.0830 O   0  0  0  0  0  0  0  0  0  0  0  0
   57.0950   27.6730   45.2750 C   0  0  0  0  0  0  0  0  0  0  0  0
   59.4004   35.7771   45.1793 H   0  0  0  0  0  0  0  0  0  0  0  0
   59.6288   35.7778   47.8102 H   0  0  0  0  0  0  0  0  0  0  0  0
   59.1501   34.2898   48.7051 H   0  0  0  0  0  0  0  0  0  0  0  0
   61.2513   33.8544   45.7441 H   0  0  0  0  0  0  0  0  0  0  0  0
   63.6223   33.0799   45.8502 H   0  0  0  0  0  0  0  0  0  0  0  0
   64.8222   33.0168   48.0378 H   0  0  0  0  0  0  0  0  0  0  0  0
   61.2781   34.4924   50.0322 H   0  0  0  0  0  0  0  0  0  0  0  0
   58.8970   29.7160   43.4070 H   0  0  0  0  0  0  0  0  0  0  0  0
   60.4560   28.1414   44.8460 H   0  0  0  0  0  0  0  0  0  0  0  0
   60.5041   25.9481   46.0274 H   0  0  0  0  0  0  0  0  0  0  0  0
   58.3788   24.8531   46.7297 H   0  0  0  0  0  0  0  0  0  0  0  0
   56.1317   28.1535   45.0488 H   0  0  0  0  0  0  0  0  0  0  0  0
  1  2  2  0
  2  3  1  0
  3  4  2  3
  4  5  1  0
  5  6  1  0
  6  7  2  0
  7  8  1  0
  8  9  1  0
  9 10  2  0
 10 11  1  0
 11 12  2  0
 12 13  1  0
 13 14  1  0
 13 15  2  0
  7 16  1  0
  2 17  1  0
 17 18  1  0
 18 19  2  0
 19 20  1  0
 20 21  2  0
 21 22  1  0
 22 23  1  0
 23 24  2  0
 23 25  1  0
 22 26  2  0
 16  4  1  0
 26 18  1  0
 15  9  1  0
  6 27  1  0
  8 28  1  0
  8 29  1  0
 10 30  1  0
 11 31  1  0
 12 32  1  0
 15 33  1  0
 17 34  1  0
 19 35  1  0
 20 36  1  0
 21 37  1  0
 26 38  1  0
M  CHG  3   5  -1  23   1  25  -1
M  END
>  <UniqueID>  (44) 
44

>  <SMILES>  (44) 
O=C(N=c1[n-]cc(Cc2cccc(F)c2)s1)Nc1cccc([N+](=O)[O-])c1

>  <Energy>  (44) 
76.90111972557496

>  <Genealogy>  (44) 
O=C(N=c1[n-]cc(Cc2cccc(F)c2)s1)Nc1cccc([N+](=O)[O-])c1 (protonated)
O=C(N=c1[n-]cc(Cc2cccc(F)c2)s1)Nc1cccc([N+](=O)[O-])c1 (3D coordinates assigned)
O=C(N=c1[n-]cc(Cc2cccc(F)c2)s1)Nc1cccc([N+](=O)[O-])c1 (optimized conformer: 76.90111972557496 kcal/mol)

>  <smiles>  (44) 
O=C(N=c1[nH]cc(Cc2cccc(F)c2)s1)Nc1cccc([N+](=O)[O-])c1

>  <score_type>  (44) 
oracle

>  <origin>  (44) 
adg

>  <m_score__min__energy>  (44) 
-11.220000000000001

>  <m_primary>  (44) 
energy

$$$$
44:0
     RDKit          3D

 62 65  0  0  0  0  0  0  0  0999 V2000
   55.7550   22.1950   46.0570 C   0  0  0  0  0  0  0  0  0  0  0  0
   56.3390   23.5690   45.8530 C   0  0  0  0  0  0  0  0  0  0  0  0
   55.5120   24.6900   46.0380 C   0  0  0  0  0  0  0  0  0  0  0  0
   56.0070   25.9830   45.8400 C   0  0  0  0  0  0  0  0  0  0  0  0
   55.1510   27.0740   45.9970 O   0  0  0  0  0  0  0  0  0  0  0  0
   57.3480   26.1740   45.4720 C   0  0  0  0  0  0  0  0  0  0  0  0
   57.9660   27.7960   45.1370 S   0  0  0  0  0  0  0  0  0  0  0  0
   57.0570   28.5270   44.1880 O   0  0  0  0  0  0  0  0  0  0  0  0
   59.3320   27.6930   44.5120 O   0  0  0  0  0  0  0  0  0  0  0  0
   58.0730   28.6780   46.6210 N   0  0  0  0  0  0  0  0  0  0  0  0
   58.7050   29.9580   46.6490 C   0  0  0  0  0  0  0  0  0  0  0  0
   57.9470   31.1020   46.4380 C   0  0  0  0  0  0  0  0  0  0  0  0
   58.5650   32.3420   46.4090 C   0  0  0  0  0  0  0  0  0  0  0  0
   59.9500   32.4440   46.6120 C   0  0  0  0  0  0  0  0  0  0  0  0
   60.5670   33.8210   46.5360 C   0  0  0  0  0  0  0  0  0  0  0  0
   60.6930   31.3120   46.9010 N   0  0  0  0  0  0  0  0  0  0  0  0
   62.1480   31.4020   47.1900 C   0  0  0  0  0  0  0  0  0  0  0  0
   62.4520   31.8470   48.6040 C   0  0  0  0  0  0  0  0  0  0  0  0
   63.6260   31.7000   49.0340 O   0  0  0  0  0  0  0  0  0  0  0  0
   61.4690   32.4010   49.4950 N   0  0  0  0  0  0  0  0  0  0  0  0
   60.5900   31.6880   50.4200 C   0  0  2  0  0  0  0  0  0  0  0  0
   60.3820   30.2590   49.9070 C   0  0  0  0  0  0  0  0  0  0  0  0
   59.5640   29.4450   50.9100 C   0  0  0  0  0  0  0  0  0  0  0  0
   58.3240   30.1680   51.3680 C   0  0  0  0  0  0  0  0  0  0  0  0
   57.3400   29.4540   51.9800 N   0  0  0  0  0  0  0  0  0  0  0  0
   56.2190   30.0420   52.4780 C   0  0  0  0  0  0  0  0  0  0  0  0
   55.2080   29.2310   53.0990 C   0  0  0  0  0  0  0  0  0  0  0  0
   54.3930   28.5780   53.5980 N   0  0  0  0  0  0  0  0  0  0  0  0
   56.0570   31.4270   52.3800 C   0  0  0  0  0  0  0  0  0  0  0  0
   57.0520   32.1890   51.7660 C   0  0  0  0  0  0  0  0  0  0  0  0
   58.2050   31.5720   51.2650 C   0  0  0  0  0  0  0  0  0  0  0  0
   59.2300   32.4000   50.5250 C   0  0  0  0  0  0  0  0  0  0  0  0
   60.0850   30.0720   46.8660 C   0  0  0  0  0  0  0  0  0  0  0  0
   60.7580   29.0170   47.0370 O   0  0  0  0  0  0  0  0  0  0  0  0
   58.1810   25.0600   45.2920 C   0  0  0  0  0  0  0  0  0  0  0  0
   57.6980   23.7570   45.4940 C   0  0  0  0  0  0  0  0  0  0  0  0
   58.8000   22.3880   45.2380 S   0  0  0  0  0  0  0  0  0  0  0  0
   58.4490   21.1070   46.3480 N   0  0  0  0  0  0  0  0  0  0  0  0
   60.2180   22.8390   45.4560 O   0  0  0  0  0  0  0  0  0  0  0  0
   58.6460   21.8580   43.8400 O   0  0  0  0  0  0  0  0  0  0  0  0
   55.6678   21.9899   47.1342 H   0  0  0  0  0  0  0  0  0  0  0  0
   54.7589   22.1474   45.5929 H   0  0  0  0  0  0  0  0  0  0  0  0
   56.4120   21.4447   45.5929 H   0  0  0  0  0  0  0  0  0  0  0  0
   54.4642   24.5490   46.3418 H   0  0  0  0  0  0  0  0  0  0  0  0
   56.8592   31.0243   46.2943 H   0  0  0  0  0  0  0  0  0  0  0  0
   57.9688   33.2482   46.2265 H   0  0  0  0  0  0  0  0  0  0  0  0
   60.7381   34.2028   47.5533 H   0  0  0  0  0  0  0  0  0  0  0  0
   61.5257   33.7641   45.9997 H   0  0  0  0  0  0  0  0  0  0  0  0
   59.8865   34.4986   45.9997 H   0  0  0  0  0  0  0  0  0  0  0  0
   62.5971   30.4104   47.0321 H   0  0  0  0  0  0  0  0  0  0  0  0
   62.5679   32.1604   46.5129 H   0  0  0  0  0  0  0  0  0  0  0  0
   61.0538   31.6680   51.4172 H   0  0  0  0  0  0  0  0  0  0  0  0
   59.8471   30.2933   48.9464 H   0  0  0  0  0  0  0  0  0  0  0  0
   61.3640   29.7808   49.7767 H   0  0  0  0  0  0  0  0  0  0  0  0
   59.2651   28.4987   50.4355 H   0  0  0  0  0  0  0  0  0  0  0  0
   60.1956   29.2735   51.7941 H   0  0  0  0  0  0  0  0  0  0  0  0
   55.1550   31.9111   52.7825 H   0  0  0  0  0  0  0  0  0  0  0  0
   56.9301   33.2785   51.6752 H   0  0  0  0  0  0  0  0  0  0  0  0
   58.8565   32.6009   49.5100 H   0  0  0  0  0  0  0  0  0  0  0  0
   59.3807   33.3321   51.0893 H   0  0  0  0  0  0  0  0  0  0  0  0
   59.2277   25.2092   44.9882 H   0  0  0  0  0  0  0  0  0  0  0  0
   59.2450   20.4280   46.2910 H   0  0  0  0  0  0  0  0  0  0  0  0
  1  2  1  0
  2  3  2  0
  3  4  1  0
  4  5  1  0
  4  6  2  0
  6  7  1  0
  7  8  2  0
  7  9  2  0
  7 10  1  0
 10 11  1  0
 11 12  2  0
 12 13  1  0
 13 14  2  0
 14 15  1  0
 14 16  1  0
 16 17  1  0
 17 18  1  0
 18 19  2  0
 18 20  1  0
 20 21  1  0
 21 22  1  0
 22 23  1  0
 23 24  1  0
 24 25  2  0
 25 26  1  0
 26 27  1  0
 27 28  3  0
 26 29  2  0
 29 30  1  0
 30 31  2  0
 31 32  1  0
 16 33  1  0
 33 34  2  0
  6 35  1  0
 35 36  2  0
 36 37  1  0
 37 38  1  0
 37 39  2  0
 37 40  2  0
 36  2  1  0
 33 11  1  0
 32 21  1  0
 31 24  1  0
  1 41  1  0
  1 42  1  0
  1 43  1  0
  3 44  1  0
 12 45  1  0
 13 46  1  0
 15 47  1  0
 15 48  1  0
 15 49  1  0
 17 50  1  0
 17 51  1  0
 21 52  1  1
 22 53  1  0
 22 54  1  0
 23 55  1  0
 23 56  1  0
 29 57  1  0
 30 58  1  0
 32 59  1  0
 32 60  1  0
 35 61  1  0
 38 62  1  0
M  CHG  4   5  -1  10  -1  20  -1  38  -1
M  END
>  <UniqueID>  (45) 
45

>  <SMILES>  (45) 
Cc1cc([O-])c(S(=O)(=O)[N-]c2ccc(C)n(CC(=O)[N-][C@@H]3CCc4nc(C#N)ccc4C3)c2=O)cc1S([NH-])(=O)=O

>  <Energy>  (45) 
80.81626287533122

>  <Genealogy>  (45) 
Cc1cc([O-])c(S(=O)(=O)[N-]c2ccc(C)n(CC(=O)[N-]C3CCc4nc(C#N)ccc4C3)c2=O)cc1S([NH-])(=O)=O (protonated)
Cc1cc([O-])c(S(=O)(=O)[N-]c2ccc(C)n(CC(=O)[N-][C@@H]3CCc4nc(C#N)ccc4C3)c2=O)cc1S([NH-])(=O)=O (chirality)
Cc1cc([O-])c(S(=O)(=O)[N-]c2ccc(C)n(CC(=O)[N-][C@@H]3CCc4nc(C#N)ccc4C3)c2=O)cc1S([NH-])(=O)=O (3D coordinates assigned)
Cc1cc([O-])c(S(=O)(=O)[N-]c2ccc(C)n(CC(=O)[N-][C@@H]3CCc4nc(C#N)ccc4C3)c2=O)cc1S([NH-])(=O)=O (nonaromatic ring conformer: 80.81626287533122 kcal/mol)

>  <smiles>  (45) 
Cc1cc(O)c(S(=O)(=O)Nc2ccc(C)n(CC(=O)NC3CCc4nc(C#N)ccc4C3)c2=O)cc1S(N)(=O)=O

>  <score_type>  (45) 
oracle

>  <origin>  (45) 
adg

>  <m_score__min__energy>  (45) 
-19.920000000000002

>  <m_primary>  (45) 
energy

$$$$
45:0
     RDKit          3D

 45 48  0  0  0  0  0  0  0  0999 V2000
   65.9926   33.9696   51.2677 H   0  0  0  0  0  0  0  0  0  0  0  0
   65.1240   33.5260   50.7590 C   0  0  0  0  0  0  0  0  0  0  0  0
   65.1260   32.3370   50.1690 C   0  0  0  0  0  0  0  0  0  0  0  0
   65.9933   31.6613   50.1340 H   0  0  0  0  0  0  0  0  0  0  0  0
   63.8010   32.0380   49.5610 C   0  0  0  0  0  0  0  0  0  0  0  0
   63.8897   31.8996   48.4734 H   0  0  0  0  0  0  0  0  0  0  0  0
   63.3534   31.1093   49.9447 H   0  0  0  0  0  0  0  0  0  0  0  0
   63.0080   33.2220   49.8730 N   0  0  0  0  0  0  0  0  0  0  0  0
   61.5800   33.3110   49.7260 C   0  0  0  0  0  0  0  0  0  0  0  0
   60.9320   34.1220   50.4420 O   0  0  0  0  0  0  0  0  0  0  0  0
   60.8460   32.4600   48.7680 C   0  0  0  0  0  0  0  0  0  0  0  0
   59.5740   31.9570   49.0840 C   0  0  0  0  0  0  0  0  0  0  0  0
   59.1120   32.2059   50.0507 H   0  0  0  0  0  0  0  0  0  0  0  0
   58.8910   31.1410   48.1760 C   0  0  0  0  0  0  0  0  0  0  0  0
   57.8908   30.7586   48.4279 H   0  0  0  0  0  0  0  0  0  0  0  0
   59.4760   30.8090   46.9470 C   0  0  0  0  0  0  0  0  0  0  0  0
   58.7790   29.9610   46.0180 N   0  0  0  0  0  0  0  0  0  0  0  0
   58.1020   30.3760   44.9240 C   0  0  0  0  0  0  0  0  0  0  0  0
   57.9990   31.8000   44.4670 C   0  0  0  0  0  0  0  0  0  0  0  0
   57.9510   32.4636   45.3429 H   0  0  0  0  0  0  0  0  0  0  0  0
   58.8810   32.0554   43.8614 H   0  0  0  0  0  0  0  0  0  0  0  0
   57.0894   31.9258   43.8614 H   0  0  0  0  0  0  0  0  0  0  0  0
   57.5560   29.2980   44.2570 C   0  0  0  0  0  0  0  0  0  0  0  0
   56.9666   29.3301   43.3288 H   0  0  0  0  0  0  0  0  0  0  0  0
   57.8950   28.1650   44.9850 C   0  0  0  0  0  0  0  0  0  0  0  0
   57.5940   26.8910   44.6670 C   0  0  0  0  0  0  0  0  0  0  0  0
   57.7257   26.5748   43.6217 H   0  0  0  0  0  0  0  0  0  0  0  0
   57.0990   25.8950   45.6340 C   0  0  0  0  0  0  0  0  0  0  0  0
   57.8810   24.9480   46.1840 N   0  0  0  0  0  0  0  0  0  0  0  0
   57.0560   24.3270   47.0540 C   0  0  0  0  0  0  0  0  0  0  0  0
   57.4270   23.3560   47.7640 O   0  0  0  0  0  0  0  0  0  0  0  0
   55.8060   24.8350   47.1130 N   0  0  0  0  0  0  0  0  0  0  0  0
   55.8520   25.8340   46.2180 C   0  0  0  0  0  0  0  0  0  0  0  0
   54.7910   26.6990   45.9780 O   0  0  0  0  0  0  0  0  0  0  0  0
   58.6630   28.6100   46.0670 C   0  0  0  0  0  0  0  0  0  0  0  0
   59.2310   27.8410   47.0100 C   0  0  0  0  0  0  0  0  0  0  0  0
   59.8161   28.3039   47.8183 H   0  0  0  0  0  0  0  0  0  0  0  0
   59.1111   26.7481   46.9742 H   0  0  0  0  0  0  0  0  0  0  0  0
   60.7570   31.2900   46.6390 C   0  0  0  0  0  0  0  0  0  0  0  0
   61.2262   31.0247   45.6801 H   0  0  0  0  0  0  0  0  0  0  0  0
   61.4400   32.1060   47.5470 C   0  0  0  0  0  0  0  0  0  0  0  0
   62.4481   32.4721   47.3026 H   0  0  0  0  0  0  0  0  0  0  0  0
   63.7930   34.1800   50.6420 C   0  0  0  0  0  0  0  0  0  0  0  0
   63.8722   35.1398   50.1105 H   0  0  0  0  0  0  0  0  0  0  0  0
   63.3444   34.4149   51.6185 H   0  0  0  0  0  0  0  0  0  0  0  0
  1  2  1  0
  2  3  2  0
  3  4  1  0
  3  5  1  0
  5  6  1  0
  5  7  1  0
  5  8  1  0
  8  9  1  0
  9 10  2  0
  9 11  1  0
 11 12  2  0
 12 13  1  0
 12 14  1  0
 14 15  1  0
 14 16  2  0
 16 17  1  0
 17 18  1  0
 18 19  1  0
 19 20  1  0
 19 21  1  0
 19 22  1  0
 18 23  2  0
 23 24  1  0
 23 25  1  0
 25 26  2  0
 26 27  1  0
 26 28  1  0
 28 29  1  0
 29 30  1  0
 30 31  2  0
 30 32  1  0
 32 33  1  0
 33 34  1  0
 25 35  1  0
 35 36  2  0
 36 37  1  0
 36 38  1  0
 16 39  1  0
 39 40  1  0
 39 41  2  0
 41 42  1  0
  8 43  1  0
 43 44  1  0
 43 45  1  0
 43  2  1  0
 41 11  1  0
 35 17  1  0
 33 28  2  0
M  CHG  3  29  -1  32  -1  34  -1
M  END
>  <UniqueID>  (46) 
46

>  <SMILES>  (46) 
C=c1/c(=C/c2[n-]c(=O)[n-]c2[O-])cc(C)n1-c1ccc(C(=O)N2CC=CC2)cc1

>  <Energy>  (46) 
129.9754707970785

>  <Genealogy>  (46) 
C=c1c(=Cc2[n-]c(=O)[n-]c2[O-])cc(C)n1-c1ccc(C(=O)N2CC=CC2)cc1 (protonated)
C=c1/c(=C/c2[n-]c(=O)[n-]c2[O-])cc(C)n1-c1ccc(C(=O)N2CC=CC2)cc1 (cis-trans isomerization)
C=c1/c(=C/c2[n-]c(=O)[n-]c2[O-])cc(C)n1-c1ccc(C(=O)N2CC=CC2)cc1 (3D coordinates assigned)
C=c1/c(=C/c2[n-]c(=O)[n-]c2[O-])cc(C)n1-c1ccc(C(=O)N2CC=CC2)cc1 (nonaromatic ring conformer: 129.9754707970785 kcal/mol)

>  <smiles>  (46) 
C=c1c(=Cc2[nH]c(=O)[nH]c2O)cc(C)n1-c1ccc(C(=O)N2CC=CC2)cc1

>  <score_type>  (46) 
oracle

>  <origin>  (46) 
adg

>  <m_score__min__energy>  (46) 
-15.73

>  <m_primary>  (46) 
energy

$$$$
46:0
     RDKit          3D

 38 40  0  0  0  0  0  0  0  0999 V2000
   53.4400   28.7120   54.3880 C   0  0  0  0  0  0  0  0  0  0  0  0
   54.3410   29.3880   53.6480 C   0  0  0  0  0  0  0  0  0  0  0  0
   55.6880   28.9940   53.7610 C   0  0  0  0  0  0  0  0  0  0  0  0
   56.7010   29.6700   53.0890 C   0  0  0  0  0  0  0  0  0  0  0  0
   56.4020   30.7680   52.2780 C   0  0  0  0  0  0  0  0  0  0  0  0
   57.4580   31.4900   51.5170 C   0  0  0  0  0  0  0  0  0  0  0  0
   57.2570   32.7060   51.2430 O   0  0  0  0  0  0  0  0  0  0  0  0
   58.7070   30.8800   51.0940 N   0  0  0  0  0  0  0  0  0  0  0  0
   58.5300   29.7810   50.1230 C   0  0  0  0  0  0  0  0  0  0  0  0
   59.8920   29.1170   49.8070 C   0  0  0  0  0  0  0  0  0  0  0  0
   61.0020   29.9170   50.1880 O   0  0  0  0  0  0  0  0  0  0  0  0
   60.7990   31.2570   49.7850 C   0  0  0  0  0  0  0  0  0  0  0  0
   59.6630   31.8980   50.6050 C   0  0  0  0  0  0  0  0  0  0  0  0
   55.0650   31.1550   52.1210 C   0  0  0  0  0  0  0  0  0  0  0  0
   54.0080   30.4940   52.7950 C   0  0  0  0  0  0  0  0  0  0  0  0
   52.7210   30.8800   52.5750 C   0  0  0  0  0  0  0  0  0  0  0  0
   52.1150   31.1110   51.2490 C   0  0  0  0  0  0  0  0  0  0  0  0
   52.1260   30.1980   50.2610 N   0  0  0  0  0  0  0  0  0  0  0  0
   51.3840   30.7760   49.2910 C   0  0  0  0  0  0  0  0  0  0  0  0
   51.1730   30.2240   48.1800 O   0  0  0  0  0  0  0  0  0  0  0  0
   50.8780   31.9870   49.6100 N   0  0  0  0  0  0  0  0  0  0  0  0
   51.3390   32.1800   50.8560 C   0  0  0  0  0  0  0  0  0  0  0  0
   51.0280   33.2910   51.6290 O   0  0  0  0  0  0  0  0  0  0  0  0
   52.3743   28.9798   54.3368 H   0  0  0  0  0  0  0  0  0  0  0  0
   53.7703   27.8925   55.0432 H   0  0  0  0  0  0  0  0  0  0  0  0
   55.9450   28.1324   54.3948 H   0  0  0  0  0  0  0  0  0  0  0  0
   57.7442   29.3381   53.1967 H   0  0  0  0  0  0  0  0  0  0  0  0
   59.1260   30.4460   51.9530 H   0  0  0  0  0  0  0  0  0  0  0  0
   57.8494   29.0282   50.5474 H   0  0  0  0  0  0  0  0  0  0  0  0
   58.1078   30.1902   49.1933 H   0  0  0  0  0  0  0  0  0  0  0  0
   59.9486   28.1598   50.3460 H   0  0  0  0  0  0  0  0  0  0  0  0
   59.9452   28.9788   48.7170 H   0  0  0  0  0  0  0  0  0  0  0  0
   61.7263   31.8274   49.9427 H   0  0  0  0  0  0  0  0  0  0  0  0
   60.5228   31.2716   48.7203 H   0  0  0  0  0  0  0  0  0  0  0  0
   60.0976   32.4240   51.4678 H   0  0  0  0  0  0  0  0  0  0  0  0
   59.1191   32.5978   49.9535 H   0  0  0  0  0  0  0  0  0  0  0  0
   54.8283   31.9974   51.4544 H   0  0  0  0  0  0  0  0  0  0  0  0
   52.0811   31.0320   53.4567 H   0  0  0  0  0  0  0  0  0  0  0  0
  1  2  2  0
  2  3  1  0
  3  4  2  0
  4  5  1  0
  5  6  1  0
  6  7  2  0
  6  8  1  0
  8  9  1  0
  9 10  1  0
 10 11  1  0
 11 12  1  0
 12 13  1  0
  5 14  2  0
 14 15  1  0
 15 16  2  3
 16 17  1  0
 17 18  1  0
 18 19  1  0
 19 20  2  0
 19 21  1  0
 21 22  1  0
 22 23  1  0
 15  2  1  0
 22 17  2  0
 13  8  1  0
  1 24  1  0
  1 25  1  0
  3 26  1  0
  4 27  1  0
  8 28  1  0
  9 29  1  0
  9 30  1  0
 10 31  1  0
 10 32  1  0
 12 33  1  0
 12 34  1  0
 13 35  1  0
 13 36  1  0
 14 37  1  0
 16 38  1  0
M  CHG  4   8   1  18  -1  21  -1  23  -1
M  END
>  <UniqueID>  (47) 
47

>  <SMILES>  (47) 
C=c1ccc(C(=O)[NH+]2CCOCC2)cc1=Cc1[n-]c(=O)[n-]c1[O-]

>  <Energy>  (47) 
104.64736315788947

>  <Genealogy>  (47) 
C=c1ccc(C(=O)[NH+]2CCOCC2)cc1=Cc1[n-]c(=O)[n-]c1[O-] (protonated)
C=c1ccc(C(=O)[NH+]2CCOCC2)cc1=Cc1[n-]c(=O)[n-]c1[O-] (3D coordinates assigned)
C=c1ccc(C(=O)[NH+]2CCOCC2)cc1=Cc1[n-]c(=O)[n-]c1[O-] (nonaromatic ring conformer: 104.64736315788947 kcal/mol)

>  <smiles>  (47) 
C=c1ccc(C(=O)N2CCOCC2)cc1=Cc1[nH]c(=O)[nH]c1O

>  <score_type>  (47) 
oracle

>  <origin>  (47) 
adg

>  <m_score__min__energy>  (47) 
-15.119999999999999

>  <m_primary>  (47) 
energy

$$$$
47:0
     RDKit          3D

 56 58  0  0  0  0  0  0  0  0999 V2000
   59.4580   34.9870   45.6650 C   0  0  0  0  0  0  0  0  0  0  0  0
   58.4360   33.8920   45.6560 C   0  0  0  0  0  0  0  0  0  0  0  0
   57.7850   33.6590   46.7060 O   0  0  0  0  0  0  0  0  0  0  0  0
   58.1680   33.1000   44.4900 N   0  0  0  0  0  0  0  0  0  0  0  0
   57.5140   31.8240   44.4420 C   0  0  0  0  0  0  0  0  0  0  0  0
   57.0220   31.3020   45.4770 O   0  0  0  0  0  0  0  0  0  0  0  0
   57.3800   31.1220   43.1300 C   0  0  0  0  0  0  0  0  0  0  0  0
   56.5220   29.5710   43.3500 S   0  0  0  0  0  0  0  0  0  0  0  0
   56.2570   28.9770   41.9950 O   0  0  0  0  0  0  0  0  0  0  0  0
   55.2120   29.8150   44.0470 O   0  0  0  0  0  0  0  0  0  0  0  0
   57.5120   28.4790   44.2920 N   0  0  0  0  0  0  0  0  0  0  0  0
   58.9560   28.8000   44.1570 C   0  0  0  0  0  0  0  0  0  0  0  0
   59.4990   29.6190   45.3390 C   0  0  0  0  0  0  0  0  0  0  0  0
   59.3090   28.8640   46.6820 C   0  0  0  0  0  0  0  0  0  0  0  0
   59.1800   29.8090   47.8530 C   0  0  0  0  0  0  0  0  0  0  0  0
   59.2840   29.3830   49.0380 O   0  0  0  0  0  0  0  0  0  0  0  0
   59.0710   31.2180   47.6170 N   0  0  0  0  0  0  0  0  0  0  0  0
   59.9290   32.1820   48.2500 C   0  0  0  0  0  0  0  0  0  0  0  0
   59.3740   33.2590   48.9500 C   0  0  0  0  0  0  0  0  0  0  0  0
   60.1790   34.2030   49.5050 N   0  0  0  0  0  0  0  0  0  0  0  0
   61.5330   34.1540   49.3870 C   0  0  0  0  0  0  0  0  0  0  0  0
   62.1420   33.1190   48.6620 C   0  0  0  0  0  0  0  0  0  0  0  0
   63.6150   33.0780   48.4910 C   0  0  0  0  0  0  0  0  0  0  0  0
   64.1220   33.5430   47.4330 O   0  0  0  0  0  0  0  0  0  0  0  0
   64.5130   32.5260   49.5360 C   0  0  0  0  0  0  0  0  0  0  0  0
   64.1180   31.4280   50.3240 C   0  0  0  0  0  0  0  0  0  0  0  0
   64.9680   30.9250   51.3150 C   0  0  0  0  0  0  0  0  0  0  0  0
   66.2220   31.5020   51.5220 C   0  0  0  0  0  0  0  0  0  0  0  0
   66.6320   32.5800   50.7340 C   0  0  0  0  0  0  0  0  0  0  0  0
   65.7860   33.0850   49.7400 C   0  0  0  0  0  0  0  0  0  0  0  0
   61.3250   32.1180   48.1170 C   0  0  0  0  0  0  0  0  0  0  0  0
   58.0950   27.9060   46.6420 C   0  0  0  0  0  0  0  0  0  0  0  0
   57.0200   28.4300   45.6870 C   0  0  0  0  0  0  0  0  0  0  0  0
   59.7039   35.2505   46.7043 H   0  0  0  0  0  0  0  0  0  0  0  0
   60.3669   34.6445   45.1487 H   0  0  0  0  0  0  0  0  0  0  0  0
   59.0537   35.8701   45.1487 H   0  0  0  0  0  0  0  0  0  0  0  0
   56.8120   31.7567   42.4339 H   0  0  0  0  0  0  0  0  0  0  0  0
   58.3826   30.9247   42.7227 H   0  0  0  0  0  0  0  0  0  0  0  0
   59.5206   27.8581   44.0936 H   0  0  0  0  0  0  0  0  0  0  0  0
   59.0754   29.4103   43.2496 H   0  0  0  0  0  0  0  0  0  0  0  0
   60.5714   29.8071   45.1822 H   0  0  0  0  0  0  0  0  0  0  0  0
   58.9416   30.5659   45.3908 H   0  0  0  0  0  0  0  0  0  0  0  0
   60.2199   28.2637   46.8229 H   0  0  0  0  0  0  0  0  0  0  0  0
   58.4460   31.5410   46.8420 H   0  0  0  0  0  0  0  0  0  0  0  0
   58.2818   33.3420   49.0515 H   0  0  0  0  0  0  0  0  0  0  0  0
   62.1528   34.9288   49.8618 H   0  0  0  0  0  0  0  0  0  0  0  0
   63.1349   30.9627   50.1594 H   0  0  0  0  0  0  0  0  0  0  0  0
   64.6473   30.0729   51.9324 H   0  0  0  0  0  0  0  0  0  0  0  0
   66.8867   31.1082   52.3049 H   0  0  0  0  0  0  0  0  0  0  0  0
   67.6215   33.0328   50.8950 H   0  0  0  0  0  0  0  0  0  0  0  0
   66.1200   33.9255   49.1139 H   0  0  0  0  0  0  0  0  0  0  0  0
   61.7826   31.2742   47.5799 H   0  0  0  0  0  0  0  0  0  0  0  0
   58.4288   26.9151   46.3004 H   0  0  0  0  0  0  0  0  0  0  0  0
   57.6660   27.8384   47.6526 H   0  0  0  0  0  0  0  0  0  0  0  0
   56.1448   27.7653   45.7344 H   0  0  0  0  0  0  0  0  0  0  0  0
   56.7525   29.4515   45.9950 H   0  0  0  0  0  0  0  0  0  0  0  0
  1  2  1  0
  2  3  2  0
  2  4  1  0
  4  5  1  0
  5  6  2  0
  5  7  1  0
  7  8  1  0
  8  9  2  0
  8 10  2  0
  8 11  1  0
 11 12  1  0
 12 13  1  0
 13 14  1  0
 14 15  1  0
 15 16  2  0
 15 17  1  0
 17 18  1  0
 18 19  2  0
 19 20  1  0
 20 21  2  0
 21 22  1  0
 22 23  1  0
 23 24  2  0
 23 25  1  0
 25 26  2  0
 26 27  1  0
 27 28  2  0
 28 29  1  0
 29 30  2  0
 22 31  2  0
 14 32  1  0
 32 33  1  0
 33 11  1  0
 31 18  1  0
 30 25  1  0
  1 34  1  0
  1 35  1  0
  1 36  1  0
  7 37  1  0
  7 38  1  0
 12 39  1  0
 12 40  1  0
 13 41  1  0
 13 42  1  0
 14 43  1  0
 17 44  1  0
 19 45  1  0
 21 46  1  0
 26 47  1  0
 27 48  1  0
 28 49  1  0
 29 50  1  0
 30 51  1  0
 31 52  1  0
 32 53  1  0
 32 54  1  0
 33 55  1  0
 33 56  1  0
M  CHG  1   4  -1
M  END
>  <UniqueID>  (48) 
48

>  <SMILES>  (48) 
CC(=O)[N-]C(=O)CS(=O)(=O)N1CCC(C(=O)Nc2cncc(C(=O)c3ccccc3)c2)CC1

>  <Energy>  (48) 
69.08377379372718

>  <Genealogy>  (48) 
CC(=O)[N-]C(=O)CS(=O)(=O)N1CCC(C(=O)Nc2cncc(C(=O)c3ccccc3)c2)CC1 (protonated)
CC(=O)[N-]C(=O)CS(=O)(=O)N1CCC(C(=O)Nc2cncc(C(=O)c3ccccc3)c2)CC1 (3D coordinates assigned)
CC(=O)[N-]C(=O)CS(=O)(=O)N1CCC(C(=O)Nc2cncc(C(=O)c3ccccc3)c2)CC1 (nonaromatic ring conformer: 69.08377379372718 kcal/mol)

>  <smiles>  (48) 
CC(=O)NC(=O)CS(=O)(=O)N1CCC(C(=O)Nc2cncc(C(=O)c3ccccc3)c2)CC1

>  <score_type>  (48) 
oracle

>  <origin>  (48) 
adg

>  <m_score__min__energy>  (48) 
-13.279999999999999

>  <m_primary>  (48) 
energy

$$$$
48:0
     RDKit          3D

 71 74  0  0  0  0  0  0  0  0999 V2000
   63.7310   33.4080   46.5940 C   0  0  0  0  0  0  0  0  0  0  0  0
   63.5360   32.3320   47.6660 C   0  0  0  0  0  0  0  0  0  0  0  0
   62.4160   31.3480   47.2870 C   0  0  0  0  0  0  0  0  0  0  0  0
   63.3210   32.9530   48.9950 N   0  0  0  0  0  0  0  0  0  0  0  0
   62.5140   34.1890   49.0550 C   0  0  0  0  0  0  0  0  0  0  0  0
   61.1240   33.9820   48.5030 C   0  0  0  0  0  0  0  0  0  0  0  0
   60.1260   33.4110   49.3080 C   0  0  0  0  0  0  0  0  0  0  0  0
   58.8500   33.1820   48.7890 C   0  0  0  0  0  0  0  0  0  0  0  0
   58.5630   33.5020   47.4600 C   0  0  0  0  0  0  0  0  0  0  0  0
   59.5600   34.0350   46.6300 C   0  0  0  0  0  0  0  0  0  0  0  0
   59.2420   34.3970   45.2320 C   0  0  0  0  0  0  0  0  0  0  0  0
   59.2050   35.6140   44.9130 O   0  0  0  0  0  0  0  0  0  0  0  0
   58.9600   33.4170   44.2220 N   0  0  0  0  0  0  0  0  0  0  0  0
   57.6300   33.0090   43.7640 C   0  0  1  0  0  0  0  0  0  0  0  0
   57.7540   31.9580   42.6730 C   0  0  0  0  0  0  0  0  0  0  0  0
   56.8120   30.8440   43.0900 C   0  0  0  0  0  0  0  0  0  0  0  0
   56.6570   30.9210   44.5370 N   0  0  0  0  0  0  0  0  0  0  0  0
   56.8430   32.3290   44.8870 C   0  0  0  0  0  0  0  0  0  0  0  0
   60.8360   34.2760   47.1620 C   0  0  0  0  0  0  0  0  0  0  0  0
   63.7430   32.2800   50.2140 C   0  0  0  0  0  0  0  0  0  0  0  0
   64.7970   31.5900   50.2230 O   0  0  0  0  0  0  0  0  0  0  0  0
   62.9360   32.3170   51.4900 C   0  0  0  0  0  0  0  0  0  0  0  0
   61.6070   31.5910   51.3710 C   0  0  0  0  0  0  0  0  0  0  0  0
   61.4380   30.5670   50.4160 C   0  0  0  0  0  0  0  0  0  0  0  0
   60.1980   29.9360   50.2300 C   0  0  0  0  0  0  0  0  0  0  0  0
   60.0610   28.8680   49.2110 C   0  0  0  0  0  0  0  0  0  0  0  0
   60.1010   27.6600   49.5710 O   0  0  0  0  0  0  0  0  0  0  0  0
   59.9110   29.1840   47.8130 N   0  0  0  0  0  0  0  0  0  0  0  0
   58.9160   30.1800   47.3940 C   0  0  0  0  0  0  0  0  0  0  0  0
   59.2980   30.7470   46.0240 C   0  0  0  0  0  0  0  0  0  0  0  0
   59.5040   29.7030   45.0930 O   0  0  0  0  0  0  0  0  0  0  0  0
   60.6310   28.9380   45.4780 C   0  0  0  0  0  0  0  0  0  0  0  0
   60.3760   28.2230   46.8110 C   0  0  0  0  0  0  0  0  0  0  0  0
   59.1090   30.3260   51.0300 C   0  0  0  0  0  0  0  0  0  0  0  0
   57.8630   29.7250   50.8810 O   0  0  0  0  0  0  0  0  0  0  0  0
   59.2610   31.3440   51.9710 C   0  0  0  0  0  0  0  0  0  0  0  0
   60.4890   31.9930   52.1360 C   0  0  0  0  0  0  0  0  0  0  0  0
   60.5720   33.3550   53.3260 S   0  0  0  0  0  0  0  0  0  0  0  0
   63.9072   34.3800   47.0779 H   0  0  0  0  0  0  0  0  0  0  0  0
   64.5967   33.1483   45.9670 H   0  0  0  0  0  0  0  0  0  0  0  0
   62.8292   33.4686   45.9670 H   0  0  0  0  0  0  0  0  0  0  0  0
   64.4585   31.7360   47.7279 H   0  0  0  0  0  0  0  0  0  0  0  0
   61.9571   30.9448   48.2018 H   0  0  0  0  0  0  0  0  0  0  0  0
   61.6522   31.8725   46.6941 H   0  0  0  0  0  0  0  0  0  0  0  0
   62.8378   30.5230   46.6941 H   0  0  0  0  0  0  0  0  0  0  0  0
   62.4356   34.5118   50.1036 H   0  0  0  0  0  0  0  0  0  0  0  0
   63.0141   34.9525   48.4410 H   0  0  0  0  0  0  0  0  0  0  0  0
   60.3497   33.1430   50.3511 H   0  0  0  0  0  0  0  0  0  0  0  0
   58.0679   32.7479   49.4292 H   0  0  0  0  0  0  0  0  0  0  0  0
   57.5509   33.3353   47.0627 H   0  0  0  0  0  0  0  0  0  0  0  0
   57.1241   33.9210   43.4144 H   0  0  0  0  0  0  0  0  0  0  0  0
   57.4537   32.3739   41.6999 H   0  0  0  0  0  0  0  0  0  0  0  0
   58.7886   31.6023   42.5584 H   0  0  0  0  0  0  0  0  0  0  0  0
   55.8358   30.9744   42.6001 H   0  0  0  0  0  0  0  0  0  0  0  0
   57.2156   29.8642   42.7949 H   0  0  0  0  0  0  0  0  0  0  0  0
   57.4440   30.3810   44.9690 H   0  0  0  0  0  0  0  0  0  0  0  0
   55.8631   32.8156   45.0006 H   0  0  0  0  0  0  0  0  0  0  0  0
   57.3929   32.4119   45.8361 H   0  0  0  0  0  0  0  0  0  0  0  0
   61.6207   34.7011   46.5189 H   0  0  0  0  0  0  0  0  0  0  0  0
   63.5237   31.8441   52.2906 H   0  0  0  0  0  0  0  0  0  0  0  0
   62.7168   33.3720   51.7111 H   0  0  0  0  0  0  0  0  0  0  0  0
   62.2970   30.2559   49.8033 H   0  0  0  0  0  0  0  0  0  0  0  0
   57.9266   29.7036   47.3295 H   0  0  0  0  0  0  0  0  0  0  0  0
   58.8858   30.9966   48.1304 H   0  0  0  0  0  0  0  0  0  0  0  0
   58.4879   31.3981   45.6636 H   0  0  0  0  0  0  0  0  0  0  0  0
   60.2310   31.3208   46.1254 H   0  0  0  0  0  0  0  0  0  0  0  0
   60.8400   28.1880   44.7009 H   0  0  0  0  0  0  0  0  0  0  0  0
   61.4903   29.6138   45.5997 H   0  0  0  0  0  0  0  0  0  0  0  0
   59.6099   27.4468   46.6675 H   0  0  0  0  0  0  0  0  0  0  0  0
   61.3124   27.7626   47.1591 H   0  0  0  0  0  0  0  0  0  0  0  0
   58.4031   31.6407   52.5922 H   0  0  0  0  0  0  0  0  0  0  0  0
  1  2  1  0
  2  3  1  0
  2  4  1  0
  4  5  1  0
  5  6  1  0
  6  7  2  0
  7  8  1  0
  8  9  2  0
  9 10  1  0
 10 11  1  0
 11 12  2  0
 11 13  1  0
 13 14  1  0
 14 15  1  0
 15 16  1  0
 16 17  1  0
 17 18  1  0
 10 19  2  0
  4 20  1  0
 20 21  2  0
 20 22  1  0
 22 23  1  0
 23 24  2  0
 24 25  1  0
 25 26  1  0
 26 27  2  0
 26 28  1  0
 28 29  1  0
 29 30  1  0
 30 31  1  0
 31 32  1  0
 32 33  1  0
 25 34  2  0
 34 35  1  0
 34 36  1  0
 36 37  2  0
 37 38  1  0
 19  6  1  0
 37 23  1  0
 18 14  1  0
 33 28  1  0
  1 39  1  0
  1 40  1  0
  1 41  1  0
  2 42  1  0
  3 43  1  0
  3 44  1  0
  3 45  1  0
  5 46  1  0
  5 47  1  0
  7 48  1  0
  8 49  1  0
  9 50  1  0
 14 51  1  6
 15 52  1  0
 15 53  1  0
 16 54  1  0
 16 55  1  0
 17 56  1  0
 18 57  1  0
 18 58  1  0
 19 59  1  0
 22 60  1  0
 22 61  1  0
 24 62  1  0
 29 63  1  0
 29 64  1  0
 30 65  1  0
 30 66  1  0
 32 67  1  0
 32 68  1  0
 33 69  1  0
 33 70  1  0
 36 71  1  0
M  CHG  3  13  -1  35  -1  38  -1
M  END
>  <UniqueID>  (49) 
49

>  <SMILES>  (49) 
CC(C)N(Cc1cccc(C(=O)[N-][C@H]2CCNC2)c1)C(=O)Cc1cc(C(=O)N2CCOCC2)c([O-])cc1[S-]

>  <Energy>  (49) 
81.71763851433995

>  <Genealogy>  (49) 
CC(C)N(Cc1cccc(C(=O)[N-]C2CCNC2)c1)C(=O)Cc1cc(C(=O)N2CCOCC2)c([O-])cc1[S-] (protonated)
CC(C)N(Cc1cccc(C(=O)[N-][C@H]2CCNC2)c1)C(=O)Cc1cc(C(=O)N2CCOCC2)c([O-])cc1[S-] (chirality)
CC(C)N(Cc1cccc(C(=O)[N-][C@H]2CCNC2)c1)C(=O)Cc1cc(C(=O)N2CCOCC2)c([O-])cc1[S-] (3D coordinates assigned)
CC(C)N(Cc1cccc(C(=O)[N-][C@H]2CCNC2)c1)C(=O)Cc1cc(C(=O)N2CCOCC2)c([O-])cc1[S-] (nonaromatic ring conformer: 81.71763851433995 kcal/mol)

>  <smiles>  (49) 
CC(C)N(Cc1cccc(C(=O)NC2CCNC2)c1)C(=O)Cc1cc(C(=O)N2CCOCC2)c(O)cc1S

>  <score_type>  (49) 
oracle

>  <origin>  (49) 
adg

>  <m_score__min__energy>  (49) 
-15.02

>  <m_primary>  (49) 
energy

$$$$
49:0
     RDKit          3D

 59 62  0  0  0  0  0  0  0  0999 V2000
   61.2987   29.7613   47.1069 H   0  0  0  0  0  0  0  0  0  0  0  0
   60.4850   29.4830   46.4210 C   0  0  0  0  0  0  0  0  0  0  0  0
   60.3602   28.4346   46.1124 H   0  0  0  0  0  0  0  0  0  0  0  0
   59.6450   30.4220   45.9610 C   0  0  0  0  0  0  0  0  0  0  0  0
   58.5710   30.2190   45.0890 C   0  0  0  0  0  0  0  0  0  0  0  0
   58.2130   29.0700   44.4800 C   0  0  0  0  0  0  0  0  0  0  0  0
   58.5953   28.8775   43.4667 H   0  0  0  0  0  0  0  0  0  0  0  0
   57.3380   28.0590   45.0980 C   0  0  0  0  0  0  0  0  0  0  0  0
   57.7990   26.9420   45.6820 N   0  0  0  0  0  0  0  0  0  0  0  0
   56.6790   26.3520   46.1560 C   0  0  0  0  0  0  0  0  0  0  0  0
   56.7000   25.2480   46.7640 O   0  0  0  0  0  0  0  0  0  0  0  0
   55.5380   27.0350   45.9300 N   0  0  0  0  0  0  0  0  0  0  0  0
   55.9730   28.1190   45.2670 C   0  0  0  0  0  0  0  0  0  0  0  0
   55.1430   29.1550   44.8620 O   0  0  0  0  0  0  0  0  0  0  0  0
   57.9660   31.4550   44.9210 C   0  0  0  0  0  0  0  0  0  0  0  0
   57.0838   31.6751   44.3019 H   0  0  0  0  0  0  0  0  0  0  0  0
   58.6830   32.3540   45.6790 C   0  0  0  0  0  0  0  0  0  0  0  0
   58.3460   33.8110   45.7990 C   0  0  0  0  0  0  0  0  0  0  0  0
   58.2823   34.0863   46.8621 H   0  0  0  0  0  0  0  0  0  0  0  0
   59.1293   34.4099   45.3114 H   0  0  0  0  0  0  0  0  0  0  0  0
   57.3792   34.0051   45.3114 H   0  0  0  0  0  0  0  0  0  0  0  0
   59.7110   31.7320   46.3020 N   0  0  0  0  0  0  0  0  0  0  0  0
   60.6160   32.3420   47.2380 C   0  0  0  0  0  0  0  0  0  0  0  0
   61.7110   33.0710   46.7530 C   0  0  0  0  0  0  0  0  0  0  0  0
   61.7897   33.2871   45.6773 H   0  0  0  0  0  0  0  0  0  0  0  0
   62.7030   33.5250   47.6260 C   0  0  0  0  0  0  0  0  0  0  0  0
   63.5547   34.1007   47.2347 H   0  0  0  0  0  0  0  0  0  0  0  0
   62.6180   33.2500   49.0000 C   0  0  0  0  0  0  0  0  0  0  0  0
   63.7610   33.5110   49.9000 C   0  0  0  0  0  0  0  0  0  0  0  0
   63.6560   34.4610   50.7280 O   0  0  0  0  0  0  0  0  0  0  0  0
   64.9540   32.6840   49.8730 N   0  0  1  0  0  0  0  0  0  0  0  0
   65.1290   32.3750   48.8840 H   0  0  0  0  0  0  0  0  0  0  0  0
   66.1580   33.3990   50.3410 C   0  0  0  0  0  0  0  0  0  0  0  0
   66.6363   33.9254   49.5018 H   0  0  0  0  0  0  0  0  0  0  0  0
   65.9009   34.1490   51.1035 H   0  0  0  0  0  0  0  0  0  0  0  0
   67.0970   32.3510   50.9030 C   0  0  0  0  0  0  0  0  0  0  0  0
   67.7479   31.9447   50.1148 H   0  0  0  0  0  0  0  0  0  0  0  0
   67.7714   32.7529   51.6735 H   0  0  0  0  0  0  0  0  0  0  0  0
   66.1540   31.2690   51.4450 C   0  0  2  0  0  0  0  0  0  0  0  0
   66.0702   31.3805   52.5361 H   0  0  0  0  0  0  0  0  0  0  0  0
   66.6410   29.8680   51.3020 N   0  0  0  0  0  0  0  0  0  0  0  0
   65.5840   28.9060   51.6470 C   0  0  0  0  0  0  0  0  0  0  0  0
   65.5004   28.8299   52.7412 H   0  0  0  0  0  0  0  0  0  0  0  0
   64.6259   29.2484   51.2290 H   0  0  0  0  0  0  0  0  0  0  0  0
   65.8349   27.9200   51.2290 H   0  0  0  0  0  0  0  0  0  0  0  0
   67.8890   29.5620   52.0310 C   0  0  0  0  0  0  0  0  0  0  0  0
   67.7017   29.6079   53.1140 H   0  0  0  0  0  0  0  0  0  0  0  0
   68.2334   28.5528   51.7609 H   0  0  0  0  0  0  0  0  0  0  0  0
   68.6611   30.2974   51.7609 H   0  0  0  0  0  0  0  0  0  0  0  0
   64.8190   31.4850   50.7230 C   0  0  0  0  0  0  0  0  0  0  0  0
   64.5846   30.6092   50.1000 H   0  0  0  0  0  0  0  0  0  0  0  0
   64.0060   31.6203   51.4515 H   0  0  0  0  0  0  0  0  0  0  0  0
   61.4970   32.5630   49.4950 C   0  0  0  0  0  0  0  0  0  0  0  0
   61.4168   32.3576   50.5727 H   0  0  0  0  0  0  0  0  0  0  0  0
   60.4760   32.1350   48.6270 C   0  0  0  0  0  0  0  0  0  0  0  0
   59.3140   31.3590   49.1780 C   0  0  0  0  0  0  0  0  0  0  0  0
   59.3467   31.3809   50.2773 H   0  0  0  0  0  0  0  0  0  0  0  0
   58.3733   31.8108   48.8301 H   0  0  0  0  0  0  0  0  0  0  0  0
   59.3709   30.3170   48.8301 H   0  0  0  0  0  0  0  0  0  0  0  0
  1  2  1  0
  2  3  1  0
  2  4  2  0
  4  5  1  0
  5  6  2  0
  6  7  1  0
  6  8  1  0
  8  9  1  0
  9 10  1  0
 10 11  2  0
 10 12  1  0
 12 13  1  0
 13 14  1  0
  5 15  1  0
 15 16  1  0
 15 17  2  0
 17 18  1  0
 18 19  1  0
 18 20  1  0
 18 21  1  0
 17 22  1  0
 22 23  1  0
 23 24  2  0
 24 25  1  0
 24 26  1  0
 26 27  1  0
 26 28  2  0
 28 29  1  0
 29 30  2  0
 29 31  1  0
 31 32  1  6
 31 33  1  0
 33 34  1  0
 33 35  1  0
 33 36  1  0
 36 37  1  0
 36 38  1  0
 36 39  1  0
 39 40  1  1
 39 41  1  0
 41 42  1  0
 42 43  1  0
 42 44  1  0
 42 45  1  0
 41 46  1  0
 46 47  1  0
 46 48  1  0
 46 49  1  0
 39 50  1  0
 50 51  1  0
 50 52  1  0
 28 53  1  0
 53 54  1  0
 53 55  2  0
 55 56  1  0
 56 57  1  0
 56 58  1  0
 56 59  1  0
 22  4  1  0
 55 23  1  0
 13  8  2  0
 50 31  1  0
M  CHG  4   9  -1  12  -1  14  -1  31   1
M  END
>  <UniqueID>  (50) 
50

>  <SMILES>  (50) 
C=c1/c(=C/c2[n-]c(=O)[n-]c2[O-])cc(C)n1-c1ccc(C(=O)[N@H+]2CC[C@H](N(C)C)C2)cc1C

>  <Energy>  (50) 
152.64184944219986

>  <Genealogy>  (50) 
C=c1c(=Cc2[n-]c(=O)[n-]c2[O-])cc(C)n1-c1ccc(C(=O)[NH+]2CCC(N(C)C)C2)cc1C (protonated)
C=c1c(=Cc2[n-]c(=O)[n-]c2[O-])cc(C)n1-c1ccc(C(=O)[N@H+]2CC[C@H](N(C)C)C2)cc1C (chirality)
C=c1/c(=C/c2[n-]c(=O)[n-]c2[O-])cc(C)n1-c1ccc(C(=O)[N@H+]2CC[C@H](N(C)C)C2)cc1C (cis-trans isomerization)
C=c1/c(=C/c2[n-]c(=O)[n-]c2[O-])cc(C)n1-c1ccc(C(=O)[N@H+]2CC[C@H](N(C)C)C2)cc1C (3D coordinates assigned)
C=c1/c(=C/c2[n-]c(=O)[n-]c2[O-])cc(C)n1-c1ccc(C(=O)[N@H+]2CC[C@H](N(C)C)C2)cc1C (nonaromatic ring conformer: 152.64184944219986 kcal/mol)

>  <smiles>  (50) 
C=c1c(=Cc2[nH]c(=O)[nH]c2O)cc(C)n1-c1ccc(C(=O)N2CCC(N(C)C)C2)cc1C

>  <score_type>  (50) 
oracle

>  <origin>  (50) 
adg

>  <m_score__min__energy>  (50) 
-15.44

>  <m_primary>  (50) 
energy

$$$$
50:0
     RDKit          3D

 31 32  0  0  0  0  0  0  0  0999 V2000
   58.0694   29.1206   43.2793 H   0  0  0  0  0  0  0  0  0  0  0  0
   57.9870   29.2040   44.3730 C   0  0  0  0  0  0  0  0  0  0  0  0
   57.3770   28.0560   45.0850 C   0  0  0  0  0  0  0  0  0  0  0  0
   55.9920   27.9840   45.3190 C   0  0  0  0  0  0  0  0  0  0  0  0
   55.1440   28.9980   44.8910 O   0  0  0  0  0  0  0  0  0  0  0  0
   55.4670   26.9050   45.9550 N   0  0  0  0  0  0  0  0  0  0  0  0
   56.2550   25.8750   46.3540 C   0  0  0  0  0  0  0  0  0  0  0  0
   55.7460   24.8880   46.9440 O   0  0  0  0  0  0  0  0  0  0  0  0
   57.5890   25.9040   46.1090 N   0  0  0  0  0  0  0  0  0  0  0  0
   58.1640   26.9610   45.4790 C   0  0  0  0  0  0  0  0  0  0  0  0
   59.4060   26.9540   45.2650 O   0  0  0  0  0  0  0  0  0  0  0  0
   58.4550   30.3500   44.9360 C   0  0  0  0  0  0  0  0  0  0  0  0
   57.6990   31.5170   44.7020 C   0  0  0  0  0  0  0  0  0  0  0  0
   56.8671   31.4845   43.9830 H   0  0  0  0  0  0  0  0  0  0  0  0
   57.9830   32.7080   45.3610 C   0  0  0  0  0  0  0  0  0  0  0  0
   56.9880   34.1250   45.0780 Cl  0  0  0  0  0  0  0  0  0  0  0  0
   59.0190   32.7630   46.2840 C   0  0  0  0  0  0  0  0  0  0  0  0
   59.2005   33.6933   46.8422 H   0  0  0  0  0  0  0  0  0  0  0  0
   59.8360   31.6480   46.5130 C   0  0  0  0  0  0  0  0  0  0  0  0
   60.9110   31.7920   47.5320 C   0  0  0  0  0  0  0  0  0  0  0  0
   60.8890   31.0580   48.5540 O   0  0  0  0  0  0  0  0  0  0  0  0
   61.9440   32.7820   47.4190 N   0  0  0  0  0  0  0  0  0  0  0  0
   63.1860   32.6600   47.7890 C   0  0  0  0  0  0  0  0  0  0  0  0
   63.9223   33.3852   47.4122 H   0  0  0  0  0  0  0  0  0  0  0  0
   63.6330   31.6210   48.6660 N   0  0  0  0  0  0  0  0  0  0  0  0
   62.9720   31.0180   49.1990 H   0  0  0  0  0  0  0  0  0  0  0  0
   64.6500   31.5440   48.8850 H   0  0  0  0  0  0  0  0  0  0  0  0
   59.6330   30.4550   45.7560 C   0  0  0  0  0  0  0  0  0  0  0  0
   60.6200   29.5340   45.7000 C   0  0  0  0  0  0  0  0  0  0  0  0
   60.4777   28.6099   45.1205 H   0  0  0  0  0  0  0  0  0  0  0  0
   61.5658   29.7083   46.2339 H   0  0  0  0  0  0  0  0  0  0  0  0
  1  2  1  0
  2  3  1  0
  3  4  2  0
  4  5  1  0
  4  6  1  0
  6  7  1  0
  7  8  2  0
  7  9  1  0
  9 10  1  0
 10 11  2  0
  2 12  2  3
 12 13  1  0
 13 14  1  0
 13 15  2  0
 15 16  1  0
 15 17  1  0
 17 18  1  0
 17 19  2  0
 19 20  1  0
 20 21  2  0
 20 22  1  0
 22 23  2  0
 23 24  1  0
 23 25  1  0
 25 26  1  0
 25 27  1  0
 19 28  1  0
 28 29  2  0
 29 30  1  0
 29 31  1  0
 10  3  1  0
 28 12  1  0
M  CHG  3   5  -1   6  -1   9  -1
M  END
>  <UniqueID>  (51) 
51

>  <SMILES>  (51) 
C=c1c(C(=O)/N=C\N)cc(Cl)cc1=Cc1c([O-])[n-]c(=O)[n-]c1=O

>  <Energy>  (51) 
69.1165701556686

>  <Genealogy>  (51) 
C=c1c(C(=O)N=CN)cc(Cl)cc1=Cc1c([O-])[n-]c(=O)[n-]c1=O (protonated)
C=c1c(C(=O)/N=C\N)cc(Cl)cc1=Cc1c([O-])[n-]c(=O)[n-]c1=O (cis-trans isomerization)
C=c1c(C(=O)/N=C\N)cc(Cl)cc1=Cc1c([O-])[n-]c(=O)[n-]c1=O (3D coordinates assigned)
C=c1c(C(=O)/N=C\N)cc(Cl)cc1=Cc1c([O-])[n-]c(=O)[n-]c1=O (optimized conformer: 69.1165701556686 kcal/mol)

>  <smiles>  (51) 
C=c1c(C(=O)N=CN)cc(Cl)cc1=Cc1c(O)[nH]c(=O)[nH]c1=O

>  <score_type>  (51) 
oracle

>  <origin>  (51) 
adg

>  <m_score__min__energy>  (51) 
-14.84

>  <m_primary>  (51) 
energy

$$$$
51:0
     RDKit          3D

 62 65  0  0  1  0  0  0  0  0999 V2000
   62.5630   32.1800   49.7870 C   0  0  0  0  0  0  0  0  0  0  0  0
   61.6420   32.8310   49.1040 C   0  0  0  0  0  0  0  0  0  0  0  0
   60.9650   33.8390   49.7710 C   0  0  0  0  0  0  0  0  0  0  0  0
   61.2330   34.1620   51.1020 O   0  0  0  0  0  0  0  0  0  0  0  0
   59.9740   34.5950   49.1580 C   0  0  0  0  0  0  0  0  0  0  0  0
   59.6440   34.3440   47.8460 C   0  0  0  0  0  0  0  0  0  0  0  0
   60.3330   33.3360   47.2060 C   0  0  0  0  0  0  0  0  0  0  0  0
   60.0010   33.0820   45.8810 O   0  0  0  0  0  0  0  0  0  0  0  0
   58.7370   32.9300   45.3840 C   0  0  0  0  0  0  0  0  0  0  0  0
   57.9890   33.9300   45.2280 O   0  0  0  0  0  0  0  0  0  0  0  0
   58.2470   31.6030   45.0300 C   0  0  0  0  0  0  0  0  0  0  0  0
   58.2310   30.5910   45.9660 C   0  0  0  0  0  0  0  0  0  0  0  0
   57.7810   29.3150   45.6950 C   0  0  0  0  0  0  0  0  0  0  0  0
   57.8270   28.3790   46.7660 N   0  0  0  0  0  0  0  0  0  0  0  0
   58.6670   28.5540   47.7300 C   0  0  0  0  0  0  0  0  0  0  0  0
   59.6590   27.6030   47.8670 C   0  0  0  0  0  0  0  0  0  0  0  0
   60.5560   27.7900   48.8970 C   0  0  0  0  0  0  0  0  0  0  0  0
   60.4270   28.8670   49.7090 N   0  0  0  0  0  0  0  0  0  0  0  0
   59.4550   29.7800   49.5600 C   0  0  0  0  0  0  0  0  0  0  0  0
   59.3010   30.9170   50.3990 N   0  0  0  0  0  0  0  0  0  0  0  0
   60.1420   31.0960   51.5960 C   0  0  0  0  0  0  0  0  0  0  0  0
   59.1410   30.9640   52.7510 C   0  0  0  0  0  0  0  0  0  0  0  0
   58.0730   32.0160   52.5750 C   0  0  0  0  0  0  0  0  0  0  0  0
   58.6610   33.2650   52.4470 O   0  0  0  0  0  0  0  0  0  0  0  0
   58.9410   33.8370   53.6950 C   0  0  0  0  0  0  0  0  0  0  0  0
   57.2910   31.8020   51.2730 C   0  0  0  0  0  0  0  0  0  0  0  0
   58.3330   31.9680   50.1590 C   0  0  0  0  0  0  0  0  0  0  0  0
   58.5740   29.6100   48.5590 N   0  0  0  0  0  0  0  0  0  0  0  0
   57.3160   29.0040   44.4360 C   0  0  0  0  0  0  0  0  0  0  0  0
   57.3320   30.0170   43.4990 C   0  0  0  0  0  0  0  0  0  0  0  0
   57.7830   31.2920   43.7690 C   0  0  0  0  0  0  0  0  0  0  0  0
   57.7690   32.3400   42.7020 C   0  0  0  0  0  0  0  0  0  0  0  0
   61.3160   32.5810   47.8040 C   0  0  0  0  0  0  0  0  0  0  0  0
   61.9260   31.6390   47.1290 C   0  0  0  0  0  0  0  0  0  0  0  0
   63.1324   31.3696   49.3085 H   0  0  0  0  0  0  0  0  0  0  0  0
   62.7620   32.4473   50.8353 H   0  0  0  0  0  0  0  0  0  0  0  0
   60.5580   33.9480   51.8170 H   0  0  0  0  0  0  0  0  0  0  0  0
   59.4568   35.3885   49.7173 H   0  0  0  0  0  0  0  0  0  0  0  0
   58.8639   34.9228   47.3299 H   0  0  0  0  0  0  0  0  0  0  0  0
   58.5954   30.8118   46.9801 H   0  0  0  0  0  0  0  0  0  0  0  0
   59.7298   26.7400   47.1886 H   0  0  0  0  0  0  0  0  0  0  0  0
   61.3713   27.0695   49.0586 H   0  0  0  0  0  0  0  0  0  0  0  0
   61.1140   28.9660   50.4600 H   0  0  0  0  0  0  0  0  0  0  0  0
   60.9163   30.3168   51.6541 H   0  0  0  0  0  0  0  0  0  0  0  0
   60.6845   32.0529   51.6027 H   0  0  0  0  0  0  0  0  0  0  0  0
   58.6840   29.9636   52.7346 H   0  0  0  0  0  0  0  0  0  0  0  0
   59.6536   31.1018   53.7145 H   0  0  0  0  0  0  0  0  0  0  0  0
   57.4120   31.9475   53.4516 H   0  0  0  0  0  0  0  0  0  0  0  0
   58.6081   33.1570   54.4930 H   0  0  0  0  0  0  0  0  0  0  0  0
   60.0240   34.0067   53.7859 H   0  0  0  0  0  0  0  0  0  0  0  0
   58.4107   34.7964   53.7859 H   0  0  0  0  0  0  0  0  0  0  0  0
   56.8518   30.7938   51.2459 H   0  0  0  0  0  0  0  0  0  0  0  0
   56.4553   32.5097   51.1691 H   0  0  0  0  0  0  0  0  0  0  0  0
   57.8662   31.8467   49.1704 H   0  0  0  0  0  0  0  0  0  0  0  0
   58.7937   32.9668   50.1665 H   0  0  0  0  0  0  0  0  0  0  0  0
   56.9496   27.9966   44.1895 H   0  0  0  0  0  0  0  0  0  0  0  0
   56.9665   29.7963   42.4853 H   0  0  0  0  0  0  0  0  0  0  0  0
   57.7557   33.3367   43.1672 H   0  0  0  0  0  0  0  0  0  0  0  0
   58.6686   32.2390   42.0770 H   0  0  0  0  0  0  0  0  0  0  0  0
   56.8724   32.2150   42.0770 H   0  0  0  0  0  0  0  0  0  0  0  0
   62.7112   31.0377   47.6106 H   0  0  0  0  0  0  0  0  0  0  0  0
   61.6532   31.4491   46.0804 H   0  0  0  0  0  0  0  0  0  0  0  0
  1  2  2  0
  2  3  1  0
  3  4  1  0
  3  5  2  0
  5  6  1  0
  6  7  2  0
  7  8  1  0
  8  9  1  0
  9 10  2  0
  9 11  1  0
 11 12  2  0
 12 13  1  0
 13 14  1  0
 14 15  2  0
 15 16  1  0
 16 17  2  0
 17 18  1  0
 18 19  1  0
 19 20  1  0
 20 21  1  0
 21 22  1  0
 22 23  1  0
 23 24  1  0
 24 25  1  0
 23 26  1  0
 26 27  1  0
 19 28  2  0
 13 29  2  0
 29 30  1  0
 30 31  2  0
 31 32  1  0
  7 33  1  0
 33 34  2  0
 33  2  1  0
 31 11  1  0
 28 15  1  0
 27 20  1  0
  1 35  1  0
  1 36  1  0
  4 37  1  0
  5 38  1  0
  6 39  1  0
 12 40  1  0
 16 41  1  0
 17 42  1  0
 18 43  1  0
 21 44  1  0
 21 45  1  0
 22 46  1  0
 22 47  1  0
 23 48  1  0
 25 49  1  0
 25 50  1  0
 25 51  1  0
 26 52  1  0
 26 53  1  0
 27 54  1  0
 27 55  1  0
 29 56  1  0
 30 57  1  0
 32 58  1  0
 32 59  1  0
 32 60  1  0
 34 61  1  0
 34 62  1  0
M  END
>  <smiles>  (52) 
C=c1c(O)ccc(OC(=O)c2cc(N=c3cc[nH]c(N4CCC(OC)CC4)n3)ccc2C)c1=C

>  <score_type>  (52) 
oracle

>  <origin>  (52) 
adg

>  <m_score__min__energy>  (52) 
-10.48

>  <m_primary>  (52) 
energy

$$$$
52:0
     RDKit          3D

 50 52  0  0  0  0  0  0  0  0999 V2000
   56.9510   34.1960   45.0290 C   0  0  0  0  0  0  0  0  0  0  0  0
   58.1140   34.1960   45.9690 C   0  0  0  0  0  0  0  0  0  0  0  0
   58.0540   33.4760   47.1690 C   0  0  0  0  0  0  0  0  0  0  0  0
   59.1560   33.4770   48.0260 C   0  0  0  0  0  0  0  0  0  0  0  0
   60.3160   34.1800   47.6730 C   0  0  0  0  0  0  0  0  0  0  0  0
   61.5040   34.2110   48.6010 C   0  0  0  0  0  0  0  0  0  0  0  0
   61.5000   33.0270   49.5340 C   0  0  0  0  0  0  0  0  0  0  0  0
   61.6060   33.2220   50.7760 O   0  0  0  0  0  0  0  0  0  0  0  0
   61.4020   31.6780   49.0370 N   0  0  0  0  0  0  0  0  0  0  0  0
   62.0160   31.2800   47.7610 C   0  0  0  0  0  0  0  0  0  0  0  0
   61.0180   30.4780   46.9100 C   0  0  0  0  0  0  0  0  0  0  0  0
   60.1350   29.5080   47.7410 C   0  0  0  0  0  0  0  0  0  0  0  0
   60.0430   28.2110   47.0760 N   0  0  0  0  0  0  0  0  0  0  0  0
   58.8070   27.5320   46.8330 C   0  0  0  0  0  0  0  0  0  0  0  0
   58.1510   27.0420   47.7880 O   0  0  0  0  0  0  0  0  0  0  0  0
   58.2820   27.4290   45.4370 C   0  0  0  0  0  0  0  0  0  0  0  0
   57.8870   28.7910   44.9240 C   0  0  0  0  0  0  0  0  0  0  0  0
   58.8780   29.6880   44.4880 C   0  0  0  0  0  0  0  0  0  0  0  0
   58.5230   30.9440   43.9910 C   0  0  0  0  0  0  0  0  0  0  0  0
   57.1770   31.3130   43.9150 C   0  0  0  0  0  0  0  0  0  0  0  0
   56.1840   30.4250   44.3360 C   0  0  0  0  0  0  0  0  0  0  0  0
   56.5310   29.1650   44.8380 C   0  0  0  0  0  0  0  0  0  0  0  0
   55.5270   28.2930   45.2470 O   0  0  0  0  0  0  0  0  0  0  0  0
   60.6690   29.3040   49.1660 C   0  0  0  0  0  0  0  0  0  0  0  0
   60.7860   30.6520   49.8910 C   0  0  0  0  0  0  0  0  0  0  0  0
   60.3350   34.8920   46.4640 C   0  0  0  0  0  0  0  0  0  0  0  0
   59.2460   34.8810   45.6490 N   0  0  0  0  0  0  0  0  0  0  0  0
   56.6658   33.1589   44.7985 H   0  0  0  0  0  0  0  0  0  0  0  0
   56.1013   34.7145   45.4970 H   0  0  0  0  0  0  0  0  0  0  0  0
   57.2304   34.7145   44.1000 H   0  0  0  0  0  0  0  0  0  0  0  0
   57.1460   32.9144   47.4339 H   0  0  0  0  0  0  0  0  0  0  0  0
   59.1140   32.9266   48.9774 H   0  0  0  0  0  0  0  0  0  0  0  0
   62.4269   34.1928   48.0027 H   0  0  0  0  0  0  0  0  0  0  0  0
   61.4500   35.1292   49.2043 H   0  0  0  0  0  0  0  0  0  0  0  0
   62.3199   32.1815   47.2088 H   0  0  0  0  0  0  0  0  0  0  0  0
   62.8928   30.6493   47.9696 H   0  0  0  0  0  0  0  0  0  0  0  0
   60.3593   31.1862   46.3861 H   0  0  0  0  0  0  0  0  0  0  0  0
   61.6073   29.8632   46.2138 H   0  0  0  0  0  0  0  0  0  0  0  0
   59.1395   29.9702   47.8138 H   0  0  0  0  0  0  0  0  0  0  0  0
   59.0626   27.0085   44.7860 H   0  0  0  0  0  0  0  0  0  0  0  0
   57.3970   26.7757   45.4351 H   0  0  0  0  0  0  0  0  0  0  0  0
   59.9382   29.3991   44.5386 H   0  0  0  0  0  0  0  0  0  0  0  0
   59.3039   31.6439   43.6589 H   0  0  0  0  0  0  0  0  0  0  0  0
   56.8995   32.3028   43.5236 H   0  0  0  0  0  0  0  0  0  0  0  0
   55.1253   30.7170   44.2728 H   0  0  0  0  0  0  0  0  0  0  0  0
   59.9791   28.6520   49.7219 H   0  0  0  0  0  0  0  0  0  0  0  0
   61.6650   28.8404   49.1111 H   0  0  0  0  0  0  0  0  0  0  0  0
   59.7801   30.9882   50.1827 H   0  0  0  0  0  0  0  0  0  0  0  0
   61.4267   30.5115   50.7741 H   0  0  0  0  0  0  0  0  0  0  0  0
   61.2317   35.4598   46.1749 H   0  0  0  0  0  0  0  0  0  0  0  0
  1  2  1  0
  2  3  2  0
  3  4  1  0
  4  5  2  0
  5  6  1  0
  6  7  1  0
  7  8  2  0
  7  9  1  0
  9 10  1  0
 10 11  1  0
 11 12  1  0
 12 13  1  0
 13 14  1  0
 14 15  2  0
 14 16  1  0
 16 17  1  0
 17 18  2  0
 18 19  1  0
 19 20  2  0
 20 21  1  0
 21 22  2  0
 22 23  1  0
 12 24  1  0
 24 25  1  0
  5 26  1  0
 26 27  2  0
 27  2  1  0
 25  9  1  0
 22 17  1  0
  1 28  1  0
  1 29  1  0
  1 30  1  0
  3 31  1  0
  4 32  1  0
  6 33  1  0
  6 34  1  0
 10 35  1  0
 10 36  1  0
 11 37  1  0
 11 38  1  0
 12 39  1  0
 16 40  1  0
 16 41  1  0
 18 42  1  0
 19 43  1  0
 20 44  1  0
 21 45  1  0
 24 46  1  0
 24 47  1  0
 25 48  1  0
 25 49  1  0
 26 50  1  0
M  CHG  2  13  -1  23  -1
M  END
>  <UniqueID>  (53) 
52

>  <SMILES>  (53) 
Cc1ccc(CC(=O)N2CCC([N-]C(=O)Cc3ccccc3[O-])CC2)cn1

>  <Energy>  (53) 
50.50731085828726

>  <Genealogy>  (53) 
Cc1ccc(CC(=O)N2CCC([N-]C(=O)Cc3ccccc3[O-])CC2)cn1 (protonated)
Cc1ccc(CC(=O)N2CCC([N-]C(=O)Cc3ccccc3[O-])CC2)cn1 (3D coordinates assigned)
Cc1ccc(CC(=O)N2CCC([N-]C(=O)Cc3ccccc3[O-])CC2)cn1 (nonaromatic ring conformer: 50.50731085828726 kcal/mol)

>  <smiles>  (53) 
Cc1ccc(CC(=O)N2CCC(NC(=O)Cc3ccccc3O)CC2)cn1

>  <score_type>  (53) 
oracle

>  <origin>  (53) 
adg

>  <m_score__min__energy>  (53) 
-14.109999999999999

>  <m_primary>  (53) 
energy

$$$$
53:0
     RDKit          3D

 55 58  0  0  0  0  0  0  0  0999 V2000
   55.0530   26.1270   45.9860 N   0  0  0  0  0  0  0  0  0  0  0  0
   56.7470   26.2060   45.6520 S   0  0  0  0  0  0  0  0  0  0  0  0
   57.5210   25.8060   46.8760 O   0  0  0  0  0  0  0  0  0  0  0  0
   57.0790   25.2520   44.5390 O   0  0  0  0  0  0  0  0  0  0  0  0
   57.1770   27.8460   45.1770 C   0  0  0  0  0  0  0  0  0  0  0  0
   56.1760   28.8010   44.9540 C   0  0  0  0  0  0  0  0  0  0  0  0
   56.5160   30.1000   44.5620 C   0  0  0  0  0  0  0  0  0  0  0  0
   57.8630   30.4580   44.3900 C   0  0  0  0  0  0  0  0  0  0  0  0
   58.2250   31.8560   43.9650 C   0  0  0  0  0  0  0  0  0  0  0  0
   57.3960   32.8410   44.6550 N   0  0  0  0  0  0  0  0  0  0  0  0
   57.6790   34.2430   44.7750 C   0  0  0  0  0  0  0  0  0  0  0  0
   56.7190   35.0540   44.7130 O   0  0  0  0  0  0  0  0  0  0  0  0
   59.0710   34.7560   45.0550 C   0  0  0  0  0  0  0  0  0  0  0  0
   59.4580   34.6620   46.5370 C   0  0  0  0  0  0  0  0  0  0  0  0
   59.7930   33.2560   46.9340 C   0  0  0  0  0  0  0  0  0  0  0  0
   61.0340   32.6450   46.8050 C   0  0  0  0  0  0  0  0  0  0  0  0
   61.0450   31.3150   47.2460 C   0  0  0  0  0  0  0  0  0  0  0  0
   59.8110   30.8810   47.7220 C   0  0  0  0  0  0  0  0  0  0  0  0
   59.5080   29.5240   48.2160 C   0  0  0  0  0  0  0  0  0  0  0  0
   59.8650   28.5240   47.5400 O   0  0  0  0  0  0  0  0  0  0  0  0
   58.7310   29.3190   49.4050 N   0  0  0  0  0  0  0  0  0  0  0  0
   58.5540   30.1660   50.3790 C   0  0  0  0  0  0  0  0  0  0  0  0
   59.5420   31.0940   50.7650 C   0  0  0  0  0  0  0  0  0  0  0  0
   59.2840   31.9730   51.8170 C   0  0  0  0  0  0  0  0  0  0  0  0
   58.0560   31.9260   52.4870 C   0  0  0  0  0  0  0  0  0  0  0  0
   57.7930   32.7980   53.5420 O   0  0  0  0  0  0  0  0  0  0  0  0
   57.0950   30.9860   52.0830 C   0  0  0  0  0  0  0  0  0  0  0  0
   55.7780   30.8810   52.8010 C   0  0  0  0  0  0  0  0  0  0  0  0
   55.0350   29.5610   52.6300 C   0  0  0  0  0  0  0  0  0  0  0  0
   54.5730   30.7950   51.8740 C   0  0  0  0  0  0  0  0  0  0  0  0
   57.3780   30.1300   51.0620 N   0  0  0  0  0  0  0  0  0  0  0  0
   58.7060   32.1460   47.5770 S   0  0  0  0  0  0  0  0  0  0  0  0
   58.8620   29.4920   44.5980 C   0  0  0  0  0  0  0  0  0  0  0  0
   58.5210   28.1950   44.9900 C   0  0  0  0  0  0  0  0  0  0  0  0
   54.7740   27.0620   46.3620 H   0  0  0  0  0  0  0  0  0  0  0  0
   55.1188   28.5281   45.0877 H   0  0  0  0  0  0  0  0  0  0  0  0
   55.7250   30.8442   44.3877 H   0  0  0  0  0  0  0  0  0  0  0  0
   59.2820   32.0432   44.2051 H   0  0  0  0  0  0  0  0  0  0  0  0
   58.0548   31.9497   42.8823 H   0  0  0  0  0  0  0  0  0  0  0  0
   59.7877   34.1635   44.4673 H   0  0  0  0  0  0  0  0  0  0  0  0
   59.0917   35.8199   44.7764 H   0  0  0  0  0  0  0  0  0  0  0  0
   60.3342   35.3020   46.7180 H   0  0  0  0  0  0  0  0  0  0  0  0
   58.5979   34.9924   47.1378 H   0  0  0  0  0  0  0  0  0  0  0  0
   61.9196   33.1544   46.3974 H   0  0  0  0  0  0  0  0  0  0  0  0
   61.9405   30.6768   47.2187 H   0  0  0  0  0  0  0  0  0  0  0  0
   60.5087   31.1249   50.2410 H   0  0  0  0  0  0  0  0  0  0  0  0
   60.0472   32.7046   52.1207 H   0  0  0  0  0  0  0  0  0  0  0  0
   58.4830   33.4690   53.8590 H   0  0  0  0  0  0  0  0  0  0  0  0
   56.0686   31.4960   53.6655 H   0  0  0  0  0  0  0  0  0  0  0  0
   55.5090   28.7294   52.0879 H   0  0  0  0  0  0  0  0  0  0  0  0
   54.5572   28.8435   53.3133 H   0  0  0  0  0  0  0  0  0  0  0  0
   54.7122   30.8563   50.7846 H   0  0  0  0  0  0  0  0  0  0  0  0
   53.6218   31.3400   51.7837 H   0  0  0  0  0  0  0  0  0  0  0  0
   59.9191   29.7585   44.4513 H   0  0  0  0  0  0  0  0  0  0  0  0
   59.3099   27.4458   45.1523 H   0  0  0  0  0  0  0  0  0  0  0  0
  1  2  1  0
  2  3  2  0
  2  4  2  0
  2  5  1  0
  5  6  2  0
  6  7  1  0
  7  8  2  0
  8  9  1  0
  9 10  1  0
 10 11  1  0
 11 12  2  0
 11 13  1  0
 13 14  1  0
 14 15  1  0
 15 16  2  0
 16 17  1  0
 17 18  2  0
 18 19  1  0
 19 20  2  0
 19 21  1  0
 21 22  2  3
 22 23  1  0
 23 24  2  0
 24 25  1  0
 25 26  1  0
 25 27  2  0
 27 28  1  0
 28 29  1  0
 29 30  1  0
 27 31  1  0
 18 32  1  0
  8 33  1  0
 33 34  2  0
 34  5  1  0
 32 15  1  0
 31 22  1  0
 30 28  1  0
  1 35  1  0
  6 36  1  0
  7 37  1  0
  9 38  1  0
  9 39  1  0
 13 40  1  0
 13 41  1  0
 14 42  1  0
 14 43  1  0
 16 44  1  0
 17 45  1  0
 23 46  1  0
 24 47  1  0
 26 48  1  0
 28 49  1  0
 29 50  1  0
 29 51  1  0
 30 52  1  0
 30 53  1  0
 33 54  1  0
 34 55  1  0
M  CHG  3   1  -1  10  -1  31  -1
M  END
>  <UniqueID>  (54) 
53

>  <SMILES>  (54) 
[NH-]S(=O)(=O)c1ccc(C[N-]C(=O)CCc2ccc(C(=O)N=c3ccc(O)c(C4CC4)[n-]3)s2)cc1

>  <Energy>  (54) 
351.72075659495414

>  <Genealogy>  (54) 
[NH-]S(=O)(=O)c1ccc(C[N-]C(=O)CCc2ccc(C(=O)N=c3ccc(O)c(C4CC4)[n-]3)s2)cc1 (protonated)
[NH-]S(=O)(=O)c1ccc(C[N-]C(=O)CCc2ccc(C(=O)N=c3ccc(O)c(C4CC4)[n-]3)s2)cc1 (3D coordinates assigned)
[NH-]S(=O)(=O)c1ccc(C[N-]C(=O)CCc2ccc(C(=O)N=c3ccc(O)c(C4CC4)[n-]3)s2)cc1 (nonaromatic ring conformer: 351.72075659495414 kcal/mol)

>  <smiles>  (54) 
NS(=O)(=O)c1ccc(CNC(=O)CCc2ccc(C(=O)N=c3ccc(O)c(C4CC4)[nH]3)s2)cc1

>  <score_type>  (54) 
oracle

>  <origin>  (54) 
adg

>  <m_score__min__energy>  (54) 
-14.08

>  <m_primary>  (54) 
energy

$$$$
54:0
     RDKit          3D

 53 55  0  0  0  0  0  0  0  0999 V2000
   54.8070   26.3230   45.9720 N   0  0  0  0  0  0  0  0  0  0  0  0
   56.4320   25.7340   46.0220 S   0  0  0  0  0  0  0  0  0  0  0  0
   56.5790   24.5890   45.0580 O   0  0  0  0  0  0  0  0  0  0  0  0
   56.7490   25.2430   47.4070 O   0  0  0  0  0  0  0  0  0  0  0  0
   57.5380   27.0330   45.5880 C   0  0  0  0  0  0  0  0  0  0  0  0
   58.8930   26.7650   45.3640 C   0  0  0  0  0  0  0  0  0  0  0  0
   59.7620   27.7980   45.0100 C   0  0  0  0  0  0  0  0  0  0  0  0
   59.2860   29.1040   44.8780 C   0  0  0  0  0  0  0  0  0  0  0  0
   57.9270   29.3940   45.1030 C   0  0  0  0  0  0  0  0  0  0  0  0
   57.4030   30.7730   44.9640 C   0  0  0  0  0  0  0  0  0  0  0  0
   56.1980   30.9460   44.6340 O   0  0  0  0  0  0  0  0  0  0  0  0
   58.2390   31.9140   45.2180 N   0  0  0  0  0  0  0  0  0  0  0  0
   57.7670   33.2870   45.0320 C   0  0  0  0  0  0  0  0  0  0  0  0
   58.8180   34.2860   45.4450 C   0  0  0  0  0  0  0  0  0  0  0  0
   58.9700   35.3380   44.7670 O   0  0  0  0  0  0  0  0  0  0  0  0
   59.6790   34.0320   46.5780 N   0  0  0  0  0  0  0  0  0  0  0  0
   61.0160   33.4560   46.3680 C   0  0  0  0  0  0  0  0  0  0  0  0
   61.8610   33.5040   47.6440 C   0  0  0  0  0  0  0  0  0  0  0  0
   61.1010   32.8770   48.8150 C   0  0  0  0  0  0  0  0  0  0  0  0
   59.6710   33.4620   49.0050 C   0  0  2  0  0  0  0  0  0  0  0  0
   58.5960   32.3570   49.1990 C   0  0  0  0  0  0  0  0  0  0  0  0
   59.1420   30.9450   49.2400 C   0  0  0  0  0  0  0  0  0  0  0  0
   59.2600   30.2000   48.0530 C   0  0  0  0  0  0  0  0  0  0  0  0
   59.7810   28.9030   48.0800 C   0  0  0  0  0  0  0  0  0  0  0  0
   60.1850   28.3350   49.2920 C   0  0  0  0  0  0  0  0  0  0  0  0
   60.7100   27.0490   49.3150 O   0  0  0  0  0  0  0  0  0  0  0  0
   60.0550   29.0610   50.4790 C   0  0  0  0  0  0  0  0  0  0  0  0
   59.5270   30.3550   50.4570 C   0  0  0  0  0  0  0  0  0  0  0  0
   59.2860   34.4970   47.9190 C   0  0  0  0  0  0  0  0  0  0  0  0
   57.0570   28.3430   45.4490 C   0  0  0  0  0  0  0  0  0  0  0  0
   54.7400   27.0920   46.6750 H   0  0  0  0  0  0  0  0  0  0  0  0
   59.2739   25.7382   45.4671 H   0  0  0  0  0  0  0  0  0  0  0  0
   60.8263   27.5825   44.8342 H   0  0  0  0  0  0  0  0  0  0  0  0
   59.9776   29.9117   44.5963 H   0  0  0  0  0  0  0  0  0  0  0  0
   59.1730   31.7840   45.6650 H   0  0  0  0  0  0  0  0  0  0  0  0
   57.5225   33.4416   43.9707 H   0  0  0  0  0  0  0  0  0  0  0  0
   56.8773   33.4375   45.6611 H   0  0  0  0  0  0  0  0  0  0  0  0
   60.9069   32.4080   46.0521 H   0  0  0  0  0  0  0  0  0  0  0  0
   61.5274   34.0497   45.5960 H   0  0  0  0  0  0  0  0  0  0  0  0
   62.7958   32.9479   47.4801 H   0  0  0  0  0  0  0  0  0  0  0  0
   62.0814   34.5544   47.8850 H   0  0  0  0  0  0  0  0  0  0  0  0
   61.0147   31.7951   48.6359 H   0  0  0  0  0  0  0  0  0  0  0  0
   61.6691   33.1018   49.7297 H   0  0  0  0  0  0  0  0  0  0  0  0
   59.7004   34.0274   49.9481 H   0  0  0  0  0  0  0  0  0  0  0  0
   58.0731   32.5501   50.1473 H   0  0  0  0  0  0  0  0  0  0  0  0
   57.9340   32.4094   48.3221 H   0  0  0  0  0  0  0  0  0  0  0  0
   58.9403   30.6407   47.0972 H   0  0  0  0  0  0  0  0  0  0  0  0
   59.8732   28.3286   47.1464 H   0  0  0  0  0  0  0  0  0  0  0  0
   60.3691   28.6129   51.4332 H   0  0  0  0  0  0  0  0  0  0  0  0
   59.4120   30.9149   51.3968 H   0  0  0  0  0  0  0  0  0  0  0  0
   58.1971   34.6516   47.9405 H   0  0  0  0  0  0  0  0  0  0  0  0
   59.8152   35.4378   48.1308 H   0  0  0  0  0  0  0  0  0  0  0  0
   55.9893   28.5512   45.6120 H   0  0  0  0  0  0  0  0  0  0  0  0
  1  2  1  0
  2  3  2  0
  2  4  2  0
  2  5  1  0
  5  6  2  0
  6  7  1  0
  7  8  2  0
  8  9  1  0
  9 10  1  0
 10 11  2  0
 10 12  1  0
 12 13  1  0
 13 14  1  0
 14 15  2  0
 14 16  1  0
 16 17  1  0
 17 18  1  0
 18 19  1  0
 19 20  1  0
 20 21  1  0
 21 22  1  0
 22 23  2  0
 23 24  1  0
 24 25  2  0
 25 26  1  0
 25 27  1  0
 27 28  2  0
 20 29  1  0
  9 30  2  0
 30  5  1  0
 29 16  1  0
 28 22  1  0
  1 31  1  0
  6 32  1  0
  7 33  1  0
  8 34  1  0
 12 35  1  0
 13 36  1  0
 13 37  1  0
 17 38  1  0
 17 39  1  0
 18 40  1  0
 18 41  1  0
 19 42  1  0
 19 43  1  0
 20 44  1  1
 21 45  1  0
 21 46  1  0
 23 47  1  0
 24 48  1  0
 27 49  1  0
 28 50  1  0
 29 51  1  0
 29 52  1  0
 30 53  1  0
M  CHG  2   1  -1  26  -1
M  END
>  <UniqueID>  (55) 
54

>  <SMILES>  (55) 
[NH-]S(=O)(=O)c1cccc(C(=O)NCC(=O)N2CCC[C@H](Cc3ccc([O-])cc3)C2)c1

>  <Energy>  (55) 
55.046343446267244

>  <Genealogy>  (55) 
[NH-]S(=O)(=O)c1cccc(C(=O)NCC(=O)N2CCCC(Cc3ccc([O-])cc3)C2)c1 (protonated)
[NH-]S(=O)(=O)c1cccc(C(=O)NCC(=O)N2CCC[C@H](Cc3ccc([O-])cc3)C2)c1 (chirality)
[NH-]S(=O)(=O)c1cccc(C(=O)NCC(=O)N2CCC[C@H](Cc3ccc([O-])cc3)C2)c1 (3D coordinates assigned)
[NH-]S(=O)(=O)c1cccc(C(=O)NCC(=O)N2CCC[C@H](Cc3ccc([O-])cc3)C2)c1 (nonaromatic ring conformer: 55.046343446267244 kcal/mol)

>  <smiles>  (55) 
NS(=O)(=O)c1cccc(C(=O)NCC(=O)N2CCCC(Cc3ccc(O)cc3)C2)c1

>  <score_type>  (55) 
oracle

>  <origin>  (55) 
adg

>  <m_score__min__energy>  (55) 
-16.199999999999999

>  <m_primary>  (55) 
energy

$$$$
55:0
     RDKit          3D

 82 87  0  0  0  0  0  0  0  0999 V2000
   52.0280   30.4330   50.1450 C   0  0  0  0  0  0  0  0  0  0  0  0
   53.0170   30.8450   51.0800 O   0  0  0  0  0  0  0  0  0  0  0  0
   53.5670   30.0170   52.0730 C   0  0  0  0  0  0  0  0  0  0  0  0
   52.8360   28.9710   52.6640 C   0  0  0  0  0  0  0  0  0  0  0  0
   53.4130   28.1610   53.6530 C   0  0  0  0  0  0  0  0  0  0  0  0
   54.7480   28.3790   54.0390 C   0  0  0  0  0  0  0  0  0  0  0  0
   55.4730   29.4320   53.4610 C   0  0  0  0  0  0  0  0  0  0  0  0
   54.8910   30.2490   52.4740 C   0  0  0  0  0  0  0  0  0  0  0  0
   55.5960   31.2970   51.8630 O   0  0  0  0  0  0  0  0  0  0  0  0
   57.0140   31.3450   51.7230 C   0  0  0  0  0  0  0  0  0  0  0  0
   55.3860   27.5410   55.1250 C   0  0  0  0  0  0  0  0  0  0  0  0
   54.7450   26.2150   55.2760 N   0  0  0  0  0  0  0  0  0  0  0  0
   55.1010   25.2760   54.1870 C   0  0  0  0  0  0  0  0  0  0  0  0
   56.2430   24.3430   54.6120 C   0  0  0  0  0  0  0  0  0  0  0  0
   57.5850   24.8460   54.1380 C   0  0  0  0  0  0  0  0  0  0  0  0
   57.9000   26.2100   54.2380 C   0  0  0  0  0  0  0  0  0  0  0  0
   59.1610   26.6720   53.8510 C   0  0  0  0  0  0  0  0  0  0  0  0
   60.1200   25.7800   53.3360 C   0  0  0  0  0  0  0  0  0  0  0  0
   61.4570   26.1960   53.0170 N   0  0  0  0  0  0  0  0  0  0  0  0
   62.0040   26.3800   51.7050 C   0  0  0  0  0  0  0  0  0  0  0  0
   63.0030   25.7020   51.3320 O   0  0  0  0  0  0  0  0  0  0  0  0
   61.4200   27.3850   50.7970 C   0  0  0  0  0  0  0  0  0  0  0  0
   60.7450   26.9790   49.6330 C   0  0  0  0  0  0  0  0  0  0  0  0
   60.1500   27.9220   48.7910 C   0  0  0  0  0  0  0  0  0  0  0  0
   60.2530   29.2940   49.0810 C   0  0  0  0  0  0  0  0  0  0  0  0
   59.7000   30.2630   48.2330 O   0  0  0  0  0  0  0  0  0  0  0  0
   60.4330   31.3500   47.7430 C   0  0  0  0  0  0  0  0  0  0  0  0
   61.8300   31.3480   47.8900 C   0  0  0  0  0  0  0  0  0  0  0  0
   62.5910   32.4070   47.3970 C   0  0  0  0  0  0  0  0  0  0  0  0
   61.9630   33.4830   46.7670 C   0  0  0  0  0  0  0  0  0  0  0  0
   60.5720   33.5030   46.6300 C   0  0  0  0  0  0  0  0  0  0  0  0
   59.7880   32.4310   47.0970 C   0  0  0  0  0  0  0  0  0  0  0  0
   58.3040   32.5020   47.0150 C   0  0  0  0  0  0  0  0  0  0  0  0
   57.6650   33.0940   47.9270 O   0  0  0  0  0  0  0  0  0  0  0  0
   57.5760   32.0470   45.8700 N   0  0  0  0  0  0  0  0  0  0  0  0
   57.7450   30.8070   45.1710 C   0  0  0  0  0  0  0  0  0  0  0  0
   58.6860   29.8450   45.5810 C   0  0  0  0  0  0  0  0  0  0  0  0
   58.8100   28.6410   44.8800 C   0  0  0  0  0  0  0  0  0  0  0  0
   57.9910   28.3820   43.7750 C   0  0  0  0  0  0  0  0  0  0  0  0
   58.1500   26.8710   42.8970 Cl  0  0  0  0  0  0  0  0  0  0  0  0
   57.0420   29.3270   43.3770 C   0  0  0  0  0  0  0  0  0  0  0  0
   56.9130   30.5310   44.0780 C   0  0  0  0  0  0  0  0  0  0  0  0
   60.9490   29.7040   50.2240 C   0  0  0  0  0  0  0  0  0  0  0  0
   61.5120   28.7560   51.0870 C   0  0  0  0  0  0  0  0  0  0  0  0
   59.7940   24.4230   53.2170 C   0  0  0  0  0  0  0  0  0  0  0  0
   58.5340   23.9590   53.6080 C   0  0  0  0  0  0  0  0  0  0  0  0
   53.2840   26.3650   55.4360 C   0  0  0  0  0  0  0  0  0  0  0  0
   52.6260   26.9950   54.1980 C   0  0  0  0  0  0  0  0  0  0  0  0
   51.1435   30.0645   50.6853 H   0  0  0  0  0  0  0  0  0  0  0  0
   51.7423   31.2870   49.5132 H   0  0  0  0  0  0  0  0  0  0  0  0
   52.4331   29.6288   49.5132 H   0  0  0  0  0  0  0  0  0  0  0  0
   51.7991   28.7859   52.3468 H   0  0  0  0  0  0  0  0  0  0  0  0
   56.5077   29.6210   53.7829 H   0  0  0  0  0  0  0  0  0  0  0  0
   57.4805   31.3608   52.7191 H   0  0  0  0  0  0  0  0  0  0  0  0
   57.3582   30.4580   51.1710 H   0  0  0  0  0  0  0  0  0  0  0  0
   57.2974   32.2533   51.1710 H   0  0  0  0  0  0  0  0  0  0  0  0
   56.4473   27.3924   54.8767 H   0  0  0  0  0  0  0  0  0  0  0  0
   55.2616   28.0798   56.0759 H   0  0  0  0  0  0  0  0  0  0  0  0
   54.2187   24.6706   53.9321 H   0  0  0  0  0  0  0  0  0  0  0  0
   55.4337   25.8608   53.3168 H   0  0  0  0  0  0  0  0  0  0  0  0
   56.2563   24.2740   55.7098 H   0  0  0  0  0  0  0  0  0  0  0  0
   56.0669   23.3578   54.1555 H   0  0  0  0  0  0  0  0  0  0  0  0
   57.1514   26.9183   54.6225 H   0  0  0  0  0  0  0  0  0  0  0  0
   59.4055   27.7399   53.9496 H   0  0  0  0  0  0  0  0  0  0  0  0
   60.6846   25.9096   49.3827 H   0  0  0  0  0  0  0  0  0  0  0  0
   59.5993   27.5901   47.8985 H   0  0  0  0  0  0  0  0  0  0  0  0
   62.3259   30.5068   48.3965 H   0  0  0  0  0  0  0  0  0  0  0  0
   63.6857   32.3948   47.5043 H   0  0  0  0  0  0  0  0  0  0  0  0
   62.5645   34.3175   46.3773 H   0  0  0  0  0  0  0  0  0  0  0  0
   60.0847   34.3657   46.1521 H   0  0  0  0  0  0  0  0  0  0  0  0
   59.3255   30.0400   46.4545 H   0  0  0  0  0  0  0  0  0  0  0  0
   59.5535   27.8954   45.1982 H   0  0  0  0  0  0  0  0  0  0  0  0
   56.3950   29.1241   42.5109 H   0  0  0  0  0  0  0  0  0  0  0  0
   56.1541   31.2650   43.7693 H   0  0  0  0  0  0  0  0  0  0  0  0
   61.0542   30.7763   50.4454 H   0  0  0  0  0  0  0  0  0  0  0  0
   62.0302   29.0876   51.9989 H   0  0  0  0  0  0  0  0  0  0  0  0
   60.5345   23.7170   52.8130 H   0  0  0  0  0  0  0  0  0  0  0  0
   58.2857   22.8929   53.4994 H   0  0  0  0  0  0  0  0  0  0  0  0
   52.8423   25.3719   55.6052 H   0  0  0  0  0  0  0  0  0  0  0  0
   53.1048   27.0337   56.2908 H   0  0  0  0  0  0  0  0  0  0  0  0
   52.5440   26.2280   53.4138 H   0  0  0  0  0  0  0  0  0  0  0  0
   51.6382   27.3723   54.5013 H   0  0  0  0  0  0  0  0  0  0  0  0
  1  2  1  0
  2  3  1  0
  3  4  2  0
  4  5  1  0
  5  6  2  0
  6  7  1  0
  7  8  2  0
  8  9  1  0
  9 10  1  0
  6 11  1  0
 11 12  1  0
 12 13  1  0
 13 14  1  0
 14 15  1  0
 15 16  2  0
 16 17  1  0
 17 18  2  0
 18 19  1  0
 19 20  1  0
 20 21  2  0
 20 22  1  0
 22 23  2  0
 23 24  1  0
 24 25  2  0
 25 26  1  0
 26 27  1  0
 27 28  2  0
 28 29  1  0
 29 30  2  0
 30 31  1  0
 31 32  2  0
 32 33  1  0
 33 34  2  0
 33 35  1  0
 35 36  1  0
 36 37  2  0
 37 38  1  0
 38 39  2  0
 39 40  1  0
 39 41  1  0
 41 42  2  0
 25 43  1  0
 43 44  2  0
 18 45  1  0
 45 46  2  0
 12 47  1  0
 47 48  1  0
  8  3  1  0
 46 15  1  0
 48  5  1  0
 44 22  1  0
 32 27  1  0
 42 36  1  0
  1 49  1  0
  1 50  1  0
  1 51  1  0
  4 52  1  0
  7 53  1  0
 10 54  1  0
 10 55  1  0
 10 56  1  0
 11 57  1  0
 11 58  1  0
 13 59  1  0
 13 60  1  0
 14 61  1  0
 14 62  1  0
 16 63  1  0
 17 64  1  0
 23 65  1  0
 24 66  1  0
 28 67  1  0
 29 68  1  0
 30 69  1  0
 31 70  1  0
 37 71  1  0
 38 72  1  0
 41 73  1  0
 42 74  1  0
 43 75  1  0
 44 76  1  0
 45 77  1  0
 46 78  1  0
 47 79  1  0
 47 80  1  0
 48 81  1  0
 48 82  1  0
M  CHG  2  19  -1  35  -1
M  END
>  <UniqueID>  (56) 
55

>  <SMILES>  (56) 
COc1cc2c(cc1OC)CN(CCc1ccc([N-]C(=O)c3ccc(Oc4ccccc4C(=O)[N-]c4ccc(Cl)cc4)cc3)cc1)CC2

>  <Energy>  (56) 
116.02067460160902

>  <Genealogy>  (56) 
COc1cc2c(cc1OC)CN(CCc1ccc([N-]C(=O)c3ccc(Oc4ccccc4C(=O)[N-]c4ccc(Cl)cc4)cc3)cc1)CC2 (protonated)
COc1cc2c(cc1OC)CN(CCc1ccc([N-]C(=O)c3ccc(Oc4ccccc4C(=O)[N-]c4ccc(Cl)cc4)cc3)cc1)CC2 (3D coordinates assigned)
COc1cc2c(cc1OC)CN(CCc1ccc([N-]C(=O)c3ccc(Oc4ccccc4C(=O)[N-]c4ccc(Cl)cc4)cc3)cc1)CC2 (nonaromatic ring conformer: 116.02067460160902 kcal/mol)

>  <smiles>  (56) 
COc1cc2c(cc1OC)CN(CCc1ccc(NC(=O)c3ccc(Oc4ccccc4C(=O)Nc4ccc(Cl)cc4)cc3)cc1)CC2

>  <score_type>  (56) 
oracle

>  <origin>  (56) 
adg

>  <m_score__min__energy>  (56) 
-11.07

>  <m_primary>  (56) 
energy

$$$$
56:0
     RDKit          3D

 38 40  0  0  0  0  0  0  0  0999 V2000
   55.1410   27.7330   45.2540 H   0  0  0  0  0  0  0  0  0  0  0  0
   55.4980   27.0610   45.9230 O   0  0  0  0  0  0  0  0  0  0  0  0
   56.8630   26.8070   46.0490 C   0  0  0  0  0  0  0  0  0  0  0  0
   57.2960   25.8560   46.9840 C   0  0  0  0  0  0  0  0  0  0  0  0
   56.5662   25.3698   47.6481 H   0  0  0  0  0  0  0  0  0  0  0  0
   58.6450   25.5240   47.0760 C   0  0  0  0  0  0  0  0  0  0  0  0
   58.9859   24.7798   47.8108 H   0  0  0  0  0  0  0  0  0  0  0  0
   59.5580   26.1450   46.2270 C   0  0  0  0  0  0  0  0  0  0  0  0
   60.6238   25.8770   46.2751 H   0  0  0  0  0  0  0  0  0  0  0  0
   59.1330   27.0810   45.3400 N   0  0  0  0  0  0  0  0  0  0  0  0
   57.8280   27.4540   45.2320 C   0  0  0  0  0  0  0  0  0  0  0  0
   57.5360   28.3860   44.3630 N   0  0  0  0  0  0  0  0  0  0  0  0
   56.7850   29.5920   44.5660 C   0  0  0  0  0  0  0  0  0  0  0  0
   55.5730   29.6140   44.2220 O   0  0  0  0  0  0  0  0  0  0  0  0
   57.4260   30.8250   45.0880 C   0  0  0  0  0  0  0  0  0  0  0  0
   58.6160   30.7550   45.8340 C   0  0  0  0  0  0  0  0  0  0  0  0
   59.1139   29.7848   45.9781 H   0  0  0  0  0  0  0  0  0  0  0  0
   59.1700   31.9080   46.3930 C   0  0  0  0  0  0  0  0  0  0  0  0
   60.1042   31.8424   46.9700 H   0  0  0  0  0  0  0  0  0  0  0  0
   58.5400   33.1510   46.2220 C   0  0  0  0  0  0  0  0  0  0  0  0
   59.0510   34.3410   46.8380 N   0  0  0  0  0  0  0  0  0  0  0  0
   59.9570   34.3800   47.9520 C   0  0  0  0  0  0  0  0  0  0  0  0
   59.5200   34.7650   49.0690 O   0  0  0  0  0  0  0  0  0  0  0  0
   61.3680   33.9420   47.8350 C   0  0  0  0  0  0  0  0  0  0  0  0
   62.0100   33.8970   46.5820 C   0  0  0  0  0  0  0  0  0  0  0  0
   61.4549   34.1729   45.6733 H   0  0  0  0  0  0  0  0  0  0  0  0
   63.3480   33.5040   46.4860 C   0  0  0  0  0  0  0  0  0  0  0  0
   63.8459   33.4843   45.5053 H   0  0  0  0  0  0  0  0  0  0  0  0
   64.0540   33.1360   47.6350 C   0  0  0  0  0  0  0  0  0  0  0  0
   65.1082   32.8314   47.5587 H   0  0  0  0  0  0  0  0  0  0  0  0
   63.4210   33.1550   48.8800 C   0  0  0  0  0  0  0  0  0  0  0  0
   64.1040   32.7910   49.9930 F   0  0  0  0  0  0  0  0  0  0  0  0
   62.0820   33.5520   48.9810 C   0  0  0  0  0  0  0  0  0  0  0  0
   61.5861   33.5587   49.9629 H   0  0  0  0  0  0  0  0  0  0  0  0
   57.3940   33.2350   45.4250 C   0  0  0  0  0  0  0  0  0  0  0  0
   56.9291   34.2141   45.2370 H   0  0  0  0  0  0  0  0  0  0  0  0
   56.8360   32.0820   44.8660 C   0  0  0  0  0  0  0  0  0  0  0  0
   55.9291   32.1583   44.2482 H   0  0  0  0  0  0  0  0  0  0  0  0
  1  2  1  0
  2  3  1  0
  3  4  2  0
  4  5  1  0
  4  6  1  0
  6  7  1  0
  6  8  2  0
  8  9  1  0
  8 10  1  0
 10 11  1  0
 11 12  2  0
 12 13  1  0
 13 14  2  0
 13 15  1  0
 15 16  2  0
 16 17  1  0
 16 18  1  0
 18 19  1  0
 18 20  2  0
 20 21  1  0
 21 22  1  0
 22 23  2  0
 22 24  1  0
 24 25  2  0
 25 26  1  0
 25 27  1  0
 27 28  1  0
 27 29  2  0
 29 30  1  0
 29 31  1  0
 31 32  1  0
 31 33  2  0
 33 34  1  0
 20 35  1  0
 35 36  1  0
 35 37  2  0
 37 38  1  0
 11  3  1  0
 37 15  1  0
 33 24  1  0
M  CHG  2  10  -1  21  -1
M  END
>  <UniqueID>  (57) 
56

>  <SMILES>  (57) 
O=C(/N=c1/[n-]cccc1O)c1ccc([N-]C(=O)c2cccc(F)c2)cc1

>  <Energy>  (57) 
61.52585212435244

>  <Genealogy>  (57) 
O=C(N=c1[n-]cccc1O)c1ccc([N-]C(=O)c2cccc(F)c2)cc1 (protonated)
O=C(/N=c1/[n-]cccc1O)c1ccc([N-]C(=O)c2cccc(F)c2)cc1 (cis-trans isomerization)
O=C(/N=c1/[n-]cccc1O)c1ccc([N-]C(=O)c2cccc(F)c2)cc1 (3D coordinates assigned)
O=C(/N=c1/[n-]cccc1O)c1ccc([N-]C(=O)c2cccc(F)c2)cc1 (optimized conformer: 61.52585212435244 kcal/mol)

>  <smiles>  (57) 
O=C(N=c1[nH]cccc1O)c1ccc(NC(=O)c2cccc(F)c2)cc1

>  <score_type>  (57) 
oracle

>  <origin>  (57) 
adg

>  <m_score__min__energy>  (57) 
-11.31

>  <m_primary>  (57) 
energy

$$$$
57:0
     RDKit          3D

 39 42  0  0  0  0  0  0  0  0999 V2000
   53.8910   25.5300   46.2120 H   0  0  0  0  0  0  0  0  0  0  0  0
   54.6170   24.7810   46.2650 N   0  0  0  0  0  0  0  0  0  0  0  0
   55.8890   25.0270   46.3030 C   0  0  0  0  0  0  0  0  0  0  0  0
   56.7450   24.0210   46.6270 N   0  0  0  0  0  0  0  0  0  0  0  0
   58.0900   24.2070   46.6760 C   0  0  0  0  0  0  0  0  0  0  0  0
   58.7511   23.3666   46.9341 H   0  0  0  0  0  0  0  0  0  0  0  0
   58.6340   25.4600   46.4000 C   0  0  0  0  0  0  0  0  0  0  0  0
   59.7235   25.6084   46.4300 H   0  0  0  0  0  0  0  0  0  0  0  0
   57.7860   26.5300   46.0840 C   0  0  0  0  0  0  0  0  0  0  0  0
   58.3790   27.8540   45.8040 C   0  0  0  0  0  0  0  0  0  0  0  0
   59.0560   28.7130   46.6870 C   0  0  0  0  0  0  0  0  0  0  0  0
   59.5270   28.4280   48.0620 C   0  0  0  0  0  0  0  0  0  0  0  0
   59.1880   29.2910   49.1190 C   0  0  0  0  0  0  0  0  0  0  0  0
   58.5662   30.1771   48.9237 H   0  0  0  0  0  0  0  0  0  0  0  0
   59.6370   29.0290   50.4170 C   0  0  0  0  0  0  0  0  0  0  0  0
   59.3698   29.7104   51.2382 H   0  0  0  0  0  0  0  0  0  0  0  0
   60.4240   27.9040   50.6730 C   0  0  0  0  0  0  0  0  0  0  0  0
   60.8580   27.6520   51.9320 F   0  0  0  0  0  0  0  0  0  0  0  0
   60.7630   27.0380   49.6300 C   0  0  0  0  0  0  0  0  0  0  0  0
   61.3821   26.1515   49.8319 H   0  0  0  0  0  0  0  0  0  0  0  0
   60.3170   27.2960   48.3310 C   0  0  0  0  0  0  0  0  0  0  0  0
   60.5854   26.6098   47.5143 H   0  0  0  0  0  0  0  0  0  0  0  0
   59.1490   29.9180   45.9860 C   0  0  0  0  0  0  0  0  0  0  0  0
   59.5940   31.0120   46.4220 O   0  0  0  0  0  0  0  0  0  0  0  0
   58.6310   29.7480   44.7610 N   0  0  0  0  0  0  0  0  0  0  0  0
   58.1810   28.5330   44.6580 N   0  0  0  0  0  0  0  0  0  0  0  0
   57.2010   28.4110   43.7190 O   0  0  0  0  0  0  0  0  0  0  0  0
   57.0120   29.6720   43.0650 C   0  0  1  0  0  0  0  0  0  0  0  0
   57.2383   29.6495   41.9888 H   0  0  0  0  0  0  0  0  0  0  0  0
   55.5470   30.1010   43.1490 C   0  0  0  0  0  0  0  0  0  0  0  0
   55.4957   31.1647   43.4246 H   0  0  0  0  0  0  0  0  0  0  0  0
   55.0710   29.9417   42.1702 H   0  0  0  0  0  0  0  0  0  0  0  0
   54.8710   29.3400   44.1140 O   0  0  0  0  0  0  0  0  0  0  0  0
   55.4590   28.5670   44.3140 H   0  0  0  0  0  0  0  0  0  0  0  0
   57.9800   30.6450   43.8250 C   0  0  0  0  0  0  0  0  0  0  0  0
   58.7070   31.1033   43.1384 H   0  0  0  0  0  0  0  0  0  0  0  0
   57.4709   31.4944   44.3039 H   0  0  0  0  0  0  0  0  0  0  0  0
   56.3980   26.3070   46.0100 C   0  0  0  0  0  0  0  0  0  0  0  0
   55.5380   27.3330   45.6240 O   0  0  0  0  0  0  0  0  0  0  0  0
  1  2  1  0
  2  3  2  0
  3  4  1  0
  4  5  1  0
  5  6  1  0
  5  7  2  0
  7  8  1  0
  7  9  1  0
  9 10  1  0
 10 11  2  0
 11 12  1  0
 12 13  2  0
 13 14  1  0
 13 15  1  0
 15 16  1  0
 15 17  2  0
 17 18  1  0
 17 19  1  0
 19 20  1  0
 19 21  2  0
 21 22  1  0
 11 23  1  0
 23 24  2  0
 23 25  1  0
 25 26  1  0
 26 27  1  0
 27 28  1  0
 28 29  1  6
 28 30  1  0
 30 31  1  0
 30 32  1  0
 30 33  1  0
 33 34  1  0
 28 35  1  0
 35 36  1  0
 35 37  1  0
  9 38  2  0
 38 39  1  0
 38  3  1  0
 26 10  1  0
 21 12  1  0
 35 25  1  0
M  CHG  2   4  -1  39  -1
M  END
>  <UniqueID>  (58) 
57

>  <SMILES>  (58) 
[H]/N=c1/[n-]ccc(-c2c(-c3ccc(F)cc3)c(=O)n3n2O[C@@H](CO)C3)c1[O-]

>  <Energy>  (58) 
119.75659406676976

>  <Genealogy>  (58) 
N=c1[n-]ccc(-c2c(-c3ccc(F)cc3)c(=O)n3n2OC(CO)C3)c1[O-] (protonated)
N=c1[n-]ccc(-c2c(-c3ccc(F)cc3)c(=O)n3n2O[C@@H](CO)C3)c1[O-] (chirality)
[H]/N=c1/[n-]ccc(-c2c(-c3ccc(F)cc3)c(=O)n3n2O[C@@H](CO)C3)c1[O-] (cis-trans isomerization)
[H]/N=c1/[n-]ccc(-c2c(-c3ccc(F)cc3)c(=O)n3n2O[C@@H](CO)C3)c1[O-] (3D coordinates assigned)
[H]/N=c1/[n-]ccc(-c2c(-c3ccc(F)cc3)c(=O)n3n2O[C@@H](CO)C3)c1[O-] (nonaromatic ring conformer: 119.75659406676976 kcal/mol)

>  <smiles>  (58) 
N=c1[nH]ccc(-c2c(-c3ccc(F)cc3)c(=O)n3n2OC(CO)C3)c1O

>  <score_type>  (58) 
oracle

>  <origin>  (58) 
adg

>  <m_score__min__energy>  (58) 
-11.43

>  <m_primary>  (58) 
energy

$$$$
58:0
     RDKit          3D

 57 60  0  0  0  0  0  0  0  0999 V2000
   59.6150   35.1140   45.4080 O   0  0  0  0  0  0  0  0  0  0  0  0
   59.6040   34.4500   46.4790 C   0  0  0  0  0  0  0  0  0  0  0  0
   58.2740   34.0000   47.0380 C   0  0  0  0  0  0  0  0  0  0  0  0
   58.2720   32.5640   47.3800 N   0  0  0  0  0  0  0  0  0  0  0  0
   58.1280   31.6840   46.2310 C   0  0  0  0  0  0  0  0  0  0  0  0
   57.4360   32.1290   45.0820 C   0  0  0  0  0  0  0  0  0  0  0  0
   57.2420   31.2870   43.9880 C   0  0  0  0  0  0  0  0  0  0  0  0
   57.7610   29.9960   43.9980 C   0  0  0  0  0  0  0  0  0  0  0  0
   58.5030   29.5510   45.0910 C   0  0  0  0  0  0  0  0  0  0  0  0
   58.7130   30.3830   46.2050 C   0  0  0  0  0  0  0  0  0  0  0  0
   59.6050   29.8900   47.2810 C   0  0  0  0  0  0  0  0  0  0  0  0
   60.5620   30.6140   47.6650 O   0  0  0  0  0  0  0  0  0  0  0  0
   59.4940   28.5680   47.8250 N   0  0  0  0  0  0  0  0  0  0  0  0
   59.0180   27.3750   47.1840 C   0  0  0  0  0  0  0  0  0  0  0  0
   59.8900   26.4070   46.6560 C   0  0  0  0  0  0  0  0  0  0  0  0
   59.3810   25.2900   45.9840 C   0  0  0  0  0  0  0  0  0  0  0  0
   57.9970   25.1360   45.8130 C   0  0  0  0  0  0  0  0  0  0  0  0
   57.4770   24.0110   45.0820 N   0  0  0  0  0  0  0  0  0  0  0  0
   57.2610   22.7430   45.7190 C   0  0  0  0  0  0  0  0  0  0  0  0
   57.4810   22.5880   46.9520 O   0  0  0  0  0  0  0  0  0  0  0  0
   56.7860   21.5840   44.8870 C   0  0  0  0  0  0  0  0  0  0  0  0
   55.9320   22.0370   43.8490 O   0  0  0  0  0  0  0  0  0  0  0  0
   56.6370   22.8900   42.9650 C   0  0  0  0  0  0  0  0  0  0  0  0
   57.1530   24.1080   43.6840 C   0  0  0  0  0  0  0  0  0  0  0  0
   57.3630   25.1720   43.0430 O   0  0  0  0  0  0  0  0  0  0  0  0
   57.1280   26.1080   46.3290 C   0  0  0  0  0  0  0  0  0  0  0  0
   57.6360   27.2210   47.0040 C   0  0  0  0  0  0  0  0  0  0  0  0
   60.8940   34.0940   47.1200 C   0  0  0  0  0  0  0  0  0  0  0  0
   62.0330   33.8910   46.3250 C   0  0  0  0  0  0  0  0  0  0  0  0
   63.2610   33.5740   46.9110 C   0  0  0  0  0  0  0  0  0  0  0  0
   63.3700   33.4560   48.2950 C   0  0  0  0  0  0  0  0  0  0  0  0
   62.2410   33.6420   49.1120 C   0  0  0  0  0  0  0  0  0  0  0  0
   62.3530   33.5800   50.6130 C   0  0  0  0  0  0  0  0  0  0  0  0
   61.1000   33.6930   51.1890 F   0  0  0  0  0  0  0  0  0  0  0  0
   62.9110   32.3840   51.0240 F   0  0  0  0  0  0  0  0  0  0  0  0
   63.1490   34.6210   51.0540 F   0  0  0  0  0  0  0  0  0  0  0  0
   61.0130   33.9850   48.5180 C   0  0  0  0  0  0  0  0  0  0  0  0
   58.0562   34.5811   47.9462 H   0  0  0  0  0  0  0  0  0  0  0  0
   57.5088   34.1650   46.2652 H   0  0  0  0  0  0  0  0  0  0  0  0
   59.1730   32.3330   47.8570 H   0  0  0  0  0  0  0  0  0  0  0  0
   57.5010   32.4260   48.0710 H   0  0  0  0  0  0  0  0  0  0  0  0
   57.0441   33.1563   45.0504 H   0  0  0  0  0  0  0  0  0  0  0  0
   56.6770   31.6442   43.1144 H   0  0  0  0  0  0  0  0  0  0  0  0
   57.5857   29.3263   43.1431 H   0  0  0  0  0  0  0  0  0  0  0  0
   58.9293   28.5370   45.0819 H   0  0  0  0  0  0  0  0  0  0  0  0
   60.9772   26.5281   46.7716 H   0  0  0  0  0  0  0  0  0  0  0  0
   60.0694   24.5290   45.5879 H   0  0  0  0  0  0  0  0  0  0  0  0
   57.6552   21.0750   44.4449 H   0  0  0  0  0  0  0  0  0  0  0  0
   56.2273   20.8884   45.5304 H   0  0  0  0  0  0  0  0  0  0  0  0
   57.4869   22.3392   42.5356 H   0  0  0  0  0  0  0  0  0  0  0  0
   55.9486   23.2176   42.1721 H   0  0  0  0  0  0  0  0  0  0  0  0
   56.0414   25.9938   46.2018 H   0  0  0  0  0  0  0  0  0  0  0  0
   56.9463   27.9824   47.3973 H   0  0  0  0  0  0  0  0  0  0  0  0
   61.9580   33.9823   45.2314 H   0  0  0  0  0  0  0  0  0  0  0  0
   64.1459   33.4168   46.2768 H   0  0  0  0  0  0  0  0  0  0  0  0
   64.3425   33.2166   48.7499 H   0  0  0  0  0  0  0  0  0  0  0  0
   60.1349   34.1703   49.1540 H   0  0  0  0  0  0  0  0  0  0  0  0
  1  2  2  0
  2  3  1  0
  3  4  1  0
  4  5  1  0
  5  6  2  0
  6  7  1  0
  7  8  2  0
  8  9  1  0
  9 10  2  0
 10 11  1  0
 11 12  2  0
 11 13  1  0
 13 14  1  0
 14 15  2  0
 15 16  1  0
 16 17  2  0
 17 18  1  0
 18 19  1  0
 19 20  2  0
 19 21  1  0
 21 22  1  0
 22 23  1  0
 23 24  1  0
 24 25  2  0
 17 26  1  0
 26 27  2  0
  2 28  1  0
 28 29  2  0
 29 30  1  0
 30 31  2  0
 31 32  1  0
 32 33  1  0
 33 34  1  0
 33 35  1  0
 33 36  1  0
 32 37  2  0
 10  5  1  0
 27 14  1  0
 37 28  1  0
 24 18  1  0
  3 38  1  0
  3 39  1  0
  4 40  1  0
  4 41  1  0
  6 42  1  0
  7 43  1  0
  8 44  1  0
  9 45  1  0
 15 46  1  0
 16 47  1  0
 21 48  1  0
 21 49  1  0
 23 50  1  0
 23 51  1  0
 26 52  1  0
 27 53  1  0
 29 54  1  0
 30 55  1  0
 31 56  1  0
 37 57  1  0
M  CHG  2   4   1  13  -1
M  END
>  <UniqueID>  (59) 
58

>  <SMILES>  (59) 
O=C(C[NH2+]c1ccccc1C(=O)[N-]c1ccc(N2C(=O)COCC2=O)cc1)c1cccc(C(F)(F)F)c1

>  <Energy>  (59) 
87.30074685803915

>  <Genealogy>  (59) 
O=C(C[NH2+]c1ccccc1C(=O)[N-]c1ccc(N2C(=O)COCC2=O)cc1)c1cccc(C(F)(F)F)c1 (protonated)
O=C(C[NH2+]c1ccccc1C(=O)[N-]c1ccc(N2C(=O)COCC2=O)cc1)c1cccc(C(F)(F)F)c1 (3D coordinates assigned)
O=C(C[NH2+]c1ccccc1C(=O)[N-]c1ccc(N2C(=O)COCC2=O)cc1)c1cccc(C(F)(F)F)c1 (nonaromatic ring conformer: 87.30074685803915 kcal/mol)

>  <smiles>  (59) 
O=C(CNc1ccccc1C(=O)Nc1ccc(N2C(=O)COCC2=O)cc1)c1cccc(C(F)(F)F)c1

>  <score_type>  (59) 
oracle

>  <origin>  (59) 
adg

>  <m_score__min__energy>  (59) 
-9.2100000000000009

>  <m_primary>  (59) 
energy

$$$$
59:0
     RDKit          3D

 62 65  0  0  0  0  0  0  0  0999 V2000
   52.8620   27.9000   53.5090 C   0  0  0  0  0  0  0  0  0  0  0  0
   53.7620   28.8920   53.5900 C   0  0  0  0  0  0  0  0  0  0  0  0
   53.5670   30.2500   53.2860 C   0  0  0  0  0  0  0  0  0  0  0  0
   52.4450   30.9440   53.0110 C   0  0  0  0  0  0  0  0  0  0  0  0
   51.8280   31.0830   51.6830 C   0  0  0  0  0  0  0  0  0  0  0  0
   52.0610   30.2410   50.6600 N   0  0  0  0  0  0  0  0  0  0  0  0
   51.3770   30.8020   49.6380 C   0  0  0  0  0  0  0  0  0  0  0  0
   51.3370   30.2910   48.4870 O   0  0  0  0  0  0  0  0  0  0  0  0
   50.7440   31.9570   49.9420 N   0  0  0  0  0  0  0  0  0  0  0  0
   51.0490   32.1250   51.2390 C   0  0  0  0  0  0  0  0  0  0  0  0
   50.6340   33.2130   51.9950 O   0  0  0  0  0  0  0  0  0  0  0  0
   54.8210   30.8390   53.3250 C   0  0  0  0  0  0  0  0  0  0  0  0
   55.7180   29.8550   53.6840 C   0  0  0  0  0  0  0  0  0  0  0  0
   57.1740   30.0830   53.9570 C   0  0  0  0  0  0  0  0  0  0  0  0
   55.0750   28.6790   53.8590 N   0  0  0  0  0  0  0  0  0  0  0  0
   55.6850   27.4380   54.2450 C   0  0  0  0  0  0  0  0  0  0  0  0
   55.0670   26.6200   55.1990 C   0  0  0  0  0  0  0  0  0  0  0  0
   55.6460   25.4050   55.5610 C   0  0  0  0  0  0  0  0  0  0  0  0
   56.8450   24.9960   54.9710 C   0  0  0  0  0  0  0  0  0  0  0  0
   57.4860   25.8100   54.0170 C   0  0  0  0  0  0  0  0  0  0  0  0
   58.7550   25.3760   53.3860 C   0  0  0  0  0  0  0  0  0  0  0  0
   58.7390   24.4750   52.5060 O   0  0  0  0  0  0  0  0  0  0  0  0
   60.0080   25.9760   53.7470 N   0  0  0  0  0  0  0  0  0  0  0  0
   61.1320   25.1440   54.1810 C   0  0  0  0  0  0  0  0  0  0  0  0
   62.4080   25.5930   53.4680 C   0  0  0  0  0  0  0  0  0  0  0  0
   62.6120   27.0460   53.6320 N   0  0  0  0  0  0  0  0  0  0  0  0
   64.1250   27.5280   52.8890 S   0  0  0  0  0  0  0  0  0  0  0  0
   63.9200   28.6870   51.9540 O   0  0  0  0  0  0  0  0  0  0  0  0
   65.1290   27.9310   53.9360 O   0  0  0  0  0  0  0  0  0  0  0  0
   64.8080   26.1450   51.9820 C   0  0  0  0  0  0  0  0  0  0  0  0
   66.2920   26.3380   51.6650 C   0  0  0  0  0  0  0  0  0  0  0  0
   66.5410   26.0790   50.2940 O   0  0  0  0  0  0  0  0  0  0  0  0
   67.6750   26.7910   49.8530 C   0  0  0  0  0  0  0  0  0  0  0  0
   61.4890   27.7930   53.0380 C   0  0  0  0  0  0  0  0  0  0  0  0
   60.1770   27.4320   53.7360 C   0  0  0  0  0  0  0  0  0  0  0  0
   56.8890   27.0280   53.6510 C   0  0  0  0  0  0  0  0  0  0  0  0
   53.1493   26.8732   53.7795 H   0  0  0  0  0  0  0  0  0  0  0  0
   51.8369   28.1136   53.1721 H   0  0  0  0  0  0  0  0  0  0  0  0
   51.9479   31.4499   53.8518 H   0  0  0  0  0  0  0  0  0  0  0  0
   55.0562   31.8919   53.1103 H   0  0  0  0  0  0  0  0  0  0  0  0
   57.3436   30.1096   55.0435 H   0  0  0  0  0  0  0  0  0  0  0  0
   57.7625   29.2661   53.5139 H   0  0  0  0  0  0  0  0  0  0  0  0
   57.4846   31.0407   53.5139 H   0  0  0  0  0  0  0  0  0  0  0  0
   54.1219   26.9373   55.6640 H   0  0  0  0  0  0  0  0  0  0  0  0
   55.1583   24.7668   56.3125 H   0  0  0  0  0  0  0  0  0  0  0  0
   57.2914   24.0312   55.2538 H   0  0  0  0  0  0  0  0  0  0  0  0
   61.2648   25.2463   55.2682 H   0  0  0  0  0  0  0  0  0  0  0  0
   60.9254   24.0925   53.9325 H   0  0  0  0  0  0  0  0  0  0  0  0
   63.2683   25.0568   53.8950 H   0  0  0  0  0  0  0  0  0  0  0  0
   62.3127   25.3674   52.3956 H   0  0  0  0  0  0  0  0  0  0  0  0
   64.6904   25.2329   52.5855 H   0  0  0  0  0  0  0  0  0  0  0  0
   64.2664   26.0664   51.0278 H   0  0  0  0  0  0  0  0  0  0  0  0
   66.5806   27.3739   51.8966 H   0  0  0  0  0  0  0  0  0  0  0  0
   66.8816   25.6368   52.2739 H   0  0  0  0  0  0  0  0  0  0  0  0
   68.2447   27.1487   50.7233 H   0  0  0  0  0  0  0  0  0  0  0  0
   68.3102   26.1293   49.2458 H   0  0  0  0  0  0  0  0  0  0  0  0
   67.3550   27.6506   49.2458 H   0  0  0  0  0  0  0  0  0  0  0  0
   61.6730   28.8718   53.1486 H   0  0  0  0  0  0  0  0  0  0  0  0
   61.4098   27.5292   51.9730 H   0  0  0  0  0  0  0  0  0  0  0  0
   60.1983   27.8055   54.7704 H   0  0  0  0  0  0  0  0  0  0  0  0
   59.3374   27.8922   53.1944 H   0  0  0  0  0  0  0  0  0  0  0  0
   57.3686   27.6651   52.8933 H   0  0  0  0  0  0  0  0  0  0  0  0
  1  2  2  0
  2  3  1  0
  3  4  2  3
  4  5  1  0
  5  6  1  0
  6  7  1  0
  7  8  2  0
  7  9  1  0
  9 10  1  0
 10 11  1  0
  3 12  1  0
 12 13  2  0
 13 14  1  0
 13 15  1  0
 15 16  1  0
 16 17  2  0
 17 18  1  0
 18 19  2  0
 19 20  1  0
 20 21  1  0
 21 22  2  0
 21 23  1  0
 23 24  1  0
 24 25  1  0
 25 26  1  0
 26 27  1  0
 27 28  2  0
 27 29  2  0
 27 30  1  0
 30 31  1  0
 31 32  1  0
 32 33  1  0
 26 34  1  0
 34 35  1  0
 20 36  2  0
 15  2  1  0
 36 16  1  0
 10  5  2  0
 35 23  1  0
  1 37  1  0
  1 38  1  0
  4 39  1  0
 12 40  1  0
 14 41  1  0
 14 42  1  0
 14 43  1  0
 17 44  1  0
 18 45  1  0
 19 46  1  0
 24 47  1  0
 24 48  1  0
 25 49  1  0
 25 50  1  0
 30 51  1  0
 30 52  1  0
 31 53  1  0
 31 54  1  0
 33 55  1  0
 33 56  1  0
 33 57  1  0
 34 58  1  0
 34 59  1  0
 35 60  1  0
 35 61  1  0
 36 62  1  0
M  CHG  3   6  -1   9  -1  11  -1
M  END
>  <UniqueID>  (60) 
59

>  <SMILES>  (60) 
C=c1c(=Cc2[n-]c(=O)[n-]c2[O-])cc(C)n1-c1cccc(C(=O)N2CCN(S(=O)(=O)CCOC)CC2)c1

>  <Energy>  (60) 
142.38096945071013

>  <Genealogy>  (60) 
C=c1c(=Cc2[n-]c(=O)[n-]c2[O-])cc(C)n1-c1cccc(C(=O)N2CCN(S(=O)(=O)CCOC)CC2)c1 (protonated)
C=c1c(=Cc2[n-]c(=O)[n-]c2[O-])cc(C)n1-c1cccc(C(=O)N2CCN(S(=O)(=O)CCOC)CC2)c1 (3D coordinates assigned)
C=c1c(=Cc2[n-]c(=O)[n-]c2[O-])cc(C)n1-c1cccc(C(=O)N2CCN(S(=O)(=O)CCOC)CC2)c1 (nonaromatic ring conformer: 142.38096945071013 kcal/mol)

>  <smiles>  (60) 
C=c1c(=Cc2[nH]c(=O)[nH]c2O)cc(C)n1-c1cccc(C(=O)N2CCN(S(=O)(=O)CCOC)CC2)c1

>  <score_type>  (60) 
oracle

>  <origin>  (60) 
adg

>  <m_score__min__energy>  (60) 
-18.57

>  <m_primary>  (60) 
energy

$$$$
60:0
     RDKit          3D

 57 61  0  0  0  0  0  0  0  0999 V2000
   57.7250   24.1620   44.4110 C   0  0  0  0  0  0  0  0  0  0  0  0
   57.6210   25.6560   44.5020 C   0  0  0  0  0  0  0  0  0  0  0  0
   58.1220   26.4600   43.4670 C   0  0  0  0  0  0  0  0  0  0  0  0
   58.0590   27.8550   43.5600 C   0  0  0  0  0  0  0  0  0  0  0  0
   57.5030   28.4690   44.6970 C   0  0  0  0  0  0  0  0  0  0  0  0
   57.4220   29.9430   44.8100 C   0  0  0  0  0  0  0  0  0  0  0  0
   58.4540   30.8330   45.0470 C   0  0  0  0  0  0  0  0  0  0  0  0
   57.8960   32.0540   45.0610 N   0  0  0  0  0  0  0  0  0  0  0  0
   58.5670   33.3150   45.3520 C   0  0  0  0  0  0  0  0  0  0  0  0
   58.9290   33.3750   46.8090 C   0  0  0  0  0  0  0  0  0  0  0  0
   58.2050   32.6310   47.7530 C   0  0  0  0  0  0  0  0  0  0  0  0
   58.5340   32.7010   49.1100 C   0  0  0  0  0  0  0  0  0  0  0  0
   59.6010   33.5050   49.5380 C   0  0  0  0  0  0  0  0  0  0  0  0
   59.8700   33.6730   51.0110 C   0  0  0  0  0  0  0  0  0  0  0  0
   60.1690   32.3800   51.6210 N   0  0  0  0  0  0  0  0  0  0  0  0
   60.9760   31.3630   51.0130 C   0  0  0  0  0  0  0  0  0  0  0  0
   62.2300   31.4450   51.0850 O   0  0  0  0  0  0  0  0  0  0  0  0
   60.3700   30.2270   50.3070 C   0  0  0  0  0  0  0  0  0  0  0  0
   59.6870   29.4010   50.9690 O   0  0  0  0  0  0  0  0  0  0  0  0
   60.5220   30.0330   48.8470 C   0  0  0  0  0  0  0  0  0  0  0  0
   61.0260   30.9860   47.9650 C   0  0  0  0  0  0  0  0  0  0  0  0
   61.1560   30.4690   46.7240 N   0  0  0  0  0  0  0  0  0  0  0  0
   60.7510   29.1900   46.8070 C   0  0  0  0  0  0  0  0  0  0  0  0
   60.7630   28.2370   45.7880 C   0  0  0  0  0  0  0  0  0  0  0  0
   61.1830   28.5760   44.5040 O   0  0  0  0  0  0  0  0  0  0  0  0
   60.3450   26.9290   46.1030 C   0  0  0  0  0  0  0  0  0  0  0  0
   59.9380   26.6070   47.4140 C   0  0  0  0  0  0  0  0  0  0  0  0
   59.9430   27.5850   48.4230 C   0  0  0  0  0  0  0  0  0  0  0  0
   60.3500   28.8810   48.0870 C   0  0  0  0  0  0  0  0  0  0  0  0
   60.3570   34.2090   48.5870 C   0  0  0  0  0  0  0  0  0  0  0  0
   60.0230   34.1450   47.2320 C   0  0  0  0  0  0  0  0  0  0  0  0
   56.5930   31.9280   44.8660 N   0  0  0  0  0  0  0  0  0  0  0  0
   56.2780   30.6520   44.7030 N   0  0  0  0  0  0  0  0  0  0  0  0
   57.0200   27.6560   45.7390 C   0  0  0  0  0  0  0  0  0  0  0  0
   57.0840   26.2620   45.6440 C   0  0  0  0  0  0  0  0  0  0  0  0
   57.7548   23.7341   45.4239 H   0  0  0  0  0  0  0  0  0  0  0  0
   56.8523   23.7659   43.8712 H   0  0  0  0  0  0  0  0  0  0  0  0
   58.6442   23.8906   43.8712 H   0  0  0  0  0  0  0  0  0  0  0  0
   58.5670   25.9910   42.5770 H   0  0  0  0  0  0  0  0  0  0  0  0
   58.4468   28.4754   42.7386 H   0  0  0  0  0  0  0  0  0  0  0  0
   59.5166   30.5897   45.1942 H   0  0  0  0  0  0  0  0  0  0  0  0
   59.4814   33.3905   44.7452 H   0  0  0  0  0  0  0  0  0  0  0  0
   57.8920   34.1494   45.1110 H   0  0  0  0  0  0  0  0  0  0  0  0
   57.3744   31.9894   47.4237 H   0  0  0  0  0  0  0  0  0  0  0  0
   57.9540   32.1235   49.8449 H   0  0  0  0  0  0  0  0  0  0  0  0
   60.7285   34.3468   51.1488 H   0  0  0  0  0  0  0  0  0  0  0  0
   58.9770   34.0984   51.4922 H   0  0  0  0  0  0  0  0  0  0  0  0
   61.2832   32.0191   48.2415 H   0  0  0  0  0  0  0  0  0  0  0  0
   61.5300   30.9600   45.8800 H   0  0  0  0  0  0  0  0  0  0  0  0
   62.0460   28.2080   44.1170 H   0  0  0  0  0  0  0  0  0  0  0  0
   60.3361   26.1546   45.3218 H   0  0  0  0  0  0  0  0  0  0  0  0
   59.6141   25.5823   47.6487 H   0  0  0  0  0  0  0  0  0  0  0  0
   59.6351   27.3383   49.4498 H   0  0  0  0  0  0  0  0  0  0  0  0
   61.2167   34.8141   48.9106 H   0  0  0  0  0  0  0  0  0  0  0  0
   60.6201   34.7005   46.4938 H   0  0  0  0  0  0  0  0  0  0  0  0
   56.5878   28.1214   46.6371 H   0  0  0  0  0  0  0  0  0  0  0  0
   56.7107   25.6391   46.4703 H   0  0  0  0  0  0  0  0  0  0  0  0
  1  2  1  0
  2  3  2  0
  3  4  1  0
  4  5  2  0
  5  6  1  0
  6  7  2  0
  7  8  1  0
  8  9  1  0
  9 10  1  0
 10 11  2  0
 11 12  1  0
 12 13  2  0
 13 14  1  0
 14 15  1  0
 15 16  1  0
 16 17  2  0
 16 18  1  0
 18 19  2  0
 18 20  1  0
 20 21  2  0
 21 22  1  0
 22 23  1  0
 23 24  2  0
 24 25  1  0
 24 26  1  0
 26 27  2  0
 27 28  1  0
 28 29  2  0
 13 30  1  0
 30 31  2  0
  8 32  1  0
 32 33  2  0
  5 34  1  0
 34 35  2  0
 35  2  1  0
 33  6  1  0
 31 10  1  0
 29 20  1  0
 29 23  1  0
  1 36  1  0
  1 37  1  0
  1 38  1  0
  3 39  1  0
  4 40  1  0
  7 41  1  0
  9 42  1  0
  9 43  1  0
 11 44  1  0
 12 45  1  0
 14 46  1  0
 14 47  1  0
 21 48  1  0
 22 49  1  0
 25 50  1  0
 26 51  1  0
 27 52  1  0
 28 53  1  0
 30 54  1  0
 31 55  1  0
 34 56  1  0
 35 57  1  0
M  CHG  1  15  -1
M  END
>  <UniqueID>  (61) 
60

>  <SMILES>  (61) 
Cc1ccc(-c2cn(Cc3ccc(C[N-]C(=O)C(=O)c4c[nH]c5c(O)cccc45)cc3)nn2)cc1

>  <Energy>  (61) 
129.99445119432855

>  <Genealogy>  (61) 
Cc1ccc(-c2cn(Cc3ccc(C[N-]C(=O)C(=O)c4c[nH]c5c(O)cccc45)cc3)nn2)cc1 (protonated)
Cc1ccc(-c2cn(Cc3ccc(C[N-]C(=O)C(=O)c4c[nH]c5c(O)cccc45)cc3)nn2)cc1 (3D coordinates assigned)
Cc1ccc(-c2cn(Cc3ccc(C[N-]C(=O)C(=O)c4c[nH]c5c(O)cccc45)cc3)nn2)cc1 (optimized conformer: 129.99445119432855 kcal/mol)

>  <smiles>  (61) 
Cc1ccc(-c2cn(Cc3ccc(CNC(=O)C(=O)c4c[nH]c5c(O)cccc45)cc3)nn2)cc1

>  <score_type>  (61) 
oracle

>  <origin>  (61) 
adg

>  <m_score__min__energy>  (61) 
-13.32

>  <m_primary>  (61) 
energy

$$$$
61:0
     RDKit          3D

 45 47  0  0  0  0  0  0  0  0999 V2000
   59.5000   26.6327   44.8902 H   0  0  0  0  0  0  0  0  0  0  0  0
   58.9330   27.4190   45.4100 C   0  0  0  0  0  0  0  0  0  0  0  0
   59.4590   28.7960   45.4030 C   0  0  0  0  0  0  0  0  0  0  0  0
   59.7690   29.3560   44.3150 O   0  0  0  0  0  0  0  0  0  0  0  0
   59.6510   29.4830   46.6490 N   0  0  0  0  0  0  0  0  0  0  0  0
   59.5200   28.9410   47.5310 H   0  0  0  0  0  0  0  0  0  0  0  0
   60.0940   30.8480   46.7400 C   0  0  0  0  0  0  0  0  0  0  0  0
   61.4220   31.1300   47.1040 C   0  0  0  0  0  0  0  0  0  0  0  0
   62.1102   30.3046   47.3388 H   0  0  0  0  0  0  0  0  0  0  0  0
   61.8750   32.4490   47.1700 C   0  0  0  0  0  0  0  0  0  0  0  0
   62.9150   32.6589   47.4604 H   0  0  0  0  0  0  0  0  0  0  0  0
   61.0100   33.5010   46.8680 C   0  0  0  0  0  0  0  0  0  0  0  0
   61.3682   34.5396   46.9222 H   0  0  0  0  0  0  0  0  0  0  0  0
   59.6900   33.2370   46.4970 C   0  0  0  0  0  0  0  0  0  0  0  0
   59.0138   34.0713   46.2588 H   0  0  0  0  0  0  0  0  0  0  0  0
   59.2170   31.9150   46.4250 C   0  0  0  0  0  0  0  0  0  0  0  0
   57.7750   31.6660   46.0350 C   0  0  0  0  0  0  0  0  0  0  0  0
   57.4720   30.6768   46.4086 H   0  0  0  0  0  0  0  0  0  0  0  0
   57.1611   32.4643   46.4776 H   0  0  0  0  0  0  0  0  0  0  0  0
   57.5770   31.7030   44.5290 C   0  0  0  0  0  0  0  0  0  0  0  0
   58.2510   32.6930   43.7840 C   0  0  0  0  0  0  0  0  0  0  0  0
   58.8516   33.4514   44.3076 H   0  0  0  0  0  0  0  0  0  0  0  0
   58.1660   32.7230   42.3920 C   0  0  0  0  0  0  0  0  0  0  0  0
   58.7058   33.4961   41.8256 H   0  0  0  0  0  0  0  0  0  0  0  0
   57.3990   31.7760   41.7180 C   0  0  0  0  0  0  0  0  0  0  0  0
   57.3516   31.7884   40.6191 H   0  0  0  0  0  0  0  0  0  0  0  0
   56.6910   30.8120   42.4350 C   0  0  0  0  0  0  0  0  0  0  0  0
   56.0839   30.0702   41.8953 H   0  0  0  0  0  0  0  0  0  0  0  0
   56.7440   30.7770   43.8400 C   0  0  0  0  0  0  0  0  0  0  0  0
   55.9010   29.7830   44.5390 C   0  0  0  0  0  0  0  0  0  0  0  0
   56.2870   29.2810   45.6270 O   0  0  0  0  0  0  0  0  0  0  0  0
   54.7130   29.3390   43.9710 O   0  0  0  0  0  0  0  0  0  0  0  0
   57.7900   27.0900   46.0260 C   0  0  0  0  0  0  0  0  0  0  0  0
   57.3230   27.8258   46.6973 H   0  0  0  0  0  0  0  0  0  0  0  0
   57.1280   25.7780   45.8420 C   0  0  0  0  0  0  0  0  0  0  0  0
   57.9350   24.6360   45.7150 C   0  0  0  0  0  0  0  0  0  0  0  0
   59.0298   24.7351   45.7544 H   0  0  0  0  0  0  0  0  0  0  0  0
   57.3600   23.3750   45.5390 C   0  0  0  0  0  0  0  0  0  0  0  0
   58.0025   22.4888   45.4302 H   0  0  0  0  0  0  0  0  0  0  0  0
   55.9710   23.2380   45.5010 C   0  0  0  0  0  0  0  0  0  0  0  0
   55.5197   22.2460   45.3514 H   0  0  0  0  0  0  0  0  0  0  0  0
   55.1550   24.3610   45.6530 C   0  0  0  0  0  0  0  0  0  0  0  0
   54.0609   24.2497   45.6280 H   0  0  0  0  0  0  0  0  0  0  0  0
   55.7220   25.6280   45.8370 C   0  0  0  0  0  0  0  0  0  0  0  0
   54.8800   26.7160   46.0440 O   0  0  0  0  0  0  0  0  0  0  0  0
  1  2  1  0
  2  3  1  0
  3  4  2  0
  3  5  1  0
  5  6  1  0
  5  7  1  0
  7  8  2  0
  8  9  1  0
  8 10  1  0
 10 11  1  0
 10 12  2  0
 12 13  1  0
 12 14  1  0
 14 15  1  0
 14 16  2  0
 16 17  1  0
 17 18  1  0
 17 19  1  0
 17 20  1  0
 20 21  2  0
 21 22  1  0
 21 23  1  0
 23 24  1  0
 23 25  2  0
 25 26  1  0
 25 27  1  0
 27 28  1  0
 27 29  2  0
 29 30  1  0
 30 31  2  0
 30 32  1  0
  2 33  2  0
 33 34  1  0
 33 35  1  0
 35 36  2  0
 36 37  1  0
 36 38  1  0
 38 39  1  0
 38 40  2  0
 40 41  1  0
 40 42  1  0
 42 43  1  0
 42 44  2  0
 44 45  1  0
 16  7  1  0
 29 20  1  0
 44 35  1  0
M  CHG  2  32  -1  45  -1
M  END
>  <UniqueID>  (62) 
61

>  <SMILES>  (62) 
O=C(/C=C/c1ccccc1[O-])Nc1ccccc1Cc1ccccc1C(=O)[O-]

>  <Energy>  (62) 
62.9245339133874

>  <Genealogy>  (62) 
O=C(C=Cc1ccccc1[O-])Nc1ccccc1Cc1ccccc1C(=O)[O-] (protonated)
O=C(/C=C/c1ccccc1[O-])Nc1ccccc1Cc1ccccc1C(=O)[O-] (cis-trans isomerization)
O=C(/C=C/c1ccccc1[O-])Nc1ccccc1Cc1ccccc1C(=O)[O-] (3D coordinates assigned)
O=C(/C=C/c1ccccc1[O-])Nc1ccccc1Cc1ccccc1C(=O)[O-] (optimized conformer: 62.9245339133874 kcal/mol)

>  <smiles>  (62) 
O=C(C=Cc1ccccc1O)Nc1ccccc1Cc1ccccc1C(=O)O

>  <score_type>  (62) 
oracle

>  <origin>  (62) 
adg

>  <m_score__min__energy>  (62) 
-14.99

>  <m_primary>  (62) 
energy

$$$$
62:0
     RDKit          3D

 57 60  0  0  0  0  0  0  0  0999 V2000
   56.7068   20.8008   42.5148 H   0  0  0  0  0  0  0  0  0  0  0  0
   56.9700   21.6890   43.1080 C   0  0  0  0  0  0  0  0  0  0  0  0
   57.8271   21.6563   43.7967 H   0  0  0  0  0  0  0  0  0  0  0  0
   56.2490   22.8070   42.9920 C   0  0  0  0  0  0  0  0  0  0  0  0
   55.3950   22.8232   42.2988 H   0  0  0  0  0  0  0  0  0  0  0  0
   56.5720   24.0430   43.7820 C   0  0  0  0  0  0  0  0  0  0  0  0
   57.5958   23.9630   44.1761 H   0  0  0  0  0  0  0  0  0  0  0  0
   56.4861   24.9187   43.1219 H   0  0  0  0  0  0  0  0  0  0  0  0
   55.6140   24.2030   44.9260 C   0  0  0  0  0  0  0  0  0  0  0  0
   54.5200   23.5770   44.9050 O   0  0  0  0  0  0  0  0  0  0  0  0
   55.9380   25.1150   46.0420 C   0  0  0  0  0  0  0  0  0  0  0  0
   56.4103   24.7021   46.9456 H   0  0  0  0  0  0  0  0  0  0  0  0
   55.6760   26.4290   45.9910 C   0  0  0  0  0  0  0  0  0  0  0  0
   54.6259   26.7556   46.0178 H   0  0  0  0  0  0  0  0  0  0  0  0
   56.7370   27.4640   45.9000 C   0  0  0  0  0  0  0  0  0  0  0  0
   58.0190   27.2430   46.4340 C   0  0  0  0  0  0  0  0  0  0  0  0
   58.2480   26.2812   46.9161 H   0  0  0  0  0  0  0  0  0  0  0  0
   59.0050   28.2290   46.3600 C   0  0  0  0  0  0  0  0  0  0  0  0
   60.2640   28.0020   47.0160 N   0  0  0  0  0  0  0  0  0  0  0  0
   60.6480   28.4200   48.1940 C   0  0  0  0  0  0  0  0  0  0  0  0
   60.5870   27.5960   49.3370 C   0  0  0  0  0  0  0  0  0  0  0  0
   60.2140   26.5647   49.2513 H   0  0  0  0  0  0  0  0  0  0  0  0
   60.9990   28.0870   50.5760 C   0  0  0  0  0  0  0  0  0  0  0  0
   60.9601   27.4370   51.4626 H   0  0  0  0  0  0  0  0  0  0  0  0
   61.4470   29.3610   50.6930 N   0  0  0  0  0  0  0  0  0  0  0  0
   61.5070   30.2000   49.6270 C   0  0  0  0  0  0  0  0  0  0  0  0
   61.9700   31.5090   49.8020 C   0  0  0  0  0  0  0  0  0  0  0  0
   62.2855   31.8500   50.7991 H   0  0  0  0  0  0  0  0  0  0  0  0
   62.0330   32.3850   48.7140 C   0  0  0  0  0  0  0  0  0  0  0  0
   62.6130   34.0250   48.9400 Cl  0  0  0  0  0  0  0  0  0  0  0  0
   61.6350   31.9540   47.4450 C   0  0  0  0  0  0  0  0  0  0  0  0
   61.6856   32.6450   46.5907 H   0  0  0  0  0  0  0  0  0  0  0  0
   61.1730   30.6480   47.2580 C   0  0  0  0  0  0  0  0  0  0  0  0
   60.8628   30.3164   46.2561 H   0  0  0  0  0  0  0  0  0  0  0  0
   61.1020   29.7530   48.3450 C   0  0  0  0  0  0  0  0  0  0  0  0
   58.7000   29.4670   45.7810 C   0  0  0  0  0  0  0  0  0  0  0  0
   59.4593   30.2629   45.7715 H   0  0  0  0  0  0  0  0  0  0  0  0
   57.4380   29.7070   45.2120 C   0  0  0  0  0  0  0  0  0  0  0  0
   57.1550   31.0560   44.5650 C   0  0  0  0  0  0  0  0  0  0  0  0
   57.1201   30.9098   43.4753 H   0  0  0  0  0  0  0  0  0  0  0  0
   56.2039   31.4055   44.9930 H   0  0  0  0  0  0  0  0  0  0  0  0
   58.1550   32.1230   44.8550 N   0  0  0  0  0  0  0  0  0  0  0  0
   59.0920   31.7310   44.5970 H   0  0  0  0  0  0  0  0  0  0  0  0
   58.2010   32.5260   46.2690 C   0  0  0  0  0  0  0  0  0  0  0  0
   57.7591   31.7383   46.8969 H   0  0  0  0  0  0  0  0  0  0  0  0
   59.2415   32.6830   46.5894 H   0  0  0  0  0  0  0  0  0  0  0  0
   57.4010   33.8130   46.4140 C   0  0  0  0  0  0  0  0  0  0  0  0
   56.4224   33.6065   46.8719 H   0  0  0  0  0  0  0  0  0  0  0  0
   57.9145   34.5387   47.0618 H   0  0  0  0  0  0  0  0  0  0  0  0
   57.2230   34.3490   45.0040 C   0  0  0  0  0  0  0  0  0  0  0  0
   56.1554   34.3948   44.7430 H   0  0  0  0  0  0  0  0  0  0  0  0
   57.6238   35.3685   44.9036 H   0  0  0  0  0  0  0  0  0  0  0  0
   57.9510   33.3660   44.0940 C   0  0  0  0  0  0  0  0  0  0  0  0
   57.3441   33.1628   43.1994 H   0  0  0  0  0  0  0  0  0  0  0  0
   58.9156   33.7825   43.7683 H   0  0  0  0  0  0  0  0  0  0  0  0
   56.4420   28.7130   45.3170 C   0  0  0  0  0  0  0  0  0  0  0  0
   55.1520   28.9680   44.8580 O   0  0  0  0  0  0  0  0  0  0  0  0
  1  2  1  0
  2  3  1  0
  2  4  2  0
  4  5  1  0
  4  6  1  0
  6  7  1  0
  6  8  1  0
  6  9  1  0
  9 10  2  0
  9 11  1  0
 11 12  1  0
 11 13  2  0
 13 14  1  0
 13 15  1  0
 15 16  2  0
 16 17  1  0
 16 18  1  0
 18 19  1  0
 19 20  2  3
 20 21  1  0
 21 22  1  0
 21 23  2  0
 23 24  1  0
 23 25  1  0
 25 26  1  0
 26 27  2  0
 27 28  1  0
 27 29  1  0
 29 30  1  0
 29 31  2  0
 31 32  1  0
 31 33  1  0
 33 34  1  0
 33 35  2  0
 18 36  2  0
 36 37  1  0
 36 38  1  0
 38 39  1  0
 39 40  1  0
 39 41  1  0
 39 42  1  0
 42 43  1  0
 42 44  1  0
 44 45  1  0
 44 46  1  0
 44 47  1  0
 47 48  1  0
 47 49  1  0
 47 50  1  0
 50 51  1  0
 50 52  1  0
 50 53  1  0
 53 54  1  0
 53 55  1  0
 38 56  2  0
 56 57  1  0
 56 15  1  0
 35 20  1  0
 53 42  1  0
 35 26  1  0
M  CHG  3  25  -1  42   1  57  -1
M  END
>  <UniqueID>  (63) 
62

>  <SMILES>  (63) 
C=CCC(=O)/C=C/c1cc(N=c2cc[n-]c3cc(Cl)ccc23)cc(C[NH+]2CCCC2)c1[O-]

>  <Energy>  (63) 
79.9966888203891

>  <Genealogy>  (63) 
C=CCC(=O)C=Cc1cc(N=c2cc[n-]c3cc(Cl)ccc23)cc(C[NH+]2CCCC2)c1[O-] (protonated)
C=CCC(=O)/C=C/c1cc(N=c2cc[n-]c3cc(Cl)ccc23)cc(C[NH+]2CCCC2)c1[O-] (cis-trans isomerization)
C=CCC(=O)/C=C/c1cc(N=c2cc[n-]c3cc(Cl)ccc23)cc(C[NH+]2CCCC2)c1[O-] (3D coordinates assigned)
C=CCC(=O)/C=C/c1cc(N=c2cc[n-]c3cc(Cl)ccc23)cc(C[NH+]2CCCC2)c1[O-] (nonaromatic ring conformer: 79.9966888203891 kcal/mol)

>  <smiles>  (63) 
C=CCC(=O)C=Cc1cc(N=c2cc[nH]c3cc(Cl)ccc23)cc(CN2CCCC2)c1O

>  <score_type>  (63) 
oracle

>  <origin>  (63) 
adg

>  <m_score__min__energy>  (63) 
-11.029999999999999

>  <m_primary>  (63) 
energy

$$$$
63:0
     RDKit          3D

 49 51  0  0  0  0  0  0  0  0999 V2000
   64.6220   32.7020   46.8680 H   0  0  0  0  0  0  0  0  0  0  0  0
   63.9590   33.4400   47.1980 N   0  0  0  0  0  0  0  0  0  0  0  0
   62.6800   33.2470   47.2050 C   0  0  0  0  0  0  0  0  0  0  0  0
   61.8400   34.2140   46.7490 N   0  0  0  0  0  0  0  0  0  0  0  0
   60.4850   34.0630   46.7390 C   0  0  0  0  0  0  0  0  0  0  0  0
   59.6480   35.2140   46.2650 C   0  0  0  0  0  0  0  0  0  0  0  0
   59.2507   35.7604   47.1331 H   0  0  0  0  0  0  0  0  0  0  0  0
   60.2662   35.8911   45.6572 H   0  0  0  0  0  0  0  0  0  0  0  0
   58.8134   34.8346   45.6572 H   0  0  0  0  0  0  0  0  0  0  0  0
   59.9150   32.8590   47.2220 C   0  0  0  0  0  0  0  0  0  0  0  0
   58.4230   32.6100   47.2730 C   0  0  0  0  0  0  0  0  0  0  0  0
   58.1331   32.3457   48.3007 H   0  0  0  0  0  0  0  0  0  0  0  0
   57.8946   33.5220   46.9582 H   0  0  0  0  0  0  0  0  0  0  0  0
   58.0660   31.5150   46.3730 N   0  0  0  0  0  0  0  0  0  0  0  0
   57.7310   30.6180   46.7930 H   0  0  0  0  0  0  0  0  0  0  0  0
   58.2480   31.6000   44.9530 C   0  0  0  0  0  0  0  0  0  0  0  0
   58.5280   32.7030   44.4110 O   0  0  0  0  0  0  0  0  0  0  0  0
   58.1530   30.3670   44.1070 C   0  0  0  0  0  0  0  0  0  0  0  0
   57.1513   29.9264   44.2188 H   0  0  0  0  0  0  0  0  0  0  0  0
   58.3294   30.6394   43.0560 H   0  0  0  0  0  0  0  0  0  0  0  0
   59.2060   29.3440   44.5400 C   0  0  0  0  0  0  0  0  0  0  0  0
   59.8501   29.1001   43.6823 H   0  0  0  0  0  0  0  0  0  0  0  0
   59.8103   29.7726   45.3531 H   0  0  0  0  0  0  0  0  0  0  0  0
   58.5530   28.1170   45.0220 N   0  0  0  0  0  0  0  0  0  0  0  0
   58.4170   27.7540   46.3190 C   0  0  0  0  0  0  0  0  0  0  0  0
   58.8280   28.5900   47.4920 C   0  0  0  0  0  0  0  0  0  0  0  0
   58.5703   28.0658   48.4241 H   0  0  0  0  0  0  0  0  0  0  0  0
   59.9138   28.7628   47.4566 H   0  0  0  0  0  0  0  0  0  0  0  0
   58.3018   29.5553   47.4566 H   0  0  0  0  0  0  0  0  0  0  0  0
   57.7880   26.5290   46.4160 C   0  0  0  0  0  0  0  0  0  0  0  0
   57.5352   25.9938   47.3432 H   0  0  0  0  0  0  0  0  0  0  0  0
   57.5350   26.1010   45.1170 C   0  0  0  0  0  0  0  0  0  0  0  0
   56.9250   24.9560   44.7380 C   0  0  0  0  0  0  0  0  0  0  0  0
   57.5100   24.2581   44.1210 H   0  0  0  0  0  0  0  0  0  0  0  0
   55.5410   24.5560   45.0780 C   0  0  0  0  0  0  0  0  0  0  0  0
   54.9870   23.3490   44.8630 N   0  0  0  0  0  0  0  0  0  0  0  0
   53.7240   23.4940   45.3130 C   0  0  0  0  0  0  0  0  0  0  0  0
   52.8820   22.5590   45.2810 O   0  0  0  0  0  0  0  0  0  0  0  0
   53.4330   24.7190   45.7990 N   0  0  0  0  0  0  0  0  0  0  0  0
   54.5910   25.3780   45.6400 C   0  0  0  0  0  0  0  0  0  0  0  0
   54.7770   26.7080   46.0010 O   0  0  0  0  0  0  0  0  0  0  0  0
   58.0320   27.1080   44.2750 C   0  0  0  0  0  0  0  0  0  0  0  0
   58.0170   27.0980   42.9300 C   0  0  0  0  0  0  0  0  0  0  0  0
   58.4366   27.9460   42.3690 H   0  0  0  0  0  0  0  0  0  0  0  0
   57.5851   26.2418   42.3911 H   0  0  0  0  0  0  0  0  0  0  0  0
   60.7770   31.8600   47.7030 C   0  0  0  0  0  0  0  0  0  0  0  0
   60.3584   30.9195   48.0905 H   0  0  0  0  0  0  0  0  0  0  0  0
   62.1580   32.0490   47.6940 C   0  0  0  0  0  0  0  0  0  0  0  0
   62.8292   31.2620   48.0684 H   0  0  0  0  0  0  0  0  0  0  0  0
  1  2  1  0
  2  3  2  0
  3  4  1  0
  4  5  1  0
  5  6  1  0
  6  7  1  0
  6  8  1  0
  6  9  1  0
  5 10  2  0
 10 11  1  0
 11 12  1  0
 11 13  1  0
 11 14  1  0
 14 15  1  0
 14 16  1  0
 16 17  2  0
 16 18  1  0
 18 19  1  0
 18 20  1  0
 18 21  1  0
 21 22  1  0
 21 23  1  0
 21 24  1  0
 24 25  1  0
 25 26  1  0
 26 27  1  0
 26 28  1  0
 26 29  1  0
 25 30  2  0
 30 31  1  0
 30 32  1  0
 32 33  2  0
 33 34  1  0
 33 35  1  0
 35 36  1  0
 36 37  1  0
 37 38  2  0
 37 39  1  0
 39 40  1  0
 40 41  1  0
 32 42  1  0
 42 43  2  0
 43 44  1  0
 43 45  1  0
 10 46  1  0
 46 47  1  0
 46 48  2  0
 48 49  1  0
 48  3  1  0
 42 24  1  0
 40 35  2  0
M  CHG  4   4  -1  36  -1  39  -1  41  -1
M  END
>  <UniqueID>  (64) 
63

>  <SMILES>  (64) 
[H]/N=c1/ccc(CNC(=O)CCn2c(C)c/c(=C\c3[n-]c(=O)[n-]c3[O-])c2=C)c(C)[n-]1

>  <Energy>  (64) 
107.57525379078216

>  <Genealogy>  (64) 
C=c1c(=Cc2[n-]c(=O)[n-]c2[O-])cc(C)n1CCC(=O)NCc1ccc(=N)[n-]c1C (protonated)
[H]/N=c1/ccc(CNC(=O)CCn2c(C)c/c(=C\c3[n-]c(=O)[n-]c3[O-])c2=C)c(C)[n-]1 (cis-trans isomerization)
[H]/N=c1/ccc(CNC(=O)CCn2c(C)c/c(=C\c3[n-]c(=O)[n-]c3[O-])c2=C)c(C)[n-]1 (3D coordinates assigned)
[H]/N=c1/ccc(CNC(=O)CCn2c(C)c/c(=C\c3[n-]c(=O)[n-]c3[O-])c2=C)c(C)[n-]1 (optimized conformer: 107.57525379078216 kcal/mol)

>  <smiles>  (64) 
C=c1c(=Cc2[nH]c(=O)[nH]c2O)cc(C)n1CCC(=O)NCc1ccc(=N)[nH]c1C

>  <score_type>  (64) 
oracle

>  <origin>  (64) 
adg

>  <m_score__min__energy>  (64) 
-17.510000000000002

>  <m_primary>  (64) 
energy

$$$$
64:0
     RDKit          3D

 40 42  0  0  0  0  0  0  0  0999 V2000
   60.3910   28.0780   48.1050 C   0  0  0  0  0  0  0  0  0  0  0  0
   59.3600   27.5300   47.1630 C   0  0  0  0  0  0  0  0  0  0  0  0
   58.6330   26.3820   47.5080 C   0  0  0  0  0  0  0  0  0  0  0  0
   57.6480   25.8780   46.6450 C   0  0  0  0  0  0  0  0  0  0  0  0
   56.8510   24.6670   47.0280 C   0  0  0  0  0  0  0  0  0  0  0  0
   57.3680   26.5540   45.4490 C   0  0  0  0  0  0  0  0  0  0  0  0
   58.0760   27.7090   45.0980 C   0  0  0  0  0  0  0  0  0  0  0  0
   57.7610   28.3550   43.8580 N   0  0  0  0  0  0  0  0  0  0  0  0
   56.6460   29.6710   43.6730 S   0  0  0  0  0  0  0  0  0  0  0  0
   56.2220   29.7590   42.2340 O   0  0  0  0  0  0  0  0  0  0  0  0
   55.4310   29.3810   44.5090 O   0  0  0  0  0  0  0  0  0  0  0  0
   57.4240   31.2060   44.1360 C   0  0  0  0  0  0  0  0  0  0  0  0
   57.7500   32.1770   43.1680 C   0  0  0  0  0  0  0  0  0  0  0  0
   57.4710   31.9900   41.7050 C   0  0  0  0  0  0  0  0  0  0  0  0
   58.3760   33.3170   43.5510 N   0  0  0  0  0  0  0  0  0  0  0  0
   58.6840   33.5680   44.8460 C   0  0  0  0  0  0  0  0  0  0  0  0
   59.3300   34.7670   45.1700 C   0  0  0  0  0  0  0  0  0  0  0  0
   59.6490   35.0370   46.4970 C   0  0  0  0  0  0  0  0  0  0  0  0
   59.3230   34.1160   47.4870 C   0  0  0  0  0  0  0  0  0  0  0  0
   58.6780   32.9270   47.1360 C   0  0  0  0  0  0  0  0  0  0  0  0
   58.3640   32.6570   45.8260 N   0  0  0  0  0  0  0  0  0  0  0  0
   57.7340   31.4840   45.4840 C   0  0  0  0  0  0  0  0  0  0  0  0
   57.4310   30.6460   46.3780 O   0  0  0  0  0  0  0  0  0  0  0  0
   59.0670   28.2000   45.9670 C   0  0  0  0  0  0  0  0  0  0  0  0
   60.0680   27.9063   49.1424 H   0  0  0  0  0  0  0  0  0  0  0  0
   61.3520   27.5717   47.9317 H   0  0  0  0  0  0  0  0  0  0  0  0
   60.5090   29.1578   47.9317 H   0  0  0  0  0  0  0  0  0  0  0  0
   58.8361   25.8729   48.4617 H   0  0  0  0  0  0  0  0  0  0  0  0
   56.8017   24.5922   48.1243 H   0  0  0  0  0  0  0  0  0  0  0  0
   55.8331   24.7540   46.6203 H   0  0  0  0  0  0  0  0  0  0  0  0
   57.3335   23.7665   46.6203 H   0  0  0  0  0  0  0  0  0  0  0  0
   56.5833   26.1724   44.7793 H   0  0  0  0  0  0  0  0  0  0  0  0
   56.5632   31.3816   41.5797 H   0  0  0  0  0  0  0  0  0  0  0  0
   57.3226   32.9718   41.2316 H   0  0  0  0  0  0  0  0  0  0  0  0
   58.3227   31.4796   41.2316 H   0  0  0  0  0  0  0  0  0  0  0  0
   59.5835   35.4904   44.3811 H   0  0  0  0  0  0  0  0  0  0  0  0
   60.1573   35.9757   46.7624 H   0  0  0  0  0  0  0  0  0  0  0  0
   59.5711   34.3220   48.5387 H   0  0  0  0  0  0  0  0  0  0  0  0
   58.4185   32.1983   47.9181 H   0  0  0  0  0  0  0  0  0  0  0  0
   59.6163   29.1167   45.7062 H   0  0  0  0  0  0  0  0  0  0  0  0
  1  2  1  0
  2  3  2  0
  3  4  1  0
  4  5  1  0
  4  6  2  0
  6  7  1  0
  7  8  1  0
  8  9  1  0
  9 10  2  0
  9 11  2  0
  9 12  1  0
 12 13  2  0
 13 14  1  0
 13 15  1  0
 15 16  2  0
 16 17  1  0
 17 18  2  0
 18 19  1  0
 19 20  2  0
 20 21  1  0
 21 22  1  0
 22 23  2  0
  7 24  2  0
 24  2  1  0
 22 12  1  0
 21 16  1  0
  1 25  1  0
  1 26  1  0
  1 27  1  0
  3 28  1  0
  5 29  1  0
  5 30  1  0
  5 31  1  0
  6 32  1  0
 14 33  1  0
 14 34  1  0
 14 35  1  0
 17 36  1  0
 18 37  1  0
 19 38  1  0
 20 39  1  0
 24 40  1  0
M  CHG  1   8  -1
M  END
>  <UniqueID>  (65) 
64

>  <SMILES>  (65) 
Cc1cc(C)cc([N-]S(=O)(=O)c2c(C)nc3ccccn3c2=O)c1

>  <Energy>  (65) 
51.48131137849325

>  <Genealogy>  (65) 
Cc1cc(C)cc([N-]S(=O)(=O)c2c(C)nc3ccccn3c2=O)c1 (protonated)
Cc1cc(C)cc([N-]S(=O)(=O)c2c(C)nc3ccccn3c2=O)c1 (3D coordinates assigned)
Cc1cc(C)cc([N-]S(=O)(=O)c2c(C)nc3ccccn3c2=O)c1 (optimized conformer: 51.48131137849325 kcal/mol)

>  <smiles>  (65) 
Cc1cc(C)cc(NS(=O)(=O)c2c(C)nc3ccccn3c2=O)c1

>  <score_type>  (65) 
oracle

>  <origin>  (65) 
adg

>  <m_score__min__energy>  (65) 
-9.9600000000000009

>  <m_primary>  (65) 
energy

$$$$
65:0
     RDKit          3D

 39 40  0  0  0  0  0  0  0  0999 V2000
   55.4610   29.4630   45.0530 O   0  0  0  0  0  0  0  0  0  0  0  0
   56.5380   28.8770   44.7590 C   0  0  0  0  0  0  0  0  0  0  0  0
   57.3310   29.3500   43.5700 C   0  0  0  0  0  0  0  0  0  0  0  0
   56.8550   30.7150   43.0380 C   0  0  0  0  0  0  0  0  0  0  0  0
   57.6960   31.9040   43.5390 C   0  0  0  0  0  0  0  0  0  0  0  0
   57.5780   32.1280   45.0580 C   0  0  0  0  0  0  0  0  0  0  0  0
   57.3400   33.6100   45.4170 C   0  0  0  0  0  0  0  0  0  0  0  0
   58.5880   34.4930   45.2410 C   0  0  0  0  0  0  0  0  0  0  0  0
   59.6010   34.2880   46.3360 C   0  0  0  0  0  0  0  0  0  0  0  0
   60.8960   33.8400   46.0270 C   0  0  0  0  0  0  0  0  0  0  0  0
   61.8250   33.6130   47.0470 C   0  0  0  0  0  0  0  0  0  0  0  0
   61.4680   33.8330   48.3810 C   0  0  0  0  0  0  0  0  0  0  0  0
   60.1830   34.2810   48.6960 C   0  0  0  0  0  0  0  0  0  0  0  0
   59.2510   34.5080   47.6780 C   0  0  0  0  0  0  0  0  0  0  0  0
   56.9700   27.7200   45.5690 C   0  0  0  0  0  0  0  0  0  0  0  0
   58.2390   27.4320   45.9090 N   0  0  0  0  0  0  0  0  0  0  0  0
   58.1520   26.2980   46.6310 C   0  0  0  0  0  0  0  0  0  0  0  0
   59.1540   25.7200   47.1250 O   0  0  0  0  0  0  0  0  0  0  0  0
   56.8920   25.8320   46.7770 N   0  0  0  0  0  0  0  0  0  0  0  0
   56.1590   26.7380   46.1000 C   0  0  0  0  0  0  0  0  0  0  0  0
   54.7770   26.6700   45.9800 O   0  0  0  0  0  0  0  0  0  0  0  0
   58.3873   29.4368   43.8644 H   0  0  0  0  0  0  0  0  0  0  0  0
   57.1902   28.6140   42.7647 H   0  0  0  0  0  0  0  0  0  0  0  0
   56.9026   30.6949   41.9392 H   0  0  0  0  0  0  0  0  0  0  0  0
   55.8316   30.8658   43.4119 H   0  0  0  0  0  0  0  0  0  0  0  0
   58.7515   31.7146   43.2937 H   0  0  0  0  0  0  0  0  0  0  0  0
   57.3145   32.8086   43.0428 H   0  0  0  0  0  0  0  0  0  0  0  0
   56.7351   31.5325   45.4385 H   0  0  0  0  0  0  0  0  0  0  0  0
   58.5288   31.8199   45.5175 H   0  0  0  0  0  0  0  0  0  0  0  0
   56.5424   34.0015   44.7685 H   0  0  0  0  0  0  0  0  0  0  0  0
   57.0670   33.6448   46.4820 H   0  0  0  0  0  0  0  0  0  0  0  0
   59.0579   34.2507   44.2764 H   0  0  0  0  0  0  0  0  0  0  0  0
   58.2619   35.5428   45.2809 H   0  0  0  0  0  0  0  0  0  0  0  0
   61.1803   33.6671   44.9785 H   0  0  0  0  0  0  0  0  0  0  0  0
   62.8375   33.2611   46.7999 H   0  0  0  0  0  0  0  0  0  0  0  0
   62.1994   33.6532   49.1827 H   0  0  0  0  0  0  0  0  0  0  0  0
   59.9038   34.4554   49.7456 H   0  0  0  0  0  0  0  0  0  0  0  0
   58.2398   34.8603   47.9297 H   0  0  0  0  0  0  0  0  0  0  0  0
   59.1120   27.9480   45.6600 H   0  0  0  0  0  0  0  0  0  0  0  0
  1  2  2  0
  2  3  1  0
  3  4  1  0
  4  5  1  0
  5  6  1  0
  6  7  1  0
  7  8  1  0
  8  9  1  0
  9 10  2  0
 10 11  1  0
 11 12  2  0
 12 13  1  0
 13 14  2  0
  2 15  1  0
 15 16  1  0
 16 17  1  0
 17 18  2  0
 17 19  1  0
 19 20  1  0
 20 21  1  0
 14  9  1  0
 20 15  2  0
  3 22  1  0
  3 23  1  0
  4 24  1  0
  4 25  1  0
  5 26  1  0
  5 27  1  0
  6 28  1  0
  6 29  1  0
  7 30  1  0
  7 31  1  0
  8 32  1  0
  8 33  1  0
 10 34  1  0
 11 35  1  0
 12 36  1  0
 13 37  1  0
 14 38  1  0
 16 39  1  0
M  CHG  2  19  -1  21  -1
M  END
>  <UniqueID>  (66) 
65

>  <SMILES>  (66) 
O=C(CCCCCCc1ccccc1)c1[nH]c(=O)[n-]c1[O-]

>  <Energy>  (66) 
61.06229935735906

>  <Genealogy>  (66) 
O=C(CCCCCCc1ccccc1)c1[nH]c(=O)[n-]c1[O-] (protonated)
O=C(CCCCCCc1ccccc1)c1[nH]c(=O)[n-]c1[O-] (3D coordinates assigned)
O=C(CCCCCCc1ccccc1)c1[nH]c(=O)[n-]c1[O-] (optimized conformer: 61.06229935735906 kcal/mol)

>  <smiles>  (66) 
O=C(CCCCCCc1ccccc1)c1[nH]c(=O)[nH]c1O

>  <score_type>  (66) 
oracle

>  <origin>  (66) 
adg

>  <m_score__min__energy>  (66) 
-13.449999999999999

>  <m_primary>  (66) 
energy

$$$$
66:0
     RDKit          3D

 38 40  0  0  0  0  0  0  0  0999 V2000
   54.1694   29.5890   55.0081 H   0  0  0  0  0  0  0  0  0  0  0  0
   54.1190   29.4510   53.9180 C   0  0  0  0  0  0  0  0  0  0  0  0
   55.3990   29.3970   53.1840 C   0  0  0  0  0  0  0  0  0  0  0  0
   56.2990   28.5810   53.5230 O   0  0  0  0  0  0  0  0  0  0  0  0
   55.5610   30.2400   52.0320 N   0  0  0  0  0  0  0  0  0  0  0  0
   56.6540   30.8060   51.6110 C   0  0  0  0  0  0  0  0  0  0  0  0
   57.5720   30.1300   50.8860 N   0  0  0  0  0  0  0  0  0  0  0  0
   58.6310   30.9140   50.5480 C   0  0  0  0  0  0  0  0  0  0  0  0
   59.4855   30.5378   49.9664 H   0  0  0  0  0  0  0  0  0  0  0  0
   58.5490   32.2280   50.9950 C   0  0  0  0  0  0  0  0  0  0  0  0
   59.6020   33.2770   50.8330 C   0  0  0  0  0  0  0  0  0  0  0  0
   59.2122   34.2421   51.1889 H   0  0  0  0  0  0  0  0  0  0  0  0
   60.4877   32.9923   51.4199 H   0  0  0  0  0  0  0  0  0  0  0  0
   59.9890   33.4000   49.3850 C   0  0  0  0  0  0  0  0  0  0  0  0
   59.0050   33.6010   48.4030 C   0  0  0  0  0  0  0  0  0  0  0  0
   57.9438   33.6397   48.6901 H   0  0  0  0  0  0  0  0  0  0  0  0
   59.3700   33.7520   47.0620 C   0  0  0  0  0  0  0  0  0  0  0  0
   58.5950   33.9010   46.2957 H   0  0  0  0  0  0  0  0  0  0  0  0
   60.7170   33.7140   46.6930 C   0  0  0  0  0  0  0  0  0  0  0  0
   61.0010   33.8312   45.6368 H   0  0  0  0  0  0  0  0  0  0  0  0
   61.7050   33.5270   47.6660 C   0  0  0  0  0  0  0  0  0  0  0  0
   63.3960   33.4910   47.2040 Cl  0  0  0  0  0  0  0  0  0  0  0  0
   61.3430   33.3750   49.0100 C   0  0  0  0  0  0  0  0  0  0  0  0
   62.1211   33.2355   49.7749 H   0  0  0  0  0  0  0  0  0  0  0  0
   57.1200   32.4110   51.8650 S   0  0  0  0  0  0  0  0  0  0  0  0
   52.8990   29.3460   53.3680 C   0  0  0  0  0  0  0  0  0  0  0  0
   52.2480   28.5393   53.7360 H   0  0  0  0  0  0  0  0  0  0  0  0
   52.3570   30.2240   52.3090 C   0  0  0  0  0  0  0  0  0  0  0  0
   52.3390   29.8150   50.9630 C   0  0  0  0  0  0  0  0  0  0  0  0
   52.7660   28.8416   50.6800 H   0  0  0  0  0  0  0  0  0  0  0  0
   51.7800   30.6420   49.9840 C   0  0  0  0  0  0  0  0  0  0  0  0
   51.7847   30.3261   48.9303 H   0  0  0  0  0  0  0  0  0  0  0  0
   51.2150   31.8700   50.3420 C   0  0  0  0  0  0  0  0  0  0  0  0
   50.6620   32.6890   49.3640 O   0  0  0  0  0  0  0  0  0  0  0  0
   51.2030   32.2690   51.6840 C   0  0  0  0  0  0  0  0  0  0  0  0
   50.6330   33.4850   52.0470 O   0  0  0  0  0  0  0  0  0  0  0  0
   51.7630   31.4430   52.6650 C   0  0  0  0  0  0  0  0  0  0  0  0
   51.7370   31.7516   53.7205 H   0  0  0  0  0  0  0  0  0  0  0  0
  1  2  1  0
  2  3  1  0
  3  4  2  0
  3  5  1  0
  5  6  2  0
  6  7  1  0
  7  8  1  0
  8  9  1  0
  8 10  2  0
 10 11  1  0
 11 12  1  0
 11 13  1  0
 11 14  1  0
 14 15  2  0
 15 16  1  0
 15 17  1  0
 17 18  1  0
 17 19  2  0
 19 20  1  0
 19 21  1  0
 21 22  1  0
 21 23  2  0
 23 24  1  0
 10 25  1  0
  2 26  2  3
 26 27  1  0
 26 28  1  0
 28 29  2  0
 29 30  1  0
 29 31  1  0
 31 32  1  0
 31 33  2  0
 33 34  1  0
 33 35  1  0
 35 36  1  0
 35 37  2  0
 37 38  1  0
 25  6  1  0
 37 28  1  0
 23 14  1  0
M  CHG  3   7  -1  34  -1  36  -1
M  END
>  <UniqueID>  (67) 
66

>  <SMILES>  (67) 
O=C(C=Cc1ccc([O-])c([O-])c1)/N=c1/[n-]cc(Cc2cccc(Cl)c2)s1

>  <Energy>  (67) 
79.88028719253779

>  <Genealogy>  (67) 
O=C(C=Cc1ccc([O-])c([O-])c1)N=c1[n-]cc(Cc2cccc(Cl)c2)s1 (protonated)
O=C(C=Cc1ccc([O-])c([O-])c1)/N=c1/[n-]cc(Cc2cccc(Cl)c2)s1 (cis-trans isomerization)
O=C(C=Cc1ccc([O-])c([O-])c1)/N=c1/[n-]cc(Cc2cccc(Cl)c2)s1 (3D coordinates assigned)
O=C(C=Cc1ccc([O-])c([O-])c1)/N=c1/[n-]cc(Cc2cccc(Cl)c2)s1 (optimized conformer: 79.88028719253779 kcal/mol)

>  <smiles>  (67) 
O=C(C=Cc1ccc(O)c(O)c1)N=c1[nH]cc(Cc2cccc(Cl)c2)s1

>  <score_type>  (67) 
oracle

>  <origin>  (67) 
adg

>  <m_score__min__energy>  (67) 
-19.039999999999999

>  <m_primary>  (67) 
energy

$$$$
67:0
     RDKit          3D

 44 46  0  0  0  0  0  0  0  0999 V2000
   54.3140   26.7230   46.7450 H   0  0  0  0  0  0  0  0  0  0  0  0
   54.9100   26.3590   46.0100 O   0  0  0  0  0  0  0  0  0  0  0  0
   55.9220   25.4410   46.2820 C   0  0  0  0  0  0  0  0  0  0  0  0
   55.8370   24.5140   47.2490 N   0  0  0  0  0  0  0  0  0  0  0  0
   57.0360   23.8990   47.1810 C   0  0  0  0  0  0  0  0  0  0  0  0
   57.3570   22.9520   47.9460 O   0  0  0  0  0  0  0  0  0  0  0  0
   57.8680   24.3830   46.2330 N   0  0  0  0  0  0  0  0  0  0  0  0
   57.1420   25.3480   45.6460 C   0  0  0  0  0  0  0  0  0  0  0  0
   57.6700   26.2350   44.6020 C   0  0  0  0  0  0  0  0  0  0  0  0
   57.6599   25.8532   43.5704 H   0  0  0  0  0  0  0  0  0  0  0  0
   58.1660   27.4740   44.7910 C   0  0  0  0  0  0  0  0  0  0  0  0
   57.6180   28.5910   44.1860 C   0  0  0  0  0  0  0  0  0  0  0  0
   56.7354   28.6130   43.5299 H   0  0  0  0  0  0  0  0  0  0  0  0
   58.3870   29.6700   44.5610 C   0  0  0  0  0  0  0  0  0  0  0  0
   58.1360   31.0800   44.1150 C   0  0  0  0  0  0  0  0  0  0  0  0
   58.0206   31.7282   44.9962 H   0  0  0  0  0  0  0  0  0  0  0  0
   58.9859   31.4303   43.5109 H   0  0  0  0  0  0  0  0  0  0  0  0
   57.2174   31.1155   43.5109 H   0  0  0  0  0  0  0  0  0  0  0  0
   59.3830   29.2810   45.3920 N   0  0  0  0  0  0  0  0  0  0  0  0
   60.3270   30.1870   46.0680 C   0  0  0  0  0  0  0  0  0  0  0  0
   61.3556   29.8699   45.8411 H   0  0  0  0  0  0  0  0  0  0  0  0
   60.1517   31.2108   45.7060 H   0  0  0  0  0  0  0  0  0  0  0  0
   60.1180   30.1620   47.5830 C   0  0  0  0  0  0  0  0  0  0  0  0
   59.0455   30.0525   47.8016 H   0  0  0  0  0  0  0  0  0  0  0  0
   60.6728   29.3144   48.0116 H   0  0  0  0  0  0  0  0  0  0  0  0
   60.5930   31.3670   48.1540 O   0  0  0  0  0  0  0  0  0  0  0  0
   59.5300   32.2400   48.4810 C   0  0  0  0  0  0  0  0  0  0  0  0
   58.6892   31.6555   48.8828 H   0  0  0  0  0  0  0  0  0  0  0  0
   59.8756   32.9632   49.2343 H   0  0  0  0  0  0  0  0  0  0  0  0
   59.0780   32.9840   47.2530 C   0  0  0  0  0  0  0  0  0  0  0  0
   60.0000   33.7430   46.5130 C   0  0  0  0  0  0  0  0  0  0  0  0
   61.0598   33.7555   46.8075 H   0  0  0  0  0  0  0  0  0  0  0  0
   59.5780   34.4820   45.4050 C   0  0  0  0  0  0  0  0  0  0  0  0
   60.3059   35.0694   44.8261 H   0  0  0  0  0  0  0  0  0  0  0  0
   58.2310   34.4750   45.0320 C   0  0  0  0  0  0  0  0  0  0  0  0
   57.8991   35.0583   44.1604 H   0  0  0  0  0  0  0  0  0  0  0  0
   57.3060   33.7280   45.7650 C   0  0  0  0  0  0  0  0  0  0  0  0
   56.2461   33.7246   45.4708 H   0  0  0  0  0  0  0  0  0  0  0  0
   57.7260   32.9840   46.8730 C   0  0  0  0  0  0  0  0  0  0  0  0
   56.9948   32.3972   47.4483 H   0  0  0  0  0  0  0  0  0  0  0  0
   59.2460   27.9370   45.5660 C   0  0  0  0  0  0  0  0  0  0  0  0
   59.9780   27.2220   46.4360 C   0  0  0  0  0  0  0  0  0  0  0  0
   60.8020   27.7008   46.9853 H   0  0  0  0  0  0  0  0  0  0  0  0
   59.7535   26.1576   46.5993 H   0  0  0  0  0  0  0  0  0  0  0  0
  1  2  1  0
  2  3  1  0
  3  4  1  0
  4  5  1  0
  5  6  2  0
  5  7  1  0
  7  8  1  0
  8  9  1  0
  9 10  1  0
  9 11  2  0
 11 12  1  0
 12 13  1  0
 12 14  2  0
 14 15  1  0
 15 16  1  0
 15 17  1  0
 15 18  1  0
 14 19  1  0
 19 20  1  0
 20 21  1  0
 20 22  1  0
 20 23  1  0
 23 24  1  0
 23 25  1  0
 23 26  1  0
 26 27  1  0
 27 28  1  0
 27 29  1  0
 27 30  1  0
 30 31  2  0
 31 32  1  0
 31 33  1  0
 33 34  1  0
 33 35  2  0
 35 36  1  0
 35 37  1  0
 37 38  1  0
 37 39  2  0
 39 40  1  0
 19 41  1  0
 41 42  2  0
 42 43  1  0
 42 44  1  0
  8  3  2  0
 41 11  1  0
 39 30  1  0
M  CHG  2   4  -1   7  -1
M  END
>  <UniqueID>  (68) 
67

>  <SMILES>  (68) 
C=c1/c(=C\c2[n-]c(=O)[n-]c2O)cc(C)n1CCOCc1ccccc1

>  <Energy>  (68) 
109.47803086025962

>  <Genealogy>  (68) 
C=c1c(=Cc2[n-]c(=O)[n-]c2O)cc(C)n1CCOCc1ccccc1 (protonated)
C=c1/c(=C\c2[n-]c(=O)[n-]c2O)cc(C)n1CCOCc1ccccc1 (cis-trans isomerization)
C=c1/c(=C\c2[n-]c(=O)[n-]c2O)cc(C)n1CCOCc1ccccc1 (3D coordinates assigned)
C=c1/c(=C\c2[n-]c(=O)[n-]c2O)cc(C)n1CCOCc1ccccc1 (optimized conformer: 109.47803086025962 kcal/mol)

>  <smiles>  (68) 
C=c1c(=Cc2[nH]c(=O)[nH]c2O)cc(C)n1CCOCc1ccccc1

>  <score_type>  (68) 
oracle

>  <origin>  (68) 
adg

>  <m_score__min__energy>  (68) 
-12.59

>  <m_primary>  (68) 
energy

$$$$
68:0
     RDKit          3D

 49 52  0  0  0  0  0  0  0  0999 V2000
   57.5500   25.8500   47.3930 O   0  0  0  0  0  0  0  0  0  0  0  0
   58.1830   26.8700   47.0080 C   0  0  0  0  0  0  0  0  0  0  0  0
   59.5670   27.0220   47.3560 N   0  0  0  0  0  0  0  0  0  0  0  0
   60.0890   27.6550   48.5330 C   0  0  0  0  0  0  0  0  0  0  0  0
   60.6150   26.9140   49.6060 C   0  0  0  0  0  0  0  0  0  0  0  0
   61.1490   27.5700   50.7170 C   0  0  0  0  0  0  0  0  0  0  0  0
   61.1700   28.9650   50.7660 C   0  0  0  0  0  0  0  0  0  0  0  0
   60.6530   29.7210   49.7010 C   0  0  0  0  0  0  0  0  0  0  0  0
   60.6960   31.1990   49.7500 C   0  0  0  0  0  0  0  0  0  0  0  0
   59.7370   31.8200   50.2850 O   0  0  0  0  0  0  0  0  0  0  0  0
   61.7980   31.9440   49.1940 N   0  0  0  0  0  0  0  0  0  0  0  0
   62.2980   33.1450   49.8680 C   0  0  0  0  0  0  0  0  0  0  0  0
   62.6650   34.2050   48.8250 C   0  0  0  0  0  0  0  0  0  0  0  0
   63.5350   33.6690   47.8460 O   0  0  0  0  0  0  0  0  0  0  0  0
   62.8670   32.6600   47.1110 C   0  0  0  0  0  0  0  0  0  0  0  0
   62.5240   31.4700   48.0120 C   0  0  0  0  0  0  0  0  0  0  0  0
   60.1360   29.0540   48.5770 C   0  0  0  0  0  0  0  0  0  0  0  0
   57.4910   27.9380   46.2390 C   0  0  0  0  0  0  0  0  0  0  0  0
   58.0850   29.2050   46.1080 C   0  0  0  0  0  0  0  0  0  0  0  0
   57.4510   30.2280   45.3880 C   0  0  0  0  0  0  0  0  0  0  0  0
   58.0950   31.5600   45.2710 C   0  0  0  0  0  0  0  0  0  0  0  0
   58.0820   32.2450   44.0430 C   0  0  0  0  0  0  0  0  0  0  0  0
   58.6760   33.5050   43.9300 C   0  0  0  0  0  0  0  0  0  0  0  0
   59.2880   34.0930   45.0390 C   0  0  0  0  0  0  0  0  0  0  0  0
   59.3060   33.4230   46.2640 C   0  0  0  0  0  0  0  0  0  0  0  0
   58.7130   32.1620   46.3860 C   0  0  0  0  0  0  0  0  0  0  0  0
   58.7630   31.5200   47.5810 F   0  0  0  0  0  0  0  0  0  0  0  0
   56.2050   29.9580   44.7960 C   0  0  0  0  0  0  0  0  0  0  0  0
   55.6060   30.8410   44.1230 O   0  0  0  0  0  0  0  0  0  0  0  0
   55.6420   28.7310   44.9300 N   0  0  0  0  0  0  0  0  0  0  0  0
   56.2380   27.7270   45.6240 C   0  0  0  0  0  0  0  0  0  0  0  0
   55.5890   26.5020   45.7130 O   0  0  0  0  0  0  0  0  0  0  0  0
   60.6058   25.8146   49.5701 H   0  0  0  0  0  0  0  0  0  0  0  0
   61.5544   26.9857   51.5562 H   0  0  0  0  0  0  0  0  0  0  0  0
   61.5938   29.4751   51.6436 H   0  0  0  0  0  0  0  0  0  0  0  0
   61.5182   33.5420   50.5346 H   0  0  0  0  0  0  0  0  0  0  0  0
   63.1907   32.8881   50.4572 H   0  0  0  0  0  0  0  0  0  0  0  0
   61.7469   34.5613   48.3349 H   0  0  0  0  0  0  0  0  0  0  0  0
   63.1762   35.0361   49.3329 H   0  0  0  0  0  0  0  0  0  0  0  0
   61.9385   33.0742   46.6910 H   0  0  0  0  0  0  0  0  0  0  0  0
   63.5297   32.3130   46.3045 H   0  0  0  0  0  0  0  0  0  0  0  0
   61.8950   30.7589   47.4563 H   0  0  0  0  0  0  0  0  0  0  0  0
   63.4517   30.9705   48.3280 H   0  0  0  0  0  0  0  0  0  0  0  0
   59.7640   29.6376   47.7220 H   0  0  0  0  0  0  0  0  0  0  0  0
   59.0613   29.3970   46.5770 H   0  0  0  0  0  0  0  0  0  0  0  0
   57.6015   31.7864   43.1662 H   0  0  0  0  0  0  0  0  0  0  0  0
   58.6614   34.0344   42.9659 H   0  0  0  0  0  0  0  0  0  0  0  0
   59.7560   35.0843   44.9475 H   0  0  0  0  0  0  0  0  0  0  0  0
   59.7882   33.8885   47.1362 H   0  0  0  0  0  0  0  0  0  0  0  0
  1  2  2  0
  2  3  1  0
  3  4  1  0
  4  5  2  0
  5  6  1  0
  6  7  2  0
  7  8  1  0
  8  9  1  0
  9 10  2  0
  9 11  1  0
 11 12  1  0
 12 13  1  0
 13 14  1  0
 14 15  1  0
 15 16  1  0
  8 17  2  0
  2 18  1  0
 18 19  1  0
 19 20  2  0
 20 21  1  0
 21 22  2  0
 22 23  1  0
 23 24  2  0
 24 25  1  0
 25 26  2  0
 26 27  1  0
 20 28  1  0
 28 29  2  0
 28 30  1  0
 30 31  1  0
 31 32  1  0
 17  4  1  0
 31 18  2  0
 16 11  1  0
 26 21  1  0
  5 33  1  0
  6 34  1  0
  7 35  1  0
 12 36  1  0
 12 37  1  0
 13 38  1  0
 13 39  1  0
 15 40  1  0
 15 41  1  0
 16 42  1  0
 16 43  1  0
 17 44  1  0
 19 45  1  0
 22 46  1  0
 23 47  1  0
 24 48  1  0
 25 49  1  0
M  CHG  3   3  -1  30  -1  32  -1
M  END
>  <UniqueID>  (69) 
68

>  <SMILES>  (69) 
O=C([N-]c1cccc(C(=O)N2CCOCC2)c1)c1cc(-c2ccccc2F)c(=O)[n-]c1[O-]

>  <Energy>  (69) 
74.03262167162794

>  <Genealogy>  (69) 
O=C([N-]c1cccc(C(=O)N2CCOCC2)c1)c1cc(-c2ccccc2F)c(=O)[n-]c1[O-] (protonated)
O=C([N-]c1cccc(C(=O)N2CCOCC2)c1)c1cc(-c2ccccc2F)c(=O)[n-]c1[O-] (3D coordinates assigned)
O=C([N-]c1cccc(C(=O)N2CCOCC2)c1)c1cc(-c2ccccc2F)c(=O)[n-]c1[O-] (nonaromatic ring conformer: 74.03262167162794 kcal/mol)

>  <smiles>  (69) 
O=C(Nc1cccc(C(=O)N2CCOCC2)c1)c1cc(-c2ccccc2F)c(=O)[nH]c1O

>  <score_type>  (69) 
oracle

>  <origin>  (69) 
adg

>  <m_score__min__energy>  (69) 
-14.550000000000001

>  <m_primary>  (69) 
energy

$$$$
69:0
     RDKit          3D

 34 36  0  0  0  0  0  0  0  0999 V2000
   58.5020   26.7380   45.2540 C   0  0  0  0  0  0  0  0  0  0  0  0
   57.2470   27.4530   45.6430 C   0  0  0  0  0  0  0  0  0  0  0  0
   56.3110   26.8020   46.1790 O   0  0  0  0  0  0  0  0  0  0  0  0
   57.0740   28.9010   45.4170 C   0  0  0  0  0  0  0  0  0  0  0  0
   58.0230   29.8120   45.7000 N   0  0  0  0  0  0  0  0  0  0  0  0
   57.4660   30.9950   45.3490 C   0  0  0  0  0  0  0  0  0  0  0  0
   58.1640   32.2920   45.4890 C   0  0  0  0  0  0  0  0  0  0  0  0
   57.8340   33.3720   44.6540 C   0  0  0  0  0  0  0  0  0  0  0  0
   58.4970   34.5950   44.7880 C   0  0  0  0  0  0  0  0  0  0  0  0
   59.4910   34.7550   45.7550 C   0  0  0  0  0  0  0  0  0  0  0  0
   59.8310   33.6870   46.6020 C   0  0  0  0  0  0  0  0  0  0  0  0
   60.8430   33.8050   47.6110 N   0  0  0  0  0  0  0  0  0  0  0  0
   62.5260   33.4450   47.3990 S   0  0  0  0  0  0  0  0  0  0  0  0
   63.3420   34.2530   48.3700 O   0  0  0  0  0  0  0  0  0  0  0  0
   62.9210   33.8320   46.0010 O   0  0  0  0  0  0  0  0  0  0  0  0
   62.7910   31.6830   47.5990 C   0  0  0  0  0  0  0  0  0  0  0  0
   61.8820   31.0450   48.6370 C   0  0  0  0  0  0  0  0  0  0  0  0
   61.6510   30.7760   47.1600 C   0  0  0  0  0  0  0  0  0  0  0  0
   59.1660   32.4610   46.4610 C   0  0  0  0  0  0  0  0  0  0  0  0
   56.2100   30.8790   44.8580 N   0  0  0  0  0  0  0  0  0  0  0  0
   55.9770   29.5590   44.9060 C   0  0  0  0  0  0  0  0  0  0  0  0
   54.7860   28.9760   44.4920 O   0  0  0  0  0  0  0  0  0  0  0  0
   59.0440   26.4292   46.1601 H   0  0  0  0  0  0  0  0  0  0  0  0
   58.2479   25.8491   44.6579 H   0  0  0  0  0  0  0  0  0  0  0  0
   59.1371   27.4099   44.6579 H   0  0  0  0  0  0  0  0  0  0  0  0
   57.0502   33.2548   43.8911 H   0  0  0  0  0  0  0  0  0  0  0  0
   58.2344   35.4353   44.1285 H   0  0  0  0  0  0  0  0  0  0  0  0
   60.0095   35.7201   45.8541 H   0  0  0  0  0  0  0  0  0  0  0  0
   63.8716   31.7069   47.3946 H   0  0  0  0  0  0  0  0  0  0  0  0
   62.2666   30.2459   49.2878 H   0  0  0  0  0  0  0  0  0  0  0  0
   61.2629   31.4215   49.4646 H   0  0  0  0  0  0  0  0  0  0  0  0
   61.8687   29.7824   46.7413 H   0  0  0  0  0  0  0  0  0  0  0  0
   60.7960   30.8772   46.4753 H   0  0  0  0  0  0  0  0  0  0  0  0
   59.4314   31.6205   47.1191 H   0  0  0  0  0  0  0  0  0  0  0  0
  1  2  1  0
  2  3  2  0
  2  4  1  0
  4  5  1  0
  5  6  1  0
  6  7  1  0
  7  8  2  0
  8  9  1  0
  9 10  2  0
 10 11  1  0
 11 12  1  0
 12 13  1  0
 13 14  2  0
 13 15  2  0
 13 16  1  0
 16 17  1  0
 17 18  1  0
 11 19  2  0
  6 20  2  0
 20 21  1  0
 21 22  1  0
 21  4  2  0
 19  7  1  0
 18 16  1  0
  1 23  1  0
  1 24  1  0
  1 25  1  0
  8 26  1  0
  9 27  1  0
 10 28  1  0
 16 29  1  0
 17 30  1  0
 17 31  1  0
 18 32  1  0
 18 33  1  0
 19 34  1  0
M  CHG  3   5  -1  12  -1  22  -1
M  END
>  <UniqueID>  (70) 
69

>  <SMILES>  (70) 
CC(=O)c1[n-]c(-c2cccc([N-]S(=O)(=O)C3CC3)c2)nc1[O-]

>  <Energy>  (70) 
327.80688613851504

>  <Genealogy>  (70) 
CC(=O)c1[n-]c(-c2cccc([N-]S(=O)(=O)C3CC3)c2)nc1[O-] (protonated)
CC(=O)c1[n-]c(-c2cccc([N-]S(=O)(=O)C3CC3)c2)nc1[O-] (3D coordinates assigned)
CC(=O)c1[n-]c(-c2cccc([N-]S(=O)(=O)C3CC3)c2)nc1[O-] (nonaromatic ring conformer: 327.80688613851504 kcal/mol)

>  <smiles>  (70) 
CC(=O)c1[nH]c(-c2cccc(NS(=O)(=O)C3CC3)c2)nc1O

>  <score_type>  (70) 
oracle

>  <origin>  (70) 
adg

>  <m_score__min__energy>  (70) 
-13.710000000000001

>  <m_primary>  (70) 
energy

$$$$
70:0
     RDKit          3D

 34 35  0  0  0  0  0  0  0  0999 V2000
   58.0640   26.8340   43.6070 C   0  0  0  0  0  0  0  0  0  0  0  0
   57.7000   27.5760   44.6210 C   0  0  0  0  0  0  0  0  0  0  0  0
   57.5700   29.0090   44.6680 C   0  0  0  0  0  0  0  0  0  0  0  0
   56.3920   29.7080   44.6110 C   0  0  0  0  0  0  0  0  0  0  0  0
   55.1850   29.0470   44.4970 O   0  0  0  0  0  0  0  0  0  0  0  0
   56.3310   31.0640   44.6600 N   0  0  0  0  0  0  0  0  0  0  0  0
   57.4670   31.7580   44.7690 C   0  0  0  0  0  0  0  0  0  0  0  0
   57.3660   33.5510   44.8330 S   0  0  0  0  0  0  0  0  0  0  0  0
   59.0330   34.2130   44.8480 C   0  0  0  0  0  0  0  0  0  0  0  0
   59.6810   34.2170   46.1660 C   0  0  0  0  0  0  0  0  0  0  0  0
   59.0600   34.5800   47.3430 C   0  0  0  0  0  0  0  0  0  0  0  0
   59.7120   34.5690   48.5670 C   0  0  0  0  0  0  0  0  0  0  0  0
   61.0380   34.1780   48.5960 C   0  0  0  0  0  0  0  0  0  0  0  0
   61.7870   34.1280   49.7630 O   0  0  0  0  0  0  0  0  0  0  0  0
   63.1410   33.7980   49.8360 C   0  0  0  0  0  0  0  0  0  0  0  0
   61.6940   33.8050   47.4310 C   0  0  0  0  0  0  0  0  0  0  0  0
   61.0040   33.8330   46.2390 C   0  0  0  0  0  0  0  0  0  0  0  0
   58.6570   31.1360   44.8300 N   0  0  0  0  0  0  0  0  0  0  0  0
   58.7240   29.7940   44.7820 C   0  0  0  0  0  0  0  0  0  0  0  0
   59.8690   29.2810   44.8440 O   0  0  0  0  0  0  0  0  0  0  0  0
   58.1194   25.7409   43.7172 H   0  0  0  0  0  0  0  0  0  0  0  0
   58.3147   27.3031   42.6442 H   0  0  0  0  0  0  0  0  0  0  0  0
   57.4644   27.0392   45.5518 H   0  0  0  0  0  0  0  0  0  0  0  0
   55.1460   28.1110   44.9130 H   0  0  0  0  0  0  0  0  0  0  0  0
   55.4090   31.5520   44.6130 H   0  0  0  0  0  0  0  0  0  0  0  0
   59.6480   33.6076   44.1659 H   0  0  0  0  0  0  0  0  0  0  0  0
   58.9515   35.2656   44.5392 H   0  0  0  0  0  0  0  0  0  0  0  0
   58.0053   34.8907   47.3094 H   0  0  0  0  0  0  0  0  0  0  0  0
   59.1889   34.8631   49.4889 H   0  0  0  0  0  0  0  0  0  0  0  0
   63.4440   33.7241   50.8908 H   0  0  0  0  0  0  0  0  0  0  0  0
   63.3104   32.8323   49.3373 H   0  0  0  0  0  0  0  0  0  0  0  0
   63.7358   34.5775   49.3373 H   0  0  0  0  0  0  0  0  0  0  0  0
   62.7482   33.4920   47.4591 H   0  0  0  0  0  0  0  0  0  0  0  0
   61.5248   33.5397   45.3156 H   0  0  0  0  0  0  0  0  0  0  0  0
  1  2  2  0
  2  3  1  0
  3  4  2  0
  4  5  1  0
  4  6  1  0
  6  7  1  0
  7  8  1  0
  8  9  1  0
  9 10  1  0
 10 11  2  0
 11 12  1  0
 12 13  2  0
 13 14  1  0
 14 15  1  0
 13 16  1  0
 16 17  2  0
  7 18  2  0
 18 19  1  0
 19 20  2  0
 19  3  1  0
 17 10  1  0
  1 21  1  0
  1 22  1  0
  2 23  1  0
  5 24  1  0
  6 25  1  0
  9 26  1  0
  9 27  1  0
 11 28  1  0
 12 29  1  0
 15 30  1  0
 15 31  1  0
 15 32  1  0
 16 33  1  0
 17 34  1  0
M  END
>  <smiles>  (71) 
C=Cc1c(O)[nH]c(SCc2ccc(OC)cc2)nc1=O

>  <score_type>  (71) 
oracle

>  <origin>  (71) 
adg

>  <m_score__min__energy>  (71) 
-7.4800000000000004

>  <m_primary>  (71) 
energy

$$$$
71:0
     RDKit          3D

 50 53  0  0  0  0  0  0  0  0999 V2000
   58.1365   27.0680   47.8527 H   0  0  0  0  0  0  0  0  0  0  0  0
   57.6810   26.1930   47.3660 C   0  0  0  0  0  0  0  0  0  0  0  0
   57.3050   25.3582   47.9756 H   0  0  0  0  0  0  0  0  0  0  0  0
   57.5840   26.1440   46.0280 C   0  0  0  0  0  0  0  0  0  0  0  0
   57.0340   25.1080   45.2550 C   0  0  0  0  0  0  0  0  0  0  0  0
   56.3020   24.0350   45.6090 C   0  0  0  0  0  0  0  0  0  0  0  0
   56.8484   23.1438   45.9513 H   0  0  0  0  0  0  0  0  0  0  0  0
   54.8330   23.9530   45.5770 C   0  0  0  0  0  0  0  0  0  0  0  0
   54.1580   22.8200   45.3120 N   0  0  0  0  0  0  0  0  0  0  0  0
   52.8710   23.2300   45.2610 C   0  0  0  0  0  0  0  0  0  0  0  0
   51.9170   22.4380   45.0450 O   0  0  0  0  0  0  0  0  0  0  0  0
   52.6890   24.5560   45.4440 N   0  0  0  0  0  0  0  0  0  0  0  0
   53.9410   25.0010   45.6280 C   0  0  0  0  0  0  0  0  0  0  0  0
   54.2640   26.3400   45.8100 O   0  0  0  0  0  0  0  0  0  0  0  0
   57.3780   25.3810   43.9410 C   0  0  0  0  0  0  0  0  0  0  0  0
   57.1597   24.7555   43.0629 H   0  0  0  0  0  0  0  0  0  0  0  0
   58.0470   26.5880   43.9450 C   0  0  0  0  0  0  0  0  0  0  0  0
   58.5870   27.2670   42.7230 C   0  0  0  0  0  0  0  0  0  0  0  0
   59.2455   28.0950   43.0244 H   0  0  0  0  0  0  0  0  0  0  0  0
   59.1589   26.5432   42.1238 H   0  0  0  0  0  0  0  0  0  0  0  0
   57.7530   27.6612   42.1238 H   0  0  0  0  0  0  0  0  0  0  0  0
   58.1710   27.0530   45.2080 N   0  0  0  0  0  0  0  0  0  0  0  0
   58.8370   28.2690   45.5930 C   0  0  0  0  0  0  0  0  0  0  0  0
   60.1890   28.2480   45.9510 C   0  0  0  0  0  0  0  0  0  0  0  0
   60.7442   27.2985   45.9375 H   0  0  0  0  0  0  0  0  0  0  0  0
   60.8190   29.3940   46.3150 N   0  0  0  0  0  0  0  0  0  0  0  0
   60.1800   30.5950   46.3390 C   0  0  0  0  0  0  0  0  0  0  0  0
   60.8970   31.7740   46.7520 N   0  0  0  0  0  0  0  0  0  0  0  0
   62.0930   31.6820   47.6020 C   0  0  0  0  0  0  0  0  0  0  0  0
   61.8133   31.9046   48.6423 H   0  0  0  0  0  0  0  0  0  0  0  0
   62.5024   30.6640   47.5233 H   0  0  0  0  0  0  0  0  0  0  0  0
   63.1730   32.6840   47.1440 C   0  0  0  0  0  0  0  0  0  0  0  0
   63.6845   33.0765   48.0352 H   0  0  0  0  0  0  0  0  0  0  0  0
   63.8576   32.1400   46.4766 H   0  0  0  0  0  0  0  0  0  0  0  0
   62.6310   33.8220   46.3770 N   0  0  0  0  0  0  0  0  0  0  0  0
   63.2720   34.6400   46.5040 H   0  0  0  0  0  0  0  0  0  0  0  0
   61.2960   34.2100   46.8410 C   0  0  0  0  0  0  0  0  0  0  0  0
   61.3167   34.3698   47.9291 H   0  0  0  0  0  0  0  0  0  0  0  0
   60.9876   35.1411   46.3430 H   0  0  0  0  0  0  0  0  0  0  0  0
   60.3030   33.0940   46.5060 C   0  0  0  0  0  0  0  0  0  0  0  0
   59.4070   33.2086   47.1337 H   0  0  0  0  0  0  0  0  0  0  0  0
   60.0374   33.1674   45.4411 H   0  0  0  0  0  0  0  0  0  0  0  0
   58.8180   30.6570   46.0030 C   0  0  0  0  0  0  0  0  0  0  0  0
   58.2837   31.6178   46.0408 H   0  0  0  0  0  0  0  0  0  0  0  0
   58.1390   29.4870   45.6180 C   0  0  0  0  0  0  0  0  0  0  0  0
   56.7830   29.4950   45.2540 O   0  0  0  0  0  0  0  0  0  0  0  0
   56.3020   29.7550   43.9400 C   0  0  0  0  0  0  0  0  0  0  0  0
   55.3358   30.2773   43.9999 H   0  0  0  0  0  0  0  0  0  0  0  0
   57.0263   30.3844   43.4023 H   0  0  0  0  0  0  0  0  0  0  0  0
   56.1722   28.8042   43.4023 H   0  0  0  0  0  0  0  0  0  0  0  0
  1  2  1  0
  2  3  1  0
  2  4  2  0
  4  5  1  0
  5  6  2  0
  6  7  1  0
  6  8  1  0
  8  9  1  0
  9 10  1  0
 10 11  2  0
 10 12  1  0
 12 13  1  0
 13 14  1  0
  5 15  1  0
 15 16  1  0
 15 17  2  0
 17 18  1  0
 18 19  1  0
 18 20  1  0
 18 21  1  0
 17 22  1  0
 22 23  1  0
 23 24  2  0
 24 25  1  0
 24 26  1  0
 26 27  2  0
 27 28  1  0
 28 29  1  0
 29 30  1  0
 29 31  1  0
 29 32  1  0
 32 33  1  0
 32 34  1  0
 32 35  1  0
 35 36  1  0
 35 37  1  0
 37 38  1  0
 37 39  1  0
 37 40  1  0
 40 41  1  0
 40 42  1  0
 27 43  1  0
 43 44  1  0
 43 45  2  0
 45 46  1  0
 46 47  1  0
 47 48  1  0
 47 49  1  0
 47 50  1  0
 22  4  1  0
 45 23  1  0
 13  8  2  0
 40 28  1  0
M  CHG  3   9  -1  12  -1  14  -1
M  END
>  <UniqueID>  (72) 
70

>  <SMILES>  (72) 
C=c1/c(=C\c2[n-]c(=O)[n-]c2[O-])cc(C)n1-c1cnc(N2CCNCC2)cc1OC

>  <Energy>  (72) 
135.24845417947083

>  <Genealogy>  (72) 
C=c1c(=Cc2[n-]c(=O)[n-]c2[O-])cc(C)n1-c1cnc(N2CCNCC2)cc1OC (protonated)
C=c1/c(=C\c2[n-]c(=O)[n-]c2[O-])cc(C)n1-c1cnc(N2CCNCC2)cc1OC (cis-trans isomerization)
C=c1/c(=C\c2[n-]c(=O)[n-]c2[O-])cc(C)n1-c1cnc(N2CCNCC2)cc1OC (3D coordinates assigned)
C=c1/c(=C\c2[n-]c(=O)[n-]c2[O-])cc(C)n1-c1cnc(N2CCNCC2)cc1OC (nonaromatic ring conformer: 135.24845417947083 kcal/mol)

>  <smiles>  (72) 
C=c1c(=Cc2[nH]c(=O)[nH]c2O)cc(C)n1-c1cnc(N2CCNCC2)cc1OC

>  <score_type>  (72) 
oracle

>  <origin>  (72) 
adg

>  <m_score__min__energy>  (72) 
-15.34

>  <m_primary>  (72) 
energy

$$$$
72:0
     RDKit          3D

 54 57  0  0  0  0  0  0  0  0999 V2000
   56.6750   31.6420   44.8750 N   0  0  0  0  0  0  0  0  0  0  0  0
   57.7900   32.8860   45.3110 S   0  0  0  0  0  0  0  0  0  0  0  0
   58.3670   33.5050   44.0690 O   0  0  0  0  0  0  0  0  0  0  0  0
   57.0610   33.9450   46.0890 O   0  0  0  0  0  0  0  0  0  0  0  0
   59.0940   32.1980   46.2800 C   0  0  0  0  0  0  0  0  0  0  0  0
   58.9370   30.9400   46.8830 C   0  0  0  0  0  0  0  0  0  0  0  0
   59.9670   30.3920   47.6600 C   0  0  0  0  0  0  0  0  0  0  0  0
   59.7530   28.8160   48.4290 S   0  0  0  0  0  0  0  0  0  0  0  0
   59.0170   28.9890   49.7280 O   0  0  0  0  0  0  0  0  0  0  0  0
   61.1040   28.2300   48.7340 O   0  0  0  0  0  0  0  0  0  0  0  0
   58.8670   27.7180   47.3990 N   0  0  0  0  0  0  0  0  0  0  0  0
   59.7710   27.0730   46.4370 C   0  0  0  0  0  0  0  0  0  0  0  0
   59.0320   25.9090   45.7680 C   0  0  0  0  0  0  0  0  0  0  0  0
   57.6260   26.2550   45.5150 N   0  0  0  0  0  0  0  0  0  0  0  0
   56.6640   25.2190   45.2240 C   0  0  0  0  0  0  0  0  0  0  0  0
   56.9340   23.9800   44.6590 C   0  0  0  0  0  0  0  0  0  0  0  0
   55.7120   23.3500   44.5440 C   0  0  0  0  0  0  0  0  0  0  0  0
   55.5260   22.0720   44.0290 O   0  0  0  0  0  0  0  0  0  0  0  0
   54.7120   24.1340   44.9950 N   0  0  0  0  0  0  0  0  0  0  0  0
   53.2960   23.7810   45.0920 C   0  0  0  0  0  0  0  0  0  0  0  0
   53.0300   23.0730   46.3940 C   0  0  0  0  0  0  0  0  0  0  0  0
   54.0570   22.9170   47.3390 C   0  0  0  0  0  0  0  0  0  0  0  0
   53.7980   22.2930   48.5630 C   0  0  0  0  0  0  0  0  0  0  0  0
   52.5120   21.8310   48.8560 C   0  0  0  0  0  0  0  0  0  0  0  0
   51.4820   21.9940   47.9260 C   0  0  0  0  0  0  0  0  0  0  0  0
   51.7370   22.6160   46.7000 C   0  0  0  0  0  0  0  0  0  0  0  0
   55.2910   25.2750   45.4170 C   0  0  0  0  0  0  0  0  0  0  0  0
   54.5900   26.3360   45.9800 O   0  0  0  0  0  0  0  0  0  0  0  0
   57.2470   27.6760   45.4720 C   0  0  0  0  0  0  0  0  0  0  0  0
   57.7640   28.4270   46.7180 C   0  0  0  0  0  0  0  0  0  0  0  0
   61.1620   31.1050   47.8300 C   0  0  0  0  0  0  0  0  0  0  0  0
   61.3230   32.3560   47.2300 C   0  0  0  0  0  0  0  0  0  0  0  0
   60.2950   32.9040   46.4570 C   0  0  0  0  0  0  0  0  0  0  0  0
   60.4760   34.1530   45.8710 O   0  0  0  0  0  0  0  0  0  0  0  0
   55.7170   32.0560   44.9330 H   0  0  0  0  0  0  0  0  0  0  0  0
   57.9999   30.3808   46.7449 H   0  0  0  0  0  0  0  0  0  0  0  0
   60.0798   27.8023   45.6736 H   0  0  0  0  0  0  0  0  0  0  0  0
   60.6647   26.6983   46.9575 H   0  0  0  0  0  0  0  0  0  0  0  0
   59.5223   25.6733   44.8119 H   0  0  0  0  0  0  0  0  0  0  0  0
   59.0638   25.0397   46.4413 H   0  0  0  0  0  0  0  0  0  0  0  0
   57.9169   23.5834   44.3645 H   0  0  0  0  0  0  0  0  0  0  0  0
   52.6882   24.6966   45.0444 H   0  0  0  0  0  0  0  0  0  0  0  0
   53.0320   23.1143   44.2578 H   0  0  0  0  0  0  0  0  0  0  0  0
   55.0685   23.2870   47.1155 H   0  0  0  0  0  0  0  0  0  0  0  0
   54.6077   22.1655   49.2966 H   0  0  0  0  0  0  0  0  0  0  0  0
   52.3106   21.3389   49.8190 H   0  0  0  0  0  0  0  0  0  0  0  0
   50.4694   21.6326   48.1586 H   0  0  0  0  0  0  0  0  0  0  0  0
   50.9226   22.7480   45.9725 H   0  0  0  0  0  0  0  0  0  0  0  0
   57.6785   28.1358   44.5707 H   0  0  0  0  0  0  0  0  0  0  0  0
   56.1493   27.7445   45.4532 H   0  0  0  0  0  0  0  0  0  0  0  0
   58.1236   29.4187   46.4062 H   0  0  0  0  0  0  0  0  0  0  0  0
   56.9287   28.5002   47.4300 H   0  0  0  0  0  0  0  0  0  0  0  0
   61.9742   30.6785   48.4369 H   0  0  0  0  0  0  0  0  0  0  0  0
   62.2622   32.9122   47.3662 H   0  0  0  0  0  0  0  0  0  0  0  0
  1  2  1  0
  2  3  2  0
  2  4  2  0
  2  5  1  0
  5  6  2  0
  6  7  1  0
  7  8  1  0
  8  9  2  0
  8 10  2  0
  8 11  1  0
 11 12  1  0
 12 13  1  0
 13 14  1  0
 14 15  1  0
 15 16  1  0
 16 17  2  0
 17 18  1  0
 17 19  1  0
 19 20  1  0
 20 21  1  0
 21 22  2  0
 22 23  1  0
 23 24  2  0
 24 25  1  0
 25 26  2  0
 19 27  1  0
 27 28  1  0
 14 29  1  0
 29 30  1  0
  7 31  2  0
 31 32  1  0
 32 33  2  0
 33 34  1  0
 33  5  1  0
 30 11  1  0
 27 15  2  0
 26 21  1  0
  1 35  1  0
  6 36  1  0
 12 37  1  0
 12 38  1  0
 13 39  1  0
 13 40  1  0
 16 41  1  0
 20 42  1  0
 20 43  1  0
 22 44  1  0
 23 45  1  0
 24 46  1  0
 25 47  1  0
 26 48  1  0
 29 49  1  0
 29 50  1  0
 30 51  1  0
 30 52  1  0
 31 53  1  0
 32 54  1  0
M  CHG  4   1  -1  18  -1  28  -1  34  -1
M  END
>  <UniqueID>  (73) 
71

>  <SMILES>  (73) 
[NH-]S(=O)(=O)c1cc(S(=O)(=O)N2CCN(c3cc([O-])n(Cc4ccccc4)c3[O-])CC2)ccc1[O-]

>  <Energy>  (73) 
91.81119477701822

>  <Genealogy>  (73) 
[NH-]S(=O)(=O)c1cc(S(=O)(=O)N2CCN(c3cc([O-])n(Cc4ccccc4)c3[O-])CC2)ccc1[O-] (protonated)
[NH-]S(=O)(=O)c1cc(S(=O)(=O)N2CCN(c3cc([O-])n(Cc4ccccc4)c3[O-])CC2)ccc1[O-] (3D coordinates assigned)
[NH-]S(=O)(=O)c1cc(S(=O)(=O)N2CCN(c3cc([O-])n(Cc4ccccc4)c3[O-])CC2)ccc1[O-] (nonaromatic ring conformer: 91.81119477701822 kcal/mol)

>  <smiles>  (73) 
NS(=O)(=O)c1cc(S(=O)(=O)N2CCN(c3cc(O)n(Cc4ccccc4)c3O)CC2)ccc1O

>  <score_type>  (73) 
oracle

>  <origin>  (73) 
adg

>  <m_score__min__energy>  (73) 
-15.5

>  <m_primary>  (73) 
energy

$$$$
73:0
     RDKit          3D

 39 42  0  0  0  0  0  0  0  0999 V2000
   58.9910   27.9130   52.8930 O   0  0  0  0  0  0  0  0  0  0  0  0
   58.9240   29.0770   52.4180 C   0  0  0  0  0  0  0  0  0  0  0  0
   59.7720   29.4240   51.2640 C   0  0  0  0  0  0  0  0  0  0  0  0
   59.2890   30.0500   50.1820 C   0  0  0  0  0  0  0  0  0  0  0  0
   60.0240   31.1060   49.4440 C   0  0  0  0  0  0  0  0  0  0  0  0
   59.4910   32.4110   49.2410 C   0  0  0  0  0  0  0  0  0  0  0  0
   60.2290   33.3850   48.5450 C   0  0  0  0  0  0  0  0  0  0  0  0
   61.4880   33.0360   48.0740 C   0  0  0  0  0  0  0  0  0  0  0  0
   62.0110   31.8010   48.2720 C   0  0  0  0  0  0  0  0  0  0  0  0
   61.3180   30.8070   48.9550 C   0  0  0  0  0  0  0  0  0  0  0  0
   63.2690   31.7380   47.7050 O   0  0  0  0  0  0  0  0  0  0  0  0
   63.5540   33.0130   47.1140 C   0  0  0  0  0  0  0  0  0  0  0  0
   62.3910   33.8120   47.3730 O   0  0  0  0  0  0  0  0  0  0  0  0
   58.1250   30.0780   53.0680 N   0  0  0  0  0  0  0  0  0  0  0  0
   56.8460   30.3130   52.9570 C   0  0  0  0  0  0  0  0  0  0  0  0
   56.0380   29.9050   53.9720 N   0  0  0  0  0  0  0  0  0  0  0  0
   54.7180   30.0890   53.9520 N   0  0  0  0  0  0  0  0  0  0  0  0
   54.1020   30.7110   52.9140 C   0  0  0  0  0  0  0  0  0  0  0  0
   52.6110   30.8600   52.9110 C   0  0  0  0  0  0  0  0  0  0  0  0
   52.1050   30.9320   51.5040 C   0  0  0  0  0  0  0  0  0  0  0  0
   52.2540   29.7090   50.3550 S   0  0  0  0  0  0  0  0  0  0  0  0
   51.3770   30.5690   49.2070 C   0  0  0  0  0  0  0  0  0  0  0  0
   51.1310   30.1530   48.0450 O   0  0  0  0  0  0  0  0  0  0  0  0
   50.9520   31.7660   49.6650 N   0  0  0  0  0  0  0  0  0  0  0  0
   51.3520   31.9650   50.9480 C   0  0  0  0  0  0  0  0  0  0  0  0
   51.0220   33.1200   51.6440 O   0  0  0  0  0  0  0  0  0  0  0  0
   54.8730   31.1710   51.8440 C   0  0  0  0  0  0  0  0  0  0  0  0
   56.2570   30.9980   51.8660 C   0  0  0  0  0  0  0  0  0  0  0  0
   57.0060   31.5520   50.8360 O   0  0  0  0  0  0  0  0  0  0  0  0
   60.8394   29.1598   51.2916 H   0  0  0  0  0  0  0  0  0  0  0  0
   58.2902   29.7643   49.8204 H   0  0  0  0  0  0  0  0  0  0  0  0
   58.4933   32.6593   49.6321 H   0  0  0  0  0  0  0  0  0  0  0  0
   59.8213   34.3930   48.3786 H   0  0  0  0  0  0  0  0  0  0  0  0
   61.7644   29.8138   49.1111 H   0  0  0  0  0  0  0  0  0  0  0  0
   64.4437   33.4638   47.5780 H   0  0  0  0  0  0  0  0  0  0  0  0
   63.7668   32.9307   46.0379 H   0  0  0  0  0  0  0  0  0  0  0  0
   52.1577   29.9949   53.4170 H   0  0  0  0  0  0  0  0  0  0  0  0
   52.3403   31.7861   53.4392 H   0  0  0  0  0  0  0  0  0  0  0  0
   54.3914   31.6671   50.9885 H   0  0  0  0  0  0  0  0  0  0  0  0
  1  2  2  0
  2  3  1  0
  3  4  2  3
  4  5  1  0
  5  6  2  0
  6  7  1  0
  7  8  2  0
  8  9  1  0
  9 10  2  0
  9 11  1  0
 11 12  1  0
 12 13  1  0
  2 14  1  0
 14 15  2  3
 15 16  1  0
 16 17  1  0
 17 18  2  0
 18 19  1  0
 19 20  1  0
 20 21  1  0
 21 22  1  0
 22 23  2  0
 22 24  1  0
 24 25  1  0
 25 26  1  0
 18 27  1  0
 27 28  2  0
 28 29  1  0
 10  5  1  0
 28 15  1  0
 13  8  1  0
 25 20  2  0
  3 30  1  0
  4 31  1  0
  6 32  1  0
  7 33  1  0
 10 34  1  0
 12 35  1  0
 12 36  1  0
 19 37  1  0
 19 38  1  0
 27 39  1  0
M  CHG  4  16  -1  24  -1  26  -1  29  -1
M  END
>  <UniqueID>  (74) 
72

>  <SMILES>  (74) 
O=C(C=Cc1ccc2c(c1)OCO2)N=c1[n-]nc(Cc2sc(=O)[n-]c2[O-])cc1[O-]

>  <Energy>  (74) 
114.44220564620193

>  <Genealogy>  (74) 
O=C(C=Cc1ccc2c(c1)OCO2)N=c1[n-]nc(Cc2sc(=O)[n-]c2[O-])cc1[O-] (protonated)
O=C(C=Cc1ccc2c(c1)OCO2)N=c1[n-]nc(Cc2sc(=O)[n-]c2[O-])cc1[O-] (3D coordinates assigned)
O=C(C=Cc1ccc2c(c1)OCO2)N=c1[n-]nc(Cc2sc(=O)[n-]c2[O-])cc1[O-] (nonaromatic ring conformer: 114.44220564620193 kcal/mol)

>  <smiles>  (74) 
O=C(C=Cc1ccc2c(c1)OCO2)N=c1[nH]nc(Cc2sc(=O)[nH]c2O)cc1O

>  <score_type>  (74) 
oracle

>  <origin>  (74) 
adg

>  <m_score__min__energy>  (74) 
-17.440000000000001

>  <m_primary>  (74) 
energy

$$$$
74:0
     RDKit          3D

 37 38  0  0  0  0  0  0  0  0999 V2000
   57.0250   31.3270   52.9910 C   0  0  0  0  0  0  0  0  0  0  0  0
   57.3400   30.3780   51.9770 O   0  0  0  0  0  0  0  0  0  0  0  0
   58.1300   30.6550   50.8520 C   0  0  0  0  0  0  0  0  0  0  0  0
   58.9220   29.6280   50.3250 C   0  0  0  0  0  0  0  0  0  0  0  0
   59.7090   29.8480   49.1910 C   0  0  0  0  0  0  0  0  0  0  0  0
   59.7210   31.1060   48.5720 C   0  0  0  0  0  0  0  0  0  0  0  0
   60.4920   31.3160   47.2940 C   0  0  0  0  0  0  0  0  0  0  0  0
   60.4780   30.0580   46.4120 C   0  0  0  0  0  0  0  0  0  0  0  0
   59.1080   29.7440   45.9510 N   0  0  0  0  0  0  0  0  0  0  0  0
   58.3330   30.7280   45.3940 C   0  0  0  0  0  0  0  0  0  0  0  0
   58.7910   31.8890   45.2200 O   0  0  0  0  0  0  0  0  0  0  0  0
   57.0540   30.4680   45.0280 N   0  0  0  0  0  0  0  0  0  0  0  0
   56.4910   29.2490   45.2020 C   0  0  0  0  0  0  0  0  0  0  0  0
   55.1520   29.0830   44.8390 O   0  0  0  0  0  0  0  0  0  0  0  0
   57.2520   28.2080   45.7630 C   0  0  0  0  0  0  0  0  0  0  0  0
   56.6800   26.8560   45.9620 C   0  0  0  0  0  0  0  0  0  0  0  0
   57.5590   25.6450   46.0260 C   0  0  0  0  0  0  0  0  0  0  0  0
   55.4300   26.7100   46.0330 O   0  0  0  0  0  0  0  0  0  0  0  0
   58.5830   28.4860   46.1270 C   0  0  0  0  0  0  0  0  0  0  0  0
   59.2980   27.5640   46.6130 O   0  0  0  0  0  0  0  0  0  0  0  0
   58.9350   32.1410   49.1020 C   0  0  0  0  0  0  0  0  0  0  0  0
   58.1470   31.9200   50.2350 C   0  0  0  0  0  0  0  0  0  0  0  0
   57.1765   30.8705   53.9803 H   0  0  0  0  0  0  0  0  0  0  0  0
   57.6800   32.2047   52.8880 H   0  0  0  0  0  0  0  0  0  0  0  0
   55.9752   31.6388   52.8880 H   0  0  0  0  0  0  0  0  0  0  0  0
   58.9250   28.6394   50.8074 H   0  0  0  0  0  0  0  0  0  0  0  0
   60.3215   29.0307   48.7825 H   0  0  0  0  0  0  0  0  0  0  0  0
   60.0383   32.1483   46.7360 H   0  0  0  0  0  0  0  0  0  0  0  0
   61.5365   31.5415   47.5553 H   0  0  0  0  0  0  0  0  0  0  0  0
   61.1217   30.2266   45.5361 H   0  0  0  0  0  0  0  0  0  0  0  0
   60.8483   29.2105   47.0076 H   0  0  0  0  0  0  0  0  0  0  0  0
   54.7660   28.2000   44.5310 H   0  0  0  0  0  0  0  0  0  0  0  0
   57.7482   25.3844   47.0778 H   0  0  0  0  0  0  0  0  0  0  0  0
   57.0603   24.8030   45.5236 H   0  0  0  0  0  0  0  0  0  0  0  0
   58.5141   25.8582   45.5236 H   0  0  0  0  0  0  0  0  0  0  0  0
   58.9392   33.1313   48.6232 H   0  0  0  0  0  0  0  0  0  0  0  0
   57.5375   32.7382   50.6463 H   0  0  0  0  0  0  0  0  0  0  0  0
  1  2  1  0
  2  3  1  0
  3  4  2  0
  4  5  1  0
  5  6  2  0
  6  7  1  0
  7  8  1  0
  8  9  1  0
  9 10  1  0
 10 11  2  0
 10 12  1  0
 12 13  1  0
 13 14  1  0
 13 15  2  0
 15 16  1  0
 16 17  1  0
 16 18  2  0
 15 19  1  0
 19 20  2  0
  6 21  1  0
 21 22  2  0
 22  3  1  0
 19  9  1  0
  1 23  1  0
  1 24  1  0
  1 25  1  0
  4 26  1  0
  5 27  1  0
  7 28  1  0
  7 29  1  0
  8 30  1  0
  8 31  1  0
 14 32  1  0
 17 33  1  0
 17 34  1  0
 17 35  1  0
 21 36  1  0
 22 37  1  0
M  CHG  1  12  -1
M  END
>  <UniqueID>  (75) 
73

>  <SMILES>  (75) 
COc1ccc(CCn2c(=O)[n-]c(O)c(C(C)=O)c2=O)cc1

>  <Energy>  (75) 
42.38974507137672

>  <Genealogy>  (75) 
COc1ccc(CCn2c(=O)[n-]c(O)c(C(C)=O)c2=O)cc1 (protonated)
COc1ccc(CCn2c(=O)[n-]c(O)c(C(C)=O)c2=O)cc1 (3D coordinates assigned)
COc1ccc(CCn2c(=O)[n-]c(O)c(C(C)=O)c2=O)cc1 (optimized conformer: 42.38974507137672 kcal/mol)

>  <smiles>  (75) 
COc1ccc(CCn2c(=O)[nH]c(O)c(C(C)=O)c2=O)cc1

>  <score_type>  (75) 
oracle

>  <origin>  (75) 
adg

>  <m_score__min__energy>  (75) 
-8.6799999999999997

>  <m_primary>  (75) 
energy

$$$$
75:0
     RDKit          3D

 58 60  0  0  0  0  0  0  0  0999 V2000
   56.5540   28.4380   43.7400 H   0  0  0  0  0  0  0  0  0  0  0  0
   56.6200   29.2160   43.0900 O   0  0  0  0  0  0  0  0  0  0  0  0
   57.1130   30.4640   43.4740 C   0  0  0  0  0  0  0  0  0  0  0  0
   57.3590   31.4330   42.4950 C   0  0  0  0  0  0  0  0  0  0  0  0
   57.1767   31.1971   41.4362 H   0  0  0  0  0  0  0  0  0  0  0  0
   57.8340   32.6970   42.8510 C   0  0  0  0  0  0  0  0  0  0  0  0
   58.0175   33.4506   42.0710 H   0  0  0  0  0  0  0  0  0  0  0  0
   58.0780   33.0120   44.1900 C   0  0  0  0  0  0  0  0  0  0  0  0
   58.5130   34.3090   44.5040 O   0  0  0  0  0  0  0  0  0  0  0  0
   59.2840   34.6460   45.6530 C   0  0  0  0  0  0  0  0  0  0  0  0
   58.7158   34.3977   46.5616 H   0  0  0  0  0  0  0  0  0  0  0  0
   60.2256   34.0774   45.6425 H   0  0  0  0  0  0  0  0  0  0  0  0
   59.5061   35.7233   45.6425 H   0  0  0  0  0  0  0  0  0  0  0  0
   57.8570   32.0290   45.1760 C   0  0  0  0  0  0  0  0  0  0  0  0
   58.0675   32.2588   46.2309 H   0  0  0  0  0  0  0  0  0  0  0  0
   57.3710   30.7600   44.8250 C   0  0  0  0  0  0  0  0  0  0  0  0
   57.0370   29.8070   45.8450 N   0  0  0  0  0  0  0  0  0  0  0  0
   57.6630   28.5230   45.9570 C   0  0  0  0  0  0  0  0  0  0  0  0
   57.0010   27.4880   45.6740 O   0  0  0  0  0  0  0  0  0  0  0  0
   59.0310   28.4170   46.4070 N   0  0  0  0  0  0  0  0  0  0  0  0
   59.3960   28.6870   47.7770 C   0  0  0  0  0  0  0  0  0  0  0  0
   59.1460   27.8230   48.6630 O   0  0  0  0  0  0  0  0  0  0  0  0
   60.0320   29.9550   48.1950 C   0  0  0  0  0  0  0  0  0  0  0  0
   61.1170   29.9708   48.3752 H   0  0  0  0  0  0  0  0  0  0  0  0
   59.3310   31.0870   48.3620 C   0  0  0  0  0  0  0  0  0  0  0  0
   58.9793   31.6080   47.4593 H   0  0  0  0  0  0  0  0  0  0  0  0
   58.9960   31.6870   49.6800 C   0  0  0  0  0  0  0  0  0  0  0  0
   59.9670   32.4890   50.3030 C   0  0  0  0  0  0  0  0  0  0  0  0
   60.9269   32.6732   49.7983 H   0  0  0  0  0  0  0  0  0  0  0  0
   59.7250   33.0550   51.5580 C   0  0  0  0  0  0  0  0  0  0  0  0
   60.4979   33.6712   52.0406 H   0  0  0  0  0  0  0  0  0  0  0  0
   58.5060   32.8400   52.1990 C   0  0  0  0  0  0  0  0  0  0  0  0
   58.3265   33.2758   53.1929 H   0  0  0  0  0  0  0  0  0  0  0  0
   57.5120   32.0750   51.5870 C   0  0  0  0  0  0  0  0  0  0  0  0
   56.2900   31.8950   52.2510 O   0  0  0  0  0  0  0  0  0  0  0  0
   55.8160   30.6730   52.7520 C   0  0  0  0  0  0  0  0  0  0  0  0
   56.5510   29.9340   53.6990 C   0  0  0  0  0  0  0  0  0  0  0  0
   57.5022   30.3301   54.0841 H   0  0  0  0  0  0  0  0  0  0  0  0
   56.0770   28.6990   54.1520 C   0  0  0  0  0  0  0  0  0  0  0  0
   56.6531   28.1287   54.8956 H   0  0  0  0  0  0  0  0  0  0  0  0
   54.8740   28.1890   53.6620 C   0  0  0  0  0  0  0  0  0  0  0  0
   54.5011   27.2183   54.0209 H   0  0  0  0  0  0  0  0  0  0  0  0
   54.1430   28.9120   52.7150 C   0  0  0  0  0  0  0  0  0  0  0  0
   53.1985   28.5050   52.3249 H   0  0  0  0  0  0  0  0  0  0  0  0
   54.6080   30.1520   52.2610 C   0  0  0  0  0  0  0  0  0  0  0  0
   53.6490   31.0520   51.0350 S   0  0  0  0  0  0  0  0  0  0  0  0
   52.2490   31.4080   52.1510 C   0  0  0  0  0  0  0  0  0  0  0  0
   51.7443   30.4652   52.4085 H   0  0  0  0  0  0  0  0  0  0  0  0
   52.6362   31.8952   53.0581 H   0  0  0  0  0  0  0  0  0  0  0  0
   51.2700   32.3240   51.4970 C   0  0  0  0  0  0  0  0  0  0  0  0
   51.3910   32.6150   50.2800 O   0  0  0  0  0  0  0  0  0  0  0  0
   50.2570   32.9090   52.2470 O   0  0  0  0  0  0  0  0  0  0  0  0
   57.7630   31.4820   50.3350 C   0  0  0  0  0  0  0  0  0  0  0  0
   56.9923   30.8543   49.8639 H   0  0  0  0  0  0  0  0  0  0  0  0
   60.1010   28.2700   45.4160 C   0  0  0  0  0  0  0  0  0  0  0  0
   61.0633   28.1378   45.9323 H   0  0  0  0  0  0  0  0  0  0  0  0
   59.8991   27.3912   44.7860 H   0  0  0  0  0  0  0  0  0  0  0  0
   60.1436   29.1707   44.7860 H   0  0  0  0  0  0  0  0  0  0  0  0
  1  2  1  0
  2  3  1  0
  3  4  2  0
  4  5  1  0
  4  6  1  0
  6  7  1  0
  6  8  2  0
  8  9  1  0
  9 10  1  0
 10 11  1  0
 10 12  1  0
 10 13  1  0
  8 14  1  0
 14 15  1  0
 14 16  2  0
 16 17  1  0
 17 18  1  0
 18 19  2  0
 18 20  1  0
 20 21  1  0
 21 22  2  0
 21 23  1  0
 23 24  1  0
 23 25  2  0
 25 26  1  0
 25 27  1  0
 27 28  2  0
 28 29  1  0
 28 30  1  0
 30 31  1  0
 30 32  2  0
 32 33  1  0
 32 34  1  0
 34 35  1  0
 35 36  1  0
 36 37  2  0
 37 38  1  0
 37 39  1  0
 39 40  1  0
 39 41  2  0
 41 42  1  0
 41 43  1  0
 43 44  1  0
 43 45  2  0
 45 46  1  0
 46 47  1  0
 47 48  1  0
 47 49  1  0
 47 50  1  0
 50 51  2  0
 50 52  1  0
 34 53  2  0
 53 54  1  0
 20 55  1  0
 55 56  1  0
 55 57  1  0
 55 58  1  0
 16  3  1  0
 53 27  1  0
 45 36  1  0
M  CHG  2  17  -1  52  -1
M  END
>  <UniqueID>  (76) 
74

>  <SMILES>  (76) 
COc1ccc(O)c([N-]C(=O)N(C)C(=O)/C=C/c2cccc(Oc3ccccc3SCC(=O)[O-])c2)c1

>  <Energy>  (76) 
73.9699309371618

>  <Genealogy>  (76) 
COc1ccc(O)c([N-]C(=O)N(C)C(=O)C=Cc2cccc(Oc3ccccc3SCC(=O)[O-])c2)c1 (protonated)
COc1ccc(O)c([N-]C(=O)N(C)C(=O)/C=C/c2cccc(Oc3ccccc3SCC(=O)[O-])c2)c1 (cis-trans isomerization)
COc1ccc(O)c([N-]C(=O)N(C)C(=O)/C=C/c2cccc(Oc3ccccc3SCC(=O)[O-])c2)c1 (3D coordinates assigned)
COc1ccc(O)c([N-]C(=O)N(C)C(=O)/C=C/c2cccc(Oc3ccccc3SCC(=O)[O-])c2)c1 (optimized conformer: 73.9699309371618 kcal/mol)

>  <smiles>  (76) 
COc1ccc(O)c(NC(=O)N(C)C(=O)C=Cc2cccc(Oc3ccccc3SCC(=O)O)c2)c1

>  <score_type>  (76) 
oracle

>  <origin>  (76) 
adg

>  <m_score__min__energy>  (76) 
-14.859999999999999

>  <m_primary>  (76) 
energy

$$$$
76:0
     RDKit          3D

 56 59  0  0  0  0  0  0  0  0999 V2000
   57.3820   25.5280   43.4170 C   0  0  0  0  0  0  0  0  0  0  0  0
   57.8510   25.5630   44.6760 C   0  0  0  0  0  0  0  0  0  0  0  0
   57.4070   24.7760   45.7550 C   0  0  0  0  0  0  0  0  0  0  0  0
   56.5670   23.7230   45.8030 C   0  0  0  0  0  0  0  0  0  0  0  0
   55.1050   23.7790   45.6650 C   0  0  0  0  0  0  0  0  0  0  0  0
   54.3480   22.7230   45.3160 N   0  0  0  0  0  0  0  0  0  0  0  0
   53.1120   23.2530   45.1890 C   0  0  0  0  0  0  0  0  0  0  0  0
   52.1060   22.5580   44.8830 O   0  0  0  0  0  0  0  0  0  0  0  0
   53.0400   24.5840   45.4030 N   0  0  0  0  0  0  0  0  0  0  0  0
   54.3140   24.9060   45.6890 C   0  0  0  0  0  0  0  0  0  0  0  0
   54.7500   26.2030   45.9460 O   0  0  0  0  0  0  0  0  0  0  0  0
   58.0260   25.2810   46.8840 C   0  0  0  0  0  0  0  0  0  0  0  0
   58.8620   26.2890   46.4630 C   0  0  0  0  0  0  0  0  0  0  0  0
   59.7230   27.0670   47.3740 C   0  0  0  0  0  0  0  0  0  0  0  0
   60.8760   26.6230   47.6310 O   0  0  0  0  0  0  0  0  0  0  0  0
   59.2930   28.3250   47.9390 N   0  0  0  0  0  0  0  0  0  0  0  0
   60.0200   28.8670   49.0960 C   0  0  0  0  0  0  0  0  0  0  0  0
   59.3440   30.1220   49.6570 C   0  0  0  0  0  0  0  0  0  0  0  0
   59.0500   31.0750   48.5740 N   0  0  0  0  0  0  0  0  0  0  0  0
   59.1720   32.5040   48.7610 C   0  0  0  0  0  0  0  0  0  0  0  0
   59.0800   33.2720   47.7610 O   0  0  0  0  0  0  0  0  0  0  0  0
   59.4340   33.1180   50.1140 C   0  0  0  0  0  0  0  0  0  0  0  0
   59.6420   34.5060   49.9850 O   0  0  0  0  0  0  0  0  0  0  0  0
   58.5330   30.5780   47.2880 C   0  0  0  0  0  0  0  0  0  0  0  0
   58.1820   29.0880   47.3490 C   0  0  0  0  0  0  0  0  0  0  0  0
   58.7640   26.4730   45.1240 N   0  0  0  0  0  0  0  0  0  0  0  0
   59.3660   27.5960   44.3830 C   0  0  0  0  0  0  0  0  0  0  0  0
   58.4080   28.7580   44.3100 C   0  0  0  0  0  0  0  0  0  0  0  0
   58.8860   30.0690   44.1350 C   0  0  0  0  0  0  0  0  0  0  0  0
   57.9910   31.1410   44.0440 C   0  0  0  0  0  0  0  0  0  0  0  0
   56.6150   30.9140   44.1270 C   0  0  0  0  0  0  0  0  0  0  0  0
   56.1310   29.6160   44.3040 C   0  0  0  0  0  0  0  0  0  0  0  0
   57.0220   28.5420   44.3980 C   0  0  0  0  0  0  0  0  0  0  0  0
   57.8087   26.1939   42.6524 H   0  0  0  0  0  0  0  0  0  0  0  0
   56.5715   24.8335   43.1511 H   0  0  0  0  0  0  0  0  0  0  0  0
   57.0167   22.7315   45.9597 H   0  0  0  0  0  0  0  0  0  0  0  0
   54.3960   26.7160   46.7450 H   0  0  0  0  0  0  0  0  0  0  0  0
   57.8782   24.9417   47.9199 H   0  0  0  0  0  0  0  0  0  0  0  0
   60.0571   28.1004   49.8840 H   0  0  0  0  0  0  0  0  0  0  0  0
   61.0318   29.1434   48.7646 H   0  0  0  0  0  0  0  0  0  0  0  0
   58.4048   29.8365   50.1533 H   0  0  0  0  0  0  0  0  0  0  0  0
   60.0228   30.6004   50.3784 H   0  0  0  0  0  0  0  0  0  0  0  0
   58.5680   32.9393   50.7683 H   0  0  0  0  0  0  0  0  0  0  0  0
   60.3337   32.6585   50.5493 H   0  0  0  0  0  0  0  0  0  0  0  0
   59.3070   34.7640   49.0830 H   0  0  0  0  0  0  0  0  0  0  0  0
   57.6281   31.1457   47.0255 H   0  0  0  0  0  0  0  0  0  0  0  0
   59.3195   30.7115   46.5307 H   0  0  0  0  0  0  0  0  0  0  0  0
   57.2811   28.9524   47.9654 H   0  0  0  0  0  0  0  0  0  0  0  0
   57.9989   28.7216   46.3281 H   0  0  0  0  0  0  0  0  0  0  0  0
   60.2847   27.9166   44.8961 H   0  0  0  0  0  0  0  0  0  0  0  0
   59.5977   27.2627   43.3606 H   0  0  0  0  0  0  0  0  0  0  0  0
   59.9686   30.2527   44.0693 H   0  0  0  0  0  0  0  0  0  0  0  0
   58.3715   32.1639   43.9069 H   0  0  0  0  0  0  0  0  0  0  0  0
   55.9129   31.7575   44.0529 H   0  0  0  0  0  0  0  0  0  0  0  0
   55.0475   29.4381   44.3696 H   0  0  0  0  0  0  0  0  0  0  0  0
   56.6357   27.5221   44.5417 H   0  0  0  0  0  0  0  0  0  0  0  0
  1  2  2  0
  2  3  1  0
  3  4  2  3
  4  5  1  0
  5  6  1  0
  6  7  1  0
  7  8  2  0
  7  9  1  0
  9 10  1  0
 10 11  1  0
  3 12  1  0
 12 13  2  0
 13 14  1  0
 14 15  2  0
 14 16  1  0
 16 17  1  0
 17 18  1  0
 18 19  1  0
 19 20  1  0
 20 21  2  0
 20 22  1  0
 22 23  1  0
 19 24  1  0
 24 25  1  0
 13 26  1  0
 26 27  1  0
 27 28  1  0
 28 29  2  0
 29 30  1  0
 30 31  2  0
 31 32  1  0
 32 33  2  0
 26  2  1  0
 33 28  1  0
 10  5  2  0
 25 16  1  0
  1 34  1  0
  1 35  1  0
  4 36  1  0
 11 37  1  0
 12 38  1  0
 17 39  1  0
 17 40  1  0
 18 41  1  0
 18 42  1  0
 22 43  1  0
 22 44  1  0
 23 45  1  0
 24 46  1  0
 24 47  1  0
 25 48  1  0
 25 49  1  0
 27 50  1  0
 27 51  1  0
 29 52  1  0
 30 53  1  0
 31 54  1  0
 32 55  1  0
 33 56  1  0
M  CHG  2   6  -1   9  -1
M  END
>  <UniqueID>  (77) 
75

>  <SMILES>  (77) 
C=c1c(=Cc2[n-]c(=O)[n-]c2O)cc(C(=O)N2CCN(C(=O)CO)CC2)n1Cc1ccccc1

>  <Energy>  (77) 
133.7479417725508

>  <Genealogy>  (77) 
C=c1c(=Cc2[n-]c(=O)[n-]c2O)cc(C(=O)N2CCN(C(=O)CO)CC2)n1Cc1ccccc1 (protonated)
C=c1c(=Cc2[n-]c(=O)[n-]c2O)cc(C(=O)N2CCN(C(=O)CO)CC2)n1Cc1ccccc1 (3D coordinates assigned)
C=c1c(=Cc2[n-]c(=O)[n-]c2O)cc(C(=O)N2CCN(C(=O)CO)CC2)n1Cc1ccccc1 (nonaromatic ring conformer: 133.7479417725508 kcal/mol)

>  <smiles>  (77) 
C=c1c(=Cc2[nH]c(=O)[nH]c2O)cc(C(=O)N2CCN(C(=O)CO)CC2)n1Cc1ccccc1

>  <score_type>  (77) 
oracle

>  <origin>  (77) 
adg

>  <m_score__min__energy>  (77) 
-12.42

>  <m_primary>  (77) 
energy

$$$$
77:0
     RDKit          3D

 55 58  0  0  0  0  0  0  0  0999 V2000
   61.4970   31.3450   46.7470 O   0  0  0  0  0  0  0  0  0  0  0  0
   61.5830   32.2130   47.6580 C   0  0  0  0  0  0  0  0  0  0  0  0
   60.5410   33.2940   47.7870 C   0  0  0  0  0  0  0  0  0  0  0  0
   59.6040   33.3250   46.6070 C   0  0  0  0  0  0  0  0  0  0  0  0
   59.2720   34.5470   46.0050 C   0  0  0  0  0  0  0  0  0  0  0  0
   58.3750   34.5830   44.9350 C   0  0  0  0  0  0  0  0  0  0  0  0
   57.7910   33.4030   44.4690 C   0  0  0  0  0  0  0  0  0  0  0  0
   58.0850   32.1750   45.0810 C   0  0  0  0  0  0  0  0  0  0  0  0
   57.4580   30.9420   44.5480 C   0  0  0  0  0  0  0  0  0  0  0  0
   56.1990   30.8610   44.5870 O   0  0  0  0  0  0  0  0  0  0  0  0
   58.2170   29.8270   44.0080 N   0  0  0  0  0  0  0  0  0  0  0  0
   59.5200   29.6600   44.7120 C   0  0  0  0  0  0  0  0  0  0  0  0
   59.8830   28.1960   44.9500 C   0  0  0  0  0  0  0  0  0  0  0  0
   58.7690   27.5450   45.6430 N   0  0  0  0  0  0  0  0  0  0  0  0
   58.9360   26.8180   46.8790 C   0  0  0  0  0  0  0  0  0  0  0  0
   58.0800   25.9490   47.2040 O   0  0  0  0  0  0  0  0  0  0  0  0
   60.1340   27.0440   47.7700 C   0  0  0  0  0  0  0  0  0  0  0  0
   59.9770   28.2560   48.6560 C   0  0  0  0  0  0  0  0  0  0  0  0
   59.0940   29.2890   48.2980 C   0  0  0  0  0  0  0  0  0  0  0  0
   58.9680   30.4200   49.1100 C   0  0  0  0  0  0  0  0  0  0  0  0
   59.7060   30.5210   50.2920 C   0  0  0  0  0  0  0  0  0  0  0  0
   60.5740   29.4900   50.6630 C   0  0  0  0  0  0  0  0  0  0  0  0
   60.7130   28.3640   49.8470 C   0  0  0  0  0  0  0  0  0  0  0  0
   57.4340   27.6300   45.0390 C   0  0  0  0  0  0  0  0  0  0  0  0
   57.4020   28.5910   43.8320 C   0  0  0  0  0  0  0  0  0  0  0  0
   59.0100   32.1390   46.1390 C   0  0  0  0  0  0  0  0  0  0  0  0
   62.7390   32.1870   48.5640 C   0  0  0  0  0  0  0  0  0  0  0  0
   62.8130   31.4080   49.6680 N   0  0  0  0  0  0  0  0  0  0  0  0
   63.9820   31.5860   50.3380 C   0  0  0  0  0  0  0  0  0  0  0  0
   64.8430   32.5120   49.7680 C   0  0  0  0  0  0  0  0  0  0  0  0
   66.5440   33.0320   50.4490 Br  0  0  0  0  0  0  0  0  0  0  0  0
   64.1240   33.1290   48.3810 S   0  0  0  0  0  0  0  0  0  0  0  0
   59.9548   33.1139   48.7002 H   0  0  0  0  0  0  0  0  0  0  0  0
   61.0619   34.2619   47.8302 H   0  0  0  0  0  0  0  0  0  0  0  0
   59.7195   35.4806   46.3767 H   0  0  0  0  0  0  0  0  0  0  0  0
   58.1279   35.5430   44.4582 H   0  0  0  0  0  0  0  0  0  0  0  0
   57.0962   33.4365   43.6169 H   0  0  0  0  0  0  0  0  0  0  0  0
   58.4600   30.1110   43.0270 H   0  0  0  0  0  0  0  0  0  0  0  0
   60.3101   30.1230   44.1026 H   0  0  0  0  0  0  0  0  0  0  0  0
   59.4275   30.1416   45.6966 H   0  0  0  0  0  0  0  0  0  0  0  0
   60.0621   27.6972   43.9861 H   0  0  0  0  0  0  0  0  0  0  0  0
   60.7956   28.1296   45.5605 H   0  0  0  0  0  0  0  0  0  0  0  0
   60.2721   26.1576   48.4065 H   0  0  0  0  0  0  0  0  0  0  0  0
   61.0050   27.2162   47.1205 H   0  0  0  0  0  0  0  0  0  0  0  0
   58.5000   29.2074   47.3758 H   0  0  0  0  0  0  0  0  0  0  0  0
   58.2863   31.2322   48.8176 H   0  0  0  0  0  0  0  0  0  0  0  0
   59.6041   31.4111   50.9302 H   0  0  0  0  0  0  0  0  0  0  0  0
   61.1482   29.5651   51.5982 H   0  0  0  0  0  0  0  0  0  0  0  0
   61.4025   27.5582   50.1392 H   0  0  0  0  0  0  0  0  0  0  0  0
   57.1329   26.6272   44.7018 H   0  0  0  0  0  0  0  0  0  0  0  0
   56.7424   28.0199   45.8003 H   0  0  0  0  0  0  0  0  0  0  0  0
   57.7814   28.0510   42.9520 H   0  0  0  0  0  0  0  0  0  0  0  0
   56.3577   28.9169   43.7173 H   0  0  0  0  0  0  0  0  0  0  0  0
   59.2710   31.1769   46.6040 H   0  0  0  0  0  0  0  0  0  0  0  0
   64.2262   31.0385   51.2603 H   0  0  0  0  0  0  0  0  0  0  0  0
  1  2  2  0
  2  3  1  0
  3  4  1  0
  4  5  2  0
  5  6  1  0
  6  7  2  0
  7  8  1  0
  8  9  1  0
  9 10  2  0
  9 11  1  0
 11 12  1  0
 12 13  1  0
 13 14  1  0
 14 15  1  0
 15 16  2  0
 15 17  1  0
 17 18  1  0
 18 19  2  0
 19 20  1  0
 20 21  2  0
 21 22  1  0
 22 23  2  0
 14 24  1  0
 24 25  1  0
  8 26  2  0
  2 27  1  0
 27 28  2  0
 28 29  1  0
 29 30  2  0
 30 31  1  0
 30 32  1  0
 26  4  1  0
 32 27  1  0
 25 11  1  0
 23 18  1  0
  3 33  1  0
  3 34  1  0
  5 35  1  0
  6 36  1  0
  7 37  1  0
 11 38  1  0
 12 39  1  0
 12 40  1  0
 13 41  1  0
 13 42  1  0
 17 43  1  0
 17 44  1  0
 19 45  1  0
 20 46  1  0
 21 47  1  0
 22 48  1  0
 23 49  1  0
 24 50  1  0
 24 51  1  0
 25 52  1  0
 25 53  1  0
 26 54  1  0
 29 55  1  0
M  CHG  1  11   1
M  END
>  <UniqueID>  (78) 
76

>  <SMILES>  (78) 
O=C(Cc1cccc(C(=O)[NH+]2CCN(C(=O)Cc3ccccc3)CC2)c1)c1ncc(Br)s1

>  <Energy>  (78) 
100.19654726360704

>  <Genealogy>  (78) 
O=C(Cc1cccc(C(=O)[NH+]2CCN(C(=O)Cc3ccccc3)CC2)c1)c1ncc(Br)s1 (protonated)
O=C(Cc1cccc(C(=O)[NH+]2CCN(C(=O)Cc3ccccc3)CC2)c1)c1ncc(Br)s1 (3D coordinates assigned)
O=C(Cc1cccc(C(=O)[NH+]2CCN(C(=O)Cc3ccccc3)CC2)c1)c1ncc(Br)s1 (nonaromatic ring conformer: 100.19654726360704 kcal/mol)

>  <smiles>  (78) 
O=C(Cc1cccc(C(=O)N2CCN(C(=O)Cc3ccccc3)CC2)c1)c1ncc(Br)s1

>  <score_type>  (78) 
oracle

>  <origin>  (78) 
adg

>  <m_score__min__energy>  (78) 
-8.6400000000000006

>  <m_primary>  (78) 
energy

$$$$
78:0
     RDKit          3D

 35 37  0  0  0  0  0  0  0  0999 V2000
   59.0410   29.9040   44.4550 O   0  0  0  0  0  0  0  0  0  0  0  0
   57.8230   29.8690   44.7780 C   0  0  0  0  0  0  0  0  0  0  0  0
   57.0520   31.0740   44.6460 N   0  0  0  0  0  0  0  0  0  0  0  0
   57.5120   32.3610   44.1320 C   0  0  0  0  0  0  0  0  0  0  0  0
   58.1350   33.1710   45.2270 C   0  0  0  0  0  0  0  0  0  0  0  0
   58.9140   32.6920   46.2570 C   0  0  0  0  0  0  0  0  0  0  0  0
   59.2310   33.8270   46.9780 C   0  0  0  0  0  0  0  0  0  0  0  0
   60.1120   33.9210   48.1560 C   0  0  0  0  0  0  0  0  0  0  0  0
   59.5800   34.1070   49.2850 O   0  0  0  0  0  0  0  0  0  0  0  0
   61.5430   33.7920   48.0650 N   0  0  0  0  0  0  0  0  0  0  0  0
   62.2360   33.0500   47.0210 C   0  0  0  0  0  0  0  0  0  0  0  0
   63.6060   32.7170   47.5970 C   0  0  0  0  0  0  0  0  0  0  0  0
   63.8170   33.7060   48.7380 C   0  0  0  0  0  0  0  0  0  0  0  0
   62.4210   34.1220   49.1780 C   0  0  0  0  0  0  0  0  0  0  0  0
   58.6710   34.9030   46.3880 N   0  0  0  0  0  0  0  0  0  0  0  0
   58.0150   34.4720   45.3500 O   0  0  0  0  0  0  0  0  0  0  0  0
   57.2590   28.5970   45.2770 C   0  0  0  0  0  0  0  0  0  0  0  0
   58.0070   27.5570   45.8060 C   0  0  0  0  0  0  0  0  0  0  0  0
   57.1140   26.5610   46.1320 C   0  0  0  0  0  0  0  0  0  0  0  0
   55.8760   27.0450   45.7780 C   0  0  0  0  0  0  0  0  0  0  0  0
   54.6830   26.3540   45.9390 O   0  0  0  0  0  0  0  0  0  0  0  0
   55.9490   28.2800   45.2500 N   0  0  0  0  0  0  0  0  0  0  0  0
   58.2562   32.1895   43.3404 H   0  0  0  0  0  0  0  0  0  0  0  0
   56.6494   32.9118   43.7288 H   0  0  0  0  0  0  0  0  0  0  0  0
   59.2128   31.6526   46.4578 H   0  0  0  0  0  0  0  0  0  0  0  0
   61.6878   32.1283   46.7764 H   0  0  0  0  0  0  0  0  0  0  0  0
   62.3156   33.6327   46.0914 H   0  0  0  0  0  0  0  0  0  0  0  0
   63.6239   31.6841   47.9748 H   0  0  0  0  0  0  0  0  0  0  0  0
   64.3984   32.7933   46.8378 H   0  0  0  0  0  0  0  0  0  0  0  0
   64.3548   33.2257   49.5687 H   0  0  0  0  0  0  0  0  0  0  0  0
   64.4203   34.5702   48.4230 H   0  0  0  0  0  0  0  0  0  0  0  0
   62.1220   33.5678   50.0799 H   0  0  0  0  0  0  0  0  0  0  0  0
   62.3759   35.1924   49.4274 H   0  0  0  0  0  0  0  0  0  0  0  0
   59.0986   27.5322   45.9391 H   0  0  0  0  0  0  0  0  0  0  0  0
   57.3426   25.5833   46.5813 H   0  0  0  0  0  0  0  0  0  0  0  0
  1  2  2  0
  2  3  1  0
  3  4  1  0
  4  5  1  0
  5  6  2  0
  6  7  1  0
  7  8  1  0
  8  9  2  0
  8 10  1  0
 10 11  1  0
 11 12  1  0
 12 13  1  0
 13 14  1  0
  7 15  2  0
 15 16  1  0
  2 17  1  0
 17 18  2  0
 18 19  1  0
 19 20  2  0
 20 21  1  0
 20 22  1  0
 16  5  1  0
 22 17  1  0
 14 10  1  0
  4 23  1  0
  4 24  1  0
  6 25  1  0
 11 26  1  0
 11 27  1  0
 12 28  1  0
 12 29  1  0
 13 30  1  0
 13 31  1  0
 14 32  1  0
 14 33  1  0
 18 34  1  0
 19 35  1  0
M  CHG  3   3  -1  21  -1  22  -1
M  END
>  <UniqueID>  (79) 
77

>  <SMILES>  (79) 
O=C([N-]Cc1cc(C(=O)N2CCCC2)no1)c1ccc([O-])[n-]1

>  <Energy>  (79) 
92.06684832731669

>  <Genealogy>  (79) 
O=C([N-]Cc1cc(C(=O)N2CCCC2)no1)c1ccc([O-])[n-]1 (protonated)
O=C([N-]Cc1cc(C(=O)N2CCCC2)no1)c1ccc([O-])[n-]1 (3D coordinates assigned)
O=C([N-]Cc1cc(C(=O)N2CCCC2)no1)c1ccc([O-])[n-]1 (nonaromatic ring conformer: 92.06684832731669 kcal/mol)

>  <smiles>  (79) 
O=C(NCc1cc(C(=O)N2CCCC2)no1)c1ccc(O)[nH]1

>  <score_type>  (79) 
oracle

>  <origin>  (79) 
adg

>  <m_score__min__energy>  (79) 
-14.539999999999999

>  <m_primary>  (79) 
energy

$$$$
79:0
     RDKit          3D

 61 65  0  0  0  0  0  0  0  0999 V2000
   59.3750   28.4190   48.8340 C   0  0  0  0  0  0  0  0  0  0  0  0
   59.0300   29.3020   47.8820 C   0  0  0  0  0  0  0  0  0  0  0  0
   58.5360   29.0240   46.6010 C   0  0  0  0  0  0  0  0  0  0  0  0
   58.3990   27.8610   45.9380 C   0  0  0  0  0  0  0  0  0  0  0  0
   57.2140   26.9990   45.9590 C   0  0  0  0  0  0  0  0  0  0  0  0
   57.2060   25.7490   46.4580 N   0  0  0  0  0  0  0  0  0  0  0  0
   55.9070   25.3880   46.3700 C   0  0  0  0  0  0  0  0  0  0  0  0
   55.4920   24.2550   46.7320 O   0  0  0  0  0  0  0  0  0  0  0  0
   55.0870   26.3370   45.8650 N   0  0  0  0  0  0  0  0  0  0  0  0
   55.9260   27.3540   45.6190 C   0  0  0  0  0  0  0  0  0  0  0  0
   55.5200   28.5850   45.1180 O   0  0  0  0  0  0  0  0  0  0  0  0
   58.1730   30.2410   46.0550 C   0  0  0  0  0  0  0  0  0  0  0  0
   58.5000   31.2220   46.9750 C   0  0  0  0  0  0  0  0  0  0  0  0
   58.3590   32.6900   46.7430 C   0  0  0  0  0  0  0  0  0  0  0  0
   57.2210   33.2290   46.8750 O   0  0  0  0  0  0  0  0  0  0  0  0
   59.5260   33.5140   46.4740 N   0  0  2  0  0  0  0  0  0  0  0  0
   60.7420   32.6590   46.5250 C   0  0  0  0  0  0  0  0  0  0  0  0
   62.0150   33.4750   46.7970 C   0  0  0  0  0  0  0  0  0  0  0  0
   61.9640   34.2040   48.1770 C   0  0  2  0  0  0  0  0  0  0  0  0
   62.7450   33.4480   49.2050 N   0  0  0  0  0  0  0  0  0  0  0  0
   63.0630   34.2460   50.4200 C   0  0  0  0  0  0  0  0  0  0  0  0
   63.8850   33.3980   51.4070 C   0  0  0  0  0  0  0  0  0  0  0  0
   65.0920   32.9610   50.8120 O   0  0  0  0  0  0  0  0  0  0  0  0
   64.7990   32.1570   49.6880 C   0  0  0  0  0  0  0  0  0  0  0  0
   64.0290   32.9630   48.6340 C   0  0  0  0  0  0  0  0  0  0  0  0
   60.4800   34.4560   48.5870 C   0  0  0  0  0  0  0  0  0  0  0  0
   59.6020   34.7110   47.3590 C   0  0  0  0  0  0  0  0  0  0  0  0
   59.0170   30.6470   48.0870 N   0  0  0  0  0  0  0  0  0  0  0  0
   59.2750   31.3150   49.3350 C   0  0  0  0  0  0  0  0  0  0  0  0
   60.5470   31.2560   49.9270 C   0  0  0  0  0  0  0  0  0  0  0  0
   60.7850   31.9090   51.1440 C   0  0  0  0  0  0  0  0  0  0  0  0
   59.7570   32.6200   51.7730 C   0  0  0  0  0  0  0  0  0  0  0  0
   58.4880   32.6770   51.1870 C   0  0  0  0  0  0  0  0  0  0  0  0
   58.2480   32.0340   49.9670 C   0  0  0  0  0  0  0  0  0  0  0  0
   59.7520   28.7753   49.8040 H   0  0  0  0  0  0  0  0  0  0  0  0
   59.2804   27.3398   48.6434 H   0  0  0  0  0  0  0  0  0  0  0  0
   59.2509   27.5283   45.3269 H   0  0  0  0  0  0  0  0  0  0  0  0
   57.7094   30.4005   45.0703 H   0  0  0  0  0  0  0  0  0  0  0  0
   59.4350   33.8860   45.5000 H   0  0  0  0  0  0  0  0  0  0  0  0
   60.6193   31.9163   47.3271 H   0  0  0  0  0  0  0  0  0  0  0  0
   60.8551   32.1743   45.5440 H   0  0  0  0  0  0  0  0  0  0  0  0
   62.8802   32.7958   46.7868 H   0  0  0  0  0  0  0  0  0  0  0  0
   62.0990   34.2417   46.0127 H   0  0  0  0  0  0  0  0  0  0  0  0
   62.4461   35.1895   48.0965 H   0  0  0  0  0  0  0  0  0  0  0  0
   63.6444   35.1339   50.1307 H   0  0  0  0  0  0  0  0  0  0  0  0
   62.1251   34.5555   50.9042 H   0  0  0  0  0  0  0  0  0  0  0  0
   64.1195   34.0042   52.2944 H   0  0  0  0  0  0  0  0  0  0  0  0
   63.2928   32.5155   51.6908 H   0  0  0  0  0  0  0  0  0  0  0  0
   65.7395   31.7930   49.2488 H   0  0  0  0  0  0  0  0  0  0  0  0
   64.1767   31.3093   50.0107 H   0  0  0  0  0  0  0  0  0  0  0  0
   64.6361   33.8243   48.3185 H   0  0  0  0  0  0  0  0  0  0  0  0
   63.8191   32.3182   47.7679 H   0  0  0  0  0  0  0  0  0  0  0  0
   60.1007   33.5730   49.1222 H   0  0  0  0  0  0  0  0  0  0  0  0
   60.4433   35.3460   49.2323 H   0  0  0  0  0  0  0  0  0  0  0  0
   58.5871   34.9705   47.6947 H   0  0  0  0  0  0  0  0  0  0  0  0
   60.0507   35.5338   46.7831 H   0  0  0  0  0  0  0  0  0  0  0  0
   61.3569   30.6971   49.4354 H   0  0  0  0  0  0  0  0  0  0  0  0
   61.7823   31.8625   51.6058 H   0  0  0  0  0  0  0  0  0  0  0  0
   59.9465   33.1335   52.7271 H   0  0  0  0  0  0  0  0  0  0  0  0
   57.6772   33.2281   51.6859 H   0  0  0  0  0  0  0  0  0  0  0  0
   57.2526   32.0922   49.5025 H   0  0  0  0  0  0  0  0  0  0  0  0
  1  2  2  0
  2  3  1  0
  3  4  2  3
  4  5  1  0
  5  6  1  0
  6  7  1  0
  7  8  2  0
  7  9  1  0
  9 10  1  0
 10 11  1  0
  3 12  1  0
 12 13  2  0
 13 14  1  0
 14 15  2  0
 14 16  1  0
 16 17  1  0
 17 18  1  0
 18 19  1  0
 19 20  1  0
 20 21  1  0
 21 22  1  0
 22 23  1  0
 23 24  1  0
 24 25  1  0
 19 26  1  0
 26 27  1  0
 13 28  1  0
 28 29  1  0
 29 30  2  0
 30 31  1  0
 31 32  2  0
 32 33  1  0
 33 34  2  0
 28  2  1  0
 34 29  1  0
 10  5  2  0
 27 16  1  0
 25 20  1  0
  1 35  1  0
  1 36  1  0
  4 37  1  0
 12 38  1  0
 16 39  1  6
 17 40  1  0
 17 41  1  0
 18 42  1  0
 18 43  1  0
 19 44  1  6
 21 45  1  0
 21 46  1  0
 22 47  1  0
 22 48  1  0
 24 49  1  0
 24 50  1  0
 25 51  1  0
 25 52  1  0
 26 53  1  0
 26 54  1  0
 27 55  1  0
 27 56  1  0
 30 57  1  0
 31 58  1  0
 32 59  1  0
 33 60  1  0
 34 61  1  0
M  CHG  4   6  -1   9  -1  11  -1  16   1
M  END
>  <UniqueID>  (80) 
78

>  <SMILES>  (80) 
C=c1c(=Cc2[n-]c(=O)[n-]c2[O-])cc(C(=O)[NH+]2CCC(N3CCOCC3)CC2)n1-c1ccccc1

>  <Energy>  (80) 
166.41496702983258

>  <Genealogy>  (80) 
C=c1c(=Cc2[n-]c(=O)[n-]c2[O-])cc(C(=O)[NH+]2CCC(N3CCOCC3)CC2)n1-c1ccccc1 (protonated)
C=c1c(=Cc2[n-]c(=O)[n-]c2[O-])cc(C(=O)[NH+]2CCC(N3CCOCC3)CC2)n1-c1ccccc1 (3D coordinates assigned)
C=c1c(=Cc2[n-]c(=O)[n-]c2[O-])cc(C(=O)[NH+]2CCC(N3CCOCC3)CC2)n1-c1ccccc1 (nonaromatic ring conformer: 166.41496702983258 kcal/mol)

>  <smiles>  (80) 
C=c1c(=Cc2[nH]c(=O)[nH]c2O)cc(C(=O)N2CCC(N3CCOCC3)CC2)n1-c1ccccc1

>  <score_type>  (80) 
oracle

>  <origin>  (80) 
adg

>  <m_score__min__energy>  (80) 
-17.120000000000001

>  <m_primary>  (80) 
energy

$$$$
80:0
     RDKit          3D

 52 55  0  0  1  0  0  0  0  0999 V2000
   57.8140   32.6140   42.4120 C   0  0  0  0  0  0  0  0  0  0  0  0
   57.6590   31.5630   43.4520 C   0  0  0  0  0  0  0  0  0  0  0  0
   57.6640   30.2240   43.3120 N   0  0  0  0  0  0  0  0  0  0  0  0
   57.5010   29.6090   44.4830 C   0  0  0  0  0  0  0  0  0  0  0  0
   57.4680   28.1530   44.7360 C   0  0  0  0  0  0  0  0  0  0  0  0
   57.1400   27.6250   45.9620 C   0  0  0  0  0  0  0  0  0  0  0  0
   57.1350   26.2790   46.1750 C   0  0  0  0  0  0  0  0  0  0  0  0
   57.4600   25.3980   45.1670 C   0  0  0  0  0  0  0  0  0  0  0  0
   57.4720   23.9430   45.4370 C   0  0  0  0  0  0  0  0  0  0  0  0
   56.1960   23.3440   45.5980 N   0  0  0  0  0  0  0  0  0  0  0  0
   55.1260   23.8490   44.8030 C   0  0  0  0  0  0  0  0  0  0  0  0
   55.0850   23.3440   43.3860 C   0  0  0  0  0  0  0  0  0  0  0  0
   56.2300   22.6830   42.9960 O   0  0  0  0  0  0  0  0  0  0  0  0
   56.6750   21.7080   43.8590 C   0  0  0  0  0  0  0  0  0  0  0  0
   56.3110   21.9250   45.3030 C   0  0  0  0  0  0  0  0  0  0  0  0
   57.7920   25.9310   43.9210 C   0  0  0  0  0  0  0  0  0  0  0  0
   57.7940   27.2930   43.7140 C   0  0  0  0  0  0  0  0  0  0  0  0
   57.3840   30.5670   45.4340 N   0  0  0  0  0  0  0  0  0  0  0  0
   57.4790   31.7870   44.8240 C   0  0  0  0  0  0  0  0  0  0  0  0
   57.4150   33.1020   45.4860 C   0  0  0  0  0  0  0  0  0  0  0  0
   56.9880   34.1280   44.9130 O   0  0  0  0  0  0  0  0  0  0  0  0
   57.8680   33.1680   46.8330 N   0  0  0  0  0  0  0  0  0  0  0  0
   59.1360   33.0140   47.0650 C   0  0  0  0  0  0  0  0  0  0  0  0
   59.6030   31.9160   47.7040 N   0  0  0  0  0  0  0  0  0  0  0  0
   60.9170   31.7490   47.9550 C   0  0  0  0  0  0  0  0  0  0  0  0
   61.8080   32.7060   47.5570 C   0  0  0  0  0  0  0  0  0  0  0  0
   61.3480   33.8410   46.8970 C   0  0  0  0  0  0  0  0  0  0  0  0
   59.9960   34.0160   46.6380 C   0  0  0  0  0  0  0  0  0  0  0  0
   59.5640   35.1540   45.9780 O   0  0  0  0  0  0  0  0  0  0  0  0
   57.9581   33.5909   42.8966 H   0  0  0  0  0  0  0  0  0  0  0  0
   58.6878   32.3833   41.7850 H   0  0  0  0  0  0  0  0  0  0  0  0
   56.9108   32.6454   41.7850 H   0  0  0  0  0  0  0  0  0  0  0  0
   57.7780   29.7020   42.4120 H   0  0  0  0  0  0  0  0  0  0  0  0
   56.8763   28.3024   46.7876 H   0  0  0  0  0  0  0  0  0  0  0  0
   56.8670   25.8895   47.1682 H   0  0  0  0  0  0  0  0  0  0  0  0
   57.9767   23.4457   44.5956 H   0  0  0  0  0  0  0  0  0  0  0  0
   57.9897   23.8173   46.3994 H   0  0  0  0  0  0  0  0  0  0  0  0
   54.1798   23.5713   45.2904 H   0  0  0  0  0  0  0  0  0  0  0  0
   55.2837   24.9355   44.7347 H   0  0  0  0  0  0  0  0  0  0  0  0
   54.2354   22.6520   43.2892 H   0  0  0  0  0  0  0  0  0  0  0  0
   54.9874   24.2255   42.7352 H   0  0  0  0  0  0  0  0  0  0  0  0
   56.2458   20.7470   43.5392 H   0  0  0  0  0  0  0  0  0  0  0  0
   57.7737   21.7320   43.8111 H   0  0  0  0  0  0  0  0  0  0  0  0
   55.3486   21.4343   45.5101 H   0  0  0  0  0  0  0  0  0  0  0  0
   57.1028   21.4962   45.9348 H   0  0  0  0  0  0  0  0  0  0  0  0
   58.0554   25.2554   43.0938 H   0  0  0  0  0  0  0  0  0  0  0  0
   58.0581   27.6950   42.7247 H   0  0  0  0  0  0  0  0  0  0  0  0
   58.9710   31.1550   48.0280 H   0  0  0  0  0  0  0  0  0  0  0  0
   61.2701   30.8476   48.4772 H   0  0  0  0  0  0  0  0  0  0  0  0
   62.8822   32.5795   47.7573 H   0  0  0  0  0  0  0  0  0  0  0  0
   62.0658   34.6102   46.5761 H   0  0  0  0  0  0  0  0  0  0  0  0
   58.6460   35.3050   45.6370 H   0  0  0  0  0  0  0  0  0  0  0  0
  1  2  1  0
  2  3  1  0
  3  4  1  0
  4  5  1  0
  5  6  2  0
  6  7  1  0
  7  8  2  0
  8  9  1  0
  9 10  1  0
 10 11  1  0
 11 12  1  0
 12 13  1  0
 13 14  1  0
 14 15  1  0
  8 16  1  0
 16 17  2  0
  4 18  2  0
 18 19  1  0
 19 20  1  0
 20 21  2  0
 20 22  1  0
 22 23  2  0
 23 24  1  0
 24 25  1  0
 25 26  2  0
 26 27  1  0
 27 28  2  0
 28 29  1  0
 19  2  2  0
 28 23  1  0
 17  5  1  0
 15 10  1  0
  1 30  1  0
  1 31  1  0
  1 32  1  0
  3 33  1  0
  6 34  1  0
  7 35  1  0
  9 36  1  0
  9 37  1  0
 11 38  1  0
 11 39  1  0
 12 40  1  0
 12 41  1  0
 14 42  1  0
 14 43  1  0
 15 44  1  0
 15 45  1  0
 16 46  1  0
 17 47  1  0
 24 48  1  0
 25 49  1  0
 26 50  1  0
 27 51  1  0
 29 52  1  0
M  END
>  <smiles>  (81) 
Cc1[nH]c(-c2ccc(CN3CCOCC3)cc2)nc1C(=O)N=c1[nH]cccc1O

>  <score_type>  (81) 
oracle

>  <origin>  (81) 
adg

>  <m_score__min__energy>  (81) 
-8.8900000000000006

>  <m_primary>  (81) 
energy

$$$$
81:0
     RDKit          3D

 35 37  0  0  0  0  0  0  0  0999 V2000
   59.1490   35.4320   44.8060 O   0  0  0  0  0  0  0  0  0  0  0  0
   58.9050   34.5340   45.6600 C   0  0  0  0  0  0  0  0  0  0  0  0
   57.7030   33.7510   45.5700 N   0  0  0  0  0  0  0  0  0  0  0  0
   57.6340   32.4570   45.4700 C   0  0  0  0  0  0  0  0  0  0  0  0
   56.6210   31.7880   44.8710 N   0  0  0  0  0  0  0  0  0  0  0  0
   56.7870   30.4670   44.8960 N   0  0  0  0  0  0  0  0  0  0  0  0
   57.9270   30.0890   45.5140 C   0  0  0  0  0  0  0  0  0  0  0  0
   58.4380   28.4210   45.6760 S   0  0  0  0  0  0  0  0  0  0  0  0
   59.7820   28.2610   45.0230 O   0  0  0  0  0  0  0  0  0  0  0  0
   58.5510   28.0520   47.1290 O   0  0  0  0  0  0  0  0  0  0  0  0
   57.2920   27.3740   44.9020 N   0  0  0  0  0  0  0  0  0  0  0  0
   57.0120   26.0310   45.3420 C   0  0  0  0  0  0  0  0  0  0  0  0
   57.9720   25.0060   45.2250 C   0  0  0  0  0  0  0  0  0  0  0  0
   57.6810   23.7100   45.6580 C   0  0  0  0  0  0  0  0  0  0  0  0
   56.4320   23.4190   46.2080 C   0  0  0  0  0  0  0  0  0  0  0  0
   55.4680   24.4220   46.3210 C   0  0  0  0  0  0  0  0  0  0  0  0
   55.7500   25.7220   45.8900 C   0  0  0  0  0  0  0  0  0  0  0  0
   54.7750   26.7060   46.0170 O   0  0  0  0  0  0  0  0  0  0  0  0
   58.8080   31.4140   46.0710 S   0  0  0  0  0  0  0  0  0  0  0  0
   59.8680   34.2830   46.7580 C   0  0  0  0  0  0  0  0  0  0  0  0
   59.4840   34.4610   48.1010 C   0  0  0  0  0  0  0  0  0  0  0  0
   60.3950   34.2290   49.1360 C   0  0  0  0  0  0  0  0  0  0  0  0
   61.6980   33.8180   48.8440 C   0  0  0  0  0  0  0  0  0  0  0  0
   62.0920   33.6360   47.5160 C   0  0  0  0  0  0  0  0  0  0  0  0
   63.7290   33.1210   47.1530 Cl  0  0  0  0  0  0  0  0  0  0  0  0
   61.1850   33.8670   46.4770 C   0  0  0  0  0  0  0  0  0  0  0  0
   56.7190   27.7940   44.1370 H   0  0  0  0  0  0  0  0  0  0  0  0
   58.9575   25.2279   44.7896 H   0  0  0  0  0  0  0  0  0  0  0  0
   58.4380   22.9173   45.5652 H   0  0  0  0  0  0  0  0  0  0  0  0
   56.2071   22.3989   46.5526 H   0  0  0  0  0  0  0  0  0  0  0  0
   54.4826   24.1889   46.7508 H   0  0  0  0  0  0  0  0  0  0  0  0
   58.4598   34.7850   48.3376 H   0  0  0  0  0  0  0  0  0  0  0  0
   60.0853   34.3703   50.1820 H   0  0  0  0  0  0  0  0  0  0  0  0
   62.4137   33.6377   49.6597 H   0  0  0  0  0  0  0  0  0  0  0  0
   61.5015   33.7231   45.4334 H   0  0  0  0  0  0  0  0  0  0  0  0
  1  2  2  0
  2  3  1  0
  3  4  2  3
  4  5  1  0
  5  6  1  0
  6  7  2  0
  7  8  1  0
  8  9  2  0
  8 10  2  0
  8 11  1  0
 11 12  1  0
 12 13  2  0
 13 14  1  0
 14 15  2  0
 15 16  1  0
 16 17  2  0
 17 18  1  0
  7 19  1  0
  2 20  1  0
 20 21  2  0
 21 22  1  0
 22 23  2  0
 23 24  1  0
 24 25  1  0
 24 26  2  0
 19  4  1  0
 26 20  1  0
 17 12  1  0
 11 27  1  0
 13 28  1  0
 14 29  1  0
 15 30  1  0
 16 31  1  0
 21 32  1  0
 22 33  1  0
 23 34  1  0
 26 35  1  0
M  CHG  2   5  -1  18  -1
M  END
>  <UniqueID>  (82) 
79

>  <SMILES>  (82) 
O=C(N=c1[n-]nc(S(=O)(=O)Nc2ccccc2[O-])s1)c1cccc(Cl)c1

>  <Energy>  (82) 
78.59186585336965

>  <Genealogy>  (82) 
O=C(N=c1[n-]nc(S(=O)(=O)Nc2ccccc2[O-])s1)c1cccc(Cl)c1 (protonated)
O=C(N=c1[n-]nc(S(=O)(=O)Nc2ccccc2[O-])s1)c1cccc(Cl)c1 (3D coordinates assigned)
O=C(N=c1[n-]nc(S(=O)(=O)Nc2ccccc2[O-])s1)c1cccc(Cl)c1 (optimized conformer: 78.59186585336965 kcal/mol)

>  <smiles>  (82) 
O=C(N=c1[nH]nc(S(=O)(=O)Nc2ccccc2O)s1)c1cccc(Cl)c1

>  <score_type>  (82) 
oracle

>  <origin>  (82) 
adg

>  <m_score__min__energy>  (82) 
-14.85

>  <m_primary>  (82) 
energy

$$$$
82:0
     RDKit          3D

 39 42  0  0  0  0  0  0  0  0999 V2000
   53.6560   25.9610   46.4000 H   0  0  0  0  0  0  0  0  0  0  0  0
   53.9370   25.4240   45.5890 O   0  0  0  0  0  0  0  0  0  0  0  0
   53.9130   24.0320   45.6180 C   0  0  0  0  0  0  0  0  0  0  0  0
   52.7940   23.3090   45.7910 N   0  0  0  0  0  0  0  0  0  0  0  0
   53.2610   22.0430   45.8190 C   0  0  0  0  0  0  0  0  0  0  0  0
   52.5090   21.0460   45.9740 O   0  0  0  0  0  0  0  0  0  0  0  0
   54.6000   21.9290   45.6780 N   0  0  0  0  0  0  0  0  0  0  0  0
   55.0080   23.2010   45.5240 C   0  0  0  0  0  0  0  0  0  0  0  0
   56.4260   23.5870   45.4130 C   0  0  0  0  0  0  0  0  0  0  0  0
   57.1870   22.8507   45.7107 H   0  0  0  0  0  0  0  0  0  0  0  0
   56.8460   24.7870   44.9690 C   0  0  0  0  0  0  0  0  0  0  0  0
   57.4710   25.0450   43.7540 C   0  0  0  0  0  0  0  0  0  0  0  0
   57.6922   24.3159   42.9606 H   0  0  0  0  0  0  0  0  0  0  0  0
   57.7600   26.3960   43.7380 C   0  0  0  0  0  0  0  0  0  0  0  0
   58.4750   27.1100   42.6330 C   0  0  0  0  0  0  0  0  0  0  0  0
   59.1916   27.8256   43.0623 H   0  0  0  0  0  0  0  0  0  0  0  0
   59.0139   26.3789   42.0125 H   0  0  0  0  0  0  0  0  0  0  0  0
   57.7447   27.6500   42.0125 H   0  0  0  0  0  0  0  0  0  0  0  0
   57.3510   26.9760   44.8850 N   0  0  0  0  0  0  0  0  0  0  0  0
   57.5220   28.3580   45.2270 C   0  0  0  0  0  0  0  0  0  0  0  0
   56.5400   29.3330   45.2160 C   0  0  0  0  0  0  0  0  0  0  0  0
   55.2130   29.1170   44.8700 O   0  0  0  0  0  0  0  0  0  0  0  0
   57.0260   30.5420   45.5830 N   0  0  0  0  0  0  0  0  0  0  0  0
   58.3300   30.3010   45.8260 C   0  0  0  0  0  0  0  0  0  0  0  0
   59.2330   31.2290   46.2290 N   0  0  0  0  0  0  0  0  0  0  0  0
   60.5280   30.8540   46.4460 C   0  0  0  0  0  0  0  0  0  0  0  0
   61.2652   31.6036   46.7696 H   0  0  0  0  0  0  0  0  0  0  0  0
   60.9300   29.5130   46.2590 C   0  0  0  0  0  0  0  0  0  0  0  0
   61.9765   29.2236   46.4355 H   0  0  0  0  0  0  0  0  0  0  0  0
   59.9910   28.5440   45.8460 C   0  0  0  0  0  0  0  0  0  0  0  0
   60.3960   27.1130   45.6470 C   0  0  0  0  0  0  0  0  0  0  0  0
   60.5324   26.6310   46.6263 H   0  0  0  0  0  0  0  0  0  0  0  0
   59.6120   26.5849   45.0844 H   0  0  0  0  0  0  0  0  0  0  0  0
   61.3404   27.0741   45.0844 H   0  0  0  0  0  0  0  0  0  0  0  0
   58.6800   28.9880   45.6260 C   0  0  0  0  0  0  0  0  0  0  0  0
   56.7990   26.0060   45.6530 C   0  0  0  0  0  0  0  0  0  0  0  0
   56.2910   26.2210   46.8750 C   0  0  0  0  0  0  0  0  0  0  0  0
   56.3121   27.2313   47.3095 H   0  0  0  0  0  0  0  0  0  0  0  0
   55.8531   25.3871   47.4431 H   0  0  0  0  0  0  0  0  0  0  0  0
  1  2  1  0
  2  3  1  0
  3  4  1  0
  4  5  1  0
  5  6  2  0
  5  7  1  0
  7  8  1  0
  8  9  1  0
  9 10  1  0
  9 11  2  0
 11 12  1  0
 12 13  1  0
 12 14  2  0
 14 15  1  0
 15 16  1  0
 15 17  1  0
 15 18  1  0
 14 19  1  0
 19 20  1  0
 20 21  2  0
 21 22  1  0
 21 23  1  0
 23 24  1  0
 24 25  2  0
 25 26  1  0
 26 27  1  0
 26 28  2  0
 28 29  1  0
 28 30  1  0
 30 31  1  0
 31 32  1  0
 31 33  1  0
 31 34  1  0
 30 35  2  0
 19 36  1  0
 36 37  2  0
 37 38  1  0
 37 39  1  0
  8  3  2  0
 36 11  1  0
 35 20  1  0
 35 24  1  0
M  CHG  4   4  -1   7  -1  22  -1  23  -1
M  END
>  <UniqueID>  (83) 
80

>  <SMILES>  (83) 
C=c1/c(=C/c2[n-]c(=O)[n-]c2O)cc(C)n1-c1c([O-])[n-]c2nccc(C)c12

>  <Energy>  (83) 
148.40549050840525

>  <Genealogy>  (83) 
C=c1c(=Cc2[n-]c(=O)[n-]c2O)cc(C)n1-c1c([O-])[n-]c2nccc(C)c12 (protonated)
C=c1/c(=C/c2[n-]c(=O)[n-]c2O)cc(C)n1-c1c([O-])[n-]c2nccc(C)c12 (cis-trans isomerization)
C=c1/c(=C/c2[n-]c(=O)[n-]c2O)cc(C)n1-c1c([O-])[n-]c2nccc(C)c12 (3D coordinates assigned)
C=c1/c(=C/c2[n-]c(=O)[n-]c2O)cc(C)n1-c1c([O-])[n-]c2nccc(C)c12 (optimized conformer: 148.40549050840525 kcal/mol)

>  <smiles>  (83) 
C=c1c(=Cc2[nH]c(=O)[nH]c2O)cc(C)n1-c1c(O)[nH]c2nccc(C)c12

>  <score_type>  (83) 
oracle

>  <origin>  (83) 
adg

>  <m_score__min__energy>  (83) 
-15.029999999999999

>  <m_primary>  (83) 
energy

$$$$
83:0
     RDKit          3D

 35 37  0  0  0  0  0  0  0  0999 V2000
   58.6917   30.0627   50.4902 H   0  0  0  0  0  0  0  0  0  0  0  0
   58.8790   30.6840   49.6020 C   0  0  0  0  0  0  0  0  0  0  0  0
   59.2165   30.2167   48.6651 H   0  0  0  0  0  0  0  0  0  0  0  0
   58.6970   32.0030   49.6610 C   0  0  0  0  0  0  0  0  0  0  0  0
   58.3590   32.4369   50.6136 H   0  0  0  0  0  0  0  0  0  0  0  0
   58.9240   32.9220   48.5150 C   0  0  0  0  0  0  0  0  0  0  0  0
   58.0920   32.9050   47.3760 C   0  0  0  0  0  0  0  0  0  0  0  0
   57.2516   32.1969   47.3280 H   0  0  0  0  0  0  0  0  0  0  0  0
   58.3230   33.7810   46.3020 C   0  0  0  0  0  0  0  0  0  0  0  0
   57.4350   33.7290   45.1160 C   0  0  0  0  0  0  0  0  0  0  0  0
   56.7050   34.7230   44.8570 O   0  0  0  0  0  0  0  0  0  0  0  0
   57.4020   32.6010   44.2250 N   0  0  0  0  0  0  0  0  0  0  0  0
   57.2060   31.3580   44.5590 C   0  0  0  0  0  0  0  0  0  0  0  0
   55.9660   30.7960   44.4950 N   0  0  0  0  0  0  0  0  0  0  0  0
   55.7400   29.4980   44.8280 C   0  0  0  0  0  0  0  0  0  0  0  0
   54.7215   29.0867   44.7685 H   0  0  0  0  0  0  0  0  0  0  0  0
   56.8020   28.6790   45.2480 C   0  0  0  0  0  0  0  0  0  0  0  0
   56.5920   27.2570   45.6200 C   0  0  0  0  0  0  0  0  0  0  0  0
   55.3670   26.7100   45.7780 N   0  0  0  0  0  0  0  0  0  0  0  0
   55.5930   25.4250   46.1070 C   0  0  0  0  0  0  0  0  0  0  0  0
   54.5770   24.5120   46.3580 O   0  0  0  0  0  0  0  0  0  0  0  0
   56.9360   25.1360   46.1630 C   0  0  0  0  0  0  0  0  0  0  0  0
   57.3976   24.1678   46.4072 H   0  0  0  0  0  0  0  0  0  0  0  0
   57.5830   26.3100   45.8500 C   0  0  0  0  0  0  0  0  0  0  0  0
   58.6702   26.4676   45.7931 H   0  0  0  0  0  0  0  0  0  0  0  0
   58.0890   29.2400   45.3070 C   0  0  0  0  0  0  0  0  0  0  0  0
   58.9406   28.6223   45.6284 H   0  0  0  0  0  0  0  0  0  0  0  0
   58.2930   30.5770   44.9600 C   0  0  0  0  0  0  0  0  0  0  0  0
   59.3023   31.0124   45.0020 H   0  0  0  0  0  0  0  0  0  0  0  0
   59.3720   34.7140   46.3870 C   0  0  0  0  0  0  0  0  0  0  0  0
   59.5960   35.6320   45.3660 O   0  0  0  0  0  0  0  0  0  0  0  0
   60.1920   34.7430   47.5170 C   0  0  0  0  0  0  0  0  0  0  0  0
   61.0165   35.4688   47.5746 H   0  0  0  0  0  0  0  0  0  0  0  0
   59.9730   33.8570   48.5750 C   0  0  0  0  0  0  0  0  0  0  0  0
   60.8130   33.9130   49.6840 O   0  0  0  0  0  0  0  0  0  0  0  0
  1  2  1  0
  2  3  1  0
  2  4  2  0
  4  5  1  0
  4  6  1  0
  6  7  2  0
  7  8  1  0
  7  9  1  0
  9 10  1  0
 10 11  2  0
 10 12  1  0
 12 13  2  0
 13 14  1  0
 14 15  1  0
 15 16  1  0
 15 17  2  0
 17 18  1  0
 18 19  1  0
 19 20  1  0
 20 21  1  0
 20 22  2  0
 22 23  1  0
 22 24  1  0
 24 25  1  0
 17 26  1  0
 26 27  1  0
 26 28  2  0
 28 29  1  0
  9 30  2  0
 30 31  1  0
 30 32  1  0
 32 33  1  0
 32 34  2  0
 34 35  1  0
 34  6  1  0
 28 13  1  0
 24 18  2  0
M  CHG  5  14  -1  19  -1  21  -1  31  -1  35  -1
M  END
>  <UniqueID>  (84) 
81

>  <SMILES>  (84) 
C=Cc1cc(C(=O)/N=c2/ccc(-c3ccc([O-])[n-]3)c[n-]2)c([O-])cc1[O-]

>  <Energy>  (84) 
77.16677890874975

>  <Genealogy>  (84) 
C=Cc1cc(C(=O)N=c2ccc(-c3ccc([O-])[n-]3)c[n-]2)c([O-])cc1[O-] (protonated)
C=Cc1cc(C(=O)/N=c2/ccc(-c3ccc([O-])[n-]3)c[n-]2)c([O-])cc1[O-] (cis-trans isomerization)
C=Cc1cc(C(=O)/N=c2/ccc(-c3ccc([O-])[n-]3)c[n-]2)c([O-])cc1[O-] (3D coordinates assigned)
C=Cc1cc(C(=O)/N=c2/ccc(-c3ccc([O-])[n-]3)c[n-]2)c([O-])cc1[O-] (optimized conformer: 77.16677890874975 kcal/mol)

>  <smiles>  (84) 
C=Cc1cc(C(=O)N=c2ccc(-c3ccc(O)[nH]3)c[nH]2)c(O)cc1O

>  <score_type>  (84) 
oracle

>  <origin>  (84) 
adg

>  <m_score__min__energy>  (84) 
-15.460000000000001

>  <m_primary>  (84) 
energy

$$$$
84:0
     RDKit          3D

 44 46  0  0  0  0  0  0  0  0999 V2000
   56.5310   29.7360   45.2630 N   0  0  0  0  0  0  0  0  0  0  0  0
   57.7520   29.5940   45.9870 C   0  0  0  0  0  0  0  0  0  0  0  0
   58.4510   28.5570   45.8150 O   0  0  0  0  0  0  0  0  0  0  0  0
   58.1970   30.6460   46.9320 C   0  0  0  0  0  0  0  0  0  0  0  0
   58.0920   32.0070   46.5860 C   0  0  0  0  0  0  0  0  0  0  0  0
   58.5150   33.0000   47.4750 C   0  0  0  0  0  0  0  0  0  0  0  0
   59.0520   32.6490   48.7150 C   0  0  0  0  0  0  0  0  0  0  0  0
   59.1750   31.3010   49.0690 C   0  0  0  0  0  0  0  0  0  0  0  0
   59.7440   30.9320   50.3740 C   0  0  0  0  0  0  0  0  0  0  0  0
   61.0340   30.5040   50.4050 N   0  0  0  0  0  0  0  0  0  0  0  0
   61.6220   30.1160   51.5620 C   0  0  0  0  0  0  0  0  0  0  0  0
   62.8180   29.7270   51.5600 O   0  0  0  0  0  0  0  0  0  0  0  0
   60.9230   30.1480   52.7220 N   0  0  0  0  0  0  0  0  0  0  0  0
   59.6310   30.5670   52.7570 C   0  0  0  0  0  0  0  0  0  0  0  0
   58.9830   30.6130   53.9840 O   0  0  0  0  0  0  0  0  0  0  0  0
   58.9850   30.9750   51.5710 C   0  0  0  0  0  0  0  0  0  0  0  0
   57.5780   31.4720   51.5770 C   0  0  0  0  0  0  0  0  0  0  0  0
   57.0930   31.9590   50.5190 O   0  0  0  0  0  0  0  0  0  0  0  0
   56.7030   31.4400   52.8050 C   0  0  0  0  0  0  0  0  0  0  0  0
   55.8860   30.1750   52.8830 C   0  0  0  0  0  0  0  0  0  0  0  0
   56.0550   29.2920   52.0000 O   0  0  0  0  0  0  0  0  0  0  0  0
   54.8090   29.9720   53.8760 C   0  0  0  0  0  0  0  0  0  0  0  0
   53.4990   29.8620   53.6050 C   0  0  0  0  0  0  0  0  0  0  0  0
   52.7940   30.5710   52.5220 C   0  0  0  0  0  0  0  0  0  0  0  0
   52.8020   30.0340   51.2260 C   0  0  0  0  0  0  0  0  0  0  0  0
   52.1160   30.6790   50.1940 C   0  0  0  0  0  0  0  0  0  0  0  0
   51.3950   31.8500   50.4540 C   0  0  0  0  0  0  0  0  0  0  0  0
   50.7070   32.4810   49.4230 O   0  0  0  0  0  0  0  0  0  0  0  0
   51.3620   32.3770   51.7500 C   0  0  0  0  0  0  0  0  0  0  0  0
   50.6390   33.5340   52.0150 O   0  0  0  0  0  0  0  0  0  0  0  0
   52.0530   31.7360   52.7840 C   0  0  0  0  0  0  0  0  0  0  0  0
   58.7390   30.3020   48.1850 C   0  0  0  0  0  0  0  0  0  0  0  0
   55.6390   29.3300   45.6270 H   0  0  0  0  0  0  0  0  0  0  0  0
   57.6740   32.2911   45.6090 H   0  0  0  0  0  0  0  0  0  0  0  0
   58.4244   34.0603   47.1967 H   0  0  0  0  0  0  0  0  0  0  0  0
   59.3786   33.4328   49.4142 H   0  0  0  0  0  0  0  0  0  0  0  0
   57.3417   31.5060   53.6981 H   0  0  0  0  0  0  0  0  0  0  0  0
   56.0079   32.2908   52.7495 H   0  0  0  0  0  0  0  0  0  0  0  0
   55.1086   29.9051   54.9323 H   0  0  0  0  0  0  0  0  0  0  0  0
   52.9047   29.1897   54.2413 H   0  0  0  0  0  0  0  0  0  0  0  0
   53.3500   29.1023   51.0218 H   0  0  0  0  0  0  0  0  0  0  0  0
   52.1426   30.2656   49.1750 H   0  0  0  0  0  0  0  0  0  0  0  0
   52.0162   32.1449   53.8045 H   0  0  0  0  0  0  0  0  0  0  0  0
   58.8213   29.2435   48.4729 H   0  0  0  0  0  0  0  0  0  0  0  0
  1  2  1  0
  2  3  2  0
  2  4  1  0
  4  5  2  0
  5  6  1  0
  6  7  2  0
  7  8  1  0
  8  9  1  0
  9 10  2  0
 10 11  1  0
 11 12  2  0
 11 13  1  0
 13 14  1  0
 14 15  1  0
 14 16  2  0
 16 17  1  0
 17 18  2  0
 17 19  1  0
 19 20  1  0
 20 21  2  0
 20 22  1  0
 22 23  2  3
 23 24  1  0
 24 25  2  0
 25 26  1  0
 26 27  2  0
 27 28  1  0
 27 29  1  0
 29 30  1  0
 29 31  2  0
  8 32  2  0
 32  4  1  0
 16  9  1  0
 31 24  1  0
  1 33  1  0
  5 34  1  0
  6 35  1  0
  7 36  1  0
 19 37  1  0
 19 38  1  0
 22 39  1  0
 23 40  1  0
 25 41  1  0
 26 42  1  0
 31 43  1  0
 32 44  1  0
M  CHG  5   1  -1  13  -1  15  -1  28  -1  30  -1
M  END
>  <UniqueID>  (85) 
82

>  <SMILES>  (85) 
[NH-]C(=O)c1cccc(-c2nc(=O)[n-]c([O-])c2C(=O)CC(=O)C=Cc2ccc([O-])c([O-])c2)c1

>  <Energy>  (85) 
69.05763059112628

>  <Genealogy>  (85) 
[NH-]C(=O)c1cccc(-c2nc(=O)[n-]c([O-])c2C(=O)CC(=O)C=Cc2ccc([O-])c([O-])c2)c1 (protonated)
[NH-]C(=O)c1cccc(-c2nc(=O)[n-]c([O-])c2C(=O)CC(=O)C=Cc2ccc([O-])c([O-])c2)c1 (3D coordinates assigned)
[NH-]C(=O)c1cccc(-c2nc(=O)[n-]c([O-])c2C(=O)CC(=O)C=Cc2ccc([O-])c([O-])c2)c1 (optimized conformer: 69.05763059112628 kcal/mol)

>  <smiles>  (85) 
NC(=O)c1cccc(-c2nc(=O)[nH]c(O)c2C(=O)CC(=O)C=Cc2ccc(O)c(O)c2)c1

>  <score_type>  (85) 
oracle

>  <origin>  (85) 
adg

>  <m_score__min__energy>  (85) 
-21.010000000000002

>  <m_primary>  (85) 
energy

$$$$
85:0
     RDKit          3D

 94 98  0  0  0  0  0  0  0  0999 V2000
   54.8240   24.4420   44.9330 C   0  0  0  0  0  0  0  0  0  0  0  0
   55.4020   25.2760   46.0390 C   0  0  0  0  0  0  0  0  0  0  0  0
   55.7330   24.7120   47.1140 O   0  0  0  0  0  0  0  0  0  0  0  0
   55.4950   26.7040   45.9500 N   0  0  0  0  0  0  0  0  0  0  0  0
   56.5690   27.4610   45.3700 C   0  0  0  0  0  0  0  0  0  0  0  0
   56.4530   28.8520   45.1980 C   0  0  0  0  0  0  0  0  0  0  0  0
   57.4490   29.5770   44.5220 C   0  0  0  0  0  0  0  0  0  0  0  0
   57.3480   31.0670   44.3630 C   0  0  0  0  0  0  0  0  0  0  0  0
   57.0860   31.6550   45.6340 O   0  0  0  0  0  0  0  0  0  0  0  0
   57.9150   32.5950   46.2640 C   0  0  0  0  0  0  0  0  0  0  0  0
   57.7590   33.9470   45.9360 C   0  0  0  0  0  0  0  0  0  0  0  0
   58.5430   34.9190   46.5610 C   0  0  0  0  0  0  0  0  0  0  0  0
   59.5020   34.5500   47.5060 C   0  0  0  0  0  0  0  0  0  0  0  0
   59.6940   33.2010   47.8290 C   0  0  0  0  0  0  0  0  0  0  0  0
   60.6650   32.8490   48.8260 N   0  0  0  0  0  0  0  0  0  0  0  0
   61.7110   33.7280   49.2700 C   0  0  0  0  0  0  0  0  0  0  0  0
   61.6640   34.9600   49.0050 O   0  0  0  0  0  0  0  0  0  0  0  0
   62.8480   33.1950   50.1030 C   0  0  0  0  0  0  0  0  0  0  0  0
   64.1560   33.1890   49.2820 C   0  0  0  0  0  0  0  0  0  0  0  0
   65.3080   32.5790   50.0950 C   0  0  0  0  0  0  0  0  0  0  0  0
   64.9060   31.3210   50.7470 N   0  0  0  0  0  0  0  0  0  0  0  0
   65.8350   30.6780   51.6420 C   0  0  0  0  0  0  0  0  0  0  0  0
   67.0740   30.8300   51.4570 O   0  0  0  0  0  0  0  0  0  0  0  0
   65.3580   29.8100   52.7810 C   0  0  0  0  0  0  0  0  0  0  0  0
   66.4660   28.8820   53.3040 C   0  0  0  0  0  0  0  0  0  0  0  0
   66.9980   28.0190   52.1920 C   0  0  0  0  0  0  0  0  0  0  0  0
   68.3130   28.1910   51.7250 C   0  0  0  0  0  0  0  0  0  0  0  0
   68.7970   27.4080   50.6730 C   0  0  0  0  0  0  0  0  0  0  0  0
   67.9700   26.4520   50.0740 C   0  0  0  0  0  0  0  0  0  0  0  0
   66.6580   26.2730   50.5310 C   0  0  0  0  0  0  0  0  0  0  0  0
   66.1710   27.0560   51.5830 C   0  0  0  0  0  0  0  0  0  0  0  0
   63.5830   30.7520   50.4570 C   0  0  0  0  0  0  0  0  0  0  0  0
   62.5020   31.8060   50.7160 C   0  0  0  0  0  0  0  0  0  0  0  0
   58.8870   32.2240   47.2150 C   0  0  0  0  0  0  0  0  0  0  0  0
   58.5510   28.8960   43.9880 C   0  0  0  0  0  0  0  0  0  0  0  0
   58.6610   27.5130   44.1330 C   0  0  0  0  0  0  0  0  0  0  0  0
   57.6930   26.7910   44.8370 C   0  0  0  0  0  0  0  0  0  0  0  0
   57.8600   25.3700   44.9540 N   0  0  0  0  0  0  0  0  0  0  0  0
   58.7850   24.7140   45.8280 C   0  0  0  0  0  0  0  0  0  0  0  0
   58.5030   23.5870   46.3230 O   0  0  0  0  0  0  0  0  0  0  0  0
   60.0920   25.3890   46.1400 C   0  0  0  0  0  0  0  0  0  0  0  0
   60.0740   26.1180   47.4930 C   0  0  0  0  0  0  0  0  0  0  0  0
   58.8810   27.0960   47.5730 C   0  0  0  0  0  0  0  0  0  0  0  0
   59.2550   28.5240   47.4570 N   0  0  0  0  0  0  0  0  0  0  0  0
   59.2800   29.2700   48.7340 C   0  0  0  0  0  0  0  0  0  0  0  0
   60.7220   29.5920   49.1690 C   0  0  0  0  0  0  0  0  0  0  0  0
   61.4740   30.3250   48.2100 O   0  0  0  0  0  0  0  0  0  0  0  0
   61.0360   30.1450   46.8690 C   0  0  0  0  0  0  0  0  0  0  0  0
   60.4370   28.7570   46.6010 C   0  0  0  0  0  0  0  0  0  0  0  0
   54.2475   23.6102   45.3639 H   0  0  0  0  0  0  0  0  0  0  0  0
   54.1623   25.0639   44.3123 H   0  0  0  0  0  0  0  0  0  0  0  0
   55.6386   24.0407   44.3123 H   0  0  0  0  0  0  0  0  0  0  0  0
   55.5732   29.3781   45.5969 H   0  0  0  0  0  0  0  0  0  0  0  0
   58.2947   31.4598   43.9636 H   0  0  0  0  0  0  0  0  0  0  0  0
   56.5321   31.3108   43.6667 H   0  0  0  0  0  0  0  0  0  0  0  0
   57.0153   34.2451   45.1823 H   0  0  0  0  0  0  0  0  0  0  0  0
   58.4043   35.9804   46.3075 H   0  0  0  0  0  0  0  0  0  0  0  0
   60.1098   35.3227   47.9993 H   0  0  0  0  0  0  0  0  0  0  0  0
   60.5540   31.9330   49.3140 H   0  0  0  0  0  0  0  0  0  0  0  0
   63.0088   33.8669   50.9590 H   0  0  0  0  0  0  0  0  0  0  0  0
   64.0055   32.5952   48.3683 H   0  0  0  0  0  0  0  0  0  0  0  0
   64.4162   34.2267   49.0259 H   0  0  0  0  0  0  0  0  0  0  0  0
   66.1530   32.3770   49.4203 H   0  0  0  0  0  0  0  0  0  0  0  0
   65.5931   33.2964   50.8786 H   0  0  0  0  0  0  0  0  0  0  0  0
   65.0204   30.4579   53.6034 H   0  0  0  0  0  0  0  0  0  0  0  0
   64.5375   29.1803   52.4064 H   0  0  0  0  0  0  0  0  0  0  0  0
   67.2854   29.4912   53.7133 H   0  0  0  0  0  0  0  0  0  0  0  0
   66.0473   28.2343   54.0883 H   0  0  0  0  0  0  0  0  0  0  0  0
   68.9644   28.9457   52.1899 H   0  0  0  0  0  0  0  0  0  0  0  0
   69.8286   27.5437   50.3161 H   0  0  0  0  0  0  0  0  0  0  0  0
   68.3505   25.8399   49.2430 H   0  0  0  0  0  0  0  0  0  0  0  0
   66.0107   25.5168   50.0627 H   0  0  0  0  0  0  0  0  0  0  0  0
   65.1381   26.9188   51.9357 H   0  0  0  0  0  0  0  0  0  0  0  0
   63.5427   30.4375   49.4037 H   0  0  0  0  0  0  0  0  0  0  0  0
   63.4087   29.8826   51.1079 H   0  0  0  0  0  0  0  0  0  0  0  0
   61.5569   31.4543   50.2764 H   0  0  0  0  0  0  0  0  0  0  0  0
   62.4242   31.9370   51.8054 H   0  0  0  0  0  0  0  0  0  0  0  0
   59.0160   31.1640   47.4793 H   0  0  0  0  0  0  0  0  0  0  0  0
   59.3327   29.4544   43.4521 H   0  0  0  0  0  0  0  0  0  0  0  0
   59.5180   26.9854   43.6889 H   0  0  0  0  0  0  0  0  0  0  0  0
   60.8854   24.6274   46.1610 H   0  0  0  0  0  0  0  0  0  0  0  0
   60.2722   26.1421   45.3588 H   0  0  0  0  0  0  0  0  0  0  0  0
   59.9875   25.3766   48.3010 H   0  0  0  0  0  0  0  0  0  0  0  0
   61.0073   26.6908   47.5974 H   0  0  0  0  0  0  0  0  0  0  0  0
   58.1830   26.8554   46.7576 H   0  0  0  0  0  0  0  0  0  0  0  0
   58.4344   26.9673   48.5700 H   0  0  0  0  0  0  0  0  0  0  0  0
   58.7252   30.2116   48.6093 H   0  0  0  0  0  0  0  0  0  0  0  0
   58.8162   28.6433   49.5100 H   0  0  0  0  0  0  0  0  0  0  0  0
   60.6782   30.1822   50.0962 H   0  0  0  0  0  0  0  0  0  0  0  0
   61.2340   28.6272   49.2993 H   0  0  0  0  0  0  0  0  0  0  0  0
   60.2702   30.9032   46.6482 H   0  0  0  0  0  0  0  0  0  0  0  0
   61.9210   30.2454   46.2235 H   0  0  0  0  0  0  0  0  0  0  0  0
   60.1366   28.6911   45.5449 H   0  0  0  0  0  0  0  0  0  0  0  0
   61.1956   27.9942   46.8303 H   0  0  0  0  0  0  0  0  0  0  0  0
  1  2  1  0
  2  3  2  0
  2  4  1  0
  4  5  1  0
  5  6  2  0
  6  7  1  0
  7  8  1  0
  8  9  1  0
  9 10  1  0
 10 11  2  0
 11 12  1  0
 12 13  2  0
 13 14  1  0
 14 15  1  0
 15 16  1  0
 16 17  2  0
 16 18  1  0
 18 19  1  0
 19 20  1  0
 20 21  1  0
 21 22  1  0
 22 23  2  0
 22 24  1  0
 24 25  1  0
 25 26  1  0
 26 27  2  0
 27 28  1  0
 28 29  2  0
 29 30  1  0
 30 31  2  0
 21 32  1  0
 32 33  1  0
 14 34  2  0
  7 35  2  0
 35 36  1  0
 36 37  2  0
 37 38  1  0
 38 39  1  0
 39 40  2  0
 39 41  1  0
 41 42  1  0
 42 43  1  0
 43 44  1  0
 44 45  1  0
 45 46  1  0
 46 47  1  0
 47 48  1  0
 48 49  1  0
 37  5  1  0
 49 44  1  0
 34 10  1  0
 33 18  1  0
 31 26  1  0
  1 50  1  0
  1 51  1  0
  1 52  1  0
  6 53  1  0
  8 54  1  0
  8 55  1  0
 11 56  1  0
 12 57  1  0
 13 58  1  0
 15 59  1  0
 18 60  1  0
 19 61  1  0
 19 62  1  0
 20 63  1  0
 20 64  1  0
 24 65  1  0
 24 66  1  0
 25 67  1  0
 25 68  1  0
 27 69  1  0
 28 70  1  0
 29 71  1  0
 30 72  1  0
 31 73  1  0
 32 74  1  0
 32 75  1  0
 33 76  1  0
 33 77  1  0
 34 78  1  0
 35 79  1  0
 36 80  1  0
 41 81  1  0
 41 82  1  0
 42 83  1  0
 42 84  1  0
 43 85  1  0
 43 86  1  0
 45 87  1  0
 45 88  1  0
 46 89  1  0
 46 90  1  0
 48 91  1  0
 48 92  1  0
 49 93  1  0
 49 94  1  0
M  CHG  2   4  -1  38  -1
M  END
>  <UniqueID>  (86) 
83

>  <SMILES>  (86) 
CC(=O)[N-]c1cc(COc2cccc(NC(=O)C3CCN(C(=O)CCc4ccccc4)CC3)c2)ccc1[N-]C(=O)CCCN1CCOCC1

>  <Energy>  (86) 
124.16492010151757

>  <Genealogy>  (86) 
CC(=O)[N-]c1cc(COc2cccc(NC(=O)C3CCN(C(=O)CCc4ccccc4)CC3)c2)ccc1[N-]C(=O)CCCN1CCOCC1 (protonated)
CC(=O)[N-]c1cc(COc2cccc(NC(=O)C3CCN(C(=O)CCc4ccccc4)CC3)c2)ccc1[N-]C(=O)CCCN1CCOCC1 (3D coordinates assigned)
CC(=O)[N-]c1cc(COc2cccc(NC(=O)C3CCN(C(=O)CCc4ccccc4)CC3)c2)ccc1[N-]C(=O)CCCN1CCOCC1 (nonaromatic ring conformer: 124.16492010151757 kcal/mol)

>  <smiles>  (86) 
CC(=O)Nc1cc(COc2cccc(NC(=O)C3CCN(C(=O)CCc4ccccc4)CC3)c2)ccc1NC(=O)CCCN1CCOCC1

>  <score_type>  (86) 
oracle

>  <origin>  (86) 
adg

>  <m_score__min__energy>  (86) 
-13.67

>  <m_primary>  (86) 
energy

$$$$
86:0
     RDKit          3D

 36 37  0  0  0  0  0  0  0  0999 V2000
   55.9110   31.2160   51.2830 O   0  0  0  0  0  0  0  0  0  0  0  0
   56.0130   30.3560   52.2000 C   0  0  0  0  0  0  0  0  0  0  0  0
   54.9190   30.2110   53.2130 C   0  0  0  0  0  0  0  0  0  0  0  0
   53.7780   29.3310   52.6870 C   0  0  0  0  0  0  0  0  0  0  0  0
   52.8300   30.1080   51.8100 C   0  0  0  0  0  0  0  0  0  0  0  0
   52.6220   29.7310   50.4730 C   0  0  0  0  0  0  0  0  0  0  0  0
   51.7650   30.4730   49.6550 C   0  0  0  0  0  0  0  0  0  0  0  0
   51.1130   31.6010   50.1640 C   0  0  0  0  0  0  0  0  0  0  0  0
   50.2610   32.3350   49.3460 O   0  0  0  0  0  0  0  0  0  0  0  0
   51.3200   31.9890   51.4930 C   0  0  0  0  0  0  0  0  0  0  0  0
   50.6780   33.1120   52.0010 O   0  0  0  0  0  0  0  0  0  0  0  0
   52.1780   31.2470   52.3120 C   0  0  0  0  0  0  0  0  0  0  0  0
   57.1540   29.4930   52.2610 N   0  0  0  0  0  0  0  0  0  0  0  0
   58.4160   29.7750   51.5840 C   0  0  0  0  0  0  0  0  0  0  0  0
   58.1750   30.2140   50.1360 C   0  0  0  0  0  0  0  0  0  0  0  0
   58.9320   29.3440   49.1690 C   0  0  0  0  0  0  0  0  0  0  0  0
   59.6840   28.3160   49.6500 N   0  0  0  0  0  0  0  0  0  0  0  0
   60.4170   27.5140   48.8340 C   0  0  0  0  0  0  0  0  0  0  0  0
   60.4200   27.7360   47.4560 C   0  0  0  0  0  0  0  0  0  0  0  0
   59.6670   28.7880   46.9320 C   0  0  0  0  0  0  0  0  0  0  0  0
   58.9210   29.6040   47.7860 C   0  0  0  0  0  0  0  0  0  0  0  0
   58.1810   30.6590   47.2610 O   0  0  0  0  0  0  0  0  0  0  0  0
   55.3332   29.7527   54.1232 H   0  0  0  0  0  0  0  0  0  0  0  0
   54.5129   31.2105   53.4275 H   0  0  0  0  0  0  0  0  0  0  0  0
   54.2069   28.5039   52.1023 H   0  0  0  0  0  0  0  0  0  0  0  0
   53.2120   28.9528   53.5510 H   0  0  0  0  0  0  0  0  0  0  0  0
   53.1362   28.8472   50.0675 H   0  0  0  0  0  0  0  0  0  0  0  0
   51.6032   30.1695   48.6101 H   0  0  0  0  0  0  0  0  0  0  0  0
   52.3430   31.5569   53.3545 H   0  0  0  0  0  0  0  0  0  0  0  0
   58.9408   30.5788   52.1212 H   0  0  0  0  0  0  0  0  0  0  0  0
   59.0226   28.8574   51.5761 H   0  0  0  0  0  0  0  0  0  0  0  0
   57.0997   30.1448   49.9146 H   0  0  0  0  0  0  0  0  0  0  0  0
   58.5291   31.2493   50.0230 H   0  0  0  0  0  0  0  0  0  0  0  0
   61.0081   26.6897   49.2595 H   0  0  0  0  0  0  0  0  0  0  0  0
   61.0095   27.0888   46.7900 H   0  0  0  0  0  0  0  0  0  0  0  0
   59.6610   28.9743   45.8479 H   0  0  0  0  0  0  0  0  0  0  0  0
  1  2  2  0
  2  3  1  0
  3  4  1  0
  4  5  1  0
  5  6  2  0
  6  7  1  0
  7  8  2  0
  8  9  1  0
  8 10  1  0
 10 11  1  0
 10 12  2  0
  2 13  1  0
 13 14  1  0
 14 15  1  0
 15 16  1  0
 16 17  2  0
 17 18  1  0
 18 19  2  0
 19 20  1  0
 20 21  2  0
 21 22  1  0
 12  5  1  0
 21 16  1  0
  3 23  1  0
  3 24  1  0
  4 25  1  0
  4 26  1  0
  6 27  1  0
  7 28  1  0
 12 29  1  0
 14 30  1  0
 14 31  1  0
 15 32  1  0
 15 33  1  0
 18 34  1  0
 19 35  1  0
 20 36  1  0
M  CHG  4   9  -1  11  -1  13  -1  22  -1
M  END
>  <UniqueID>  (87) 
84

>  <SMILES>  (87) 
O=C(CCc1ccc([O-])c([O-])c1)[N-]CCc1ncccc1[O-]

>  <Energy>  (87) 
28.357523395559983

>  <Genealogy>  (87) 
O=C(CCc1ccc([O-])c([O-])c1)[N-]CCc1ncccc1[O-] (protonated)
O=C(CCc1ccc([O-])c([O-])c1)[N-]CCc1ncccc1[O-] (3D coordinates assigned)
O=C(CCc1ccc([O-])c([O-])c1)[N-]CCc1ncccc1[O-] (optimized conformer: 28.357523395559983 kcal/mol)

>  <smiles>  (87) 
O=C(CCc1ccc(O)c(O)c1)NCCc1ncccc1O

>  <score_type>  (87) 
oracle

>  <origin>  (87) 
adg

>  <m_score__min__energy>  (87) 
-17.5

>  <m_primary>  (87) 
energy

$$$$
87:0
     RDKit          3D

 54 57  0  0  0  0  0  0  0  0999 V2000
   52.5090   31.1350   51.2870 C   0  0  0  0  0  0  0  0  0  0  0  0
   53.7280   30.5430   51.9310 C   0  0  0  0  0  0  0  0  0  0  0  0
   53.6520   29.2820   52.5390 C   0  0  0  0  0  0  0  0  0  0  0  0
   54.7880   28.7110   53.1180 C   0  0  0  0  0  0  0  0  0  0  0  0
   56.0100   29.3890   53.0900 C   0  0  0  0  0  0  0  0  0  0  0  0
   57.0950   28.8080   53.6590 F   0  0  0  0  0  0  0  0  0  0  0  0
   56.0990   30.6530   52.4800 C   0  0  0  0  0  0  0  0  0  0  0  0
   57.6150   31.5560   52.4290 S   0  0  0  0  0  0  0  0  0  0  0  0
   57.3860   33.0090   52.1170 O   0  0  0  0  0  0  0  0  0  0  0  0
   58.2860   31.4570   53.7700 O   0  0  0  0  0  0  0  0  0  0  0  0
   58.6550   30.8740   51.2230 N   0  0  0  0  0  0  0  0  0  0  0  0
   58.5720   31.1800   49.8280 C   0  0  0  0  0  0  0  0  0  0  0  0
   58.8410   30.2760   48.9920 O   0  0  0  0  0  0  0  0  0  0  0  0
   58.1540   32.4790   49.3760 N   0  0  0  0  0  0  0  0  0  0  0  0
   58.4360   33.0000   48.0660 C   0  0  0  0  0  0  0  0  0  0  0  0
   59.2280   34.1490   47.9390 C   0  0  0  0  0  0  0  0  0  0  0  0
   59.5430   34.6550   46.6750 C   0  0  0  0  0  0  0  0  0  0  0  0
   59.0770   34.0120   45.5270 C   0  0  0  0  0  0  0  0  0  0  0  0
   58.2880   32.8550   45.6320 C   0  0  0  0  0  0  0  0  0  0  0  0
   57.8050   32.1480   44.3910 C   0  0  0  0  0  0  0  0  0  0  0  0
   57.3370   30.7470   44.7000 C   0  0  0  0  0  0  0  0  0  0  0  0
   56.0200   30.4600   44.5210 N   0  0  0  0  0  0  0  0  0  0  0  0
   55.5080   29.2650   44.8180 N   0  0  0  0  0  0  0  0  0  0  0  0
   56.2730   28.2690   45.3250 C   0  0  0  0  0  0  0  0  0  0  0  0
   55.7410   27.1660   45.6150 O   0  0  0  0  0  0  0  0  0  0  0  0
   57.6450   28.4870   45.5270 C   0  0  0  0  0  0  0  0  0  0  0  0
   58.1920   29.7410   45.2070 C   0  0  0  0  0  0  0  0  0  0  0  0
   59.6640   29.9510   45.4760 C   0  0  0  0  0  0  0  0  0  0  0  0
   60.4620   28.7320   44.9980 C   0  0  0  0  0  0  0  0  0  0  0  0
   59.9290   27.3850   45.5400 C   0  0  0  0  0  0  0  0  0  0  0  0
   58.5290   27.4510   46.1830 C   0  0  0  0  0  0  0  0  0  0  0  0
   57.9880   32.3420   46.9050 C   0  0  0  0  0  0  0  0  0  0  0  0
   54.9570   31.2200   51.8960 C   0  0  0  0  0  0  0  0  0  0  0  0
   51.8107   31.4741   52.0663 H   0  0  0  0  0  0  0  0  0  0  0  0
   52.8037   31.9904   50.6613 H   0  0  0  0  0  0  0  0  0  0  0  0
   52.0189   30.3745   50.6613 H   0  0  0  0  0  0  0  0  0  0  0  0
   52.6948   28.7404   52.5602 H   0  0  0  0  0  0  0  0  0  0  0  0
   54.7205   27.7236   53.5980 H   0  0  0  0  0  0  0  0  0  0  0  0
   57.5380   33.0450   50.0000 H   0  0  0  0  0  0  0  0  0  0  0  0
   59.6041   34.6559   48.8399 H   0  0  0  0  0  0  0  0  0  0  0  0
   60.1593   35.5616   46.5846 H   0  0  0  0  0  0  0  0  0  0  0  0
   59.3292   34.4138   44.5346 H   0  0  0  0  0  0  0  0  0  0  0  0
   56.9690   32.7168   43.9579 H   0  0  0  0  0  0  0  0  0  0  0  0
   58.6434   32.0835   43.6819 H   0  0  0  0  0  0  0  0  0  0  0  0
   60.0088   30.8463   44.9379 H   0  0  0  0  0  0  0  0  0  0  0  0
   59.8189   30.0836   46.5569 H   0  0  0  0  0  0  0  0  0  0  0  0
   60.4251   28.7026   43.8990 H   0  0  0  0  0  0  0  0  0  0  0  0
   61.4861   28.8490   45.3820 H   0  0  0  0  0  0  0  0  0  0  0  0
   59.8871   26.6726   44.7029 H   0  0  0  0  0  0  0  0  0  0  0  0
   60.6207   27.0790   46.3387 H   0  0  0  0  0  0  0  0  0  0  0  0
   58.0494   26.4656   46.0884 H   0  0  0  0  0  0  0  0  0  0  0  0
   58.6561   27.7361   47.2378 H   0  0  0  0  0  0  0  0  0  0  0  0
   57.3979   31.4181   46.9953 H   0  0  0  0  0  0  0  0  0  0  0  0
   55.0250   32.2029   51.4067 H   0  0  0  0  0  0  0  0  0  0  0  0
  1  2  1  0
  2  3  2  0
  3  4  1  0
  4  5  2  0
  5  6  1  0
  5  7  1  0
  7  8  1  0
  8  9  2  0
  8 10  2  0
  8 11  1  0
 11 12  1  0
 12 13  2  0
 12 14  1  0
 14 15  1  0
 15 16  2  0
 16 17  1  0
 17 18  2  0
 18 19  1  0
 19 20  1  0
 20 21  1  0
 21 22  2  0
 22 23  1  0
 23 24  1  0
 24 25  2  0
 24 26  1  0
 26 27  2  0
 27 28  1  0
 28 29  1  0
 29 30  1  0
 30 31  1  0
 19 32  2  0
  7 33  2  0
 33  2  1  0
 32 15  1  0
 27 21  1  0
 31 26  1  0
  1 34  1  0
  1 35  1  0
  1 36  1  0
  3 37  1  0
  4 38  1  0
 14 39  1  0
 16 40  1  0
 17 41  1  0
 18 42  1  0
 20 43  1  0
 20 44  1  0
 28 45  1  0
 28 46  1  0
 29 47  1  0
 29 48  1  0
 30 49  1  0
 30 50  1  0
 31 51  1  0
 31 52  1  0
 32 53  1  0
 33 54  1  0
M  CHG  2  11  -1  23  -1
M  END
>  <UniqueID>  (88) 
85

>  <SMILES>  (88) 
Cc1ccc(F)c(S(=O)(=O)[N-]C(=O)Nc2cccc(Cc3n[n-]c(=O)c4c3CCCC4)c2)c1

>  <Energy>  (88) 
70.54810906130096

>  <Genealogy>  (88) 
Cc1ccc(F)c(S(=O)(=O)[N-]C(=O)Nc2cccc(Cc3n[n-]c(=O)c4c3CCCC4)c2)c1 (protonated)
Cc1ccc(F)c(S(=O)(=O)[N-]C(=O)Nc2cccc(Cc3n[n-]c(=O)c4c3CCCC4)c2)c1 (3D coordinates assigned)
Cc1ccc(F)c(S(=O)(=O)[N-]C(=O)Nc2cccc(Cc3n[n-]c(=O)c4c3CCCC4)c2)c1 (nonaromatic ring conformer: 70.54810906130096 kcal/mol)

>  <smiles>  (88) 
Cc1ccc(F)c(S(=O)(=O)NC(=O)Nc2cccc(Cc3n[nH]c(=O)c4c3CCCC4)c2)c1

>  <score_type>  (88) 
oracle

>  <origin>  (88) 
adg

>  <m_score__min__energy>  (88) 
-14.65

>  <m_primary>  (88) 
energy

$$$$
88:0
     RDKit          3D

 48 51  0  0  0  0  0  0  0  0999 V2000
   60.7380   27.9970   47.8960 C   0  0  0  0  0  0  0  0  0  0  0  0
   59.8020   28.9260   47.6380 C   0  0  0  0  0  0  0  0  0  0  0  0
   58.8090   28.8700   46.6470 C   0  0  0  0  0  0  0  0  0  0  0  0
   58.4100   27.8610   45.8480 C   0  0  0  0  0  0  0  0  0  0  0  0
   57.1920   27.0570   46.0220 C   0  0  0  0  0  0  0  0  0  0  0  0
   57.1980   25.7820   46.4460 N   0  0  0  0  0  0  0  0  0  0  0  0
   55.9040   25.4090   46.3320 C   0  0  0  0  0  0  0  0  0  0  0  0
   55.4990   24.2620   46.6560 O   0  0  0  0  0  0  0  0  0  0  0  0
   55.0820   26.3560   45.8340 N   0  0  0  0  0  0  0  0  0  0  0  0
   55.9160   27.3890   45.6280 C   0  0  0  0  0  0  0  0  0  0  0  0
   55.5220   28.5970   45.0660 O   0  0  0  0  0  0  0  0  0  0  0  0
   58.2350   30.1270   46.6070 C   0  0  0  0  0  0  0  0  0  0  0  0
   58.8340   30.8800   47.5950 C   0  0  0  0  0  0  0  0  0  0  0  0
   58.5240   32.3060   47.8420 C   0  0  0  0  0  0  0  0  0  0  0  0
   58.1810   32.6780   48.9960 O   0  0  0  0  0  0  0  0  0  0  0  0
   58.6830   33.2840   46.7980 N   0  0  0  0  0  0  0  0  0  0  0  0
   59.0120   34.6690   47.1490 C   0  0  0  0  0  0  0  0  0  0  0  0
   59.7210   35.3440   45.9700 C   0  0  0  0  0  0  0  0  0  0  0  0
   58.9680   35.2030   44.7800 O   0  0  0  0  0  0  0  0  0  0  0  0
   58.8920   33.8360   44.4210 C   0  0  0  0  0  0  0  0  0  0  0  0
   58.1100   33.0420   45.4700 C   0  0  0  0  0  0  0  0  0  0  0  0
   59.7820   30.1490   48.2330 N   0  0  0  0  0  0  0  0  0  0  0  0
   60.6260   30.5960   49.3550 C   0  0  0  0  0  0  0  0  0  0  0  0
   61.8010   31.4430   48.8990 C   0  0  0  0  0  0  0  0  0  0  0  0
   61.7090   32.2310   47.7340 C   0  0  0  0  0  0  0  0  0  0  0  0
   62.7780   33.0280   47.3270 C   0  0  0  0  0  0  0  0  0  0  0  0
   63.9480   33.0690   48.0820 C   0  0  0  0  0  0  0  0  0  0  0  0
   64.0540   32.3210   49.2570 C   0  0  0  0  0  0  0  0  0  0  0  0
   65.5450   32.4250   50.1870 Cl  0  0  0  0  0  0  0  0  0  0  0  0
   62.9810   31.5120   49.6780 C   0  0  0  0  0  0  0  0  0  0  0  0
   63.1240   30.6110   51.1910 Cl  0  0  0  0  0  0  0  0  0  0  0  0
   61.4653   28.1590   48.7052 H   0  0  0  0  0  0  0  0  0  0  0  0
   60.7769   27.0745   47.2980 H   0  0  0  0  0  0  0  0  0  0  0  0
   59.0529   27.6174   44.9893 H   0  0  0  0  0  0  0  0  0  0  0  0
   57.4478   30.4636   45.9163 H   0  0  0  0  0  0  0  0  0  0  0  0
   58.0872   35.2170   47.3823 H   0  0  0  0  0  0  0  0  0  0  0  0
   59.6755   34.6756   48.0263 H   0  0  0  0  0  0  0  0  0  0  0  0
   59.8482   36.4140   46.1910 H   0  0  0  0  0  0  0  0  0  0  0  0
   60.6994   34.8624   45.8259 H   0  0  0  0  0  0  0  0  0  0  0  0
   58.3853   33.7460   43.4488 H   0  0  0  0  0  0  0  0  0  0  0  0
   59.9125   33.4300   44.3596 H   0  0  0  0  0  0  0  0  0  0  0  0
   57.0575   33.3618   45.4616 H   0  0  0  0  0  0  0  0  0  0  0  0
   58.1707   31.9689   45.2360 H   0  0  0  0  0  0  0  0  0  0  0  0
   60.0093   31.1908   50.0448 H   0  0  0  0  0  0  0  0  0  0  0  0
   61.0318   29.6989   49.8454 H   0  0  0  0  0  0  0  0  0  0  0  0
   60.7836   32.2170   47.1394 H   0  0  0  0  0  0  0  0  0  0  0  0
   62.6974   33.6260   46.4073 H   0  0  0  0  0  0  0  0  0  0  0  0
   64.7917   33.6928   47.7516 H   0  0  0  0  0  0  0  0  0  0  0  0
  1  2  2  0
  2  3  1  0
  3  4  2  3
  4  5  1  0
  5  6  1  0
  6  7  1  0
  7  8  2  0
  7  9  1  0
  9 10  1  0
 10 11  1  0
  3 12  1  0
 12 13  2  0
 13 14  1  0
 14 15  2  0
 14 16  1  0
 16 17  1  0
 17 18  1  0
 18 19  1  0
 19 20  1  0
 20 21  1  0
 13 22  1  0
 22 23  1  0
 23 24  1  0
 24 25  2  0
 25 26  1  0
 26 27  2  0
 27 28  1  0
 28 29  1  0
 28 30  2  0
 30 31  1  0
 22  2  1  0
 30 24  1  0
 10  5  2  0
 21 16  1  0
  1 32  1  0
  1 33  1  0
  4 34  1  0
 12 35  1  0
 17 36  1  0
 17 37  1  0
 18 38  1  0
 18 39  1  0
 20 40  1  0
 20 41  1  0
 21 42  1  0
 21 43  1  0
 23 44  1  0
 23 45  1  0
 25 46  1  0
 26 47  1  0
 27 48  1  0
M  CHG  3   6  -1   9  -1  11  -1
M  END
>  <UniqueID>  (89) 
86

>  <SMILES>  (89) 
C=c1c(=Cc2[n-]c(=O)[n-]c2[O-])cc(C(=O)N2CCOCC2)n1Cc1cccc(Cl)c1Cl

>  <Energy>  (89) 
130.89938838765687

>  <Genealogy>  (89) 
C=c1c(=Cc2[n-]c(=O)[n-]c2[O-])cc(C(=O)N2CCOCC2)n1Cc1cccc(Cl)c1Cl (protonated)
C=c1c(=Cc2[n-]c(=O)[n-]c2[O-])cc(C(=O)N2CCOCC2)n1Cc1cccc(Cl)c1Cl (3D coordinates assigned)
C=c1c(=Cc2[n-]c(=O)[n-]c2[O-])cc(C(=O)N2CCOCC2)n1Cc1cccc(Cl)c1Cl (nonaromatic ring conformer: 130.89938838765687 kcal/mol)

>  <smiles>  (89) 
C=c1c(=Cc2[nH]c(=O)[nH]c2O)cc(C(=O)N2CCOCC2)n1Cc1cccc(Cl)c1Cl

>  <score_type>  (89) 
oracle

>  <origin>  (89) 
adg

>  <m_score__min__energy>  (89) 
-16.530000000000001

>  <m_primary>  (89) 
energy

$$$$
89:0
     RDKit          3D

 49 51  0  0  0  0  0  0  0  0999 V2000
   57.9690   33.4310   40.3570 H   0  0  0  0  0  0  0  0  0  0  0  0
   58.4350   32.9370   41.1090 O   0  0  0  0  0  0  0  0  0  0  0  0
   57.7650   31.9700   41.8250 N   0  0  0  0  0  0  0  0  0  0  0  0
   57.2060   31.2590   41.2990 H   0  0  0  0  0  0  0  0  0  0  0  0
   57.8170   31.9400   43.1270 C   0  0  0  0  0  0  0  0  0  0  0  0
   57.5220   30.6820   43.8520 C   0  0  0  0  0  0  0  0  0  0  0  0
   56.2000   30.3040   44.1370 C   0  0  0  0  0  0  0  0  0  0  0  0
   55.3645   30.9428   43.8147 H   0  0  0  0  0  0  0  0  0  0  0  0
   55.9510   29.1490   44.8110 N   0  0  0  0  0  0  0  0  0  0  0  0
   56.9510   28.3160   45.2120 C   0  0  0  0  0  0  0  0  0  0  0  0
   56.6760   27.1380   45.9200 O   0  0  0  0  0  0  0  0  0  0  0  0
   56.5240   25.8640   45.3520 C   0  0  0  0  0  0  0  0  0  0  0  0
   55.3620   25.1410   45.6380 C   0  0  0  0  0  0  0  0  0  0  0  0
   54.5947   25.5779   46.2940 H   0  0  0  0  0  0  0  0  0  0  0  0
   55.1680   23.8660   45.0960 C   0  0  0  0  0  0  0  0  0  0  0  0
   54.2425   23.3143   45.3174 H   0  0  0  0  0  0  0  0  0  0  0  0
   56.1410   23.2870   44.2750 C   0  0  0  0  0  0  0  0  0  0  0  0
   55.8890   22.0070   43.7550 O   0  0  0  0  0  0  0  0  0  0  0  0
   56.7850   20.8950   43.8140 C   0  0  0  0  0  0  0  0  0  0  0  0
   57.6123   21.0602   43.1082 H   0  0  0  0  0  0  0  0  0  0  0  0
   56.2328   19.9816   43.5481 H   0  0  0  0  0  0  0  0  0  0  0  0
   57.3520   20.7330   45.2210 C   0  0  0  0  0  0  0  0  0  0  0  0
   56.5686   20.9568   45.9600 H   0  0  0  0  0  0  0  0  0  0  0  0
   57.7014   19.6991   45.3587 H   0  0  0  0  0  0  0  0  0  0  0  0
   58.1949   21.4263   45.3587 H   0  0  0  0  0  0  0  0  0  0  0  0
   57.3210   24.0050   43.9990 C   0  0  0  0  0  0  0  0  0  0  0  0
   58.0939   23.5613   43.3542 H   0  0  0  0  0  0  0  0  0  0  0  0
   57.5140   25.2790   44.5410 C   0  0  0  0  0  0  0  0  0  0  0  0
   58.4447   25.8271   44.3324 H   0  0  0  0  0  0  0  0  0  0  0  0
   58.2800   28.6560   44.9490 C   0  0  0  0  0  0  0  0  0  0  0  0
   59.0962   27.9953   45.2766 H   0  0  0  0  0  0  0  0  0  0  0  0
   58.5650   29.8410   44.2670 C   0  0  0  0  0  0  0  0  0  0  0  0
   59.6090   30.1152   44.0550 H   0  0  0  0  0  0  0  0  0  0  0  0
   58.2010   33.1200   43.8570 N   0  0  0  0  0  0  0  0  0  0  0  0
   58.8320   33.8160   43.4010 H   0  0  0  0  0  0  0  0  0  0  0  0
   57.5230   33.5300   45.0860 C   0  0  0  0  0  0  0  0  0  0  0  0
   57.1264   34.5484   44.9609 H   0  0  0  0  0  0  0  0  0  0  0  0
   56.6990   32.8316   45.2939 H   0  0  0  0  0  0  0  0  0  0  0  0
   58.4920   33.5100   46.2410 C   0  0  0  0  0  0  0  0  0  0  0  0
   58.5790   32.3710   47.0650 C   0  0  0  0  0  0  0  0  0  0  0  0
   57.7690   31.3000   46.8520 F   0  0  0  0  0  0  0  0  0  0  0  0
   59.5070   32.3270   48.1110 C   0  0  0  0  0  0  0  0  0  0  0  0
   59.5646   31.4384   48.7568 H   0  0  0  0  0  0  0  0  0  0  0  0
   60.3610   33.4100   48.3370 C   0  0  0  0  0  0  0  0  0  0  0  0
   61.0909   33.3716   49.1590 H   0  0  0  0  0  0  0  0  0  0  0  0
   60.2890   34.5420   47.5200 C   0  0  0  0  0  0  0  0  0  0  0  0
   60.9621   35.3930   47.7008 H   0  0  0  0  0  0  0  0  0  0  0  0
   59.3620   34.5950   46.4720 C   0  0  0  0  0  0  0  0  0  0  0  0
   59.3150   35.7030   45.6890 F   0  0  0  0  0  0  0  0  0  0  0  0
  1  2  1  0
  2  3  1  0
  3  4  1  0
  3  5  2  0
  5  6  1  0
  6  7  2  0
  7  8  1  0
  7  9  1  0
  9 10  2  0
 10 11  1  0
 11 12  1  0
 12 13  2  0
 13 14  1  0
 13 15  1  0
 15 16  1  0
 15 17  2  0
 17 18  1  0
 18 19  1  0
 19 20  1  0
 19 21  1  0
 19 22  1  0
 22 23  1  0
 22 24  1  0
 22 25  1  0
 17 26  1  0
 26 27  1  0
 26 28  2  0
 28 29  1  0
 10 30  1  0
 30 31  1  0
 30 32  2  0
 32 33  1  0
  5 34  1  0
 34 35  1  0
 34 36  1  0
 36 37  1  0
 36 38  1  0
 36 39  1  0
 39 40  2  0
 40 41  1  0
 40 42  1  0
 42 43  1  0
 42 44  2  0
 44 45  1  0
 44 46  1  0
 46 47  1  0
 46 48  2  0
 48 49  1  0
 32  6  1  0
 48 39  1  0
 28 12  1  0
M  CHG  1   3   1
M  END
>  <UniqueID>  (90) 
87

>  <SMILES>  (90) 
CCOc1ccc(Oc2ccc(/C(NCc3c(F)cccc3F)=[NH+]/O)cn2)cc1

>  <Energy>  (90) 
58.46303091419265

>  <Genealogy>  (90) 
CCOc1ccc(Oc2ccc(C(NCc3c(F)cccc3F)=[NH+]O)cn2)cc1 (protonated)
CCOc1ccc(Oc2ccc(/C(NCc3c(F)cccc3F)=[NH+]/O)cn2)cc1 (cis-trans isomerization)
CCOc1ccc(Oc2ccc(/C(NCc3c(F)cccc3F)=[NH+]/O)cn2)cc1 (3D coordinates assigned)
CCOc1ccc(Oc2ccc(/C(NCc3c(F)cccc3F)=[NH+]/O)cn2)cc1 (optimized conformer: 58.46303091419265 kcal/mol)

>  <smiles>  (90) 
CCOc1ccc(Oc2ccc(C(=NO)NCc3c(F)cccc3F)cn2)cc1

>  <score_type>  (90) 
oracle

>  <origin>  (90) 
adg

>  <m_score__min__energy>  (90) 
-6.3499999999999996

>  <m_primary>  (90) 
energy

$$$$
