0:0
     RDKit          3D

 46 49  0  0  0  0  0  0  0  0999 V2000
   56.2200   24.7080   45.3200 O   0  0  0  0  0  0  0  0  0  0  0  0
   56.0420   25.8100   45.9030 C   0  0  0  0  0  0  0  0  0  0  0  0
   54.7590   26.3420   45.9630 O   0  0  0  0  0  0  0  0  0  0  0  0
   57.1810   26.5300   46.5150 C   0  0  0  0  0  0  0  0  0  0  0  0
   57.3830   27.8980   46.2650 C   0  0  0  0  0  0  0  0  0  0  0  0
   58.4610   28.5730   46.8450 C   0  0  0  0  0  0  0  0  0  0  0  0
   59.3500   27.8990   47.6940 C   0  0  0  0  0  0  0  0  0  0  0  0
   60.4640   28.6130   48.2600 N   0  0  0  0  0  0  0  0  0  0  0  0
   60.3260   29.7050   49.1860 C   0  0  0  0  0  0  0  0  0  0  0  0
   59.2480   30.3600   49.2220 O   0  0  0  0  0  0  0  0  0  0  0  0
   61.4540   30.1050   50.0620 C   0  0  0  0  0  0  0  0  0  0  0  0
   62.1090   29.1430   50.8510 C   0  0  0  0  0  0  0  0  0  0  0  0
   63.1740   29.5100   51.6750 C   0  0  0  0  0  0  0  0  0  0  0  0
   63.6020   30.8380   51.7180 C   0  0  0  0  0  0  0  0  0  0  0  0
   62.9740   31.8160   50.9340 C   0  0  0  0  0  0  0  0  0  0  0  0
   63.4450   33.1750   50.9950 N   0  0  0  0  0  0  0  0  0  0  0  0
   62.7000   34.3110   50.4480 C   0  0  0  0  0  0  0  0  0  0  0  0
   62.4350   34.1150   48.9880 C   0  0  0  0  0  0  0  0  0  0  0  0
   63.4400   34.1400   48.0240 C   0  0  0  0  0  0  0  0  0  0  0  0
   62.7290   33.8140   46.5360 S   0  0  0  0  0  0  0  0  0  0  0  0
   61.1850   33.6450   47.1800 C   0  0  0  0  0  0  0  0  0  0  0  0
   59.9750   33.3280   46.4090 C   0  0  0  0  0  0  0  0  0  0  0  0
   59.1100   34.2570   45.8400 C   0  0  0  0  0  0  0  0  0  0  0  0
   58.0370   33.6680   45.1610 C   0  0  0  0  0  0  0  0  0  0  0  0
   58.0620   32.2830   45.2000 C   0  0  0  0  0  0  0  0  0  0  0  0
   56.8840   31.2180   44.4620 Cl  0  0  0  0  0  0  0  0  0  0  0  0
   59.4070   31.7790   46.0710 S   0  0  0  0  0  0  0  0  0  0  0  0
   61.1890   33.8300   48.5180 N   0  0  0  0  0  0  0  0  0  0  0  0
   61.8990   31.4400   50.1030 C   0  0  0  0  0  0  0  0  0  0  0  0
   59.1620   26.5260   47.9280 C   0  0  0  0  0  0  0  0  0  0  0  0
   58.0850   25.8500   47.3490 C   0  0  0  0  0  0  0  0  0  0  0  0
   56.6879   28.4416   45.6082 H   0  0  0  0  0  0  0  0  0  0  0  0
   58.6130   29.6417   46.6335 H   0  0  0  0  0  0  0  0  0  0  0  0
   61.4190   28.3970   47.8950 H   0  0  0  0  0  0  0  0  0  0  0  0
   61.7798   28.0939   50.8186 H   0  0  0  0  0  0  0  0  0  0  0  0
   63.6773   28.7510   52.2920 H   0  0  0  0  0  0  0  0  0  0  0  0
   64.4396   31.1197   52.3730 H   0  0  0  0  0  0  0  0  0  0  0  0
   64.3660   33.3560   51.4580 H   0  0  0  0  0  0  0  0  0  0  0  0
   61.7416   34.4043   50.9798 H   0  0  0  0  0  0  0  0  0  0  0  0
   63.2994   35.2239   50.5796 H   0  0  0  0  0  0  0  0  0  0  0  0
   64.5070   34.3375   48.2040 H   0  0  0  0  0  0  0  0  0  0  0  0
   59.2546   35.3448   45.9160 H   0  0  0  0  0  0  0  0  0  0  0  0
   57.2536   34.2457   44.6486 H   0  0  0  0  0  0  0  0  0  0  0  0
   61.4024   32.1982   49.4797 H   0  0  0  0  0  0  0  0  0  0  0  0
   59.8676   25.9799   48.5714 H   0  0  0  0  0  0  0  0  0  0  0  0
   57.9436   24.7773   47.5474 H   0  0  0  0  0  0  0  0  0  0  0  0
  1  2  2  0
  2  3  1  0
  2  4  1  0
  4  5  2  0
  5  6  1  0
  6  7  2  0
  7  8  1  0
  8  9  1  0
  9 10  2  0
  9 11  1  0
 11 12  2  0
 12 13  1  0
 13 14  2  0
 14 15  1  0
 15 16  1  0
 16 17  1  0
 17 18  1  0
 18 19  2  0
 19 20  1  0
 20 21  1  0
 21 22  1  0
 22 23  2  0
 23 24  1  0
 24 25  2  0
 25 26  1  0
 25 27  1  0
 21 28  2  0
 15 29  2  0
  7 30  1  0
 30 31  2  0
 31  4  1  0
 29 11  1  0
 28 18  1  0
 27 22  1  0
  5 32  1  0
  6 33  1  0
  8 34  1  0
 12 35  1  0
 13 36  1  0
 14 37  1  0
 16 38  1  0
 17 39  1  0
 17 40  1  0
 19 41  1  0
 23 42  1  0
 24 43  1  0
 29 44  1  0
 30 45  1  0
 31 46  1  0
M  CHG  1   3  -1
M  END
>  <UniqueID>  (1) 
1

>  <SMILES>  (1) 
O=C([O-])c1ccc(NC(=O)c2cccc(NCc3csc(-c4ccc(Cl)s4)n3)c2)cc1

>  <Energy>  (1) 
110.97619754168618

>  <Genealogy>  (1) 
O=C([O-])c1ccc(NC(=O)c2cccc(NCc3csc(-c4ccc(Cl)s4)n3)c2)cc1 (protonated)
O=C([O-])c1ccc(NC(=O)c2cccc(NCc3csc(-c4ccc(Cl)s4)n3)c2)cc1 (3D coordinates assigned)
O=C([O-])c1ccc(NC(=O)c2cccc(NCc3csc(-c4ccc(Cl)s4)n3)c2)cc1 (optimized conformer: 110.97619754168618 kcal/mol)

>  <smiles>  (1) 
O=C(O)c1ccc(NC(=O)c2cccc(NCc3csc(-c4ccc(Cl)s4)n3)c2)cc1

>  <score_type>  (1) 
oracle

>  <origin>  (1) 
adg

>  <m_score__min__energy>  (1) 
-11.24

>  <m_primary>  (1) 
energy

$$$$
1:0
     RDKit          3D

 45 47  0  0  0  0  0  0  0  0999 V2000
   63.3260   33.8550   46.3740 C   0  0  0  0  0  0  0  0  0  0  0  0
   63.8960   32.7710   47.1000 O   0  0  0  0  0  0  0  0  0  0  0  0
   63.7550   32.5750   48.4840 C   0  0  0  0  0  0  0  0  0  0  0  0
   64.8440   32.7290   49.3670 C   0  0  0  0  0  0  0  0  0  0  0  0
   64.6720   32.5440   50.7400 C   0  0  0  0  0  0  0  0  0  0  0  0
   63.4220   32.1960   51.2470 C   0  0  0  0  0  0  0  0  0  0  0  0
   62.3370   32.0330   50.3850 C   0  0  0  0  0  0  0  0  0  0  0  0
   62.4880   32.2270   48.9980 C   0  0  0  0  0  0  0  0  0  0  0  0
   61.3710   32.0720   48.1020 N   0  0  0  0  0  0  0  0  0  0  0  0
   59.8090   32.7690   48.4010 S   0  0  0  0  0  0  0  0  0  0  0  0
   59.9820   34.0520   49.1660 O   0  0  0  0  0  0  0  0  0  0  0  0
   58.9870   31.8150   49.2210 O   0  0  0  0  0  0  0  0  0  0  0  0
   58.9800   33.0580   46.8740 C   0  0  0  0  0  0  0  0  0  0  0  0
   59.3310   34.1500   46.0690 C   0  0  0  0  0  0  0  0  0  0  0  0
   58.6890   34.3530   44.8460 C   0  0  0  0  0  0  0  0  0  0  0  0
   57.6880   33.4740   44.4220 C   0  0  0  0  0  0  0  0  0  0  0  0
   57.3070   32.3920   45.2370 C   0  0  0  0  0  0  0  0  0  0  0  0
   56.2970   31.4530   44.8350 N   0  0  0  0  0  0  0  0  0  0  0  0
   56.4700   30.0440   44.6370 C   0  0  0  0  0  0  0  0  0  0  0  0
   55.5290   29.2380   44.8750 O   0  0  0  0  0  0  0  0  0  0  0  0
   57.7860   29.5330   44.1330 C   0  0  0  0  0  0  0  0  0  0  0  0
   58.5380   28.8720   45.2050 N   0  0  0  0  0  0  0  0  0  0  0  0
   59.6810   29.3860   45.7440 C   0  0  0  0  0  0  0  0  0  0  0  0
   60.2220   28.6380   46.7880 C   0  0  0  0  0  0  0  0  0  0  0  0
   59.2290   27.3000   47.0520 S   0  0  0  0  0  0  0  0  0  0  0  0
   58.1580   27.7270   45.8270 C   0  0  0  0  0  0  0  0  0  0  0  0
   57.0970   27.0550   45.5150 N   0  0  0  0  0  0  0  0  0  0  0  0
   57.9700   32.1820   46.4520 C   0  0  0  0  0  0  0  0  0  0  0  0
   62.9331   34.6022   47.0792 H   0  0  0  0  0  0  0  0  0  0  0  0
   64.0972   34.3181   45.7410 H   0  0  0  0  0  0  0  0  0  0  0  0
   62.5073   33.4821   45.7410 H   0  0  0  0  0  0  0  0  0  0  0  0
   65.8349   32.9965   48.9714 H   0  0  0  0  0  0  0  0  0  0  0  0
   65.5249   32.6732   51.4226 H   0  0  0  0  0  0  0  0  0  0  0  0
   63.2901   32.0494   52.3292 H   0  0  0  0  0  0  0  0  0  0  0  0
   61.3550   31.7505   50.7922 H   0  0  0  0  0  0  0  0  0  0  0  0
   61.5170   31.6370   47.1640 H   0  0  0  0  0  0  0  0  0  0  0  0
   60.1134   34.8482   46.4012 H   0  0  0  0  0  0  0  0  0  0  0  0
   58.9718   35.2076   44.2138 H   0  0  0  0  0  0  0  0  0  0  0  0
   57.1974   33.6284   43.4497 H   0  0  0  0  0  0  0  0  0  0  0  0
   57.6053   28.8115   43.3225 H   0  0  0  0  0  0  0  0  0  0  0  0
   58.3757   30.3856   43.7652 H   0  0  0  0  0  0  0  0  0  0  0  0
   60.1398   30.3182   45.3827 H   0  0  0  0  0  0  0  0  0  0  0  0
   61.1396   28.8788   47.3447 H   0  0  0  0  0  0  0  0  0  0  0  0
   56.5140   27.3160   44.6870 H   0  0  0  0  0  0  0  0  0  0  0  0
   57.6961   31.3222   47.0811 H   0  0  0  0  0  0  0  0  0  0  0  0
  1  2  1  0
  2  3  1  0
  3  4  2  0
  4  5  1  0
  5  6  2  0
  6  7  1  0
  7  8  2  0
  8  9  1  0
  9 10  1  0
 10 11  2  0
 10 12  2  0
 10 13  1  0
 13 14  2  0
 14 15  1  0
 15 16  2  0
 16 17  1  0
 17 18  1  0
 18 19  1  0
 19 20  2  0
 19 21  1  0
 21 22  1  0
 22 23  1  0
 23 24  2  0
 24 25  1  0
 25 26  1  0
 26 27  2  3
 17 28  2  0
  8  3  1  0
 28 13  1  0
 26 22  1  0
  1 29  1  0
  1 30  1  0
  1 31  1  0
  4 32  1  0
  5 33  1  0
  6 34  1  0
  7 35  1  0
  9 36  1  0
 14 37  1  0
 15 38  1  0
 16 39  1  0
 21 40  1  0
 21 41  1  0
 23 42  1  0
 24 43  1  0
 27 44  1  0
 28 45  1  0
M  CHG  1  18  -1
M  END
>  <UniqueID>  (2) 
2

>  <SMILES>  (2) 
COc1ccccc1NS(=O)(=O)c1cccc([N-]C(=O)Cn2ccsc2=N)c1

>  <Energy>  (2) 
83.24669711668855

>  <Genealogy>  (2) 
COc1ccccc1NS(=O)(=O)c1cccc([N-]C(=O)Cn2ccsc2=N)c1 (protonated)
COc1ccccc1NS(=O)(=O)c1cccc([N-]C(=O)Cn2ccsc2=N)c1 (3D coordinates assigned)
COc1ccccc1NS(=O)(=O)c1cccc([N-]C(=O)Cn2ccsc2=N)c1 (optimized conformer: 83.24669711668855 kcal/mol)

>  <smiles>  (2) 
COc1ccccc1NS(=O)(=O)c1cccc(NC(=O)Cn2ccsc2=N)c1

>  <score_type>  (2) 
oracle

>  <origin>  (2) 
adg

>  <m_score__min__energy>  (2) 
-10.43

>  <m_primary>  (2) 
energy

$$$$
2:0
     RDKit          3D

 45 48  0  0  1  0  0  0  0  0999 V2000
   59.0260   25.7390   46.8470 O   0  0  0  0  0  0  0  0  0  0  0  0
   58.5880   26.8180   46.3380 C   0  0  0  0  0  0  0  0  0  0  0  0
   57.6140   26.8750   45.3180 N   0  0  0  0  0  0  0  0  0  0  0  0
   57.1510   28.1340   45.0640 C   0  0  0  0  0  0  0  0  0  0  0  0
   55.9570   28.6930   45.2430 N   0  0  0  0  0  0  0  0  0  0  0  0
   55.8910   29.9370   44.8800 N   0  0  0  0  0  0  0  0  0  0  0  0
   56.7160   30.6450   44.4210 C   0  0  0  0  0  0  0  0  0  0  0  0
   57.0940   31.9810   43.8980 C   0  0  0  0  0  0  0  0  0  0  0  0
   57.8700   32.7700   44.8890 C   0  0  0  0  0  0  0  0  0  0  0  0
   58.7200   33.7780   44.4500 C   0  0  0  0  0  0  0  0  0  0  0  0
   59.4380   34.5170   45.3830 C   0  0  0  0  0  0  0  0  0  0  0  0
   59.3090   34.2520   46.7540 C   0  0  0  0  0  0  0  0  0  0  0  0
   60.0150   34.9740   47.7040 O   0  0  0  0  0  0  0  0  0  0  0  0
   58.4610   33.2500   47.1760 C   0  0  0  0  0  0  0  0  0  0  0  0
   57.7610   32.5290   46.2610 C   0  0  0  0  0  0  0  0  0  0  0  0
   58.2330   29.4420   44.3470 S   0  0  0  0  0  0  0  0  0  0  0  0
   59.1710   28.0390   46.8920 C   0  0  0  0  0  0  0  0  0  0  0  0
   60.2950   28.6440   46.3820 C   0  0  0  0  0  0  0  0  0  0  0  0
   60.7290   29.8180   46.9990 C   0  0  0  0  0  0  0  0  0  0  0  0
   60.0480   30.3360   48.0720 C   0  0  0  0  0  0  0  0  0  0  0  0
   60.4510   31.5550   48.7330 N   0  0  0  0  0  0  0  0  0  0  0  0
   61.6310   31.9800   48.3640 C   0  0  0  0  0  0  0  0  0  0  0  0
   62.7800   31.6610   49.0550 C   0  0  0  0  0  0  0  0  0  0  0  0
   64.0090   32.1500   48.6040 C   0  0  0  0  0  0  0  0  0  0  0  0
   64.1100   32.9290   47.5090 N   0  0  0  0  0  0  0  0  0  0  0  0
   62.9840   33.2240   46.8580 C   0  0  0  0  0  0  0  0  0  0  0  0
   61.7860   32.7710   47.2650 N   0  0  0  0  0  0  0  0  0  0  0  0
   58.9120   29.7370   48.6000 C   0  0  0  0  0  0  0  0  0  0  0  0
   58.4840   28.5780   47.9900 C   0  0  0  0  0  0  0  0  0  0  0  0
   55.1430   28.1520   45.6480 H   0  0  0  0  0  0  0  0  0  0  0  0
   57.7056   31.8478   42.9935 H   0  0  0  0  0  0  0  0  0  0  0  0
   56.1683   32.5323   43.6762 H   0  0  0  0  0  0  0  0  0  0  0  0
   58.8235   33.9889   43.3754 H   0  0  0  0  0  0  0  0  0  0  0  0
   60.1130   35.3163   45.0431 H   0  0  0  0  0  0  0  0  0  0  0  0
   60.8320   34.5340   48.1040 H   0  0  0  0  0  0  0  0  0  0  0  0
   58.3515   33.0350   48.2492 H   0  0  0  0  0  0  0  0  0  0  0  0
   57.0886   31.7319   46.6110 H   0  0  0  0  0  0  0  0  0  0  0  0
   60.8316   28.2192   45.5208 H   0  0  0  0  0  0  0  0  0  0  0  0
   61.6250   30.3328   46.6219 H   0  0  0  0  0  0  0  0  0  0  0  0
   62.7302   31.0275   49.9529 H   0  0  0  0  0  0  0  0  0  0  0  0
   64.9221   31.8910   49.1600 H   0  0  0  0  0  0  0  0  0  0  0  0
   65.0310   33.3010   47.1610 H   0  0  0  0  0  0  0  0  0  0  0  0
   63.0375   33.8576   45.9604 H   0  0  0  0  0  0  0  0  0  0  0  0
   58.3804   30.1662   49.4621 H   0  0  0  0  0  0  0  0  0  0  0  0
   57.5878   28.0663   48.3707 H   0  0  0  0  0  0  0  0  0  0  0  0
  1  2  2  0
  2  3  1  0
  3  4  2  0
  4  5  1  0
  5  6  1  0
  6  7  2  0
  7  8  1  0
  8  9  1  0
  9 10  2  0
 10 11  1  0
 11 12  2  0
 12 13  1  0
 12 14  1  0
 14 15  2  0
  7 16  1  0
  2 17  1  0
 17 18  2  0
 18 19  1  0
 19 20  2  0
 20 21  1  0
 21 22  2  0
 22 23  1  0
 23 24  2  0
 24 25  1  0
 25 26  1  0
 26 27  2  0
 20 28  1  0
 28 29  2  0
 16  4  1  0
 29 17  1  0
 15  9  1  0
 27 22  1  0
  5 30  1  0
  8 31  1  0
  8 32  1  0
 10 33  1  0
 11 34  1  0
 13 35  1  0
 14 36  1  0
 15 37  1  0
 18 38  1  0
 19 39  1  0
 23 40  1  0
 24 41  1  0
 25 42  1  0
 26 43  1  0
 28 44  1  0
 29 45  1  0
M  END
>  <smiles>  (3) 
O=C(N=c1[nH]nc(Cc2ccc(O)cc2)s1)c1ccc(N=c2cc[nH]cn2)cc1

>  <score_type>  (3) 
oracle

>  <origin>  (3) 
adg

>  <m_score__min__energy>  (3) 
-10.6

>  <m_primary>  (3) 
energy

$$$$
3:0
     RDKit          3D

 54 57  0  0  0  0  0  0  0  0999 V2000
   55.8030   23.8910   47.0790 C   0  0  0  0  0  0  0  0  0  0  0  0
   57.1410   23.7940   47.7280 C   0  0  0  0  0  0  0  0  0  0  0  0
   57.3800   22.8530   48.5340 O   0  0  0  0  0  0  0  0  0  0  0  0
   58.1380   24.7790   47.4300 N   0  0  0  0  0  0  0  0  0  0  0  0
   58.0310   25.8280   46.4560 C   0  0  0  0  0  0  0  0  0  0  0  0
   57.8730   25.5510   45.0880 C   0  0  0  0  0  0  0  0  0  0  0  0
   57.7620   26.5930   44.1640 C   0  0  0  0  0  0  0  0  0  0  0  0
   57.7780   27.9280   44.5990 C   0  0  0  0  0  0  0  0  0  0  0  0
   57.7570   29.0200   43.6750 N   0  0  0  0  0  0  0  0  0  0  0  0
   56.8870   30.4940   43.9460 S   0  0  0  0  0  0  0  0  0  0  0  0
   55.5510   30.1790   44.5590 O   0  0  0  0  0  0  0  0  0  0  0  0
   56.6850   31.1950   42.6340 O   0  0  0  0  0  0  0  0  0  0  0  0
   57.7890   31.5290   45.0510 C   0  0  0  0  0  0  0  0  0  0  0  0
   57.2300   33.0330   45.5770 S   0  0  0  0  0  0  0  0  0  0  0  0
   58.6200   33.4200   46.4300 C   0  0  0  0  0  0  0  0  0  0  0  0
   58.8850   34.5850   47.1450 C   0  0  0  0  0  0  0  0  0  0  0  0
   60.1360   34.7140   47.7650 C   0  0  0  0  0  0  0  0  0  0  0  0
   61.0930   33.6850   47.6560 C   0  0  0  0  0  0  0  0  0  0  0  0
   62.6600   33.8710   48.4260 Cl  0  0  0  0  0  0  0  0  0  0  0  0
   60.8020   32.5160   46.9290 C   0  0  0  0  0  0  0  0  0  0  0  0
   59.5460   32.3910   46.3180 C   0  0  0  0  0  0  0  0  0  0  0  0
   59.0840   31.3060   45.5500 C   0  0  0  0  0  0  0  0  0  0  0  0
   59.9140   30.0860   45.2640 C   0  0  0  0  0  0  0  0  0  0  0  0
   57.8650   28.2030   45.9670 C   0  0  0  0  0  0  0  0  0  0  0  0
   58.0290   27.1660   46.8900 C   0  0  0  0  0  0  0  0  0  0  0  0
   58.2300   27.4820   48.2370 O   0  0  0  0  0  0  0  0  0  0  0  0
   59.0360   28.5480   48.6690 C   0  0  0  0  0  0  0  0  0  0  0  0
   60.4250   28.4240   48.5710 C   0  0  0  0  0  0  0  0  0  0  0  0
   61.2590   29.4510   49.0200 C   0  0  0  0  0  0  0  0  0  0  0  0
   60.7120   30.6150   49.5660 C   0  0  0  0  0  0  0  0  0  0  0  0
   59.3180   30.7560   49.6780 C   0  0  0  0  0  0  0  0  0  0  0  0
   58.7230   31.9820   50.2620 C   0  0  0  0  0  0  0  0  0  0  0  0
   59.4160   33.0720   50.3700 N   0  0  0  0  0  0  0  0  0  0  0  0
   57.3740   31.9670   50.7410 N   0  0  0  0  0  0  0  0  0  0  0  0
   58.4860   29.7190   49.2260 C   0  0  0  0  0  0  0  0  0  0  0  0
   55.0233   23.9475   47.8529 H   0  0  0  0  0  0  0  0  0  0  0  0
   55.7640   24.7943   46.4525 H   0  0  0  0  0  0  0  0  0  0  0  0
   55.6341   23.0027   46.4525 H   0  0  0  0  0  0  0  0  0  0  0  0
   57.8365   24.5074   44.7422 H   0  0  0  0  0  0  0  0  0  0  0  0
   57.6617   26.3669   43.0922 H   0  0  0  0  0  0  0  0  0  0  0  0
   58.1324   35.3836   47.2215 H   0  0  0  0  0  0  0  0  0  0  0  0
   60.3716   35.6223   48.3390 H   0  0  0  0  0  0  0  0  0  0  0  0
   61.5482   31.7126   46.8413 H   0  0  0  0  0  0  0  0  0  0  0  0
   60.2275   29.6252   46.2124 H   0  0  0  0  0  0  0  0  0  0  0  0
   59.3184   29.3648   44.6852 H   0  0  0  0  0  0  0  0  0  0  0  0
   60.8036   30.3752   44.6852 H   0  0  0  0  0  0  0  0  0  0  0  0
   57.8040   29.2431   46.3197 H   0  0  0  0  0  0  0  0  0  0  0  0
   60.8637   27.5129   48.1380 H   0  0  0  0  0  0  0  0  0  0  0  0
   62.3510   29.3427   48.9433 H   0  0  0  0  0  0  0  0  0  0  0  0
   61.3743   31.4235   49.9092 H   0  0  0  0  0  0  0  0  0  0  0  0
   60.4560   33.0880   50.2760 H   0  0  0  0  0  0  0  0  0  0  0  0
   56.7660   31.1210   50.6360 H   0  0  0  0  0  0  0  0  0  0  0  0
   56.9620   32.8190   51.1810 H   0  0  0  0  0  0  0  0  0  0  0  0
   57.3939   29.8222   49.3077 H   0  0  0  0  0  0  0  0  0  0  0  0
  1  2  1  0
  2  3  2  0
  2  4  1  0
  4  5  1  0
  5  6  2  0
  6  7  1  0
  7  8  2  0
  8  9  1  0
  9 10  1  0
 10 11  2  0
 10 12  2  0
 10 13  1  0
 13 14  1  0
 14 15  1  0
 15 16  2  0
 16 17  1  0
 17 18  2  0
 18 19  1  0
 18 20  1  0
 20 21  2  0
 21 22  1  0
 22 23  1  0
  8 24  1  0
 24 25  2  0
 25 26  1  0
 26 27  1  0
 27 28  2  0
 28 29  1  0
 29 30  2  0
 30 31  1  0
 31 32  1  0
 32 33  2  3
 32 34  1  0
 31 35  2  0
 25  5  1  0
 35 27  1  0
 22 13  2  0
 21 15  1  0
  1 36  1  0
  1 37  1  0
  1 38  1  0
  6 39  1  0
  7 40  1  0
 16 41  1  0
 17 42  1  0
 20 43  1  0
 23 44  1  0
 23 45  1  0
 23 46  1  0
 24 47  1  0
 28 48  1  0
 29 49  1  0
 30 50  1  0
 33 51  1  0
 34 52  1  0
 34 53  1  0
 35 54  1  0
M  CHG  2   4  -1   9  -1
M  END
>  <UniqueID>  (4) 
3

>  <SMILES>  (4) 
CC(=O)[N-]c1ccc([N-]S(=O)(=O)c2sc3ccc(Cl)cc3c2C)cc1Oc1cccc(C(=N)N)c1

>  <Energy>  (4) 
102.293048751815

>  <Genealogy>  (4) 
CC(=O)[N-]c1ccc([N-]S(=O)(=O)c2sc3ccc(Cl)cc3c2C)cc1Oc1cccc(C(=N)N)c1 (protonated)
CC(=O)[N-]c1ccc([N-]S(=O)(=O)c2sc3ccc(Cl)cc3c2C)cc1Oc1cccc(C(=N)N)c1 (3D coordinates assigned)
CC(=O)[N-]c1ccc([N-]S(=O)(=O)c2sc3ccc(Cl)cc3c2C)cc1Oc1cccc(C(=N)N)c1 (optimized conformer: 102.293048751815 kcal/mol)

>  <smiles>  (4) 
CC(=O)Nc1ccc(NS(=O)(=O)c2sc3ccc(Cl)cc3c2C)cc1Oc1cccc(C(=N)N)c1

>  <score_type>  (4) 
oracle

>  <origin>  (4) 
adg

>  <m_score__min__energy>  (4) 
-12.199999999999999

>  <m_primary>  (4) 
energy

$$$$
4:0
     RDKit          3D

 30 31  0  0  0  0  0  0  0  0999 V2000
   54.6050   25.0910   45.6200 C   0  0  0  0  0  0  0  0  0  0  0  0
   55.1200   26.3630   46.0010 O   0  0  0  0  0  0  0  0  0  0  0  0
   56.4830   26.7010   46.0110 C   0  0  0  0  0  0  0  0  0  0  0  0
   57.4700   25.7790   46.4140 C   0  0  0  0  0  0  0  0  0  0  0  0
   58.8240   26.1210   46.3510 C   0  0  0  0  0  0  0  0  0  0  0  0
   59.2080   27.3770   45.8810 C   0  0  0  0  0  0  0  0  0  0  0  0
   58.2400   28.3020   45.4900 C   0  0  0  0  0  0  0  0  0  0  0  0
   56.8780   27.9880   45.5790 C   0  0  0  0  0  0  0  0  0  0  0  0
   55.9220   28.9710   45.1590 N   0  0  0  0  0  0  0  0  0  0  0  0
   56.1970   30.0710   44.2820 C   0  0  0  0  0  0  0  0  0  0  0  0
   56.2410   29.8880   43.0360 O   0  0  0  0  0  0  0  0  0  0  0  0
   56.2760   31.4110   44.7890 N   0  0  0  0  0  0  0  0  0  0  0  0
   57.3440   32.0980   45.0880 C   0  0  0  0  0  0  0  0  0  0  0  0
   58.2040   31.5930   46.0720 C   0  0  0  0  0  0  0  0  0  0  0  0
   59.3550   32.3030   46.4230 C   0  0  0  0  0  0  0  0  0  0  0  0
   59.6360   33.4910   45.8240 N   0  0  0  0  0  0  0  0  0  0  0  0
   58.8100   34.0210   44.8820 C   0  0  0  0  0  0  0  0  0  0  0  0
   57.6490   33.3430   44.4990 C   0  0  0  0  0  0  0  0  0  0  0  0
   54.3683   24.5064   46.5212 H   0  0  0  0  0  0  0  0  0  0  0  0
   53.6920   25.2292   45.0223 H   0  0  0  0  0  0  0  0  0  0  0  0
   55.3570   24.5550   45.0223 H   0  0  0  0  0  0  0  0  0  0  0  0
   57.1733   24.7850   46.7800 H   0  0  0  0  0  0  0  0  0  0  0  0
   59.5882   25.3982   46.6727 H   0  0  0  0  0  0  0  0  0  0  0  0
   60.2748   27.6381   45.8187 H   0  0  0  0  0  0  0  0  0  0  0  0
   58.5489   29.2864   45.1085 H   0  0  0  0  0  0  0  0  0  0  0  0
   57.9733   30.6385   46.5677 H   0  0  0  0  0  0  0  0  0  0  0  0
   60.0363   31.8995   47.1866 H   0  0  0  0  0  0  0  0  0  0  0  0
   60.4990   34.0110   46.0980 H   0  0  0  0  0  0  0  0  0  0  0  0
   59.0569   34.9879   44.4193 H   0  0  0  0  0  0  0  0  0  0  0  0
   56.9778   33.7774   43.7435 H   0  0  0  0  0  0  0  0  0  0  0  0
  1  2  1  0
  2  3  1  0
  3  4  2  0
  4  5  1  0
  5  6  2  0
  6  7  1  0
  7  8  2  0
  8  9  1  0
  9 10  1  0
 10 11  2  0
 10 12  1  0
 12 13  2  3
 13 14  1  0
 14 15  2  0
 15 16  1  0
 16 17  1  0
 17 18  2  0
  8  3  1  0
 18 13  1  0
  1 19  1  0
  1 20  1  0
  1 21  1  0
  4 22  1  0
  5 23  1  0
  6 24  1  0
  7 25  1  0
 14 26  1  0
 15 27  1  0
 16 28  1  0
 17 29  1  0
 18 30  1  0
M  CHG  1   9  -1
M  END
>  <UniqueID>  (5) 
4

>  <SMILES>  (5) 
COc1ccccc1[N-]C(=O)N=c1cc[nH]cc1

>  <Energy>  (5) 
42.83679567065087

>  <Genealogy>  (5) 
COc1ccccc1[N-]C(=O)N=c1cc[nH]cc1 (protonated)
COc1ccccc1[N-]C(=O)N=c1cc[nH]cc1 (3D coordinates assigned)
COc1ccccc1[N-]C(=O)N=c1cc[nH]cc1 (optimized conformer: 42.83679567065087 kcal/mol)

>  <smiles>  (5) 
COc1ccccc1NC(=O)N=c1cc[nH]cc1

>  <score_type>  (5) 
oracle

>  <origin>  (5) 
adg

>  <m_score__min__energy>  (5) 
-8.2799999999999994

>  <m_primary>  (5) 
energy

$$$$
5:0
     RDKit          3D

 49 51  0  0  0  0  0  0  0  0999 V2000
   58.8680   27.9800   46.8150 C   0  0  0  0  0  0  0  0  0  0  0  0
   59.3730   29.1190   46.0230 N   0  0  0  0  0  0  0  0  0  0  0  0
   59.6710   28.6570   44.6550 C   0  0  0  0  0  0  0  0  0  0  0  0
   60.5750   29.7070   46.6550 C   0  0  0  0  0  0  0  0  0  0  0  0
   60.2460   30.3620   48.0230 C   0  0  0  0  0  0  0  0  0  0  0  0
   60.0650   31.9330   48.0480 C   0  0  0  0  0  0  0  0  0  0  0  0
   61.4810   32.5340   47.8710 C   0  0  0  0  0  0  0  0  0  0  0  0
   62.5230   32.1490   48.7480 C   0  0  0  0  0  0  0  0  0  0  0  0
   63.8250   32.6270   48.5780 C   0  0  0  0  0  0  0  0  0  0  0  0
   64.1280   33.4630   47.5060 C   0  0  0  0  0  0  0  0  0  0  0  0
   63.1350   33.8030   46.5880 C   0  0  0  0  0  0  0  0  0  0  0  0
   61.8300   33.3290   46.7520 C   0  0  0  0  0  0  0  0  0  0  0  0
   59.4110   32.3300   49.3950 C   0  0  0  0  0  0  0  0  0  0  0  0
   59.8860   33.4650   50.0950 C   0  0  0  0  0  0  0  0  0  0  0  0
   59.3250   33.8550   51.3160 C   0  0  0  0  0  0  0  0  0  0  0  0
   58.3040   33.1010   51.8860 C   0  0  0  0  0  0  0  0  0  0  0  0
   57.8530   31.9490   51.2470 C   0  0  0  0  0  0  0  0  0  0  0  0
   58.4020   31.5580   50.0220 C   0  0  0  0  0  0  0  0  0  0  0  0
   59.0790   32.4330   46.9720 C   0  0  0  0  0  0  0  0  0  0  0  0
   58.1990   31.6440   46.3110 N   0  0  0  0  0  0  0  0  0  0  0  0
   57.3900   32.4090   45.6000 N   0  0  0  0  0  0  0  0  0  0  0  0
   57.7630   33.6780   45.8380 C   0  0  0  0  0  0  0  0  0  0  0  0
   58.8010   33.7360   46.6960 N   0  0  0  0  0  0  0  0  0  0  0  0
   59.2470   34.9690   47.3480 C   0  0  0  0  0  0  0  0  0  0  0  0
   58.9681   28.2057   47.8869 H   0  0  0  0  0  0  0  0  0  0  0  0
   57.8088   27.8068   46.5741 H   0  0  0  0  0  0  0  0  0  0  0  0
   59.4509   27.0788   46.5741 H   0  0  0  0  0  0  0  0  0  0  0  0
   60.2667   27.7334   44.7015 H   0  0  0  0  0  0  0  0  0  0  0  0
   58.7296   28.4596   44.1214 H   0  0  0  0  0  0  0  0  0  0  0  0
   60.2391   29.4333   44.1214 H   0  0  0  0  0  0  0  0  0  0  0  0
   61.3199   28.9127   46.8107 H   0  0  0  0  0  0  0  0  0  0  0  0
   60.9643   30.4892   45.9867 H   0  0  0  0  0  0  0  0  0  0  0  0
   59.3090   29.9152   48.3868 H   0  0  0  0  0  0  0  0  0  0  0  0
   61.1293   30.1686   48.6494 H   0  0  0  0  0  0  0  0  0  0  0  0
   62.3040   31.4613   49.5781 H   0  0  0  0  0  0  0  0  0  0  0  0
   64.6120   32.3426   49.2920 H   0  0  0  0  0  0  0  0  0  0  0  0
   65.1487   33.8543   47.3838 H   0  0  0  0  0  0  0  0  0  0  0  0
   63.3796   34.4473   45.7306 H   0  0  0  0  0  0  0  0  0  0  0  0
   61.0643   33.5767   46.0021 H   0  0  0  0  0  0  0  0  0  0  0  0
   60.7133   34.0525   49.6702 H   0  0  0  0  0  0  0  0  0  0  0  0
   59.6914   34.7583   51.8256 H   0  0  0  0  0  0  0  0  0  0  0  0
   57.8540   33.4143   52.8396 H   0  0  0  0  0  0  0  0  0  0  0  0
   57.0598   31.3427   51.7088 H   0  0  0  0  0  0  0  0  0  0  0  0
   58.0451   30.6371   49.5377 H   0  0  0  0  0  0  0  0  0  0  0  0
   58.0810   30.6140   46.3750 H   0  0  0  0  0  0  0  0  0  0  0  0
   57.2815   34.5591   45.3888 H   0  0  0  0  0  0  0  0  0  0  0  0
   59.2016   34.8435   48.4399 H   0  0  0  0  0  0  0  0  0  0  0  0
   60.2818   35.1894   47.0469 H   0  0  0  0  0  0  0  0  0  0  0  0
   58.5926   35.8004   47.0469 H   0  0  0  0  0  0  0  0  0  0  0  0
  1  2  1  0
  2  3  1  0
  2  4  1  0
  4  5  1  0
  5  6  1  0
  6  7  1  0
  7  8  2  0
  8  9  1  0
  9 10  2  0
 10 11  1  0
 11 12  2  0
  6 13  1  0
 13 14  2  0
 14 15  1  0
 15 16  2  0
 16 17  1  0
 17 18  2  0
  6 19  1  0
 19 20  2  0
 20 21  1  0
 21 22  2  0
 22 23  1  0
 23 24  1  0
 12  7  1  0
 18 13  1  0
 23 19  1  0
  1 25  1  0
  1 26  1  0
  1 27  1  0
  3 28  1  0
  3 29  1  0
  3 30  1  0
  4 31  1  0
  4 32  1  0
  5 33  1  0
  5 34  1  0
  8 35  1  0
  9 36  1  0
 10 37  1  0
 11 38  1  0
 12 39  1  0
 14 40  1  0
 15 41  1  0
 16 42  1  0
 17 43  1  0
 18 44  1  0
 20 45  1  0
 22 46  1  0
 24 47  1  0
 24 48  1  0
 24 49  1  0
M  CHG  1  20   1
M  END
>  <UniqueID>  (6) 
5

>  <SMILES>  (6) 
CN(C)CCC(c1ccccc1)(c1ccccc1)c1[nH+]ncn1C

>  <Energy>  (6) 
104.12302340436523

>  <Genealogy>  (6) 
CN(C)CCC(c1ccccc1)(c1ccccc1)c1[nH+]ncn1C (protonated)
CN(C)CCC(c1ccccc1)(c1ccccc1)c1[nH+]ncn1C (3D coordinates assigned)
CN(C)CCC(c1ccccc1)(c1ccccc1)c1[nH+]ncn1C (optimized conformer: 104.12302340436523 kcal/mol)

>  <smiles>  (6) 
CN(C)CCC(c1ccccc1)(c1ccccc1)c1nncn1C

>  <score_type>  (6) 
oracle

>  <origin>  (6) 
adg

>  <m_score__min__energy>  (6) 
-5.3099999999999996

>  <m_primary>  (6) 
energy

$$$$
6:0
     RDKit          3D

 40 42  0  0  1  0  0  0  0  0999 V2000
   58.1030   32.3240   46.9010 C   0  0  0  0  0  0  0  0  0  0  0  0
   57.4080   31.4890   46.0420 O   0  0  0  0  0  0  0  0  0  0  0  0
   57.3760   31.5230   44.6640 C   0  0  0  0  0  0  0  0  0  0  0  0
   58.0310   32.5070   43.9160 C   0  0  0  0  0  0  0  0  0  0  0  0
   57.9960   32.5310   42.5410 C   0  0  0  0  0  0  0  0  0  0  0  0
   57.2910   31.5490   41.8880 C   0  0  0  0  0  0  0  0  0  0  0  0
   56.6380   30.5710   42.6000 C   0  0  0  0  0  0  0  0  0  0  0  0
   56.6690   30.5430   44.0130 C   0  0  0  0  0  0  0  0  0  0  0  0
   55.8430   29.4920   44.6270 C   0  0  0  0  0  0  0  0  0  0  0  0
   56.3650   28.4170   45.3100 N   0  0  0  0  0  0  0  0  0  0  0  0
   57.3840   28.0280   45.8860 C   0  0  0  0  0  0  0  0  0  0  0  0
   58.1880   28.9810   46.4480 N   0  0  0  0  0  0  0  0  0  0  0  0
   59.2490   28.5920   47.1540 C   0  0  0  0  0  0  0  0  0  0  0  0
   59.5520   27.2750   47.3250 N   0  0  0  0  0  0  0  0  0  0  0  0
   58.7580   26.3240   46.7690 C   0  0  0  0  0  0  0  0  0  0  0  0
   57.6390   26.6790   46.0240 C   0  0  0  0  0  0  0  0  0  0  0  0
   56.8260   25.6500   45.4270 C   0  0  0  0  0  0  0  0  0  0  0  0
   57.4840   24.6980   44.6570 C   0  0  0  0  0  0  0  0  0  0  0  0
   56.7700   23.6720   44.0830 C   0  0  0  0  0  0  0  0  0  0  0  0
   55.3940   23.5530   44.2500 C   0  0  0  0  0  0  0  0  0  0  0  0
   54.7670   24.5040   45.0140 C   0  0  0  0  0  0  0  0  0  0  0  0
   55.4650   25.5410   45.5980 C   0  0  0  0  0  0  0  0  0  0  0  0
   54.7970   26.4740   46.3540 O   0  0  0  0  0  0  0  0  0  0  0  0
   57.8755   32.0507   47.9419 H   0  0  0  0  0  0  0  0  0  0  0  0
   59.1831   32.2177   46.7217 H   0  0  0  0  0  0  0  0  0  0  0  0
   57.8024   33.3668   46.7217 H   0  0  0  0  0  0  0  0  0  0  0  0
   58.5940   33.2893   44.4461 H   0  0  0  0  0  0  0  0  0  0  0  0
   58.5198   33.3174   41.9779 H   0  0  0  0  0  0  0  0  0  0  0  0
   57.2488   31.5453   40.7888 H   0  0  0  0  0  0  0  0  0  0  0  0
   56.0793   29.7934   42.0585 H   0  0  0  0  0  0  0  0  0  0  0  0
   55.1809   30.0073   45.3384 H   0  0  0  0  0  0  0  0  0  0  0  0
   55.4270   28.9985   43.7363 H   0  0  0  0  0  0  0  0  0  0  0  0
   57.8960   29.9460   46.2650 H   0  0  0  0  0  0  0  0  0  0  0  0
   59.8972   29.3544   47.6107 H   0  0  0  0  0  0  0  0  0  0  0  0
   59.0028   25.2609   46.9096 H   0  0  0  0  0  0  0  0  0  0  0  0
   58.5717   24.7649   44.5073 H   0  0  0  0  0  0  0  0  0  0  0  0
   57.3016   22.9250   43.4752 H   0  0  0  0  0  0  0  0  0  0  0  0
   54.8311   22.7288   43.7876 H   0  0  0  0  0  0  0  0  0  0  0  0
   53.6794   24.4382   45.1650 H   0  0  0  0  0  0  0  0  0  0  0  0
   54.7720   27.4480   46.1660 H   0  0  0  0  0  0  0  0  0  0  0  0
  1  2  1  0
  2  3  1  0
  3  4  2  0
  4  5  1  0
  5  6  2  0
  6  7  1  0
  7  8  2  0
  8  9  1  0
  9 10  1  0
 10 11  2  0
 11 12  1  0
 12 13  1  0
 13 14  2  0
 14 15  1  0
 15 16  2  0
 16 17  1  0
 17 18  2  0
 18 19  1  0
 19 20  2  0
 20 21  1  0
 21 22  2  0
 22 23  1  0
  8  3  1  0
 16 11  1  0
 22 17  1  0
  1 24  1  0
  1 25  1  0
  1 26  1  0
  4 27  1  0
  5 28  1  0
  6 29  1  0
  7 30  1  0
  9 31  1  0
  9 32  1  0
 12 33  1  0
 13 34  1  0
 15 35  1  0
 18 36  1  0
 19 37  1  0
 20 38  1  0
 21 39  1  0
 23 40  1  0
M  END
>  <smiles>  (7) 
COc1ccccc1CN=c1[nH]cncc1-c1ccccc1O

>  <score_type>  (7) 
oracle

>  <origin>  (7) 
adg

>  <m_score__min__energy>  (7) 
-7.7999999999999998

>  <m_primary>  (7) 
energy

$$$$
7:0
     RDKit          3D

 65 68  0  0  0  0  0  0  0  0999 V2000
   59.4660   31.4930   52.1130 C   0  0  0  0  0  0  0  0  0  0  0  0
   58.4740   30.7110   50.8590 S   0  0  0  0  0  0  0  0  0  0  0  0
   57.2540   30.0800   51.4700 O   0  0  0  0  0  0  0  0  0  0  0  0
   58.0320   31.7610   49.8780 O   0  0  0  0  0  0  0  0  0  0  0  0
   59.4080   29.5140   50.0160 N   0  0  0  0  0  0  0  0  0  0  0  0
   59.5540   29.4470   48.5850 C   0  0  0  0  0  0  0  0  0  0  0  0
   60.6860   29.9610   47.9220 C   0  0  0  0  0  0  0  0  0  0  0  0
   60.7930   29.8660   46.5320 C   0  0  0  0  0  0  0  0  0  0  0  0
   59.7820   29.2580   45.7880 C   0  0  0  0  0  0  0  0  0  0  0  0
   58.6500   28.7420   46.4330 C   0  0  0  0  0  0  0  0  0  0  0  0
   57.3910   27.9250   45.5100 S   0  0  0  0  0  0  0  0  0  0  0  0
   56.5630   27.0580   46.4180 O   0  0  0  0  0  0  0  0  0  0  0  0
   58.0330   27.0490   44.4710 O   0  0  0  0  0  0  0  0  0  0  0  0
   56.3640   29.0870   44.7210 N   0  0  0  0  0  0  0  0  0  0  0  0
   57.1480   30.0490   43.9370 C   0  0  1  0  0  0  0  0  0  0  0  0
   56.3540   30.4660   42.6870 C   0  0  0  0  0  0  0  0  0  0  0  0
   57.0440   31.5760   41.8590 C   0  0  0  0  0  0  0  0  0  0  0  0
   58.0630   32.4220   42.6490 C   0  0  0  0  0  0  0  0  0  0  0  0
   57.7030   32.5090   44.0690 N   0  0  0  0  0  0  0  0  0  0  0  0
   57.7370   33.7920   44.7780 C   0  0  0  0  0  0  0  0  0  0  0  0
   58.8070   33.7760   45.8360 C   0  0  0  0  0  0  0  0  0  0  0  0
   60.1560   33.8530   45.4740 C   0  0  0  0  0  0  0  0  0  0  0  0
   61.1570   33.8120   46.4480 C   0  0  0  0  0  0  0  0  0  0  0  0
   60.8370   33.6900   47.8220 C   0  0  0  0  0  0  0  0  0  0  0  0
   61.8830   33.6520   48.8460 N   0  0  0  0  0  0  0  0  0  0  0  0
   63.2620   33.2910   48.4460 C   0  0  0  0  0  0  0  0  0  0  0  0
   64.2950   33.3780   49.5750 C   0  0  0  0  0  0  0  0  0  0  0  0
   63.7400   32.9250   50.8470 N   0  0  0  0  0  0  0  0  0  0  0  0
   62.6780   33.8430   51.2480 C   0  0  0  0  0  0  0  0  0  0  0  0
   61.5000   33.8130   50.2670 C   0  0  0  0  0  0  0  0  0  0  0  0
   59.4670   33.5950   48.1660 C   0  0  0  0  0  0  0  0  0  0  0  0
   58.4710   33.6380   47.1870 C   0  0  0  0  0  0  0  0  0  0  0  0
   57.4100   31.2810   44.7550 C   0  0  0  0  0  0  0  0  0  0  0  0
   57.4020   31.2320   46.0150 O   0  0  0  0  0  0  0  0  0  0  0  0
   58.5430   28.8360   47.8270 C   0  0  0  0  0  0  0  0  0  0  0  0
   59.0965   31.2018   53.1073 H   0  0  0  0  0  0  0  0  0  0  0  0
   60.5133   31.1749   52.0033 H   0  0  0  0  0  0  0  0  0  0  0  0
   59.4012   32.5856   52.0033 H   0  0  0  0  0  0  0  0  0  0  0  0
   59.8490   28.7700   50.6020 H   0  0  0  0  0  0  0  0  0  0  0  0
   61.4894   30.4394   48.5014 H   0  0  0  0  0  0  0  0  0  0  0  0
   61.6788   30.2727   46.0221 H   0  0  0  0  0  0  0  0  0  0  0  0
   59.8733   29.1835   44.6943 H   0  0  0  0  0  0  0  0  0  0  0  0
   58.0981   29.5759   43.6481 H   0  0  0  0  0  0  0  0  0  0  0  0
   56.2255   29.5819   42.0452 H   0  0  0  0  0  0  0  0  0  0  0  0
   55.3929   30.8723   43.0350 H   0  0  0  0  0  0  0  0  0  0  0  0
   57.5703   31.1007   41.0181 H   0  0  0  0  0  0  0  0  0  0  0  0
   56.2497   32.2645   41.5348 H   0  0  0  0  0  0  0  0  0  0  0  0
   59.0571   31.9596   42.5599 H   0  0  0  0  0  0  0  0  0  0  0  0
   58.0656   33.4392   42.2304 H   0  0  0  0  0  0  0  0  0  0  0  0
   57.9488   34.5979   44.0599 H   0  0  0  0  0  0  0  0  0  0  0  0
   56.7618   33.9615   45.2579 H   0  0  0  0  0  0  0  0  0  0  0  0
   60.4312   33.9467   44.4131 H   0  0  0  0  0  0  0  0  0  0  0  0
   62.2117   33.8756   46.1422 H   0  0  0  0  0  0  0  0  0  0  0  0
   63.2510   32.2576   48.0693 H   0  0  0  0  0  0  0  0  0  0  0  0
   63.5686   34.0233   47.6846 H   0  0  0  0  0  0  0  0  0  0  0  0
   65.1590   32.7476   49.3177 H   0  0  0  0  0  0  0  0  0  0  0  0
   64.5957   34.4303   49.6860 H   0  0  0  0  0  0  0  0  0  0  0  0
   63.3430   31.9620   50.7320 H   0  0  0  0  0  0  0  0  0  0  0  0
   62.3173   33.5559   52.2467 H   0  0  0  0  0  0  0  0  0  0  0  0
   63.0914   34.8623   51.2554 H   0  0  0  0  0  0  0  0  0  0  0  0
   60.8455   32.9730   50.5429 H   0  0  0  0  0  0  0  0  0  0  0  0
   61.0042   34.7917   50.3464 H   0  0  0  0  0  0  0  0  0  0  0  0
   59.1816   33.4854   49.2227 H   0  0  0  0  0  0  0  0  0  0  0  0
   57.4137   33.5627   47.4810 H   0  0  0  0  0  0  0  0  0  0  0  0
   57.6565   28.4262   48.3331 H   0  0  0  0  0  0  0  0  0  0  0  0
  1  2  1  0
  2  3  2  0
  2  4  2  0
  2  5  1  0
  5  6  1  0
  6  7  2  0
  7  8  1  0
  8  9  2  0
  9 10  1  0
 10 11  1  0
 11 12  2  0
 11 13  2  0
 11 14  1  0
 14 15  1  0
 15 16  1  0
 16 17  1  0
 17 18  1  0
 18 19  1  0
 19 20  1  0
 20 21  1  0
 21 22  2  0
 22 23  1  0
 23 24  2  0
 24 25  1  0
 25 26  1  0
 26 27  1  0
 27 28  1  0
 28 29  1  0
 29 30  1  0
 24 31  1  0
 31 32  2  0
 19 33  1  0
 33 34  2  0
 10 35  2  0
 35  6  1  0
 33 15  1  0
 32 21  1  0
 30 25  1  0
  1 36  1  0
  1 37  1  0
  1 38  1  0
  5 39  1  0
  7 40  1  0
  8 41  1  0
  9 42  1  0
 15 43  1  6
 16 44  1  0
 16 45  1  0
 17 46  1  0
 17 47  1  0
 18 48  1  0
 18 49  1  0
 20 50  1  0
 20 51  1  0
 22 52  1  0
 23 53  1  0
 26 54  1  0
 26 55  1  0
 27 56  1  0
 27 57  1  0
 28 58  1  0
 29 59  1  0
 29 60  1  0
 30 61  1  0
 30 62  1  0
 31 63  1  0
 32 64  1  0
 35 65  1  0
M  CHG  1  14  -1
M  END
>  <UniqueID>  (8) 
6

>  <SMILES>  (8) 
CS(=O)(=O)Nc1cccc(S(=O)(=O)[N-][C@H]2CCCN(Cc3ccc(N4CCNCC4)cc3)C2=O)c1

>  <Energy>  (8) 
72.85466050441505

>  <Genealogy>  (8) 
CS(=O)(=O)Nc1cccc(S(=O)(=O)[N-]C2CCCN(Cc3ccc(N4CCNCC4)cc3)C2=O)c1 (protonated)
CS(=O)(=O)Nc1cccc(S(=O)(=O)[N-][C@H]2CCCN(Cc3ccc(N4CCNCC4)cc3)C2=O)c1 (chirality)
CS(=O)(=O)Nc1cccc(S(=O)(=O)[N-][C@H]2CCCN(Cc3ccc(N4CCNCC4)cc3)C2=O)c1 (3D coordinates assigned)
CS(=O)(=O)Nc1cccc(S(=O)(=O)[N-][C@H]2CCCN(Cc3ccc(N4CCNCC4)cc3)C2=O)c1 (nonaromatic ring conformer: 72.85466050441505 kcal/mol)

>  <smiles>  (8) 
CS(=O)(=O)Nc1cccc(S(=O)(=O)NC2CCCN(Cc3ccc(N4CCNCC4)cc3)C2=O)c1

>  <score_type>  (8) 
oracle

>  <origin>  (8) 
adg

>  <m_score__min__energy>  (8) 
-12.5

>  <m_primary>  (8) 
energy

$$$$
8:0
     RDKit          3D

 37 38  0  0  0  0  0  0  0  0999 V2000
   59.8630   31.7820   49.7570 C   0  0  0  0  0  0  0  0  0  0  0  0
   59.8270   33.3040   49.6640 C   0  0  0  0  0  0  0  0  0  0  0  0
   61.2300   33.9300   49.6920 C   0  0  0  0  0  0  0  0  0  0  0  0
   61.9890   33.6200   48.4750 N   0  0  0  0  0  0  0  0  0  0  0  0
   61.6700   33.8520   47.1770 C   0  0  0  0  0  0  0  0  0  0  0  0
   60.3970   34.4830   46.6880 C   0  0  0  0  0  0  0  0  0  0  0  0
   59.5100   33.4790   46.0010 C   0  0  0  0  0  0  0  0  0  0  0  0
   59.5750   32.1190   46.3490 C   0  0  0  0  0  0  0  0  0  0  0  0
   58.7550   31.1870   45.7070 C   0  0  0  0  0  0  0  0  0  0  0  0
   57.8530   31.6020   44.7200 C   0  0  0  0  0  0  0  0  0  0  0  0
   56.8650   30.4200   43.8710 S   0  0  0  0  0  0  0  0  0  0  0  0
   57.6770   28.8380   43.9210 C   0  0  0  0  0  0  0  0  0  0  0  0
   55.5160   30.3150   44.5260 O   0  0  0  0  0  0  0  0  0  0  0  0
   56.6760   30.8440   42.4420 O   0  0  0  0  0  0  0  0  0  0  0  0
   57.7710   32.9590   44.3840 C   0  0  0  0  0  0  0  0  0  0  0  0
   58.5860   33.8940   45.0290 C   0  0  0  0  0  0  0  0  0  0  0  0
   62.6620   33.4650   46.3440 N   0  0  0  0  0  0  0  0  0  0  0  0
   63.6330   32.9950   47.1110 N   0  0  0  0  0  0  0  0  0  0  0  0
   63.2290   33.1010   48.3850 C   0  0  0  0  0  0  0  0  0  0  0  0
   63.9390   32.7720   49.3730 O   0  0  0  0  0  0  0  0  0  0  0  0
   59.8702   31.4793   50.8145 H   0  0  0  0  0  0  0  0  0  0  0  0
   58.9745   31.3633   49.2618 H   0  0  0  0  0  0  0  0  0  0  0  0
   60.7703   31.4057   49.2618 H   0  0  0  0  0  0  0  0  0  0  0  0
   59.3330   33.5881   48.7231 H   0  0  0  0  0  0  0  0  0  0  0  0
   59.2769   33.6788   50.5397 H   0  0  0  0  0  0  0  0  0  0  0  0
   61.1311   35.0219   49.7816 H   0  0  0  0  0  0  0  0  0  0  0  0
   61.7746   33.5108   50.5509 H   0  0  0  0  0  0  0  0  0  0  0  0
   59.8566   34.9085   47.5464 H   0  0  0  0  0  0  0  0  0  0  0  0
   60.6580   35.2663   45.9611 H   0  0  0  0  0  0  0  0  0  0  0  0
   60.2744   31.7865   47.1302 H   0  0  0  0  0  0  0  0  0  0  0  0
   58.8186   30.1229   45.9783 H   0  0  0  0  0  0  0  0  0  0  0  0
   57.8311   28.5379   44.9680 H   0  0  0  0  0  0  0  0  0  0  0  0
   57.0520   28.0888   43.4130 H   0  0  0  0  0  0  0  0  0  0  0  0
   58.6501   28.9091   43.4130 H   0  0  0  0  0  0  0  0  0  0  0  0
   57.0630   33.2903   43.6100 H   0  0  0  0  0  0  0  0  0  0  0  0
   58.5028   34.9607   44.7735 H   0  0  0  0  0  0  0  0  0  0  0  0
   64.5460   32.6280   46.7620 H   0  0  0  0  0  0  0  0  0  0  0  0
  1  2  1  0
  2  3  1  0
  3  4  1  0
  4  5  1  0
  5  6  1  0
  6  7  1  0
  7  8  2  0
  8  9  1  0
  9 10  2  0
 10 11  1  0
 11 12  1  0
 11 13  2  0
 11 14  2  0
 10 15  1  0
 15 16  2  0
  5 17  2  0
 17 18  1  0
 18 19  1  0
 19 20  2  0
 19  4  1  0
 16  7  1  0
  1 21  1  0
  1 22  1  0
  1 23  1  0
  2 24  1  0
  2 25  1  0
  3 26  1  0
  3 27  1  0
  6 28  1  0
  6 29  1  0
  8 30  1  0
  9 31  1  0
 12 32  1  0
 12 33  1  0
 12 34  1  0
 15 35  1  0
 16 36  1  0
 18 37  1  0
M  END
>  <UniqueID>  (9) 
7

>  <SMILES>  (9) 
CCCn1c(Cc2ccc(S(C)(=O)=O)cc2)n[nH]c1=O

>  <Energy>  (9) 
63.29098351105657

>  <Genealogy>  (9) 
CCCn1c(Cc2ccc(S(C)(=O)=O)cc2)n[nH]c1=O (3D coordinates assigned)
CCCn1c(Cc2ccc(S(C)(=O)=O)cc2)n[nH]c1=O (optimized conformer: 63.29098351105657 kcal/mol)

>  <smiles>  (9) 
CCCn1c(Cc2ccc(S(C)(=O)=O)cc2)n[nH]c1=O

>  <score_type>  (9) 
oracle

>  <origin>  (9) 
adg

>  <m_score__min__energy>  (9) 
-7.71

>  <m_primary>  (9) 
energy

$$$$
9:0
     RDKit          3D

 58 58  0  0  0  0  0  0  0  0999 V2000
   58.2550   22.4970   44.4620 C   0  0  0  0  0  0  0  0  0  0  0  0
   56.7700   22.4150   44.0750 C   0  0  0  0  0  0  0  0  0  0  0  0
   56.6280   21.8760   42.6460 C   0  0  0  0  0  0  0  0  0  0  0  0
   56.0680   23.7900   44.1860 C   0  0  0  0  0  0  0  0  0  0  0  0
   55.4710   24.0930   45.5780 C   0  0  2  0  0  0  0  0  0  0  0  0
   54.1310   24.7640   45.4760 C   0  0  0  0  0  0  0  0  0  0  0  0
   54.0220   25.9700   45.6400 O   0  0  0  0  0  0  0  0  0  0  0  0
   56.3760   24.9680   46.3170 N   0  0  0  0  0  0  0  0  0  0  0  0
   57.0510   26.0840   45.7320 C   0  0  0  0  0  0  0  0  0  0  0  0
   57.8650   25.9080   44.7840 O   0  0  0  0  0  0  0  0  0  0  0  0
   56.7420   27.4710   46.2230 C   0  0  1  0  0  0  0  0  0  0  0  0
   58.0220   28.3110   46.4370 C   0  0  0  0  0  0  0  0  0  0  0  0
   59.2620   27.5650   46.9950 C   0  0  0  0  0  0  0  0  0  0  0  0
   59.8030   28.1690   48.2970 C   0  0  0  0  0  0  0  0  0  0  0  0
   60.3800   27.4070   45.9580 C   0  0  0  0  0  0  0  0  0  0  0  0
   55.8940   28.1480   45.2470 N   0  0  0  0  0  0  0  0  0  0  0  0
   56.2430   29.3650   44.5770 C   0  0  0  0  0  0  0  0  0  0  0  0
   55.5940   30.4230   44.8080 O   0  0  0  0  0  0  0  0  0  0  0  0
   57.3590   29.3620   43.5620 C   0  0  2  0  0  0  0  0  0  0  0  0
   57.7050   27.9880   43.1850 N   0  0  0  0  0  0  0  0  0  0  0  0
   58.6080   30.0760   44.1210 C   0  0  0  0  0  0  0  0  0  0  0  0
   58.2770   31.4090   44.7490 C   0  0  0  0  0  0  0  0  0  0  0  0
   58.4350   31.6040   46.1350 C   0  0  0  0  0  0  0  0  0  0  0  0
   58.0720   32.8230   46.7170 C   0  0  0  0  0  0  0  0  0  0  0  0
   57.5670   33.8580   45.9250 C   0  0  0  0  0  0  0  0  0  0  0  0
   57.4280   33.6790   44.5470 C   0  0  0  0  0  0  0  0  0  0  0  0
   57.7800   32.4600   43.9590 C   0  0  0  0  0  0  0  0  0  0  0  0
   58.3485   22.5022   45.5580 H   0  0  0  0  0  0  0  0  0  0  0  0
   58.7892   21.6270   44.0525 H   0  0  0  0  0  0  0  0  0  0  0  0
   58.6902   23.4205   44.0525 H   0  0  0  0  0  0  0  0  0  0  0  0
   56.2814   21.7286   44.7821 H   0  0  0  0  0  0  0  0  0  0  0  0
   56.3479   20.8128   42.6813 H   0  0  0  0  0  0  0  0  0  0  0  0
   55.8486   22.4431   42.1160 H   0  0  0  0  0  0  0  0  0  0  0  0
   57.5856   21.9855   42.1160 H   0  0  0  0  0  0  0  0  0  0  0  0
   56.8048   24.5721   43.9503 H   0  0  0  0  0  0  0  0  0  0  0  0
   55.2238   23.7685   43.4811 H   0  0  0  0  0  0  0  0  0  0  0  0
   55.3419   23.1336   46.1004 H   0  0  0  0  0  0  0  0  0  0  0  0
   53.2376   24.1629   45.2511 H   0  0  0  0  0  0  0  0  0  0  0  0
   56.2303   27.3752   47.1920 H   0  0  0  0  0  0  0  0  0  0  0  0
   58.3029   28.7432   45.4652 H   0  0  0  0  0  0  0  0  0  0  0  0
   57.7572   29.0479   47.2096 H   0  0  0  0  0  0  0  0  0  0  0  0
   58.8934   26.5579   47.2395 H   0  0  0  0  0  0  0  0  0  0  0  0
   59.3450   27.6576   49.1565 H   0  0  0  0  0  0  0  0  0  0  0  0
   60.8950   28.0420   48.3341 H   0  0  0  0  0  0  0  0  0  0  0  0
   59.5570   29.2405   48.3341 H   0  0  0  0  0  0  0  0  0  0  0  0
   61.3420   27.2710   46.4738 H   0  0  0  0  0  0  0  0  0  0  0  0
   60.1744   26.5290   45.3281 H   0  0  0  0  0  0  0  0  0  0  0  0
   60.4258   28.3076   45.3281 H   0  0  0  0  0  0  0  0  0  0  0  0
   57.0091   29.9034   42.6707 H   0  0  0  0  0  0  0  0  0  0  0  0
   56.9290   27.3560   43.4890 H   0  0  0  0  0  0  0  0  0  0  0  0
   58.5430   27.6930   43.7380 H   0  0  0  0  0  0  0  0  0  0  0  0
   59.0716   29.4321   44.8829 H   0  0  0  0  0  0  0  0  0  0  0  0
   59.2921   30.2624   43.2800 H   0  0  0  0  0  0  0  0  0  0  0  0
   58.8443   30.7968   46.7603 H   0  0  0  0  0  0  0  0  0  0  0  0
   58.1843   32.9676   47.8017 H   0  0  0  0  0  0  0  0  0  0  0  0
   57.2790   34.8137   46.3872 H   0  0  0  0  0  0  0  0  0  0  0  0
   57.0410   34.4982   43.9231 H   0  0  0  0  0  0  0  0  0  0  0  0
   57.6674   32.3230   42.8734 H   0  0  0  0  0  0  0  0  0  0  0  0
  1  2  1  0
  2  3  1  0
  2  4  1  0
  4  5  1  0
  5  6  1  0
  6  7  2  0
  5  8  1  0
  8  9  1  0
  9 10  2  0
  9 11  1  0
 11 12  1  0
 12 13  1  0
 13 14  1  0
 13 15  1  0
 11 16  1  0
 16 17  1  0
 17 18  2  0
 17 19  1  0
 19 20  1  0
 19 21  1  0
 21 22  1  0
 22 23  2  0
 23 24  1  0
 24 25  2  0
 25 26  1  0
 26 27  2  0
 27 22  1  0
  1 28  1  0
  1 29  1  0
  1 30  1  0
  2 31  1  0
  3 32  1  0
  3 33  1  0
  3 34  1  0
  4 35  1  0
  4 36  1  0
  5 37  1  1
  6 38  1  0
 11 39  1  1
 12 40  1  0
 12 41  1  0
 13 42  1  0
 14 43  1  0
 14 44  1  0
 14 45  1  0
 15 46  1  0
 15 47  1  0
 15 48  1  0
 19 49  1  6
 20 50  1  0
 20 51  1  0
 21 52  1  0
 21 53  1  0
 23 54  1  0
 24 55  1  0
 25 56  1  0
 26 57  1  0
 27 58  1  0
M  CHG  2   8  -1  16  -1
M  END
>  <UniqueID>  (10) 
8

>  <SMILES>  (10) 
CC(C)C[C@H](C=O)[N-]C(=O)[C@@H](CC(C)C)[N-]C(=O)C(N)Cc1ccccc1

>  <Energy>  (10) 
35.46760928501189

>  <Genealogy>  (10) 
CC(C)CC(C=O)[N-]C(=O)C(CC(C)C)[N-]C(=O)C(N)Cc1ccccc1 (protonated)
CC(C)C[C@H](C=O)[N-]C(=O)[C@@H](CC(C)C)[N-]C(=O)C(N)Cc1ccccc1 (chirality)
CC(C)C[C@H](C=O)[N-]C(=O)[C@@H](CC(C)C)[N-]C(=O)C(N)Cc1ccccc1 (3D coordinates assigned)
CC(C)C[C@H](C=O)[N-]C(=O)[C@@H](CC(C)C)[N-]C(=O)C(N)Cc1ccccc1 (optimized conformer: 35.46760928501189 kcal/mol)

>  <smiles>  (10) 
CC(C)CC(C=O)NC(=O)C(CC(C)C)NC(=O)C(N)Cc1ccccc1

>  <score_type>  (10) 
oracle

>  <origin>  (10) 
adg

>  <m_score__min__energy>  (10) 
-12.779999999999999

>  <m_primary>  (10) 
energy

$$$$
10:0
     RDKit          3D

 45 47  0  0  0  0  0  0  0  0999 V2000
   60.3970   27.7250   48.1300 C   0  0  0  0  0  0  0  0  0  0  0  0
   59.6470   28.6630   47.2320 C   0  0  0  0  0  0  0  0  0  0  0  0
   58.4350   28.2640   46.6470 C   0  0  0  0  0  0  0  0  0  0  0  0
   57.7500   29.1270   45.7870 C   0  0  0  0  0  0  0  0  0  0  0  0
   58.2720   30.3960   45.4950 C   0  0  0  0  0  0  0  0  0  0  0  0
   57.3820   31.5030   44.4480 S   0  0  0  0  0  0  0  0  0  0  0  0
   57.8530   31.3270   43.0310 O   0  0  0  0  0  0  0  0  0  0  0  0
   55.9180   31.1620   44.4950 O   0  0  0  0  0  0  0  0  0  0  0  0
   57.6010   33.1690   44.9350 N   0  0  0  0  0  0  0  0  0  0  0  0
   56.9190   33.4690   46.2150 C   0  0  0  0  0  0  0  0  0  0  0  0
   57.8320   33.3510   47.4480 C   0  0  0  0  0  0  0  0  0  0  0  0
   59.1180   34.0190   47.2320 N   0  0  0  0  0  0  0  0  0  0  0  0
   60.0270   34.1720   48.3350 C   0  0  0  0  0  0  0  0  0  0  0  0
   59.5880   34.5710   49.4480 O   0  0  0  0  0  0  0  0  0  0  0  0
   61.4600   33.8220   48.1950 C   0  0  0  0  0  0  0  0  0  0  0  0
   61.9680   33.4710   46.9310 C   0  0  0  0  0  0  0  0  0  0  0  0
   63.3110   33.1190   46.7800 C   0  0  0  0  0  0  0  0  0  0  0  0
   64.1610   33.1090   47.8860 C   0  0  0  0  0  0  0  0  0  0  0  0
   63.6690   33.4480   49.1480 C   0  0  0  0  0  0  0  0  0  0  0  0
   62.3220   33.8040   49.3120 C   0  0  0  0  0  0  0  0  0  0  0  0
   61.8460   34.1510   50.5770 O   0  0  0  0  0  0  0  0  0  0  0  0
   59.4260   34.5830   45.9180 C   0  0  0  0  0  0  0  0  0  0  0  0
   59.0230   33.5770   44.8400 C   0  0  0  0  0  0  0  0  0  0  0  0
   59.5000   30.7810   46.0530 C   0  0  0  0  0  0  0  0  0  0  0  0
   60.1840   29.9190   46.9150 C   0  0  0  0  0  0  0  0  0  0  0  0
   60.1925   27.9807   49.1801 H   0  0  0  0  0  0  0  0  0  0  0  0
   60.0728   26.6922   47.9343 H   0  0  0  0  0  0  0  0  0  0  0  0
   61.4758   27.8140   47.9343 H   0  0  0  0  0  0  0  0  0  0  0  0
   58.0226   27.2681   46.8663 H   0  0  0  0  0  0  0  0  0  0  0  0
   56.7976   28.8098   45.3372 H   0  0  0  0  0  0  0  0  0  0  0  0
   56.5305   34.4971   46.1683 H   0  0  0  0  0  0  0  0  0  0  0  0
   56.1204   32.7221   46.3351 H   0  0  0  0  0  0  0  0  0  0  0  0
   57.3295   33.8140   48.3101 H   0  0  0  0  0  0  0  0  0  0  0  0
   58.0250   32.2839   47.6327 H   0  0  0  0  0  0  0  0  0  0  0  0
   61.3025   33.4738   46.0551 H   0  0  0  0  0  0  0  0  0  0  0  0
   63.6993   32.8491   45.7869 H   0  0  0  0  0  0  0  0  0  0  0  0
   65.2191   32.8340   47.7639 H   0  0  0  0  0  0  0  0  0  0  0  0
   64.3414   33.4359   50.0185 H   0  0  0  0  0  0  0  0  0  0  0  0
   60.8550   34.2430   50.7650 H   0  0  0  0  0  0  0  0  0  0  0  0
   58.8656   35.5190   45.7775 H   0  0  0  0  0  0  0  0  0  0  0  0
   60.5032   34.7941   45.8465 H   0  0  0  0  0  0  0  0  0  0  0  0
   59.1922   34.0330   43.8534 H   0  0  0  0  0  0  0  0  0  0  0  0
   59.6358   32.6750   44.9843 H   0  0  0  0  0  0  0  0  0  0  0  0
   59.9266   31.7656   45.8112 H   0  0  0  0  0  0  0  0  0  0  0  0
   61.1477   30.2273   47.3466 H   0  0  0  0  0  0  0  0  0  0  0  0
  1  2  1  0
  2  3  2  0
  3  4  1  0
  4  5  2  0
  5  6  1  0
  6  7  2  0
  6  8  2  0
  6  9  1  0
  9 10  1  0
 10 11  1  0
 11 12  1  0
 12 13  1  0
 13 14  2  0
 13 15  1  0
 15 16  2  0
 16 17  1  0
 17 18  2  0
 18 19  1  0
 19 20  2  0
 20 21  1  0
 12 22  1  0
 22 23  1  0
  5 24  1  0
 24 25  2  0
 25  2  1  0
 23  9  1  0
 20 15  1  0
  1 26  1  0
  1 27  1  0
  1 28  1  0
  3 29  1  0
  4 30  1  0
 10 31  1  0
 10 32  1  0
 11 33  1  0
 11 34  1  0
 16 35  1  0
 17 36  1  0
 18 37  1  0
 19 38  1  0
 21 39  1  0
 22 40  1  0
 22 41  1  0
 23 42  1  0
 23 43  1  0
 24 44  1  0
 25 45  1  0
M  END
>  <UniqueID>  (11) 
9

>  <SMILES>  (11) 
Cc1ccc(S(=O)(=O)N2CCN(C(=O)c3ccccc3O)CC2)cc1

>  <Energy>  (11) 
56.10308636005072

>  <Genealogy>  (11) 
Cc1ccc(S(=O)(=O)N2CCN(C(=O)c3ccccc3O)CC2)cc1 (3D coordinates assigned)
Cc1ccc(S(=O)(=O)N2CCN(C(=O)c3ccccc3O)CC2)cc1 (nonaromatic ring conformer: 56.10308636005072 kcal/mol)

>  <smiles>  (11) 
Cc1ccc(S(=O)(=O)N2CCN(C(=O)c3ccccc3O)CC2)cc1

>  <score_type>  (11) 
oracle

>  <origin>  (11) 
adg

>  <m_score__min__energy>  (11) 
-10.43

>  <m_primary>  (11) 
energy

$$$$
11:0
     RDKit          3D

 25 26  0  0  0  0  0  0  0  0999 V2000
   59.2740   35.8800   44.8360 O   0  0  0  0  0  0  0  0  0  0  0  0
   59.2680   34.6910   45.2590 C   0  0  0  0  0  0  0  0  0  0  0  0
   58.4540   33.6790   44.5070 C   0  0  0  0  0  0  0  0  0  0  0  0
   57.3000   32.8480   45.6480 S   0  0  0  0  0  0  0  0  0  0  0  0
   56.9980   31.4840   44.5300 C   0  0  0  0  0  0  0  0  0  0  0  0
   57.3970   31.4230   43.2100 C   0  0  0  0  0  0  0  0  0  0  0  0
   56.9400   30.1960   42.7790 C   0  0  0  0  0  0  0  0  0  0  0  0
   56.3120   29.5850   43.8000 N   0  0  0  0  0  0  0  0  0  0  0  0
   56.3410   30.3600   44.8710 N   0  0  0  0  0  0  0  0  0  0  0  0
   60.0340   34.3470   46.4890 C   0  0  0  0  0  0  0  0  0  0  0  0
   59.4370   34.5070   47.7550 C   0  0  0  0  0  0  0  0  0  0  0  0
   60.1400   34.1870   48.9200 C   0  0  0  0  0  0  0  0  0  0  0  0
   61.4460   33.7020   48.8400 C   0  0  0  0  0  0  0  0  0  0  0  0
   62.0530   33.5350   47.5940 C   0  0  0  0  0  0  0  0  0  0  0  0
   63.6940   32.9220   47.4950 Cl  0  0  0  0  0  0  0  0  0  0  0  0
   61.3540   33.8540   46.4240 C   0  0  0  0  0  0  0  0  0  0  0  0
   57.8835   34.1848   43.7141 H   0  0  0  0  0  0  0  0  0  0  0  0
   59.1254   32.9314   44.0594 H   0  0  0  0  0  0  0  0  0  0  0  0
   57.9516   32.1790   42.6348 H   0  0  0  0  0  0  0  0  0  0  0  0
   57.0677   29.7842   41.7670 H   0  0  0  0  0  0  0  0  0  0  0  0
   55.8640   28.6430   43.7690 H   0  0  0  0  0  0  0  0  0  0  0  0
   58.4075   34.8875   47.8274 H   0  0  0  0  0  0  0  0  0  0  0  0
   59.6625   34.3178   49.9023 H   0  0  0  0  0  0  0  0  0  0  0  0
   61.9970   33.4514   49.7584 H   0  0  0  0  0  0  0  0  0  0  0  0
   61.8382   33.7191   45.4455 H   0  0  0  0  0  0  0  0  0  0  0  0
  1  2  2  0
  2  3  1  0
  3  4  1  0
  4  5  1  0
  5  6  1  0
  6  7  2  0
  7  8  1  0
  8  9  1  0
  2 10  1  0
 10 11  2  0
 11 12  1  0
 12 13  2  0
 13 14  1  0
 14 15  1  0
 14 16  2  0
  9  5  2  0
 16 10  1  0
  3 17  1  0
  3 18  1  0
  6 19  1  0
  7 20  1  0
  8 21  1  0
 11 22  1  0
 12 23  1  0
 13 24  1  0
 16 25  1  0
M  END
>  <UniqueID>  (12) 
10

>  <SMILES>  (12) 
O=C(CSc1cc[nH]n1)c1cccc(Cl)c1

>  <Energy>  (12) 
51.77858997791498

>  <Genealogy>  (12) 
O=C(CSc1cc[nH]n1)c1cccc(Cl)c1 (3D coordinates assigned)
O=C(CSc1cc[nH]n1)c1cccc(Cl)c1 (optimized conformer: 51.77858997791498 kcal/mol)

>  <smiles>  (12) 
O=C(CSc1cc[nH]n1)c1cccc(Cl)c1

>  <score_type>  (12) 
oracle

>  <origin>  (12) 
adg

>  <m_score__min__energy>  (12) 
-7.5300000000000002

>  <m_primary>  (12) 
energy

$$$$
12:0
     RDKit          3D

 51 54  0  0  0  0  0  0  0  0999 V2000
   57.0440   23.9890   43.1350 C   0  0  0  0  0  0  0  0  0  0  0  0
   57.1710   22.6770   43.9050 C   0  0  0  0  0  0  0  0  0  0  0  0
   58.5650   22.4840   44.5260 C   0  0  0  0  0  0  0  0  0  0  0  0
   59.0540   23.6870   45.3570 C   0  0  0  0  0  0  0  0  0  0  0  0
   57.9520   24.4620   45.9560 N   0  0  0  0  0  0  0  0  0  0  0  0
   57.0340   23.8030   46.8650 C   0  0  0  0  0  0  0  0  0  0  0  0
   57.4040   23.5540   48.0440 O   0  0  0  0  0  0  0  0  0  0  0  0
   55.6550   23.4180   46.4520 C   0  0  0  0  0  0  0  0  0  0  0  0
   55.2460   22.0720   46.4990 C   0  0  0  0  0  0  0  0  0  0  0  0
   53.9530   21.7060   46.1180 C   0  0  0  0  0  0  0  0  0  0  0  0
   53.0460   22.6770   45.6900 C   0  0  0  0  0  0  0  0  0  0  0  0
   51.7600   22.3100   45.3140 O   0  0  0  0  0  0  0  0  0  0  0  0
   53.4330   24.0170   45.6410 C   0  0  0  0  0  0  0  0  0  0  0  0
   54.7310   24.3950   46.0160 C   0  0  0  0  0  0  0  0  0  0  0  0
   55.1050   25.7380   45.9390 O   0  0  0  0  0  0  0  0  0  0  0  0
   58.0510   25.9030   45.9460 C   0  0  0  0  0  0  0  0  0  0  0  0
   57.7930   26.6250   44.7690 C   0  0  0  0  0  0  0  0  0  0  0  0
   57.8770   28.0200   44.7570 C   0  0  0  0  0  0  0  0  0  0  0  0
   58.2310   28.7220   45.9210 C   0  0  0  0  0  0  0  0  0  0  0  0
   58.3160   30.2000   45.9110 C   0  0  0  0  0  0  0  0  0  0  0  0
   57.4410   30.9850   45.2270 N   0  0  0  0  0  0  0  0  0  0  0  0
   57.8840   32.2220   45.4940 C   0  0  0  0  0  0  0  0  0  0  0  0
   57.3580   33.4320   45.0470 C   0  0  0  0  0  0  0  0  0  0  0  0
   57.9980   34.6150   45.4620 C   0  0  0  0  0  0  0  0  0  0  0  0
   59.1340   34.5560   46.3030 C   0  0  0  0  0  0  0  0  0  0  0  0
   59.6370   33.3130   46.7330 C   0  0  0  0  0  0  0  0  0  0  0  0
   58.9760   32.1650   46.3020 C   0  0  0  0  0  0  0  0  0  0  0  0
   59.2760   30.8900   46.5850 N   0  0  0  0  0  0  0  0  0  0  0  0
   58.5060   28.0000   47.0950 C   0  0  0  0  0  0  0  0  0  0  0  0
   58.4230   26.6060   47.1050 C   0  0  0  0  0  0  0  0  0  0  0  0
   56.9631   24.8248   43.8455 H   0  0  0  0  0  0  0  0  0  0  0  0
   57.9327   24.1303   42.5023 H   0  0  0  0  0  0  0  0  0  0  0  0
   56.1447   23.9573   42.5023 H   0  0  0  0  0  0  0  0  0  0  0  0
   56.4227   22.6686   44.7112 H   0  0  0  0  0  0  0  0  0  0  0  0
   57.0097   21.8563   43.1906 H   0  0  0  0  0  0  0  0  0  0  0  0
   58.5323   21.6013   45.1816 H   0  0  0  0  0  0  0  0  0  0  0  0
   59.2715   22.3660   43.6911 H   0  0  0  0  0  0  0  0  0  0  0  0
   59.7001   23.3145   46.1656 H   0  0  0  0  0  0  0  0  0  0  0  0
   59.5948   24.3592   44.6745 H   0  0  0  0  0  0  0  0  0  0  0  0
   55.9521   21.3002   46.8394 H   0  0  0  0  0  0  0  0  0  0  0  0
   53.6486   20.6496   46.1553 H   0  0  0  0  0  0  0  0  0  0  0  0
   52.7161   24.7813   45.3064 H   0  0  0  0  0  0  0  0  0  0  0  0
   55.1310   26.3310   46.7600 H   0  0  0  0  0  0  0  0  0  0  0  0
   57.5223   26.0875   43.8482 H   0  0  0  0  0  0  0  0  0  0  0  0
   57.6644   28.5720   43.8296 H   0  0  0  0  0  0  0  0  0  0  0  0
   56.4740   33.4619   44.3930 H   0  0  0  0  0  0  0  0  0  0  0  0
   57.6128   35.5906   45.1306 H   0  0  0  0  0  0  0  0  0  0  0  0
   59.6270   35.4859   46.6227 H   0  0  0  0  0  0  0  0  0  0  0  0
   60.5202   33.2508   47.3858 H   0  0  0  0  0  0  0  0  0  0  0  0
   58.7886   28.5368   48.0126 H   0  0  0  0  0  0  0  0  0  0  0  0
   58.6508   26.0531   48.0282 H   0  0  0  0  0  0  0  0  0  0  0  0
  1  2  1  0
  2  3  1  0
  3  4  1  0
  4  5  1  0
  5  6  1  0
  6  7  2  0
  6  8  1  0
  8  9  2  0
  9 10  1  0
 10 11  2  0
 11 12  1  0
 11 13  1  0
 13 14  2  0
 14 15  1  0
  5 16  1  0
 16 17  2  0
 17 18  1  0
 18 19  2  0
 19 20  1  0
 20 21  2  0
 21 22  1  0
 22 23  2  0
 23 24  1  0
 24 25  2  0
 25 26  1  0
 26 27  2  0
 27 28  1  0
 19 29  1  0
 29 30  2  0
 14  8  1  0
 30 16  1  0
 28 20  1  0
 27 22  1  0
  1 31  1  0
  1 32  1  0
  1 33  1  0
  2 34  1  0
  2 35  1  0
  3 36  1  0
  3 37  1  0
  4 38  1  0
  4 39  1  0
  9 40  1  0
 10 41  1  0
 13 42  1  0
 15 43  1  0
 17 44  1  0
 18 45  1  0
 23 46  1  0
 24 47  1  0
 25 48  1  0
 26 49  1  0
 29 50  1  0
 30 51  1  0
M  CHG  2  12  -1  28  -1
M  END
>  <UniqueID>  (13) 
11

>  <SMILES>  (13) 
CCCCN(C(=O)c1ccc([O-])cc1O)c1ccc(-c2nc3ccccc3[n-]2)cc1

>  <Energy>  (13) 
96.4833505429227

>  <Genealogy>  (13) 
CCCCN(C(=O)c1ccc([O-])cc1O)c1ccc(-c2nc3ccccc3[n-]2)cc1 (protonated)
CCCCN(C(=O)c1ccc([O-])cc1O)c1ccc(-c2nc3ccccc3[n-]2)cc1 (3D coordinates assigned)
CCCCN(C(=O)c1ccc([O-])cc1O)c1ccc(-c2nc3ccccc3[n-]2)cc1 (optimized conformer: 96.4833505429227 kcal/mol)

>  <smiles>  (13) 
CCCCN(C(=O)c1ccc(O)cc1O)c1ccc(-c2nc3ccccc3[nH]2)cc1

>  <score_type>  (13) 
oracle

>  <origin>  (13) 
adg

>  <m_score__min__energy>  (13) 
-11.93

>  <m_primary>  (13) 
energy

$$$$
13:0
     RDKit          3D

 52 56  0  0  1  0  0  0  0  0999 V2000
   60.1950   29.2120   49.8640 C   0  0  0  0  0  0  0  0  0  0  0  0
   60.1540   29.4580   48.4610 O   0  0  0  0  0  0  0  0  0  0  0  0
   59.6320   28.4370   47.6790 C   0  0  0  0  0  0  0  0  0  0  0  0
   59.7340   27.1010   48.0060 C   0  0  0  0  0  0  0  0  0  0  0  0
   59.2090   26.1000   47.2180 C   0  0  0  0  0  0  0  0  0  0  0  0
   58.5490   26.4040   46.0480 C   0  0  0  0  0  0  0  0  0  0  0  0
   57.9800   25.3780   45.1860 C   0  0  0  0  0  0  0  0  0  0  0  0
   56.7090   25.2100   44.9580 C   0  0  0  0  0  0  0  0  0  0  0  0
   55.7030   25.3380   46.0020 C   0  0  0  0  0  0  0  0  0  0  0  0
   55.6220   24.5940   46.9950 O   0  0  0  0  0  0  0  0  0  0  0  0
   54.7580   26.3650   45.8940 O   0  0  0  0  0  0  0  0  0  0  0  0
   58.4430   27.7330   45.7140 C   0  0  0  0  0  0  0  0  0  0  0  0
   58.9750   28.7530   46.5120 C   0  0  0  0  0  0  0  0  0  0  0  0
   58.7860   30.1030   46.0200 C   0  0  0  0  0  0  0  0  0  0  0  0
   58.3090   30.2970   44.7600 C   0  0  0  0  0  0  0  0  0  0  0  0
   58.0970   31.5180   44.1710 C   0  0  0  0  0  0  0  0  0  0  0  0
   58.3960   32.6290   44.9210 C   0  0  0  0  0  0  0  0  0  0  0  0
   58.1920   33.8260   44.3500 N   0  0  0  0  0  0  0  0  0  0  0  0
   58.4670   34.9400   45.0390 C   0  0  0  0  0  0  0  0  0  0  0  0
   58.9400   34.8500   46.2800 N   0  0  0  0  0  0  0  0  0  0  0  0
   59.1550   33.6390   46.8800 C   0  0  0  0  0  0  0  0  0  0  0  0
   59.6080   33.6440   48.0170 N   0  0  0  0  0  0  0  0  0  0  0  0
   60.8260   33.4160   48.5480 C   0  0  0  0  0  0  0  0  0  0  0  0
   60.9710   33.0030   49.8850 C   0  0  0  0  0  0  0  0  0  0  0  0
   62.2180   32.6620   50.3620 C   0  0  0  0  0  0  0  0  0  0  0  0
   63.3240   32.7250   49.5230 C   0  0  0  0  0  0  0  0  0  0  0  0
   63.2130   33.1260   48.2090 C   0  0  0  0  0  0  0  0  0  0  0  0
   64.0570   33.2870   47.1700 N   0  0  0  0  0  0  0  0  0  0  0  0
   63.4000   33.7030   46.1010 N   0  0  0  0  0  0  0  0  0  0  0  0
   62.0920   33.8350   46.3860 C   0  0  0  0  0  0  0  0  0  0  0  0
   61.9680   33.4730   47.7130 C   0  0  0  0  0  0  0  0  0  0  0  0
   58.8860   32.4730   46.2150 C   0  0  0  0  0  0  0  0  0  0  0  0
   59.0860   31.2450   46.7760 C   0  0  0  0  0  0  0  0  0  0  0  0
   60.0377   30.1559   50.4065 H   0  0  0  0  0  0  0  0  0  0  0  0
   59.4036   28.4974   50.1343 H   0  0  0  0  0  0  0  0  0  0  0  0
   61.1754   28.7928   50.1343 H   0  0  0  0  0  0  0  0  0  0  0  0
   60.2557   26.8233   48.9337 H   0  0  0  0  0  0  0  0  0  0  0  0
   59.3179   25.0496   47.5259 H   0  0  0  0  0  0  0  0  0  0  0  0
   58.6791   24.6902   44.6878 H   0  0  0  0  0  0  0  0  0  0  0  0
   56.3831   24.9618   43.9371 H   0  0  0  0  0  0  0  0  0  0  0  0
   54.3500   26.7170   46.7600 H   0  0  0  0  0  0  0  0  0  0  0  0
   57.9207   28.0054   44.7850 H   0  0  0  0  0  0  0  0  0  0  0  0
   58.0743   29.4018   44.1654 H   0  0  0  0  0  0  0  0  0  0  0  0
   57.7060   31.6030   43.1464 H   0  0  0  0  0  0  0  0  0  0  0  0
   57.8160   33.9040   43.3650 H   0  0  0  0  0  0  0  0  0  0  0  0
   58.3027   35.9267   44.5813 H   0  0  0  0  0  0  0  0  0  0  0  0
   60.0934   32.9525   50.5463 H   0  0  0  0  0  0  0  0  0  0  0  0
   62.3380   32.3399   51.4069 H   0  0  0  0  0  0  0  0  0  0  0  0
   64.3128   32.4479   49.9174 H   0  0  0  0  0  0  0  0  0  0  0  0
   65.0820   33.0910   47.2670 H   0  0  0  0  0  0  0  0  0  0  0  0
   61.2912   34.1619   45.7064 H   0  0  0  0  0  0  0  0  0  0  0  0
   59.4748   31.1531   47.8009 H   0  0  0  0  0  0  0  0  0  0  0  0
  1  2  1  0
  2  3  1  0
  3  4  2  0
  4  5  1  0
  5  6  2  0
  6  7  1  0
  7  8  2  0
  8  9  1  0
  9 10  2  0
  9 11  1  0
  6 12  1  0
 12 13  2  0
 13 14  1  0
 14 15  2  0
 15 16  1  0
 16 17  2  0
 17 18  1  0
 18 19  1  0
 19 20  2  0
 20 21  1  0
 21 22  2  0
 22 23  1  0
 23 24  2  0
 24 25  1  0
 25 26  2  0
 26 27  1  0
 27 28  1  0
 28 29  1  0
 29 30  2  0
 30 31  1  0
 21 32  1  0
 32 33  2  0
 13  3  1  0
 33 14  1  0
 32 17  1  0
 31 23  1  0
 31 27  2  0
  1 34  1  0
  1 35  1  0
  1 36  1  0
  4 37  1  0
  5 38  1  0
  7 39  1  0
  8 40  1  0
 11 41  1  0
 12 42  1  0
 15 43  1  0
 16 44  1  0
 18 45  1  0
 19 46  1  0
 24 47  1  0
 25 48  1  0
 26 49  1  0
 28 50  1  0
 30 51  1  0
 33 52  1  0
M  END
>  <smiles>  (14) 
COc1ccc(C=CC(=O)O)cc1-c1ccc2[nH]cnc(=Nc3cccc4[nH]ncc34)c2c1

>  <score_type>  (14) 
oracle

>  <origin>  (14) 
adg

>  <m_score__min__energy>  (14) 
-10.98

>  <m_primary>  (14) 
energy

$$$$
14:0
     RDKit          3D

 47 52  0  0  0  0  0  0  0  0999 V2000
   59.9340   29.3760   48.2030 O   0  0  0  0  0  0  0  0  0  0  0  0
   59.7860   30.4330   47.5330 C   0  0  0  0  0  0  0  0  0  0  0  0
   58.8240   30.5530   46.4780 N   0  0  0  0  0  0  0  0  0  0  0  0
   58.5210   29.4070   45.6180 C   0  0  0  0  0  0  0  0  0  0  0  0
   57.1420   29.5130   44.9740 C   0  0  0  0  0  0  0  0  0  0  0  0
   57.0800   30.6010   43.8970 C   0  0  0  0  0  0  0  0  0  0  0  0
   56.9320   32.0000   44.4960 C   0  0  0  0  0  0  0  0  0  0  0  0
   58.2220   32.5630   45.0380 C   0  0  0  0  0  0  0  0  0  0  0  0
   58.5830   33.8890   44.7150 C   0  0  0  0  0  0  0  0  0  0  0  0
   59.6610   34.5220   45.3550 C   0  0  0  0  0  0  0  0  0  0  0  0
   60.3790   33.8550   46.3530 C   0  0  0  0  0  0  0  0  0  0  0  0
   60.0220   32.5430   46.6720 C   0  0  0  0  0  0  0  0  0  0  0  0
   58.9960   31.8920   46.0070 C   0  0  0  0  0  0  0  0  0  0  0  0
   60.6200   31.6680   47.7340 C   0  0  0  0  0  0  0  0  0  0  0  0
   60.4620   32.2770   49.1520 C   0  0  0  0  0  0  0  0  0  0  0  0
   61.8560   32.6030   49.5380 C   0  0  0  0  0  0  0  0  0  0  0  0
   62.2580   33.2880   50.6860 C   0  0  0  0  0  0  0  0  0  0  0  0
   63.6310   33.4980   50.9070 C   0  0  0  0  0  0  0  0  0  0  0  0
   64.0750   34.1840   52.0460 C   0  0  0  0  0  0  0  0  0  0  0  0
   65.4430   34.3870   52.2560 C   0  0  0  0  0  0  0  0  0  0  0  0
   66.3760   33.9070   51.3340 C   0  0  0  0  0  0  0  0  0  0  0  0
   65.9510   33.2210   50.1930 C   0  0  0  0  0  0  0  0  0  0  0  0
   64.5820   33.0090   49.9670 C   0  0  0  0  0  0  0  0  0  0  0  0
   64.1440   32.3180   48.8220 C   0  0  0  0  0  0  0  0  0  0  0  0
   62.7740   32.1310   48.6300 C   0  0  0  0  0  0  0  0  0  0  0  0
   62.1330   31.4190   47.5000 C   0  0  0  0  0  0  0  0  0  0  0  0
   59.2791   29.3516   44.8229 H   0  0  0  0  0  0  0  0  0  0  0  0
   58.5298   28.5041   46.2462 H   0  0  0  0  0  0  0  0  0  0  0  0
   56.8924   28.5458   44.5133 H   0  0  0  0  0  0  0  0  0  0  0  0
   56.4242   29.7821   45.7629 H   0  0  0  0  0  0  0  0  0  0  0  0
   58.0060   30.5657   43.3043 H   0  0  0  0  0  0  0  0  0  0  0  0
   56.1962   30.4066   43.2716 H   0  0  0  0  0  0  0  0  0  0  0  0
   56.5591   32.6763   43.7127 H   0  0  0  0  0  0  0  0  0  0  0  0
   56.2347   31.9169   45.3427 H   0  0  0  0  0  0  0  0  0  0  0  0
   58.0111   34.4349   43.9502 H   0  0  0  0  0  0  0  0  0  0  0  0
   59.9419   35.5467   45.0702 H   0  0  0  0  0  0  0  0  0  0  0  0
   61.2082   34.3538   46.8761 H   0  0  0  0  0  0  0  0  0  0  0  0
   59.8381   33.1826   49.1251 H   0  0  0  0  0  0  0  0  0  0  0  0
   59.9659   31.5974   49.8605 H   0  0  0  0  0  0  0  0  0  0  0  0
   61.5130   33.6575   51.4061 H   0  0  0  0  0  0  0  0  0  0  0  0
   63.3456   34.5637   52.7767 H   0  0  0  0  0  0  0  0  0  0  0  0
   65.7855   34.9270   53.1511 H   0  0  0  0  0  0  0  0  0  0  0  0
   67.4501   34.0697   51.5068 H   0  0  0  0  0  0  0  0  0  0  0  0
   66.6910   32.8464   49.4704 H   0  0  0  0  0  0  0  0  0  0  0  0
   64.8690   31.9317   48.0905 H   0  0  0  0  0  0  0  0  0  0  0  0
   62.4568   31.8378   46.5358 H   0  0  0  0  0  0  0  0  0  0  0  0
   62.3926   30.3508   47.4613 H   0  0  0  0  0  0  0  0  0  0  0  0
  1  2  2  0
  2  3  1  0
  3  4  1  0
  4  5  1  0
  5  6  1  0
  6  7  1  0
  7  8  1  0
  8  9  2  0
  9 10  1  0
 10 11  2  0
 11 12  1  0
 12 13  2  0
 12 14  1  0
 14 15  1  0
 15 16  1  0
 16 17  2  0
 17 18  1  0
 18 19  2  0
 19 20  1  0
 20 21  2  0
 21 22  1  0
 22 23  2  0
 23 24  1  0
 24 25  2  0
 25 26  1  0
 14  2  1  0
 25 16  1  0
 13  3  1  0
 26 14  1  0
 13  8  1  0
 23 18  1  0
  4 27  1  0
  4 28  1  0
  5 29  1  0
  5 30  1  0
  6 31  1  0
  6 32  1  0
  7 33  1  0
  7 34  1  0
  9 35  1  0
 10 36  1  0
 11 37  1  0
 15 38  1  0
 15 39  1  0
 17 40  1  0
 19 41  1  0
 20 42  1  0
 21 43  1  0
 22 44  1  0
 24 45  1  0
 26 46  1  0
 26 47  1  0
M  END
>  <UniqueID>  (15) 
12

>  <SMILES>  (15) 
O=C1N2CCCCc3cccc(c32)C12Cc1cc3ccccc3cc1C2

>  <Energy>  (15) 
89.5000352132551

>  <Genealogy>  (15) 
O=C1N2CCCCc3cccc(c32)C12Cc1cc3ccccc3cc1C2 (3D coordinates assigned)
O=C1N2CCCCc3cccc(c32)C12Cc1cc3ccccc3cc1C2 (nonaromatic ring conformer: 89.5000352132551 kcal/mol)

>  <smiles>  (15) 
O=C1N2CCCCc3cccc(c32)C12Cc1cc3ccccc3cc1C2

>  <score_type>  (15) 
oracle

>  <origin>  (15) 
adg

>  <m_score__min__energy>  (15) 
-7.5800000000000001

>  <m_primary>  (15) 
energy

$$$$
15:0
     RDKit          3D

 39 41  0  0  0  0  0  0  0  0999 V2000
   69.3041   35.7393   51.7712 H   0  0  0  0  0  0  0  0  0  0  0  0
   68.4300   35.1110   51.5450 C   0  0  0  0  0  0  0  0  0  0  0  0
   68.4140   33.7690   50.5250 S   0  0  0  0  0  0  0  0  0  0  0  0
   66.7740   33.4710   50.7740 C   0  0  0  0  0  0  0  0  0  0  0  0
   66.0820   32.5090   50.2450 N   0  0  0  0  0  0  0  0  0  0  0  0
   64.4080   32.2090   50.5900 S   0  0  0  0  0  0  0  0  0  0  0  0
   64.0230   32.9460   51.8440 O   0  0  0  0  0  0  0  0  0  0  0  0
   64.1810   30.7340   50.7710 O   0  0  0  0  0  0  0  0  0  0  0  0
   63.4190   32.7830   49.2520 C   0  0  0  0  0  0  0  0  0  0  0  0
   62.0370   32.9510   49.4110 C   0  0  0  0  0  0  0  0  0  0  0  0
   61.5638   32.7108   50.3745 H   0  0  0  0  0  0  0  0  0  0  0  0
   61.2570   33.4220   48.3520 C   0  0  0  0  0  0  0  0  0  0  0  0
   60.1727   33.5511   48.4850 H   0  0  0  0  0  0  0  0  0  0  0  0
   61.8540   33.7320   47.1150 C   0  0  0  0  0  0  0  0  0  0  0  0
   61.0940   34.2090   45.9960 N   0  0  0  0  0  0  0  0  0  0  0  0
   59.3750   34.4440   45.9840 S   0  0  0  0  0  0  0  0  0  0  0  0
   58.9430   35.0040   47.3100 O   0  0  0  0  0  0  0  0  0  0  0  0
   59.0200   35.4280   44.9040 O   0  0  0  0  0  0  0  0  0  0  0  0
   58.5650   32.9180   45.6470 C   0  0  0  0  0  0  0  0  0  0  0  0
   57.7100   32.7920   44.5450 C   0  0  0  0  0  0  0  0  0  0  0  0
   57.5377   33.6537   43.8833 H   0  0  0  0  0  0  0  0  0  0  0  0
   57.0740   31.5730   44.2830 C   0  0  0  0  0  0  0  0  0  0  0  0
   56.4046   31.4803   43.4151 H   0  0  0  0  0  0  0  0  0  0  0  0
   57.2870   30.4650   45.1250 C   0  0  0  0  0  0  0  0  0  0  0  0
   56.6220   29.1750   44.8400 C   0  0  0  0  0  0  0  0  0  0  0  0
   57.3000   28.1550   44.5440 O   0  0  0  0  0  0  0  0  0  0  0  0
   55.2360   29.0700   44.8990 O   0  0  0  0  0  0  0  0  0  0  0  0
   58.1420   30.6020   46.2320 C   0  0  0  0  0  0  0  0  0  0  0  0
   58.3136   29.7444   46.8992 H   0  0  0  0  0  0  0  0  0  0  0  0
   58.7760   31.8210   46.4910 C   0  0  0  0  0  0  0  0  0  0  0  0
   59.4426   31.9184   47.3606 H   0  0  0  0  0  0  0  0  0  0  0  0
   63.2350   33.5650   46.9630 C   0  0  0  0  0  0  0  0  0  0  0  0
   63.7109   33.8045   46.0006 H   0  0  0  0  0  0  0  0  0  0  0  0
   64.0150   33.0960   48.0250 C   0  0  0  0  0  0  0  0  0  0  0  0
   65.1004   32.9728   47.8954 H   0  0  0  0  0  0  0  0  0  0  0  0
   66.2340   34.3760   51.6170 N   0  0  0  0  0  0  0  0  0  0  0  0
   65.2320   34.3810   51.9070 H   0  0  0  0  0  0  0  0  0  0  0  0
   67.1460   35.2860   52.0510 C   0  0  0  0  0  0  0  0  0  0  0  0
   66.8888   36.0973   52.7478 H   0  0  0  0  0  0  0  0  0  0  0  0
  1  2  1  0
  2  3  1  0
  3  4  1  0
  4  5  2  0
  5  6  1  0
  6  7  2  0
  6  8  2  0
  6  9  1  0
  9 10  2  0
 10 11  1  0
 10 12  1  0
 12 13  1  0
 12 14  2  0
 14 15  1  0
 15 16  1  0
 16 17  2  0
 16 18  2  0
 16 19  1  0
 19 20  2  0
 20 21  1  0
 20 22  1  0
 22 23  1  0
 22 24  2  0
 24 25  1  0
 25 26  2  0
 25 27  1  0
 24 28  1  0
 28 29  1  0
 28 30  2  0
 30 31  1  0
 14 32  1  0
 32 33  1  0
 32 34  2  0
 34 35  1  0
  4 36  1  0
 36 37  1  0
 36 38  1  0
 38 39  1  0
 38  2  2  0
 34  9  1  0
 30 19  1  0
M  CHG  2  15  -1  27  -1
M  END
>  <UniqueID>  (16) 
13

>  <SMILES>  (16) 
O=C([O-])c1ccc(S(=O)(=O)[N-]c2ccc(S(=O)(=O)/N=c3/[nH]ccs3)cc2)cc1

>  <Energy>  (16) 
79.48991211698471

>  <Genealogy>  (16) 
O=C([O-])c1ccc(S(=O)(=O)[N-]c2ccc(S(=O)(=O)N=c3[nH]ccs3)cc2)cc1 (protonated)
O=C([O-])c1ccc(S(=O)(=O)[N-]c2ccc(S(=O)(=O)/N=c3/[nH]ccs3)cc2)cc1 (cis-trans isomerization)
O=C([O-])c1ccc(S(=O)(=O)[N-]c2ccc(S(=O)(=O)/N=c3/[nH]ccs3)cc2)cc1 (3D coordinates assigned)
O=C([O-])c1ccc(S(=O)(=O)[N-]c2ccc(S(=O)(=O)/N=c3/[nH]ccs3)cc2)cc1 (optimized conformer: 79.48991211698471 kcal/mol)

>  <smiles>  (16) 
O=C(O)c1ccc(S(=O)(=O)Nc2ccc(S(=O)(=O)N=c3[nH]ccs3)cc2)cc1

>  <score_type>  (16) 
oracle

>  <origin>  (16) 
adg

>  <m_score__min__energy>  (16) 
-12.18

>  <m_primary>  (16) 
energy

$$$$
16:0
     RDKit          3D

 34 36  0  0  0  0  0  0  0  0999 V2000
   58.2130   22.6310   44.3040 C   0  0  0  0  0  0  0  0  0  0  0  0
   59.2330   22.9950   45.3280 C   0  0  0  0  0  0  0  0  0  0  0  0
   60.3950   22.5120   45.2440 O   0  0  0  0  0  0  0  0  0  0  0  0
   58.9170   23.9510   46.3010 O   0  0  0  0  0  0  0  0  0  0  0  0
   58.3360   25.2030   46.0520 C   0  0  0  0  0  0  0  0  0  0  0  0
   56.9460   25.3710   45.9030 C   0  0  0  0  0  0  0  0  0  0  0  0
   56.4090   26.6340   45.6440 C   0  0  0  0  0  0  0  0  0  0  0  0
   57.2550   27.7500   45.5180 C   0  0  0  0  0  0  0  0  0  0  0  0
   56.7610   29.0400   45.2610 C   0  0  0  0  0  0  0  0  0  0  0  0
   55.5180   29.2480   45.1820 O   0  0  0  0  0  0  0  0  0  0  0  0
   57.6660   30.1070   45.1190 C   0  0  0  0  0  0  0  0  0  0  0  0
   57.2480   31.4200   44.8600 O   0  0  0  0  0  0  0  0  0  0  0  0
   57.9080   32.5790   45.2980 C   0  0  0  0  0  0  0  0  0  0  0  0
   58.5370   33.4630   44.4010 C   0  0  0  0  0  0  0  0  0  0  0  0
   59.1950   34.6000   44.8800 C   0  0  0  0  0  0  0  0  0  0  0  0
   59.2420   34.8560   46.2520 C   0  0  0  0  0  0  0  0  0  0  0  0
   58.6340   33.9740   47.1490 C   0  0  0  0  0  0  0  0  0  0  0  0
   57.9740   32.8360   46.6730 C   0  0  0  0  0  0  0  0  0  0  0  0
   59.0300   29.8520   45.2870 C   0  0  0  0  0  0  0  0  0  0  0  0
   59.4680   28.6230   45.5380 O   0  0  0  0  0  0  0  0  0  0  0  0
   58.6500   27.5810   45.6510 C   0  0  0  0  0  0  0  0  0  0  0  0
   59.1790   26.3120   45.9090 C   0  0  0  0  0  0  0  0  0  0  0  0
   57.2910   22.3020   44.8057 H   0  0  0  0  0  0  0  0  0  0  0  0
   57.9957   23.5071   43.6753 H   0  0  0  0  0  0  0  0  0  0  0  0
   58.5995   21.8153   43.6753 H   0  0  0  0  0  0  0  0  0  0  0  0
   56.2783   24.5013   45.9912 H   0  0  0  0  0  0  0  0  0  0  0  0
   55.3209   26.7560   45.5383 H   0  0  0  0  0  0  0  0  0  0  0  0
   58.5108   33.2588   43.3204 H   0  0  0  0  0  0  0  0  0  0  0  0
   59.6763   35.2938   44.1751 H   0  0  0  0  0  0  0  0  0  0  0  0
   59.7579   35.7524   46.6267 H   0  0  0  0  0  0  0  0  0  0  0  0
   58.6743   34.1745   48.2298 H   0  0  0  0  0  0  0  0  0  0  0  0
   57.5043   32.1392   47.3828 H   0  0  0  0  0  0  0  0  0  0  0  0
   59.7503   30.6798   45.2104 H   0  0  0  0  0  0  0  0  0  0  0  0
   60.2677   26.1840   46.0004 H   0  0  0  0  0  0  0  0  0  0  0  0
  1  2  1  0
  2  3  2  0
  2  4  1  0
  4  5  1  0
  5  6  2  0
  6  7  1  0
  7  8  2  0
  8  9  1  0
  9 10  2  0
  9 11  1  0
 11 12  1  0
 12 13  1  0
 13 14  2  0
 14 15  1  0
 15 16  2  0
 16 17  1  0
 17 18  2  0
 11 19  2  0
 19 20  1  0
 20 21  1  0
 21 22  2  0
 22  5  1  0
 21  8  1  0
 18 13  1  0
  1 23  1  0
  1 24  1  0
  1 25  1  0
  6 26  1  0
  7 27  1  0
 14 28  1  0
 15 29  1  0
 16 30  1  0
 17 31  1  0
 18 32  1  0
 19 33  1  0
 22 34  1  0
M  END
>  <UniqueID>  (17) 
14

>  <SMILES>  (17) 
CC(=O)Oc1ccc2c(=O)c(Oc3ccccc3)coc2c1

>  <Energy>  (17) 
52.66413806164411

>  <Genealogy>  (17) 
CC(=O)Oc1ccc2c(=O)c(Oc3ccccc3)coc2c1 (3D coordinates assigned)
CC(=O)Oc1ccc2c(=O)c(Oc3ccccc3)coc2c1 (optimized conformer: 52.66413806164411 kcal/mol)

>  <smiles>  (17) 
CC(=O)Oc1ccc2c(=O)c(Oc3ccccc3)coc2c1

>  <score_type>  (17) 
oracle

>  <origin>  (17) 
adg

>  <m_score__min__energy>  (17) 
-7.29

>  <m_primary>  (17) 
energy

$$$$
17:0
     RDKit          3D

 63 66  0  0  0  0  0  0  0  0999 V2000
   58.7070   23.2380   45.2420 C   0  0  0  0  0  0  0  0  0  0  0  0
   59.0460   24.2530   46.1790 O   0  0  0  0  0  0  0  0  0  0  0  0
   58.6830   25.6020   46.0590 C   0  0  0  0  0  0  0  0  0  0  0  0
   57.3180   25.9210   46.0600 C   0  0  0  0  0  0  0  0  0  0  0  0
   56.8970   27.2470   45.9340 C   0  0  0  0  0  0  0  0  0  0  0  0
   57.8400   28.2710   45.8210 C   0  0  0  0  0  0  0  0  0  0  0  0
   57.4330   29.5590   45.6740 N   0  0  0  0  0  0  0  0  0  0  0  0
   58.3120   30.5920   45.5490 C   0  0  0  0  0  0  0  0  0  0  0  0
   57.7700   31.9580   45.4130 C   0  0  0  0  0  0  0  0  0  0  0  0
   56.6360   32.0810   44.8740 O   0  0  0  0  0  0  0  0  0  0  0  0
   58.5350   33.1440   45.7430 N   0  0  0  0  0  0  0  0  0  0  0  0
   58.8500   34.2120   44.8010 C   0  0  0  0  0  0  0  0  0  0  0  0
   59.5570   35.3020   45.6000 C   0  0  0  0  0  0  0  0  0  0  0  0
   59.4280   34.9300   47.0770 C   0  0  0  0  0  0  0  0  0  0  0  0
   58.7480   33.5600   47.1240 C   0  0  2  0  0  0  0  0  0  0  0  0
   59.5190   32.5300   47.9460 C   0  0  0  0  0  0  0  0  0  0  0  0
   58.7820   31.7200   48.8280 C   0  0  0  0  0  0  0  0  0  0  0  0
   59.4000   30.7450   49.6230 C   0  0  0  0  0  0  0  0  0  0  0  0
   58.5310   29.8810   50.5100 C   0  0  0  0  0  0  0  0  0  0  0  0
   58.2780   30.5910   51.8180 C   0  0  0  0  0  0  0  0  0  0  0  0
   57.3220   31.5280   52.0240 C   0  0  0  0  0  0  0  0  0  0  0  0
   57.7550   32.9540   52.2640 C   0  0  0  0  0  0  0  0  0  0  0  0
   55.8500   31.1970   52.0190 C   0  0  0  0  0  0  0  0  0  0  0  0
   60.8030   30.6050   49.5350 C   0  0  0  0  0  0  0  0  0  0  0  0
   61.5620   29.5990   50.3490 C   0  0  0  0  0  0  0  0  0  0  0  0
   61.5010   31.3920   48.6740 N   0  0  0  0  0  0  0  0  0  0  0  0
   60.9210   32.3260   47.8740 C   0  0  0  0  0  0  0  0  0  0  0  0
   61.8320   33.1490   47.0110 C   0  0  0  0  0  0  0  0  0  0  0  0
   59.6910   30.3360   45.6290 C   0  0  0  0  0  0  0  0  0  0  0  0
   60.1420   29.0210   45.7520 C   0  0  0  0  0  0  0  0  0  0  0  0
   59.2180   27.9680   45.8340 C   0  0  0  0  0  0  0  0  0  0  0  0
   59.6370   26.6330   45.9380 C   0  0  0  0  0  0  0  0  0  0  0  0
   58.4032   22.3283   45.7807 H   0  0  0  0  0  0  0  0  0  0  0  0
   57.8759   23.5849   44.6103 H   0  0  0  0  0  0  0  0  0  0  0  0
   59.5797   23.0158   44.6103 H   0  0  0  0  0  0  0  0  0  0  0  0
   56.5713   25.1196   46.1610 H   0  0  0  0  0  0  0  0  0  0  0  0
   55.8230   27.4846   45.9238 H   0  0  0  0  0  0  0  0  0  0  0  0
   59.5105   33.8348   44.0063 H   0  0  0  0  0  0  0  0  0  0  0  0
   57.9393   34.5992   44.3206 H   0  0  0  0  0  0  0  0  0  0  0  0
   60.6181   35.3514   45.3144 H   0  0  0  0  0  0  0  0  0  0  0  0
   59.1077   36.2865   45.4030 H   0  0  0  0  0  0  0  0  0  0  0  0
   60.4228   34.8763   47.5433 H   0  0  0  0  0  0  0  0  0  0  0  0
   58.8434   35.6826   47.6264 H   0  0  0  0  0  0  0  0  0  0  0  0
   57.7854   33.6375   47.6507 H   0  0  0  0  0  0  0  0  0  0  0  0
   57.6924   31.8550   48.8958 H   0  0  0  0  0  0  0  0  0  0  0  0
   57.5721   29.6881   50.0068 H   0  0  0  0  0  0  0  0  0  0  0  0
   59.0430   28.9272   50.7053 H   0  0  0  0  0  0  0  0  0  0  0  0
   58.9206   30.3266   52.6708 H   0  0  0  0  0  0  0  0  0  0  0  0
   57.8123   33.1426   53.3462 H   0  0  0  0  0  0  0  0  0  0  0  0
   58.7435   33.1183   51.8103 H   0  0  0  0  0  0  0  0  0  0  0  0
   57.0247   33.6402   51.8103 H   0  0  0  0  0  0  0  0  0  0  0  0
   55.4889   31.1158   53.0549 H   0  0  0  0  0  0  0  0  0  0  0  0
   55.2969   31.9932   51.4992 H   0  0  0  0  0  0  0  0  0  0  0  0
   55.6910   30.2407   51.4992 H   0  0  0  0  0  0  0  0  0  0  0  0
   61.4086   29.8023   51.4191 H   0  0  0  0  0  0  0  0  0  0  0  0
   61.2000   28.5876   50.1124 H   0  0  0  0  0  0  0  0  0  0  0  0
   62.6339   29.6695   50.1124 H   0  0  0  0  0  0  0  0  0  0  0  0
   62.4971   33.7499   47.6486 H   0  0  0  0  0  0  0  0  0  0  0  0
   62.4354   32.4837   46.3759 H   0  0  0  0  0  0  0  0  0  0  0  0
   61.2312   33.8166   46.3759 H   0  0  0  0  0  0  0  0  0  0  0  0
   60.4109   31.1670   45.5949 H   0  0  0  0  0  0  0  0  0  0  0  0
   61.2211   28.8101   45.7846 H   0  0  0  0  0  0  0  0  0  0  0  0
   60.7099   26.3907   45.9251 H   0  0  0  0  0  0  0  0  0  0  0  0
  1  2  1  0
  2  3  1  0
  3  4  2  0
  4  5  1  0
  5  6  2  0
  6  7  1  0
  7  8  2  0
  8  9  1  0
  9 10  2  0
  9 11  1  0
 11 12  1  0
 12 13  1  0
 13 14  1  0
 14 15  1  0
 15 16  1  0
 16 17  2  0
 17 18  1  0
 18 19  1  0
 19 20  1  0
 20 21  2  3
 21 22  1  0
 21 23  1  0
 18 24  2  0
 24 25  1  0
 24 26  1  0
 26 27  2  0
 27 28  1  0
  8 29  1  0
 29 30  2  0
 30 31  1  0
 31 32  2  0
 32  3  1  0
 31  6  1  0
 15 11  1  0
 27 16  1  0
  1 33  1  0
  1 34  1  0
  1 35  1  0
  4 36  1  0
  5 37  1  0
 12 38  1  0
 12 39  1  0
 13 40  1  0
 13 41  1  0
 14 42  1  0
 14 43  1  0
 15 44  1  1
 17 45  1  0
 19 46  1  0
 19 47  1  0
 20 48  1  0
 22 49  1  0
 22 50  1  0
 22 51  1  0
 23 52  1  0
 23 53  1  0
 23 54  1  0
 25 55  1  0
 25 56  1  0
 25 57  1  0
 28 58  1  0
 28 59  1  0
 28 60  1  0
 29 61  1  0
 30 62  1  0
 32 63  1  0
M  END
>  <UniqueID>  (18) 
15

>  <SMILES>  (18) 
COc1ccc2nc(C(=O)N3CCC[C@@H]3c3cc(CC=C(C)C)c(C)nc3C)ccc2c1

>  <Energy>  (18) 
77.37252083005826

>  <Genealogy>  (18) 
COc1ccc2nc(C(=O)N3CCC[C@@H]3c3cc(CC=C(C)C)c(C)nc3C)ccc2c1 (chirality)
COc1ccc2nc(C(=O)N3CCC[C@@H]3c3cc(CC=C(C)C)c(C)nc3C)ccc2c1 (3D coordinates assigned)
COc1ccc2nc(C(=O)N3CCC[C@@H]3c3cc(CC=C(C)C)c(C)nc3C)ccc2c1 (nonaromatic ring conformer: 77.37252083005826 kcal/mol)

>  <smiles>  (18) 
COc1ccc2nc(C(=O)N3CCCC3c3cc(CC=C(C)C)c(C)nc3C)ccc2c1

>  <score_type>  (18) 
oracle

>  <origin>  (18) 
adg

>  <m_score__min__energy>  (18) 
-9.1899999999999995

>  <m_primary>  (18) 
energy

$$$$
18:0
     RDKit          3D

 72 74  0  0  0  0  0  0  0  0999 V2000
   59.6570   35.5180   45.6730 C   0  0  0  0  0  0  0  0  0  0  0  0
   58.8280   34.6200   46.4800 N   0  0  0  0  0  0  0  0  0  0  0  0
   59.0100   34.5850   47.9400 C   0  0  0  0  0  0  0  0  0  0  0  0
   60.4540   34.2120   48.3180 C   0  0  0  0  0  0  0  0  0  0  0  0
   60.7080   34.1840   49.8350 C   0  0  0  0  0  0  0  0  0  0  0  0
   59.5940   33.5060   50.5930 C   0  0  0  0  0  0  0  0  0  0  0  0
   59.1200   34.0590   51.7950 C   0  0  0  0  0  0  0  0  0  0  0  0
   58.1000   33.4210   52.5080 C   0  0  0  0  0  0  0  0  0  0  0  0
   57.5480   32.2290   52.0300 C   0  0  0  0  0  0  0  0  0  0  0  0
   58.0070   31.6790   50.8290 C   0  0  0  0  0  0  0  0  0  0  0  0
   59.0200   32.3180   50.1090 C   0  0  0  0  0  0  0  0  0  0  0  0
   57.8180   33.8360   45.8120 C   0  0  0  0  0  0  0  0  0  0  0  0
   57.0390   34.3970   44.9920 O   0  0  0  0  0  0  0  0  0  0  0  0
   57.7250   32.3450   45.9800 C   0  0  0  0  0  0  0  0  0  0  0  0
   59.0280   31.8000   46.4730 C   0  0  0  0  0  0  0  0  0  0  0  0
   60.1070   32.3600   46.1390 O   0  0  0  0  0  0  0  0  0  0  0  0
   59.0440   30.6420   47.3220 N   0  0  0  0  0  0  0  0  0  0  0  0
   60.2180   30.2760   48.1210 C   0  0  2  0  0  0  0  0  0  0  0  0
   61.5140   30.4490   47.3040 C   0  0  0  0  0  0  0  0  0  0  0  0
   62.4460   31.4610   47.9250 C   0  0  0  0  0  0  0  0  0  0  0  0
   62.7310   31.4100   49.3010 C   0  0  0  0  0  0  0  0  0  0  0  0
   63.5550   32.3760   49.8850 C   0  0  0  0  0  0  0  0  0  0  0  0
   64.1000   33.3990   49.1040 C   0  0  0  0  0  0  0  0  0  0  0  0
   63.8140   33.4600   47.7360 C   0  0  0  0  0  0  0  0  0  0  0  0
   62.9870   32.4970   47.1490 C   0  0  0  0  0  0  0  0  0  0  0  0
   60.0720   28.8700   48.6750 C   0  0  0  0  0  0  0  0  0  0  0  0
   59.2540   28.6790   49.6170 O   0  0  0  0  0  0  0  0  0  0  0  0
   60.8050   27.7410   48.1750 N   0  0  0  0  0  0  0  0  0  0  0  0
   60.3620   26.7920   47.1600 C   0  0  0  0  0  0  0  0  0  0  0  0
   59.3570   27.4600   46.2710 C   0  0  0  0  0  0  0  0  0  0  0  0
   57.9850   27.2390   46.4640 C   0  0  0  0  0  0  0  0  0  0  0  0
   57.0450   27.8970   45.6660 C   0  0  0  0  0  0  0  0  0  0  0  0
   57.4650   28.7850   44.6620 C   0  0  0  0  0  0  0  0  0  0  0  0
   56.4520   29.5260   43.8280 C   0  0  0  0  0  0  0  0  0  0  0  0
   55.1500   29.5580   44.4920 N   0  0  0  0  0  0  0  0  0  0  0  0
   58.8360   29.0240   44.4850 C   0  0  0  0  0  0  0  0  0  0  0  0
   59.7760   28.3690   45.2860 C   0  0  0  0  0  0  0  0  0  0  0  0
   60.2522   36.1627   46.3364 H   0  0  0  0  0  0  0  0  0  0  0  0
   60.3307   34.9237   45.0382 H   0  0  0  0  0  0  0  0  0  0  0  0
   59.0108   36.1421   45.0382 H   0  0  0  0  0  0  0  0  0  0  0  0
   58.7770   35.5774   48.3534 H   0  0  0  0  0  0  0  0  0  0  0  0
   58.3358   33.8209   48.3542 H   0  0  0  0  0  0  0  0  0  0  0  0
   60.6729   33.2139   47.9107 H   0  0  0  0  0  0  0  0  0  0  0  0
   61.1079   34.9897   47.8966 H   0  0  0  0  0  0  0  0  0  0  0  0
   61.6459   33.6420   50.0260 H   0  0  0  0  0  0  0  0  0  0  0  0
   60.7654   35.2255   50.1843 H   0  0  0  0  0  0  0  0  0  0  0  0
   59.5524   34.9960   52.1759 H   0  0  0  0  0  0  0  0  0  0  0  0
   57.7311   33.8584   53.4475 H   0  0  0  0  0  0  0  0  0  0  0  0
   56.7530   31.7239   52.5982 H   0  0  0  0  0  0  0  0  0  0  0  0
   57.5704   30.7429   50.4508 H   0  0  0  0  0  0  0  0  0  0  0  0
   59.3699   31.8889   49.1585 H   0  0  0  0  0  0  0  0  0  0  0  0
   56.9339   32.1096   46.7072 H   0  0  0  0  0  0  0  0  0  0  0  0
   57.4886   31.8876   45.0079 H   0  0  0  0  0  0  0  0  0  0  0  0
   58.1690   30.0750   47.4000 H   0  0  0  0  0  0  0  0  0  0  0  0
   60.2859   30.9592   48.9804 H   0  0  0  0  0  0  0  0  0  0  0  0
   62.0300   29.4792   47.2479 H   0  0  0  0  0  0  0  0  0  0  0  0
   61.2375   30.8125   46.3033 H   0  0  0  0  0  0  0  0  0  0  0  0
   62.3040   30.6071   49.9198 H   0  0  0  0  0  0  0  0  0  0  0  0
   63.7751   32.3311   50.9618 H   0  0  0  0  0  0  0  0  0  0  0  0
   64.7529   34.1551   49.5644 H   0  0  0  0  0  0  0  0  0  0  0  0
   64.2401   34.2665   47.1212 H   0  0  0  0  0  0  0  0  0  0  0  0
   62.7597   32.5521   46.0741 H   0  0  0  0  0  0  0  0  0  0  0  0
   61.2241   26.4643   46.5605 H   0  0  0  0  0  0  0  0  0  0  0  0
   59.9049   25.9167   47.6447 H   0  0  0  0  0  0  0  0  0  0  0  0
   57.6475   26.5444   47.2473 H   0  0  0  0  0  0  0  0  0  0  0  0
   55.9713   27.7186   45.8249 H   0  0  0  0  0  0  0  0  0  0  0  0
   56.8009   30.5572   43.6703 H   0  0  0  0  0  0  0  0  0  0  0  0
   56.3420   29.0052   42.8654 H   0  0  0  0  0  0  0  0  0  0  0  0
   54.4890   30.1180   43.9070 H   0  0  0  0  0  0  0  0  0  0  0  0
   54.7760   28.5820   44.5470 H   0  0  0  0  0  0  0  0  0  0  0  0
   59.1730   29.7304   43.7120 H   0  0  0  0  0  0  0  0  0  0  0  0
   60.8488   28.5665   45.1441 H   0  0  0  0  0  0  0  0  0  0  0  0
  1  2  1  0
  2  3  1  0
  3  4  1  0
  4  5  1  0
  5  6  1  0
  6  7  2  0
  7  8  1  0
  8  9  2  0
  9 10  1  0
 10 11  2  0
  2 12  1  0
 12 13  2  0
 12 14  1  0
 14 15  1  0
 15 16  2  0
 15 17  1  0
 17 18  1  0
 18 19  1  0
 19 20  1  0
 20 21  2  0
 21 22  1  0
 22 23  2  0
 23 24  1  0
 24 25  2  0
 18 26  1  0
 26 27  2  0
 26 28  1  0
 28 29  1  0
 29 30  1  0
 30 31  2  0
 31 32  1  0
 32 33  2  0
 33 34  1  0
 34 35  1  0
 33 36  1  0
 36 37  2  0
 11  6  1  0
 25 20  1  0
 37 30  1  0
  1 38  1  0
  1 39  1  0
  1 40  1  0
  3 41  1  0
  3 42  1  0
  4 43  1  0
  4 44  1  0
  5 45  1  0
  5 46  1  0
  7 47  1  0
  8 48  1  0
  9 49  1  0
 10 50  1  0
 11 51  1  0
 14 52  1  0
 14 53  1  0
 17 54  1  0
 18 55  1  1
 19 56  1  0
 19 57  1  0
 21 58  1  0
 22 59  1  0
 23 60  1  0
 24 61  1  0
 25 62  1  0
 29 63  1  0
 29 64  1  0
 31 65  1  0
 32 66  1  0
 34 67  1  0
 34 68  1  0
 35 69  1  0
 35 70  1  0
 36 71  1  0
 37 72  1  0
M  CHG  1  28  -1
M  END
>  <UniqueID>  (19) 
16

>  <SMILES>  (19) 
CN(CCCc1ccccc1)C(=O)CC(=O)N[C@H](Cc1ccccc1)C(=O)[N-]Cc1ccc(CN)cc1

>  <Energy>  (19) 
61.178768748716905

>  <Genealogy>  (19) 
CN(CCCc1ccccc1)C(=O)CC(=O)NC(Cc1ccccc1)C(=O)[N-]Cc1ccc(CN)cc1 (protonated)
CN(CCCc1ccccc1)C(=O)CC(=O)N[C@H](Cc1ccccc1)C(=O)[N-]Cc1ccc(CN)cc1 (chirality)
CN(CCCc1ccccc1)C(=O)CC(=O)N[C@H](Cc1ccccc1)C(=O)[N-]Cc1ccc(CN)cc1 (3D coordinates assigned)
CN(CCCc1ccccc1)C(=O)CC(=O)N[C@H](Cc1ccccc1)C(=O)[N-]Cc1ccc(CN)cc1 (optimized conformer: 61.178768748716905 kcal/mol)

>  <smiles>  (19) 
CN(CCCc1ccccc1)C(=O)CC(=O)NC(Cc1ccccc1)C(=O)NCc1ccc(CN)cc1

>  <score_type>  (19) 
oracle

>  <origin>  (19) 
adg

>  <m_score__min__energy>  (19) 
-12.15

>  <m_primary>  (19) 
energy

$$$$
19:0
     RDKit          3D

 65 69  0  0  0  0  0  0  0  0999 V2000
   57.8010   29.6830   51.1390 O   0  0  0  0  0  0  0  0  0  0  0  0
   58.4810   30.6210   50.6360 C   0  0  0  0  0  0  0  0  0  0  0  0
   58.0050   32.0480   50.7970 C   0  0  0  0  0  0  0  0  0  0  0  0
   58.7600   32.7920   51.8710 C   0  0  0  0  0  0  0  0  0  0  0  0
   58.2390   33.9800   52.4100 C   0  0  0  0  0  0  0  0  0  0  0  0
   58.9240   34.6510   53.4290 C   0  0  0  0  0  0  0  0  0  0  0  0
   60.1270   34.1370   53.9210 C   0  0  0  0  0  0  0  0  0  0  0  0
   60.6440   32.9490   53.3990 C   0  0  0  0  0  0  0  0  0  0  0  0
   59.9620   32.2740   52.3810 C   0  0  0  0  0  0  0  0  0  0  0  0
   59.6980   30.3150   49.9110 N   0  0  0  0  0  0  0  0  0  0  0  0
   60.7010   29.4080   50.4720 C   0  0  0  0  0  0  0  0  0  0  0  0
   61.9560   30.1630   50.8370 C   0  0  0  0  0  0  0  0  0  0  0  0
   62.4660   30.0040   52.1380 C   0  0  0  0  0  0  0  0  0  0  0  0
   63.6650   30.6110   52.5110 C   0  0  0  0  0  0  0  0  0  0  0  0
   64.3730   31.3820   51.5910 C   0  0  0  0  0  0  0  0  0  0  0  0
   63.8700   31.5690   50.3020 C   0  0  0  0  0  0  0  0  0  0  0  0
   62.6530   30.9920   49.9180 C   0  0  0  0  0  0  0  0  0  0  0  0
   62.2010   31.2630   48.6110 O   0  0  0  0  0  0  0  0  0  0  0  0
   60.8970   31.7410   48.2330 C   0  0  0  0  0  0  0  0  0  0  0  0
   60.9570   32.0560   46.7100 C   0  0  0  0  0  0  0  0  0  0  0  0
   61.4600   33.4840   46.4530 C   0  0  0  0  0  0  0  0  0  0  0  0
   60.5330   34.5120   46.9960 N   0  0  0  0  0  0  0  0  0  0  0  0
   59.6210   35.0220   45.9460 C   0  0  0  0  0  0  0  0  0  0  0  0
   58.2100   34.4340   46.0930 C   0  0  0  0  0  0  0  0  0  0  0  0
   58.0040   33.2950   45.1290 C   0  0  0  0  0  0  0  0  0  0  0  0
   57.5940   32.0370   45.6010 C   0  0  0  0  0  0  0  0  0  0  0  0
   57.4230   30.9720   44.7110 C   0  0  0  0  0  0  0  0  0  0  0  0
   57.6680   31.1550   43.3460 C   0  0  0  0  0  0  0  0  0  0  0  0
   58.0900   32.3990   42.8720 C   0  0  0  0  0  0  0  0  0  0  0  0
   58.2630   33.4660   43.7590 C   0  0  0  0  0  0  0  0  0  0  0  0
   59.7790   34.0540   48.1940 C   0  0  0  0  0  0  0  0  0  0  0  0
   60.5810   33.0470   49.0310 C   0  0  0  0  0  0  0  0  0  0  0  0
   59.8150   30.6410   48.4860 C   0  0  0  0  0  0  0  0  0  0  0  0
   58.1407   32.5750   49.8410 H   0  0  0  0  0  0  0  0  0  0  0  0
   56.9465   32.0154   51.0945 H   0  0  0  0  0  0  0  0  0  0  0  0
   57.2893   34.3842   52.0297 H   0  0  0  0  0  0  0  0  0  0  0  0
   58.5152   35.5843   53.8434 H   0  0  0  0  0  0  0  0  0  0  0  0
   60.6665   34.6679   54.7191 H   0  0  0  0  0  0  0  0  0  0  0  0
   61.5892   32.5434   53.7891 H   0  0  0  0  0  0  0  0  0  0  0  0
   60.3684   31.3344   51.9785 H   0  0  0  0  0  0  0  0  0  0  0  0
   60.2916   28.9299   51.3741 H   0  0  0  0  0  0  0  0  0  0  0  0
   60.9518   28.6471   49.7182 H   0  0  0  0  0  0  0  0  0  0  0  0
   61.9137   29.3948   52.8687 H   0  0  0  0  0  0  0  0  0  0  0  0
   64.0522   30.4810   53.5324 H   0  0  0  0  0  0  0  0  0  0  0  0
   65.3286   31.8435   51.8805 H   0  0  0  0  0  0  0  0  0  0  0  0
   64.4358   32.1762   49.5801 H   0  0  0  0  0  0  0  0  0  0  0  0
   61.6392   31.3432   46.2236 H   0  0  0  0  0  0  0  0  0  0  0  0
   59.9411   31.9671   46.2976 H   0  0  0  0  0  0  0  0  0  0  0  0
   62.4429   33.6050   46.9318 H   0  0  0  0  0  0  0  0  0  0  0  0
   61.5246   33.6286   45.3645 H   0  0  0  0  0  0  0  0  0  0  0  0
   59.5618   36.1176   46.0250 H   0  0  0  0  0  0  0  0  0  0  0  0
   60.0201   34.7214   44.9660 H   0  0  0  0  0  0  0  0  0  0  0  0
   58.0779   34.0653   47.1209 H   0  0  0  0  0  0  0  0  0  0  0  0
   57.4743   35.2214   45.8721 H   0  0  0  0  0  0  0  0  0  0  0  0
   57.4067   31.8891   46.6748 H   0  0  0  0  0  0  0  0  0  0  0  0
   57.0958   29.9904   45.0843 H   0  0  0  0  0  0  0  0  0  0  0  0
   57.5282   30.3185   42.6455 H   0  0  0  0  0  0  0  0  0  0  0  0
   58.2867   32.5397   41.7989 H   0  0  0  0  0  0  0  0  0  0  0  0
   58.6029   34.4422   43.3828 H   0  0  0  0  0  0  0  0  0  0  0  0
   59.5431   34.9273   48.8199 H   0  0  0  0  0  0  0  0  0  0  0  0
   58.8634   33.5528   47.8469 H   0  0  0  0  0  0  0  0  0  0  0  0
   61.5288   33.5144   49.3364 H   0  0  0  0  0  0  0  0  0  0  0  0
   59.9727   32.7717   49.9051 H   0  0  0  0  0  0  0  0  0  0  0  0
   58.8431   31.0063   48.1226 H   0  0  0  0  0  0  0  0  0  0  0  0
   60.1188   29.7303   47.9490 H   0  0  0  0  0  0  0  0  0  0  0  0
  1  2  2  0
  2  3  1  0
  3  4  1  0
  4  5  2  0
  5  6  1  0
  6  7  2  0
  7  8  1  0
  8  9  2  0
  2 10  1  0
 10 11  1  0
 11 12  1  0
 12 13  2  0
 13 14  1  0
 14 15  2  0
 15 16  1  0
 16 17  2  0
 17 18  1  0
 18 19  1  0
 19 20  1  0
 20 21  1  0
 21 22  1  0
 22 23  1  0
 23 24  1  0
 24 25  1  0
 25 26  2  0
 26 27  1  0
 27 28  2  0
 28 29  1  0
 29 30  2  0
 22 31  1  0
 31 32  1  0
 19 33  1  0
  9  4  1  0
 33 10  1  0
 17 12  1  0
 32 19  1  0
 30 25  1  0
  3 34  1  0
  3 35  1  0
  5 36  1  0
  6 37  1  0
  7 38  1  0
  8 39  1  0
  9 40  1  0
 11 41  1  0
 11 42  1  0
 13 43  1  0
 14 44  1  0
 15 45  1  0
 16 46  1  0
 20 47  1  0
 20 48  1  0
 21 49  1  0
 21 50  1  0
 23 51  1  0
 23 52  1  0
 24 53  1  0
 24 54  1  0
 26 55  1  0
 27 56  1  0
 28 57  1  0
 29 58  1  0
 30 59  1  0
 31 60  1  0
 31 61  1  0
 32 62  1  0
 32 63  1  0
 33 64  1  0
 33 65  1  0
M  END
>  <UniqueID>  (20) 
17

>  <SMILES>  (20) 
O=C(Cc1ccccc1)N1Cc2ccccc2OC2(CCN(CCc3ccccc3)CC2)C1

>  <Energy>  (20) 
90.63174233650402

>  <Genealogy>  (20) 
O=C(Cc1ccccc1)N1Cc2ccccc2OC2(CCN(CCc3ccccc3)CC2)C1 (3D coordinates assigned)
O=C(Cc1ccccc1)N1Cc2ccccc2OC2(CCN(CCc3ccccc3)CC2)C1 (nonaromatic ring conformer: 90.63174233650402 kcal/mol)

>  <smiles>  (20) 
O=C(Cc1ccccc1)N1Cc2ccccc2OC2(CCN(CCc3ccccc3)CC2)C1

>  <score_type>  (20) 
oracle

>  <origin>  (20) 
adg

>  <m_score__min__energy>  (20) 
-7.8700000000000001

>  <m_primary>  (20) 
energy

$$$$
20:0
     RDKit          3D

 23 24  0  0  0  0  0  0  0  0999 V2000
   59.6370   35.0260   45.7680 C   0  0  0  0  0  0  0  0  0  0  0  0
   58.2240   33.9430   45.7180 S   0  0  0  0  0  0  0  0  0  0  0  0
   57.6670   33.7390   47.0980 O   0  0  0  0  0  0  0  0  0  0  0  0
   57.1670   34.5770   44.8600 O   0  0  0  0  0  0  0  0  0  0  0  0
   58.6670   32.4140   45.0230 N   0  0  0  0  0  0  0  0  0  0  0  0
   57.8490   31.2300   45.0670 C   0  0  0  0  0  0  0  0  0  0  0  0
   56.6050   31.2320   44.3830 C   0  0  0  0  0  0  0  0  0  0  0  0
   55.7680   30.1020   44.3960 C   0  0  0  0  0  0  0  0  0  0  0  0
   56.1960   28.9840   45.1040 C   0  0  0  0  0  0  0  0  0  0  0  0
   55.5770   27.8390   45.2450 O   0  0  0  0  0  0  0  0  0  0  0  0
   56.3490   27.0750   45.9960 C   0  0  0  0  0  0  0  0  0  0  0  0
   56.0230   25.7770   46.3640 O   0  0  0  0  0  0  0  0  0  0  0  0
   57.5150   27.7340   46.3630 C   0  0  0  0  0  0  0  0  0  0  0  0
   57.3930   28.9710   45.7710 C   0  0  0  0  0  0  0  0  0  0  0  0
   58.2460   30.0720   45.7810 C   0  0  0  0  0  0  0  0  0  0  0  0
   59.9048   35.2313   46.8150 H   0  0  0  0  0  0  0  0  0  0  0  0
   60.4858   34.5450   45.2600 H   0  0  0  0  0  0  0  0  0  0  0  0
   59.3931   35.9707   45.2600 H   0  0  0  0  0  0  0  0  0  0  0  0
   59.6170   32.3530   44.5940 H   0  0  0  0  0  0  0  0  0  0  0  0
   56.2907   32.1319   43.8340 H   0  0  0  0  0  0  0  0  0  0  0  0
   54.8056   30.1023   43.8633 H   0  0  0  0  0  0  0  0  0  0  0  0
   58.3423   27.3562   46.9818 H   0  0  0  0  0  0  0  0  0  0  0  0
   59.2003   30.0435   46.3273 H   0  0  0  0  0  0  0  0  0  0  0  0
  1  2  1  0
  2  3  2  0
  2  4  2  0
  2  5  1  0
  5  6  1  0
  6  7  2  0
  7  8  1  0
  8  9  2  0
  9 10  1  0
 10 11  1  0
 11 12  1  0
 11 13  2  0
 13 14  1  0
 14 15  2  0
 15  6  1  0
 14  9  1  0
  1 16  1  0
  1 17  1  0
  1 18  1  0
  5 19  1  0
  7 20  1  0
  8 21  1  0
 13 22  1  0
 15 23  1  0
M  CHG  1  12  -1
M  END
>  <UniqueID>  (21) 
18

>  <SMILES>  (21) 
CS(=O)(=O)Nc1ccc2oc([O-])cc2c1

>  <Energy>  (21) 
56.50761660938334

>  <Genealogy>  (21) 
CS(=O)(=O)Nc1ccc2oc([O-])cc2c1 (protonated)
CS(=O)(=O)Nc1ccc2oc([O-])cc2c1 (3D coordinates assigned)
CS(=O)(=O)Nc1ccc2oc([O-])cc2c1 (optimized conformer: 56.50761660938334 kcal/mol)

>  <smiles>  (21) 
CS(=O)(=O)Nc1ccc2oc(O)cc2c1

>  <score_type>  (21) 
oracle

>  <origin>  (21) 
adg

>  <m_score__min__energy>  (21) 
-8.6999999999999993

>  <m_primary>  (21) 
energy

$$$$
21:0
     RDKit          3D

 32 33  0  0  0  0  0  0  0  0999 V2000
   56.3530   24.4700   44.4760 C   0  0  0  0  0  0  0  0  0  0  0  0
   55.3970   25.2760   45.7440 S   0  0  0  0  0  0  0  0  0  0  0  0
   53.9460   24.9080   45.6210 O   0  0  0  0  0  0  0  0  0  0  0  0
   55.8990   24.8240   47.0860 O   0  0  0  0  0  0  0  0  0  0  0  0
   55.5860   26.9970   45.6310 N   0  0  0  0  0  0  0  0  0  0  0  0
   56.8330   27.7070   45.6150 C   0  0  0  0  0  0  0  0  0  0  0  0
   58.0090   26.9940   45.8720 C   0  0  0  0  0  0  0  0  0  0  0  0
   59.2460   27.6410   45.8610 C   0  0  0  0  0  0  0  0  0  0  0  0
   59.3190   29.0100   45.5960 C   0  0  0  0  0  0  0  0  0  0  0  0
   58.1510   29.7490   45.3370 C   0  0  0  0  0  0  0  0  0  0  0  0
   58.2280   31.2060   45.0570 C   0  0  0  0  0  0  0  0  0  0  0  0
   57.7030   31.7390   43.8690 C   0  0  0  0  0  0  0  0  0  0  0  0
   57.7920   33.0720   43.6140 N   0  0  0  0  0  0  0  0  0  0  0  0
   58.3770   33.9300   44.4910 C   0  0  0  0  0  0  0  0  0  0  0  0
   58.8950   33.4590   45.7080 C   0  0  0  0  0  0  0  0  0  0  0  0
   59.5930   34.3950   46.6610 C   0  0  0  0  0  0  0  0  0  0  0  0
   58.9030   34.4220   47.8590 F   0  0  0  0  0  0  0  0  0  0  0  0
   59.6400   35.6760   46.1390 F   0  0  0  0  0  0  0  0  0  0  0  0
   60.8910   33.9750   46.8970 F   0  0  0  0  0  0  0  0  0  0  0  0
   58.8340   32.0820   45.9720 C   0  0  0  0  0  0  0  0  0  0  0  0
   56.9090   29.0880   45.3490 C   0  0  0  0  0  0  0  0  0  0  0  0
   57.1144   23.8281   44.9431 H   0  0  0  0  0  0  0  0  0  0  0  0
   55.6886   23.8554   43.8508 H   0  0  0  0  0  0  0  0  0  0  0  0
   56.8465   25.2287   43.8508 H   0  0  0  0  0  0  0  0  0  0  0  0
   57.9586   25.9159   46.0843 H   0  0  0  0  0  0  0  0  0  0  0  0
   60.1652   27.0711   46.0615 H   0  0  0  0  0  0  0  0  0  0  0  0
   60.2968   29.5138   45.5898 H   0  0  0  0  0  0  0  0  0  0  0  0
   57.2166   31.0743   43.1398 H   0  0  0  0  0  0  0  0  0  0  0  0
   57.4020   33.4460   42.7200 H   0  0  0  0  0  0  0  0  0  0  0  0
   58.4450   35.0001   44.2457 H   0  0  0  0  0  0  0  0  0  0  0  0
   59.2645   31.6856   46.9034 H   0  0  0  0  0  0  0  0  0  0  0  0
   55.9882   29.6554   45.1486 H   0  0  0  0  0  0  0  0  0  0  0  0
  1  2  1  0
  2  3  2  0
  2  4  2  0
  2  5  1  0
  5  6  1  0
  6  7  2  0
  7  8  1  0
  8  9  2  0
  9 10  1  0
 10 11  1  0
 11 12  2  0
 12 13  1  0
 13 14  2  0
 14 15  1  0
 15 16  1  0
 16 17  1  0
 16 18  1  0
 16 19  1  0
 15 20  2  0
 10 21  2  0
 21  6  1  0
 20 11  1  0
  1 22  1  0
  1 23  1  0
  1 24  1  0
  7 25  1  0
  8 26  1  0
  9 27  1  0
 12 28  1  0
 13 29  1  0
 14 30  1  0
 20 31  1  0
 21 32  1  0
M  CHG  2   5  -1  13   1
M  END
>  <UniqueID>  (22) 
19

>  <SMILES>  (22) 
CS(=O)(=O)[N-]c1cccc(-c2c[nH+]cc(C(F)(F)F)c2)c1

>  <Energy>  (22) 
36.883772290074354

>  <Genealogy>  (22) 
CS(=O)(=O)[N-]c1cccc(-c2c[nH+]cc(C(F)(F)F)c2)c1 (protonated)
CS(=O)(=O)[N-]c1cccc(-c2c[nH+]cc(C(F)(F)F)c2)c1 (3D coordinates assigned)
CS(=O)(=O)[N-]c1cccc(-c2c[nH+]cc(C(F)(F)F)c2)c1 (optimized conformer: 36.883772290074354 kcal/mol)

>  <smiles>  (22) 
CS(=O)(=O)Nc1cccc(-c2cncc(C(F)(F)F)c2)c1

>  <score_type>  (22) 
oracle

>  <origin>  (22) 
adg

>  <m_score__min__energy>  (22) 
-7.7400000000000002

>  <m_primary>  (22) 
energy

$$$$
22:0
     RDKit          3D

 57 60  0  0  0  0  0  0  0  0999 V2000
   52.4460   21.9930   46.5710 C   0  0  0  0  0  0  0  0  0  0  0  0
   53.1330   22.2290   45.3540 O   0  0  0  0  0  0  0  0  0  0  0  0
   54.5110   22.4140   45.3850 C   0  0  0  0  0  0  0  0  0  0  0  0
   54.9890   23.6870   45.5050 C   0  0  0  0  0  0  0  0  0  0  0  0
   56.3580   23.8560   45.5330 C   0  0  0  0  0  0  0  0  0  0  0  0
   56.8870   25.1050   45.6520 N   0  0  0  0  0  0  0  0  0  0  0  0
   58.2060   25.3330   45.6860 C   0  0  0  0  0  0  0  0  0  0  0  0
   58.7730   26.6290   45.8070 N   0  0  0  0  0  0  0  0  0  0  0  0
   59.9450   26.9320   46.5960 C   0  0  0  0  0  0  0  0  0  0  0  0
   59.8080   28.1950   47.4190 C   0  0  0  0  0  0  0  0  0  0  0  0
   58.9610   29.1930   46.7890 N   0  0  0  0  0  0  0  0  0  0  0  0
   59.4040   30.5480   46.8000 C   0  0  0  0  0  0  0  0  0  0  0  0
   60.5140   30.7460   47.3710 O   0  0  0  0  0  0  0  0  0  0  0  0
   58.6910   31.6200   46.2280 N   0  0  0  0  0  0  0  0  0  0  0  0
   59.0650   32.9750   46.2010 C   0  0  0  0  0  0  0  0  0  0  0  0
   59.6540   33.6660   47.2320 C   0  0  0  0  0  0  0  0  0  0  0  0
   59.9960   35.0200   47.1250 C   0  0  0  0  0  0  0  0  0  0  0  0
   59.7540   35.7250   45.9660 C   0  0  0  0  0  0  0  0  0  0  0  0
   59.1630   35.0350   44.9300 C   0  0  0  0  0  0  0  0  0  0  0  0
   58.8290   33.7040   45.0430 C   0  0  0  0  0  0  0  0  0  0  0  0
   58.1960   33.0630   43.8600 C   0  0  0  0  0  0  0  0  0  0  0  0
   57.7300   28.7350   46.1980 C   0  0  0  0  0  0  0  0  0  0  0  0
   58.1580   27.7510   45.0990 C   0  0  0  0  0  0  0  0  0  0  0  0
   59.0150   24.2680   45.5980 N   0  0  0  0  0  0  0  0  0  0  0  0
   58.5870   22.9970   45.4790 C   0  0  0  0  0  0  0  0  0  0  0  0
   59.4680   22.0840   45.4050 N   0  0  0  0  0  0  0  0  0  0  0  0
   57.2280   22.8010   45.4470 C   0  0  0  0  0  0  0  0  0  0  0  0
   56.7290   21.5420   45.3290 C   0  0  0  0  0  0  0  0  0  0  0  0
   55.3710   21.3400   45.2970 C   0  0  0  0  0  0  0  0  0  0  0  0
   54.8120   20.0860   45.1780 O   0  0  0  0  0  0  0  0  0  0  0  0
   55.5430   18.8990   44.9720 C   0  0  0  0  0  0  0  0  0  0  0  0
   53.1105   22.2213   47.4174 H   0  0  0  0  0  0  0  0  0  0  0  0
   51.5554   22.6367   46.6201 H   0  0  0  0  0  0  0  0  0  0  0  0
   52.1390   20.9379   46.6201 H   0  0  0  0  0  0  0  0  0  0  0  0
   54.3072   24.5472   45.5768 H   0  0  0  0  0  0  0  0  0  0  0  0
   56.2060   25.8760   45.7160 H   0  0  0  0  0  0  0  0  0  0  0  0
   60.1325   26.0901   47.2786 H   0  0  0  0  0  0  0  0  0  0  0  0
   60.7760   27.0919   45.8933 H   0  0  0  0  0  0  0  0  0  0  0  0
   59.3739   27.9322   48.3950 H   0  0  0  0  0  0  0  0  0  0  0  0
   60.8122   28.6322   47.5210 H   0  0  0  0  0  0  0  0  0  0  0  0
   57.7730   31.3670   45.7700 H   0  0  0  0  0  0  0  0  0  0  0  0
   59.8642   33.1378   48.1737 H   0  0  0  0  0  0  0  0  0  0  0  0
   60.4653   35.5288   47.9799 H   0  0  0  0  0  0  0  0  0  0  0  0
   60.0200   36.7882   45.8723 H   0  0  0  0  0  0  0  0  0  0  0  0
   58.9524   35.5616   43.9875 H   0  0  0  0  0  0  0  0  0  0  0  0
   57.4602   32.3179   44.1966 H   0  0  0  0  0  0  0  0  0  0  0  0
   57.6907   33.8296   43.2541 H   0  0  0  0  0  0  0  0  0  0  0  0
   58.9688   32.5674   43.2541 H   0  0  0  0  0  0  0  0  0  0  0  0
   57.1058   28.2283   46.9488 H   0  0  0  0  0  0  0  0  0  0  0  0
   57.1299   29.5655   45.7979 H   0  0  0  0  0  0  0  0  0  0  0  0
   57.2841   27.4116   44.5235 H   0  0  0  0  0  0  0  0  0  0  0  0
   58.8510   28.2132   44.3805 H   0  0  0  0  0  0  0  0  0  0  0  0
   59.3330   21.1040   45.1470 H   0  0  0  0  0  0  0  0  0  0  0  0
   57.4138   20.6840   45.2591 H   0  0  0  0  0  0  0  0  0  0  0  0
   55.8127   18.4611   45.9443 H   0  0  0  0  0  0  0  0  0  0  0  0
   54.9287   18.1837   44.4054 H   0  0  0  0  0  0  0  0  0  0  0  0
   56.4582   19.1257   44.4054 H   0  0  0  0  0  0  0  0  0  0  0  0
  1  2  1  0
  2  3  1  0
  3  4  2  0
  4  5  1  0
  5  6  1  0
  6  7  1  0
  7  8  1  0
  8  9  1  0
  9 10  1  0
 10 11  1  0
 11 12  1  0
 12 13  2  0
 12 14  1  0
 14 15  1  0
 15 16  2  0
 16 17  1  0
 17 18  2  0
 18 19  1  0
 19 20  2  0
 20 21  1  0
 11 22  1  0
 22 23  1  0
  7 24  2  0
 24 25  1  0
 25 26  2  3
 25 27  1  0
 27 28  1  0
 28 29  2  0
 29 30  1  0
 30 31  1  0
 29  3  1  0
 27  5  2  0
 23  8  1  0
 20 15  1  0
  1 32  1  0
  1 33  1  0
  1 34  1  0
  4 35  1  0
  6 36  1  0
  9 37  1  0
  9 38  1  0
 10 39  1  0
 10 40  1  0
 14 41  1  0
 16 42  1  0
 17 43  1  0
 18 44  1  0
 19 45  1  0
 21 46  1  0
 21 47  1  0
 21 48  1  0
 22 49  1  0
 22 50  1  0
 23 51  1  0
 23 52  1  0
 26 53  1  0
 28 54  1  0
 31 55  1  0
 31 56  1  0
 31 57  1  0
M  END
>  <smiles>  (23) 
COc1cc2[nH]c(N3CCN(C(=O)Nc4ccccc4C)CC3)nc(=N)c2cc1OC

>  <score_type>  (23) 
oracle

>  <origin>  (23) 
adg

>  <m_score__min__energy>  (23) 
-7.1600000000000001

>  <m_primary>  (23) 
energy

$$$$
23:0
     RDKit          3D

 30 33  0  0  0  0  0  0  0  0999 V2000
   63.9950   33.2830   47.9310 N   0  0  0  0  0  0  0  0  0  0  0  0
   62.8550   32.9050   47.4530 C   0  0  0  0  0  0  0  0  0  0  0  0
   62.5030   31.5950   47.5050 N   0  0  0  0  0  0  0  0  0  0  0  0
   61.3130   31.1690   47.0080 C   0  0  0  0  0  0  0  0  0  0  0  0
   60.4190   32.0850   46.4330 C   0  0  0  0  0  0  0  0  0  0  0  0
   59.1100   31.6440   45.8870 C   0  0  0  0  0  0  0  0  0  0  0  0
   58.2740   32.5620   45.1960 C   0  0  0  0  0  0  0  0  0  0  0  0
   57.0340   32.1550   44.6740 C   0  0  0  0  0  0  0  0  0  0  0  0
   56.6540   30.8300   44.8570 C   0  0  0  0  0  0  0  0  0  0  0  0
   55.5220   30.2430   44.4380 N   0  0  0  0  0  0  0  0  0  0  0  0
   55.5700   28.9730   44.8230 N   0  0  0  0  0  0  0  0  0  0  0  0
   56.7290   28.7470   45.4870 C   0  0  0  0  0  0  0  0  0  0  0  0
   57.0870   27.4300   46.0490 C   0  0  0  0  0  0  0  0  0  0  0  0
   58.2960   27.1340   46.6730 C   0  0  0  0  0  0  0  0  0  0  0  0
   58.3880   25.8090   47.1150 C   0  0  0  0  0  0  0  0  0  0  0  0
   57.2580   25.0500   46.8430 C   0  0  0  0  0  0  0  0  0  0  0  0
   56.1480   26.0330   46.0530 S   0  0  0  0  0  0  0  0  0  0  0  0
   57.4450   29.9330   45.5210 C   0  0  0  0  0  0  0  0  0  0  0  0
   58.6850   30.3030   46.0500 C   0  0  0  0  0  0  0  0  0  0  0  0
   60.8060   33.4330   46.3940 C   0  0  0  0  0  0  0  0  0  0  0  0
   62.0080   33.8130   46.9000 N   0  0  0  0  0  0  0  0  0  0  0  0
   64.8970   32.9760   47.5010 H   0  0  0  0  0  0  0  0  0  0  0  0
   61.0491   30.1022   47.0564 H   0  0  0  0  0  0  0  0  0  0  0  0
   58.6014   33.6043   45.0680 H   0  0  0  0  0  0  0  0  0  0  0  0
   56.3846   32.8625   44.1376 H   0  0  0  0  0  0  0  0  0  0  0  0
   59.1018   27.8709   46.8059 H   0  0  0  0  0  0  0  0  0  0  0  0
   59.2730   25.4068   47.6298 H   0  0  0  0  0  0  0  0  0  0  0  0
   57.1144   23.9901   47.0998 H   0  0  0  0  0  0  0  0  0  0  0  0
   59.3140   29.5718   46.5789 H   0  0  0  0  0  0  0  0  0  0  0  0
   60.1344   34.1840   45.9526 H   0  0  0  0  0  0  0  0  0  0  0  0
  1  2  2  3
  2  3  1  0
  3  4  2  0
  4  5  1  0
  5  6  1  0
  6  7  1  0
  7  8  2  0
  8  9  1  0
  9 10  2  0
 10 11  1  0
 11 12  1  0
 12 13  1  0
 13 14  2  0
 14 15  1  0
 15 16  2  0
 16 17  1  0
 12 18  2  0
 18 19  1  0
  5 20  2  0
 20 21  1  0
 21  2  1  0
 19  6  2  0
 18  9  1  0
 17 13  1  0
  1 22  1  0
  4 23  1  0
  7 24  1  0
  8 25  1  0
 14 26  1  0
 15 27  1  0
 16 28  1  0
 19 29  1  0
 20 30  1  0
M  CHG  2  11  -1  21  -1
M  END
>  <UniqueID>  (24) 
20

>  <SMILES>  (24) 
N=c1ncc(-c2ccc3n[n-]c(-c4cccs4)c3c2)c[n-]1

>  <Energy>  (24) 
106.0228042494106

>  <Genealogy>  (24) 
N=c1ncc(-c2ccc3n[n-]c(-c4cccs4)c3c2)c[n-]1 (protonated)
N=c1ncc(-c2ccc3n[n-]c(-c4cccs4)c3c2)c[n-]1 (3D coordinates assigned)
N=c1ncc(-c2ccc3n[n-]c(-c4cccs4)c3c2)c[n-]1 (optimized conformer: 106.0228042494106 kcal/mol)

>  <smiles>  (24) 
N=c1ncc(-c2ccc3n[nH]c(-c4cccs4)c3c2)c[nH]1

>  <score_type>  (24) 
oracle

>  <origin>  (24) 
adg

>  <m_score__min__energy>  (24) 
-10.1

>  <m_primary>  (24) 
energy

$$$$
24:0
     RDKit          3D

 50 52  0  0  0  0  0  0  0  0999 V2000
   56.3320   21.0030   43.2110 N   0  0  0  0  0  0  0  0  0  0  0  0
   56.1630   21.6690   44.5010 C   0  0  0  0  0  0  0  0  0  0  0  0
   56.8410   23.0150   44.5060 C   0  0  0  0  0  0  0  0  0  0  0  0
   57.4660   23.4890   45.6690 C   0  0  0  0  0  0  0  0  0  0  0  0
   58.0650   24.7530   45.6850 C   0  0  0  0  0  0  0  0  0  0  0  0
   58.0380   25.5630   44.5390 C   0  0  0  0  0  0  0  0  0  0  0  0
   58.6710   26.9300   44.5490 C   0  0  0  0  0  0  0  0  0  0  0  0
   57.6630   27.9640   44.8610 N   0  0  0  0  0  0  0  0  0  0  0  0
   57.1760   28.6110   43.6190 C   0  0  0  0  0  0  0  0  0  0  0  0
   56.5730   29.9910   43.8970 C   0  0  0  0  0  0  0  0  0  0  0  0
   57.6610   30.9600   44.4230 C   0  0  0  0  0  0  0  0  0  0  0  0
   57.0490   32.0640   45.1910 N   0  0  0  0  0  0  0  0  0  0  0  0
   57.9520   33.5420   45.0040 S   0  0  0  0  0  0  0  0  0  0  0  0
   58.6630   33.5370   43.6780 O   0  0  0  0  0  0  0  0  0  0  0  0
   57.0000   34.7050   45.0240 O   0  0  0  0  0  0  0  0  0  0  0  0
   59.1250   33.7420   46.3040 C   0  0  0  0  0  0  0  0  0  0  0  0
   58.7040   34.1090   47.5910 C   0  0  0  0  0  0  0  0  0  0  0  0
   59.6420   34.2990   48.6100 C   0  0  0  0  0  0  0  0  0  0  0  0
   61.0040   34.1260   48.3500 C   0  0  0  0  0  0  0  0  0  0  0  0
   61.4310   33.7620   47.0680 C   0  0  0  0  0  0  0  0  0  0  0  0
   63.1410   33.5530   46.7380 Cl  0  0  0  0  0  0  0  0  0  0  0  0
   60.4930   33.5710   46.0470 C   0  0  0  0  0  0  0  0  0  0  0  0
   58.7030   30.2160   45.2970 C   0  0  0  0  0  0  0  0  0  0  0  0
   58.1400   28.9190   45.8970 C   0  0  0  0  0  0  0  0  0  0  0  0
   57.4020   25.0930   43.3790 C   0  0  0  0  0  0  0  0  0  0  0  0
   56.8030   23.8300   43.3630 C   0  0  0  0  0  0  0  0  0  0  0  0
   56.9070   21.6150   42.5880 H   0  0  0  0  0  0  0  0  0  0  0  0
   56.8610   20.1120   43.3580 H   0  0  0  0  0  0  0  0  0  0  0  0
   55.0894   21.8061   44.6973 H   0  0  0  0  0  0  0  0  0  0  0  0
   56.6202   21.0430   45.2815 H   0  0  0  0  0  0  0  0  0  0  0  0
   57.4852   22.8632   46.5734 H   0  0  0  0  0  0  0  0  0  0  0  0
   58.5591   25.1136   46.5992 H   0  0  0  0  0  0  0  0  0  0  0  0
   59.4643   26.9562   45.3106 H   0  0  0  0  0  0  0  0  0  0  0  0
   59.0939   27.1338   43.5542 H   0  0  0  0  0  0  0  0  0  0  0  0
   58.0194   28.7245   42.9221 H   0  0  0  0  0  0  0  0  0  0  0  0
   56.3898   27.9745   43.1868 H   0  0  0  0  0  0  0  0  0  0  0  0
   56.1474   30.3947   42.9664 H   0  0  0  0  0  0  0  0  0  0  0  0
   55.7868   29.8897   44.6596 H   0  0  0  0  0  0  0  0  0  0  0  0
   58.1823   31.3803   43.5503 H   0  0  0  0  0  0  0  0  0  0  0  0
   56.0960   32.2760   44.8140 H   0  0  0  0  0  0  0  0  0  0  0  0
   57.6328   34.2476   47.7989 H   0  0  0  0  0  0  0  0  0  0  0  0
   59.3074   34.5851   49.6180 H   0  0  0  0  0  0  0  0  0  0  0  0
   61.7406   34.2759   49.1531 H   0  0  0  0  0  0  0  0  0  0  0  0
   60.8300   33.2858   45.0395 H   0  0  0  0  0  0  0  0  0  0  0  0
   59.5751   29.9683   44.6740 H   0  0  0  0  0  0  0  0  0  0  0  0
   58.9798   30.8797   46.1294 H   0  0  0  0  0  0  0  0  0  0  0  0
   58.9310   28.4321   46.4863 H   0  0  0  0  0  0  0  0  0  0  0  0
   57.2753   29.1906   46.5203 H   0  0  0  0  0  0  0  0  0  0  0  0
   57.3749   25.7224   42.4773 H   0  0  0  0  0  0  0  0  0  0  0  0
   56.3002   23.4733   42.4520 H   0  0  0  0  0  0  0  0  0  0  0  0
  1  2  1  0
  2  3  1  0
  3  4  2  0
  4  5  1  0
  5  6  2  0
  6  7  1  0
  7  8  1  0
  8  9  1  0
  9 10  1  0
 10 11  1  0
 11 12  1  0
 12 13  1  0
 13 14  2  0
 13 15  2  0
 13 16  1  0
 16 17  2  0
 17 18  1  0
 18 19  2  0
 19 20  1  0
 20 21  1  0
 20 22  2  0
 11 23  1  0
 23 24  1  0
  6 25  1  0
 25 26  2  0
 26  3  1  0
 24  8  1  0
 22 16  1  0
  1 27  1  0
  1 28  1  0
  2 29  1  0
  2 30  1  0
  4 31  1  0
  5 32  1  0
  7 33  1  0
  7 34  1  0
  9 35  1  0
  9 36  1  0
 10 37  1  0
 10 38  1  0
 11 39  1  0
 12 40  1  0
 17 41  1  0
 18 42  1  0
 19 43  1  0
 22 44  1  0
 23 45  1  0
 23 46  1  0
 24 47  1  0
 24 48  1  0
 25 49  1  0
 26 50  1  0
M  END
>  <UniqueID>  (25) 
21

>  <SMILES>  (25) 
NCc1ccc(CN2CCC(NS(=O)(=O)c3cccc(Cl)c3)CC2)cc1

>  <Energy>  (25) 
57.53590070300565

>  <Genealogy>  (25) 
NCc1ccc(CN2CCC(NS(=O)(=O)c3cccc(Cl)c3)CC2)cc1 (3D coordinates assigned)
NCc1ccc(CN2CCC(NS(=O)(=O)c3cccc(Cl)c3)CC2)cc1 (nonaromatic ring conformer: 57.53590070300565 kcal/mol)

>  <smiles>  (25) 
NCc1ccc(CN2CCC(NS(=O)(=O)c3cccc(Cl)c3)CC2)cc1

>  <score_type>  (25) 
oracle

>  <origin>  (25) 
adg

>  <m_score__min__energy>  (25) 
-9.7799999999999994

>  <m_primary>  (25) 
energy

$$$$
25:0
     RDKit          3D

 43 44  0  0  0  0  0  0  0  0999 V2000
   55.5850   29.7270   44.1140 C   0  0  0  0  0  0  0  0  0  0  0  0
   56.9690   30.0510   43.5520 C   0  0  0  0  0  0  0  0  0  0  0  0
   58.0740   29.1570   44.1330 C   0  0  0  0  0  0  0  0  0  0  0  0
   58.6020   29.6800   45.7610 S   0  0  0  0  0  0  0  0  0  0  0  0
   60.0720   29.9940   45.7190 O   0  0  0  0  0  0  0  0  0  0  0  0
   58.3670   28.5680   46.7440 O   0  0  0  0  0  0  0  0  0  0  0  0
   57.7090   31.0840   46.2430 N   0  0  0  0  0  0  0  0  0  0  0  0
   58.2240   32.4080   46.0830 C   0  0  0  0  0  0  0  0  0  0  0  0
   57.6630   33.2330   45.1010 C   0  0  0  0  0  0  0  0  0  0  0  0
   58.1830   34.5090   44.8690 C   0  0  0  0  0  0  0  0  0  0  0  0
   59.2620   34.9730   45.6240 C   0  0  0  0  0  0  0  0  0  0  0  0
   59.8130   34.1680   46.6240 C   0  0  0  0  0  0  0  0  0  0  0  0
   59.2940   32.8860   46.8700 C   0  0  0  0  0  0  0  0  0  0  0  0
   59.8080   32.1200   47.9720 N   0  0  0  0  0  0  0  0  0  0  0  0
   61.1850   31.6160   47.9230 C   0  0  0  0  0  0  0  0  0  0  0  0
   61.3520   30.4150   48.8620 C   0  0  0  0  0  0  0  0  0  0  0  0
   60.1710   29.5340   48.7640 N   0  0  0  0  0  0  0  0  0  0  0  0
   60.4140   28.2710   49.4820 C   0  0  0  0  0  0  0  0  0  0  0  0
   58.9380   30.1910   49.2750 C   0  0  0  0  0  0  0  0  0  0  0  0
   58.9250   31.7220   49.0730 C   0  0  0  0  0  0  0  0  0  0  0  0
   55.6243   29.7362   45.2133 H   0  0  0  0  0  0  0  0  0  0  0  0
   54.8626   30.4803   43.7666 H   0  0  0  0  0  0  0  0  0  0  0  0
   55.2721   28.7313   43.7666 H   0  0  0  0  0  0  0  0  0  0  0  0
   56.9453   29.9153   42.4607 H   0  0  0  0  0  0  0  0  0  0  0  0
   57.2037   31.0890   43.8304 H   0  0  0  0  0  0  0  0  0  0  0  0
   57.6940   28.1269   44.2005 H   0  0  0  0  0  0  0  0  0  0  0  0
   58.9440   29.2270   43.4635 H   0  0  0  0  0  0  0  0  0  0  0  0
   56.8081   32.8748   44.5087 H   0  0  0  0  0  0  0  0  0  0  0  0
   57.7417   35.1488   44.0906 H   0  0  0  0  0  0  0  0  0  0  0  0
   59.6783   35.9728   45.4313 H   0  0  0  0  0  0  0  0  0  0  0  0
   60.6579   34.5401   47.2221 H   0  0  0  0  0  0  0  0  0  0  0  0
   61.4206   31.3064   46.8941 H   0  0  0  0  0  0  0  0  0  0  0  0
   61.8680   32.4161   48.2445 H   0  0  0  0  0  0  0  0  0  0  0  0
   62.2525   29.8513   48.5769 H   0  0  0  0  0  0  0  0  0  0  0  0
   61.4513   30.7747   49.8968 H   0  0  0  0  0  0  0  0  0  0  0  0
   60.0230   29.2910   47.7550 H   0  0  0  0  0  0  0  0  0  0  0  0
   60.3790   28.4530   50.5663 H   0  0  0  0  0  0  0  0  0  0  0  0
   59.6403   27.5387   49.2080 H   0  0  0  0  0  0  0  0  0  0  0  0
   61.4042   27.8781   49.2080 H   0  0  0  0  0  0  0  0  0  0  0  0
   58.0721   29.7633   48.7484 H   0  0  0  0  0  0  0  0  0  0  0  0
   58.9002   30.0080   50.3590 H   0  0  0  0  0  0  0  0  0  0  0  0
   57.8986   32.0449   48.8442 H   0  0  0  0  0  0  0  0  0  0  0  0
   59.2849   32.1979   49.9971 H   0  0  0  0  0  0  0  0  0  0  0  0
  1  2  1  0
  2  3  1  0
  3  4  1  0
  4  5  2  0
  4  6  2  0
  4  7  1  0
  7  8  1  0
  8  9  2  0
  9 10  1  0
 10 11  2  0
 11 12  1  0
 12 13  2  0
 13 14  1  0
 14 15  1  0
 15 16  1  0
 16 17  1  0
 17 18  1  0
 17 19  1  0
 19 20  1  0
 13  8  1  0
 20 14  1  0
  1 21  1  0
  1 22  1  0
  1 23  1  0
  2 24  1  0
  2 25  1  0
  3 26  1  0
  3 27  1  0
  9 28  1  0
 10 29  1  0
 11 30  1  0
 12 31  1  0
 15 32  1  0
 15 33  1  0
 16 34  1  0
 16 35  1  0
 17 36  1  0
 18 37  1  0
 18 38  1  0
 18 39  1  0
 19 40  1  0
 19 41  1  0
 20 42  1  0
 20 43  1  0
M  CHG  2   7  -1  17   1
M  END
>  <UniqueID>  (26) 
22

>  <SMILES>  (26) 
CCCS(=O)(=O)[N-]c1ccccc1N1CC[NH+](C)CC1

>  <Energy>  (26) 
51.73226820952627

>  <Genealogy>  (26) 
CCCS(=O)(=O)[N-]c1ccccc1N1CC[NH+](C)CC1 (protonated)
CCCS(=O)(=O)[N-]c1ccccc1N1CC[NH+](C)CC1 (3D coordinates assigned)
CCCS(=O)(=O)[N-]c1ccccc1N1CC[NH+](C)CC1 (nonaromatic ring conformer: 51.73226820952627 kcal/mol)

>  <smiles>  (26) 
CCCS(=O)(=O)Nc1ccccc1N1CCN(C)CC1

>  <score_type>  (26) 
oracle

>  <origin>  (26) 
adg

>  <m_score__min__energy>  (26) 
-6

>  <m_primary>  (26) 
energy

$$$$
26:0
     RDKit          3D

 54 57  0  0  0  0  0  0  0  0999 V2000
   66.1440   34.0770   52.0520 N   0  0  0  0  0  0  0  0  0  0  0  0
   66.2610   33.4170   50.7820 C   0  0  0  0  0  0  0  0  0  0  0  0
   67.4140   33.2890   50.1920 N   0  0  0  0  0  0  0  0  0  0  0  0
   68.6310   33.6520   50.7350 O   0  0  0  0  0  0  0  0  0  0  0  0
   65.0520   32.8630   50.1230 C   0  0  0  0  0  0  0  0  0  0  0  0
   64.3960   31.7370   50.6500 C   0  0  0  0  0  0  0  0  0  0  0  0
   63.2610   31.2150   50.0210 C   0  0  0  0  0  0  0  0  0  0  0  0
   62.7530   31.8100   48.8530 C   0  0  0  0  0  0  0  0  0  0  0  0
   61.5450   31.2600   48.1900 C   0  0  0  0  0  0  0  0  0  0  0  0
   61.0710   29.9760   48.5220 C   0  0  0  0  0  0  0  0  0  0  0  0
   59.9360   29.4530   47.8970 C   0  0  0  0  0  0  0  0  0  0  0  0
   59.2560   30.2040   46.9340 C   0  0  0  0  0  0  0  0  0  0  0  0
   58.1520   29.6940   46.3230 N   0  0  0  0  0  0  0  0  0  0  0  0
   57.4580   30.3920   45.3820 C   0  0  0  0  0  0  0  0  0  0  0  0
   56.2800   29.7730   44.7490 C   0  0  0  0  0  0  0  0  0  0  0  0
   55.7040   30.3630   43.7950 O   0  0  0  0  0  0  0  0  0  0  0  0
   55.7860   28.5130   45.2170 N   0  0  0  0  0  0  0  0  0  0  0  0
   56.6350   27.4580   45.7680 C   0  0  2  0  0  0  0  0  0  0  0  0
   57.6330   26.9460   44.7090 C   0  0  0  0  0  0  0  0  0  0  0  0
   57.7610   25.4410   44.7020 C   0  0  0  0  0  0  0  0  0  0  0  0
   57.0130   24.6700   43.7960 C   0  0  0  0  0  0  0  0  0  0  0  0
   57.1560   23.2790   43.7690 C   0  0  0  0  0  0  0  0  0  0  0  0
   58.0490   22.6490   44.6400 C   0  0  0  0  0  0  0  0  0  0  0  0
   58.7990   23.4090   45.5420 C   0  0  0  0  0  0  0  0  0  0  0  0
   58.6560   24.7990   45.5750 C   0  0  0  0  0  0  0  0  0  0  0  0
   55.7770   26.3420   46.2920 C   0  0  0  0  0  0  0  0  0  0  0  0
   54.5540   26.2960   45.9950 O   0  0  0  0  0  0  0  0  0  0  0  0
   56.3090   25.3870   47.1500 O   0  0  0  0  0  0  0  0  0  0  0  0
   57.8880   31.6780   45.0190 C   0  0  0  0  0  0  0  0  0  0  0  0
   59.0180   32.2260   45.6280 C   0  0  0  0  0  0  0  0  0  0  0  0
   59.7170   31.4920   46.5930 C   0  0  0  0  0  0  0  0  0  0  0  0
   60.8570   32.0140   47.2210 C   0  0  0  0  0  0  0  0  0  0  0  0
   63.4110   32.9320   48.3230 C   0  0  0  0  0  0  0  0  0  0  0  0
   64.5490   33.4500   48.9470 C   0  0  0  0  0  0  0  0  0  0  0  0
   66.9490   34.1690   52.7080 H   0  0  0  0  0  0  0  0  0  0  0  0
   65.2200   34.4290   52.3840 H   0  0  0  0  0  0  0  0  0  0  0  0
   68.8240   34.5790   51.0860 H   0  0  0  0  0  0  0  0  0  0  0  0
   64.7788   31.2621   51.5654 H   0  0  0  0  0  0  0  0  0  0  0  0
   62.7614   30.3310   50.4440 H   0  0  0  0  0  0  0  0  0  0  0  0
   61.5992   29.3794   49.2803 H   0  0  0  0  0  0  0  0  0  0  0  0
   59.5768   28.4480   48.1634 H   0  0  0  0  0  0  0  0  0  0  0  0
   57.2237   27.8698   46.6010 H   0  0  0  0  0  0  0  0  0  0  0  0
   57.2906   27.2739   43.7164 H   0  0  0  0  0  0  0  0  0  0  0  0
   58.6209   27.3604   44.9584 H   0  0  0  0  0  0  0  0  0  0  0  0
   56.3124   25.1623   43.1055 H   0  0  0  0  0  0  0  0  0  0  0  0
   56.5646   22.6799   43.0610 H   0  0  0  0  0  0  0  0  0  0  0  0
   58.1617   21.5551   44.6157 H   0  0  0  0  0  0  0  0  0  0  0  0
   59.5025   22.9127   46.2266 H   0  0  0  0  0  0  0  0  0  0  0  0
   59.2468   25.3933   46.2876 H   0  0  0  0  0  0  0  0  0  0  0  0
   57.3372   32.2509   44.2585 H   0  0  0  0  0  0  0  0  0  0  0  0
   59.3589   33.2341   45.3497 H   0  0  0  0  0  0  0  0  0  0  0  0
   61.2158   33.0191   46.9546 H   0  0  0  0  0  0  0  0  0  0  0  0
   63.0270   33.4073   47.4083 H   0  0  0  0  0  0  0  0  0  0  0  0
   65.0565   34.3250   48.5148 H   0  0  0  0  0  0  0  0  0  0  0  0
  1  2  1  0
  2  3  2  3
  3  4  1  0
  2  5  1  0
  5  6  2  0
  6  7  1  0
  7  8  2  0
  8  9  1  0
  9 10  2  0
 10 11  1  0
 11 12  2  0
 12 13  1  0
 13 14  2  0
 14 15  1  0
 15 16  2  0
 15 17  1  0
 17 18  1  0
 18 19  1  0
 19 20  1  0
 20 21  2  0
 21 22  1  0
 22 23  2  0
 23 24  1  0
 24 25  2  0
 18 26  1  0
 26 27  2  0
 26 28  1  0
 14 29  1  0
 29 30  2  0
 30 31  1  0
 31 32  2  0
  8 33  1  0
 33 34  2  0
 34  5  1  0
 32  9  1  0
 31 12  1  0
 25 20  1  0
  1 35  1  0
  1 36  1  0
  4 37  1  0
  6 38  1  0
  7 39  1  0
 10 40  1  0
 11 41  1  0
 18 42  1  1
 19 43  1  0
 19 44  1  0
 21 45  1  0
 22 46  1  0
 23 47  1  0
 24 48  1  0
 25 49  1  0
 29 50  1  0
 30 51  1  0
 32 52  1  0
 33 53  1  0
 34 54  1  0
M  CHG  2  17  -1  28  -1
M  END
>  <UniqueID>  (27) 
23

>  <SMILES>  (27) 
NC(=NO)c1ccc(-c2ccc3nc(C(=O)[N-][C@H](Cc4ccccc4)C(=O)[O-])ccc3c2)cc1

>  <Energy>  (27) 
67.79273892991624

>  <Genealogy>  (27) 
NC(=NO)c1ccc(-c2ccc3nc(C(=O)[N-]C(Cc4ccccc4)C(=O)[O-])ccc3c2)cc1 (protonated)
NC(=NO)c1ccc(-c2ccc3nc(C(=O)[N-][C@H](Cc4ccccc4)C(=O)[O-])ccc3c2)cc1 (chirality)
NC(=NO)c1ccc(-c2ccc3nc(C(=O)[N-][C@H](Cc4ccccc4)C(=O)[O-])ccc3c2)cc1 (3D coordinates assigned)
NC(=NO)c1ccc(-c2ccc3nc(C(=O)[N-][C@H](Cc4ccccc4)C(=O)[O-])ccc3c2)cc1 (optimized conformer: 67.79273892991624 kcal/mol)

>  <smiles>  (27) 
NC(=NO)c1ccc(-c2ccc3nc(C(=O)NC(Cc4ccccc4)C(=O)O)ccc3c2)cc1

>  <score_type>  (27) 
oracle

>  <origin>  (27) 
adg

>  <m_score__min__energy>  (27) 
-14.02

>  <m_primary>  (27) 
energy

$$$$
27:0
     RDKit          3D

 18 19  0  0  0  0  0  0  0  0999 V2000
   58.9160   34.4780   46.2500 C   0  0  0  0  0  0  0  0  0  0  0  0
   58.8930   34.4220   44.8740 C   0  0  0  0  0  0  0  0  0  0  0  0
   58.2940   33.3480   44.2460 C   0  0  0  0  0  0  0  0  0  0  0  0
   57.7140   32.3230   44.9960 C   0  0  0  0  0  0  0  0  0  0  0  0
   57.0840   31.1940   44.3160 C   0  0  0  0  0  0  0  0  0  0  0  0
   55.8220   30.7920   44.5490 N   0  0  0  0  0  0  0  0  0  0  0  0
   55.5380   29.7180   43.7590 C   0  0  0  0  0  0  0  0  0  0  0  0
   56.6960   29.4890   43.0310 C   0  0  0  0  0  0  0  0  0  0  0  0
   57.6410   30.4020   43.3810 N   0  0  0  0  0  0  0  0  0  0  0  0
   57.7580   32.4150   46.3510 N   0  0  0  0  0  0  0  0  0  0  0  0
   58.3330   33.4460   46.9920 C   0  0  0  0  0  0  0  0  0  0  0  0
   59.3897   35.3287   46.7618 H   0  0  0  0  0  0  0  0  0  0  0  0
   59.3487   35.2274   44.2794 H   0  0  0  0  0  0  0  0  0  0  0  0
   58.2736   33.2996   43.1473 H   0  0  0  0  0  0  0  0  0  0  0  0
   54.5944   29.1548   43.7096 H   0  0  0  0  0  0  0  0  0  0  0  0
   56.8295   28.6915   42.2852 H   0  0  0  0  0  0  0  0  0  0  0  0
   58.6210   30.4660   42.9850 H   0  0  0  0  0  0  0  0  0  0  0  0
   58.3452   33.4782   48.0915 H   0  0  0  0  0  0  0  0  0  0  0  0
  1  2  2  0
  2  3  1  0
  3  4  2  0
  4  5  1  0
  5  6  2  0
  6  7  1  0
  7  8  2  0
  8  9  1  0
  4 10  1  0
 10 11  2  0
 11  1  1  0
  9  5  1  0
  1 12  1  0
  2 13  1  0
  3 14  1  0
  7 15  1  0
  8 16  1  0
  9 17  1  0
 11 18  1  0
M  END
>  <smiles>  (28) 
c1ccc(-c2ncc[nH]2)nc1

>  <score_type>  (28) 
oracle

>  <origin>  (28) 
adg

>  <m_score__min__energy>  (28) 
-5.21

>  <m_primary>  (28) 
energy

$$$$
28:0
     RDKit          3D

 51 52  0  0  0  0  0  0  0  0999 V2000
   64.3120   32.3080   49.4950 C   0  0  0  0  0  0  0  0  0  0  0  0
   63.0890   33.1290   49.5060 N   0  0  0  0  0  0  0  0  0  0  0  0
   63.1180   34.0380   50.6630 C   0  0  0  0  0  0  0  0  0  0  0  0
   62.9520   33.8980   48.2500 C   0  0  0  0  0  0  0  0  0  0  0  0
   61.8050   33.3530   47.3860 C   0  0  0  0  0  0  0  0  0  0  0  0
   60.5340   34.0260   47.6900 N   0  0  0  0  0  0  0  0  0  0  0  0
   59.9600   33.9810   49.0430 C   0  0  0  0  0  0  0  0  0  0  0  0
   59.3260   32.6050   49.3340 C   0  0  0  0  0  0  0  0  0  0  0  0
   60.3380   31.5290   49.4920 N   0  0  0  0  0  0  0  0  0  0  0  0
   60.2080   30.8620   50.8020 C   0  0  0  0  0  0  0  0  0  0  0  0
   60.1960   30.5320   48.4160 C   0  0  0  0  0  0  0  0  0  0  0  0
   59.7510   34.5520   46.6090 C   0  0  0  0  0  0  0  0  0  0  0  0
   59.6760   35.7990   46.4470 O   0  0  0  0  0  0  0  0  0  0  0  0
   59.0590   33.6480   45.6810 C   0  0  0  0  0  0  0  0  0  0  0  0
   58.9960   33.7990   44.2970 C   0  0  0  0  0  0  0  0  0  0  0  0
   58.2710   32.7750   43.6770 C   0  0  0  0  0  0  0  0  0  0  0  0
   58.0350   32.6720   42.3080 C   0  0  0  0  0  0  0  0  0  0  0  0
   57.2790   31.5910   41.8310 C   0  0  0  0  0  0  0  0  0  0  0  0
   56.7730   30.6240   42.7170 C   0  0  0  0  0  0  0  0  0  0  0  0
   57.0100   30.7170   44.1080 C   0  0  0  0  0  0  0  0  0  0  0  0
   56.4760   29.6800   45.0290 C   0  0  0  0  0  0  0  0  0  0  0  0
   55.1430   29.1980   44.8750 N   0  0  0  0  0  0  0  0  0  0  0  0
   57.1880   29.2100   45.9530 O   0  0  0  0  0  0  0  0  0  0  0  0
   57.7680   31.8190   44.5550 C   0  0  0  0  0  0  0  0  0  0  0  0
   58.2230   32.2480   46.1210 S   0  0  0  0  0  0  0  0  0  0  0  0
   64.6228   32.0993   50.5293 H   0  0  0  0  0  0  0  0  0  0  0  0
   64.1126   31.3601   48.9737 H   0  0  0  0  0  0  0  0  0  0  0  0
   65.1138   32.8515   48.9737 H   0  0  0  0  0  0  0  0  0  0  0  0
   63.0992   33.4495   51.5922 H   0  0  0  0  0  0  0  0  0  0  0  0
   64.0359   34.6433   50.6308 H   0  0  0  0  0  0  0  0  0  0  0  0
   62.2405   34.7006   50.6308 H   0  0  0  0  0  0  0  0  0  0  0  0
   62.7477   34.9508   48.4946 H   0  0  0  0  0  0  0  0  0  0  0  0
   63.8894   33.8061   47.6819 H   0  0  0  0  0  0  0  0  0  0  0  0
   62.0493   33.5130   46.3255 H   0  0  0  0  0  0  0  0  0  0  0  0
   61.6884   32.2811   47.6039 H   0  0  0  0  0  0  0  0  0  0  0  0
   60.7565   34.1717   49.7773 H   0  0  0  0  0  0  0  0  0  0  0  0
   59.1752   34.7485   49.1144 H   0  0  0  0  0  0  0  0  0  0  0  0
   58.7407   32.6766   50.2626 H   0  0  0  0  0  0  0  0  0  0  0  0
   58.6934   32.3421   48.4734 H   0  0  0  0  0  0  0  0  0  0  0  0
   61.3040   31.9260   49.4250 H   0  0  0  0  0  0  0  0  0  0  0  0
   60.3518   31.5999   51.6050 H   0  0  0  0  0  0  0  0  0  0  0  0
   59.2061   30.4163   50.8887 H   0  0  0  0  0  0  0  0  0  0  0  0
   60.9692   30.0727   50.8887 H   0  0  0  0  0  0  0  0  0  0  0  0
   60.0539   29.5343   48.8570 H   0  0  0  0  0  0  0  0  0  0  0  0
   59.3249   30.7854   47.7940 H   0  0  0  0  0  0  0  0  0  0  0  0
   61.1032   30.5321   47.7940 H   0  0  0  0  0  0  0  0  0  0  0  0
   59.4646   34.6316   43.7518 H   0  0  0  0  0  0  0  0  0  0  0  0
   58.4345   33.4253   41.6131 H   0  0  0  0  0  0  0  0  0  0  0  0
   57.0801   31.4991   40.7530 H   0  0  0  0  0  0  0  0  0  0  0  0
   56.1842   29.7828   42.3225 H   0  0  0  0  0  0  0  0  0  0  0  0
   54.4170   29.3890   45.6000 H   0  0  0  0  0  0  0  0  0  0  0  0
  1  2  1  0
  2  3  1  0
  2  4  1  0
  4  5  1  0
  5  6  1  0
  6  7  1  0
  7  8  1  0
  8  9  1  0
  9 10  1  0
  9 11  1  0
  6 12  1  0
 12 13  2  0
 12 14  1  0
 14 15  2  0
 15 16  1  0
 16 17  2  0
 17 18  1  0
 18 19  2  0
 19 20  1  0
 20 21  1  0
 21 22  1  0
 21 23  2  0
 20 24  2  0
 24 25  1  0
 25 14  1  0
 24 16  1  0
  1 26  1  0
  1 27  1  0
  1 28  1  0
  3 29  1  0
  3 30  1  0
  3 31  1  0
  4 32  1  0
  4 33  1  0
  5 34  1  0
  5 35  1  0
  7 36  1  0
  7 37  1  0
  8 38  1  0
  8 39  1  0
  9 40  1  0
 10 41  1  0
 10 42  1  0
 10 43  1  0
 11 44  1  0
 11 45  1  0
 11 46  1  0
 15 47  1  0
 17 48  1  0
 18 49  1  0
 19 50  1  0
 22 51  1  0
M  CHG  2   9   1  22  -1
M  END
>  <UniqueID>  (29) 
24

>  <SMILES>  (29) 
CN(C)CCN(CC[NH+](C)C)C(=O)c1cc2cccc(C([NH-])=O)c2s1

>  <Energy>  (29) 
84.77116104210785

>  <Genealogy>  (29) 
CN(C)CCN(CC[NH+](C)C)C(=O)c1cc2cccc(C([NH-])=O)c2s1 (protonated)
CN(C)CCN(CC[NH+](C)C)C(=O)c1cc2cccc(C([NH-])=O)c2s1 (3D coordinates assigned)
CN(C)CCN(CC[NH+](C)C)C(=O)c1cc2cccc(C([NH-])=O)c2s1 (optimized conformer: 84.77116104210785 kcal/mol)

>  <smiles>  (29) 
CN(C)CCN(CCN(C)C)C(=O)c1cc2cccc(C(N)=O)c2s1

>  <score_type>  (29) 
oracle

>  <origin>  (29) 
adg

>  <m_score__min__energy>  (29) 
-9.0899999999999999

>  <m_primary>  (29) 
energy

$$$$
29:0
     RDKit          3D

 55 58  0  0  1  0  0  0  0  0999 V2000
   57.0020   34.2940   44.9160 C   0  0  0  0  0  0  0  0  0  0  0  0
   58.2650   34.3010   45.6110 N   0  0  0  0  0  0  0  0  0  0  0  0
   59.2970   35.1140   45.3370 C   0  0  0  0  0  0  0  0  0  0  0  0
   60.3310   34.8590   46.1780 N   0  0  0  0  0  0  0  0  0  0  0  0
   59.9320   33.8730   46.9850 C   0  0  0  0  0  0  0  0  0  0  0  0
   60.6810   33.2290   48.0720 C   0  0  0  0  0  0  0  0  0  0  0  0
   61.5830   33.9330   48.8560 C   0  0  0  0  0  0  0  0  0  0  0  0
   62.2680   33.2960   49.8670 C   0  0  0  0  0  0  0  0  0  0  0  0
   62.0400   31.9860   50.0690 N   0  0  0  0  0  0  0  0  0  0  0  0
   61.1530   31.3100   49.2900 C   0  0  0  0  0  0  0  0  0  0  0  0
   61.0010   30.0660   49.5550 N   0  0  0  0  0  0  0  0  0  0  0  0
   60.6830   29.1220   48.5630 C   0  0  0  0  0  0  0  0  0  0  0  0
   60.4440   27.8100   48.9910 C   0  0  0  0  0  0  0  0  0  0  0  0
   60.1280   26.8400   48.0630 C   0  0  0  0  0  0  0  0  0  0  0  0
   60.0350   27.1060   46.7050 C   0  0  0  0  0  0  0  0  0  0  0  0
   59.6770   26.0040   45.7820 C   0  0  0  0  0  0  0  0  0  0  0  0
   58.3060   26.0750   45.4160 N   0  0  0  0  0  0  0  0  0  0  0  0
   58.1500   26.4750   44.0480 C   0  0  0  0  0  0  0  0  0  0  0  0
   58.3050   27.9970   43.9710 C   0  0  0  0  0  0  0  0  0  0  0  0
   57.0960   28.5730   44.4980 N   0  0  0  0  0  0  0  0  0  0  0  0
   57.1740   30.2650   44.7090 S   0  0  0  0  0  0  0  0  0  0  0  0
   58.1900   31.0810   43.4980 C   0  0  0  0  0  0  0  0  0  0  0  0
   57.7380   30.5700   46.0620 O   0  0  0  0  0  0  0  0  0  0  0  0
   55.7810   30.8290   44.6640 O   0  0  0  0  0  0  0  0  0  0  0  0
   56.6180   27.8400   45.6210 C   0  0  0  0  0  0  0  0  0  0  0  0
   57.6170   26.9830   46.3220 C   0  0  0  0  0  0  0  0  0  0  0  0
   60.2740   28.4010   46.3030 C   0  0  0  0  0  0  0  0  0  0  0  0
   60.5940   29.4010   47.2140 C   0  0  0  0  0  0  0  0  0  0  0  0
   60.4690   31.9080   48.2960 N   0  0  0  0  0  0  0  0  0  0  0  0
   58.6270   33.5050   46.6430 C   0  0  0  0  0  0  0  0  0  0  0  0
   56.1808   34.2894   45.6478 H   0  0  0  0  0  0  0  0  0  0  0  0
   56.9258   35.1917   44.2849 H   0  0  0  0  0  0  0  0  0  0  0  0
   56.9357   33.3955   44.2849 H   0  0  0  0  0  0  0  0  0  0  0  0
   59.3037   35.8771   44.5448 H   0  0  0  0  0  0  0  0  0  0  0  0
   61.7519   35.0039   48.6697 H   0  0  0  0  0  0  0  0  0  0  0  0
   62.9848   33.8459   50.4946 H   0  0  0  0  0  0  0  0  0  0  0  0
   62.5590   31.5110   50.8310 H   0  0  0  0  0  0  0  0  0  0  0  0
   60.5079   27.5552   50.0592 H   0  0  0  0  0  0  0  0  0  0  0  0
   59.9423   25.8142   48.4140 H   0  0  0  0  0  0  0  0  0  0  0  0
   60.2961   26.0777   44.8757 H   0  0  0  0  0  0  0  0  0  0  0  0
   59.8556   25.0460   46.2922 H   0  0  0  0  0  0  0  0  0  0  0  0
   58.9197   25.9910   43.4289 H   0  0  0  0  0  0  0  0  0  0  0  0
   57.1588   26.1758   43.6764 H   0  0  0  0  0  0  0  0  0  0  0  0
   59.1690   28.3191   44.5708 H   0  0  0  0  0  0  0  0  0  0  0  0
   58.4731   28.3213   42.9334 H   0  0  0  0  0  0  0  0  0  0  0  0
   58.9498   31.6913   44.0081 H   0  0  0  0  0  0  0  0  0  0  0  0
   58.6866   30.3279   42.8685 H   0  0  0  0  0  0  0  0  0  0  0  0
   57.5618   31.7284   42.8685 H   0  0  0  0  0  0  0  0  0  0  0  0
   56.2251   28.5630   46.3510 H   0  0  0  0  0  0  0  0  0  0  0  0
   55.8646   27.1459   45.2202 H   0  0  0  0  0  0  0  0  0  0  0  0
   58.3621   27.6325   46.8047 H   0  0  0  0  0  0  0  0  0  0  0  0
   57.0749   26.3723   47.0590 H   0  0  0  0  0  0  0  0  0  0  0  0
   60.2101   28.6507   45.2336 H   0  0  0  0  0  0  0  0  0  0  0  0
   60.7781   30.4248   46.8564 H   0  0  0  0  0  0  0  0  0  0  0  0
   58.0162   32.7235   47.1187 H   0  0  0  0  0  0  0  0  0  0  0  0
  1  2  1  0
  2  3  1  0
  3  4  2  0
  4  5  1  0
  5  6  1  0
  6  7  1  0
  7  8  2  0
  8  9  1  0
  9 10  1  0
 10 11  2  0
 11 12  1  0
 12 13  2  0
 13 14  1  0
 14 15  2  0
 15 16  1  0
 16 17  1  0
 17 18  1  0
 18 19  1  0
 19 20  1  0
 20 21  1  0
 21 22  1  0
 21 23  2  0
 21 24  2  0
 20 25  1  0
 25 26  1  0
 15 27  1  0
 27 28  2  0
 10 29  1  0
  5 30  2  0
 30  2  1  0
 29  6  2  0
 28 12  1  0
 26 17  1  0
  1 31  1  0
  1 32  1  0
  1 33  1  0
  3 34  1  0
  7 35  1  0
  8 36  1  0
  9 37  1  0
 13 38  1  0
 14 39  1  0
 16 40  1  0
 16 41  1  0
 18 42  1  0
 18 43  1  0
 19 44  1  0
 19 45  1  0
 22 46  1  0
 22 47  1  0
 22 48  1  0
 25 49  1  0
 25 50  1  0
 26 51  1  0
 26 52  1  0
 27 53  1  0
 28 54  1  0
 30 55  1  0
M  END
>  <smiles>  (30) 
Cn1cnc(-c2cc[nH]c(=Nc3ccc(CN4CCN(S(C)(=O)=O)CC4)cc3)n2)c1

>  <score_type>  (30) 
oracle

>  <origin>  (30) 
adg

>  <m_score__min__energy>  (30) 
-8.9499999999999993

>  <m_primary>  (30) 
energy

$$$$
30:0
     RDKit          3D

 38 39  0  0  0  0  0  0  0  0999 V2000
   54.8390   24.2230   45.2460 C   0  0  0  0  0  0  0  0  0  0  0  0
   55.5980   24.7480   46.3320 O   0  0  0  0  0  0  0  0  0  0  0  0
   56.5940   25.7280   46.2030 C   0  0  0  0  0  0  0  0  0  0  0  0
   57.9300   25.3310   46.2970 C   0  0  0  0  0  0  0  0  0  0  0  0
   58.9590   26.2710   46.2010 C   0  0  0  0  0  0  0  0  0  0  0  0
   58.6630   27.6320   45.9970 C   0  0  0  0  0  0  0  0  0  0  0  0
   59.6710   28.6070   45.9080 O   0  0  0  0  0  0  0  0  0  0  0  0
   60.6700   28.6450   44.8940 C   0  0  0  0  0  0  0  0  0  0  0  0
   57.3250   28.0370   45.8740 C   0  0  0  0  0  0  0  0  0  0  0  0
   57.0370   29.4330   45.6970 N   0  0  0  0  0  0  0  0  0  0  0  0
   56.6100   30.0600   44.4820 C   0  0  0  0  0  0  0  0  0  0  0  0
   55.4910   29.7800   43.9730 O   0  0  0  0  0  0  0  0  0  0  0  0
   57.5220   31.0150   43.7800 C   0  0  0  0  0  0  0  0  0  0  0  0
   57.3870   32.6950   44.4900 S   0  0  0  0  0  0  0  0  0  0  0  0
   58.6240   32.4220   45.7650 C   0  0  0  0  0  0  0  0  0  0  0  0
   58.8590   31.2180   46.3200 N   0  0  0  0  0  0  0  0  0  0  0  0
   59.8580   31.4170   47.2000 C   0  0  0  0  0  0  0  0  0  0  0  0
   60.2230   32.7480   47.1600 C   0  0  0  0  0  0  0  0  0  0  0  0
   59.4380   33.3750   46.2630 N   0  0  0  0  0  0  0  0  0  0  0  0
   59.5420   34.7670   45.8400 C   0  0  0  0  0  0  0  0  0  0  0  0
   56.2940   27.0860   45.9920 C   0  0  0  0  0  0  0  0  0  0  0  0
   53.9938   23.6384   45.6382 H   0  0  0  0  0  0  0  0  0  0  0  0
   54.4578   25.0514   44.6308 H   0  0  0  0  0  0  0  0  0  0  0  0
   55.4796   23.5741   44.6308 H   0  0  0  0  0  0  0  0  0  0  0  0
   58.1739   24.2691   46.4479 H   0  0  0  0  0  0  0  0  0  0  0  0
   60.0064   25.9458   46.2853 H   0  0  0  0  0  0  0  0  0  0  0  0
   61.6652   28.6829   45.3610 H   0  0  0  0  0  0  0  0  0  0  0  0
   60.5924   27.7433   44.2688 H   0  0  0  0  0  0  0  0  0  0  0  0
   60.5241   29.5382   44.2688 H   0  0  0  0  0  0  0  0  0  0  0  0
   58.5592   30.6634   43.8833 H   0  0  0  0  0  0  0  0  0  0  0  0
   57.2331   31.0592   42.7195 H   0  0  0  0  0  0  0  0  0  0  0  0
   58.3810   30.3160   46.1020 H   0  0  0  0  0  0  0  0  0  0  0  0
   60.3086   30.6473   47.8438 H   0  0  0  0  0  0  0  0  0  0  0  0
   61.0186   33.2161   47.7582 H   0  0  0  0  0  0  0  0  0  0  0  0
   59.5906   35.4169   46.7262 H   0  0  0  0  0  0  0  0  0  0  0  0
   60.4526   34.9001   45.2374 H   0  0  0  0  0  0  0  0  0  0  0  0
   58.6613   35.0339   45.2374 H   0  0  0  0  0  0  0  0  0  0  0  0
   55.2446   27.4075   45.9186 H   0  0  0  0  0  0  0  0  0  0  0  0
  1  2  1  0
  2  3  1  0
  3  4  2  0
  4  5  1  0
  5  6  2  0
  6  7  1  0
  7  8  1  0
  6  9  1  0
  9 10  1  0
 10 11  1  0
 11 12  2  0
 11 13  1  0
 13 14  1  0
 14 15  1  0
 15 16  2  0
 16 17  1  0
 17 18  2  0
 18 19  1  0
 19 20  1  0
  9 21  2  0
 21  3  1  0
 19 15  1  0
  1 22  1  0
  1 23  1  0
  1 24  1  0
  4 25  1  0
  5 26  1  0
  8 27  1  0
  8 28  1  0
  8 29  1  0
 13 30  1  0
 13 31  1  0
 16 32  1  0
 17 33  1  0
 18 34  1  0
 20 35  1  0
 20 36  1  0
 20 37  1  0
 21 38  1  0
M  CHG  2  10  -1  16   1
M  END
>  <UniqueID>  (31) 
25

>  <SMILES>  (31) 
COc1ccc(OC)c([N-]C(=O)CSc2[nH+]ccn2C)c1

>  <Energy>  (31) 
63.69466073265837

>  <Genealogy>  (31) 
COc1ccc(OC)c([N-]C(=O)CSc2[nH+]ccn2C)c1 (protonated)
COc1ccc(OC)c([N-]C(=O)CSc2[nH+]ccn2C)c1 (3D coordinates assigned)
COc1ccc(OC)c([N-]C(=O)CSc2[nH+]ccn2C)c1 (optimized conformer: 63.69466073265837 kcal/mol)

>  <smiles>  (31) 
COc1ccc(OC)c(NC(=O)CSc2nccn2C)c1

>  <score_type>  (31) 
oracle

>  <origin>  (31) 
adg

>  <m_score__min__energy>  (31) 
-5.7699999999999996

>  <m_primary>  (31) 
energy

$$$$
31:0
     RDKit          3D

 47 49  0  0  0  0  0  0  0  0999 V2000
   57.4150   34.2390   44.8630 C   0  0  0  0  0  0  0  0  0  0  0  0
   57.1370   33.7190   46.2690 C   0  0  0  0  0  0  0  0  0  0  0  0
   58.3680   33.2040   46.8840 N   0  0  0  0  0  0  0  0  0  0  0  0
   59.4030   34.1310   47.3580 C   0  0  0  0  0  0  0  0  0  0  0  0
   60.5860   34.1720   46.3940 C   0  0  0  0  0  0  0  0  0  0  0  0
   58.5650   31.7850   47.0280 C   0  0  0  0  0  0  0  0  0  0  0  0
   59.2610   31.2600   48.1300 C   0  0  0  0  0  0  0  0  0  0  0  0
   59.4330   29.8620   48.2290 C   0  0  0  0  0  0  0  0  0  0  0  0
   60.1680   29.2760   49.3900 C   0  0  0  0  0  0  0  0  0  0  0  0
   58.9170   29.0390   47.2700 N   0  0  0  0  0  0  0  0  0  0  0  0
   58.2580   29.5860   46.2190 C   0  0  0  0  0  0  0  0  0  0  0  0
   57.6220   28.9410   45.1800 C   0  0  0  0  0  0  0  0  0  0  0  0
   57.5430   27.4850   44.9320 C   0  0  0  0  0  0  0  0  0  0  0  0
   57.8500   26.9700   43.6620 C   0  0  0  0  0  0  0  0  0  0  0  0
   57.7660   25.5980   43.4180 C   0  0  0  0  0  0  0  0  0  0  0  0
   57.3880   24.7240   44.4410 C   0  0  0  0  0  0  0  0  0  0  0  0
   57.1090   25.2150   45.7270 C   0  0  0  0  0  0  0  0  0  0  0  0
   56.6690   24.2870   46.8310 C   0  0  0  0  0  0  0  0  0  0  0  0
   57.2880   23.0530   46.7190 F   0  0  0  0  0  0  0  0  0  0  0  0
   56.9900   24.8230   48.0670 F   0  0  0  0  0  0  0  0  0  0  0  0
   55.2980   24.1110   46.7580 F   0  0  0  0  0  0  0  0  0  0  0  0
   57.1730   26.6010   45.9590 C   0  0  0  0  0  0  0  0  0  0  0  0
   57.0720   29.9980   44.4430 C   0  0  0  0  0  0  0  0  0  0  0  0
   56.2740   29.8950   43.1840 C   0  0  0  0  0  0  0  0  0  0  0  0
   57.3580   31.1820   45.0380 N   0  0  0  0  0  0  0  0  0  0  0  0
   58.0850   30.9080   46.1080 N   0  0  0  0  0  0  0  0  0  0  0  0
   57.9328   35.2075   44.9260 H   0  0  0  0  0  0  0  0  0  0  0  0
   58.0485   33.5189   44.3243 H   0  0  0  0  0  0  0  0  0  0  0  0
   56.4643   34.3658   44.3243 H   0  0  0  0  0  0  0  0  0  0  0  0
   56.7408   34.5391   46.8857 H   0  0  0  0  0  0  0  0  0  0  0  0
   56.4039   32.9013   46.2056 H   0  0  0  0  0  0  0  0  0  0  0  0
   58.9717   35.1395   47.4407 H   0  0  0  0  0  0  0  0  0  0  0  0
   59.7621   33.7830   48.3378 H   0  0  0  0  0  0  0  0  0  0  0  0
   61.5246   34.2045   46.9666 H   0  0  0  0  0  0  0  0  0  0  0  0
   60.5740   33.2729   45.7604 H   0  0  0  0  0  0  0  0  0  0  0  0
   60.5118   35.0681   45.7604 H   0  0  0  0  0  0  0  0  0  0  0  0
   59.6659   31.9283   48.9042 H   0  0  0  0  0  0  0  0  0  0  0  0
   59.7182   29.6346   50.3276 H   0  0  0  0  0  0  0  0  0  0  0  0
   60.1036   28.1787   49.3487 H   0  0  0  0  0  0  0  0  0  0  0  0
   61.2234   29.5832   49.3487 H   0  0  0  0  0  0  0  0  0  0  0  0
   58.1583   27.6513   42.8553 H   0  0  0  0  0  0  0  0  0  0  0  0
   57.9980   25.2037   42.4177 H   0  0  0  0  0  0  0  0  0  0  0  0
   57.3086   23.6458   44.2379 H   0  0  0  0  0  0  0  0  0  0  0  0
   56.9305   26.9971   46.9562 H   0  0  0  0  0  0  0  0  0  0  0  0
   55.2115   29.7579   43.4335 H   0  0  0  0  0  0  0  0  0  0  0  0
   56.3965   30.8164   42.5958 H   0  0  0  0  0  0  0  0  0  0  0  0
   56.6265   29.0349   42.5958 H   0  0  0  0  0  0  0  0  0  0  0  0
  1  2  1  0
  2  3  1  0
  3  4  1  0
  4  5  1  0
  3  6  1  0
  6  7  2  0
  7  8  1  0
  8  9  1  0
  8 10  2  0
 10 11  1  0
 11 12  2  0
 12 13  1  0
 13 14  2  0
 14 15  1  0
 15 16  2  0
 16 17  1  0
 17 18  1  0
 18 19  1  0
 18 20  1  0
 18 21  1  0
 17 22  2  0
 12 23  1  0
 23 24  1  0
 23 25  2  0
 25 26  1  0
 26  6  1  0
 26 11  1  0
 22 13  1  0
  1 27  1  0
  1 28  1  0
  1 29  1  0
  2 30  1  0
  2 31  1  0
  4 32  1  0
  4 33  1  0
  5 34  1  0
  5 35  1  0
  5 36  1  0
  7 37  1  0
  9 38  1  0
  9 39  1  0
  9 40  1  0
 14 41  1  0
 15 42  1  0
 16 43  1  0
 22 44  1  0
 24 45  1  0
 24 46  1  0
 24 47  1  0
M  END
>  <UniqueID>  (32) 
26

>  <SMILES>  (32) 
CCN(CC)c1cc(C)nc2c(-c3cccc(C(F)(F)F)c3)c(C)nn12

>  <Energy>  (32) 
86.44252817827977

>  <Genealogy>  (32) 
CCN(CC)c1cc(C)nc2c(-c3cccc(C(F)(F)F)c3)c(C)nn12 (3D coordinates assigned)
CCN(CC)c1cc(C)nc2c(-c3cccc(C(F)(F)F)c3)c(C)nn12 (optimized conformer: 86.44252817827977 kcal/mol)

>  <smiles>  (32) 
CCN(CC)c1cc(C)nc2c(-c3cccc(C(F)(F)F)c3)c(C)nn12

>  <score_type>  (32) 
oracle

>  <origin>  (32) 
adg

>  <m_score__min__energy>  (32) 
-7.0700000000000003

>  <m_primary>  (32) 
energy

$$$$
32:0
     RDKit          3D

 37 39  0  0  0  0  0  0  0  0999 V2000
   59.5842   35.9396   44.1817 H   0  0  0  0  0  0  0  0  0  0  0  0
   59.2750   35.1930   44.9280 C   0  0  0  0  0  0  0  0  0  0  0  0
   59.8520   35.1860   46.1560 N   0  0  0  0  0  0  0  0  0  0  0  0
   59.5020   34.2780   47.1060 C   0  0  0  0  0  0  0  0  0  0  0  0
   60.1320   34.3010   48.3550 C   0  0  0  0  0  0  0  0  0  0  0  0
   60.9044   35.0552   48.5665 H   0  0  0  0  0  0  0  0  0  0  0  0
   59.7820   33.3680   49.3340 C   0  0  0  0  0  0  0  0  0  0  0  0
   60.2799   33.3890   50.3146 H   0  0  0  0  0  0  0  0  0  0  0  0
   58.8010   32.4080   49.0710 C   0  0  0  0  0  0  0  0  0  0  0  0
   58.5288   31.6759   49.8456 H   0  0  0  0  0  0  0  0  0  0  0  0
   58.1640   32.3750   47.8260 C   0  0  0  0  0  0  0  0  0  0  0  0
   57.3931   31.6167   47.6243 H   0  0  0  0  0  0  0  0  0  0  0  0
   58.5070   33.3100   46.8300 C   0  0  0  0  0  0  0  0  0  0  0  0
   57.8780   33.3190   45.5690 C   0  0  0  0  0  0  0  0  0  0  0  0
   56.9030   32.3170   45.2370 N   0  0  0  0  0  0  0  0  0  0  0  0
   57.1520   31.0940   44.8710 C   0  0  0  0  0  0  0  0  0  0  0  0
   56.6120   30.4390   43.4290 S   0  0  0  0  0  0  0  0  0  0  0  0
   57.3600   28.9560   43.6990 C   0  0  0  0  0  0  0  0  0  0  0  0
   57.3240   28.0870   43.0256 H   0  0  0  0  0  0  0  0  0  0  0  0
   58.0370   29.0130   44.9260 C   0  0  0  0  0  0  0  0  0  0  0  0
   58.8650   27.8720   45.5210 C   0  0  0  0  0  0  0  0  0  0  0  0
   60.3600   28.1510   45.2710 C   0  0  0  0  0  0  0  0  0  0  0  0
   60.8810   28.2482   46.2349 H   0  0  0  0  0  0  0  0  0  0  0  0
   60.7978   27.3190   44.6998 H   0  0  0  0  0  0  0  0  0  0  0  0
   60.4682   29.0848   44.6998 H   0  0  0  0  0  0  0  0  0  0  0  0
   58.6030   27.7930   47.0390 C   0  0  0  0  0  0  0  0  0  0  0  0
   59.5179   28.0689   47.5838 H   0  0  0  0  0  0  0  0  0  0  0  0
   57.7928   28.4868   47.3079 H   0  0  0  0  0  0  0  0  0  0  0  0
   58.3114   26.7670   47.3079 H   0  0  0  0  0  0  0  0  0  0  0  0
   58.5110   26.5040   44.8950 C   0  0  0  0  0  0  0  0  0  0  0  0
   58.3218   25.7728   45.6947 H   0  0  0  0  0  0  0  0  0  0  0  0
   57.6101   26.6078   44.2724 H   0  0  0  0  0  0  0  0  0  0  0  0
   59.3491   26.1578   44.2724 H   0  0  0  0  0  0  0  0  0  0  0  0
   57.9170   30.2160   45.5630 N   0  0  0  0  0  0  0  0  0  0  0  0
   58.4020   30.4390   46.4580 H   0  0  0  0  0  0  0  0  0  0  0  0
   58.2910   34.2570   44.6080 C   0  0  0  0  0  0  0  0  0  0  0  0
   57.8393   34.2535   43.6050 H   0  0  0  0  0  0  0  0  0  0  0  0
  1  2  1  0
  2  3  2  0
  3  4  1  0
  4  5  2  0
  5  6  1  0
  5  7  1  0
  7  8  1  0
  7  9  2  0
  9 10  1  0
  9 11  1  0
 11 12  1  0
 11 13  2  0
 13 14  1  0
 14 15  1  0
 15 16  2  0
 16 17  1  0
 17 18  1  0
 18 19  1  0
 18 20  2  0
 20 21  1  0
 21 22  1  0
 22 23  1  0
 22 24  1  0
 22 25  1  0
 21 26  1  0
 26 27  1  0
 26 28  1  0
 26 29  1  0
 21 30  1  0
 30 31  1  0
 30 32  1  0
 30 33  1  0
 20 34  1  0
 34 35  1  0
 14 36  2  0
 36 37  1  0
 36  2  1  0
 13  4  1  0
 34 16  1  0
M  END
>  <UniqueID>  (33) 
27

>  <SMILES>  (33) 
CC(C)(C)c1cs/c(=N/c2ccnc3ccccc23)[nH]1

>  <Energy>  (33) 
77.89072856699725

>  <Genealogy>  (33) 
CC(C)(C)c1cs/c(=N/c2ccnc3ccccc23)[nH]1 (cis-trans isomerization)
CC(C)(C)c1cs/c(=N/c2ccnc3ccccc23)[nH]1 (3D coordinates assigned)
CC(C)(C)c1cs/c(=N/c2ccnc3ccccc23)[nH]1 (optimized conformer: 77.89072856699725 kcal/mol)

>  <smiles>  (33) 
CC(C)(C)c1csc(=Nc2ccnc3ccccc23)[nH]1

>  <score_type>  (33) 
oracle

>  <origin>  (33) 
adg

>  <m_score__min__energy>  (33) 
-7.8099999999999996

>  <m_primary>  (33) 
energy

$$$$
33:0
     RDKit          3D

 51 54  0  0  0  0  0  0  0  0999 V2000
   56.7189   26.4253   44.7281 H   0  0  0  0  0  0  0  0  0  0  0  0
   57.5880   27.0410   45.0030 C   0  0  0  0  0  0  0  0  0  0  0  0
   58.2380   26.7620   46.3030 C   0  0  0  0  0  0  0  0  0  0  0  0
   57.6100   26.1300   47.1930 O   0  0  0  0  0  0  0  0  0  0  0  0
   59.5210   27.3140   46.6330 N   0  0  0  0  0  0  0  0  0  0  0  0
   59.7650   28.2810   47.4700 C   0  0  0  0  0  0  0  0  0  0  0  0
   60.7960   29.1320   47.2950 N   0  0  0  0  0  0  0  0  0  0  0  0
   60.8400   30.0900   48.2630 C   0  0  0  0  0  0  0  0  0  0  0  0
   61.8780   31.1510   48.2730 C   0  0  0  0  0  0  0  0  0  0  0  0
   62.0830   31.9270   47.1170 C   0  0  0  0  0  0  0  0  0  0  0  0
   61.4635   31.7497   46.2255 H   0  0  0  0  0  0  0  0  0  0  0  0
   63.0650   32.9200   47.0900 C   0  0  0  0  0  0  0  0  0  0  0  0
   63.2153   33.5191   46.1798 H   0  0  0  0  0  0  0  0  0  0  0  0
   63.8550   33.1530   48.2150 C   0  0  0  0  0  0  0  0  0  0  0  0
   64.6308   33.9325   48.1902 H   0  0  0  0  0  0  0  0  0  0  0  0
   63.6620   32.3980   49.3720 C   0  0  0  0  0  0  0  0  0  0  0  0
   64.2850   32.5886   50.2583 H   0  0  0  0  0  0  0  0  0  0  0  0
   62.6810   31.3990   49.4140 C   0  0  0  0  0  0  0  0  0  0  0  0
   62.4540   30.5400   50.9340 Cl  0  0  0  0  0  0  0  0  0  0  0  0
   59.8150   30.0120   49.2080 C   0  0  0  0  0  0  0  0  0  0  0  0
   59.6696   30.6925   50.0599 H   0  0  0  0  0  0  0  0  0  0  0  0
   58.8410   28.6970   48.8180 S   0  0  0  0  0  0  0  0  0  0  0  0
   57.9760   27.9860   44.1340 C   0  0  0  0  0  0  0  0  0  0  0  0
   58.2813   27.6559   43.1301 H   0  0  0  0  0  0  0  0  0  0  0  0
   58.0260   29.4360   44.4180 C   0  0  0  0  0  0  0  0  0  0  0  0
   56.8940   30.2240   44.1550 C   0  0  0  0  0  0  0  0  0  0  0  0
   55.9990   29.7650   43.7098 H   0  0  0  0  0  0  0  0  0  0  0  0
   56.8990   31.5880   44.4560 C   0  0  0  0  0  0  0  0  0  0  0  0
   56.0121   32.2004   44.2361 H   0  0  0  0  0  0  0  0  0  0  0  0
   58.0290   32.1800   45.0370 C   0  0  0  0  0  0  0  0  0  0  0  0
   58.0140   33.8960   45.4380 S   0  0  0  0  0  0  0  0  0  0  0  0
   56.6150   34.4200   45.2720 O   0  0  0  0  0  0  0  0  0  0  0  0
   58.9190   34.6450   44.4980 O   0  0  0  0  0  0  0  0  0  0  0  0
   58.5350   34.1210   47.0880 N   0  0  0  0  0  0  0  0  0  0  0  0
   58.2150   32.9230   47.8860 C   0  0  0  0  0  0  0  0  0  0  0  0
   57.1283   32.8806   48.0514 H   0  0  0  0  0  0  0  0  0  0  0  0
   58.5558   32.0337   47.3355 H   0  0  0  0  0  0  0  0  0  0  0  0
   58.9320   32.9610   49.2510 C   0  0  0  0  0  0  0  0  0  0  0  0
   58.2190   32.6801   50.0401 H   0  0  0  0  0  0  0  0  0  0  0  0
   59.7747   32.2545   49.2248 H   0  0  0  0  0  0  0  0  0  0  0  0
   59.4350   34.2530   49.5210 O   0  0  0  0  0  0  0  0  0  0  0  0
   60.4460   34.5800   48.5840 C   0  0  0  0  0  0  0  0  0  0  0  0
   60.7329   35.6323   48.7265 H   0  0  0  0  0  0  0  0  0  0  0  0
   61.2960   33.9038   48.7577 H   0  0  0  0  0  0  0  0  0  0  0  0
   59.9800   34.3860   47.1240 C   0  0  0  0  0  0  0  0  0  0  0  0
   60.1975   35.2976   46.5481 H   0  0  0  0  0  0  0  0  0  0  0  0
   60.5147   33.5307   46.6852 H   0  0  0  0  0  0  0  0  0  0  0  0
   59.1470   31.3900   45.3350 C   0  0  0  0  0  0  0  0  0  0  0  0
   60.0304   31.8454   45.8064 H   0  0  0  0  0  0  0  0  0  0  0  0
   59.1430   30.0250   45.0350 C   0  0  0  0  0  0  0  0  0  0  0  0
   60.0192   29.4080   45.2832 H   0  0  0  0  0  0  0  0  0  0  0  0
  1  2  1  0
  2  3  1  0
  3  4  2  0
  3  5  1  0
  5  6  2  0
  6  7  1  0
  7  8  1  0
  8  9  1  0
  9 10  2  0
 10 11  1  0
 10 12  1  0
 12 13  1  0
 12 14  2  0
 14 15  1  0
 14 16  1  0
 16 17  1  0
 16 18  2  0
 18 19  1  0
  8 20  2  0
 20 21  1  0
 20 22  1  0
  2 23  2  0
 23 24  1  0
 23 25  1  0
 25 26  2  0
 26 27  1  0
 26 28  1  0
 28 29  1  0
 28 30  2  0
 30 31  1  0
 31 32  2  0
 31 33  2  0
 31 34  1  0
 34 35  1  0
 35 36  1  0
 35 37  1  0
 35 38  1  0
 38 39  1  0
 38 40  1  0
 38 41  1  0
 41 42  1  0
 42 43  1  0
 42 44  1  0
 42 45  1  0
 45 46  1  0
 45 47  1  0
 30 48  1  0
 48 49  1  0
 48 50  2  0
 50 51  1  0
 22  6  1  0
 50 25  1  0
 18  9  1  0
 45 34  1  0
M  CHG  1   7  -1
M  END
>  <UniqueID>  (34) 
28

>  <SMILES>  (34) 
O=C(/C=C\c1ccc(S(=O)(=O)N2CCOCC2)cc1)/N=c1/[n-]c(-c2ccccc2Cl)cs1

>  <Energy>  (34) 
110.42646458278921

>  <Genealogy>  (34) 
O=C(C=Cc1ccc(S(=O)(=O)N2CCOCC2)cc1)N=c1[n-]c(-c2ccccc2Cl)cs1 (protonated)
O=C(/C=C\c1ccc(S(=O)(=O)N2CCOCC2)cc1)/N=c1/[n-]c(-c2ccccc2Cl)cs1 (cis-trans isomerization)
O=C(/C=C\c1ccc(S(=O)(=O)N2CCOCC2)cc1)/N=c1/[n-]c(-c2ccccc2Cl)cs1 (3D coordinates assigned)
O=C(/C=C\c1ccc(S(=O)(=O)N2CCOCC2)cc1)/N=c1/[n-]c(-c2ccccc2Cl)cs1 (nonaromatic ring conformer: 110.42646458278921 kcal/mol)

>  <smiles>  (34) 
O=C(C=Cc1ccc(S(=O)(=O)N2CCOCC2)cc1)N=c1[nH]c(-c2ccccc2Cl)cs1

>  <score_type>  (34) 
oracle

>  <origin>  (34) 
adg

>  <m_score__min__energy>  (34) 
-12.75

>  <m_primary>  (34) 
energy

$$$$
34:0
     RDKit          3D

 57 60  0  0  0  0  0  0  0  0999 V2000
   66.5270   32.8500   50.1270 C   0  0  0  0  0  0  0  0  0  0  0  0
   65.2250   33.4390   50.4650 N   0  0  0  0  0  0  0  0  0  0  0  0
   65.1250   34.3180   51.6360 C   0  0  0  0  0  0  0  0  0  0  0  0
   64.0540   33.1520   49.6580 C   0  0  0  0  0  0  0  0  0  0  0  0
   64.0940   32.1620   48.6540 C   0  0  0  0  0  0  0  0  0  0  0  0
   62.9660   31.8850   47.8770 C   0  0  0  0  0  0  0  0  0  0  0  0
   61.7670   32.5890   48.0790 C   0  0  0  0  0  0  0  0  0  0  0  0
   60.5680   32.3030   47.2590 C   0  0  0  0  0  0  0  0  0  0  0  0
   59.9920   31.0820   47.1810 N   0  0  0  0  0  0  0  0  0  0  0  0
   58.9040   31.0700   46.3630 C   0  0  0  0  0  0  0  0  0  0  0  0
   58.1220   29.8430   46.1280 C   0  0  0  0  0  0  0  0  0  0  0  0
   57.0260   29.9130   45.5070 O   0  0  0  0  0  0  0  0  0  0  0  0
   58.5860   28.5820   46.6380 N   0  0  0  0  0  0  0  0  0  0  0  0
   58.0500   27.3100   46.2360 C   0  0  0  0  0  0  0  0  0  0  0  0
   56.6780   27.1930   45.9720 C   0  0  0  0  0  0  0  0  0  0  0  0
   56.1310   25.9630   45.6020 C   0  0  0  0  0  0  0  0  0  0  0  0
   56.9410   24.8180   45.5020 C   0  0  0  0  0  0  0  0  0  0  0  0
   56.3650   23.5540   45.1020 N   0  0  0  0  0  0  0  0  0  0  0  0
   55.5310   23.4930   43.8860 C   0  0  0  0  0  0  0  0  0  0  0  0
   56.2950   23.0000   42.6460 C   0  0  0  0  0  0  0  0  0  0  0  0
   56.7110   21.5170   42.7300 C   0  0  0  0  0  0  0  0  0  0  0  0
   56.2630   20.8260   43.9500 N   0  0  0  0  0  0  0  0  0  0  0  0
   57.0670   21.1350   45.1440 C   0  0  0  0  0  0  0  0  0  0  0  0
   56.5630   22.3630   45.9460 C   0  0  0  0  0  0  0  0  0  0  0  0
   58.3130   24.9290   45.7960 C   0  0  0  0  0  0  0  0  0  0  0  0
   59.1200   23.8400   45.7770 F   0  0  0  0  0  0  0  0  0  0  0  0
   58.8600   26.1630   46.1630 C   0  0  0  0  0  0  0  0  0  0  0  0
   58.6020   32.2940   45.7700 C   0  0  0  0  0  0  0  0  0  0  0  0
   59.7370   33.4130   46.3030 S   0  0  0  0  0  0  0  0  0  0  0  0
   61.7220   33.5770   49.0760 C   0  0  0  0  0  0  0  0  0  0  0  0
   62.8480   33.8540   49.8550 C   0  0  0  0  0  0  0  0  0  0  0  0
   67.0696   32.6045   51.0518 H   0  0  0  0  0  0  0  0  0  0  0  0
   66.3732   31.9338   49.5380 H   0  0  0  0  0  0  0  0  0  0  0  0
   67.1135   33.5704   49.5380 H   0  0  0  0  0  0  0  0  0  0  0  0
   65.1936   33.7154   52.5537 H   0  0  0  0  0  0  0  0  0  0  0  0
   65.9456   35.0502   51.6160 H   0  0  0  0  0  0  0  0  0  0  0  0
   64.1609   34.8472   51.6160 H   0  0  0  0  0  0  0  0  0  0  0  0
   65.0243   31.6013   48.4806 H   0  0  0  0  0  0  0  0  0  0  0  0
   63.0173   31.1083   47.0997 H   0  0  0  0  0  0  0  0  0  0  0  0
   59.2900   28.5920   47.4100 H   0  0  0  0  0  0  0  0  0  0  0  0
   56.0281   28.0764   46.0570 H   0  0  0  0  0  0  0  0  0  0  0  0
   55.0549   25.8888   45.3864 H   0  0  0  0  0  0  0  0  0  0  0  0
   54.6910   22.8079   44.0733 H   0  0  0  0  0  0  0  0  0  0  0  0
   55.1922   24.5175   43.6727 H   0  0  0  0  0  0  0  0  0  0  0  0
   55.6503   23.1315   41.7645 H   0  0  0  0  0  0  0  0  0  0  0  0
   57.2194   23.5924   42.5783 H   0  0  0  0  0  0  0  0  0  0  0  0
   56.2867   20.9914   41.8619 H   0  0  0  0  0  0  0  0  0  0  0  0
   57.8107   21.5008   42.7470 H   0  0  0  0  0  0  0  0  0  0  0  0
   55.2440   20.9930   44.1200 H   0  0  0  0  0  0  0  0  0  0  0  0
   57.0505   20.2582   45.8080 H   0  0  0  0  0  0  0  0  0  0  0  0
   58.0791   21.3808   44.7901 H   0  0  0  0  0  0  0  0  0  0  0  0
   55.6043   22.1043   46.4192 H   0  0  0  0  0  0  0  0  0  0  0  0
   57.3328   22.6100   46.6919 H   0  0  0  0  0  0  0  0  0  0  0  0
   59.9324   26.2367   46.3964 H   0  0  0  0  0  0  0  0  0  0  0  0
   57.7705   32.4923   45.0777 H   0  0  0  0  0  0  0  0  0  0  0  0
   60.7911   34.1382   49.2452 H   0  0  0  0  0  0  0  0  0  0  0  0
   62.7926   34.6303   50.6324 H   0  0  0  0  0  0  0  0  0  0  0  0
  1  2  1  0
  2  3  1  0
  2  4  1  0
  4  5  2  0
  5  6  1  0
  6  7  2  0
  7  8  1  0
  8  9  2  0
  9 10  1  0
 10 11  1  0
 11 12  2  0
 11 13  1  0
 13 14  1  0
 14 15  2  0
 15 16  1  0
 16 17  2  0
 17 18  1  0
 18 19  1  0
 19 20  1  0
 20 21  1  0
 21 22  1  0
 22 23  1  0
 23 24  1  0
 17 25  1  0
 25 26  1  0
 25 27  2  0
 10 28  2  0
 28 29  1  0
  7 30  1  0
 30 31  2  0
 31  4  1  0
 29  8  1  0
 27 14  1  0
 24 18  1  0
  1 32  1  0
  1 33  1  0
  1 34  1  0
  3 35  1  0
  3 36  1  0
  3 37  1  0
  5 38  1  0
  6 39  1  0
 13 40  1  0
 15 41  1  0
 16 42  1  0
 19 43  1  0
 19 44  1  0
 20 45  1  0
 20 46  1  0
 21 47  1  0
 21 48  1  0
 22 49  1  0
 23 50  1  0
 23 51  1  0
 24 52  1  0
 24 53  1  0
 27 54  1  0
 28 55  1  0
 30 56  1  0
 31 57  1  0
M  END
>  <UniqueID>  (35) 
29

>  <SMILES>  (35) 
CN(C)c1ccc(-c2nc(C(=O)Nc3ccc(N4CCCNCC4)c(F)c3)cs2)cc1

>  <Energy>  (35) 
108.19121480645805

>  <Genealogy>  (35) 
CN(C)c1ccc(-c2nc(C(=O)Nc3ccc(N4CCCNCC4)c(F)c3)cs2)cc1 (3D coordinates assigned)
CN(C)c1ccc(-c2nc(C(=O)Nc3ccc(N4CCCNCC4)c(F)c3)cs2)cc1 (nonaromatic ring conformer: 108.19121480645805 kcal/mol)

>  <smiles>  (35) 
CN(C)c1ccc(-c2nc(C(=O)Nc3ccc(N4CCCNCC4)c(F)c3)cs2)cc1

>  <score_type>  (35) 
oracle

>  <origin>  (35) 
adg

>  <m_score__min__energy>  (35) 
-6.6299999999999999

>  <m_primary>  (35) 
energy

$$$$
35:0
     RDKit          3D

 49 51  0  0  0  0  0  0  0  0999 V2000
   54.5410   25.0120   45.6220 C   0  0  0  0  0  0  0  0  0  0  0  0
   55.0070   26.3060   45.9880 O   0  0  0  0  0  0  0  0  0  0  0  0
   56.3470   26.7180   45.9220 C   0  0  0  0  0  0  0  0  0  0  0  0
   57.4020   25.9000   46.3740 C   0  0  0  0  0  0  0  0  0  0  0  0
   58.7220   26.3480   46.3050 C   0  0  0  0  0  0  0  0  0  0  0  0
   59.0150   27.6060   45.7610 C   0  0  0  0  0  0  0  0  0  0  0  0
   60.4360   28.1200   45.7520 C   0  0  0  0  0  0  0  0  0  0  0  0
   60.4890   29.5850   45.5980 N   0  0  0  0  0  0  0  0  0  0  0  0
   60.1290   30.2560   46.8250 C   0  0  0  0  0  0  0  0  0  0  0  0
   60.4050   29.6640   48.0660 C   0  0  0  0  0  0  0  0  0  0  0  0
   59.9700   30.2620   49.2510 C   0  0  0  0  0  0  0  0  0  0  0  0
   59.2410   31.4750   49.2340 C   0  0  0  0  0  0  0  0  0  0  0  0
   58.7620   32.0870   50.4720 N   0  0  0  0  0  0  0  0  0  0  0  0
   59.3180   33.3890   50.8970 C   0  0  0  0  0  0  0  0  0  0  0  0
   58.7930   33.8630   52.2560 C   0  0  0  0  0  0  0  0  0  0  0  0
   57.4270   33.5580   52.4000 O   0  0  0  0  0  0  0  0  0  0  0  0
   57.2950   32.1640   52.5200 C   0  0  0  0  0  0  0  0  0  0  0  0
   57.6390   31.4610   51.2020 C   0  0  0  0  0  0  0  0  0  0  0  0
   58.9960   32.0720   47.9750 C   0  0  0  0  0  0  0  0  0  0  0  0
   59.4290   31.4690   46.7930 C   0  0  0  0  0  0  0  0  0  0  0  0
   57.9670   28.4190   45.3040 C   0  0  0  0  0  0  0  0  0  0  0  0
   56.6310   27.9870   45.3960 C   0  0  0  0  0  0  0  0  0  0  0  0
   55.5580   28.7960   44.9870 O   0  0  0  0  0  0  0  0  0  0  0  0
   55.6350   29.7720   43.9530 C   0  0  0  0  0  0  0  0  0  0  0  0
   54.3306   24.4277   46.5299 H   0  0  0  0  0  0  0  0  0  0  0  0
   53.6211   25.1084   45.0266 H   0  0  0  0  0  0  0  0  0  0  0  0
   55.3111   24.4998   45.0266 H   0  0  0  0  0  0  0  0  0  0  0  0
   57.1838   24.9027   46.7835 H   0  0  0  0  0  0  0  0  0  0  0  0
   59.5365   25.7105   46.6795 H   0  0  0  0  0  0  0  0  0  0  0  0
   60.9200   27.8443   46.7005 H   0  0  0  0  0  0  0  0  0  0  0  0
   60.9569   27.6678   44.8952 H   0  0  0  0  0  0  0  0  0  0  0  0
   61.4460   29.8730   45.2850 H   0  0  0  0  0  0  0  0  0  0  0  0
   59.8180   29.8670   44.8460 H   0  0  0  0  0  0  0  0  0  0  0  0
   60.9690   28.7205   48.1066 H   0  0  0  0  0  0  0  0  0  0  0  0
   60.1980   29.7819   50.2141 H   0  0  0  0  0  0  0  0  0  0  0  0
   60.4123   33.2967   50.9594 H   0  0  0  0  0  0  0  0  0  0  0  0
   59.0042   34.1340   50.1510 H   0  0  0  0  0  0  0  0  0  0  0  0
   59.3599   33.3634   53.0554 H   0  0  0  0  0  0  0  0  0  0  0  0
   58.9185   34.9539   52.3205 H   0  0  0  0  0  0  0  0  0  0  0  0
   57.9751   31.8052   53.3066 H   0  0  0  0  0  0  0  0  0  0  0  0
   56.2506   31.9330   52.7766 H   0  0  0  0  0  0  0  0  0  0  0  0
   57.9074   30.4177   51.4243 H   0  0  0  0  0  0  0  0  0  0  0  0
   56.7523   31.5366   50.5554 H   0  0  0  0  0  0  0  0  0  0  0  0
   58.4547   33.0284   47.9268 H   0  0  0  0  0  0  0  0  0  0  0  0
   59.2185   31.9510   45.8269 H   0  0  0  0  0  0  0  0  0  0  0  0
   58.1919   29.4041   44.8694 H   0  0  0  0  0  0  0  0  0  0  0  0
   55.7141   30.7741   44.3998 H   0  0  0  0  0  0  0  0  0  0  0  0
   56.5206   29.5773   43.3302 H   0  0  0  0  0  0  0  0  0  0  0  0
   54.7298   29.7186   43.3302 H   0  0  0  0  0  0  0  0  0  0  0  0
  1  2  1  0
  2  3  1  0
  3  4  2  0
  4  5  1  0
  5  6  2  0
  6  7  1  0
  7  8  1  0
  8  9  1  0
  9 10  2  0
 10 11  1  0
 11 12  2  0
 12 13  1  0
 13 14  1  0
 14 15  1  0
 15 16  1  0
 16 17  1  0
 17 18  1  0
 12 19  1  0
 19 20  2  0
  6 21  1  0
 21 22  2  0
 22 23  1  0
 23 24  1  0
 22  3  1  0
 20  9  1  0
 18 13  1  0
  1 25  1  0
  1 26  1  0
  1 27  1  0
  4 28  1  0
  5 29  1  0
  7 30  1  0
  7 31  1  0
  8 32  1  0
  8 33  1  0
 10 34  1  0
 11 35  1  0
 14 36  1  0
 14 37  1  0
 15 38  1  0
 15 39  1  0
 17 40  1  0
 17 41  1  0
 18 42  1  0
 18 43  1  0
 19 44  1  0
 20 45  1  0
 21 46  1  0
 24 47  1  0
 24 48  1  0
 24 49  1  0
M  CHG  1   8   1
M  END
>  <UniqueID>  (36) 
30

>  <SMILES>  (36) 
COc1ccc(C[NH2+]c2ccc(N3CCOCC3)cc2)cc1OC

>  <Energy>  (36) 
55.89617504765777

>  <Genealogy>  (36) 
COc1ccc(C[NH2+]c2ccc(N3CCOCC3)cc2)cc1OC (protonated)
COc1ccc(C[NH2+]c2ccc(N3CCOCC3)cc2)cc1OC (3D coordinates assigned)
COc1ccc(C[NH2+]c2ccc(N3CCOCC3)cc2)cc1OC (nonaromatic ring conformer: 55.89617504765777 kcal/mol)

>  <smiles>  (36) 
COc1ccc(CNc2ccc(N3CCOCC3)cc2)cc1OC

>  <score_type>  (36) 
oracle

>  <origin>  (36) 
adg

>  <m_score__min__energy>  (36) 
-6.1200000000000001

>  <m_primary>  (36) 
energy

$$$$
36:0
     RDKit          3D

 60 63  0  0  0  0  0  0  0  0999 V2000
   63.7470   32.5590   48.0560 N   0  0  0  0  0  0  0  0  0  0  0  0
   63.9170   33.3000   49.2670 C   0  0  0  0  0  0  0  0  0  0  0  0
   65.0760   33.4880   49.7260 O   0  0  0  0  0  0  0  0  0  0  0  0
   62.7240   33.8080   50.0220 C   0  0  0  0  0  0  0  0  0  0  0  0
   61.7170   34.4780   49.0790 C   0  0  0  0  0  0  0  0  0  0  0  0
   61.0300   33.4740   48.2370 N   0  0  0  0  0  0  0  0  0  0  0  0
   59.6110   33.3220   48.6390 C   0  0  0  0  0  0  0  0  0  0  0  0
   58.7730   32.6820   47.5290 C   0  0  0  0  0  0  0  0  0  0  0  0
   58.7140   33.6290   46.3140 C   0  0  0  0  0  0  0  0  0  0  0  0
   58.2460   32.9010   45.0740 C   0  0  0  0  0  0  0  0  0  0  0  0
   58.4490   33.4250   43.7860 C   0  0  0  0  0  0  0  0  0  0  0  0
   57.9910   32.7140   42.6750 C   0  0  0  0  0  0  0  0  0  0  0  0
   57.3510   31.4870   42.8480 C   0  0  0  0  0  0  0  0  0  0  0  0
   57.1910   30.9750   44.1420 C   0  0  0  0  0  0  0  0  0  0  0  0
   56.5050   29.6950   44.3750 C   0  0  0  0  0  0  0  0  0  0  0  0
   55.3500   29.7200   44.8770 O   0  0  0  0  0  0  0  0  0  0  0  0
   57.1470   28.4290   44.1150 N   0  0  0  0  0  0  0  0  0  0  0  0
   57.4120   27.9070   42.7830 C   0  0  0  0  0  0  0  0  0  0  0  0
   57.9610   26.5000   42.9830 C   0  0  0  0  0  0  0  0  0  0  0  0
   58.3520   26.3930   44.4530 C   0  0  0  0  0  0  0  0  0  0  0  0
   57.6390   27.5470   45.1690 C   0  0  1  0  0  0  0  0  0  0  0  0
   58.5780   28.2740   46.1140 C   0  0  0  0  0  0  0  0  0  0  0  0
   58.4350   28.1520   47.5090 C   0  0  0  0  0  0  0  0  0  0  0  0
   59.3100   28.8190   48.3700 C   0  0  0  0  0  0  0  0  0  0  0  0
   60.3290   29.6240   47.8510 C   0  0  0  0  0  0  0  0  0  0  0  0
   61.4240   30.4650   48.9340 Cl  0  0  0  0  0  0  0  0  0  0  0  0
   60.4640   29.7680   46.4670 C   0  0  0  0  0  0  0  0  0  0  0  0
   59.5950   29.0970   45.6010 C   0  0  0  0  0  0  0  0  0  0  0  0
   57.6240   31.6970   45.2100 N   0  0  0  0  0  0  0  0  0  0  0  0
   60.0470   34.3910   46.0950 C   0  0  0  0  0  0  0  0  0  0  0  0
   61.2420   33.7060   46.7830 C   0  0  0  0  0  0  0  0  0  0  0  0
   62.7920   32.3760   47.6730 H   0  0  0  0  0  0  0  0  0  0  0  0
   64.5770   32.1880   47.5420 H   0  0  0  0  0  0  0  0  0  0  0  0
   62.2341   32.9639   50.5295 H   0  0  0  0  0  0  0  0  0  0  0  0
   63.0662   34.5541   50.7543 H   0  0  0  0  0  0  0  0  0  0  0  0
   60.9686   35.0185   49.6771 H   0  0  0  0  0  0  0  0  0  0  0  0
   62.2607   35.1731   48.4223 H   0  0  0  0  0  0  0  0  0  0  0  0
   59.5606   32.6862   49.5352 H   0  0  0  0  0  0  0  0  0  0  0  0
   59.2032   34.3232   48.8423 H   0  0  0  0  0  0  0  0  0  0  0  0
   59.2313   31.7284   47.2279 H   0  0  0  0  0  0  0  0  0  0  0  0
   57.7536   32.4998   47.8999 H   0  0  0  0  0  0  0  0  0  0  0  0
   57.9625   34.4012   46.5351 H   0  0  0  0  0  0  0  0  0  0  0  0
   58.9646   34.3877   43.6541 H   0  0  0  0  0  0  0  0  0  0  0  0
   58.1349   33.1216   41.6635 H   0  0  0  0  0  0  0  0  0  0  0  0
   56.9761   30.9276   41.9782 H   0  0  0  0  0  0  0  0  0  0  0  0
   56.4836   27.8745   42.1939 H   0  0  0  0  0  0  0  0  0  0  0  0
   58.1241   28.5426   42.2362 H   0  0  0  0  0  0  0  0  0  0  0  0
   57.1909   25.7533   42.7393 H   0  0  0  0  0  0  0  0  0  0  0  0
   58.8239   26.3126   42.3271 H   0  0  0  0  0  0  0  0  0  0  0  0
   58.0244   25.4274   44.8657 H   0  0  0  0  0  0  0  0  0  0  0  0
   59.4426   26.4522   44.5836 H   0  0  0  0  0  0  0  0  0  0  0  0
   56.8126   27.1807   45.7958 H   0  0  0  0  0  0  0  0  0  0  0  0
   57.6297   27.5279   47.9236 H   0  0  0  0  0  0  0  0  0  0  0  0
   59.1971   28.7107   49.4588 H   0  0  0  0  0  0  0  0  0  0  0  0
   61.2567   30.4115   46.0578 H   0  0  0  0  0  0  0  0  0  0  0  0
   59.7080   29.2139   44.5131 H   0  0  0  0  0  0  0  0  0  0  0  0
   60.2473   34.4468   45.0148 H   0  0  0  0  0  0  0  0  0  0  0  0
   59.9355   35.3909   46.5398 H   0  0  0  0  0  0  0  0  0  0  0  0
   61.4155   32.7350   46.2962 H   0  0  0  0  0  0  0  0  0  0  0  0
   62.1056   34.3800   46.6831 H   0  0  0  0  0  0  0  0  0  0  0  0
  1  2  1  0
  2  3  2  0
  2  4  1  0
  4  5  1  0
  5  6  1  0
  6  7  1  0
  7  8  1  0
  8  9  1  0
  9 10  1  0
 10 11  2  0
 11 12  1  0
 12 13  2  0
 13 14  1  0
 14 15  1  0
 15 16  2  0
 15 17  1  0
 17 18  1  0
 18 19  1  0
 19 20  1  0
 20 21  1  0
 21 22  1  0
 22 23  2  0
 23 24  1  0
 24 25  2  0
 25 26  1  0
 25 27  1  0
 27 28  2  0
 14 29  2  0
  9 30  1  0
 30 31  1  0
 31  6  1  0
 29 10  1  0
 21 17  1  0
 28 22  1  0
  1 32  1  0
  1 33  1  0
  4 34  1  0
  4 35  1  0
  5 36  1  0
  5 37  1  0
  7 38  1  0
  7 39  1  0
  8 40  1  0
  8 41  1  0
  9 42  1  0
 11 43  1  0
 12 44  1  0
 13 45  1  0
 18 46  1  0
 18 47  1  0
 19 48  1  0
 19 49  1  0
 20 50  1  0
 20 51  1  0
 21 52  1  1
 23 53  1  0
 24 54  1  0
 27 55  1  0
 28 56  1  0
 30 57  1  0
 30 58  1  0
 31 59  1  0
 31 60  1  0
M  END
>  <UniqueID>  (37) 
31

>  <SMILES>  (37) 
NC(=O)CCN1CCC(c2cccc(C(=O)N3CCC[C@H]3c3ccc(Cl)cc3)n2)CC1

>  <Energy>  (37) 
74.71793487303329

>  <Genealogy>  (37) 
NC(=O)CCN1CCC(c2cccc(C(=O)N3CCC[C@H]3c3ccc(Cl)cc3)n2)CC1 (chirality)
NC(=O)CCN1CCC(c2cccc(C(=O)N3CCC[C@H]3c3ccc(Cl)cc3)n2)CC1 (3D coordinates assigned)
NC(=O)CCN1CCC(c2cccc(C(=O)N3CCC[C@H]3c3ccc(Cl)cc3)n2)CC1 (nonaromatic ring conformer: 74.71793487303329 kcal/mol)

>  <smiles>  (37) 
NC(=O)CCN1CCC(c2cccc(C(=O)N3CCCC3c3ccc(Cl)cc3)n2)CC1

>  <score_type>  (37) 
oracle

>  <origin>  (37) 
adg

>  <m_score__min__energy>  (37) 
-10.289999999999999

>  <m_primary>  (37) 
energy

$$$$
37:0
     RDKit          3D

 32 34  0  0  1  0  0  0  0  0999 V2000
   57.0340   30.4850   43.3360 C   0  0  0  0  0  0  0  0  0  0  0  0
   56.5580   31.1220   44.5080 O   0  0  0  0  0  0  0  0  0  0  0  0
   57.3930   31.9440   45.2260 C   0  0  0  0  0  0  0  0  0  0  0  0
   58.2300   31.5150   46.2380 C   0  0  0  0  0  0  0  0  0  0  0  0
   59.0550   32.3860   46.9330 C   0  0  0  0  0  0  0  0  0  0  0  0
   59.0330   33.7350   46.5940 C   0  0  0  0  0  0  0  0  0  0  0  0
   59.8970   34.5940   47.3350 N   0  0  0  0  0  0  0  0  0  0  0  0
   60.7100   34.1720   48.2150 C   0  0  0  0  0  0  0  0  0  0  0  0
   60.3370   34.0790   49.5360 C   0  0  0  0  0  0  0  0  0  0  0  0
   61.2680   33.6130   50.4390 C   0  0  0  0  0  0  0  0  0  0  0  0
   60.9440   33.4850   51.8680 C   0  0  0  0  0  0  0  0  0  0  0  0
   62.4970   33.2670   50.0060 N   0  0  0  0  0  0  0  0  0  0  0  0
   62.8410   33.3620   48.7220 C   0  0  0  0  0  0  0  0  0  0  0  0
   63.9790   33.0840   48.0620 N   0  0  0  0  0  0  0  0  0  0  0  0
   63.7850   33.3690   46.7490 C   0  0  0  0  0  0  0  0  0  0  0  0
   62.5210   33.8140   46.6580 N   0  0  0  0  0  0  0  0  0  0  0  0
   61.9460   33.8140   47.8330 N   0  0  0  0  0  0  0  0  0  0  0  0
   58.2080   34.2020   45.5860 C   0  0  0  0  0  0  0  0  0  0  0  0
   57.3990   33.3090   44.9130 C   0  0  0  0  0  0  0  0  0  0  0  0
   57.6709   29.6326   43.6149 H   0  0  0  0  0  0  0  0  0  0  0  0
   56.1809   30.1262   42.7414 H   0  0  0  0  0  0  0  0  0  0  0  0
   57.6198   31.2014   42.7414 H   0  0  0  0  0  0  0  0  0  0  0  0
   58.2423   30.4470   46.5011 H   0  0  0  0  0  0  0  0  0  0  0  0
   59.7124   32.0185   47.7347 H   0  0  0  0  0  0  0  0  0  0  0  0
   59.3267   34.3677   49.8615 H   0  0  0  0  0  0  0  0  0  0  0  0
   61.8003   33.8233   52.4699 H   0  0  0  0  0  0  0  0  0  0  0  0
   60.0647   34.1033   52.1014 H   0  0  0  0  0  0  0  0  0  0  0  0
   60.7247   32.4327   52.1014 H   0  0  0  0  0  0  0  0  0  0  0  0
   63.2460   32.9020   50.6640 H   0  0  0  0  0  0  0  0  0  0  0  0
   64.5114   33.2585   45.9304 H   0  0  0  0  0  0  0  0  0  0  0  0
   58.1971   35.2704   45.3246 H   0  0  0  0  0  0  0  0  0  0  0  0
   56.7429   33.6785   44.1111 H   0  0  0  0  0  0  0  0  0  0  0  0
  1  2  1  0
  2  3  1  0
  3  4  2  0
  4  5  1  0
  5  6  2  0
  6  7  1  0
  7  8  2  0
  8  9  1  0
  9 10  2  0
 10 11  1  0
 10 12  1  0
 12 13  1  0
 13 14  2  0
 14 15  1  0
 15 16  2  0
 16 17  1  0
  6 18  1  0
 18 19  2  0
 19  3  1  0
 17  8  1  0
 17 13  1  0
  1 20  1  0
  1 21  1  0
  1 22  1  0
  4 23  1  0
  5 24  1  0
  9 25  1  0
 11 26  1  0
 11 27  1  0
 11 28  1  0
 12 29  1  0
 15 30  1  0
 18 31  1  0
 19 32  1  0
M  END
>  <smiles>  (38) 
COc1ccc(N=c2cc(C)[nH]c3ncnn23)cc1

>  <score_type>  (38) 
oracle

>  <origin>  (38) 
adg

>  <m_score__min__energy>  (38) 
-6.4100000000000001

>  <m_primary>  (38) 
energy

$$$$
38:0
     RDKit          3D

 44 46  0  0  0  0  0  0  0  0999 V2000
   60.3870   30.4270   48.7950 C   0  0  0  0  0  0  0  0  0  0  0  0
   60.7310   31.8500   48.7980 N   0  0  0  0  0  0  0  0  0  0  0  0
   62.1110   32.2690   48.8640 C   0  0  0  0  0  0  0  0  0  0  0  0
   62.6800   33.0360   47.8280 C   0  0  0  0  0  0  0  0  0  0  0  0
   64.0140   33.4440   47.8990 C   0  0  0  0  0  0  0  0  0  0  0  0
   64.7980   33.0950   49.0000 C   0  0  0  0  0  0  0  0  0  0  0  0
   64.2470   32.3410   50.0370 C   0  0  0  0  0  0  0  0  0  0  0  0
   62.9110   31.9310   49.9740 C   0  0  0  0  0  0  0  0  0  0  0  0
   59.4510   33.0310   48.7220 S   0  0  0  0  0  0  0  0  0  0  0  0
   59.9500   34.3610   49.2140 O   0  0  0  0  0  0  0  0  0  0  0  0
   58.3260   32.5850   49.6130 O   0  0  0  0  0  0  0  0  0  0  0  0
   58.8750   33.2020   47.0670 C   0  0  0  0  0  0  0  0  0  0  0  0
   59.4730   34.1290   46.2030 C   0  0  0  0  0  0  0  0  0  0  0  0
   59.0210   34.2540   44.8880 C   0  0  0  0  0  0  0  0  0  0  0  0
   57.9730   33.4550   44.4250 C   0  0  0  0  0  0  0  0  0  0  0  0
   57.3590   32.5250   45.2850 C   0  0  0  0  0  0  0  0  0  0  0  0
   56.2750   31.6900   44.8590 N   0  0  0  0  0  0  0  0  0  0  0  0
   56.4360   30.0670   44.2690 S   0  0  0  0  0  0  0  0  0  0  0  0
   56.6980   30.1040   42.7900 O   0  0  0  0  0  0  0  0  0  0  0  0
   55.1540   29.3230   44.5210 O   0  0  0  0  0  0  0  0  0  0  0  0
   57.7860   29.2660   45.0670 C   0  0  0  0  0  0  0  0  0  0  0  0
   57.5450   28.2470   45.9990 C   0  0  0  0  0  0  0  0  0  0  0  0
   58.6150   27.6050   46.6300 C   0  0  0  0  0  0  0  0  0  0  0  0
   59.9290   27.9810   46.3360 C   0  0  0  0  0  0  0  0  0  0  0  0
   60.9650   27.3600   46.9510 F   0  0  0  0  0  0  0  0  0  0  0  0
   60.1740   29.0010   45.4110 C   0  0  0  0  0  0  0  0  0  0  0  0
   59.1060   29.6430   44.7780 C   0  0  0  0  0  0  0  0  0  0  0  0
   57.8190   32.4070   46.6030 C   0  0  0  0  0  0  0  0  0  0  0  0
   60.3003   30.0685   49.8313 H   0  0  0  0  0  0  0  0  0  0  0  0
   59.4281   30.2827   48.2757 H   0  0  0  0  0  0  0  0  0  0  0  0
   61.1741   29.8606   48.2757 H   0  0  0  0  0  0  0  0  0  0  0  0
   62.0692   33.3155   46.9569 H   0  0  0  0  0  0  0  0  0  0  0  0
   64.4482   34.0424   47.0845 H   0  0  0  0  0  0  0  0  0  0  0  0
   65.8495   33.4141   49.0502 H   0  0  0  0  0  0  0  0  0  0  0  0
   64.8644   32.0685   50.9056 H   0  0  0  0  0  0  0  0  0  0  0  0
   62.4817   31.3405   50.7968 H   0  0  0  0  0  0  0  0  0  0  0  0
   60.3001   34.7594   46.5615 H   0  0  0  0  0  0  0  0  0  0  0  0
   59.4920   34.9846   44.2139 H   0  0  0  0  0  0  0  0  0  0  0  0
   57.6266   33.5528   43.3856 H   0  0  0  0  0  0  0  0  0  0  0  0
   56.5118   27.9518   46.2345 H   0  0  0  0  0  0  0  0  0  0  0  0
   58.4227   26.8034   47.3583 H   0  0  0  0  0  0  0  0  0  0  0  0
   61.2079   29.2982   45.1815 H   0  0  0  0  0  0  0  0  0  0  0  0
   59.3009   30.4457   44.0516 H   0  0  0  0  0  0  0  0  0  0  0  0
   57.3456   31.6818   47.2813 H   0  0  0  0  0  0  0  0  0  0  0  0
  1  2  1  0
  2  3  1  0
  3  4  2  0
  4  5  1  0
  5  6  2  0
  6  7  1  0
  7  8  2  0
  2  9  1  0
  9 10  2  0
  9 11  2  0
  9 12  1  0
 12 13  2  0
 13 14  1  0
 14 15  2  0
 15 16  1  0
 16 17  1  0
 17 18  1  0
 18 19  2  0
 18 20  2  0
 18 21  1  0
 21 22  2  0
 22 23  1  0
 23 24  2  0
 24 25  1  0
 24 26  1  0
 26 27  2  0
 16 28  2  0
  8  3  1  0
 28 12  1  0
 27 21  1  0
  1 29  1  0
  1 30  1  0
  1 31  1  0
  4 32  1  0
  5 33  1  0
  6 34  1  0
  7 35  1  0
  8 36  1  0
 13 37  1  0
 14 38  1  0
 15 39  1  0
 22 40  1  0
 23 41  1  0
 26 42  1  0
 27 43  1  0
 28 44  1  0
M  CHG  1  17  -1
M  END
>  <UniqueID>  (39) 
32

>  <SMILES>  (39) 
CN(c1ccccc1)S(=O)(=O)c1cccc([N-]S(=O)(=O)c2ccc(F)cc2)c1

>  <Energy>  (39) 
53.85479379891017

>  <Genealogy>  (39) 
CN(c1ccccc1)S(=O)(=O)c1cccc([N-]S(=O)(=O)c2ccc(F)cc2)c1 (protonated)
CN(c1ccccc1)S(=O)(=O)c1cccc([N-]S(=O)(=O)c2ccc(F)cc2)c1 (3D coordinates assigned)
CN(c1ccccc1)S(=O)(=O)c1cccc([N-]S(=O)(=O)c2ccc(F)cc2)c1 (optimized conformer: 53.85479379891017 kcal/mol)

>  <smiles>  (39) 
CN(c1ccccc1)S(=O)(=O)c1cccc(NS(=O)(=O)c2ccc(F)cc2)c1

>  <score_type>  (39) 
oracle

>  <origin>  (39) 
adg

>  <m_score__min__energy>  (39) 
-12

>  <m_primary>  (39) 
energy

$$$$
39:0
     RDKit          3D

 44 46  0  0  0  0  0  0  0  0999 V2000
   56.3860   29.9850   42.8930 C   0  0  0  0  0  0  0  0  0  0  0  0
   55.4850   29.7160   44.0930 C   0  0  0  0  0  0  0  0  0  0  0  0
   56.2800   29.5680   45.3070 N   0  0  0  0  0  0  0  0  0  0  0  0
   57.5400   28.8860   45.3520 C   0  0  0  0  0  0  0  0  0  0  0  0
   57.8090   28.0100   44.4860 O   0  0  0  0  0  0  0  0  0  0  0  0
   58.5050   29.1900   46.4350 C   0  0  0  0  0  0  0  0  0  0  0  0
   58.9950   28.1350   47.2230 C   0  0  0  0  0  0  0  0  0  0  0  0
   59.9350   28.3590   48.1800 N   0  0  0  0  0  0  0  0  0  0  0  0
   60.4360   29.6000   48.4220 C   0  0  0  0  0  0  0  0  0  0  0  0
   61.4250   29.7420   49.4110 O   0  0  0  0  0  0  0  0  0  0  0  0
   61.8270   30.9760   50.0060 C   0  0  0  0  0  0  0  0  0  0  0  0
   62.2810   31.9570   48.9570 C   0  0  0  0  0  0  0  0  0  0  0  0
   63.3500   31.6420   48.1060 C   0  0  0  0  0  0  0  0  0  0  0  0
   63.7630   32.5570   47.1370 C   0  0  0  0  0  0  0  0  0  0  0  0
   63.1090   33.7860   47.0330 C   0  0  0  0  0  0  0  0  0  0  0  0
   62.0820   34.0830   47.8720 N   0  0  0  0  0  0  0  0  0  0  0  0
   61.6600   33.2090   48.8250 C   0  0  0  0  0  0  0  0  0  0  0  0
   59.9520   30.6920   47.6850 C   0  0  0  0  0  0  0  0  0  0  0  0
   58.9840   30.4980   46.6890 C   0  0  0  0  0  0  0  0  0  0  0  0
   58.4580   31.6890   45.9810 C   0  0  0  0  0  0  0  0  0  0  0  0
   58.5070   31.7520   44.5780 C   0  0  0  0  0  0  0  0  0  0  0  0
   57.9960   32.8660   43.9040 C   0  0  0  0  0  0  0  0  0  0  0  0
   57.4260   33.9180   44.6240 C   0  0  0  0  0  0  0  0  0  0  0  0
   57.3630   33.8600   46.0180 C   0  0  0  0  0  0  0  0  0  0  0  0
   57.8730   32.7490   46.6990 C   0  0  0  0  0  0  0  0  0  0  0  0
   57.8140   32.7160   48.0550 F   0  0  0  0  0  0  0  0  0  0  0  0
   57.3849   30.2832   43.2441 H   0  0  0  0  0  0  0  0  0  0  0  0
   56.4685   29.0723   42.2846 H   0  0  0  0  0  0  0  0  0  0  0  0
   55.9547   30.7935   42.2846 H   0  0  0  0  0  0  0  0  0  0  0  0
   54.7875   30.5574   44.2176 H   0  0  0  0  0  0  0  0  0  0  0  0
   54.9280   28.7839   43.9172 H   0  0  0  0  0  0  0  0  0  0  0  0
   58.6137   27.1155   47.0640 H   0  0  0  0  0  0  0  0  0  0  0  0
   60.2900   27.5490   48.7340 H   0  0  0  0  0  0  0  0  0  0  0  0
   60.9760   31.4047   50.5555 H   0  0  0  0  0  0  0  0  0  0  0  0
   62.6663   30.7792   50.6892 H   0  0  0  0  0  0  0  0  0  0  0  0
   63.8629   30.6737   48.2023 H   0  0  0  0  0  0  0  0  0  0  0  0
   64.5959   32.3123   46.4615 H   0  0  0  0  0  0  0  0  0  0  0  0
   63.4251   34.5143   46.2716 H   0  0  0  0  0  0  0  0  0  0  0  0
   60.8307   33.4837   49.4934 H   0  0  0  0  0  0  0  0  0  0  0  0
   60.3332   31.7034   47.8893 H   0  0  0  0  0  0  0  0  0  0  0  0
   58.9490   30.9218   44.0075 H   0  0  0  0  0  0  0  0  0  0  0  0
   58.0432   32.9134   42.8060 H   0  0  0  0  0  0  0  0  0  0  0  0
   57.0259   34.7939   44.0923 H   0  0  0  0  0  0  0  0  0  0  0  0
   56.9115   34.6895   46.5819 H   0  0  0  0  0  0  0  0  0  0  0  0
  1  2  1  0
  2  3  1  0
  3  4  1  0
  4  5  2  0
  4  6  1  0
  6  7  2  0
  7  8  1  0
  8  9  2  0
  9 10  1  0
 10 11  1  0
 11 12  1  0
 12 13  2  0
 13 14  1  0
 14 15  2  0
 15 16  1  0
 16 17  2  0
  9 18  1  0
 18 19  2  0
 19 20  1  0
 20 21  2  0
 21 22  1  0
 22 23  2  0
 23 24  1  0
 24 25  2  0
 25 26  1  0
 19  6  1  0
 25 20  1  0
 17 12  1  0
  1 27  1  0
  1 28  1  0
  1 29  1  0
  2 30  1  0
  2 31  1  0
  7 32  1  0
  8 33  1  0
 11 34  1  0
 11 35  1  0
 13 36  1  0
 14 37  1  0
 15 38  1  0
 17 39  1  0
 18 40  1  0
 21 41  1  0
 22 42  1  0
 23 43  1  0
 24 44  1  0
M  CHG  2   3  -1   8   1
M  END
>  <UniqueID>  (40) 
33

>  <SMILES>  (40) 
CC[N-]C(=O)c1c[nH+]c(OCc2cccnc2)cc1-c1ccccc1F

>  <Energy>  (40) 
53.04042528448568

>  <Genealogy>  (40) 
CC[N-]C(=O)c1c[nH+]c(OCc2cccnc2)cc1-c1ccccc1F (protonated)
CC[N-]C(=O)c1c[nH+]c(OCc2cccnc2)cc1-c1ccccc1F (3D coordinates assigned)
CC[N-]C(=O)c1c[nH+]c(OCc2cccnc2)cc1-c1ccccc1F (optimized conformer: 53.04042528448568 kcal/mol)

>  <smiles>  (40) 
CCNC(=O)c1cnc(OCc2cccnc2)cc1-c1ccccc1F

>  <score_type>  (40) 
oracle

>  <origin>  (40) 
adg

>  <m_score__min__energy>  (40) 
-7.1600000000000001

>  <m_primary>  (40) 
energy

$$$$
40:0
     RDKit          3D

 31 33  0  0  0  0  0  0  0  0999 V2000
   56.4756   31.3933   43.3911 H   0  0  0  0  0  0  0  0  0  0  0  0
   56.8730   31.2450   44.4060 C   0  0  0  0  0  0  0  0  0  0  0  0
   56.8520   32.2590   45.2250 N   0  0  0  0  0  0  0  0  0  0  0  0
   57.9200   33.1750   45.5100 C   0  0  0  0  0  0  0  0  0  0  0  0
   58.0010   34.4070   44.9420 N   0  0  0  0  0  0  0  0  0  0  0  0
   59.4170   35.0470   45.5210 S   0  0  0  0  0  0  0  0  0  0  0  0
   59.9670   33.7920   46.4780 C   0  0  0  0  0  0  0  0  0  0  0  0
   61.2200   33.7550   47.2740 C   0  0  0  0  0  0  0  0  0  0  0  0
   61.1890   34.0140   48.6570 C   0  0  0  0  0  0  0  0  0  0  0  0
   60.2318   34.2451   49.1473 H   0  0  0  0  0  0  0  0  0  0  0  0
   62.3650   33.9800   49.4130 C   0  0  0  0  0  0  0  0  0  0  0  0
   62.3293   34.1854   50.4931 H   0  0  0  0  0  0  0  0  0  0  0  0
   63.5840   33.6860   48.8000 C   0  0  0  0  0  0  0  0  0  0  0  0
   64.5078   33.6592   49.3966 H   0  0  0  0  0  0  0  0  0  0  0  0
   63.6300   33.4260   47.4290 C   0  0  0  0  0  0  0  0  0  0  0  0
   64.5911   33.1946   46.9466 H   0  0  0  0  0  0  0  0  0  0  0  0
   62.4570   33.4590   46.6670 C   0  0  0  0  0  0  0  0  0  0  0  0
   62.5006   33.2526   45.5874 H   0  0  0  0  0  0  0  0  0  0  0  0
   58.9930   32.8010   46.3460 C   0  0  0  0  0  0  0  0  0  0  0  0
   59.0560   31.8230   46.8455 H   0  0  0  0  0  0  0  0  0  0  0  0
   57.3970   29.9100   44.7560 C   0  0  0  0  0  0  0  0  0  0  0  0
   58.7790   29.7440   44.9340 C   0  0  0  0  0  0  0  0  0  0  0  0
   59.4556   30.5998   44.7934 H   0  0  0  0  0  0  0  0  0  0  0  0
   59.3000   28.4970   45.2890 C   0  0  0  0  0  0  0  0  0  0  0  0
   60.3857   28.3702   45.4120 H   0  0  0  0  0  0  0  0  0  0  0  0
   58.4440   27.4110   45.4880 C   0  0  0  0  0  0  0  0  0  0  0  0
   58.8567   26.4280   45.7589 H   0  0  0  0  0  0  0  0  0  0  0  0
   57.0640   27.5730   45.3430 C   0  0  0  0  0  0  0  0  0  0  0  0
   56.3912   26.7183   45.5067 H   0  0  0  0  0  0  0  0  0  0  0  0
   56.5350   28.8200   44.9900 C   0  0  0  0  0  0  0  0  0  0  0  0
   55.1560   28.9710   44.8870 O   0  0  0  0  0  0  0  0  0  0  0  0
  1  2  1  0
  2  3  2  0
  3  4  1  0
  4  5  2  0
  5  6  1  0
  6  7  1  0
  7  8  1  0
  8  9  2  0
  9 10  1  0
  9 11  1  0
 11 12  1  0
 11 13  2  0
 13 14  1  0
 13 15  1  0
 15 16  1  0
 15 17  2  0
 17 18  1  0
  7 19  2  0
 19 20  1  0
  2 21  1  0
 21 22  2  0
 22 23  1  0
 22 24  1  0
 24 25  1  0
 24 26  2  0
 26 27  1  0
 26 28  1  0
 28 29  1  0
 28 30  2  0
 30 31  1  0
 19  4  1  0
 30 21  1  0
 17  8  1  0
M  CHG  1  31  -1
M  END
>  <UniqueID>  (41) 
34

>  <SMILES>  (41) 
[O-]c1ccccc1/C=N\c1cc(-c2ccccc2)sn1

>  <Energy>  (41) 
78.00549506343243

>  <Genealogy>  (41) 
[O-]c1ccccc1C=Nc1cc(-c2ccccc2)sn1 (protonated)
[O-]c1ccccc1/C=N\c1cc(-c2ccccc2)sn1 (cis-trans isomerization)
[O-]c1ccccc1/C=N\c1cc(-c2ccccc2)sn1 (3D coordinates assigned)
[O-]c1ccccc1/C=N\c1cc(-c2ccccc2)sn1 (optimized conformer: 78.00549506343243 kcal/mol)

>  <smiles>  (41) 
Oc1ccccc1C=Nc1cc(-c2ccccc2)sn1

>  <score_type>  (41) 
oracle

>  <origin>  (41) 
adg

>  <m_score__min__energy>  (41) 
-12.01

>  <m_primary>  (41) 
energy

$$$$
41:0
     RDKit          3D

 33 35  0  0  0  0  0  0  0  0999 V2000
   58.6040   31.6290   47.6400 Cl  0  0  0  0  0  0  0  0  0  0  0  0
   59.0030   33.1290   46.8060 C   0  0  0  0  0  0  0  0  0  0  0  0
   59.6600   34.1150   47.5530 C   0  0  0  0  0  0  0  0  0  0  0  0
   59.9880   35.3430   46.9780 C   0  0  0  0  0  0  0  0  0  0  0  0
   59.6570   35.5980   45.6490 C   0  0  0  0  0  0  0  0  0  0  0  0
   59.0020   34.6260   44.8900 C   0  0  0  0  0  0  0  0  0  0  0  0
   58.6690   33.3770   45.4500 C   0  0  0  0  0  0  0  0  0  0  0  0
   57.9720   32.3880   44.5880 C   0  0  0  0  0  0  0  0  0  0  0  0
   57.1410   31.4260   45.0430 N   0  0  0  0  0  0  0  0  0  0  0  0
   56.7440   30.8010   43.9190 C   0  0  0  0  0  0  0  0  0  0  0  0
   55.7740   29.6620   43.8890 C   0  0  0  0  0  0  0  0  0  0  0  0
   55.6950   28.9980   45.1990 N   0  0  0  0  0  0  0  0  0  0  0  0
   56.6210   27.8570   45.3100 C   0  0  0  0  0  0  0  0  0  0  0  0
   58.0210   28.3370   45.5420 C   0  0  0  0  0  0  0  0  0  0  0  0
   58.9610   28.6370   44.5790 C   0  0  0  0  0  0  0  0  0  0  0  0
   60.1020   28.9830   45.2760 C   0  0  0  0  0  0  0  0  0  0  0  0
   59.8760   28.9050   46.5680 O   0  0  0  0  0  0  0  0  0  0  0  0
   58.6360   28.5190   46.7630 C   0  0  0  0  0  0  0  0  0  0  0  0
   57.3520   31.3820   42.8310 C   0  0  0  0  0  0  0  0  0  0  0  0
   58.1020   32.3570   43.2780 O   0  0  0  0  0  0  0  0  0  0  0  0
   59.9200   33.9191   48.6037 H   0  0  0  0  0  0  0  0  0  0  0  0
   60.5072   36.1087   47.5731 H   0  0  0  0  0  0  0  0  0  0  0  0
   59.9123   36.5675   45.1964 H   0  0  0  0  0  0  0  0  0  0  0  0
   58.7429   34.8381   43.8422 H   0  0  0  0  0  0  0  0  0  0  0  0
   54.7786   30.0451   43.6200 H   0  0  0  0  0  0  0  0  0  0  0  0
   56.1202   28.9283   43.1461 H   0  0  0  0  0  0  0  0  0  0  0  0
   55.9820   29.7040   45.9160 H   0  0  0  0  0  0  0  0  0  0  0  0
   56.3122   27.2211   46.1527 H   0  0  0  0  0  0  0  0  0  0  0  0
   56.5928   27.2838   44.3716 H   0  0  0  0  0  0  0  0  0  0  0  0
   58.8300   28.6071   43.4872 H   0  0  0  0  0  0  0  0  0  0  0  0
   61.0571   29.2795   44.8180 H   0  0  0  0  0  0  0  0  0  0  0  0
   58.1631   28.3653   47.7442 H   0  0  0  0  0  0  0  0  0  0  0  0
   57.2305   31.0827   41.7795 H   0  0  0  0  0  0  0  0  0  0  0  0
  1  2  1  0
  2  3  2  0
  3  4  1  0
  4  5  2  0
  5  6  1  0
  6  7  2  0
  7  8  1  0
  8  9  2  0
  9 10  1  0
 10 11  1  0
 11 12  1  0
 12 13  1  0
 13 14  1  0
 14 15  1  0
 15 16  2  0
 16 17  1  0
 17 18  1  0
 10 19  2  0
 19 20  1  0
  7  2  1  0
 20  8  1  0
 18 14  2  0
  3 21  1  0
  4 22  1  0
  5 23  1  0
  6 24  1  0
 11 25  1  0
 11 26  1  0
 12 27  1  0
 13 28  1  0
 13 29  1  0
 15 30  1  0
 16 31  1  0
 18 32  1  0
 19 33  1  0
M  END
>  <UniqueID>  (42) 
35

>  <SMILES>  (42) 
Clc1ccccc1-c1nc(CNCc2ccoc2)co1

>  <Energy>  (42) 
90.77147478507953

>  <Genealogy>  (42) 
Clc1ccccc1-c1nc(CNCc2ccoc2)co1 (3D coordinates assigned)
Clc1ccccc1-c1nc(CNCc2ccoc2)co1 (optimized conformer: 90.77147478507953 kcal/mol)

>  <smiles>  (42) 
Clc1ccccc1-c1nc(CNCc2ccoc2)co1

>  <score_type>  (42) 
oracle

>  <origin>  (42) 
adg

>  <m_score__min__energy>  (42) 
-7.2800000000000002

>  <m_primary>  (42) 
energy

$$$$
42:0
     RDKit          3D

 49 51  0  0  0  0  0  0  0  0999 V2000
   51.3190   24.1100   44.3540 C   0  0  0  0  0  0  0  0  0  0  0  0
   52.1600   23.4390   45.4360 C   0  0  0  0  0  0  0  0  0  0  0  0
   53.5130   23.1890   44.9510 N   0  0  0  0  0  0  0  0  0  0  0  0
   54.6340   24.0180   45.2760 C   0  0  0  0  0  0  0  0  0  0  0  0
   54.4490   25.2140   45.6330 O   0  0  0  0  0  0  0  0  0  0  0  0
   56.0060   23.4700   45.2030 C   0  0  0  0  0  0  0  0  0  0  0  0
   56.1920   22.0790   45.2900 C   0  0  0  0  0  0  0  0  0  0  0  0
   57.4790   21.5360   45.3020 C   0  0  0  0  0  0  0  0  0  0  0  0
   58.5930   22.3710   45.2300 C   0  0  0  0  0  0  0  0  0  0  0  0
   58.4250   23.7540   45.1250 C   0  0  0  0  0  0  0  0  0  0  0  0
   57.1400   24.3110   45.0840 C   0  0  0  0  0  0  0  0  0  0  0  0
   57.0110   25.7280   44.8900 N   0  0  0  0  0  0  0  0  0  0  0  0
   58.0330   26.6500   45.3120 C   0  0  0  0  0  0  0  0  0  0  0  0
   59.0680   26.2110   45.8840 O   0  0  0  0  0  0  0  0  0  0  0  0
   57.9090   28.1060   45.0670 C   0  0  0  0  0  0  0  0  0  0  0  0
   59.0350   28.9460   45.0390 C   0  0  0  0  0  0  0  0  0  0  0  0
   58.8920   30.3150   44.7970 C   0  0  0  0  0  0  0  0  0  0  0  0
   57.6270   30.8720   44.5790 C   0  0  0  0  0  0  0  0  0  0  0  0
   57.5280   32.2840   44.3500 N   0  0  0  0  0  0  0  0  0  0  0  0
   57.7730   33.5080   45.5540 S   0  0  0  0  0  0  0  0  0  0  0  0
   56.6470   33.4580   46.5490 O   0  0  0  0  0  0  0  0  0  0  0  0
   57.7740   34.8580   44.8940 O   0  0  0  0  0  0  0  0  0  0  0  0
   59.3260   33.2580   46.3420 C   0  0  0  0  0  0  0  0  0  0  0  0
   60.4230   34.0480   45.9750 C   0  0  0  0  0  0  0  0  0  0  0  0
   61.6690   33.8460   46.5760 C   0  0  0  0  0  0  0  0  0  0  0  0
   61.8250   32.8510   47.5460 C   0  0  0  0  0  0  0  0  0  0  0  0
   63.5300   32.5690   48.3600 Br  0  0  0  0  0  0  0  0  0  0  0  0
   60.7320   32.0600   47.9180 C   0  0  0  0  0  0  0  0  0  0  0  0
   59.4840   32.2620   47.3180 C   0  0  0  0  0  0  0  0  0  0  0  0
   56.4980   30.0360   44.5980 C   0  0  0  0  0  0  0  0  0  0  0  0
   56.6390   28.6650   44.8320 C   0  0  0  0  0  0  0  0  0  0  0  0
   50.5421   24.7299   44.8252 H   0  0  0  0  0  0  0  0  0  0  0  0
   51.9645   24.7440   43.7284 H   0  0  0  0  0  0  0  0  0  0  0  0
   50.8442   23.3399   43.7284 H   0  0  0  0  0  0  0  0  0  0  0  0
   52.2071   24.0959   46.3171 H   0  0  0  0  0  0  0  0  0  0  0  0
   51.6950   22.4785   45.7030 H   0  0  0  0  0  0  0  0  0  0  0  0
   55.3180   21.4137   45.3490 H   0  0  0  0  0  0  0  0  0  0  0  0
   57.6138   20.4463   45.3685 H   0  0  0  0  0  0  0  0  0  0  0  0
   59.6050   21.9407   45.2559 H   0  0  0  0  0  0  0  0  0  0  0  0
   59.3069   24.4095   45.0742 H   0  0  0  0  0  0  0  0  0  0  0  0
   56.1080   26.0790   44.5030 H   0  0  0  0  0  0  0  0  0  0  0  0
   60.0362   28.5231   45.2088 H   0  0  0  0  0  0  0  0  0  0  0  0
   59.7823   30.9608   44.7777 H   0  0  0  0  0  0  0  0  0  0  0  0
   60.3036   34.8303   45.2110 H   0  0  0  0  0  0  0  0  0  0  0  0
   62.5270   34.4701   46.2857 H   0  0  0  0  0  0  0  0  0  0  0  0
   60.8540   31.2788   48.6827 H   0  0  0  0  0  0  0  0  0  0  0  0
   58.6260   31.6395   47.6117 H   0  0  0  0  0  0  0  0  0  0  0  0
   55.4983   30.4623   44.4279 H   0  0  0  0  0  0  0  0  0  0  0  0
   55.7497   28.0176   44.8325 H   0  0  0  0  0  0  0  0  0  0  0  0
  1  2  1  0
  2  3  1  0
  3  4  1  0
  4  5  2  0
  4  6  1  0
  6  7  2  0
  7  8  1  0
  8  9  2  0
  9 10  1  0
 10 11  2  0
 11 12  1  0
 12 13  1  0
 13 14  2  0
 13 15  1  0
 15 16  2  0
 16 17  1  0
 17 18  2  0
 18 19  1  0
 19 20  1  0
 20 21  2  0
 20 22  2  0
 20 23  1  0
 23 24  2  0
 24 25  1  0
 25 26  2  0
 26 27  1  0
 26 28  1  0
 28 29  2  0
 18 30  1  0
 30 31  2  0
 11  6  1  0
 31 15  1  0
 29 23  1  0
  1 32  1  0
  1 33  1  0
  1 34  1  0
  2 35  1  0
  2 36  1  0
  7 37  1  0
  8 38  1  0
  9 39  1  0
 10 40  1  0
 12 41  1  0
 16 42  1  0
 17 43  1  0
 24 44  1  0
 25 45  1  0
 28 46  1  0
 29 47  1  0
 30 48  1  0
 31 49  1  0
M  CHG  2   3  -1  19  -1
M  END
>  <UniqueID>  (43) 
36

>  <SMILES>  (43) 
CC[N-]C(=O)c1ccccc1NC(=O)c1ccc([N-]S(=O)(=O)c2ccc(Br)cc2)cc1

>  <Energy>  (43) 
61.413482888910366

>  <Genealogy>  (43) 
CC[N-]C(=O)c1ccccc1NC(=O)c1ccc([N-]S(=O)(=O)c2ccc(Br)cc2)cc1 (protonated)
CC[N-]C(=O)c1ccccc1NC(=O)c1ccc([N-]S(=O)(=O)c2ccc(Br)cc2)cc1 (3D coordinates assigned)
CC[N-]C(=O)c1ccccc1NC(=O)c1ccc([N-]S(=O)(=O)c2ccc(Br)cc2)cc1 (optimized conformer: 61.413482888910366 kcal/mol)

>  <smiles>  (43) 
CCNC(=O)c1ccccc1NC(=O)c1ccc(NS(=O)(=O)c2ccc(Br)cc2)cc1

>  <score_type>  (43) 
oracle

>  <origin>  (43) 
adg

>  <m_score__min__energy>  (43) 
-13

>  <m_primary>  (43) 
energy

$$$$
43:0
     RDKit          3D

 60 63  0  0  0  0  0  0  0  0999 V2000
   55.6930   24.5200   45.3670 C   0  0  0  0  0  0  0  0  0  0  0  0
   55.5320   25.8020   45.9680 O   0  0  0  0  0  0  0  0  0  0  0  0
   56.5670   26.7340   46.1340 C   0  0  0  0  0  0  0  0  0  0  0  0
   56.6540   27.9100   45.3660 C   0  0  0  0  0  0  0  0  0  0  0  0
   57.7010   28.8120   45.5750 C   0  0  0  0  0  0  0  0  0  0  0  0
   58.6760   28.5560   46.5530 C   0  0  0  0  0  0  0  0  0  0  0  0
   59.7590   29.5630   46.8290 C   0  0  0  0  0  0  0  0  0  0  0  0
   59.1650   30.8360   47.2470 N   0  0  0  0  0  0  0  0  0  0  0  0
   59.1350   31.3770   48.5020 C   0  0  0  0  0  0  0  0  0  0  0  0
   59.5530   30.6710   49.7230 C   0  0  0  0  0  0  0  0  0  0  0  0
   58.8310   29.7470   50.1790 O   0  0  0  0  0  0  0  0  0  0  0  0
   60.7720   31.0060   50.3930 N   0  0  0  0  0  0  0  0  0  0  0  0
   60.8170   31.5130   51.7610 C   0  0  0  0  0  0  0  0  0  0  0  0
   60.3990   32.9840   51.7850 C   0  0  0  0  0  0  0  0  0  0  0  0
   61.4590   33.8700   51.1060 C   0  0  0  0  0  0  0  0  0  0  0  0
   62.0610   33.2220   49.9110 N   0  0  0  0  0  0  0  0  0  0  0  0
   63.5350   33.1780   50.0080 C   0  0  0  0  0  0  0  0  0  0  0  0
   64.1330   32.3600   48.8450 C   0  0  0  0  0  0  0  0  0  0  0  0
   63.4340   32.5710   47.5510 N   0  0  0  0  0  0  0  0  0  0  0  0
   62.6400   31.4020   47.1340 C   0  0  0  0  0  0  0  0  0  0  0  0
   62.6470   33.8180   47.5080 C   0  0  0  0  0  0  0  0  0  0  0  0
   61.6340   33.9300   48.6730 C   0  0  0  0  0  0  0  0  0  0  0  0
   58.6810   32.7020   48.4810 C   0  0  0  0  0  0  0  0  0  0  0  0
   58.4310   32.9260   47.1500 C   0  0  0  0  0  0  0  0  0  0  0  0
   57.9330   34.1690   46.1490 S   0  0  0  0  0  0  0  0  0  0  0  0
   58.1100   33.2140   44.7380 C   0  0  0  0  0  0  0  0  0  0  0  0
   58.5680   31.9300   45.0710 C   0  0  0  0  0  0  0  0  0  0  0  0
   58.7270   31.8250   46.4480 C   0  0  0  0  0  0  0  0  0  0  0  0
   58.5890   27.3830   47.3170 C   0  0  0  0  0  0  0  0  0  0  0  0
   57.5440   26.4780   47.1040 C   0  0  0  0  0  0  0  0  0  0  0  0
   55.7889   23.7561   46.1527 H   0  0  0  0  0  0  0  0  0  0  0  0
   54.8160   24.2952   44.7422 H   0  0  0  0  0  0  0  0  0  0  0  0
   56.5983   24.5190   44.7422 H   0  0  0  0  0  0  0  0  0  0  0  0
   55.8949   28.1202   44.5981 H   0  0  0  0  0  0  0  0  0  0  0  0
   57.7618   29.7284   44.9696 H   0  0  0  0  0  0  0  0  0  0  0  0
   60.4121   29.1854   47.6296 H   0  0  0  0  0  0  0  0  0  0  0  0
   60.3462   29.7222   45.9125 H   0  0  0  0  0  0  0  0  0  0  0  0
   60.1294   30.9281   52.3895 H   0  0  0  0  0  0  0  0  0  0  0  0
   61.8428   31.4217   52.1475 H   0  0  0  0  0  0  0  0  0  0  0  0
   59.4428   33.0950   51.2526 H   0  0  0  0  0  0  0  0  0  0  0  0
   60.2958   33.3019   52.8330 H   0  0  0  0  0  0  0  0  0  0  0  0
   60.9845   34.8124   50.7950 H   0  0  0  0  0  0  0  0  0  0  0  0
   62.2652   34.0444   51.8338 H   0  0  0  0  0  0  0  0  0  0  0  0
   61.7050   32.2390   49.8610 H   0  0  0  0  0  0  0  0  0  0  0  0
   63.9304   34.2038   49.9689 H   0  0  0  0  0  0  0  0  0  0  0  0
   63.8131   32.6981   50.9580 H   0  0  0  0  0  0  0  0  0  0  0  0
   65.1873   32.6487   48.7223 H   0  0  0  0  0  0  0  0  0  0  0  0
   64.0189   31.2972   49.1048 H   0  0  0  0  0  0  0  0  0  0  0  0
   62.2775   30.8683   48.0249 H   0  0  0  0  0  0  0  0  0  0  0  0
   61.7819   31.7371   46.5329 H   0  0  0  0  0  0  0  0  0  0  0  0
   63.2678   30.7279   46.5329 H   0  0  0  0  0  0  0  0  0  0  0  0
   63.3386   34.6718   47.5606 H   0  0  0  0  0  0  0  0  0  0  0  0
   62.0728   33.8144   46.5698 H   0  0  0  0  0  0  0  0  0  0  0  0
   61.4970   34.9949   48.9123 H   0  0  0  0  0  0  0  0  0  0  0  0
   60.7031   33.4512   48.3351 H   0  0  0  0  0  0  0  0  0  0  0  0
   58.5553   33.3949   49.3261 H   0  0  0  0  0  0  0  0  0  0  0  0
   57.8951   33.5584   43.7157 H   0  0  0  0  0  0  0  0  0  0  0  0
   58.7712   31.1254   44.3490 H   0  0  0  0  0  0  0  0  0  0  0  0
   59.3460   27.1738   48.0872 H   0  0  0  0  0  0  0  0  0  0  0  0
   57.4892   25.5574   47.7035 H   0  0  0  0  0  0  0  0  0  0  0  0
  1  2  1  0
  2  3  1  0
  3  4  2  0
  4  5  1  0
  5  6  2  0
  6  7  1  0
  7  8  1  0
  8  9  1  0
  9 10  1  0
 10 11  2  0
 10 12  1  0
 12 13  1  0
 13 14  1  0
 14 15  1  0
 15 16  1  0
 16 17  1  0
 17 18  1  0
 18 19  1  0
 19 20  1  0
 19 21  1  0
 21 22  1  0
  9 23  2  0
 23 24  1  0
 24 25  1  0
 25 26  1  0
 26 27  2  0
 27 28  1  0
  6 29  1  0
 29 30  2  0
 30  3  1  0
 28  8  1  0
 22 16  1  0
 28 24  2  0
  1 31  1  0
  1 32  1  0
  1 33  1  0
  4 34  1  0
  5 35  1  0
  7 36  1  0
  7 37  1  0
 13 38  1  0
 13 39  1  0
 14 40  1  0
 14 41  1  0
 15 42  1  0
 15 43  1  0
 16 44  1  0
 17 45  1  0
 17 46  1  0
 18 47  1  0
 18 48  1  0
 20 49  1  0
 20 50  1  0
 20 51  1  0
 21 52  1  0
 21 53  1  0
 22 54  1  0
 22 55  1  0
 23 56  1  0
 26 57  1  0
 27 58  1  0
 29 59  1  0
 30 60  1  0
M  CHG  2  12  -1  16   1
M  END
>  <UniqueID>  (44) 
37

>  <SMILES>  (44) 
COc1ccc(Cn2c(C(=O)[N-]CCC[NH+]3CCN(C)CC3)cc3sccc32)cc1

>  <Energy>  (44) 
149.27180712568335

>  <Genealogy>  (44) 
COc1ccc(Cn2c(C(=O)[N-]CCC[NH+]3CCN(C)CC3)cc3sccc32)cc1 (protonated)
COc1ccc(Cn2c(C(=O)[N-]CCC[NH+]3CCN(C)CC3)cc3sccc32)cc1 (3D coordinates assigned)
COc1ccc(Cn2c(C(=O)[N-]CCC[NH+]3CCN(C)CC3)cc3sccc32)cc1 (nonaromatic ring conformer: 149.27180712568335 kcal/mol)

>  <smiles>  (44) 
COc1ccc(Cn2c(C(=O)NCCCN3CCN(C)CC3)cc3sccc32)cc1

>  <score_type>  (44) 
oracle

>  <origin>  (44) 
adg

>  <m_score__min__energy>  (44) 
-6.5899999999999999

>  <m_primary>  (44) 
energy

$$$$
44:0
     RDKit          3D

 54 55  0  0  0  0  0  0  0  0999 V2000
   55.5850   29.7550   43.2370 C   0  0  0  0  0  0  0  0  0  0  0  0
   56.8790   29.0920   43.0170 N   0  0  0  0  0  0  0  0  0  0  0  0
   57.7700   29.0720   44.2020 C   0  0  2  0  0  0  0  0  0  0  0  0
   58.8520   30.1840   44.1810 C   0  0  0  0  0  0  0  0  0  0  0  0
   58.4080   31.4310   44.9060 C   0  0  0  0  0  0  0  0  0  0  0  0
   57.8330   32.5020   44.1970 C   0  0  0  0  0  0  0  0  0  0  0  0
   57.3950   33.6460   44.8750 C   0  0  0  0  0  0  0  0  0  0  0  0
   57.5280   33.7290   46.2640 C   0  0  0  0  0  0  0  0  0  0  0  0
   58.0980   32.6700   46.9770 C   0  0  0  0  0  0  0  0  0  0  0  0
   58.5400   31.5260   46.3030 C   0  0  0  0  0  0  0  0  0  0  0  0
   58.3890   27.6990   44.4100 C   0  0  0  0  0  0  0  0  0  0  0  0
   58.2680   26.8320   43.5000 O   0  0  0  0  0  0  0  0  0  0  0  0
   59.0140   27.3270   45.6570 N   0  0  0  0  0  0  0  0  0  0  0  0
   60.4410   27.0550   45.7810 C   0  0  0  0  0  0  0  0  0  0  0  0
   60.7040   26.5190   47.1800 C   0  0  0  0  0  0  0  0  0  0  0  0
   59.4220   27.1670   48.2850 S   0  0  0  0  0  0  0  0  0  0  0  0
   58.2500   27.2660   46.9010 C   0  0  2  0  0  0  0  0  0  0  0  0
   57.3440   26.0700   46.9270 C   0  0  0  0  0  0  0  0  0  0  0  0
   56.1050   26.2040   46.7350 O   0  0  0  0  0  0  0  0  0  0  0  0
   57.9100   24.7690   47.1130 N   0  0  0  0  0  0  0  0  0  0  0  0
   58.3010   23.9070   46.0040 C   0  0  0  0  0  0  0  0  0  0  0  0
   57.4140   24.2120   44.7910 C   0  0  0  0  0  0  0  0  0  0  0  0
   57.3290   23.0700   43.7500 C   0  0  0  0  0  0  0  0  0  0  0  0
   55.9430   22.9640   43.0980 C   0  0  0  0  0  0  0  0  0  0  0  0
   57.7610   21.7150   44.3280 C   0  0  0  0  0  0  0  0  0  0  0  0
   55.4004   29.8496   44.3173 H   0  0  0  0  0  0  0  0  0  0  0  0
   55.6028   30.7550   42.7791 H   0  0  0  0  0  0  0  0  0  0  0  0
   54.7837   29.1564   42.7791 H   0  0  0  0  0  0  0  0  0  0  0  0
   56.7040   28.1130   42.6900 H   0  0  0  0  0  0  0  0  0  0  0  0
   57.3650   29.5890   42.2370 H   0  0  0  0  0  0  0  0  0  0  0  0
   57.1263   29.2931   45.0661 H   0  0  0  0  0  0  0  0  0  0  0  0
   59.7629   29.8000   44.6635 H   0  0  0  0  0  0  0  0  0  0  0  0
   59.0361   30.4537   43.1306 H   0  0  0  0  0  0  0  0  0  0  0  0
   57.7271   32.4400   43.1039 H   0  0  0  0  0  0  0  0  0  0  0  0
   56.9462   34.4794   44.3146 H   0  0  0  0  0  0  0  0  0  0  0  0
   57.1840   34.6280   46.7964 H   0  0  0  0  0  0  0  0  0  0  0  0
   58.1993   32.7362   48.0703 H   0  0  0  0  0  0  0  0  0  0  0  0
   58.9925   30.6978   46.8681 H   0  0  0  0  0  0  0  0  0  0  0  0
   60.7437   26.3074   45.0330 H   0  0  0  0  0  0  0  0  0  0  0  0
   61.0189   27.9757   45.6125 H   0  0  0  0  0  0  0  0  0  0  0  0
   60.6667   25.4197   47.1707 H   0  0  0  0  0  0  0  0  0  0  0  0
   61.6992   26.8341   47.5267 H   0  0  0  0  0  0  0  0  0  0  0  0
   57.6227   28.1660   46.9811 H   0  0  0  0  0  0  0  0  0  0  0  0
   59.3539   24.0941   45.7462 H   0  0  0  0  0  0  0  0  0  0  0  0
   58.1797   22.8531   46.2947 H   0  0  0  0  0  0  0  0  0  0  0  0
   56.3970   24.4215   45.1540 H   0  0  0  0  0  0  0  0  0  0  0  0
   57.8742   25.0685   44.2765 H   0  0  0  0  0  0  0  0  0  0  0  0
   58.0453   23.3403   42.9602 H   0  0  0  0  0  0  0  0  0  0  0  0
   55.1729   22.9051   43.8812 H   0  0  0  0  0  0  0  0  0  0  0  0
   55.7631   23.8510   42.4728 H   0  0  0  0  0  0  0  0  0  0  0  0
   55.9001   22.0599   42.4728 H   0  0  0  0  0  0  0  0  0  0  0  0
   57.7456   21.7634   45.4268 H   0  0  0  0  0  0  0  0  0  0  0  0
   57.0678   20.9325   43.9857 H   0  0  0  0  0  0  0  0  0  0  0  0
   58.7792   21.4782   43.9857 H   0  0  0  0  0  0  0  0  0  0  0  0
  1  2  1  0
  2  3  1  0
  3  4  1  0
  4  5  1  0
  5  6  2  0
  6  7  1  0
  7  8  2  0
  8  9  1  0
  9 10  2  0
  3 11  1  0
 11 12  2  0
 11 13  1  0
 13 14  1  0
 14 15  1  0
 15 16  1  0
 16 17  1  0
 17 18  1  0
 18 19  2  0
 18 20  1  0
 20 21  1  0
 21 22  1  0
 22 23  1  0
 23 24  1  0
 23 25  1  0
 10  5  1  0
 17 13  1  0
  1 26  1  0
  1 27  1  0
  1 28  1  0
  2 29  1  0
  2 30  1  0
  3 31  1  1
  4 32  1  0
  4 33  1  0
  6 34  1  0
  7 35  1  0
  8 36  1  0
  9 37  1  0
 10 38  1  0
 14 39  1  0
 14 40  1  0
 15 41  1  0
 15 42  1  0
 17 43  1  1
 21 44  1  0
 21 45  1  0
 22 46  1  0
 22 47  1  0
 23 48  1  0
 24 49  1  0
 24 50  1  0
 24 51  1  0
 25 52  1  0
 25 53  1  0
 25 54  1  0
M  CHG  2   2   1  20  -1
M  END
>  <UniqueID>  (45) 
38

>  <SMILES>  (45) 
C[NH2+][C@H](Cc1ccccc1)C(=O)N1CCS[C@@H]1C(=O)[N-]CCC(C)C

>  <Energy>  (45) 
39.73979264302619

>  <Genealogy>  (45) 
C[NH2+]C(Cc1ccccc1)C(=O)N1CCSC1C(=O)[N-]CCC(C)C (protonated)
C[NH2+][C@H](Cc1ccccc1)C(=O)N1CCS[C@@H]1C(=O)[N-]CCC(C)C (chirality)
C[NH2+][C@H](Cc1ccccc1)C(=O)N1CCS[C@@H]1C(=O)[N-]CCC(C)C (3D coordinates assigned)
C[NH2+][C@H](Cc1ccccc1)C(=O)N1CCS[C@@H]1C(=O)[N-]CCC(C)C (nonaromatic ring conformer: 39.73979264302619 kcal/mol)

>  <smiles>  (45) 
CNC(Cc1ccccc1)C(=O)N1CCSC1C(=O)NCCC(C)C

>  <score_type>  (45) 
oracle

>  <origin>  (45) 
adg

>  <m_score__min__energy>  (45) 
-7.1600000000000001

>  <m_primary>  (45) 
energy

$$$$
45:0
     RDKit          3D

 44 47  0  0  0  0  0  0  0  0999 V2000
   56.2100   29.4930   42.9530 C   0  0  0  0  0  0  0  0  0  0  0  0
   56.9090   29.2450   44.2880 C   0  0  2  0  0  0  0  0  0  0  0  0
   55.9940   28.5540   45.1930 N   0  0  0  0  0  0  0  0  0  0  0  0
   56.2840   27.2920   45.8060 C   0  0  0  0  0  0  0  0  0  0  0  0
   55.3520   26.4630   45.9920 O   0  0  0  0  0  0  0  0  0  0  0  0
   57.6730   26.9440   46.1970 C   0  0  0  0  0  0  0  0  0  0  0  0
   58.3330   27.7680   47.1310 C   0  0  0  0  0  0  0  0  0  0  0  0
   59.6100   27.4460   47.5910 C   0  0  0  0  0  0  0  0  0  0  0  0
   60.2510   26.2990   47.1320 C   0  0  0  0  0  0  0  0  0  0  0  0
   59.6260   25.4770   46.1950 C   0  0  0  0  0  0  0  0  0  0  0  0
   58.3490   25.7950   45.7020 C   0  0  0  0  0  0  0  0  0  0  0  0
   57.7760   24.9190   44.6570 C   0  0  0  0  0  0  0  0  0  0  0  0
   57.3900   25.3080   43.3850 C   0  0  0  0  0  0  0  0  0  0  0  0
   56.9160   24.2410   42.7010 N   0  0  0  0  0  0  0  0  0  0  0  0
   57.0170   23.2270   43.5850 C   0  0  0  0  0  0  0  0  0  0  0  0
   56.6450   21.9040   43.3530 C   0  0  0  0  0  0  0  0  0  0  0  0
   56.8090   20.9860   44.4020 C   0  0  0  0  0  0  0  0  0  0  0  0
   57.3230   21.4070   45.6430 C   0  0  0  0  0  0  0  0  0  0  0  0
   57.6770   22.7510   45.8220 C   0  0  0  0  0  0  0  0  0  0  0  0
   57.5230   23.6040   44.7730 N   0  0  0  0  0  0  0  0  0  0  0  0
   57.3690   30.5520   44.8970 C   0  0  0  0  0  0  0  0  0  0  0  0
   58.1420   30.5640   46.0740 C   0  0  0  0  0  0  0  0  0  0  0  0
   58.5510   31.7770   46.6380 C   0  0  0  0  0  0  0  0  0  0  0  0
   58.1860   32.9850   46.0390 C   0  0  0  0  0  0  0  0  0  0  0  0
   57.4110   32.9840   44.8770 C   0  0  0  0  0  0  0  0  0  0  0  0
   57.0000   31.7740   44.3090 C   0  0  0  0  0  0  0  0  0  0  0  0
   55.1878   29.8557   43.1362 H   0  0  0  0  0  0  0  0  0  0  0  0
   56.7697   30.2474   42.3806 H   0  0  0  0  0  0  0  0  0  0  0  0
   56.1691   28.5545   42.3806 H   0  0  0  0  0  0  0  0  0  0  0  0
   57.7960   28.6164   44.1200 H   0  0  0  0  0  0  0  0  0  0  0  0
   57.8350   28.6761   47.5017 H   0  0  0  0  0  0  0  0  0  0  0  0
   60.1119   28.1006   48.3187 H   0  0  0  0  0  0  0  0  0  0  0  0
   61.2517   26.0407   47.5088 H   0  0  0  0  0  0  0  0  0  0  0  0
   60.1375   24.5708   45.8382 H   0  0  0  0  0  0  0  0  0  0  0  0
   57.4586   26.3322   42.9896 H   0  0  0  0  0  0  0  0  0  0  0  0
   56.2368   21.5900   42.3810 H   0  0  0  0  0  0  0  0  0  0  0  0
   56.5342   19.9313   44.2535 H   0  0  0  0  0  0  0  0  0  0  0  0
   57.4458   20.6869   46.4655 H   0  0  0  0  0  0  0  0  0  0  0  0
   58.0693   23.1074   46.7859 H   0  0  0  0  0  0  0  0  0  0  0  0
   58.4256   29.6149   46.5522 H   0  0  0  0  0  0  0  0  0  0  0  0
   59.1604   31.7796   47.5538 H   0  0  0  0  0  0  0  0  0  0  0  0
   58.5093   33.9381   46.4829 H   0  0  0  0  0  0  0  0  0  0  0  0
   57.1235   33.9365   44.4079 H   0  0  0  0  0  0  0  0  0  0  0  0
   56.3847   31.7787   43.3972 H   0  0  0  0  0  0  0  0  0  0  0  0
  1  2  1  0
  2  3  1  0
  3  4  1  0
  4  5  2  0
  4  6  1  0
  6  7  2  0
  7  8  1  0
  8  9  2  0
  9 10  1  0
 10 11  2  0
 11 12  1  0
 12 13  2  0
 13 14  1  0
 14 15  2  0
 15 16  1  0
 16 17  2  0
 17 18  1  0
 18 19  2  0
 19 20  1  0
  2 21  1  0
 21 22  2  0
 22 23  1  0
 23 24  2  0
 24 25  1  0
 25 26  2  0
 11  6  1  0
 20 12  1  0
 26 21  1  0
 20 15  1  0
  1 27  1  0
  1 28  1  0
  1 29  1  0
  2 30  1  6
  7 31  1  0
  8 32  1  0
  9 33  1  0
 10 34  1  0
 13 35  1  0
 16 36  1  0
 17 37  1  0
 18 38  1  0
 19 39  1  0
 22 40  1  0
 23 41  1  0
 24 42  1  0
 25 43  1  0
 26 44  1  0
M  CHG  1   3  -1
M  END
>  <UniqueID>  (46) 
39

>  <SMILES>  (46) 
C[C@H]([N-]C(=O)c1ccccc1-c1cnc2ccccn12)c1ccccc1

>  <Energy>  (46) 
87.8105026618303

>  <Genealogy>  (46) 
CC([N-]C(=O)c1ccccc1-c1cnc2ccccn12)c1ccccc1 (protonated)
C[C@H]([N-]C(=O)c1ccccc1-c1cnc2ccccn12)c1ccccc1 (chirality)
C[C@H]([N-]C(=O)c1ccccc1-c1cnc2ccccn12)c1ccccc1 (3D coordinates assigned)
C[C@H]([N-]C(=O)c1ccccc1-c1cnc2ccccn12)c1ccccc1 (optimized conformer: 87.8105026618303 kcal/mol)

>  <smiles>  (46) 
CC(NC(=O)c1ccccc1-c1cnc2ccccn12)c1ccccc1

>  <score_type>  (46) 
oracle

>  <origin>  (46) 
adg

>  <m_score__min__energy>  (46) 
-10.17

>  <m_primary>  (46) 
energy

$$$$
46:0
     RDKit          3D

 49 49  0  0  0  0  0  0  0  0999 V2000
   56.1212   33.6314   44.9319 H   0  0  0  0  0  0  0  0  0  0  0  0
   57.0070   34.2180   45.2170 C   0  0  0  0  0  0  0  0  0  0  0  0
   57.1175   35.2540   44.8642 H   0  0  0  0  0  0  0  0  0  0  0  0
   57.9490   33.6720   45.9920 C   0  0  0  0  0  0  0  0  0  0  0  0
   59.1260   34.5030   46.3500 C   0  0  0  0  0  0  0  0  0  0  0  0
   58.9406   35.3933   46.9689 H   0  0  0  0  0  0  0  0  0  0  0  0
   60.3940   34.2660   45.9870 C   0  0  0  0  0  0  0  0  0  0  0  0
   60.6440   34.3907   44.9231 H   0  0  0  0  0  0  0  0  0  0  0  0
   61.4840   33.8520   46.8920 C   0  0  0  0  0  0  0  0  0  0  0  0
   61.1990   33.6390   48.2490 C   0  0  0  0  0  0  0  0  0  0  0  0
   60.1875   33.8372   48.6332 H   0  0  0  0  0  0  0  0  0  0  0  0
   62.1940   33.1760   49.1160 C   0  0  0  0  0  0  0  0  0  0  0  0
   61.9686   33.0347   50.1834 H   0  0  0  0  0  0  0  0  0  0  0  0
   63.4790   32.8910   48.6290 C   0  0  0  0  0  0  0  0  0  0  0  0
   64.5610   32.4410   49.5660 C   0  0  0  0  0  0  0  0  0  0  0  0
   64.2274   32.5797   50.6050 H   0  0  0  0  0  0  0  0  0  0  0  0
   64.7795   31.3774   49.3900 H   0  0  0  0  0  0  0  0  0  0  0  0
   65.4693   33.0360   49.3900 H   0  0  0  0  0  0  0  0  0  0  0  0
   63.7620   33.0910   47.2700 C   0  0  0  0  0  0  0  0  0  0  0  0
   64.7710   32.8832   46.8844 H   0  0  0  0  0  0  0  0  0  0  0  0
   62.7680   33.5530   46.4040 C   0  0  0  0  0  0  0  0  0  0  0  0
   62.9911   33.6835   45.3348 H   0  0  0  0  0  0  0  0  0  0  0  0
   57.8130   32.2170   46.4130 C   0  0  0  0  0  0  0  0  0  0  0  0
   58.4780   32.0412   47.2714 H   0  0  0  0  0  0  0  0  0  0  0  0
   56.7535   32.0535   46.6593 H   0  0  0  0  0  0  0  0  0  0  0  0
   58.1730   31.2160   45.3110 C   0  0  0  0  0  0  0  0  0  0  0  0
   57.4380   31.1370   44.1560 C   0  0  0  0  0  0  0  0  0  0  0  0
   56.2350   30.2230   44.0420 C   0  0  0  0  0  0  0  0  0  0  0  0
   55.8817   29.9546   45.0486 H   0  0  0  0  0  0  0  0  0  0  0  0
   55.4316   30.7406   43.4973 H   0  0  0  0  0  0  0  0  0  0  0  0
   56.5183   29.3103   43.4973 H   0  0  0  0  0  0  0  0  0  0  0  0
   57.8090   31.9370   42.9260 C   0  0  0  0  0  0  0  0  0  0  0  0
   58.2535   32.8955   43.2323 H   0  0  0  0  0  0  0  0  0  0  0  0
   58.5364   31.3706   42.3259 H   0  0  0  0  0  0  0  0  0  0  0  0
   56.9068   32.1264   42.3259 H   0  0  0  0  0  0  0  0  0  0  0  0
   59.3970   30.3280   45.5410 C   0  0  0  0  0  0  0  0  0  0  0  0
   59.0755   29.2773   45.4885 H   0  0  0  0  0  0  0  0  0  0  0  0
   60.1280   30.5899   44.7618 H   0  0  0  0  0  0  0  0  0  0  0  0
   60.0820   30.5480   46.8700 C   0  0  0  0  0  0  0  0  0  0  0  0
   60.9254   31.2537   46.8945 H   0  0  0  0  0  0  0  0  0  0  0  0
   59.7400   29.9460   48.0310 C   0  0  0  0  0  0  0  0  0  0  0  0
   59.3720   30.8130   49.2060 C   0  0  0  0  0  0  0  0  0  0  0  0
   59.5986   30.2792   50.1407 H   0  0  0  0  0  0  0  0  0  0  0  0
   59.9511   31.7475   49.1678 H   0  0  0  0  0  0  0  0  0  0  0  0
   58.2976   31.0456   49.1678 H   0  0  0  0  0  0  0  0  0  0  0  0
   59.7100   28.4470   48.1790 C   0  0  0  0  0  0  0  0  0  0  0  0
   59.7047   28.1840   49.2471 H   0  0  0  0  0  0  0  0  0  0  0  0
   58.8037   28.0492   47.6990 H   0  0  0  0  0  0  0  0  0  0  0  0
   60.5996   28.0133   47.6990 H   0  0  0  0  0  0  0  0  0  0  0  0
  1  2  1  0
  2  3  1  0
  2  4  2  0
  4  5  1  0
  5  6  1  0
  5  7  2  0
  7  8  1  0
  7  9  1  0
  9 10  2  0
 10 11  1  0
 10 12  1  0
 12 13  1  0
 12 14  2  0
 14 15  1  0
 15 16  1  0
 15 17  1  0
 15 18  1  0
 14 19  1  0
 19 20  1  0
 19 21  2  0
 21 22  1  0
  4 23  1  0
 23 24  1  0
 23 25  1  0
 23 26  1  0
 26 27  2  3
 27 28  1  0
 28 29  1  0
 28 30  1  0
 28 31  1  0
 27 32  1  0
 32 33  1  0
 32 34  1  0
 32 35  1  0
 26 36  1  0
 36 37  1  0
 36 38  1  0
 36 39  1  0
 39 40  1  0
 39 41  2  3
 41 42  1  0
 42 43  1  0
 42 44  1  0
 42 45  1  0
 41 46  1  0
 46 47  1  0
 46 48  1  0
 46 49  1  0
 21  9  1  0
M  END
>  <UniqueID>  (47) 
40

>  <SMILES>  (47) 
C=C(/C=C\c1ccc(C)cc1)CC(CC=C(C)C)=C(C)C

>  <Energy>  (47) 
49.44903993173519

>  <Genealogy>  (47) 
C=C(/C=C\c1ccc(C)cc1)CC(CC=C(C)C)=C(C)C (cis-trans isomerization)
C=C(/C=C\c1ccc(C)cc1)CC(CC=C(C)C)=C(C)C (3D coordinates assigned)
C=C(/C=C\c1ccc(C)cc1)CC(CC=C(C)C)=C(C)C (optimized conformer: 49.44903993173519 kcal/mol)

>  <smiles>  (47) 
C=C(C=Cc1ccc(C)cc1)CC(CC=C(C)C)=C(C)C

>  <score_type>  (47) 
oracle

>  <origin>  (47) 
adg

>  <m_score__min__energy>  (47) 
-7.3200000000000003

>  <m_primary>  (47) 
energy

$$$$
47:0
     RDKit          3D

 58 60  0  0  0  0  0  0  0  0999 V2000
   58.0870   26.7110   42.6110 C   0  0  0  0  0  0  0  0  0  0  0  0
   57.9800   27.3230   43.9400 N   0  0  0  0  0  0  0  0  0  0  0  0
   58.0310   26.4570   45.1250 C   0  0  0  0  0  0  0  0  0  0  0  0
   57.8450   28.7610   44.0830 C   0  0  0  0  0  0  0  0  0  0  0  0
   58.8510   29.5250   44.7080 C   0  0  0  0  0  0  0  0  0  0  0  0
   58.7230   30.9090   44.8380 C   0  0  0  0  0  0  0  0  0  0  0  0
   57.5980   31.5740   44.3250 C   0  0  0  0  0  0  0  0  0  0  0  0
   57.4530   33.0750   44.4830 C   0  0  0  0  0  0  0  0  0  0  0  0
   58.3970   33.7040   45.4440 N   0  0  1  0  0  0  0  0  0  0  0  0
   59.0150   34.9510   44.9580 C   0  0  0  0  0  0  0  0  0  0  0  0
   57.9000   33.7880   46.8420 C   0  0  0  0  0  0  0  0  0  0  0  0
   58.4820   32.7770   47.8080 C   0  0  0  0  0  0  0  0  0  0  0  0
   58.0580   32.7110   48.9900 O   0  0  0  0  0  0  0  0  0  0  0  0
   59.5390   31.8920   47.4110 N   0  0  0  0  0  0  0  0  0  0  0  0
   60.9360   32.2180   47.3420 C   0  0  0  0  0  0  0  0  0  0  0  0
   61.3700   33.4370   46.7890 C   0  0  0  0  0  0  0  0  0  0  0  0
   62.7290   33.7520   46.7520 C   0  0  0  0  0  0  0  0  0  0  0  0
   63.6680   32.8650   47.2810 C   0  0  0  0  0  0  0  0  0  0  0  0
   63.2480   31.6650   47.8570 C   0  0  0  0  0  0  0  0  0  0  0  0
   61.8830   31.3380   47.8980 C   0  0  0  0  0  0  0  0  0  0  0  0
   61.4600   30.1210   48.5300 N   0  0  0  0  0  0  0  0  0  0  0  0
   61.3310   30.0930   49.9900 C   0  0  0  0  0  0  0  0  0  0  0  0
   61.2830   28.6440   50.4810 C   0  0  0  0  0  0  0  0  0  0  0  0
   60.2920   27.9120   49.7850 O   0  0  0  0  0  0  0  0  0  0  0  0
   60.6460   27.8050   48.4180 C   0  0  0  0  0  0  0  0  0  0  0  0
   60.6590   29.1810   47.7450 C   0  0  0  0  0  0  0  0  0  0  0  0
   56.5740   30.8170   43.7380 C   0  0  0  0  0  0  0  0  0  0  0  0
   56.7000   29.4330   43.6080 C   0  0  0  0  0  0  0  0  0  0  0  0
   58.2756   25.6326   42.7180 H   0  0  0  0  0  0  0  0  0  0  0  0
   57.1481   26.8661   42.0592 H   0  0  0  0  0  0  0  0  0  0  0  0
   58.9176   27.1755   42.0592 H   0  0  0  0  0  0  0  0  0  0  0  0
   57.9945   27.0762   46.0335 H   0  0  0  0  0  0  0  0  0  0  0  0
   57.1717   25.7703   45.1146 H   0  0  0  0  0  0  0  0  0  0  0  0
   58.9649   25.8759   45.1146 H   0  0  0  0  0  0  0  0  0  0  0  0
   59.7490   29.0240   45.0986 H   0  0  0  0  0  0  0  0  0  0  0  0
   59.5108   31.4838   45.3470 H   0  0  0  0  0  0  0  0  0  0  0  0
   57.6115   33.5379   43.4978 H   0  0  0  0  0  0  0  0  0  0  0  0
   56.4451   33.2433   44.8903 H   0  0  0  0  0  0  0  0  0  0  0  0
   59.1970   33.0280   45.5020 H   0  0  0  0  0  0  0  0  0  0  0  0
   59.3205   35.5675   45.8162 H   0  0  0  0  0  0  0  0  0  0  0  0
   59.8975   34.7092   44.3476 H   0  0  0  0  0  0  0  0  0  0  0  0
   58.2881   35.5068   44.3476 H   0  0  0  0  0  0  0  0  0  0  0  0
   58.1330   34.7930   47.2237 H   0  0  0  0  0  0  0  0  0  0  0  0
   56.8233   33.5686   46.7911 H   0  0  0  0  0  0  0  0  0  0  0  0
   60.6334   34.1461   46.3833 H   0  0  0  0  0  0  0  0  0  0  0  0
   63.0608   34.7009   46.3052 H   0  0  0  0  0  0  0  0  0  0  0  0
   64.7393   33.1118   47.2439 H   0  0  0  0  0  0  0  0  0  0  0  0
   63.9898   30.9721   48.2808 H   0  0  0  0  0  0  0  0  0  0  0  0
   62.1943   30.6030   50.4423 H   0  0  0  0  0  0  0  0  0  0  0  0
   60.4021   30.6051   50.2814 H   0  0  0  0  0  0  0  0  0  0  0  0
   62.2632   28.1736   50.3139 H   0  0  0  0  0  0  0  0  0  0  0  0
   61.0361   28.6421   51.5529 H   0  0  0  0  0  0  0  0  0  0  0  0
   61.6475   27.3568   48.3398 H   0  0  0  0  0  0  0  0  0  0  0  0
   59.9008   27.1741   47.9114 H   0  0  0  0  0  0  0  0  0  0  0  0
   61.0912   29.0885   46.7377 H   0  0  0  0  0  0  0  0  0  0  0  0
   59.6275   29.5573   47.6785 H   0  0  0  0  0  0  0  0  0  0  0  0
   55.6638   31.3181   43.3769 H   0  0  0  0  0  0  0  0  0  0  0  0
   55.8943   28.8581   43.1280 H   0  0  0  0  0  0  0  0  0  0  0  0
  1  2  1  0
  2  3  1  0
  2  4  1  0
  4  5  2  0
  5  6  1  0
  6  7  2  0
  7  8  1  0
  8  9  1  0
  9 10  1  0
  9 11  1  0
 11 12  1  0
 12 13  2  0
 12 14  1  0
 14 15  1  0
 15 16  2  0
 16 17  1  0
 17 18  2  0
 18 19  1  0
 19 20  2  0
 20 21  1  0
 21 22  1  0
 22 23  1  0
 23 24  1  0
 24 25  1  0
 25 26  1  0
  7 27  1  0
 27 28  2  0
 28  4  1  0
 20 15  1  0
 26 21  1  0
  1 29  1  0
  1 30  1  0
  1 31  1  0
  3 32  1  0
  3 33  1  0
  3 34  1  0
  5 35  1  0
  6 36  1  0
  8 37  1  0
  8 38  1  0
  9 39  1  1
 10 40  1  0
 10 41  1  0
 10 42  1  0
 11 43  1  0
 11 44  1  0
 16 45  1  0
 17 46  1  0
 18 47  1  0
 19 48  1  0
 22 49  1  0
 22 50  1  0
 23 51  1  0
 23 52  1  0
 25 53  1  0
 25 54  1  0
 26 55  1  0
 26 56  1  0
 27 57  1  0
 28 58  1  0
M  CHG  2   9   1  14  -1
M  END
>  <UniqueID>  (48) 
41

>  <SMILES>  (48) 
CN(C)c1ccc(C[N@@H+](C)CC(=O)[N-]c2ccccc2N2CCOCC2)cc1

>  <Energy>  (48) 
78.20207024777936

>  <Genealogy>  (48) 
CN(C)c1ccc(C[NH+](C)CC(=O)[N-]c2ccccc2N2CCOCC2)cc1 (protonated)
CN(C)c1ccc(C[N@@H+](C)CC(=O)[N-]c2ccccc2N2CCOCC2)cc1 (chirality)
CN(C)c1ccc(C[N@@H+](C)CC(=O)[N-]c2ccccc2N2CCOCC2)cc1 (3D coordinates assigned)
CN(C)c1ccc(C[N@@H+](C)CC(=O)[N-]c2ccccc2N2CCOCC2)cc1 (nonaromatic ring conformer: 78.20207024777936 kcal/mol)

>  <smiles>  (48) 
CN(CC(=O)Nc1ccccc1N1CCOCC1)Cc1ccc(N(C)C)cc1

>  <score_type>  (48) 
oracle

>  <origin>  (48) 
adg

>  <m_score__min__energy>  (48) 
-7.0300000000000002

>  <m_primary>  (48) 
energy

$$$$
48:0
     RDKit          3D

 35 36  0  0  0  0  0  0  0  0999 V2000
   61.3870   33.8570   46.8170 C   0  0  0  0  0  0  0  0  0  0  0  0
   59.6870   34.2860   46.5210 S   0  0  0  0  0  0  0  0  0  0  0  0
   59.0260   34.6500   47.8220 O   0  0  0  0  0  0  0  0  0  0  0  0
   59.6190   35.4700   45.5980 O   0  0  0  0  0  0  0  0  0  0  0  0
   58.8570   32.9140   45.7950 C   0  0  0  0  0  0  0  0  0  0  0  0
   57.6950   33.1140   45.0380 C   0  0  0  0  0  0  0  0  0  0  0  0
   57.0250   32.0240   44.4760 C   0  0  0  0  0  0  0  0  0  0  0  0
   57.5080   30.7220   44.6720 C   0  0  0  0  0  0  0  0  0  0  0  0
   56.6590   29.3330   43.9960 S   0  0  0  0  0  0  0  0  0  0  0  0
   55.6200   29.7880   43.0090 O   0  0  0  0  0  0  0  0  0  0  0  0
   57.6530   28.4680   43.2740 O   0  0  0  0  0  0  0  0  0  0  0  0
   55.8970   28.3930   45.2490 N   0  0  0  0  0  0  0  0  0  0  0  0
   56.6210   27.1460   45.5040 C   0  0  0  0  0  0  0  0  0  0  0  0
   57.9660   27.4110   46.1270 C   0  0  0  0  0  0  0  0  0  0  0  0
   59.1430   27.1230   45.4140 C   0  0  0  0  0  0  0  0  0  0  0  0
   60.3930   27.3560   45.9940 C   0  0  0  0  0  0  0  0  0  0  0  0
   60.4780   27.8800   47.2870 C   0  0  0  0  0  0  0  0  0  0  0  0
   59.3140   28.1730   48.0010 C   0  0  0  0  0  0  0  0  0  0  0  0
   58.0610   27.9420   47.4240 C   0  0  0  0  0  0  0  0  0  0  0  0
   58.6660   30.5220   45.4360 C   0  0  0  0  0  0  0  0  0  0  0  0
   59.3360   31.6120   45.9970 C   0  0  0  0  0  0  0  0  0  0  0  0
   61.5702   33.8108   47.9007 H   0  0  0  0  0  0  0  0  0  0  0  0
   61.6015   32.8766   46.3667 H   0  0  0  0  0  0  0  0  0  0  0  0
   62.0410   34.6183   46.3667 H   0  0  0  0  0  0  0  0  0  0  0  0
   57.3088   34.1326   44.8855 H   0  0  0  0  0  0  0  0  0  0  0  0
   56.1162   32.1877   43.8782 H   0  0  0  0  0  0  0  0  0  0  0  0
   56.0272   26.5202   46.1865 H   0  0  0  0  0  0  0  0  0  0  0  0
   56.7785   26.6337   44.5434 H   0  0  0  0  0  0  0  0  0  0  0  0
   59.0798   26.7126   44.3954 H   0  0  0  0  0  0  0  0  0  0  0  0
   61.3107   27.1268   45.4325 H   0  0  0  0  0  0  0  0  0  0  0  0
   61.4626   28.0618   47.7426 H   0  0  0  0  0  0  0  0  0  0  0  0
   59.3827   28.5859   49.0182 H   0  0  0  0  0  0  0  0  0  0  0  0
   57.1464   28.1771   47.9881 H   0  0  0  0  0  0  0  0  0  0  0  0
   59.0487   29.5030   45.5945 H   0  0  0  0  0  0  0  0  0  0  0  0
   60.2420   31.4482   46.5990 H   0  0  0  0  0  0  0  0  0  0  0  0
  1  2  1  0
  2  3  2  0
  2  4  2  0
  2  5  1  0
  5  6  2  0
  6  7  1  0
  7  8  2  0
  8  9  1  0
  9 10  2  0
  9 11  2  0
  9 12  1  0
 12 13  1  0
 13 14  1  0
 14 15  2  0
 15 16  1  0
 16 17  2  0
 17 18  1  0
 18 19  2  0
  8 20  1  0
 20 21  2  0
 21  5  1  0
 19 14  1  0
  1 22  1  0
  1 23  1  0
  1 24  1  0
  6 25  1  0
  7 26  1  0
 13 27  1  0
 13 28  1  0
 15 29  1  0
 16 30  1  0
 17 31  1  0
 18 32  1  0
 19 33  1  0
 20 34  1  0
 21 35  1  0
M  CHG  1  12  -1
M  END
>  <UniqueID>  (49) 
42

>  <SMILES>  (49) 
CS(=O)(=O)c1ccc(S(=O)(=O)[N-]Cc2ccccc2)cc1

>  <Energy>  (49) 
30.970493251018297

>  <Genealogy>  (49) 
CS(=O)(=O)c1ccc(S(=O)(=O)[N-]Cc2ccccc2)cc1 (protonated)
CS(=O)(=O)c1ccc(S(=O)(=O)[N-]Cc2ccccc2)cc1 (3D coordinates assigned)
CS(=O)(=O)c1ccc(S(=O)(=O)[N-]Cc2ccccc2)cc1 (optimized conformer: 30.970493251018297 kcal/mol)

>  <smiles>  (49) 
CS(=O)(=O)c1ccc(S(=O)(=O)NCc2ccccc2)cc1

>  <score_type>  (49) 
oracle

>  <origin>  (49) 
adg

>  <m_score__min__energy>  (49) 
-8.9399999999999995

>  <m_primary>  (49) 
energy

$$$$
49:0
     RDKit          3D

 59 61  0  0  0  0  0  0  0  0999 V2000
   60.6250   29.8270   47.5370 C   0  0  0  0  0  0  0  0  0  0  0  0
   59.5100   30.2720   46.7460 O   0  0  0  0  0  0  0  0  0  0  0  0
   58.5900   29.2990   46.3780 C   0  0  0  0  0  0  0  0  0  0  0  0
   58.7270   27.9670   46.6960 C   0  0  0  0  0  0  0  0  0  0  0  0
   57.7990   27.0230   46.3180 C   0  0  0  0  0  0  0  0  0  0  0  0
   57.8800   25.5870   46.6160 C   0  0  0  0  0  0  0  0  0  0  0  0
   57.2950   24.7020   45.5870 C   0  0  0  0  0  0  0  0  0  0  0  0
   58.1290   23.9120   44.8030 C   0  0  0  0  0  0  0  0  0  0  0  0
   57.6580   23.0880   43.8470 N   0  0  0  0  0  0  0  0  0  0  0  0
   56.3380   23.0190   43.6320 C   0  0  0  0  0  0  0  0  0  0  0  0
   55.8520   22.2330   42.7120 N   0  0  0  0  0  0  0  0  0  0  0  0
   55.4840   23.7600   44.3600 N   0  0  0  0  0  0  0  0  0  0  0  0
   55.9450   24.6000   45.3340 C   0  0  0  0  0  0  0  0  0  0  0  0
   55.1010   25.2760   45.9990 N   0  0  0  0  0  0  0  0  0  0  0  0
   56.7070   27.4910   45.5920 C   0  0  0  0  0  0  0  0  0  0  0  0
   56.5230   28.7930   45.2490 C   0  0  0  0  0  0  0  0  0  0  0  0
   55.4100   29.1990   44.5210 O   0  0  0  0  0  0  0  0  0  0  0  0
   55.6470   29.7340   43.2310 C   0  0  0  0  0  0  0  0  0  0  0  0
   57.4890   29.7180   45.6550 C   0  0  0  0  0  0  0  0  0  0  0  0
   57.2720   31.0310   45.2910 O   0  0  0  0  0  0  0  0  0  0  0  0
   58.2060   31.5680   44.3410 C   0  0  0  0  0  0  0  0  0  0  0  0
   57.7680   32.9990   44.0200 C   0  0  0  0  0  0  0  0  0  0  0  0
   58.9060   33.8840   44.4860 C   0  0  0  0  0  0  0  0  0  0  0  0
   58.5750   34.7410   45.5070 O   0  0  0  0  0  0  0  0  0  0  0  0
   59.6430   35.0400   46.3480 C   0  0  0  0  0  0  0  0  0  0  0  0
   59.5120   34.1500   47.5480 C   0  0  0  0  0  0  0  0  0  0  0  0
   60.4040   34.3280   48.5870 C   0  0  0  0  0  0  0  0  0  0  0  0
   60.2760   33.5040   49.6920 C   0  0  0  0  0  0  0  0  0  0  0  0
   59.2850   32.5300   49.7550 C   0  0  0  0  0  0  0  0  0  0  0  0
   58.4030   32.3670   48.7060 C   0  0  0  0  0  0  0  0  0  0  0  0
   58.5250   33.1900   47.5940 C   0  0  0  0  0  0  0  0  0  0  0  0
   60.3794   29.9250   48.6047 H   0  0  0  0  0  0  0  0  0  0  0  0
   60.8414   28.7736   47.3057 H   0  0  0  0  0  0  0  0  0  0  0  0
   61.5073   30.4419   47.3057 H   0  0  0  0  0  0  0  0  0  0  0  0
   59.6077   27.6459   47.2716 H   0  0  0  0  0  0  0  0  0  0  0  0
   58.9413   25.3216   46.7311 H   0  0  0  0  0  0  0  0  0  0  0  0
   57.2888   25.4287   47.5300 H   0  0  0  0  0  0  0  0  0  0  0  0
   59.2151   23.9619   44.9700 H   0  0  0  0  0  0  0  0  0  0  0  0
   58.2640   22.4860   43.2460 H   0  0  0  0  0  0  0  0  0  0  0  0
   56.0460   22.4360   41.7080 H   0  0  0  0  0  0  0  0  0  0  0  0
   54.4310   23.7240   44.2110 H   0  0  0  0  0  0  0  0  0  0  0  0
   54.5330   24.8510   46.7480 H   0  0  0  0  0  0  0  0  0  0  0  0
   55.9462   26.7618   45.2766 H   0  0  0  0  0  0  0  0  0  0  0  0
   56.0909   30.7360   43.3255 H   0  0  0  0  0  0  0  0  0  0  0  0
   56.3383   29.0769   42.6829 H   0  0  0  0  0  0  0  0  0  0  0  0
   54.6959   29.8045   42.6829 H   0  0  0  0  0  0  0  0  0  0  0  0
   59.2181   31.5732   44.7718 H   0  0  0  0  0  0  0  0  0  0  0  0
   58.2237   30.9552   43.4277 H   0  0  0  0  0  0  0  0  0  0  0  0
   57.6062   33.1182   42.9385 H   0  0  0  0  0  0  0  0  0  0  0  0
   56.8206   33.2570   44.5158 H   0  0  0  0  0  0  0  0  0  0  0  0
   59.7259   33.2372   44.8315 H   0  0  0  0  0  0  0  0  0  0  0  0
   59.1884   34.5114   43.6277 H   0  0  0  0  0  0  0  0  0  0  0  0
   60.5958   34.8449   45.8341 H   0  0  0  0  0  0  0  0  0  0  0  0
   59.6306   36.1005   46.6399 H   0  0  0  0  0  0  0  0  0  0  0  0
   61.1886   35.0974   48.5383 H   0  0  0  0  0  0  0  0  0  0  0  0
   60.9712   33.6218   50.5363 H   0  0  0  0  0  0  0  0  0  0  0  0
   59.2040   31.8873   50.6441 H   0  0  0  0  0  0  0  0  0  0  0  0
   57.6171   31.5986   48.7499 H   0  0  0  0  0  0  0  0  0  0  0  0
   57.8317   33.0750   46.7477 H   0  0  0  0  0  0  0  0  0  0  0  0
  1  2  1  0
  2  3  1  0
  3  4  2  0
  4  5  1  0
  5  6  1  0
  6  7  1  0
  7  8  2  0
  8  9  1  0
  9 10  1  0
 10 11  2  3
 10 12  1  0
 12 13  1  0
 13 14  2  3
  5 15  2  0
 15 16  1  0
 16 17  1  0
 17 18  1  0
 16 19  2  0
 19 20  1  0
 20 21  1  0
 21 22  1  0
 22 23  1  0
 23 24  1  0
 24 25  1  0
 25 26  1  0
 26 27  2  0
 27 28  1  0
 28 29  2  0
 29 30  1  0
 30 31  2  0
 19  3  1  0
 31 26  1  0
 13  7  1  0
  1 32  1  0
  1 33  1  0
  1 34  1  0
  4 35  1  0
  6 36  1  0
  6 37  1  0
  8 38  1  0
  9 39  1  0
 11 40  1  0
 12 41  1  0
 14 42  1  0
 15 43  1  0
 18 44  1  0
 18 45  1  0
 18 46  1  0
 21 47  1  0
 21 48  1  0
 22 49  1  0
 22 50  1  0
 23 51  1  0
 23 52  1  0
 25 53  1  0
 25 54  1  0
 27 55  1  0
 28 56  1  0
 29 57  1  0
 30 58  1  0
 31 59  1  0
M  END
>  <smiles>  (50) 
COc1cc(Cc2c[nH]c(=N)[nH]c2=N)cc(OC)c1OCCCOCc1ccccc1

>  <score_type>  (50) 
oracle

>  <origin>  (50) 
adg

>  <m_score__min__energy>  (50) 
-8.8399999999999999

>  <m_primary>  (50) 
energy

$$$$
50:0
     RDKit          3D

 41 43  0  0  0  0  0  0  0  0999 V2000
   57.3651   25.9570   44.5727 H   0  0  0  0  0  0  0  0  0  0  0  0
   56.9940   26.6980   45.2960 C   0  0  0  0  0  0  0  0  0  0  0  0
   58.0690   32.8170   45.3140 C   0  0  0  0  0  0  0  0  0  0  0  0
   58.0450   32.7860   46.7160 C   0  0  0  0  0  0  0  0  0  0  0  0
   57.5658   31.9443   47.2375 H   0  0  0  0  0  0  0  0  0  0  0  0
   58.6280   33.8210   47.4530 C   0  0  0  0  0  0  0  0  0  0  0  0
   58.5916   33.8002   48.5522 H   0  0  0  0  0  0  0  0  0  0  0  0
   59.2570   34.8820   46.7960 C   0  0  0  0  0  0  0  0  0  0  0  0
   59.7094   35.6987   47.3777 H   0  0  0  0  0  0  0  0  0  0  0  0
   59.3110   34.9050   45.3990 C   0  0  0  0  0  0  0  0  0  0  0  0
   59.8116   35.7370   44.8821 H   0  0  0  0  0  0  0  0  0  0  0  0
   58.7290   33.8710   44.6580 C   0  0  0  0  0  0  0  0  0  0  0  0
   58.7878   33.8826   43.5596 H   0  0  0  0  0  0  0  0  0  0  0  0
   57.4980   27.9450   45.1810 C   0  0  0  0  0  0  0  0  0  0  0  0
   56.4960   29.2350   44.7810 S   0  0  0  0  0  0  0  0  0  0  0  0
   57.7050   30.3930   44.8280 C   0  0  0  0  0  0  0  0  0  0  0  0
   57.4960   31.6910   44.5530 C   0  0  0  0  0  0  0  0  0  0  0  0
   56.8493   31.9322   43.6965 H   0  0  0  0  0  0  0  0  0  0  0  0
   56.0100   26.2130   46.2710 C   0  0  0  0  0  0  0  0  0  0  0  0
   56.3750   25.5830   47.2950 O   0  0  0  0  0  0  0  0  0  0  0  0
   54.6560   26.3370   45.9910 O   0  0  0  0  0  0  0  0  0  0  0  0
   58.7850   28.3820   45.3840 N   0  0  0  0  0  0  0  0  0  0  0  0
   59.9210   27.6180   45.9310 C   0  0  0  0  0  0  0  0  0  0  0  0
   59.8998   26.5984   45.5188 H   0  0  0  0  0  0  0  0  0  0  0  0
   60.8533   28.1297   45.6501 H   0  0  0  0  0  0  0  0  0  0  0  0
   59.8500   27.5410   47.4630 C   0  0  0  0  0  0  0  0  0  0  0  0
   58.9080   27.0548   47.7567 H   0  0  0  0  0  0  0  0  0  0  0  0
   60.7098   26.9599   47.8277 H   0  0  0  0  0  0  0  0  0  0  0  0
   59.9050   28.9180   48.0690 C   0  0  0  0  0  0  0  0  0  0  0  0
   58.8580   29.3690   48.8900 C   0  0  0  0  0  0  0  0  0  0  0  0
   57.9857   28.7233   49.0694 H   0  0  0  0  0  0  0  0  0  0  0  0
   58.9200   30.6350   49.4800 C   0  0  0  0  0  0  0  0  0  0  0  0
   58.0950   30.9853   50.1177 H   0  0  0  0  0  0  0  0  0  0  0  0
   60.0300   31.4560   49.2600 C   0  0  0  0  0  0  0  0  0  0  0  0
   60.0766   32.4529   49.7226 H   0  0  0  0  0  0  0  0  0  0  0  0
   61.0800   31.0110   48.4530 C   0  0  0  0  0  0  0  0  0  0  0  0
   61.9543   31.6567   48.2836 H   0  0  0  0  0  0  0  0  0  0  0  0
   61.0210   29.7450   47.8600 C   0  0  0  0  0  0  0  0  0  0  0  0
   61.8512   29.3963   47.2282 H   0  0  0  0  0  0  0  0  0  0  0  0
   58.8940   29.7350   45.1680 C   0  0  0  0  0  0  0  0  0  0  0  0
   59.9990   30.3340   45.2690 O   0  0  0  0  0  0  0  0  0  0  0  0
  1  2  1  0
  2  3  1  0
  3  4  2  0
  4  5  1  0
  4  6  1  0
  6  7  1  0
  6  8  2  0
  8  9  1  0
  8 10  1  0
 10 11  1  0
 10 12  2  0
 12 13  1  0
  2 14  2  0
 14 15  1  0
 15 16  1  0
 16 17  2  0
 17 18  1  0
 17 19  1  0
 19 20  2  0
 19 21  1  0
 16 22  1  0
 22 23  1  0
 23 24  1  0
 23 25  1  0
 23 26  1  0
 26 27  1  0
 26 28  1  0
 26 29  1  0
 29 30  2  0
 30 31  1  0
 30 32  1  0
 32 33  1  0
 32 34  2  0
 34 35  1  0
 34 36  1  0
 36 37  1  0
 36 38  2  0
 38 39  1  0
 22 40  1  0
 40 41  2  0
 12  3  1  0
 40 14  1  0
 38 29  1  0
M  CHG  1  21  -1
M  END
>  <UniqueID>  (51) 
43

>  <SMILES>  (51) 
O=C([O-])/C=c1/s/c(=C/c2ccccc2)c(=O)n1CCc1ccccc1

>  <Energy>  (51) 
95.17520954639392

>  <Genealogy>  (51) 
O=C([O-])C=c1sc(=Cc2ccccc2)c(=O)n1CCc1ccccc1 (protonated)
O=C([O-])/C=c1/s/c(=C/c2ccccc2)c(=O)n1CCc1ccccc1 (cis-trans isomerization)
O=C([O-])/C=c1/s/c(=C/c2ccccc2)c(=O)n1CCc1ccccc1 (3D coordinates assigned)
O=C([O-])/C=c1/s/c(=C/c2ccccc2)c(=O)n1CCc1ccccc1 (optimized conformer: 95.17520954639392 kcal/mol)

>  <smiles>  (51) 
O=C(O)C=c1sc(=Cc2ccccc2)c(=O)n1CCc1ccccc1

>  <score_type>  (51) 
oracle

>  <origin>  (51) 
adg

>  <m_score__min__energy>  (51) 
-10.76

>  <m_primary>  (51) 
energy

$$$$
51:0
     RDKit          3D

 36 38  0  0  0  0  0  0  0  0999 V2000
   55.5460   29.2840   44.9910 O   0  0  0  0  0  0  0  0  0  0  0  0
   56.5420   30.0470   44.8800 C   0  0  0  0  0  0  0  0  0  0  0  0
   56.3130   31.4460   44.6600 N   0  0  0  0  0  0  0  0  0  0  0  0
   57.2210   32.5110   44.9820 C   0  0  0  0  0  0  0  0  0  0  0  0
   57.2500   33.0810   46.2680 C   0  0  0  0  0  0  0  0  0  0  0  0
   58.1430   34.1150   46.5610 C   0  0  0  0  0  0  0  0  0  0  0  0
   59.0210   34.5810   45.5810 C   0  0  0  0  0  0  0  0  0  0  0  0
   59.0150   34.0050   44.3070 C   0  0  0  0  0  0  0  0  0  0  0  0
   58.1250   32.9680   44.0070 C   0  0  0  0  0  0  0  0  0  0  0  0
   58.1350   32.2710   42.3930 Cl  0  0  0  0  0  0  0  0  0  0  0  0
   57.9070   29.4880   45.0310 C   0  0  0  0  0  0  0  0  0  0  0  0
   58.3050   28.3800   44.2650 C   0  0  0  0  0  0  0  0  0  0  0  0
   59.5880   27.8480   44.4080 C   0  0  0  0  0  0  0  0  0  0  0  0
   60.4880   28.4170   45.3110 C   0  0  0  0  0  0  0  0  0  0  0  0
   60.1140   29.5280   46.0800 C   0  0  0  0  0  0  0  0  0  0  0  0
   61.0510   30.0900   47.0150 N   0  0  0  0  0  0  0  0  0  0  0  0
   61.2190   31.5030   47.2200 C   0  0  0  0  0  0  0  0  0  0  0  0
   60.7830   32.3250   46.3680 O   0  0  0  0  0  0  0  0  0  0  0  0
   61.9360   32.0170   48.3970 C   0  0  0  0  0  0  0  0  0  0  0  0
   62.0870   33.3430   48.7620 C   0  0  0  0  0  0  0  0  0  0  0  0
   62.8350   33.3280   49.9180 C   0  0  0  0  0  0  0  0  0  0  0  0
   63.0970   32.0010   50.1890 C   0  0  0  0  0  0  0  0  0  0  0  0
   62.5500   31.2450   49.2650 O   0  0  0  0  0  0  0  0  0  0  0  0
   58.8100   30.0380   45.9580 C   0  0  0  0  0  0  0  0  0  0  0  0
   56.5665   32.7109   47.0464 H   0  0  0  0  0  0  0  0  0  0  0  0
   58.1541   34.5626   47.5658 H   0  0  0  0  0  0  0  0  0  0  0  0
   59.7173   35.4010   45.8109 H   0  0  0  0  0  0  0  0  0  0  0  0
   59.7124   34.3684   43.5379 H   0  0  0  0  0  0  0  0  0  0  0  0
   57.6023   27.9291   43.5488 H   0  0  0  0  0  0  0  0  0  0  0  0
   59.8907   26.9777   43.8072 H   0  0  0  0  0  0  0  0  0  0  0  0
   61.4964   27.9912   45.4197 H   0  0  0  0  0  0  0  0  0  0  0  0
   61.7150   29.4380   47.4900 H   0  0  0  0  0  0  0  0  0  0  0  0
   61.6917   34.2256   48.2378 H   0  0  0  0  0  0  0  0  0  0  0  0
   63.1585   34.1989   50.5069 H   0  0  0  0  0  0  0  0  0  0  0  0
   63.6761   31.6322   51.0484 H   0  0  0  0  0  0  0  0  0  0  0  0
   58.4923   30.8768   46.5948 H   0  0  0  0  0  0  0  0  0  0  0  0
  1  2  2  0
  2  3  1  0
  3  4  1  0
  4  5  2  0
  5  6  1  0
  6  7  2  0
  7  8  1  0
  8  9  2  0
  9 10  1  0
  2 11  1  0
 11 12  2  0
 12 13  1  0
 13 14  2  0
 14 15  1  0
 15 16  1  0
 16 17  1  0
 17 18  2  0
 17 19  1  0
 19 20  2  0
 20 21  1  0
 21 22  2  0
 22 23  1  0
 15 24  2  0
  9  4  1  0
 24 11  1  0
 23 19  1  0
  5 25  1  0
  6 26  1  0
  7 27  1  0
  8 28  1  0
 12 29  1  0
 13 30  1  0
 14 31  1  0
 16 32  1  0
 20 33  1  0
 21 34  1  0
 22 35  1  0
 24 36  1  0
M  CHG  1   3  -1
M  END
>  <UniqueID>  (52) 
44

>  <SMILES>  (52) 
O=C([N-]c1ccccc1Cl)c1cccc(NC(=O)c2ccco2)c1

>  <Energy>  (52) 
73.74466106495396

>  <Genealogy>  (52) 
O=C([N-]c1ccccc1Cl)c1cccc(NC(=O)c2ccco2)c1 (protonated)
O=C([N-]c1ccccc1Cl)c1cccc(NC(=O)c2ccco2)c1 (3D coordinates assigned)
O=C([N-]c1ccccc1Cl)c1cccc(NC(=O)c2ccco2)c1 (optimized conformer: 73.74466106495396 kcal/mol)

>  <smiles>  (52) 
O=C(Nc1ccccc1Cl)c1cccc(NC(=O)c2ccco2)c1

>  <score_type>  (52) 
oracle

>  <origin>  (52) 
adg

>  <m_score__min__energy>  (52) 
-9.75

>  <m_primary>  (52) 
energy

$$$$
52:0
     RDKit          3D

 53 57  0  0  0  0  0  0  0  0999 V2000
   60.6540   31.5780   49.3580 O   0  0  0  0  0  0  0  0  0  0  0  0
   59.8920   31.1040   48.4740 C   0  0  0  0  0  0  0  0  0  0  0  0
   59.1490   29.9010   48.7170 N   0  0  0  0  0  0  0  0  0  0  0  0
   59.2720   28.6630   48.0030 C   0  0  0  0  0  0  0  0  0  0  0  0
   60.5580   28.0860   47.8730 C   0  0  0  0  0  0  0  0  0  0  0  0
   60.7390   26.8630   47.2020 C   0  0  0  0  0  0  0  0  0  0  0  0
   59.6130   26.2300   46.6820 C   0  0  0  0  0  0  0  0  0  0  0  0
   59.5720   25.0540   46.0190 N   0  0  0  0  0  0  0  0  0  0  0  0
   58.2640   24.8610   45.7420 C   0  0  0  0  0  0  0  0  0  0  0  0
   57.6960   23.7820   45.0680 C   0  0  0  0  0  0  0  0  0  0  0  0
   56.3000   23.7780   44.8880 C   0  0  0  0  0  0  0  0  0  0  0  0
   55.5080   24.8400   45.3800 C   0  0  0  0  0  0  0  0  0  0  0  0
   56.1030   25.9190   46.0590 C   0  0  0  0  0  0  0  0  0  0  0  0
   57.4870   25.8970   46.2210 C   0  0  0  0  0  0  0  0  0  0  0  0
   58.3560   26.7780   46.8230 C   0  0  0  0  0  0  0  0  0  0  0  0
   58.1430   27.9870   47.4830 C   0  0  0  0  0  0  0  0  0  0  0  0
   59.7280   31.8310   47.1640 C   0  0  2  0  0  0  0  0  0  0  0  0
   60.7240   33.0090   47.0530 C   0  0  0  0  0  0  0  0  0  0  0  0
   60.0330   34.3570   47.2280 C   0  0  0  0  0  0  0  0  0  0  0  0
   58.9540   34.5340   46.1520 C   0  0  0  0  0  0  0  0  0  0  0  0
   58.0700   33.3530   46.0070 N   0  0  0  0  0  0  0  0  0  0  0  0
   57.7710   32.9440   44.6170 C   0  0  0  0  0  0  0  0  0  0  0  0
   57.5630   31.4550   44.4560 C   0  0  0  0  0  0  0  0  0  0  0  0
   58.6700   30.5940   44.3510 C   0  0  0  0  0  0  0  0  0  0  0  0
   58.4830   29.2190   44.1850 C   0  0  0  0  0  0  0  0  0  0  0  0
   57.1920   28.6890   44.1320 C   0  0  0  0  0  0  0  0  0  0  0  0
   56.0850   29.5330   44.2550 C   0  0  0  0  0  0  0  0  0  0  0  0
   54.8310   29.0160   44.2170 F   0  0  0  0  0  0  0  0  0  0  0  0
   56.2680   30.9100   44.4230 C   0  0  0  0  0  0  0  0  0  0  0  0
   58.2470   32.2600   46.9870 C   0  0  0  0  0  0  0  0  0  0  0  0
   61.4291   28.6018   48.3032 H   0  0  0  0  0  0  0  0  0  0  0  0
   61.7398   26.4201   47.0914 H   0  0  0  0  0  0  0  0  0  0  0  0
   60.3730   24.4270   45.7820 H   0  0  0  0  0  0  0  0  0  0  0  0
   58.3191   22.9588   44.6883 H   0  0  0  0  0  0  0  0  0  0  0  0
   55.8211   22.9405   44.3595 H   0  0  0  0  0  0  0  0  0  0  0  0
   54.4183   24.8229   45.2310 H   0  0  0  0  0  0  0  0  0  0  0  0
   55.4972   26.7506   46.4482 H   0  0  0  0  0  0  0  0  0  0  0  0
   57.1305   28.4019   47.5959 H   0  0  0  0  0  0  0  0  0  0  0  0
   59.9732   31.1545   46.3320 H   0  0  0  0  0  0  0  0  0  0  0  0
   61.4924   32.8995   47.8325 H   0  0  0  0  0  0  0  0  0  0  0  0
   61.1713   32.9834   46.0484 H   0  0  0  0  0  0  0  0  0  0  0  0
   59.5665   34.4013   48.2232 H   0  0  0  0  0  0  0  0  0  0  0  0
   60.7773   35.1610   47.1303 H   0  0  0  0  0  0  0  0  0  0  0  0
   58.3345   35.4030   46.4187 H   0  0  0  0  0  0  0  0  0  0  0  0
   59.4719   34.6727   45.1915 H   0  0  0  0  0  0  0  0  0  0  0  0
   56.8557   33.4602   44.2918 H   0  0  0  0  0  0  0  0  0  0  0  0
   58.6441   33.2159   44.0057 H   0  0  0  0  0  0  0  0  0  0  0  0
   59.6891   31.0052   44.3998 H   0  0  0  0  0  0  0  0  0  0  0  0
   59.3540   28.5532   44.0959 H   0  0  0  0  0  0  0  0  0  0  0  0
   57.0466   27.6075   43.9935 H   0  0  0  0  0  0  0  0  0  0  0  0
   55.3939   31.5692   44.5298 H   0  0  0  0  0  0  0  0  0  0  0  0
   57.8622   32.5977   47.9606 H   0  0  0  0  0  0  0  0  0  0  0  0
   57.6973   31.3869   46.6055 H   0  0  0  0  0  0  0  0  0  0  0  0
  1  2  2  0
  2  3  1  0
  3  4  1  0
  4  5  2  0
  5  6  1  0
  6  7  2  0
  7  8  1  0
  8  9  1  0
  9 10  2  0
 10 11  1  0
 11 12  2  0
 12 13  1  0
 13 14  2  0
 14 15  1  0
 15 16  2  0
  2 17  1  0
 17 18  1  0
 18 19  1  0
 19 20  1  0
 20 21  1  0
 21 22  1  0
 22 23  1  0
 23 24  2  0
 24 25  1  0
 25 26  2  0
 26 27  1  0
 27 28  1  0
 27 29  2  0
 21 30  1  0
 16  4  1  0
 30 17  1  0
 15  7  1  0
 29 23  1  0
 14  9  1  0
  5 31  1  0
  6 32  1  0
  8 33  1  0
 10 34  1  0
 11 35  1  0
 12 36  1  0
 13 37  1  0
 16 38  1  0
 17 39  1  6
 18 40  1  0
 18 41  1  0
 19 42  1  0
 19 43  1  0
 20 44  1  0
 20 45  1  0
 22 46  1  0
 22 47  1  0
 24 48  1  0
 25 49  1  0
 26 50  1  0
 29 51  1  0
 30 52  1  0
 30 53  1  0
M  CHG  1   3  -1
M  END
>  <UniqueID>  (53) 
45

>  <SMILES>  (53) 
O=C([N-]c1ccc2[nH]c3ccccc3c2c1)[C@@H]1CCCN(Cc2cccc(F)c2)C1

>  <Energy>  (53) 
114.29149853159434

>  <Genealogy>  (53) 
O=C([N-]c1ccc2[nH]c3ccccc3c2c1)C1CCCN(Cc2cccc(F)c2)C1 (protonated)
O=C([N-]c1ccc2[nH]c3ccccc3c2c1)[C@@H]1CCCN(Cc2cccc(F)c2)C1 (chirality)
O=C([N-]c1ccc2[nH]c3ccccc3c2c1)[C@@H]1CCCN(Cc2cccc(F)c2)C1 (3D coordinates assigned)
O=C([N-]c1ccc2[nH]c3ccccc3c2c1)[C@@H]1CCCN(Cc2cccc(F)c2)C1 (nonaromatic ring conformer: 114.29149853159434 kcal/mol)

>  <smiles>  (53) 
O=C(Nc1ccc2[nH]c3ccccc3c2c1)C1CCCN(Cc2cccc(F)c2)C1

>  <score_type>  (53) 
oracle

>  <origin>  (53) 
adg

>  <m_score__min__energy>  (53) 
-11.18

>  <m_primary>  (53) 
energy

$$$$
53:0
     RDKit          3D

 49 52  0  0  1  0  0  0  0  0999 V2000
   55.2810   29.7200   43.7570 C   0  0  0  0  0  0  0  0  0  0  0  0
   55.6280   29.0000   44.9020 O   0  0  0  0  0  0  0  0  0  0  0  0
   56.9550   28.6720   45.1200 C   0  0  0  0  0  0  0  0  0  0  0  0
   57.8210   28.5300   44.0500 C   0  0  0  0  0  0  0  0  0  0  0  0
   59.1540   28.2040   44.2030 C   0  0  0  0  0  0  0  0  0  0  0  0
   59.6250   28.0150   45.4770 C   0  0  0  0  0  0  0  0  0  0  0  0
   58.7870   28.1480   46.5640 C   0  0  0  0  0  0  0  0  0  0  0  0
   59.3120   27.9420   47.8850 N   0  0  0  0  0  0  0  0  0  0  0  0
   59.7180   28.9310   48.6060 C   0  0  0  0  0  0  0  0  0  0  0  0
   58.8990   29.2720   49.6830 C   0  0  0  0  0  0  0  0  0  0  0  0
   59.3280   30.3280   50.4580 C   0  0  0  0  0  0  0  0  0  0  0  0
   58.3460   30.8150   51.8330 Cl  0  0  0  0  0  0  0  0  0  0  0  0
   60.4760   30.9570   50.1500 N   0  0  0  0  0  0  0  0  0  0  0  0
   61.2600   30.6320   49.1200 C   0  0  0  0  0  0  0  0  0  0  0  0
   62.7690   31.4450   48.6800 S   0  0  0  0  0  0  0  0  0  0  0  0
   62.4710   33.1810   48.3690 C   0  0  2  0  0  0  0  0  0  0  0  0
   62.5230   33.9220   49.6530 C   0  0  0  0  0  0  0  0  0  0  0  0
   62.9780   35.0710   49.8010 O   0  0  0  0  0  0  0  0  0  0  0  0
   62.0190   33.2640   50.7730 O   0  0  0  0  0  0  0  0  0  0  0  0
   61.1580   33.4040   47.6790 C   0  0  0  0  0  0  0  0  0  0  0  0
   60.4640   34.5930   47.9310 C   0  0  0  0  0  0  0  0  0  0  0  0
   59.2560   34.8140   47.3040 C   0  0  0  0  0  0  0  0  0  0  0  0
   58.7340   33.8600   46.4300 C   0  0  0  0  0  0  0  0  0  0  0  0
   57.5130   34.1030   45.8080 C   0  0  0  0  0  0  0  0  0  0  0  0
   56.9720   33.1670   44.9310 C   0  0  0  0  0  0  0  0  0  0  0  0
   57.6930   31.9930   44.7060 C   0  0  0  0  0  0  0  0  0  0  0  0
   58.9090   31.7580   45.3270 C   0  0  0  0  0  0  0  0  0  0  0  0
   59.4530   32.6970   46.2080 C   0  0  0  0  0  0  0  0  0  0  0  0
   60.6640   32.4470   46.8200 C   0  0  0  0  0  0  0  0  0  0  0  0
   60.8570   29.5990   48.3480 N   0  0  0  0  0  0  0  0  0  0  0  0
   57.4420   28.4780   46.3970 C   0  0  0  0  0  0  0  0  0  0  0  0
   54.8207   30.6751   44.0500 H   0  0  0  0  0  0  0  0  0  0  0  0
   56.1836   29.9160   43.1595 H   0  0  0  0  0  0  0  0  0  0  0  0
   54.5654   29.1361   43.1595 H   0  0  0  0  0  0  0  0  0  0  0  0
   57.4304   28.6835   43.0332 H   0  0  0  0  0  0  0  0  0  0  0  0
   59.8166   28.0993   43.3313 H   0  0  0  0  0  0  0  0  0  0  0  0
   60.6822   27.7546   45.6334 H   0  0  0  0  0  0  0  0  0  0  0  0
   57.9666   28.7304   49.9006 H   0  0  0  0  0  0  0  0  0  0  0  0
   60.7570   31.7410   50.7720 H   0  0  0  0  0  0  0  0  0  0  0  0
   63.2550   33.5561   47.6947 H   0  0  0  0  0  0  0  0  0  0  0  0
   62.6590   32.6000   51.2320 H   0  0  0  0  0  0  0  0  0  0  0  0
   60.8776   35.3428   48.6215 H   0  0  0  0  0  0  0  0  0  0  0  0
   58.7022   35.7453   47.4935 H   0  0  0  0  0  0  0  0  0  0  0  0
   56.9726   35.0395   46.0104 H   0  0  0  0  0  0  0  0  0  0  0  0
   56.0083   33.3465   44.4319 H   0  0  0  0  0  0  0  0  0  0  0  0
   57.2859   31.2363   44.0192 H   0  0  0  0  0  0  0  0  0  0  0  0
   59.4519   30.8229   45.1247 H   0  0  0  0  0  0  0  0  0  0  0  0
   61.2163   31.5152   46.6285 H   0  0  0  0  0  0  0  0  0  0  0  0
   56.7798   28.5820   47.2692 H   0  0  0  0  0  0  0  0  0  0  0  0
  1  2  1  0
  2  3  1  0
  3  4  2  0
  4  5  1  0
  5  6  2  0
  6  7  1  0
  7  8  1  0
  8  9  2  0
  9 10  1  0
 10 11  2  0
 11 12  1  0
 11 13  1  0
 13 14  1  0
 14 15  1  0
 15 16  1  0
 16 17  1  0
 17 18  2  0
 17 19  1  0
 16 20  1  0
 20 21  2  0
 21 22  1  0
 22 23  2  0
 23 24  1  0
 24 25  2  0
 25 26  1  0
 26 27  2  0
 27 28  1  0
 28 29  2  0
 14 30  2  0
  7 31  2  0
 31  3  1  0
 30  9  1  0
 29 20  1  0
 28 23  1  0
  1 32  1  0
  1 33  1  0
  1 34  1  0
  4 35  1  0
  5 36  1  0
  6 37  1  0
 10 38  1  0
 13 39  1  0
 16 40  1  6
 19 41  1  0
 21 42  1  0
 22 43  1  0
 24 44  1  0
 25 45  1  0
 26 46  1  0
 27 47  1  0
 29 48  1  0
 31 49  1  0
M  END
>  <smiles>  (54) 
COc1cccc(N=c2cc(Cl)[nH]c(SC(C(=O)O)c3ccc4ccccc4c3)n2)c1

>  <score_type>  (54) 
oracle

>  <origin>  (54) 
adg

>  <m_score__min__energy>  (54) 
-10.210000000000001

>  <m_primary>  (54) 
energy

$$$$
54:0
     RDKit          3D

 45 47  0  0  0  0  0  0  0  0999 V2000
   57.4609   33.4849   43.2943 H   0  0  0  0  0  0  0  0  0  0  0  0
   57.7960   33.3140   44.3280 C   0  0  0  0  0  0  0  0  0  0  0  0
   58.7300   34.1770   44.9080 C   0  0  0  0  0  0  0  0  0  0  0  0
   59.1228   35.0274   44.3314 H   0  0  0  0  0  0  0  0  0  0  0  0
   59.1680   33.9620   46.2230 C   0  0  0  0  0  0  0  0  0  0  0  0
   60.1940   34.8690   46.8360 C   0  0  0  0  0  0  0  0  0  0  0  0
   60.1273   34.8100   47.9324 H   0  0  0  0  0  0  0  0  0  0  0  0
   61.1983   34.5581   46.5125 H   0  0  0  0  0  0  0  0  0  0  0  0
   60.0086   35.9039   46.5125 H   0  0  0  0  0  0  0  0  0  0  0  0
   58.6980   32.8480   46.9330 C   0  0  0  0  0  0  0  0  0  0  0  0
   59.0650   32.6516   47.9512 H   0  0  0  0  0  0  0  0  0  0  0  0
   57.7640   31.9860   46.3500 C   0  0  0  0  0  0  0  0  0  0  0  0
   57.4048   31.1104   46.9106 H   0  0  0  0  0  0  0  0  0  0  0  0
   57.2830   32.2290   45.0590 C   0  0  0  0  0  0  0  0  0  0  0  0
   56.3000   31.3390   44.5090 N   0  0  0  0  0  0  0  0  0  0  0  0
   56.2730   29.9100   44.6410 C   0  0  0  0  0  0  0  0  0  0  0  0
   55.1760   29.3420   44.8760 O   0  0  0  0  0  0  0  0  0  0  0  0
   57.4640   29.1120   44.5530 N   0  0  0  0  0  0  0  0  0  0  0  0
   58.0490   28.4460   45.5110 C   0  0  0  0  0  0  0  0  0  0  0  0
   58.7060   29.0740   46.5960 C   0  0  0  0  0  0  0  0  0  0  0  0
   58.7618   30.1719   46.6354 H   0  0  0  0  0  0  0  0  0  0  0  0
   59.2950   28.3030   47.6360 C   0  0  0  0  0  0  0  0  0  0  0  0
   59.9840   29.0200   48.8160 C   0  0  0  0  0  0  0  0  0  0  0  0
   60.7650   28.0530   49.7380 C   0  0  0  0  0  0  0  0  0  0  0  0
   60.5618   28.3046   50.7894 H   0  0  0  0  0  0  0  0  0  0  0  0
   60.4454   27.0192   49.5400 H   0  0  0  0  0  0  0  0  0  0  0  0
   61.8429   28.1479   49.5400 H   0  0  0  0  0  0  0  0  0  0  0  0
   58.9220   29.7320   49.6820 C   0  0  0  0  0  0  0  0  0  0  0  0
   59.1529   29.5772   50.7463 H   0  0  0  0  0  0  0  0  0  0  0  0
   58.9285   30.8090   49.4583 H   0  0  0  0  0  0  0  0  0  0  0  0
   57.9282   29.3170   49.4583 H   0  0  0  0  0  0  0  0  0  0  0  0
   60.9820   30.0620   48.2690 C   0  0  0  0  0  0  0  0  0  0  0  0
   61.4734   30.5751   49.1088 H   0  0  0  0  0  0  0  0  0  0  0  0
   61.7406   29.5556   47.6541 H   0  0  0  0  0  0  0  0  0  0  0  0
   60.4434   30.7981   47.6541 H   0  0  0  0  0  0  0  0  0  0  0  0
   59.2390   26.8880   47.5340 C   0  0  0  0  0  0  0  0  0  0  0  0
   59.6839   26.2502   48.3120 H   0  0  0  0  0  0  0  0  0  0  0  0
   58.6100   26.3270   46.4300 C   0  0  0  0  0  0  0  0  0  0  0  0
   58.4290   24.9940   46.1180 C   0  0  0  0  0  0  0  0  0  0  0  0
   58.7627   24.1138   46.6871 H   0  0  0  0  0  0  0  0  0  0  0  0
   57.7280   25.0220   44.9190 C   0  0  0  0  0  0  0  0  0  0  0  0
   57.3996   24.1377   44.3532 H   0  0  0  0  0  0  0  0  0  0  0  0
   57.5130   26.3050   44.5570 N   0  0  0  0  0  0  0  0  0  0  0  0
   57.0050   26.6310   43.7030 H   0  0  0  0  0  0  0  0  0  0  0  0
   58.0530   27.0870   45.4770 N   0  0  0  0  0  0  0  0  0  0  0  0
  1  2  1  0
  2  3  2  0
  3  4  1  0
  3  5  1  0
  5  6  1  0
  6  7  1  0
  6  8  1  0
  6  9  1  0
  5 10  2  0
 10 11  1  0
 10 12  1  0
 12 13  1  0
 12 14  2  0
 14 15  1  0
 15 16  1  0
 16 17  2  0
 16 18  1  0
 18 19  2  0
 19 20  1  0
 20 21  1  0
 20 22  2  0
 22 23  1  0
 23 24  1  0
 24 25  1  0
 24 26  1  0
 24 27  1  0
 23 28  1  0
 28 29  1  0
 28 30  1  0
 28 31  1  0
 23 32  1  0
 32 33  1  0
 32 34  1  0
 32 35  1  0
 22 36  1  0
 36 37  1  0
 36 38  2  0
 38 39  1  0
 39 40  1  0
 39 41  2  0
 41 42  1  0
 41 43  1  0
 43 44  1  0
 43 45  1  0
 14  2  1  0
 45 19  1  0
 45 38  1  0
M  CHG  1  15  -1
M  END
>  <UniqueID>  (55) 
46

>  <SMILES>  (55) 
Cc1ccc([N-]C(=O)/N=c2\cc(C(C)(C)C)cc3cc[nH]n23)cc1

>  <Energy>  (55) 
92.23683107902464

>  <Genealogy>  (55) 
Cc1ccc([N-]C(=O)N=c2cc(C(C)(C)C)cc3cc[nH]n23)cc1 (protonated)
Cc1ccc([N-]C(=O)/N=c2\cc(C(C)(C)C)cc3cc[nH]n23)cc1 (cis-trans isomerization)
Cc1ccc([N-]C(=O)/N=c2\cc(C(C)(C)C)cc3cc[nH]n23)cc1 (3D coordinates assigned)
Cc1ccc([N-]C(=O)/N=c2\cc(C(C)(C)C)cc3cc[nH]n23)cc1 (optimized conformer: 92.23683107902464 kcal/mol)

>  <smiles>  (55) 
Cc1ccc(NC(=O)N=c2cc(C(C)(C)C)cc3cc[nH]n23)cc1

>  <score_type>  (55) 
oracle

>  <origin>  (55) 
adg

>  <m_score__min__energy>  (55) 
-9.8599999999999994

>  <m_primary>  (55) 
energy

$$$$
55:0
     RDKit          3D

 47 50  0  0  0  0  0  0  0  0999 V2000
   65.7490   32.7340   49.7810 C   0  0  0  0  0  0  0  0  0  0  0  0
   64.4060   33.2900   49.9160 N   0  0  0  0  0  0  0  0  0  0  0  0
   63.8130   33.7940   51.0270 C   0  0  0  0  0  0  0  0  0  0  0  0
   64.3510   33.7990   52.1660 O   0  0  0  0  0  0  0  0  0  0  0  0
   62.6110   34.2910   50.7910 O   0  0  0  0  0  0  0  0  0  0  0  0
   62.4080   34.1250   49.5050 C   0  0  0  0  0  0  0  0  0  0  0  0
   61.2970   34.4870   48.7480 C   0  0  0  0  0  0  0  0  0  0  0  0
   61.3310   34.2130   47.3630 C   0  0  0  0  0  0  0  0  0  0  0  0
   59.9760   34.6540   46.3300 S   0  0  0  0  0  0  0  0  0  0  0  0
   59.8590   36.1530   46.3110 O   0  0  0  0  0  0  0  0  0  0  0  0
   60.2180   34.1650   44.9290 O   0  0  0  0  0  0  0  0  0  0  0  0
   58.5130   33.9410   46.9750 N   0  0  0  0  0  0  0  0  0  0  0  0
   58.7910   32.7270   47.7840 C   0  0  0  0  0  0  0  0  0  0  0  0
   58.1500   31.4430   47.2290 C   0  0  0  0  0  0  0  0  0  0  0  0
   58.3600   31.3600   45.7110 C   0  0  0  0  0  0  0  0  0  0  0  0
   57.7980   30.0770   45.1510 C   0  0  0  0  0  0  0  0  0  0  0  0
   56.5750   30.0190   44.8440 O   0  0  0  0  0  0  0  0  0  0  0  0
   58.6690   28.9600   44.9060 N   0  0  0  0  0  0  0  0  0  0  0  0
   58.2350   27.6640   44.4670 C   0  0  0  0  0  0  0  0  0  0  0  0
   58.1860   27.2640   43.1380 C   0  0  0  0  0  0  0  0  0  0  0  0
   57.7520   25.9430   42.9790 C   0  0  0  0  0  0  0  0  0  0  0  0
   57.4630   25.3010   44.1770 C   0  0  0  0  0  0  0  0  0  0  0  0
   57.7490   26.3760   45.4390 S   0  0  0  0  0  0  0  0  0  0  0  0
   57.7580   32.5880   44.9890 C   0  0  0  0  0  0  0  0  0  0  0  0
   57.4780   33.7720   45.9360 C   0  0  0  0  0  0  0  0  0  0  0  0
   62.4690   33.5930   46.7880 C   0  0  0  0  0  0  0  0  0  0  0  0
   63.5740   33.2390   47.5860 C   0  0  0  0  0  0  0  0  0  0  0  0
   63.5000   33.5200   48.9490 C   0  0  0  0  0  0  0  0  0  0  0  0
   66.1749   32.5577   50.7797 H   0  0  0  0  0  0  0  0  0  0  0  0
   65.6985   31.7828   49.2308 H   0  0  0  0  0  0  0  0  0  0  0  0
   66.3856   33.4425   49.2308 H   0  0  0  0  0  0  0  0  0  0  0  0
   60.4240   34.9692   49.2121 H   0  0  0  0  0  0  0  0  0  0  0  0
   59.8804   32.5801   47.8237 H   0  0  0  0  0  0  0  0  0  0  0  0
   58.3495   32.8989   48.7767 H   0  0  0  0  0  0  0  0  0  0  0  0
   58.6141   30.5685   47.7085 H   0  0  0  0  0  0  0  0  0  0  0  0
   57.0709   31.4592   47.4420 H   0  0  0  0  0  0  0  0  0  0  0  0
   59.4448   31.3629   45.5287 H   0  0  0  0  0  0  0  0  0  0  0  0
   59.6960   29.0990   45.0480 H   0  0  0  0  0  0  0  0  0  0  0  0
   58.4600   27.9180   42.2970 H   0  0  0  0  0  0  0  0  0  0  0  0
   57.6492   25.4581   41.9970 H   0  0  0  0  0  0  0  0  0  0  0  0
   57.1075   24.2654   44.2823 H   0  0  0  0  0  0  0  0  0  0  0  0
   58.4651   32.9195   44.2143 H   0  0  0  0  0  0  0  0  0  0  0  0
   56.7936   32.2759   44.5617 H   0  0  0  0  0  0  0  0  0  0  0  0
   57.4285   34.6941   45.3382 H   0  0  0  0  0  0  0  0  0  0  0  0
   56.5285   33.5626   46.4504 H   0  0  0  0  0  0  0  0  0  0  0  0
   62.4890   33.3864   45.7078 H   0  0  0  0  0  0  0  0  0  0  0  0
   64.4623   32.7587   47.1498 H   0  0  0  0  0  0  0  0  0  0  0  0
  1  2  1  0
  2  3  1  0
  3  4  2  0
  3  5  1  0
  5  6  1  0
  6  7  2  0
  7  8  1  0
  8  9  1  0
  9 10  2  0
  9 11  2  0
  9 12  1  0
 12 13  1  0
 13 14  1  0
 14 15  1  0
 15 16  1  0
 16 17  2  0
 16 18  1  0
 18 19  1  0
 19 20  2  0
 20 21  1  0
 21 22  2  0
 22 23  1  0
 15 24  1  0
 24 25  1  0
  8 26  2  0
 26 27  1  0
 27 28  2  0
 28  2  1  0
 28  6  1  0
 25 12  1  0
 23 19  1  0
  1 29  1  0
  1 30  1  0
  1 31  1  0
  7 32  1  0
 13 33  1  0
 13 34  1  0
 14 35  1  0
 14 36  1  0
 15 37  1  0
 18 38  1  0
 20 39  1  0
 21 40  1  0
 22 41  1  0
 24 42  1  0
 24 43  1  0
 25 44  1  0
 25 45  1  0
 26 46  1  0
 27 47  1  0
M  END
>  <UniqueID>  (56) 
47

>  <SMILES>  (56) 
Cn1c(=O)oc2cc(S(=O)(=O)N3CCC(C(=O)Nc4cccs4)CC3)ccc21

>  <Energy>  (56) 
126.46522639803378

>  <Genealogy>  (56) 
Cn1c(=O)oc2cc(S(=O)(=O)N3CCC(C(=O)Nc4cccs4)CC3)ccc21 (3D coordinates assigned)
Cn1c(=O)oc2cc(S(=O)(=O)N3CCC(C(=O)Nc4cccs4)CC3)ccc21 (nonaromatic ring conformer: 126.46522639803378 kcal/mol)

>  <smiles>  (56) 
Cn1c(=O)oc2cc(S(=O)(=O)N3CCC(C(=O)Nc4cccs4)CC3)ccc21

>  <score_type>  (56) 
oracle

>  <origin>  (56) 
adg

>  <m_score__min__energy>  (56) 
-8.7200000000000006

>  <m_primary>  (56) 
energy

$$$$
56:0
     RDKit          3D

 39 42  0  0  0  0  0  0  0  0999 V2000
   58.5320   30.7750   47.7640 O   0  0  0  0  0  0  0  0  0  0  0  0
   58.9560   31.0020   46.5930 C   0  0  0  0  0  0  0  0  0  0  0  0
   59.4770   29.9220   45.8560 N   0  0  0  0  0  0  0  0  0  0  0  0
   59.5110   28.6270   46.4450 C   0  0  0  0  0  0  0  0  0  0  0  0
   60.0600   28.4370   47.7130 C   0  0  0  0  0  0  0  0  0  0  0  0
   60.0410   27.1330   48.1870 C   0  0  0  0  0  0  0  0  0  0  0  0
   59.5170   26.0860   47.4640 C   0  0  0  0  0  0  0  0  0  0  0  0
   58.9780   26.3030   46.2060 C   0  0  0  0  0  0  0  0  0  0  0  0
   58.4150   25.2150   45.4130 C   0  0  0  0  0  0  0  0  0  0  0  0
   58.7570   23.9140   45.4720 N   0  0  0  0  0  0  0  0  0  0  0  0
   58.0320   23.1860   44.5970 C   0  0  0  0  0  0  0  0  0  0  0  0
   57.9880   21.8460   44.2630 C   0  0  0  0  0  0  0  0  0  0  0  0
   57.1070   21.4350   43.3030 C   0  0  0  0  0  0  0  0  0  0  0  0
   56.2670   22.3400   42.6640 C   0  0  0  0  0  0  0  0  0  0  0  0
   56.3110   23.6850   42.9990 C   0  0  0  0  0  0  0  0  0  0  0  0
   57.1950   24.1110   43.9660 C   0  0  0  0  0  0  0  0  0  0  0  0
   57.4370   25.3260   44.4690 N   0  0  0  0  0  0  0  0  0  0  0  0
   58.9840   27.5800   45.7140 C   0  0  0  0  0  0  0  0  0  0  0  0
   58.8880   32.3590   46.0560 C   0  0  0  0  0  0  0  0  0  0  0  0
   59.6550   33.3710   46.6260 C   0  0  0  0  0  0  0  0  0  0  0  0
   59.6230   34.6670   46.1530 C   0  0  0  0  0  0  0  0  0  0  0  0
   58.7990   34.9470   45.0800 C   0  0  0  0  0  0  0  0  0  0  0  0
   58.0220   33.9420   44.4950 C   0  0  0  0  0  0  0  0  0  0  0  0
   58.0510   32.6380   44.9680 C   0  0  0  0  0  0  0  0  0  0  0  0
   57.0740   31.4120   44.2210 Cl  0  0  0  0  0  0  0  0  0  0  0  0
   59.8340   30.0850   44.8820 H   0  0  0  0  0  0  0  0  0  0  0  0
   60.4808   29.2671   48.2993 H   0  0  0  0  0  0  0  0  0  0  0  0
   60.4624   26.9277   49.1821 H   0  0  0  0  0  0  0  0  0  0  0  0
   59.5260   25.0707   47.8872 H   0  0  0  0  0  0  0  0  0  0  0  0
   58.6505   21.1229   44.7612 H   0  0  0  0  0  0  0  0  0  0  0  0
   57.0615   20.3701   43.0311 H   0  0  0  0  0  0  0  0  0  0  0  0
   55.5667   21.9888   41.8918 H   0  0  0  0  0  0  0  0  0  0  0  0
   55.6468   24.4044   42.4977 H   0  0  0  0  0  0  0  0  0  0  0  0
   56.9360   26.1870   44.1570 H   0  0  0  0  0  0  0  0  0  0  0  0
   58.5612   27.7764   44.7177 H   0  0  0  0  0  0  0  0  0  0  0  0
   60.3063   33.1305   47.4792 H   0  0  0  0  0  0  0  0  0  0  0  0
   60.2357   35.4541   46.6167 H   0  0  0  0  0  0  0  0  0  0  0  0
   58.7536   35.9713   44.6816 H   0  0  0  0  0  0  0  0  0  0  0  0
   57.3740   34.1907   43.6416 H   0  0  0  0  0  0  0  0  0  0  0  0
  1  2  2  0
  2  3  1  0
  3  4  1  0
  4  5  2  0
  5  6  1  0
  6  7  2  0
  7  8  1  0
  8  9  1  0
  9 10  2  0
 10 11  1  0
 11 12  2  0
 12 13  1  0
 13 14  2  0
 14 15  1  0
 15 16  2  0
 16 17  1  0
  8 18  2  0
  2 19  1  0
 19 20  2  0
 20 21  1  0
 21 22  2  0
 22 23  1  0
 23 24  2  0
 24 25  1  0
 18  4  1  0
 24 19  1  0
 17  9  1  0
 16 11  1  0
  3 26  1  0
  5 27  1  0
  6 28  1  0
  7 29  1  0
 12 30  1  0
 13 31  1  0
 14 32  1  0
 15 33  1  0
 17 34  1  0
 18 35  1  0
 20 36  1  0
 21 37  1  0
 22 38  1  0
 23 39  1  0
M  END
>  <smiles>  (57) 
O=C(Nc1cccc(-c2nc3ccccc3[nH]2)c1)c1ccccc1Cl

>  <score_type>  (57) 
oracle

>  <origin>  (57) 
adg

>  <m_score__min__energy>  (57) 
-8.1199999999999992

>  <m_primary>  (57) 
energy

$$$$
57:0
     RDKit          3D

 48 51  0  0  0  0  0  0  0  0999 V2000
   58.1360   27.2630   45.2960 C   0  0  0  0  0  0  0  0  0  0  0  0
   56.6880   27.0960   45.7430 C   0  0  0  0  0  0  0  0  0  0  0  0
   55.8810   28.1650   45.2500 O   0  0  0  0  0  0  0  0  0  0  0  0
   56.4090   29.2770   44.5890 C   0  0  0  0  0  0  0  0  0  0  0  0
   57.0410   30.3030   45.2350 N   0  0  0  0  0  0  0  0  0  0  0  0
   57.3810   31.1340   44.2340 C   0  0  0  0  0  0  0  0  0  0  0  0
   58.0040   32.3790   44.2670 C   0  0  0  0  0  0  0  0  0  0  0  0
   58.4840   32.9970   45.5280 C   0  0  0  0  0  0  0  0  0  0  0  0
   58.7930   34.3660   45.5820 C   0  0  0  0  0  0  0  0  0  0  0  0
   59.2420   34.9440   46.7710 C   0  0  0  0  0  0  0  0  0  0  0  0
   59.3860   34.1640   47.9200 C   0  0  0  0  0  0  0  0  0  0  0  0
   59.0860   32.7940   47.8890 C   0  0  0  0  0  0  0  0  0  0  0  0
   59.2350   31.9860   49.0730 N   0  0  0  0  0  0  0  0  0  0  0  0
   58.1540   31.9530   50.0620 C   0  0  0  0  0  0  0  0  0  0  0  0
   60.4620   31.2110   49.3000 C   0  0  0  0  0  0  0  0  0  0  0  0
   61.6690   31.9920   48.8320 C   0  0  0  0  0  0  0  0  0  0  0  0
   62.2340   31.6910   47.5760 C   0  0  0  0  0  0  0  0  0  0  0  0
   61.7210   30.6940   46.8100 F   0  0  0  0  0  0  0  0  0  0  0  0
   63.3330   32.4110   47.1020 C   0  0  0  0  0  0  0  0  0  0  0  0
   63.8820   33.4390   47.8690 C   0  0  0  0  0  0  0  0  0  0  0  0
   63.3340   33.7500   49.1140 C   0  0  0  0  0  0  0  0  0  0  0  0
   62.2320   33.0390   49.6030 C   0  0  0  0  0  0  0  0  0  0  0  0
   61.6040   33.4890   51.1860 Cl  0  0  0  0  0  0  0  0  0  0  0  0
   58.6280   32.2190   46.6900 C   0  0  0  0  0  0  0  0  0  0  0  0
   58.1430   33.0270   43.0160 C   0  0  0  0  0  0  0  0  0  0  0  0
   57.6760   32.4450   41.8600 N   0  0  0  0  0  0  0  0  0  0  0  0
   57.0710   31.2480   41.8460 N   0  0  0  0  0  0  0  0  0  0  0  0
   56.9300   30.5900   43.0140 C   0  0  0  0  0  0  0  0  0  0  0  0
   56.3200   29.4250   43.2400 N   0  0  0  0  0  0  0  0  0  0  0  0
   58.7863   27.3380   46.1800 H   0  0  0  0  0  0  0  0  0  0  0  0
   58.4361   26.3935   44.6927 H   0  0  0  0  0  0  0  0  0  0  0  0
   58.2303   28.1780   44.6927 H   0  0  0  0  0  0  0  0  0  0  0  0
   56.2988   26.1422   45.3572 H   0  0  0  0  0  0  0  0  0  0  0  0
   56.6541   27.1055   46.8424 H   0  0  0  0  0  0  0  0  0  0  0  0
   58.6805   34.9872   44.6812 H   0  0  0  0  0  0  0  0  0  0  0  0
   59.4829   36.0168   46.8026 H   0  0  0  0  0  0  0  0  0  0  0  0
   59.7366   34.6262   48.8546 H   0  0  0  0  0  0  0  0  0  0  0  0
   58.5831   31.9661   51.0748 H   0  0  0  0  0  0  0  0  0  0  0  0
   57.5064   32.8318   49.9268 H   0  0  0  0  0  0  0  0  0  0  0  0
   57.5612   31.0363   49.9268 H   0  0  0  0  0  0  0  0  0  0  0  0
   60.5625   30.9966   50.3742 H   0  0  0  0  0  0  0  0  0  0  0  0
   60.4018   30.2706   48.7325 H   0  0  0  0  0  0  0  0  0  0  0  0
   63.7669   32.1668   46.1211 H   0  0  0  0  0  0  0  0  0  0  0  0
   64.7470   34.0045   47.4922 H   0  0  0  0  0  0  0  0  0  0  0  0
   63.7715   34.5602   49.7158 H   0  0  0  0  0  0  0  0  0  0  0  0
   58.3795   31.1478   46.6611 H   0  0  0  0  0  0  0  0  0  0  0  0
   58.6320   34.0111   42.9674 H   0  0  0  0  0  0  0  0  0  0  0  0
   55.8680   28.7860   42.5490 H   0  0  0  0  0  0  0  0  0  0  0  0
  1  2  1  0
  2  3  1  0
  3  4  1  0
  4  5  1  0
  5  6  2  0
  6  7  1  0
  7  8  1  0
  8  9  2  0
  9 10  1  0
 10 11  2  0
 11 12  1  0
 12 13  1  0
 13 14  1  0
 13 15  1  0
 15 16  1  0
 16 17  2  0
 17 18  1  0
 17 19  1  0
 19 20  2  0
 20 21  1  0
 21 22  2  0
 22 23  1  0
 12 24  2  0
  7 25  2  0
 25 26  1  0
 26 27  1  0
 27 28  2  0
 28 29  1  0
 29  4  2  0
 28  6  1  0
 24  8  1  0
 22 16  1  0
  1 30  1  0
  1 31  1  0
  1 32  1  0
  2 33  1  0
  2 34  1  0
  9 35  1  0
 10 36  1  0
 11 37  1  0
 14 38  1  0
 14 39  1  0
 14 40  1  0
 15 41  1  0
 15 42  1  0
 19 43  1  0
 20 44  1  0
 21 45  1  0
 24 46  1  0
 25 47  1  0
 29 48  1  0
M  CHG  2  26  -1  29   1
M  END
>  <UniqueID>  (58) 
48

>  <SMILES>  (58) 
CCOc1nc2c(-c3cccc(N(C)Cc4c(F)cccc4Cl)c3)c[n-]nc-2[nH+]1

>  <Energy>  (58) 
99.01523113056948

>  <Genealogy>  (58) 
CCOc1nc2c(-c3cccc(N(C)Cc4c(F)cccc4Cl)c3)c[n-]nc-2[nH+]1 (protonated)
CCOc1nc2c(-c3cccc(N(C)Cc4c(F)cccc4Cl)c3)c[n-]nc-2[nH+]1 (3D coordinates assigned)
CCOc1nc2c(-c3cccc(N(C)Cc4c(F)cccc4Cl)c3)c[n-]nc-2[nH+]1 (optimized conformer: 99.01523113056948 kcal/mol)

>  <smiles>  (58) 
CCOc1nc2n[nH]cc(-c3cccc(N(C)Cc4c(F)cccc4Cl)c3)c-2n1

>  <score_type>  (58) 
oracle

>  <origin>  (58) 
adg

>  <m_score__min__energy>  (58) 
-8.6400000000000006

>  <m_primary>  (58) 
energy

$$$$
58:0
     RDKit          3D

 38 40  0  0  0  0  0  0  0  0999 V2000
   57.2975   30.8785   42.2354 H   0  0  0  0  0  0  0  0  0  0  0  0
   57.4330   31.4910   43.1390 C   0  0  0  0  0  0  0  0  0  0  0  0
   58.0010   32.7130   43.1830 N   0  0  0  0  0  0  0  0  0  0  0  0
   57.9860   33.1210   44.4430 N   0  0  0  0  0  0  0  0  0  0  0  0
   58.4550   34.4280   44.8800 C   0  0  0  0  0  0  0  0  0  0  0  0
   58.4680   34.4642   45.9793 H   0  0  0  0  0  0  0  0  0  0  0  0
   59.4711   34.6004   44.4954 H   0  0  0  0  0  0  0  0  0  0  0  0
   57.7803   35.2071   44.4954 H   0  0  0  0  0  0  0  0  0  0  0  0
   57.3990   32.1970   45.2250 C   0  0  0  0  0  0  0  0  0  0  0  0
   57.2301   32.2760   46.3091 H   0  0  0  0  0  0  0  0  0  0  0  0
   57.0480   31.1350   44.4230 C   0  0  0  0  0  0  0  0  0  0  0  0
   56.3470   29.9650   44.8750 N   0  0  0  0  0  0  0  0  0  0  0  0
   56.8320   28.9360   45.5110 C   0  0  0  0  0  0  0  0  0  0  0  0
   56.1380   27.7700   45.6100 N   0  0  0  0  0  0  0  0  0  0  0  0
   56.6340   26.6890   46.2680 C   0  0  0  0  0  0  0  0  0  0  0  0
   56.0411   25.7646   46.3316 H   0  0  0  0  0  0  0  0  0  0  0  0
   57.8950   26.7510   46.8630 C   0  0  0  0  0  0  0  0  0  0  0  0
   58.2931   25.8839   47.4105 H   0  0  0  0  0  0  0  0  0  0  0  0
   58.6510   27.9290   46.7570 C   0  0  0  0  0  0  0  0  0  0  0  0
   59.9460   28.0660   47.3610 N   0  0  0  0  0  0  0  0  0  0  0  0
   60.3180   28.9800   48.4040 C   0  0  0  0  0  0  0  0  0  0  0  0
   60.8180   28.5440   49.4770 O   0  0  0  0  0  0  0  0  0  0  0  0
   60.1630   30.4390   48.2000 C   0  0  0  0  0  0  0  0  0  0  0  0
   58.9760   31.0900   48.5830 C   0  0  0  0  0  0  0  0  0  0  0  0
   58.1623   30.5131   49.0467 H   0  0  0  0  0  0  0  0  0  0  0  0
   58.8230   32.4630   48.3790 C   0  0  0  0  0  0  0  0  0  0  0  0
   57.8878   32.9599   48.6765 H   0  0  0  0  0  0  0  0  0  0  0  0
   59.8520   33.2080   47.7990 C   0  0  0  0  0  0  0  0  0  0  0  0
   59.6750   34.5370   47.5950 F   0  0  0  0  0  0  0  0  0  0  0  0
   61.0530   32.5810   47.4280 C   0  0  0  0  0  0  0  0  0  0  0  0
   62.1490   33.3690   46.7700 C   0  0  0  0  0  0  0  0  0  0  0  0
   62.7856   33.8267   47.5416 H   0  0  0  0  0  0  0  0  0  0  0  0
   62.7564   32.6995   46.1432 H   0  0  0  0  0  0  0  0  0  0  0  0
   61.7078   34.1580   46.1432 H   0  0  0  0  0  0  0  0  0  0  0  0
   61.1960   31.1960   47.6150 C   0  0  0  0  0  0  0  0  0  0  0  0
   62.1250   30.6976   47.3010 H   0  0  0  0  0  0  0  0  0  0  0  0
   58.1040   29.0310   46.0900 C   0  0  0  0  0  0  0  0  0  0  0  0
   58.6721   29.9704   46.0205 H   0  0  0  0  0  0  0  0  0  0  0  0
  1  2  1  0
  2  3  2  0
  3  4  1  0
  4  5  1  0
  5  6  1  0
  5  7  1  0
  5  8  1  0
  4  9  1  0
  9 10  1  0
  9 11  2  0
 11 12  1  0
 12 13  2  0
 13 14  1  0
 14 15  1  0
 15 16  1  0
 15 17  2  0
 17 18  1  0
 17 19  1  0
 19 20  1  0
 20 21  1  0
 21 22  2  0
 21 23  1  0
 23 24  2  0
 24 25  1  0
 24 26  1  0
 26 27  1  0
 26 28  2  0
 28 29  1  0
 28 30  1  0
 30 31  1  0
 31 32  1  0
 31 33  1  0
 31 34  1  0
 30 35  2  0
 35 36  1  0
 19 37  2  0
 37 38  1  0
 11  2  1  0
 37 13  1  0
 35 23  1  0
M  CHG  2  14  -1  20  -1
M  END
>  <UniqueID>  (59) 
49

>  <SMILES>  (59) 
Cc1cc(C(=O)[N-]c2cc[n-]/c(=N\c3cnn(C)c3)c2)ccc1F

>  <Energy>  (59) 
79.50543298713848

>  <Genealogy>  (59) 
Cc1cc(C(=O)[N-]c2cc[n-]c(=Nc3cnn(C)c3)c2)ccc1F (protonated)
Cc1cc(C(=O)[N-]c2cc[n-]/c(=N\c3cnn(C)c3)c2)ccc1F (cis-trans isomerization)
Cc1cc(C(=O)[N-]c2cc[n-]/c(=N\c3cnn(C)c3)c2)ccc1F (3D coordinates assigned)
Cc1cc(C(=O)[N-]c2cc[n-]/c(=N\c3cnn(C)c3)c2)ccc1F (optimized conformer: 79.50543298713848 kcal/mol)

>  <smiles>  (59) 
Cc1cc(C(=O)Nc2cc[nH]c(=Nc3cnn(C)c3)c2)ccc1F

>  <score_type>  (59) 
oracle

>  <origin>  (59) 
adg

>  <m_score__min__energy>  (59) 
-10.779999999999999

>  <m_primary>  (59) 
energy

$$$$
59:0
     RDKit          3D

 33 34  0  0  0  0  0  0  0  0999 V2000
   56.2830   27.1970   44.6770 H   0  0  0  0  0  0  0  0  0  0  0  0
   56.0890   28.0110   45.2470 O   0  0  0  0  0  0  0  0  0  0  0  0
   56.6550   29.2510   44.9610 C   0  0  0  0  0  0  0  0  0  0  0  0
   56.3030   29.9470   43.7970 C   0  0  0  0  0  0  0  0  0  0  0  0
   55.5768   29.5106   43.0954 H   0  0  0  0  0  0  0  0  0  0  0  0
   56.8720   31.1940   43.5250 C   0  0  0  0  0  0  0  0  0  0  0  0
   56.6061   31.7273   42.6004 H   0  0  0  0  0  0  0  0  0  0  0  0
   57.7830   31.7700   44.4280 C   0  0  0  0  0  0  0  0  0  0  0  0
   58.3900   33.0940   44.1730 C   0  0  0  0  0  0  0  0  0  0  0  0
   58.9810   33.2122   43.2528 H   0  0  0  0  0  0  0  0  0  0  0  0
   58.2760   34.1630   44.9770 C   0  0  0  0  0  0  0  0  0  0  0  0
   57.2629   34.5491   45.1630 H   0  0  0  0  0  0  0  0  0  0  0  0
   59.4020   34.8650   45.6340 C   0  0  0  0  0  0  0  0  0  0  0  0
   59.6560   36.0450   45.2730 O   0  0  0  0  0  0  0  0  0  0  0  0
   60.2620   34.2220   46.6570 C   0  0  0  0  0  0  0  0  0  0  0  0
   59.7870   33.9850   47.9590 C   0  0  0  0  0  0  0  0  0  0  0  0
   58.7517   34.2507   48.2188 H   0  0  0  0  0  0  0  0  0  0  0  0
   60.6190   33.4150   48.9250 C   0  0  0  0  0  0  0  0  0  0  0  0
   60.2397   33.2460   49.9436 H   0  0  0  0  0  0  0  0  0  0  0  0
   61.9400   33.0560   48.6010 C   0  0  0  0  0  0  0  0  0  0  0  0
   62.8170   32.4870   49.5370 O   0  0  0  0  0  0  0  0  0  0  0  0
   64.2270   32.3970   49.3650 C   0  0  0  0  0  0  0  0  0  0  0  0
   64.7153   32.3658   50.3502 H   0  0  0  0  0  0  0  0  0  0  0  0
   64.4705   31.4815   48.8059 H   0  0  0  0  0  0  0  0  0  0  0  0
   64.5849   33.2741   48.8059 H   0  0  0  0  0  0  0  0  0  0  0  0
   62.4040   33.2670   47.2990 C   0  0  0  0  0  0  0  0  0  0  0  0
   63.4320   32.9792   47.0335 H   0  0  0  0  0  0  0  0  0  0  0  0
   61.5740   33.8400   46.3320 C   0  0  0  0  0  0  0  0  0  0  0  0
   61.9504   33.9929   45.3098 H   0  0  0  0  0  0  0  0  0  0  0  0
   58.1580   31.0530   45.5740 C   0  0  0  0  0  0  0  0  0  0  0  0
   58.9041   31.4746   46.2636 H   0  0  0  0  0  0  0  0  0  0  0  0
   57.5880   29.8050   45.8440 C   0  0  0  0  0  0  0  0  0  0  0  0
   57.8742   29.2570   46.7538 H   0  0  0  0  0  0  0  0  0  0  0  0
  1  2  1  0
  2  3  1  0
  3  4  2  0
  4  5  1  0
  4  6  1  0
  6  7  1  0
  6  8  2  0
  8  9  1  0
  9 10  1  0
  9 11  2  0
 11 12  1  0
 11 13  1  0
 13 14  2  0
 13 15  1  0
 15 16  2  0
 16 17  1  0
 16 18  1  0
 18 19  1  0
 18 20  2  0
 20 21  1  0
 21 22  1  0
 22 23  1  0
 22 24  1  0
 22 25  1  0
 20 26  1  0
 26 27  1  0
 26 28  2  0
 28 29  1  0
  8 30  1  0
 30 31  1  0
 30 32  2  0
 32 33  1  0
 32  3  1  0
 28 15  1  0
M  END
>  <UniqueID>  (60) 
50

>  <SMILES>  (60) 
COc1ccc(C(=O)/C=C\c2ccc(O)cc2)cc1

>  <Energy>  (60) 
42.463299335024836

>  <Genealogy>  (60) 
COc1ccc(C(=O)/C=C\c2ccc(O)cc2)cc1 (cis-trans isomerization)
COc1ccc(C(=O)/C=C\c2ccc(O)cc2)cc1 (3D coordinates assigned)
COc1ccc(C(=O)/C=C\c2ccc(O)cc2)cc1 (optimized conformer: 42.463299335024836 kcal/mol)

>  <smiles>  (60) 
COc1ccc(C(=O)C=Cc2ccc(O)cc2)cc1

>  <score_type>  (60) 
oracle

>  <origin>  (60) 
adg

>  <m_score__min__energy>  (60) 
-7.3399999999999999

>  <m_primary>  (60) 
energy

$$$$
60:0
     RDKit          3D

 41 44  0  0  0  0  0  0  0  0999 V2000
   55.7170   22.2550   42.6930 O   0  0  0  0  0  0  0  0  0  0  0  0
   56.1310   22.9970   43.6230 C   0  0  0  0  0  0  0  0  0  0  0  0
   57.3070   23.7860   43.3990 N   0  0  0  0  0  0  0  0  0  0  0  0
   57.4700   25.1740   43.7270 C   0  0  0  0  0  0  0  0  0  0  0  0
   57.3740   25.5690   45.0630 C   0  0  0  0  0  0  0  0  0  0  0  0
   57.5320   26.9110   45.4200 C   0  0  0  0  0  0  0  0  0  0  0  0
   57.8050   27.8880   44.4430 C   0  0  0  0  0  0  0  0  0  0  0  0
   57.9630   29.2780   44.8080 N   0  0  0  0  0  0  0  0  0  0  0  0
   59.0860   29.8720   45.9880 S   0  0  0  0  0  0  0  0  0  0  0  0
   58.7990   29.2950   47.3440 O   0  0  0  0  0  0  0  0  0  0  0  0
   60.5030   29.6120   45.5620 O   0  0  0  0  0  0  0  0  0  0  0  0
   58.7180   31.5820   45.9410 C   0  0  0  0  0  0  0  0  0  0  0  0
   59.3510   32.5550   46.7190 C   0  0  0  0  0  0  0  0  0  0  0  0
   58.9570   33.8940   46.5860 C   0  0  0  0  0  0  0  0  0  0  0  0
   57.9400   34.2470   45.6830 C   0  0  0  0  0  0  0  0  0  0  0  0
   57.3130   33.2620   44.9070 C   0  0  0  0  0  0  0  0  0  0  0  0
   57.7120   31.9320   45.0470 C   0  0  0  0  0  0  0  0  0  0  0  0
   57.0310   30.5880   44.1580 S   0  0  0  0  0  0  0  0  0  0  0  0
   55.5710   30.4160   44.4700 O   0  0  0  0  0  0  0  0  0  0  0  0
   57.2700   30.7370   42.6820 O   0  0  0  0  0  0  0  0  0  0  0  0
   57.9300   27.4770   43.1010 C   0  0  0  0  0  0  0  0  0  0  0  0
   57.7710   26.1340   42.7480 C   0  0  0  0  0  0  0  0  0  0  0  0
   55.4190   22.9960   44.9230 C   0  0  0  0  0  0  0  0  0  0  0  0
   56.1220   22.6780   46.0980 C   0  0  0  0  0  0  0  0  0  0  0  0
   55.4640   22.6610   47.3340 C   0  0  0  0  0  0  0  0  0  0  0  0
   56.4250   22.2110   48.9220 Br  0  0  0  0  0  0  0  0  0  0  0  0
   54.1030   22.9710   47.4050 C   0  0  0  0  0  0  0  0  0  0  0  0
   53.4010   23.3070   46.2460 C   0  0  0  0  0  0  0  0  0  0  0  0
   54.0520   23.3280   45.0080 C   0  0  0  0  0  0  0  0  0  0  0  0
   53.3560   23.7070   43.9070 F   0  0  0  0  0  0  0  0  0  0  0  0
   57.1724   24.8177   45.8408 H   0  0  0  0  0  0  0  0  0  0  0  0
   57.4422   27.2074   46.4755 H   0  0  0  0  0  0  0  0  0  0  0  0
   60.1464   32.2746   47.4252 H   0  0  0  0  0  0  0  0  0  0  0  0
   59.4462   34.6715   47.1912 H   0  0  0  0  0  0  0  0  0  0  0  0
   57.6349   35.2993   45.5846 H   0  0  0  0  0  0  0  0  0  0  0  0
   56.5175   33.5337   44.1975 H   0  0  0  0  0  0  0  0  0  0  0  0
   58.1551   28.2211   42.3228 H   0  0  0  0  0  0  0  0  0  0  0  0
   57.8823   25.8276   41.6974 H   0  0  0  0  0  0  0  0  0  0  0  0
   57.1950   22.4412   46.0463 H   0  0  0  0  0  0  0  0  0  0  0  0
   53.5845   22.9502   48.3749 H   0  0  0  0  0  0  0  0  0  0  0  0
   52.3313   23.5563   46.3065 H   0  0  0  0  0  0  0  0  0  0  0  0
  1  2  2  0
  2  3  1  0
  3  4  1  0
  4  5  2  0
  5  6  1  0
  6  7  2  0
  7  8  1  0
  8  9  1  0
  9 10  2  0
  9 11  2  0
  9 12  1  0
 12 13  2  0
 13 14  1  0
 14 15  2  0
 15 16  1  0
 16 17  2  0
 17 18  1  0
 18 19  2  0
 18 20  2  0
  7 21  1  0
 21 22  2  0
  2 23  1  0
 23 24  2  0
 24 25  1  0
 25 26  1  0
 25 27  2  0
 27 28  1  0
 28 29  2  0
 29 30  1  0
 22  4  1  0
 29 23  1  0
 18  8  1  0
 17 12  1  0
  5 31  1  0
  6 32  1  0
 13 33  1  0
 14 34  1  0
 15 35  1  0
 16 36  1  0
 21 37  1  0
 22 38  1  0
 24 39  1  0
 27 40  1  0
 28 41  1  0
M  CHG  1   3  -1
M  END
>  <UniqueID>  (61) 
51

>  <SMILES>  (61) 
O=C([N-]c1ccc(N2S(=O)(=O)c3ccccc3S2(=O)=O)cc1)c1cc(Br)ccc1F

>  <Energy>  (61) 
73.54696697348005

>  <Genealogy>  (61) 
O=C([N-]c1ccc(N2S(=O)(=O)c3ccccc3S2(=O)=O)cc1)c1cc(Br)ccc1F (protonated)
O=C([N-]c1ccc(N2S(=O)(=O)c3ccccc3S2(=O)=O)cc1)c1cc(Br)ccc1F (3D coordinates assigned)
O=C([N-]c1ccc(N2S(=O)(=O)c3ccccc3S2(=O)=O)cc1)c1cc(Br)ccc1F (nonaromatic ring conformer: 73.54696697348005 kcal/mol)

>  <smiles>  (61) 
O=C(Nc1ccc(N2S(=O)(=O)c3ccccc3S2(=O)=O)cc1)c1cc(Br)ccc1F

>  <score_type>  (61) 
oracle

>  <origin>  (61) 
adg

>  <m_score__min__energy>  (61) 
-10.52

>  <m_primary>  (61) 
energy

$$$$
61:0
     RDKit          3D

 33 34  0  0  1  0  0  0  0  0999 V2000
   55.4360   30.0910   44.5150 N   0  0  0  0  0  0  0  0  0  0  0  0
   56.3640   29.7230   43.4920 C   0  0  0  0  0  0  0  0  0  0  0  0
   57.7920   30.1110   43.7950 C   0  0  0  0  0  0  0  0  0  0  0  0
   58.2550   29.6560   45.1460 C   0  0  0  0  0  0  0  0  0  0  0  0
   57.7810   30.6730   46.0960 N   0  0  0  0  0  0  0  0  0  0  0  0
   57.9010   31.9410   45.8600 C   0  0  0  0  0  0  0  0  0  0  0  0
   56.9010   32.5610   45.2500 N   0  0  0  0  0  0  0  0  0  0  0  0
   57.0360   33.8940   45.0060 C   0  0  0  0  0  0  0  0  0  0  0  0
   58.1770   34.5860   45.3790 C   0  0  0  0  0  0  0  0  0  0  0  0
   59.1970   33.9070   46.0110 C   0  0  0  0  0  0  0  0  0  0  0  0
   60.4000   34.4810   46.4410 N   0  0  0  0  0  0  0  0  0  0  0  0
   61.3660   33.7600   46.8940 C   0  0  0  0  0  0  0  0  0  0  0  0
   61.0510   32.9360   47.9310 N   0  0  0  0  0  0  0  0  0  0  0  0
   62.0390   32.1720   48.4250 C   0  0  0  0  0  0  0  0  0  0  0  0
   63.3290   32.1870   47.9390 C   0  0  0  0  0  0  0  0  0  0  0  0
   63.6190   33.0240   46.8980 C   0  0  0  0  0  0  0  0  0  0  0  0
   62.6180   33.7940   46.4020 N   0  0  0  0  0  0  0  0  0  0  0  0
   59.0260   32.5760   46.2390 N   0  0  0  0  0  0  0  0  0  0  0  0
   55.7760   30.7240   45.2450 H   0  0  0  0  0  0  0  0  0  0  0  0
   54.4510   30.1540   44.2420 H   0  0  0  0  0  0  0  0  0  0  0  0
   56.3215   28.6316   43.3617 H   0  0  0  0  0  0  0  0  0  0  0  0
   56.0704   30.2677   42.5826 H   0  0  0  0  0  0  0  0  0  0  0  0
   58.4453   29.6621   43.0323 H   0  0  0  0  0  0  0  0  0  0  0  0
   57.8403   31.2099   43.7866 H   0  0  0  0  0  0  0  0  0  0  0  0
   57.8223   28.6742   45.3885 H   0  0  0  0  0  0  0  0  0  0  0  0
   59.3489   29.5463   45.1831 H   0  0  0  0  0  0  0  0  0  0  0  0
   56.2209   34.4335   44.5014 H   0  0  0  0  0  0  0  0  0  0  0  0
   58.2678   35.6628   45.1736 H   0  0  0  0  0  0  0  0  0  0  0  0
   61.8063   31.4979   49.2626 H   0  0  0  0  0  0  0  0  0  0  0  0
   64.1048   31.5421   48.3776 H   0  0  0  0  0  0  0  0  0  0  0  0
   64.6333   33.0719   46.4751 H   0  0  0  0  0  0  0  0  0  0  0  0
   62.8380   34.4230   45.6190 H   0  0  0  0  0  0  0  0  0  0  0  0
   59.7640   32.0110   46.7140 H   0  0  0  0  0  0  0  0  0  0  0  0
  1  2  1  0
  2  3  1  0
  3  4  1  0
  4  5  1  0
  5  6  2  0
  6  7  1  0
  7  8  2  0
  8  9  1  0
  9 10  2  0
 10 11  1  0
 11 12  2  3
 12 13  1  0
 13 14  2  0
 14 15  1  0
 15 16  2  0
 16 17  1  0
 10 18  1  0
 18  6  1  0
 17 12  1  0
  1 19  1  0
  1 20  1  0
  2 21  1  0
  2 22  1  0
  3 23  1  0
  3 24  1  0
  4 25  1  0
  4 26  1  0
  8 27  1  0
  9 28  1  0
 14 29  1  0
 15 30  1  0
 16 31  1  0
 17 32  1  0
 18 33  1  0
M  END
>  <smiles>  (62) 
NCCCN=c1nccc(N=c2nccc[nH]2)[nH]1

>  <score_type>  (62) 
oracle

>  <origin>  (62) 
adg

>  <m_score__min__energy>  (62) 
-6.0599999999999996

>  <m_primary>  (62) 
energy

$$$$
62:0
     RDKit          3D

 43 44  0  0  0  0  0  0  0  0999 V2000
   55.9000   29.7440   43.4410 C   0  0  0  0  0  0  0  0  0  0  0  0
   56.1980   29.3830   44.7850 O   0  0  0  0  0  0  0  0  0  0  0  0
   57.3900   29.7100   45.4470 C   0  0  0  0  0  0  0  0  0  0  0  0
   57.7740   28.9370   46.5460 C   0  0  0  0  0  0  0  0  0  0  0  0
   58.9410   29.2380   47.2540 C   0  0  0  0  0  0  0  0  0  0  0  0
   59.7430   30.3300   46.8800 C   0  0  0  0  0  0  0  0  0  0  0  0
   60.9190   30.6970   47.7110 C   0  0  0  0  0  0  0  0  0  0  0  0
   60.8480   30.5780   48.9650 O   0  0  0  0  0  0  0  0  0  0  0  0
   62.2060   31.2130   47.1200 C   0  0  0  0  0  0  0  0  0  0  0  0
   62.2070   33.0320   46.8950 S   0  0  0  0  0  0  0  0  0  0  0  0
   61.8000   33.4530   48.6010 C   0  0  0  0  0  0  0  0  0  0  0  0
   62.8140   34.1000   49.4000 S   0  0  0  0  0  0  0  0  0  0  0  0
   60.4140   33.3640   49.0370 N   0  0  1  0  0  0  0  0  0  0  0  0
   60.3010   33.0980   50.4850 C   0  0  0  0  0  0  0  0  0  0  0  0
   59.6430   34.5620   48.6300 C   0  0  0  0  0  0  0  0  0  0  0  0
   59.0160   34.3740   47.2670 C   0  0  0  0  0  0  0  0  0  0  0  0
   59.6260   34.9020   46.1180 C   0  0  0  0  0  0  0  0  0  0  0  0
   59.0100   34.7690   44.8700 C   0  0  0  0  0  0  0  0  0  0  0  0
   57.7800   34.1150   44.7610 C   0  0  0  0  0  0  0  0  0  0  0  0
   57.1620   33.5920   45.9010 C   0  0  0  0  0  0  0  0  0  0  0  0
   57.7770   33.7190   47.1500 C   0  0  0  0  0  0  0  0  0  0  0  0
   59.3730   31.0880   45.7550 C   0  0  0  0  0  0  0  0  0  0  0  0
   58.2070   30.7850   45.0460 C   0  0  0  0  0  0  0  0  0  0  0  0
   55.1997   30.5923   43.4359 H   0  0  0  0  0  0  0  0  0  0  0  0
   56.8276   30.0311   42.9242 H   0  0  0  0  0  0  0  0  0  0  0  0
   55.4423   28.8876   42.9242 H   0  0  0  0  0  0  0  0  0  0  0  0
   57.1525   28.0842   46.8566 H   0  0  0  0  0  0  0  0  0  0  0  0
   59.2344   28.6147   48.1116 H   0  0  0  0  0  0  0  0  0  0  0  0
   63.0343   30.9417   47.7911 H   0  0  0  0  0  0  0  0  0  0  0  0
   62.3195   30.7568   46.1255 H   0  0  0  0  0  0  0  0  0  0  0  0
   59.9980   32.5410   48.5480 H   0  0  0  0  0  0  0  0  0  0  0  0
   60.6706   33.9680   51.0476 H   0  0  0  0  0  0  0  0  0  0  0  0
   59.2475   32.9151   50.7431 H   0  0  0  0  0  0  0  0  0  0  0  0
   60.9007   32.2127   50.7431 H   0  0  0  0  0  0  0  0  0  0  0  0
   58.8481   34.7445   49.3681 H   0  0  0  0  0  0  0  0  0  0  0  0
   60.3318   35.4183   48.5806 H   0  0  0  0  0  0  0  0  0  0  0  0
   60.5918   35.4221   46.1999 H   0  0  0  0  0  0  0  0  0  0  0  0
   59.4946   35.1800   43.9721 H   0  0  0  0  0  0  0  0  0  0  0  0
   57.2976   34.0116   43.7778 H   0  0  0  0  0  0  0  0  0  0  0  0
   56.1919   33.0806   45.8151 H   0  0  0  0  0  0  0  0  0  0  0  0
   57.2898   33.3049   48.0450 H   0  0  0  0  0  0  0  0  0  0  0  0
   60.0065   31.9265   45.4301 H   0  0  0  0  0  0  0  0  0  0  0  0
   57.9261   31.3890   44.1706 H   0  0  0  0  0  0  0  0  0  0  0  0
  1  2  1  0
  2  3  1  0
  3  4  2  0
  4  5  1  0
  5  6  2  0
  6  7  1  0
  7  8  2  0
  7  9  1  0
  9 10  1  0
 10 11  1  0
 11 12  2  0
 11 13  1  0
 13 14  1  0
 13 15  1  0
 15 16  1  0
 16 17  2  0
 17 18  1  0
 18 19  2  0
 19 20  1  0
 20 21  2  0
  6 22  1  0
 22 23  2  0
 23  3  1  0
 21 16  1  0
  1 24  1  0
  1 25  1  0
  1 26  1  0
  4 27  1  0
  5 28  1  0
  9 29  1  0
  9 30  1  0
 13 31  1  6
 14 32  1  0
 14 33  1  0
 14 34  1  0
 15 35  1  0
 15 36  1  0
 17 37  1  0
 18 38  1  0
 19 39  1  0
 20 40  1  0
 21 41  1  0
 22 42  1  0
 23 43  1  0
M  CHG  1  13   1
M  END
>  <UniqueID>  (63) 
52

>  <SMILES>  (63) 
COc1ccc(C(=O)CSC(=S)[N@@H+](C)Cc2ccccc2)cc1

>  <Energy>  (63) 
42.26997740713314

>  <Genealogy>  (63) 
COc1ccc(C(=O)CSC(=S)[NH+](C)Cc2ccccc2)cc1 (protonated)
COc1ccc(C(=O)CSC(=S)[N@@H+](C)Cc2ccccc2)cc1 (chirality)
COc1ccc(C(=O)CSC(=S)[N@@H+](C)Cc2ccccc2)cc1 (3D coordinates assigned)
COc1ccc(C(=O)CSC(=S)[N@@H+](C)Cc2ccccc2)cc1 (optimized conformer: 42.26997740713314 kcal/mol)

>  <smiles>  (63) 
COc1ccc(C(=O)CSC(=S)N(C)Cc2ccccc2)cc1

>  <score_type>  (63) 
oracle

>  <origin>  (63) 
adg

>  <m_score__min__energy>  (63) 
-6.6299999999999999

>  <m_primary>  (63) 
energy

$$$$
63:0
     RDKit          3D

 34 36  0  0  0  0  0  0  0  0999 V2000
   58.4050   22.2130   46.2590 O   0  0  0  0  0  0  0  0  0  0  0  0
   57.5760   23.3240   46.1810 C   0  0  0  0  0  0  0  0  0  0  0  0
   56.1880   23.1610   46.1830 C   0  0  0  0  0  0  0  0  0  0  0  0
   55.3540   24.2780   46.1130 C   0  0  0  0  0  0  0  0  0  0  0  0
   55.8990   25.5680   46.0340 C   0  0  0  0  0  0  0  0  0  0  0  0
   55.0520   26.6750   45.9790 O   0  0  0  0  0  0  0  0  0  0  0  0
   57.3000   25.7370   46.0110 C   0  0  0  0  0  0  0  0  0  0  0  0
   57.9260   27.1100   45.9330 C   0  0  0  0  0  0  0  0  0  0  0  0
   57.1680   27.9780   45.0280 N   0  0  0  0  0  0  0  0  0  0  0  0
   57.4000   29.3910   44.8690 C   0  0  0  0  0  0  0  0  0  0  0  0
   57.1130   29.9940   43.6350 C   0  0  0  0  0  0  0  0  0  0  0  0
   57.3160   31.3630   43.4430 C   0  0  0  0  0  0  0  0  0  0  0  0
   57.8120   32.1550   44.4860 C   0  0  0  0  0  0  0  0  0  0  0  0
   58.0170   33.5320   44.3050 C   0  0  0  0  0  0  0  0  0  0  0  0
   58.5140   34.3110   45.3530 C   0  0  0  0  0  0  0  0  0  0  0  0
   58.8110   33.7230   46.5870 C   0  0  0  0  0  0  0  0  0  0  0  0
   58.6120   32.3530   46.7790 C   0  0  0  0  0  0  0  0  0  0  0  0
   58.1120   31.5590   45.7340 C   0  0  0  0  0  0  0  0  0  0  0  0
   57.9080   30.1830   45.9160 C   0  0  0  0  0  0  0  0  0  0  0  0
   58.1290   24.6050   46.1010 C   0  0  0  0  0  0  0  0  0  0  0  0
   55.7528   22.1524   46.2397 H   0  0  0  0  0  0  0  0  0  0  0  0
   54.2620   24.1458   46.1198 H   0  0  0  0  0  0  0  0  0  0  0  0
   54.7760   27.0900   45.0970 H   0  0  0  0  0  0  0  0  0  0  0  0
   57.9373   27.5586   46.9373 H   0  0  0  0  0  0  0  0  0  0  0  0
   58.9510   27.0082   45.5470 H   0  0  0  0  0  0  0  0  0  0  0  0
   56.3810   27.5400   44.4980 H   0  0  0  0  0  0  0  0  0  0  0  0
   56.7234   29.3814   42.8086 H   0  0  0  0  0  0  0  0  0  0  0  0
   57.0855   31.8202   42.4694 H   0  0  0  0  0  0  0  0  0  0  0  0
   57.7858   33.9986   43.3361 H   0  0  0  0  0  0  0  0  0  0  0  0
   58.6722   35.3898   45.2073 H   0  0  0  0  0  0  0  0  0  0  0  0
   59.2024   34.3407   47.4087 H   0  0  0  0  0  0  0  0  0  0  0  0
   58.8476   31.8954   47.7512 H   0  0  0  0  0  0  0  0  0  0  0  0
   58.1469   29.7193   46.8845 H   0  0  0  0  0  0  0  0  0  0  0  0
   59.2220   24.7286   46.1085 H   0  0  0  0  0  0  0  0  0  0  0  0
  1  2  1  0
  2  3  2  0
  3  4  1  0
  4  5  2  0
  5  6  1  0
  5  7  1  0
  7  8  1  0
  8  9  1  0
  9 10  1  0
 10 11  2  0
 11 12  1  0
 12 13  2  0
 13 14  1  0
 14 15  2  0
 15 16  1  0
 16 17  2  0
 17 18  1  0
 18 19  2  0
  7 20  2  0
 20  2  1  0
 19 10  1  0
 18 13  1  0
  3 21  1  0
  4 22  1  0
  6 23  1  0
  8 24  1  0
  8 25  1  0
  9 26  1  0
 11 27  1  0
 12 28  1  0
 14 29  1  0
 15 30  1  0
 16 31  1  0
 17 32  1  0
 19 33  1  0
 20 34  1  0
M  CHG  1   1  -1
M  END
>  <UniqueID>  (64) 
53

>  <SMILES>  (64) 
[O-]c1ccc(O)c(CNc2ccc3ccccc3c2)c1

>  <Energy>  (64) 
39.453699850529766

>  <Genealogy>  (64) 
[O-]c1ccc(O)c(CNc2ccc3ccccc3c2)c1 (protonated)
[O-]c1ccc(O)c(CNc2ccc3ccccc3c2)c1 (3D coordinates assigned)
[O-]c1ccc(O)c(CNc2ccc3ccccc3c2)c1 (optimized conformer: 39.453699850529766 kcal/mol)

>  <smiles>  (64) 
Oc1ccc(O)c(CNc2ccc3ccccc3c2)c1

>  <score_type>  (64) 
oracle

>  <origin>  (64) 
adg

>  <m_score__min__energy>  (64) 
-10.890000000000001

>  <m_primary>  (64) 
energy

$$$$
64:0
     RDKit          3D

 59 61  0  0  0  0  0  0  0  0999 V2000
   55.9810   30.0920   43.4090 C   0  0  0  0  0  0  0  0  0  0  0  0
   56.9760   29.2040   44.1440 C   0  0  0  0  0  0  0  0  0  0  0  0
   56.3490   28.5590   45.2520 O   0  0  0  0  0  0  0  0  0  0  0  0
   56.8570   27.4550   45.9590 C   0  0  0  0  0  0  0  0  0  0  0  0
   56.2210   26.1950   45.9470 C   0  0  0  0  0  0  0  0  0  0  0  0
   56.7980   25.1070   46.6050 C   0  0  0  0  0  0  0  0  0  0  0  0
   58.0120   25.2550   47.2740 C   0  0  0  0  0  0  0  0  0  0  0  0
   58.6460   26.4980   47.3040 C   0  0  0  0  0  0  0  0  0  0  0  0
   58.0640   27.6070   46.6720 C   0  0  0  0  0  0  0  0  0  0  0  0
   58.7250   28.8790   46.7400 N   0  0  0  0  0  0  0  0  0  0  0  0
   59.9880   29.1220   46.1050 C   0  0  0  0  0  0  0  0  0  0  0  0
   60.4720   28.2680   45.3100 O   0  0  0  0  0  0  0  0  0  0  0  0
   60.6970   30.4280   46.3440 C   0  0  0  0  0  0  0  0  0  0  0  0
   59.8720   31.3840   47.0990 N   0  0  0  0  0  0  0  0  0  0  0  0
   59.6620   31.2750   48.5250 C   0  0  0  0  0  0  0  0  0  0  0  0
   59.1200   30.2320   48.9890 O   0  0  0  0  0  0  0  0  0  0  0  0
   60.0340   32.4020   49.4640 C   0  0  0  0  0  0  0  0  0  0  0  0
   61.5560   32.5550   49.6740 C   0  0  0  0  0  0  0  0  0  0  0  0
   62.3830   31.6960   48.7220 C   0  0  0  0  0  0  0  0  0  0  0  0
   63.7220   32.4020   48.6310 C   0  0  0  0  0  0  0  0  0  0  0  0
   63.4220   33.8860   48.7960 C   0  0  0  0  0  0  0  0  0  0  0  0
   62.0320   33.9890   49.4280 C   0  0  0  0  0  0  0  0  0  0  0  0
   59.1040   32.3510   46.3630 C   0  0  0  0  0  0  0  0  0  0  0  0
   57.7830   32.0430   46.0060 C   0  0  0  0  0  0  0  0  0  0  0  0
   57.0180   32.9580   45.2810 C   0  0  0  0  0  0  0  0  0  0  0  0
   57.5680   34.1840   44.9030 C   0  0  0  0  0  0  0  0  0  0  0  0
   58.8800   34.5030   45.2580 C   0  0  0  0  0  0  0  0  0  0  0  0
   59.6580   33.5970   46.0000 C   0  0  0  0  0  0  0  0  0  0  0  0
   61.0750   33.9500   46.3580 C   0  0  0  0  0  0  0  0  0  0  0  0
   55.3679   30.6391   44.1403 H   0  0  0  0  0  0  0  0  0  0  0  0
   56.5262   30.8093   42.7779 H   0  0  0  0  0  0  0  0  0  0  0  0
   55.3301   29.4691   42.7779 H   0  0  0  0  0  0  0  0  0  0  0  0
   57.3602   28.4408   43.4512 H   0  0  0  0  0  0  0  0  0  0  0  0
   57.8012   29.8284   44.5170 H   0  0  0  0  0  0  0  0  0  0  0  0
   55.2656   26.0695   45.4164 H   0  0  0  0  0  0  0  0  0  0  0  0
   56.2929   24.1299   46.5954 H   0  0  0  0  0  0  0  0  0  0  0  0
   58.4705   24.3917   47.7785 H   0  0  0  0  0  0  0  0  0  0  0  0
   59.6077   26.6087   47.8263 H   0  0  0  0  0  0  0  0  0  0  0  0
   58.1900   29.6970   47.1120 H   0  0  0  0  0  0  0  0  0  0  0  0
   61.6183   30.2311   46.9117 H   0  0  0  0  0  0  0  0  0  0  0  0
   60.9158   30.8753   45.3632 H   0  0  0  0  0  0  0  0  0  0  0  0
   59.6439   33.3432   49.0493 H   0  0  0  0  0  0  0  0  0  0  0  0
   59.5956   32.1630   50.4442 H   0  0  0  0  0  0  0  0  0  0  0  0
   61.7066   32.2435   50.7182 H   0  0  0  0  0  0  0  0  0  0  0  0
   62.5068   30.6799   49.1247 H   0  0  0  0  0  0  0  0  0  0  0  0
   61.9033   31.5852   47.7383 H   0  0  0  0  0  0  0  0  0  0  0  0
   64.3926   32.0557   49.4313 H   0  0  0  0  0  0  0  0  0  0  0  0
   64.2242   32.1949   47.6745 H   0  0  0  0  0  0  0  0  0  0  0  0
   64.1716   34.3532   49.4517 H   0  0  0  0  0  0  0  0  0  0  0  0
   63.4541   34.4051   47.8267 H   0  0  0  0  0  0  0  0  0  0  0  0
   62.0873   34.5390   50.3791 H   0  0  0  0  0  0  0  0  0  0  0  0
   61.3363   34.5305   48.7702 H   0  0  0  0  0  0  0  0  0  0  0  0
   57.3480   31.0760   46.2987 H   0  0  0  0  0  0  0  0  0  0  0  0
   55.9812   32.7129   45.0074 H   0  0  0  0  0  0  0  0  0  0  0  0
   56.9664   34.9003   44.3242 H   0  0  0  0  0  0  0  0  0  0  0  0
   59.3080   35.4700   44.9550 H   0  0  0  0  0  0  0  0  0  0  0  0
   61.1809   33.9764   47.4526 H   0  0  0  0  0  0  0  0  0  0  0  0
   61.7575   33.1944   45.9417 H   0  0  0  0  0  0  0  0  0  0  0  0
   61.3233   34.9374   45.9417 H   0  0  0  0  0  0  0  0  0  0  0  0
  1  2  1  0
  2  3  1  0
  3  4  1  0
  4  5  2  0
  5  6  1  0
  6  7  2  0
  7  8  1  0
  8  9  2  0
  9 10  1  0
 10 11  1  0
 11 12  2  0
 11 13  1  0
 13 14  1  0
 14 15  1  0
 15 16  2  0
 15 17  1  0
 17 18  1  0
 18 19  1  0
 19 20  1  0
 20 21  1  0
 21 22  1  0
 14 23  1  0
 23 24  2  0
 24 25  1  0
 25 26  2  0
 26 27  1  0
 27 28  2  0
 28 29  1  0
  9  4  1  0
 22 18  1  0
 28 23  1  0
  1 30  1  0
  1 31  1  0
  1 32  1  0
  2 33  1  0
  2 34  1  0
  5 35  1  0
  6 36  1  0
  7 37  1  0
  8 38  1  0
 10 39  1  0
 13 40  1  0
 13 41  1  0
 17 42  1  0
 17 43  1  0
 18 44  1  0
 19 45  1  0
 19 46  1  0
 20 47  1  0
 20 48  1  0
 21 49  1  0
 21 50  1  0
 22 51  1  0
 22 52  1  0
 24 53  1  0
 25 54  1  0
 26 55  1  0
 27 56  1  0
 29 57  1  0
 29 58  1  0
 29 59  1  0
M  END
>  <UniqueID>  (65) 
54

>  <SMILES>  (65) 
CCOc1ccccc1NC(=O)CN(C(=O)CC1CCCC1)c1ccccc1C

>  <Energy>  (65) 
66.73981623836174

>  <Genealogy>  (65) 
CCOc1ccccc1NC(=O)CN(C(=O)CC1CCCC1)c1ccccc1C (3D coordinates assigned)
CCOc1ccccc1NC(=O)CN(C(=O)CC1CCCC1)c1ccccc1C (nonaromatic ring conformer: 66.73981623836174 kcal/mol)

>  <smiles>  (65) 
CCOc1ccccc1NC(=O)CN(C(=O)CC1CCCC1)c1ccccc1C

>  <score_type>  (65) 
oracle

>  <origin>  (65) 
adg

>  <m_score__min__energy>  (65) 
-8.4199999999999999

>  <m_primary>  (65) 
energy

$$$$
65:0
     RDKit          3D

 43 45  0  0  1  0  0  0  0  0999 V2000
   56.4800   30.3410   43.5820 C   0  0  0  0  0  0  0  0  0  0  0  0
   56.7450   30.8210   44.8560 O   0  0  0  0  0  0  0  0  0  0  0  0
   57.4440   31.9570   45.1930 C   0  0  0  0  0  0  0  0  0  0  0  0
   57.0630   33.2400   44.8910 C   0  0  0  0  0  0  0  0  0  0  0  0
   57.8120   34.3500   45.2580 C   0  0  0  0  0  0  0  0  0  0  0  0
   58.9810   34.1310   45.9550 C   0  0  0  0  0  0  0  0  0  0  0  0
   59.3930   32.8470   46.2760 C   0  0  0  0  0  0  0  0  0  0  0  0
   58.6360   31.7590   45.9010 C   0  0  0  0  0  0  0  0  0  0  0  0
   59.0890   30.3740   46.2560 C   0  0  0  0  0  0  0  0  0  0  0  0
   59.4200   29.5890   45.0310 C   0  0  0  0  0  0  0  0  0  0  0  0
   59.5350   28.1800   45.3420 N   0  0  0  0  0  0  0  0  0  0  0  0
   58.3700   27.4010   45.5940 C   0  0  0  0  0  0  0  0  0  0  0  0
   57.1970   27.9080   45.5570 O   0  0  0  0  0  0  0  0  0  0  0  0
   58.4190   26.0120   45.9040 N   0  0  0  0  0  0  0  0  0  0  0  0
   57.8990   25.0820   45.1840 C   0  0  0  0  0  0  0  0  0  0  0  0
   58.1430   23.7810   45.5450 C   0  0  0  0  0  0  0  0  0  0  0  0
   57.5950   22.7690   44.7880 C   0  0  0  0  0  0  0  0  0  0  0  0
   57.8430   21.4770   45.1550 C   0  0  0  0  0  0  0  0  0  0  0  0
   58.5360   21.0750   46.1350 N   0  0  0  0  0  0  0  0  0  0  0  0
   57.2760   20.5120   44.3700 N   0  0  0  0  0  0  0  0  0  0  0  0
   56.5190   20.8380   43.2980 C   0  0  0  0  0  0  0  0  0  0  0  0
   56.2870   22.1360   42.9540 N   0  0  0  0  0  0  0  0  0  0  0  0
   56.8160   23.1150   43.6850 C   0  0  0  0  0  0  0  0  0  0  0  0
   56.6080   24.4630   43.3750 C   0  0  0  0  0  0  0  0  0  0  0  0
   57.1520   25.4420   44.1270 N   0  0  0  0  0  0  0  0  0  0  0  0
   55.9495   29.3801   43.6552 H   0  0  0  0  0  0  0  0  0  0  0  0
   55.8539   31.0652   43.0402 H   0  0  0  0  0  0  0  0  0  0  0  0
   57.4264   30.1970   43.0402 H   0  0  0  0  0  0  0  0  0  0  0  0
   56.1263   33.3955   44.3357 H   0  0  0  0  0  0  0  0  0  0  0  0
   57.4842   35.3682   45.0016 H   0  0  0  0  0  0  0  0  0  0  0  0
   59.5970   34.9893   46.2615 H   0  0  0  0  0  0  0  0  0  0  0  0
   60.3294   32.6961   46.8331 H   0  0  0  0  0  0  0  0  0  0  0  0
   59.9832   30.4403   46.8932 H   0  0  0  0  0  0  0  0  0  0  0  0
   58.2728   29.8642   46.7889 H   0  0  0  0  0  0  0  0  0  0  0  0
   58.6237   29.7304   44.2854 H   0  0  0  0  0  0  0  0  0  0  0  0
   60.3825   29.9432   44.6332 H   0  0  0  0  0  0  0  0  0  0  0  0
   60.4800   27.7360   45.3810 H   0  0  0  0  0  0  0  0  0  0  0  0
   58.7647   23.5504   46.4227 H   0  0  0  0  0  0  0  0  0  0  0  0
   59.1900   20.2770   46.1270 H   0  0  0  0  0  0  0  0  0  0  0  0
   57.4150   19.5170   44.5780 H   0  0  0  0  0  0  0  0  0  0  0  0
   56.0793   20.0350   42.6882 H   0  0  0  0  0  0  0  0  0  0  0  0
   55.9910   24.7291   42.5041 H   0  0  0  0  0  0  0  0  0  0  0  0
   56.9910   26.4440   43.8840 H   0  0  0  0  0  0  0  0  0  0  0  0
  1  2  1  0
  2  3  1  0
  3  4  2  0
  4  5  1  0
  5  6  2  0
  6  7  1  0
  7  8  2  0
  8  9  1  0
  9 10  1  0
 10 11  1  0
 11 12  1  0
 12 13  2  0
 12 14  1  0
 14 15  2  0
 15 16  1  0
 16 17  2  0
 17 18  1  0
 18 19  2  3
 18 20  1  0
 20 21  1  0
 21 22  2  0
 22 23  1  0
 23 24  2  0
 24 25  1  0
  8  3  1  0
 25 15  1  0
 23 17  1  0
  1 26  1  0
  1 27  1  0
  1 28  1  0
  4 29  1  0
  5 30  1  0
  6 31  1  0
  7 32  1  0
  9 33  1  0
  9 34  1  0
 10 35  1  0
 10 36  1  0
 11 37  1  0
 16 38  1  0
 19 39  1  0
 20 40  1  0
 21 41  1  0
 24 42  1  0
 25 43  1  0
M  END
>  <smiles>  (66) 
COc1ccccc1CCNC(=O)N=c1cc2c(=N)[nH]cnc2c[nH]1

>  <score_type>  (66) 
oracle

>  <origin>  (66) 
adg

>  <m_score__min__energy>  (66) 
-7.7300000000000004

>  <m_primary>  (66) 
energy

$$$$
66:0
     RDKit          3D

 57 61  0  0  0  0  0  0  0  0999 V2000
   55.1370   29.2370   44.8570 N   0  0  0  0  0  0  0  0  0  0  0  0
   56.4880   29.6580   45.0250 C   0  0  0  0  0  0  0  0  0  0  0  0
   57.1900   29.1210   45.9250 O   0  0  0  0  0  0  0  0  0  0  0  0
   57.0700   30.7080   44.1550 C   0  0  0  0  0  0  0  0  0  0  0  0
   56.8730   30.6830   42.7520 C   0  0  0  0  0  0  0  0  0  0  0  0
   57.4260   31.6860   41.9260 C   0  0  0  0  0  0  0  0  0  0  0  0
   58.1790   32.7310   42.4820 C   0  0  0  0  0  0  0  0  0  0  0  0
   58.3580   32.7370   43.8610 C   0  0  0  0  0  0  0  0  0  0  0  0
   59.0330   33.6370   44.5920 N   0  0  0  0  0  0  0  0  0  0  0  0
   58.8800   33.1680   45.8590 C   0  0  0  0  0  0  0  0  0  0  0  0
   59.4840   33.8410   47.0260 C   0  0  0  0  0  0  0  0  0  0  0  0
   58.8520   34.7970   47.5530 O   0  0  0  0  0  0  0  0  0  0  0  0
   60.7610   33.4450   47.5750 N   0  0  0  0  0  0  0  0  0  0  0  0
   61.2540   32.0670   47.4490 C   0  0  0  0  0  0  0  0  0  0  0  0
   62.2470   31.7380   48.5780 C   0  0  0  0  0  0  0  0  0  0  0  0
   61.8460   32.3590   49.8620 N   0  0  0  0  0  0  0  0  0  0  0  0
   60.5860   31.8060   50.4130 C   0  0  0  0  0  0  0  0  0  0  0  0
   60.2310   30.4910   49.7690 C   0  0  0  0  0  0  0  0  0  0  0  0
   60.9640   29.3360   50.0790 C   0  0  0  0  0  0  0  0  0  0  0  0
   60.6540   28.1180   49.4650 C   0  0  0  0  0  0  0  0  0  0  0  0
   59.6230   28.0420   48.5220 C   0  0  0  0  0  0  0  0  0  0  0  0
   59.3400   26.8030   47.9310 O   0  0  0  0  0  0  0  0  0  0  0  0
   58.8300   26.6180   46.6380 C   0  0  0  0  0  0  0  0  0  0  0  0
   57.7970   25.6980   46.3690 C   0  0  0  0  0  0  0  0  0  0  0  0
   57.3050   25.5540   45.0680 C   0  0  0  0  0  0  0  0  0  0  0  0
   57.8280   26.3310   44.0310 C   0  0  0  0  0  0  0  0  0  0  0  0
   58.8390   27.2600   44.2960 C   0  0  0  0  0  0  0  0  0  0  0  0
   59.3330   27.4070   45.5960 C   0  0  0  0  0  0  0  0  0  0  0  0
   58.8730   29.1950   48.2260 C   0  0  0  0  0  0  0  0  0  0  0  0
   59.1810   30.4110   48.8410 C   0  0  0  0  0  0  0  0  0  0  0  0
   61.8080   33.8440   49.7820 C   0  0  0  0  0  0  0  0  0  0  0  0
   61.5600   34.3910   48.3620 C   0  0  0  0  0  0  0  0  0  0  0  0
   58.1560   32.0230   45.9430 N   0  0  0  0  0  0  0  0  0  0  0  0
   57.8320   31.7720   44.6660 C   0  0  0  0  0  0  0  0  0  0  0  0
   54.4390   29.3440   45.6260 H   0  0  0  0  0  0  0  0  0  0  0  0
   56.2821   29.8723   42.3007 H   0  0  0  0  0  0  0  0  0  0  0  0
   57.2651   31.6477   40.8385 H   0  0  0  0  0  0  0  0  0  0  0  0
   58.6130   33.5188   41.8487 H   0  0  0  0  0  0  0  0  0  0  0  0
   60.4026   31.3727   47.5035 H   0  0  0  0  0  0  0  0  0  0  0  0
   61.7703   31.9635   46.4832 H   0  0  0  0  0  0  0  0  0  0  0  0
   62.2891   30.6466   48.7082 H   0  0  0  0  0  0  0  0  0  0  0  0
   63.2309   32.1409   48.2960 H   0  0  0  0  0  0  0  0  0  0  0  0
   60.7064   31.6527   51.4956 H   0  0  0  0  0  0  0  0  0  0  0  0
   59.7761   32.5210   50.2060 H   0  0  0  0  0  0  0  0  0  0  0  0
   61.7861   29.3883   50.8080 H   0  0  0  0  0  0  0  0  0  0  0  0
   61.2244   27.2141   49.7251 H   0  0  0  0  0  0  0  0  0  0  0  0
   57.3765   25.0915   47.1847 H   0  0  0  0  0  0  0  0  0  0  0  0
   56.5051   24.8280   44.8606 H   0  0  0  0  0  0  0  0  0  0  0  0
   57.4446   26.2119   43.0069 H   0  0  0  0  0  0  0  0  0  0  0  0
   59.2463   27.8760   43.4808 H   0  0  0  0  0  0  0  0  0  0  0  0
   60.1211   28.1465   45.8013 H   0  0  0  0  0  0  0  0  0  0  0  0
   58.0415   29.1388   47.5081 H   0  0  0  0  0  0  0  0  0  0  0  0
   58.5974   31.3108   48.5966 H   0  0  0  0  0  0  0  0  0  0  0  0
   61.0014   34.2049   50.4371 H   0  0  0  0  0  0  0  0  0  0  0  0
   62.8000   34.2042   50.0923 H   0  0  0  0  0  0  0  0  0  0  0  0
   61.0215   35.3476   48.4323 H   0  0  0  0  0  0  0  0  0  0  0  0
   62.5300   34.5353   47.8638 H   0  0  0  0  0  0  0  0  0  0  0  0
  1  2  1  0
  2  3  2  0
  2  4  1  0
  4  5  2  0
  5  6  1  0
  6  7  2  0
  7  8  1  0
  8  9  1  0
  9 10  1  0
 10 11  1  0
 11 12  2  0
 11 13  1  0
 13 14  1  0
 14 15  1  0
 15 16  1  0
 16 17  1  0
 17 18  1  0
 18 19  2  0
 19 20  1  0
 20 21  2  0
 21 22  1  0
 22 23  1  0
 23 24  2  0
 24 25  1  0
 25 26  2  0
 26 27  1  0
 27 28  2  0
 21 29  1  0
 29 30  2  0
 16 31  1  0
 31 32  1  0
 10 33  2  0
 33 34  1  0
 34  4  1  0
 34  8  2  0
 32 13  1  0
 30 18  1  0
 28 23  1  0
  1 35  1  0
  5 36  1  0
  6 37  1  0
  7 38  1  0
 14 39  1  0
 14 40  1  0
 15 41  1  0
 15 42  1  0
 17 43  1  0
 17 44  1  0
 19 45  1  0
 20 46  1  0
 24 47  1  0
 25 48  1  0
 26 49  1  0
 27 50  1  0
 28 51  1  0
 29 52  1  0
 30 53  1  0
 31 54  1  0
 31 55  1  0
 32 56  1  0
 32 57  1  0
M  CHG  2   1  -1   9  -1
M  END
>  <UniqueID>  (67) 
55

>  <SMILES>  (67) 
[NH-]C(=O)c1cccc2[n-]c(C(=O)N3CCN(Cc4ccc(Oc5ccccc5)cc4)CC3)nc12

>  <Energy>  (67) 
114.73511116366046

>  <Genealogy>  (67) 
[NH-]C(=O)c1cccc2[n-]c(C(=O)N3CCN(Cc4ccc(Oc5ccccc5)cc4)CC3)nc12 (protonated)
[NH-]C(=O)c1cccc2[n-]c(C(=O)N3CCN(Cc4ccc(Oc5ccccc5)cc4)CC3)nc12 (3D coordinates assigned)
[NH-]C(=O)c1cccc2[n-]c(C(=O)N3CCN(Cc4ccc(Oc5ccccc5)cc4)CC3)nc12 (nonaromatic ring conformer: 114.73511116366046 kcal/mol)

>  <smiles>  (67) 
NC(=O)c1cccc2[nH]c(C(=O)N3CCN(Cc4ccc(Oc5ccccc5)cc4)CC3)nc12

>  <score_type>  (67) 
oracle

>  <origin>  (67) 
adg

>  <m_score__min__energy>  (67) 
-13.84

>  <m_primary>  (67) 
energy

$$$$
67:0
     RDKit          3D

 41 43  0  0  0  0  0  0  0  0999 V2000
   57.2030   34.0960   45.6050 C   0  0  0  0  0  0  0  0  0  0  0  0
   58.3100   34.5390   44.8820 C   0  0  0  0  0  0  0  0  0  0  0  0
   59.5950   34.1940   45.3010 C   0  0  0  0  0  0  0  0  0  0  0  0
   59.7610   33.3930   46.4430 C   0  0  0  0  0  0  0  0  0  0  0  0
   61.1180   33.0040   46.8990 C   0  0  0  0  0  0  0  0  0  0  0  0
   62.1890   33.8930   46.7120 C   0  0  0  0  0  0  0  0  0  0  0  0
   63.4760   33.5500   47.1330 C   0  0  0  0  0  0  0  0  0  0  0  0
   63.7060   32.3190   47.7480 C   0  0  0  0  0  0  0  0  0  0  0  0
   62.6490   31.4290   47.9510 C   0  0  0  0  0  0  0  0  0  0  0  0
   61.3450   31.7640   47.5370 C   0  0  0  0  0  0  0  0  0  0  0  0
   60.2560   30.9060   47.7580 O   0  0  0  0  0  0  0  0  0  0  0  0
   60.0020   29.7010   47.0400 C   0  0  0  0  0  0  0  0  0  0  0  0
   58.5750   29.7160   46.4670 C   0  0  0  0  0  0  0  0  0  0  0  0
   58.5170   30.4570   45.1200 C   0  0  0  0  0  0  0  0  0  0  0  0
   57.0700   30.5340   44.5840 C   0  0  0  0  0  0  0  0  0  0  0  0
   56.1980   29.4470   45.0690 N   0  0  0  0  0  0  0  0  0  0  0  0
   56.9290   28.1830   45.2290 C   0  0  0  0  0  0  0  0  0  0  0  0
   58.0010   28.2850   46.3320 C   0  0  0  0  0  0  0  0  0  0  0  0
   58.6590   32.9820   47.1410 N   0  0  0  0  0  0  0  0  0  0  0  0
   57.4000   33.3140   46.7440 C   0  0  0  0  0  0  0  0  0  0  0  0
   56.1855   34.3601   45.2811 H   0  0  0  0  0  0  0  0  0  0  0  0
   58.1704   35.1587   43.9839 H   0  0  0  0  0  0  0  0  0  0  0  0
   60.4731   34.5471   44.7405 H   0  0  0  0  0  0  0  0  0  0  0  0
   62.0131   34.8663   46.2306 H   0  0  0  0  0  0  0  0  0  0  0  0
   64.3093   34.2514   46.9794 H   0  0  0  0  0  0  0  0  0  0  0  0
   64.7214   32.0490   48.0735 H   0  0  0  0  0  0  0  0  0  0  0  0
   62.8360   30.4602   48.4373 H   0  0  0  0  0  0  0  0  0  0  0  0
   60.7240   29.6103   46.2151 H   0  0  0  0  0  0  0  0  0  0  0  0
   60.1053   28.8462   47.7246 H   0  0  0  0  0  0  0  0  0  0  0  0
   57.9452   30.2649   47.1826 H   0  0  0  0  0  0  0  0  0  0  0  0
   58.9038   31.4778   45.2556 H   0  0  0  0  0  0  0  0  0  0  0  0
   59.1280   29.9030   44.3922 H   0  0  0  0  0  0  0  0  0  0  0  0
   56.6345   31.4943   44.8973 H   0  0  0  0  0  0  0  0  0  0  0  0
   57.1273   30.4355   43.4899 H   0  0  0  0  0  0  0  0  0  0  0  0
   55.7910   29.7190   45.9950 H   0  0  0  0  0  0  0  0  0  0  0  0
   56.2159   27.3892   45.4962 H   0  0  0  0  0  0  0  0  0  0  0  0
   57.4330   27.9536   44.2786 H   0  0  0  0  0  0  0  0  0  0  0  0
   57.5491   27.9937   47.2917 H   0  0  0  0  0  0  0  0  0  0  0  0
   58.8297   27.6160   46.0569 H   0  0  0  0  0  0  0  0  0  0  0  0
   58.7710   32.3840   47.9890 H   0  0  0  0  0  0  0  0  0  0  0  0
   56.5333   32.9641   47.3240 H   0  0  0  0  0  0  0  0  0  0  0  0
  1  2  2  0
  2  3  1  0
  3  4  2  0
  4  5  1  0
  5  6  2  0
  6  7  1  0
  7  8  2  0
  8  9  1  0
  9 10  2  0
 10 11  1  0
 11 12  1  0
 12 13  1  0
 13 14  1  0
 14 15  1  0
 15 16  1  0
 16 17  1  0
 17 18  1  0
  4 19  1  0
 19 20  2  0
 20  1  1  0
 10  5  1  0
 18 13  1  0
  1 21  1  0
  2 22  1  0
  3 23  1  0
  6 24  1  0
  7 25  1  0
  8 26  1  0
  9 27  1  0
 12 28  1  0
 12 29  1  0
 13 30  1  0
 14 31  1  0
 14 32  1  0
 15 33  1  0
 15 34  1  0
 16 35  1  0
 17 36  1  0
 17 37  1  0
 18 38  1  0
 18 39  1  0
 19 40  1  0
 20 41  1  0
M  CHG  1  19   1
M  END
>  <UniqueID>  (68) 
56

>  <SMILES>  (68) 
c1ccc(-c2ccccc2OCC2CCNCC2)[nH+]c1

>  <Energy>  (68) 
49.62178852181679

>  <Genealogy>  (68) 
c1ccc(-c2ccccc2OCC2CCNCC2)[nH+]c1 (protonated)
c1ccc(-c2ccccc2OCC2CCNCC2)[nH+]c1 (3D coordinates assigned)
c1ccc(-c2ccccc2OCC2CCNCC2)[nH+]c1 (nonaromatic ring conformer: 49.62178852181679 kcal/mol)

>  <smiles>  (68) 
c1ccc(-c2ccccc2OCC2CCNCC2)nc1

>  <score_type>  (68) 
oracle

>  <origin>  (68) 
adg

>  <m_score__min__energy>  (68) 
-6.1399999999999997

>  <m_primary>  (68) 
energy

$$$$
68:0
     RDKit          3D

 49 51  0  0  0  0  0  0  0  0999 V2000
   63.7480   33.4250   46.7620 C   0  0  0  0  0  0  0  0  0  0  0  0
   63.2570   32.7560   48.3350 S   0  0  0  0  0  0  0  0  0  0  0  0
   63.0490   31.2750   48.1760 O   0  0  0  0  0  0  0  0  0  0  0  0
   64.3290   32.9810   49.3630 O   0  0  0  0  0  0  0  0  0  0  0  0
   61.7670   33.4750   48.8630 N   0  0  0  0  0  0  0  0  0  0  0  0
   60.6000   33.6430   48.0330 C   0  0  0  0  0  0  0  0  0  0  0  0
   60.5710   34.5970   46.9970 C   0  0  0  0  0  0  0  0  0  0  0  0
   59.4320   34.7640   46.2070 C   0  0  0  0  0  0  0  0  0  0  0  0
   58.2870   33.9960   46.4460 C   0  0  0  0  0  0  0  0  0  0  0  0
   57.0720   34.1540   45.5710 C   0  0  0  0  0  0  0  0  0  0  0  0
   57.3040   33.5610   44.2550 N   0  0  0  0  0  0  0  0  0  0  0  0
   57.5130   32.1520   44.0720 C   0  0  0  0  0  0  0  0  0  0  0  0
   57.7210   31.5810   42.5470 S   0  0  0  0  0  0  0  0  0  0  0  0
   57.3520   31.2400   45.1720 N   0  0  0  0  0  0  0  0  0  0  0  0
   57.9890   29.9530   45.2600 C   0  0  0  0  0  0  0  0  0  0  0  0
   59.3120   29.7610   44.8250 C   0  0  0  0  0  0  0  0  0  0  0  0
   59.9110   28.5030   44.9290 C   0  0  0  0  0  0  0  0  0  0  0  0
   59.2070   27.4320   45.4860 C   0  0  0  0  0  0  0  0  0  0  0  0
   57.9000   27.6220   45.9710 C   0  0  0  0  0  0  0  0  0  0  0  0
   57.1310   26.5520   46.5390 N   0  0  0  0  0  0  0  0  0  0  0  0
   56.0260   25.8650   45.9380 C   0  0  0  0  0  0  0  0  0  0  0  0
   54.8560   26.3250   46.0150 O   0  0  0  0  0  0  0  0  0  0  0  0
   56.2710   24.5860   45.2000 C   0  0  0  0  0  0  0  0  0  0  0  0
   57.7300   24.1580   45.1540 C   0  0  0  0  0  0  0  0  0  0  0  0
   57.0680   24.7310   43.9140 C   0  0  0  0  0  0  0  0  0  0  0  0
   57.2980   28.8810   45.8430 C   0  0  0  0  0  0  0  0  0  0  0  0
   58.3070   33.0360   47.4640 C   0  0  0  0  0  0  0  0  0  0  0  0
   59.4470   32.8590   48.2570 C   0  0  0  0  0  0  0  0  0  0  0  0
   59.3970   31.6180   49.5050 Cl  0  0  0  0  0  0  0  0  0  0  0  0
   64.3920   34.3024   46.9216 H   0  0  0  0  0  0  0  0  0  0  0  0
   64.3019   32.6618   46.1957 H   0  0  0  0  0  0  0  0  0  0  0  0
   62.8538   33.7246   46.1957 H   0  0  0  0  0  0  0  0  0  0  0  0
   61.7420   33.7850   49.8590 H   0  0  0  0  0  0  0  0  0  0  0  0
   61.4582   35.2191   46.8077 H   0  0  0  0  0  0  0  0  0  0  0  0
   59.4347   35.5032   45.3924 H   0  0  0  0  0  0  0  0  0  0  0  0
   56.2162   33.6532   46.0472 H   0  0  0  0  0  0  0  0  0  0  0  0
   56.8636   35.2266   45.4445 H   0  0  0  0  0  0  0  0  0  0  0  0
   57.3510   34.1830   43.4150 H   0  0  0  0  0  0  0  0  0  0  0  0
   56.6880   31.4990   45.9330 H   0  0  0  0  0  0  0  0  0  0  0  0
   59.8775   30.6040   44.4013 H   0  0  0  0  0  0  0  0  0  0  0  0
   60.9406   28.3551   44.5711 H   0  0  0  0  0  0  0  0  0  0  0  0
   59.6756   26.4386   45.5454 H   0  0  0  0  0  0  0  0  0  0  0  0
   55.3211   24.1048   45.4759 H   0  0  0  0  0  0  0  0  0  0  0  0
   58.4918   24.7425   45.6906 H   0  0  0  0  0  0  0  0  0  0  0  0
   58.2766   23.2322   45.3864 H   0  0  0  0  0  0  0  0  0  0  0  0
   57.3506   25.7306   43.5521 H   0  0  0  0  0  0  0  0  0  0  0  0
   56.9368   24.3918   42.8759 H   0  0  0  0  0  0  0  0  0  0  0  0
   56.2699   29.0303   46.2046 H   0  0  0  0  0  0  0  0  0  0  0  0
   57.4176   32.4139   47.6430 H   0  0  0  0  0  0  0  0  0  0  0  0
  1  2  1  0
  2  3  2  0
  2  4  2  0
  2  5  1  0
  5  6  1  0
  6  7  2  0
  7  8  1  0
  8  9  2  0
  9 10  1  0
 10 11  1  0
 11 12  1  0
 12 13  2  0
 12 14  1  0
 14 15  1  0
 15 16  2  0
 16 17  1  0
 17 18  2  0
 18 19  1  0
 19 20  1  0
 20 21  1  0
 21 22  2  0
 21 23  1  0
 23 24  1  0
 24 25  1  0
 19 26  2  0
  9 27  1  0
 27 28  2  0
 28 29  1  0
 28  6  1  0
 26 15  1  0
 25 23  1  0
  1 30  1  0
  1 31  1  0
  1 32  1  0
  5 33  1  0
  7 34  1  0
  8 35  1  0
 10 36  1  0
 10 37  1  0
 11 38  1  0
 14 39  1  0
 16 40  1  0
 17 41  1  0
 18 42  1  0
 23 43  1  0
 24 44  1  0
 24 45  1  0
 25 46  1  0
 25 47  1  0
 26 48  1  0
 27 49  1  0
M  CHG  1  20  -1
M  END
>  <UniqueID>  (69) 
57

>  <SMILES>  (69) 
CS(=O)(=O)Nc1ccc(CNC(=S)Nc2cccc([N-]C(=O)C3CC3)c2)cc1Cl

>  <Energy>  (69) 
320.0268019845201

>  <Genealogy>  (69) 
CS(=O)(=O)Nc1ccc(CNC(=S)Nc2cccc([N-]C(=O)C3CC3)c2)cc1Cl (protonated)
CS(=O)(=O)Nc1ccc(CNC(=S)Nc2cccc([N-]C(=O)C3CC3)c2)cc1Cl (3D coordinates assigned)
CS(=O)(=O)Nc1ccc(CNC(=S)Nc2cccc([N-]C(=O)C3CC3)c2)cc1Cl (nonaromatic ring conformer: 320.0268019845201 kcal/mol)

>  <smiles>  (69) 
CS(=O)(=O)Nc1ccc(CNC(=S)Nc2cccc(NC(=O)C3CC3)c2)cc1Cl

>  <score_type>  (69) 
oracle

>  <origin>  (69) 
adg

>  <m_score__min__energy>  (69) 
-11.01

>  <m_primary>  (69) 
energy

$$$$
69:0
     RDKit          3D

 51 54  0  0  0  0  0  0  0  0999 V2000
   55.5370   26.0920   46.3590 O   0  0  0  0  0  0  0  0  0  0  0  0
   56.7420   26.4210   46.1930 C   0  0  0  0  0  0  0  0  0  0  0  0
   57.7740   25.4250   46.2790 N   0  0  0  0  0  0  0  0  0  0  0  0
   57.4760   24.0060   46.4570 C   0  0  0  0  0  0  0  0  0  0  0  0
   57.1840   23.3660   45.1270 C   0  0  0  0  0  0  0  0  0  0  0  0
   56.2210   23.9280   44.2730 C   0  0  0  0  0  0  0  0  0  0  0  0
   55.9300   23.3250   43.0460 C   0  0  0  0  0  0  0  0  0  0  0  0
   56.5950   22.1560   42.6640 C   0  0  0  0  0  0  0  0  0  0  0  0
   57.5510   21.5880   43.5110 C   0  0  0  0  0  0  0  0  0  0  0  0
   57.8440   22.1880   44.7390 C   0  0  0  0  0  0  0  0  0  0  0  0
   57.0640   27.8320   45.9160 C   0  0  0  0  0  0  0  0  0  0  0  0
   58.0990   28.5750   46.4740 C   0  0  0  0  0  0  0  0  0  0  0  0
   57.9730   29.8060   45.8680 C   0  0  0  0  0  0  0  0  0  0  0  0
   56.9320   29.7850   45.0280 N   0  0  0  0  0  0  0  0  0  0  0  0
   56.3770   28.5860   45.0260 N   0  0  0  0  0  0  0  0  0  0  0  0
   56.5860   30.8840   44.1270 C   0  0  0  0  0  0  0  0  0  0  0  0
   57.0180   32.2360   44.7380 C   0  0  0  0  0  0  0  0  0  0  0  0
   58.3900   32.1770   45.2830 N   0  0  0  0  0  0  0  0  0  0  0  0
   59.2350   33.3750   45.2600 C   0  0  0  0  0  0  0  0  0  0  0  0
   58.9280   34.2660   46.4650 C   0  0  0  0  0  0  0  0  0  0  0  0
   60.1360   34.7200   47.0770 O   0  0  0  0  0  0  0  0  0  0  0  0
   61.2330   33.9090   47.4150 C   0  0  0  0  0  0  0  0  0  0  0  0
   62.4030   33.8400   46.6310 C   0  0  0  0  0  0  0  0  0  0  0  0
   63.4630   33.0150   47.0200 C   0  0  0  0  0  0  0  0  0  0  0  0
   63.3690   32.2560   48.1890 C   0  0  0  0  0  0  0  0  0  0  0  0
   62.2150   32.3220   48.9730 C   0  0  0  0  0  0  0  0  0  0  0  0
   61.1530   33.1460   48.5870 C   0  0  0  0  0  0  0  0  0  0  0  0
   58.7940   31.0020   46.0140 C   0  0  0  0  0  0  0  0  0  0  0  0
   59.8260   30.9990   46.7380 O   0  0  0  0  0  0  0  0  0  0  0  0
   58.7780   25.7080   46.2280 H   0  0  0  0  0  0  0  0  0  0  0  0
   58.3418   23.5078   46.9178 H   0  0  0  0  0  0  0  0  0  0  0  0
   56.5942   23.9030   47.1064 H   0  0  0  0  0  0  0  0  0  0  0  0
   55.6937   24.8463   44.5709 H   0  0  0  0  0  0  0  0  0  0  0  0
   55.1766   23.7709   42.3799 H   0  0  0  0  0  0  0  0  0  0  0  0
   56.3660   21.6835   41.6974 H   0  0  0  0  0  0  0  0  0  0  0  0
   58.0734   20.6677   43.2108 H   0  0  0  0  0  0  0  0  0  0  0  0
   58.5944   21.7360   45.4043 H   0  0  0  0  0  0  0  0  0  0  0  0
   58.8410   28.2560   47.2208 H   0  0  0  0  0  0  0  0  0  0  0  0
   57.0999   30.7399   43.1651 H   0  0  0  0  0  0  0  0  0  0  0  0
   55.4966   30.8922   43.9752 H   0  0  0  0  0  0  0  0  0  0  0  0
   56.9780   33.0092   43.9566 H   0  0  0  0  0  0  0  0  0  0  0  0
   56.3314   32.4736   45.5639 H   0  0  0  0  0  0  0  0  0  0  0  0
   60.2924   33.0736   45.2919 H   0  0  0  0  0  0  0  0  0  0  0  0
   59.0308   33.9386   44.3377 H   0  0  0  0  0  0  0  0  0  0  0  0
   58.3430   35.1358   46.1314 H   0  0  0  0  0  0  0  0  0  0  0  0
   58.3563   33.6815   47.2009 H   0  0  0  0  0  0  0  0  0  0  0  0
   62.4822   34.4370   45.7105 H   0  0  0  0  0  0  0  0  0  0  0  0
   64.3729   32.9636   46.4041 H   0  0  0  0  0  0  0  0  0  0  0  0
   64.2036   31.6066   48.4919 H   0  0  0  0  0  0  0  0  0  0  0  0
   62.1414   31.7257   49.8944 H   0  0  0  0  0  0  0  0  0  0  0  0
   60.2471   33.1954   49.2091 H   0  0  0  0  0  0  0  0  0  0  0  0
  1  2  2  0
  2  3  1  0
  3  4  1  0
  4  5  1  0
  5  6  2  0
  6  7  1  0
  7  8  2  0
  8  9  1  0
  9 10  2  0
  2 11  1  0
 11 12  1  0
 12 13  2  0
 13 14  1  0
 14 15  1  0
 14 16  1  0
 16 17  1  0
 17 18  1  0
 18 19  1  0
 19 20  1  0
 20 21  1  0
 21 22  1  0
 22 23  2  0
 23 24  1  0
 24 25  2  0
 25 26  1  0
 26 27  2  0
 18 28  1  0
 28 29  2  0
 10  5  1  0
 15 11  2  0
 27 22  1  0
 28 13  1  0
  3 30  1  0
  4 31  1  0
  4 32  1  0
  6 33  1  0
  7 34  1  0
  8 35  1  0
  9 36  1  0
 10 37  1  0
 12 38  1  0
 16 39  1  0
 16 40  1  0
 17 41  1  0
 17 42  1  0
 19 43  1  0
 19 44  1  0
 20 45  1  0
 20 46  1  0
 23 47  1  0
 24 48  1  0
 25 49  1  0
 26 50  1  0
 27 51  1  0
M  END
>  <UniqueID>  (70) 
58

>  <SMILES>  (70) 
O=C(NCc1ccccc1)c1cc2n(n1)CCN(CCOc1ccccc1)C2=O

>  <Energy>  (70) 
81.57105765802174

>  <Genealogy>  (70) 
O=C(NCc1ccccc1)c1cc2n(n1)CCN(CCOc1ccccc1)C2=O (3D coordinates assigned)
O=C(NCc1ccccc1)c1cc2n(n1)CCN(CCOc1ccccc1)C2=O (nonaromatic ring conformer: 81.57105765802174 kcal/mol)

>  <smiles>  (70) 
O=C(NCc1ccccc1)c1cc2n(n1)CCN(CCOc1ccccc1)C2=O

>  <score_type>  (70) 
oracle

>  <origin>  (70) 
adg

>  <m_score__min__energy>  (70) 
-8.1199999999999992

>  <m_primary>  (70) 
energy

$$$$
70:0
     RDKit          3D

 71 74  0  0  0  0  0  0  0  0999 V2000
   55.6010   22.9860   42.9880 C   0  0  0  0  0  0  0  0  0  0  0  0
   55.5150   23.5810   44.3940 C   0  0  0  0  0  0  0  0  0  0  0  0
   56.5880   24.6540   44.6480 C   0  0  0  0  0  0  0  0  0  0  0  0
   56.2620   25.6150   46.1240 S   0  0  0  0  0  0  0  0  0  0  0  0
   54.9460   26.3300   45.9880 O   0  0  0  0  0  0  0  0  0  0  0  0
   56.1620   24.6780   47.2960 O   0  0  0  0  0  0  0  0  0  0  0  0
   57.5430   26.7810   46.4480 C   0  0  0  0  0  0  0  0  0  0  0  0
   57.7010   28.0120   45.9110 C   0  0  0  0  0  0  0  0  0  0  0  0
   56.8360   28.7030   44.9250 C   0  0  0  0  0  0  0  0  0  0  0  0
   57.2920   29.0040   43.7920 O   0  0  0  0  0  0  0  0  0  0  0  0
   55.5190   29.0260   45.2160 O   0  0  0  0  0  0  0  0  0  0  0  0
   58.9000   28.5500   46.4470 N   0  0  0  0  0  0  0  0  0  0  0  0
   59.5870   29.7050   46.4790 C   0  0  0  0  0  0  0  0  0  0  0  0
   59.2840   30.7550   45.8520 O   0  0  0  0  0  0  0  0  0  0  0  0
   60.6550   29.5430   47.3500 C   0  0  0  0  0  0  0  0  0  0  0  0
   61.5520   30.5750   47.7700 N   0  0  0  0  0  0  0  0  0  0  0  0
   61.3840   31.4430   48.8970 C   0  0  0  0  0  0  0  0  0  0  0  0
   62.4120   31.9070   49.4590 O   0  0  0  0  0  0  0  0  0  0  0  0
   60.0210   31.7700   49.4690 C   0  0  2  0  0  0  0  0  0  0  0  0
   60.1020   33.0310   50.2190 N   0  0  0  0  0  0  0  0  0  0  0  0
   59.2730   33.9480   49.6410 O   0  0  0  0  0  0  0  0  0  0  0  0
   59.9730   34.5330   48.5670 C   0  0  0  0  0  0  0  0  0  0  0  0
   59.2630   34.2410   47.2720 C   0  0  0  0  0  0  0  0  0  0  0  0
   59.7410   34.7910   46.0710 C   0  0  0  0  0  0  0  0  0  0  0  0
   59.0800   34.5360   44.8650 C   0  0  0  0  0  0  0  0  0  0  0  0
   57.9430   33.7240   44.8500 C   0  0  0  0  0  0  0  0  0  0  0  0
   57.4630   33.1720   46.0410 C   0  0  0  0  0  0  0  0  0  0  0  0
   58.1180   33.4280   47.2490 C   0  0  0  0  0  0  0  0  0  0  0  0
   59.4700   30.6230   50.3020 C   0  0  0  0  0  0  0  0  0  0  0  0
   58.3150   30.1710   50.0590 O   0  0  0  0  0  0  0  0  0  0  0  0
   60.2020   30.1260   51.4330 N   0  0  0  0  0  0  0  0  0  0  0  0
   59.5880   29.2570   52.4380 C   0  0  0  0  0  0  0  0  0  0  0  0
   59.2220   30.0560   53.6940 C   0  0  0  0  0  0  0  0  0  0  0  0
   58.9140   31.4930   53.3580 C   0  0  0  0  0  0  0  0  0  0  0  0
   57.7060   31.8300   52.7210 C   0  0  0  0  0  0  0  0  0  0  0  0
   57.4460   33.1580   52.3630 C   0  0  0  0  0  0  0  0  0  0  0  0
   58.3880   34.1540   52.6350 C   0  0  0  0  0  0  0  0  0  0  0  0
   59.5940   33.8260   53.2610 C   0  0  0  0  0  0  0  0  0  0  0  0
   59.8610   32.4990   53.6160 C   0  0  0  0  0  0  0  0  0  0  0  0
   60.5290   28.2510   47.8700 C   0  0  0  0  0  0  0  0  0  0  0  0
   59.4570   27.7040   47.2650 N   0  0  0  0  0  0  0  0  0  0  0  0
   58.6880   26.4860   47.4010 C   0  0  0  0  0  0  0  0  0  0  0  0
   55.7580   21.8996   43.0586 H   0  0  0  0  0  0  0  0  0  0  0  0
   54.6645   23.1867   42.4470 H   0  0  0  0  0  0  0  0  0  0  0  0
   56.4423   23.4437   42.4470 H   0  0  0  0  0  0  0  0  0  0  0  0
   54.5226   24.0374   44.5235 H   0  0  0  0  0  0  0  0  0  0  0  0
   55.6826   22.7650   45.1124 H   0  0  0  0  0  0  0  0  0  0  0  0
   57.5636   24.1580   44.7585 H   0  0  0  0  0  0  0  0  0  0  0  0
   56.5796   25.3441   43.7915 H   0  0  0  0  0  0  0  0  0  0  0  0
   59.3036   31.9055   48.6462 H   0  0  0  0  0  0  0  0  0  0  0  0
   61.0840   33.3900   50.1840 H   0  0  0  0  0  0  0  0  0  0  0  0
   60.0262   35.6215   48.7162 H   0  0  0  0  0  0  0  0  0  0  0  0
   60.9888   34.1129   48.5255 H   0  0  0  0  0  0  0  0  0  0  0  0
   60.6396   35.4254   46.0790 H   0  0  0  0  0  0  0  0  0  0  0  0
   59.4552   34.9746   43.9286 H   0  0  0  0  0  0  0  0  0  0  0  0
   57.4258   33.5192   43.9010 H   0  0  0  0  0  0  0  0  0  0  0  0
   56.5670   32.5341   46.0276 H   0  0  0  0  0  0  0  0  0  0  0  0
   57.7358   32.9917   48.1837 H   0  0  0  0  0  0  0  0  0  0  0  0
   61.1650   30.4730   51.6250 H   0  0  0  0  0  0  0  0  0  0  0  0
   58.6764   28.8070   52.0179 H   0  0  0  0  0  0  0  0  0  0  0  0
   60.3079   28.4728   52.7149 H   0  0  0  0  0  0  0  0  0  0  0  0
   58.3378   29.6003   54.1637 H   0  0  0  0  0  0  0  0  0  0  0  0
   60.0809   30.0362   54.3809 H   0  0  0  0  0  0  0  0  0  0  0  0
   56.9637   31.0479   52.5036 H   0  0  0  0  0  0  0  0  0  0  0  0
   56.4992   33.4180   51.8670 H   0  0  0  0  0  0  0  0  0  0  0  0
   58.1801   35.1975   52.3560 H   0  0  0  0  0  0  0  0  0  0  0  0
   60.3337   34.6116   53.4747 H   0  0  0  0  0  0  0  0  0  0  0  0
   60.8155   32.2423   54.0987 H   0  0  0  0  0  0  0  0  0  0  0  0
   61.1759   27.7764   48.6225 H   0  0  0  0  0  0  0  0  0  0  0  0
   59.2637   25.6036   47.0849 H   0  0  0  0  0  0  0  0  0  0  0  0
   58.3811   26.2474   48.4300 H   0  0  0  0  0  0  0  0  0  0  0  0
  1  2  1  0
  2  3  1  0
  3  4  1  0
  4  5  2  0
  4  6  2  0
  4  7  1  0
  7  8  2  0
  8  9  1  0
  9 10  2  0
  9 11  1  0
  8 12  1  0
 12 13  1  0
 13 14  2  0
 13 15  1  0
 15 16  1  0
 16 17  1  0
 17 18  2  0
 17 19  1  0
 19 20  1  0
 20 21  1  0
 21 22  1  0
 22 23  1  0
 23 24  2  0
 24 25  1  0
 25 26  2  0
 26 27  1  0
 27 28  2  0
 19 29  1  0
 29 30  2  0
 29 31  1  0
 31 32  1  0
 32 33  1  0
 33 34  1  0
 34 35  2  0
 35 36  1  0
 36 37  2  0
 37 38  1  0
 38 39  2  0
 15 40  2  0
 40 41  1  0
 41 42  1  0
 42  7  1  0
 41 12  1  0
 28 23  1  0
 39 34  1  0
  1 43  1  0
  1 44  1  0
  1 45  1  0
  2 46  1  0
  2 47  1  0
  3 48  1  0
  3 49  1  0
 19 50  1  6
 20 51  1  0
 22 52  1  0
 22 53  1  0
 24 54  1  0
 25 55  1  0
 26 56  1  0
 27 57  1  0
 28 58  1  0
 31 59  1  0
 32 60  1  0
 32 61  1  0
 33 62  1  0
 33 63  1  0
 35 64  1  0
 36 65  1  0
 37 66  1  0
 38 67  1  0
 39 68  1  0
 40 69  1  0
 42 70  1  0
 42 71  1  0
M  CHG  2  11  -1  16  -1
M  END
>  <UniqueID>  (71) 
59

>  <SMILES>  (71) 
CCCS(=O)(=O)C1=C(C(=O)[O-])n2c(=O)c([N-]C(=O)[C@H](NOCc3ccccc3)C(=O)NCCc3ccccc3)cn2C1

>  <Energy>  (71) 
143.24639553774895

>  <Genealogy>  (71) 
CCCS(=O)(=O)C1=C(C(=O)[O-])n2c(=O)c([N-]C(=O)C(NOCc3ccccc3)C(=O)NCCc3ccccc3)cn2C1 (protonated)
CCCS(=O)(=O)C1=C(C(=O)[O-])n2c(=O)c([N-]C(=O)[C@H](NOCc3ccccc3)C(=O)NCCc3ccccc3)cn2C1 (chirality)
CCCS(=O)(=O)C1=C(C(=O)[O-])n2c(=O)c([N-]C(=O)[C@H](NOCc3ccccc3)C(=O)NCCc3ccccc3)cn2C1 (3D coordinates assigned)
CCCS(=O)(=O)C1=C(C(=O)[O-])n2c(=O)c([N-]C(=O)[C@H](NOCc3ccccc3)C(=O)NCCc3ccccc3)cn2C1 (nonaromatic ring conformer: 143.24639553774895 kcal/mol)

>  <smiles>  (71) 
CCCS(=O)(=O)C1=C(C(=O)O)n2c(=O)c(NC(=O)C(NOCc3ccccc3)C(=O)NCCc3ccccc3)cn2C1

>  <score_type>  (71) 
oracle

>  <origin>  (71) 
adg

>  <m_score__min__energy>  (71) 
-13.16

>  <m_primary>  (71) 
energy

$$$$
71:0
     RDKit          3D

 50 53  0  0  0  0  0  0  0  0999 V2000
   59.9500   35.5615   45.2295 H   0  0  0  0  0  0  0  0  0  0  0  0
   59.3680   34.6480   45.4210 C   0  0  0  0  0  0  0  0  0  0  0  0
   58.5170   34.0680   44.5490 N   0  0  0  0  0  0  0  0  0  0  0  0
   57.9920   33.0020   45.1370 N   0  0  0  0  0  0  0  0  0  0  0  0
   57.0650   32.0890   44.4710 C   0  0  0  0  0  0  0  0  0  0  0  0
   56.0553   32.2292   44.8843 H   0  0  0  0  0  0  0  0  0  0  0  0
   57.0589   32.3033   43.3921 H   0  0  0  0  0  0  0  0  0  0  0  0
   57.5000   30.6660   44.6900 C   0  0  0  0  0  0  0  0  0  0  0  0
   58.8280   30.2820   44.4410 C   0  0  0  0  0  0  0  0  0  0  0  0
   59.5643   31.0327   44.1182 H   0  0  0  0  0  0  0  0  0  0  0  0
   59.2170   28.9490   44.6020 C   0  0  0  0  0  0  0  0  0  0  0  0
   60.2598   28.6543   44.4130 H   0  0  0  0  0  0  0  0  0  0  0  0
   58.2820   27.9900   45.0030 C   0  0  0  0  0  0  0  0  0  0  0  0
   58.5899   26.9418   45.1312 H   0  0  0  0  0  0  0  0  0  0  0  0
   56.9560   28.3630   45.2410 C   0  0  0  0  0  0  0  0  0  0  0  0
   56.0480   27.4310   45.6210 F   0  0  0  0  0  0  0  0  0  0  0  0
   56.5640   29.6960   45.0800 C   0  0  0  0  0  0  0  0  0  0  0  0
   55.5180   29.9850   45.2598 H   0  0  0  0  0  0  0  0  0  0  0  0
   58.4940   32.8760   46.3810 C   0  0  0  0  0  0  0  0  0  0  0  0
   58.1390   31.9220   47.1990 N   0  0  0  0  0  0  0  0  0  0  0  0
   58.9740   31.2080   48.1180 C   0  0  0  0  0  0  0  0  0  0  0  0
   59.9640   30.3230   47.6590 C   0  0  0  0  0  0  0  0  0  0  0  0
   60.0776   30.1373   46.5808 H   0  0  0  0  0  0  0  0  0  0  0  0
   60.8050   29.6780   48.5710 C   0  0  0  0  0  0  0  0  0  0  0  0
   61.5776   28.9833   48.2097 H   0  0  0  0  0  0  0  0  0  0  0  0
   60.6650   29.9150   49.9410 C   0  0  0  0  0  0  0  0  0  0  0  0
   61.3138   29.3914   50.6586 H   0  0  0  0  0  0  0  0  0  0  0  0
   59.7010   30.8170   50.4000 C   0  0  0  0  0  0  0  0  0  0  0  0
   59.5961   31.0084   51.4781 H   0  0  0  0  0  0  0  0  0  0  0  0
   58.8700   31.4760   49.4890 C   0  0  0  0  0  0  0  0  0  0  0  0
   58.1320   32.2074   49.8501 H   0  0  0  0  0  0  0  0  0  0  0  0
   59.3940   33.9150   46.5920 C   0  0  0  0  0  0  0  0  0  0  0  0
   60.3700   34.0740   47.6290 N   0  0  0  0  0  0  0  0  0  0  0  0
   60.2020   34.8350   48.3240 H   0  0  0  0  0  0  0  0  0  0  0  0
   61.7020   33.5490   47.5120 C   0  0  0  0  0  0  0  0  0  0  0  0
   62.1200   33.1770   46.3810 O   0  0  0  0  0  0  0  0  0  0  0  0
   62.6070   33.4520   48.6890 C   0  0  0  0  0  0  0  0  0  0  0  0
   63.9830   33.2470   48.4800 C   0  0  0  0  0  0  0  0  0  0  0  0
   64.3742   33.1918   47.4534 H   0  0  0  0  0  0  0  0  0  0  0  0
   64.8570   33.1130   49.5580 C   0  0  0  0  0  0  0  0  0  0  0  0
   65.9308   32.9578   49.3768 H   0  0  0  0  0  0  0  0  0  0  0  0
   64.3750   33.1750   50.8650 C   0  0  0  0  0  0  0  0  0  0  0  0
   65.0699   33.0629   51.7103 H   0  0  0  0  0  0  0  0  0  0  0  0
   63.0060   33.3800   51.1080 C   0  0  0  0  0  0  0  0  0  0  0  0
   62.4640   33.4140   52.5180 C   0  0  0  0  0  0  0  0  0  0  0  0
   62.5170   32.1460   53.0680 F   0  0  0  0  0  0  0  0  0  0  0  0
   61.1510   33.8510   52.5540 F   0  0  0  0  0  0  0  0  0  0  0  0
   63.2340   34.2710   53.2840 F   0  0  0  0  0  0  0  0  0  0  0  0
   62.1250   33.5140   50.0170 C   0  0  0  0  0  0  0  0  0  0  0  0
   60.7980   33.6610   50.2650 F   0  0  0  0  0  0  0  0  0  0  0  0
  1  2  1  0
  2  3  1  0
  3  4  1  0
  4  5  1  0
  5  6  1  0
  5  7  1  0
  5  8  1  0
  8  9  2  0
  9 10  1  0
  9 11  1  0
 11 12  1  0
 11 13  2  0
 13 14  1  0
 13 15  1  0
 15 16  1  0
 15 17  2  0
 17 18  1  0
  4 19  1  0
 19 20  2  0
 20 21  1  0
 21 22  2  0
 22 23  1  0
 22 24  1  0
 24 25  1  0
 24 26  2  0
 26 27  1  0
 26 28  1  0
 28 29  1  0
 28 30  2  0
 30 31  1  0
 19 32  1  0
 32 33  1  0
 33 34  1  0
 33 35  1  0
 35 36  2  0
 35 37  1  0
 37 38  2  0
 38 39  1  0
 38 40  1  0
 40 41  1  0
 40 42  2  0
 42 43  1  0
 42 44  1  0
 44 45  1  0
 45 46  1  0
 45 47  1  0
 45 48  1  0
 44 49  2  0
 49 50  1  0
 32  2  2  0
 49 37  1  0
 17  8  1  0
 30 21  1  0
M  CHG  1   3  -1
M  END
>  <UniqueID>  (72) 
60

>  <SMILES>  (72) 
O=C(Nc1c[n-]n(Cc2cccc(F)c2)/c1=N/c1ccccc1)c1cccc(C(F)(F)F)c1F

>  <Energy>  (72) 
102.50927043617818

>  <Genealogy>  (72) 
O=C(Nc1c[n-]n(Cc2cccc(F)c2)c1=Nc1ccccc1)c1cccc(C(F)(F)F)c1F (protonated)
O=C(Nc1c[n-]n(Cc2cccc(F)c2)/c1=N/c1ccccc1)c1cccc(C(F)(F)F)c1F (cis-trans isomerization)
O=C(Nc1c[n-]n(Cc2cccc(F)c2)/c1=N/c1ccccc1)c1cccc(C(F)(F)F)c1F (3D coordinates assigned)
O=C(Nc1c[n-]n(Cc2cccc(F)c2)/c1=N/c1ccccc1)c1cccc(C(F)(F)F)c1F (optimized conformer: 102.50927043617818 kcal/mol)

>  <smiles>  (72) 
O=C(Nc1c[nH]n(Cc2cccc(F)c2)c1=Nc1ccccc1)c1cccc(C(F)(F)F)c1F

>  <score_type>  (72) 
oracle

>  <origin>  (72) 
adg

>  <m_score__min__energy>  (72) 
-9.25

>  <m_primary>  (72) 
energy

$$$$
72:0
     RDKit          3D

 52 56  0  0  0  0  0  0  0  0999 V2000
   62.9620   34.1350   47.1970 O   0  0  0  0  0  0  0  0  0  0  0  0
   62.4100   33.3510   48.0150 C   0  0  0  0  0  0  0  0  0  0  0  0
   60.9800   33.2020   48.0040 N   0  0  0  0  0  0  0  0  0  0  0  0
   60.1530   33.5150   46.8700 C   0  0  0  0  0  0  0  0  0  0  0  0
   59.7430   34.8400   46.6620 C   0  0  0  0  0  0  0  0  0  0  0  0
   58.9160   35.1630   45.5840 C   0  0  0  0  0  0  0  0  0  0  0  0
   58.4870   34.1670   44.7060 C   0  0  0  0  0  0  0  0  0  0  0  0
   58.8880   32.8330   44.8960 C   0  0  0  0  0  0  0  0  0  0  0  0
   58.4200   31.7840   44.0310 N   0  0  0  0  0  0  0  0  0  0  0  0
   57.9220   30.5150   44.4890 C   0  0  0  0  0  0  0  0  0  0  0  0
   56.5540   30.2190   44.4670 C   0  0  0  0  0  0  0  0  0  0  0  0
   56.0970   28.9660   44.8780 C   0  0  0  0  0  0  0  0  0  0  0  0
   56.9930   27.9700   45.3130 C   0  0  0  0  0  0  0  0  0  0  0  0
   58.3820   28.2800   45.3560 C   0  0  0  0  0  0  0  0  0  0  0  0
   58.8240   29.5330   44.9110 C   0  0  0  0  0  0  0  0  0  0  0  0
   59.3690   27.4120   45.8460 O   0  0  0  0  0  0  0  0  0  0  0  0
   59.1300   26.2960   46.6890 C   0  0  0  0  0  0  0  0  0  0  0  0
   58.4800   25.2010   45.9030 C   0  0  0  0  0  0  0  0  0  0  0  0
   59.1620   23.9940   45.6700 C   0  0  0  0  0  0  0  0  0  0  0  0
   58.5400   22.9570   44.9700 C   0  0  0  0  0  0  0  0  0  0  0  0
   57.2360   23.1160   44.5010 C   0  0  0  0  0  0  0  0  0  0  0  0
   56.5550   24.3150   44.7220 C   0  0  0  0  0  0  0  0  0  0  0  0
   57.1770   25.3730   45.4080 C   0  0  0  0  0  0  0  0  0  0  0  0
   56.4280   26.6280   45.6280 C   0  0  0  0  0  0  0  0  0  0  0  0
   55.2290   26.5440   46.0140 O   0  0  0  0  0  0  0  0  0  0  0  0
   59.6990   32.5120   45.9950 C   0  0  0  0  0  0  0  0  0  0  0  0
   63.2420   32.6300   49.0100 C   0  0  0  0  0  0  0  0  0  0  0  0
   64.5800   33.0100   49.2230 C   0  0  0  0  0  0  0  0  0  0  0  0
   65.3720   32.3310   50.1550 C   0  0  0  0  0  0  0  0  0  0  0  0
   64.8400   31.2630   50.8790 C   0  0  0  0  0  0  0  0  0  0  0  0
   63.5160   30.8680   50.6690 C   0  0  0  0  0  0  0  0  0  0  0  0
   62.7200   31.5440   49.7390 C   0  0  0  0  0  0  0  0  0  0  0  0
   60.5040   32.9640   48.9050 H   0  0  0  0  0  0  0  0  0  0  0  0
   60.0749   35.6296   47.3522 H   0  0  0  0  0  0  0  0  0  0  0  0
   58.6020   36.2054   45.4266 H   0  0  0  0  0  0  0  0  0  0  0  0
   57.8320   34.4268   43.8613 H   0  0  0  0  0  0  0  0  0  0  0  0
   58.4420   31.9570   43.0000 H   0  0  0  0  0  0  0  0  0  0  0  0
   55.8354   30.9780   44.1240 H   0  0  0  0  0  0  0  0  0  0  0  0
   55.0180   28.7525   44.8619 H   0  0  0  0  0  0  0  0  0  0  0  0
   59.9025   29.7487   44.8932 H   0  0  0  0  0  0  0  0  0  0  0  0
   60.0853   25.9352   47.0979 H   0  0  0  0  0  0  0  0  0  0  0  0
   58.4661   26.5970   47.5128 H   0  0  0  0  0  0  0  0  0  0  0  0
   60.1898   23.8654   46.0404 H   0  0  0  0  0  0  0  0  0  0  0  0
   59.0787   22.0152   44.7888 H   0  0  0  0  0  0  0  0  0  0  0  0
   56.7438   22.2965   43.9568 H   0  0  0  0  0  0  0  0  0  0  0  0
   55.5241   24.4326   44.3566 H   0  0  0  0  0  0  0  0  0  0  0  0
   59.9828   31.4644   46.1742 H   0  0  0  0  0  0  0  0  0  0  0  0
   65.0067   33.8478   48.6520 H   0  0  0  0  0  0  0  0  0  0  0  0
   66.4154   32.6392   50.3174 H   0  0  0  0  0  0  0  0  0  0  0  0
   65.4625   30.7324   51.6145 H   0  0  0  0  0  0  0  0  0  0  0  0
   63.0989   30.0232   51.2367 H   0  0  0  0  0  0  0  0  0  0  0  0
   61.6798   31.2256   49.5759 H   0  0  0  0  0  0  0  0  0  0  0  0
  1  2  2  0
  2  3  1  0
  3  4  1  0
  4  5  2  0
  5  6  1  0
  6  7  2  0
  7  8  1  0
  8  9  1  0
  9 10  1  0
 10 11  2  0
 11 12  1  0
 12 13  2  0
 13 14  1  0
 14 15  2  0
 14 16  1  0
 16 17  1  0
 17 18  1  0
 18 19  2  0
 19 20  1  0
 20 21  2  0
 21 22  1  0
 22 23  2  0
 23 24  1  0
 24 25  2  0
  8 26  2  0
  2 27  1  0
 27 28  2  0
 28 29  1  0
 29 30  2  0
 30 31  1  0
 31 32  2  0
 26  4  1  0
 32 27  1  0
 15 10  1  0
 23 18  1  0
 24 13  1  0
  3 33  1  0
  5 34  1  0
  6 35  1  0
  7 36  1  0
  9 37  1  0
 11 38  1  0
 12 39  1  0
 15 40  1  0
 17 41  1  0
 17 42  1  0
 19 43  1  0
 20 44  1  0
 21 45  1  0
 22 46  1  0
 26 47  1  0
 28 48  1  0
 29 49  1  0
 30 50  1  0
 31 51  1  0
 32 52  1  0
M  END
>  <UniqueID>  (73) 
61

>  <SMILES>  (73) 
O=C(Nc1cccc(Nc2ccc3c(c2)OCc2ccccc2C3=O)c1)c1ccccc1

>  <Energy>  (73) 
84.26023197045653

>  <Genealogy>  (73) 
O=C(Nc1cccc(Nc2ccc3c(c2)OCc2ccccc2C3=O)c1)c1ccccc1 (3D coordinates assigned)
O=C(Nc1cccc(Nc2ccc3c(c2)OCc2ccccc2C3=O)c1)c1ccccc1 (nonaromatic ring conformer: 84.26023197045653 kcal/mol)

>  <smiles>  (73) 
O=C(Nc1cccc(Nc2ccc3c(c2)OCc2ccccc2C3=O)c1)c1ccccc1

>  <score_type>  (73) 
oracle

>  <origin>  (73) 
adg

>  <m_score__min__energy>  (73) 
-9.7200000000000006

>  <m_primary>  (73) 
energy

$$$$
73:0
     RDKit          3D

 47 49  0  0  1  0  0  0  0  0999 V2000
   66.7710   32.7160   50.4910 C   0  0  0  0  0  0  0  0  0  0  0  0
   65.3030   32.7880   50.5240 N   0  0  0  0  0  0  0  0  0  0  0  0
   64.8890   31.4270   50.8970 C   0  0  0  0  0  0  0  0  0  0  0  0
   64.8950   33.0530   49.1580 C   0  0  0  0  0  0  0  0  0  0  0  0
   63.4420   33.2720   49.0050 C   0  0  0  0  0  0  0  0  0  0  0  0
   62.6770   34.0000   49.8960 C   0  0  0  0  0  0  0  0  0  0  0  0
   61.3040   34.1600   49.6740 C   0  0  0  0  0  0  0  0  0  0  0  0
   60.7040   33.5820   48.5480 C   0  0  0  0  0  0  0  0  0  0  0  0
   59.3110   33.7250   48.2910 N   0  0  0  0  0  0  0  0  0  0  0  0
   58.8940   33.7200   47.0500 C   0  0  0  0  0  0  0  0  0  0  0  0
   59.2890   34.7500   46.2760 N   0  0  0  0  0  0  0  0  0  0  0  0
   58.8940   34.8100   44.9710 C   0  0  0  0  0  0  0  0  0  0  0  0
   58.0800   33.7790   44.4860 C   0  0  0  0  0  0  0  0  0  0  0  0
   57.6980   32.7400   45.3170 C   0  0  0  0  0  0  0  0  0  0  0  0
   56.9480   31.8280   44.7960 N   0  0  0  0  0  0  0  0  0  0  0  0
   57.3970   30.4810   44.8700 C   0  0  0  0  0  0  0  0  0  0  0  0
   58.7240   30.1890   44.5540 C   0  0  0  0  0  0  0  0  0  0  0  0
   59.1950   28.8810   44.6170 C   0  0  0  0  0  0  0  0  0  0  0  0
   58.3690   27.8600   44.9880 C   0  0  0  0  0  0  0  0  0  0  0  0
   57.0420   28.1280   45.3080 C   0  0  0  0  0  0  0  0  0  0  0  0
   56.1680   27.0540   45.7000 N   0  0  0  0  0  0  0  0  0  0  0  0
   56.5860   29.4300   45.2420 C   0  0  0  0  0  0  0  0  0  0  0  0
   58.1110   32.7190   46.5980 N   0  0  0  0  0  0  0  0  0  0  0  0
   61.4730   32.8480   47.6460 C   0  0  0  0  0  0  0  0  0  0  0  0
   62.8230   32.7150   47.9040 C   0  0  0  0  0  0  0  0  0  0  0  0
   67.1604   32.6969   51.5196 H   0  0  0  0  0  0  0  0  0  0  0  0
   67.0815   31.8015   49.9644 H   0  0  0  0  0  0  0  0  0  0  0  0
   67.1695   33.5957   49.9644 H   0  0  0  0  0  0  0  0  0  0  0  0
   64.8623   31.3393   51.9932 H   0  0  0  0  0  0  0  0  0  0  0  0
   63.8882   31.2232   50.4884 H   0  0  0  0  0  0  0  0  0  0  0  0
   65.6068   30.7005   50.4884 H   0  0  0  0  0  0  0  0  0  0  0  0
   65.4209   33.9530   48.8067 H   0  0  0  0  0  0  0  0  0  0  0  0
   65.1500   32.1609   48.5671 H   0  0  0  0  0  0  0  0  0  0  0  0
   63.1472   34.4543   50.7806 H   0  0  0  0  0  0  0  0  0  0  0  0
   60.6962   34.7399   50.3841 H   0  0  0  0  0  0  0  0  0  0  0  0
   59.8880   35.5290   46.5940 H   0  0  0  0  0  0  0  0  0  0  0  0
   59.2050   35.6413   44.3212 H   0  0  0  0  0  0  0  0  0  0  0  0
   57.7424   33.7948   43.4392 H   0  0  0  0  0  0  0  0  0  0  0  0
   59.4038   30.9995   44.2525 H   0  0  0  0  0  0  0  0  0  0  0  0
   60.2443   28.6678   44.3651 H   0  0  0  0  0  0  0  0  0  0  0  0
   58.7509   26.8294   45.0338 H   0  0  0  0  0  0  0  0  0  0  0  0
   55.8380   27.0370   46.7020 H   0  0  0  0  0  0  0  0  0  0  0  0
   55.8890   26.3410   45.0140 H   0  0  0  0  0  0  0  0  0  0  0  0
   55.5358   29.6363   45.4959 H   0  0  0  0  0  0  0  0  0  0  0  0
   57.8180   31.9290   47.2230 H   0  0  0  0  0  0  0  0  0  0  0  0
   61.0182   32.3888   46.7559 H   0  0  0  0  0  0  0  0  0  0  0  0
   63.4357   32.1364   47.1970 H   0  0  0  0  0  0  0  0  0  0  0  0
  1  2  1  0
  2  3  1  0
  2  4  1  0
  4  5  1  0
  5  6  2  0
  6  7  1  0
  7  8  2  0
  8  9  1  0
  9 10  2  0
 10 11  1  0
 11 12  1  0
 12 13  2  0
 13 14  1  0
 14 15  2  0
 15 16  1  0
 16 17  2  0
 17 18  1  0
 18 19  2  0
 19 20  1  0
 20 21  1  0
 20 22  2  0
 14 23  1  0
  8 24  1  0
 24 25  2  0
 25  5  1  0
 23 10  1  0
 22 16  1  0
  1 26  1  0
  1 27  1  0
  1 28  1  0
  3 29  1  0
  3 30  1  0
  3 31  1  0
  4 32  1  0
  4 33  1  0
  6 34  1  0
  7 35  1  0
 11 36  1  0
 12 37  1  0
 13 38  1  0
 17 39  1  0
 18 40  1  0
 19 41  1  0
 21 42  1  0
 21 43  1  0
 22 44  1  0
 23 45  1  0
 24 46  1  0
 25 47  1  0
M  END
>  <smiles>  (74) 
CN(C)Cc1ccc(N=c2[nH]ccc(=Nc3cccc(N)c3)[nH]2)cc1

>  <score_type>  (74) 
oracle

>  <origin>  (74) 
adg

>  <m_score__min__energy>  (74) 
-8.1799999999999997

>  <m_primary>  (74) 
energy

$$$$
74:0
     RDKit          3D

 51 53  0  0  0  0  0  0  0  0999 V2000
   63.4210   33.6780   48.3320 C   0  0  0  0  0  0  0  0  0  0  0  0
   62.7110   34.2140   49.5710 C   0  0  0  0  0  0  0  0  0  0  0  0
   61.3500   34.5270   49.2790 O   0  0  0  0  0  0  0  0  0  0  0  0
   60.5620   33.9050   48.2950 C   0  0  0  0  0  0  0  0  0  0  0  0
   60.0340   34.7030   47.2730 C   0  0  0  0  0  0  0  0  0  0  0  0
   59.2440   34.1400   46.2670 C   0  0  0  0  0  0  0  0  0  0  0  0
   58.9610   32.7660   46.2730 C   0  0  0  0  0  0  0  0  0  0  0  0
   58.1820   32.1750   45.2210 N   0  0  0  0  0  0  0  0  0  0  0  0
   57.4090   31.0780   45.3490 C   0  0  0  0  0  0  0  0  0  0  0  0
   56.9050   30.7140   44.1130 C   0  0  0  0  0  0  0  0  0  0  0  0
   56.1870   29.4340   43.7890 C   0  0  2  0  0  0  0  0  0  0  0  0
   55.1660   29.1910   44.7210 O   0  0  0  0  0  0  0  0  0  0  0  0
   57.1440   28.3270   43.7900 N   0  0  0  0  0  0  0  0  0  0  0  0
   57.9410   28.0360   44.9460 C   0  0  0  0  0  0  0  0  0  0  0  0
   59.2840   28.4370   44.9880 C   0  0  0  0  0  0  0  0  0  0  0  0
   60.0730   28.1390   46.1010 C   0  0  0  0  0  0  0  0  0  0  0  0
   59.5260   27.4370   47.1760 C   0  0  0  0  0  0  0  0  0  0  0  0
   58.1890   27.0300   47.1430 C   0  0  0  0  0  0  0  0  0  0  0  0
   57.3830   27.3280   46.0270 C   0  0  0  0  0  0  0  0  0  0  0  0
   56.0420   26.9140   45.9310 O   0  0  0  0  0  0  0  0  0  0  0  0
   55.5940   25.5730   45.7430 C   0  0  0  0  0  0  0  0  0  0  0  0
   56.5730   24.7950   44.8710 C   0  0  0  0  0  0  0  0  0  0  0  0
   57.3950   31.6200   43.1900 C   0  0  0  0  0  0  0  0  0  0  0  0
   58.1630   32.5080   43.9100 C   0  0  0  0  0  0  0  0  0  0  0  0
   58.8140   33.6080   43.3550 O   0  0  0  0  0  0  0  0  0  0  0  0
   59.5060   31.9590   47.2820 C   0  0  0  0  0  0  0  0  0  0  0  0
   60.2970   32.5220   48.2890 C   0  0  0  0  0  0  0  0  0  0  0  0
   64.2640   33.0416   48.6390 H   0  0  0  0  0  0  0  0  0  0  0  0
   62.7144   33.0861   47.7317 H   0  0  0  0  0  0  0  0  0  0  0  0
   63.7966   34.5198   47.7317 H   0  0  0  0  0  0  0  0  0  0  0  0
   62.7438   33.4519   50.3635 H   0  0  0  0  0  0  0  0  0  0  0  0
   63.2210   35.1312   49.9007 H   0  0  0  0  0  0  0  0  0  0  0  0
   60.2429   35.7829   47.2617 H   0  0  0  0  0  0  0  0  0  0  0  0
   58.8419   34.7778   45.4660 H   0  0  0  0  0  0  0  0  0  0  0  0
   57.2091   30.5515   46.2939 H   0  0  0  0  0  0  0  0  0  0  0  0
   55.7294   29.5223   42.7926 H   0  0  0  0  0  0  0  0  0  0  0  0
   55.1440   28.2090   44.8720 H   0  0  0  0  0  0  0  0  0  0  0  0
   57.5240   28.0320   42.8620 H   0  0  0  0  0  0  0  0  0  0  0  0
   59.7178   28.9885   44.1408 H   0  0  0  0  0  0  0  0  0  0  0  0
   61.1255   28.4575   46.1304 H   0  0  0  0  0  0  0  0  0  0  0  0
   60.1488   27.2032   48.0520 H   0  0  0  0  0  0  0  0  0  0  0  0
   57.7646   26.4746   47.9923 H   0  0  0  0  0  0  0  0  0  0  0  0
   55.5117   25.0791   46.7225 H   0  0  0  0  0  0  0  0  0  0  0  0
   54.6146   25.5942   45.2427 H   0  0  0  0  0  0  0  0  0  0  0  0
   57.2729   24.2388   45.5120 H   0  0  0  0  0  0  0  0  0  0  0  0
   56.0175   24.0893   44.2359 H   0  0  0  0  0  0  0  0  0  0  0  0
   57.1350   25.4956   44.2359 H   0  0  0  0  0  0  0  0  0  0  0  0
   57.2097   31.6294   42.1058 H   0  0  0  0  0  0  0  0  0  0  0  0
   58.7550   34.5300   43.7690 H   0  0  0  0  0  0  0  0  0  0  0  0
   59.3103   30.8765   47.2816 H   0  0  0  0  0  0  0  0  0  0  0  0
   60.7140   31.8813   49.0800 H   0  0  0  0  0  0  0  0  0  0  0  0
  1  2  1  0
  2  3  1  0
  3  4  1  0
  4  5  2  0
  5  6  1  0
  6  7  2  0
  7  8  1  0
  8  9  1  0
  9 10  2  0
 10 11  1  0
 11 12  1  0
 11 13  1  0
 13 14  1  0
 14 15  2  0
 15 16  1  0
 16 17  2  0
 17 18  1  0
 18 19  2  0
 19 20  1  0
 20 21  1  0
 21 22  1  0
 10 23  1  0
 23 24  2  0
 24 25  1  0
  7 26  1  0
 26 27  2  0
 27  4  1  0
 24  8  1  0
 19 14  1  0
  1 28  1  0
  1 29  1  0
  1 30  1  0
  2 31  1  0
  2 32  1  0
  5 33  1  0
  6 34  1  0
  9 35  1  0
 11 36  1  6
 12 37  1  0
 13 38  1  0
 15 39  1  0
 16 40  1  0
 17 41  1  0
 18 42  1  0
 21 43  1  0
 21 44  1  0
 22 45  1  0
 22 46  1  0
 22 47  1  0
 23 48  1  0
 25 49  1  0
 26 50  1  0
 27 51  1  0
M  END
>  <UniqueID>  (75) 
62

>  <SMILES>  (75) 
CCOc1ccc(-n2cc([C@H](O)Nc3ccccc3OCC)cc2O)cc1

>  <Energy>  (75) 
83.23526492455828

>  <Genealogy>  (75) 
CCOc1ccc(-n2cc([C@H](O)Nc3ccccc3OCC)cc2O)cc1 (chirality)
CCOc1ccc(-n2cc([C@H](O)Nc3ccccc3OCC)cc2O)cc1 (3D coordinates assigned)
CCOc1ccc(-n2cc([C@H](O)Nc3ccccc3OCC)cc2O)cc1 (optimized conformer: 83.23526492455828 kcal/mol)

>  <smiles>  (75) 
CCOc1ccc(-n2cc(C(O)Nc3ccccc3OCC)cc2O)cc1

>  <score_type>  (75) 
oracle

>  <origin>  (75) 
adg

>  <m_score__min__energy>  (75) 
-7.7599999999999998

>  <m_primary>  (75) 
energy

$$$$
75:0
     RDKit          3D

 51 54  0  0  0  0  0  0  0  0999 V2000
   60.1999   27.6812   48.1505 H   0  0  0  0  0  0  0  0  0  0  0  0
   60.1340   26.7260   47.6090 C   0  0  0  0  0  0  0  0  0  0  0  0
   60.8471   25.9182   47.8301 H   0  0  0  0  0  0  0  0  0  0  0  0
   59.1880   26.5470   46.6830 C   0  0  0  0  0  0  0  0  0  0  0  0
   59.0180   25.3890   45.9470 C   0  0  0  0  0  0  0  0  0  0  0  0
   59.6182   24.4696   46.0130 H   0  0  0  0  0  0  0  0  0  0  0  0
   57.9420   25.6200   45.1120 C   0  0  0  0  0  0  0  0  0  0  0  0
   57.3280   24.6120   44.1980 C   0  0  0  0  0  0  0  0  0  0  0  0
   56.8469   23.8221   44.7935 H   0  0  0  0  0  0  0  0  0  0  0  0
   56.5753   25.1028   43.5635 H   0  0  0  0  0  0  0  0  0  0  0  0
   58.1094   24.1683   43.5635 H   0  0  0  0  0  0  0  0  0  0  0  0
   57.4390   26.8530   45.3140 N   0  0  0  0  0  0  0  0  0  0  0  0
   56.5820   27.2350   44.8560 H   0  0  0  0  0  0  0  0  0  0  0  0
   58.2010   27.4410   46.2640 C   0  0  0  0  0  0  0  0  0  0  0  0
   57.9840   28.6760   46.7540 C   0  0  0  0  0  0  0  0  0  0  0  0
   58.2661   28.8769   47.7981 H   0  0  0  0  0  0  0  0  0  0  0  0
   57.3900   29.7740   45.9710 C   0  0  0  0  0  0  0  0  0  0  0  0
   56.3000   29.7270   45.1050 C   0  0  0  0  0  0  0  0  0  0  0  0
   55.5200   28.6020   44.8700 O   0  0  0  0  0  0  0  0  0  0  0  0
   56.1010   30.9030   44.4640 N   0  0  0  0  0  0  0  0  0  0  0  0
   57.0940   31.6930   44.9160 C   0  0  0  0  0  0  0  0  0  0  0  0
   57.3430   33.0100   44.5390 C   0  0  0  0  0  0  0  0  0  0  0  0
   56.6880   33.5266   43.8221 H   0  0  0  0  0  0  0  0  0  0  0  0
   58.4560   33.6610   45.1010 C   0  0  0  0  0  0  0  0  0  0  0  0
   58.6784   34.7012   44.8207 H   0  0  0  0  0  0  0  0  0  0  0  0
   59.2920   32.9890   46.0240 C   0  0  0  0  0  0  0  0  0  0  0  0
   60.6840   33.8240   46.7070 S   0  0  0  0  0  0  0  0  0  0  0  0
   60.3060   35.2530   46.9690 O   0  0  0  0  0  0  0  0  0  0  0  0
   61.8360   33.7930   45.7430 O   0  0  0  0  0  0  0  0  0  0  0  0
   61.1750   33.0880   48.2020 N   0  0  0  0  0  0  0  0  0  0  0  0
   62.1990   33.1210   48.3970 H   0  0  0  0  0  0  0  0  0  0  0  0
   60.2690   32.4920   49.1570 C   0  0  0  0  0  0  0  0  0  0  0  0
   59.4290   33.2940   49.9560 C   0  0  0  0  0  0  0  0  0  0  0  0
   59.4461   34.3869   49.8328 H   0  0  0  0  0  0  0  0  0  0  0  0
   58.5760   32.7220   50.9010 C   0  0  0  0  0  0  0  0  0  0  0  0
   57.9246   33.3656   51.5105 H   0  0  0  0  0  0  0  0  0  0  0  0
   58.5450   31.3360   51.0770 C   0  0  0  0  0  0  0  0  0  0  0  0
   57.6050   30.7250   52.0730 C   0  0  0  0  0  0  0  0  0  0  0  0
   57.9527   30.9510   53.0918 H   0  0  0  0  0  0  0  0  0  0  0  0
   56.5969   31.1410   51.9289 H   0  0  0  0  0  0  0  0  0  0  0  0
   57.5759   29.6349   51.9289 H   0  0  0  0  0  0  0  0  0  0  0  0
   59.3510   30.5220   50.2720 C   0  0  0  0  0  0  0  0  0  0  0  0
   59.3074   29.4291   50.3893 H   0  0  0  0  0  0  0  0  0  0  0  0
   60.2150   31.0830   49.3160 C   0  0  0  0  0  0  0  0  0  0  0  0
   61.0800   30.1650   48.4920 C   0  0  0  0  0  0  0  0  0  0  0  0
   61.6795   29.5288   49.1597 H   0  0  0  0  0  0  0  0  0  0  0  0
   60.4424   29.5321   47.8573 H   0  0  0  0  0  0  0  0  0  0  0  0
   61.7497   30.7639   47.8573 H   0  0  0  0  0  0  0  0  0  0  0  0
   59.0060   31.6600   46.3970 C   0  0  0  0  0  0  0  0  0  0  0  0
   59.6356   31.1273   47.1249 H   0  0  0  0  0  0  0  0  0  0  0  0
   57.9010   31.0420   45.8150 C   0  0  0  0  0  0  0  0  0  0  0  0
  1  2  1  0
  2  3  1  0
  2  4  2  0
  4  5  1  0
  5  6  1  0
  5  7  2  0
  7  8  1  0
  8  9  1  0
  8 10  1  0
  8 11  1  0
  7 12  1  0
 12 13  1  0
 12 14  1  0
 14 15  2  0
 15 16  1  0
 15 17  1  0
 17 18  2  0
 18 19  1  0
 18 20  1  0
 20 21  1  0
 21 22  2  0
 22 23  1  0
 22 24  1  0
 24 25  1  0
 24 26  2  0
 26 27  1  0
 27 28  2  0
 27 29  2  0
 27 30  1  0
 30 31  1  0
 30 32  1  0
 32 33  2  0
 33 34  1  0
 33 35  1  0
 35 36  1  0
 35 37  2  0
 37 38  1  0
 38 39  1  0
 38 40  1  0
 38 41  1  0
 37 42  1  0
 42 43  1  0
 42 44  2  0
 44 45  1  0
 45 46  1  0
 45 47  1  0
 45 48  1  0
 26 49  1  0
 49 50  1  0
 49 51  2  0
 14  4  1  0
 51 17  1  0
 51 21  1  0
 44 32  1  0
M  CHG  2  19  -1  20  -1
M  END
>  <UniqueID>  (76) 
63

>  <SMILES>  (76) 
C=c1cc(C)[nH]/c1=C\c1c([O-])[n-]c2ccc(S(=O)(=O)Nc3ccc(C)cc3C)cc12

>  <Energy>  (76) 
122.86364060657564

>  <Genealogy>  (76) 
C=c1cc(C)[nH]c1=Cc1c([O-])[n-]c2ccc(S(=O)(=O)Nc3ccc(C)cc3C)cc12 (protonated)
C=c1cc(C)[nH]/c1=C\c1c([O-])[n-]c2ccc(S(=O)(=O)Nc3ccc(C)cc3C)cc12 (cis-trans isomerization)
C=c1cc(C)[nH]/c1=C\c1c([O-])[n-]c2ccc(S(=O)(=O)Nc3ccc(C)cc3C)cc12 (3D coordinates assigned)
C=c1cc(C)[nH]/c1=C\c1c([O-])[n-]c2ccc(S(=O)(=O)Nc3ccc(C)cc3C)cc12 (optimized conformer: 122.86364060657564 kcal/mol)

>  <smiles>  (76) 
C=c1cc(C)[nH]c1=Cc1c(O)[nH]c2ccc(S(=O)(=O)Nc3ccc(C)cc3C)cc12

>  <score_type>  (76) 
oracle

>  <origin>  (76) 
adg

>  <m_score__min__energy>  (76) 
-13.59

>  <m_primary>  (76) 
energy

$$$$
76:0
     RDKit          3D

 27 28  0  0  0  0  0  0  0  0999 V2000
   55.3700   29.2740   44.8670 N   0  0  0  0  0  0  0  0  0  0  0  0
   56.6030   29.4730   44.1080 C   0  0  0  0  0  0  0  0  0  0  0  0
   56.8970   30.9650   43.9020 C   0  0  0  0  0  0  0  0  0  0  0  0
   58.3260   31.3090   44.3330 C   0  0  0  0  0  0  0  0  0  0  0  0
   58.3130   32.2390   45.5080 C   0  0  0  0  0  0  0  0  0  0  0  0
   57.2600   33.0570   45.9060 C   0  0  0  0  0  0  0  0  0  0  0  0
   57.6260   33.8170   46.9650 N   0  0  0  0  0  0  0  0  0  0  0  0
   58.9060   33.4940   47.2280 C   0  0  0  0  0  0  0  0  0  0  0  0
   59.7270   34.0300   48.2190 C   0  0  0  0  0  0  0  0  0  0  0  0
   59.2680   34.9760   49.0740 F   0  0  0  0  0  0  0  0  0  0  0  0
   61.0510   33.5610   48.3040 C   0  0  0  0  0  0  0  0  0  0  0  0
   61.5210   32.5790   47.4010 C   0  0  0  0  0  0  0  0  0  0  0  0
   63.1750   32.0080   47.5160 Cl  0  0  0  0  0  0  0  0  0  0  0  0
   60.6690   32.0580   46.4090 C   0  0  0  0  0  0  0  0  0  0  0  0
   59.3610   32.5400   46.3550 C   0  0  0  0  0  0  0  0  0  0  0  0
   55.5190   29.6070   45.8470 H   0  0  0  0  0  0  0  0  0  0  0  0
   55.1580   28.2510   44.9050 H   0  0  0  0  0  0  0  0  0  0  0  0
   57.4393   29.0156   44.6569 H   0  0  0  0  0  0  0  0  0  0  0  0
   56.4821   29.0036   43.1205 H   0  0  0  0  0  0  0  0  0  0  0  0
   56.7734   31.2121   42.8373 H   0  0  0  0  0  0  0  0  0  0  0  0
   56.1961   31.5479   44.5175 H   0  0  0  0  0  0  0  0  0  0  0  0
   58.8527   30.3839   44.6100 H   0  0  0  0  0  0  0  0  0  0  0  0
   58.8399   31.8031   43.4953 H   0  0  0  0  0  0  0  0  0  0  0  0
   56.2698   33.0826   45.4276 H   0  0  0  0  0  0  0  0  0  0  0  0
   57.0360   34.5200   47.4620 H   0  0  0  0  0  0  0  0  0  0  0  0
   61.7242   33.9603   49.0769 H   0  0  0  0  0  0  0  0  0  0  0  0
   61.0230   31.2956   45.6995 H   0  0  0  0  0  0  0  0  0  0  0  0
  1  2  1  0
  2  3  1  0
  3  4  1  0
  4  5  1  0
  5  6  2  0
  6  7  1  0
  7  8  1  0
  8  9  2  0
  9 10  1  0
  9 11  1  0
 11 12  2  0
 12 13  1  0
 12 14  1  0
 14 15  2  0
 15  5  1  0
 15  8  1  0
  1 16  1  0
  1 17  1  0
  2 18  1  0
  2 19  1  0
  3 20  1  0
  3 21  1  0
  4 22  1  0
  4 23  1  0
  6 24  1  0
  7 25  1  0
 11 26  1  0
 14 27  1  0
M  END
>  <UniqueID>  (77) 
64

>  <SMILES>  (77) 
NCCCc1c[nH]c2c(F)cc(Cl)cc12

>  <Energy>  (77) 
53.569715810732596

>  <Genealogy>  (77) 
NCCCc1c[nH]c2c(F)cc(Cl)cc12 (3D coordinates assigned)
NCCCc1c[nH]c2c(F)cc(Cl)cc12 (optimized conformer: 53.569715810732596 kcal/mol)

>  <smiles>  (77) 
NCCCc1c[nH]c2c(F)cc(Cl)cc12

>  <score_type>  (77) 
oracle

>  <origin>  (77) 
adg

>  <m_score__min__energy>  (77) 
-6.5099999999999998

>  <m_primary>  (77) 
energy

$$$$
77:0
     RDKit          3D

 34 34  0  0  0  0  0  0  0  0999 V2000
   59.6160   35.3720   45.8410 C   0  0  0  0  0  0  0  0  0  0  0  0
   59.4200   34.2450   46.8500 C   0  0  0  0  0  0  0  0  0  0  0  0
   59.3680   32.8800   46.1530 C   0  0  0  0  0  0  0  0  0  0  0  0
   58.2150   32.7460   45.1340 C   0  0  0  0  0  0  0  0  0  0  0  0
   57.7550   31.3050   44.7710 C   0  0  2  0  0  0  0  0  0  0  0  0
   56.2370   31.1920   44.4910 C   0  0  0  0  0  0  0  0  0  0  0  0
   55.8820   29.8440   44.0360 N   0  0  0  0  0  0  0  0  0  0  0  0
   55.1470   29.0500   44.8510 O   0  0  0  0  0  0  0  0  0  0  0  0
   56.2670   29.3340   42.7540 C   0  0  0  0  0  0  0  0  0  0  0  0
   57.1430   28.4370   42.6440 O   0  0  0  0  0  0  0  0  0  0  0  0
   58.2290   30.2830   45.7750 C   0  0  0  0  0  0  0  0  0  0  0  0
   58.1470   30.5190   47.0110 O   0  0  0  0  0  0  0  0  0  0  0  0
   58.7610   29.0400   45.2950 N   0  0  0  0  0  0  0  0  0  0  0  0
   58.3700   27.8360   45.6040 C   0  0  0  0  0  0  0  0  0  0  0  0
   57.2330   27.2410   45.1700 N   0  0  0  0  0  0  0  0  0  0  0  0
   57.0780   25.9950   45.6940 C   0  0  0  0  0  0  0  0  0  0  0  0
   58.0920   25.5940   46.5590 C   0  0  0  0  0  0  0  0  0  0  0  0
   59.2110   26.8470   46.6690 S   0  0  0  0  0  0  0  0  0  0  0  0
   59.7807   36.3188   46.3762 H   0  0  0  0  0  0  0  0  0  0  0  0
   60.4892   35.1511   45.2096 H   0  0  0  0  0  0  0  0  0  0  0  0
   58.7195   35.4589   45.2096 H   0  0  0  0  0  0  0  0  0  0  0  0
   60.2575   34.2521   47.5632 H   0  0  0  0  0  0  0  0  0  0  0  0
   58.4652   34.4065   47.3717 H   0  0  0  0  0  0  0  0  0  0  0  0
   60.3194   32.7242   45.6232 H   0  0  0  0  0  0  0  0  0  0  0  0
   59.1945   32.1263   46.9352 H   0  0  0  0  0  0  0  0  0  0  0  0
   57.3448   33.2778   45.5462 H   0  0  0  0  0  0  0  0  0  0  0  0
   58.6131   33.1625   44.1970 H   0  0  0  0  0  0  0  0  0  0  0  0
   58.2485   31.0708   43.8162 H   0  0  0  0  0  0  0  0  0  0  0  0
   55.6838   31.4164   45.4149 H   0  0  0  0  0  0  0  0  0  0  0  0
   55.9741   31.9083   43.6986 H   0  0  0  0  0  0  0  0  0  0  0  0
   55.7878   29.7340   41.8482 H   0  0  0  0  0  0  0  0  0  0  0  0
   56.5170   27.6670   44.5440 H   0  0  0  0  0  0  0  0  0  0  0  0
   56.2174   25.3538   45.4526 H   0  0  0  0  0  0  0  0  0  0  0  0
   58.1518   24.6270   47.0799 H   0  0  0  0  0  0  0  0  0  0  0  0
  1  2  1  0
  2  3  1  0
  3  4  1  0
  4  5  1  0
  5  6  1  0
  6  7  1  0
  7  8  1  0
  7  9  1  0
  9 10  2  0
  5 11  1  0
 11 12  2  0
 11 13  1  0
 13 14  2  3
 14 15  1  0
 15 16  1  0
 16 17  2  0
 17 18  1  0
 18 14  1  0
  1 19  1  0
  1 20  1  0
  1 21  1  0
  2 22  1  0
  2 23  1  0
  3 24  1  0
  3 25  1  0
  4 26  1  0
  4 27  1  0
  5 28  1  6
  6 29  1  0
  6 30  1  0
  9 31  1  0
 15 32  1  0
 16 33  1  0
 17 34  1  0
M  CHG  1   8  -1
M  END
>  <UniqueID>  (78) 
65

>  <SMILES>  (78) 
CCCC[C@H](CN([O-])C=O)C(=O)N=c1[nH]ccs1

>  <Energy>  (78) 
61.0256865125176

>  <Genealogy>  (78) 
CCCCC(CN([O-])C=O)C(=O)N=c1[nH]ccs1 (protonated)
CCCC[C@H](CN([O-])C=O)C(=O)N=c1[nH]ccs1 (chirality)
CCCC[C@H](CN([O-])C=O)C(=O)N=c1[nH]ccs1 (3D coordinates assigned)
CCCC[C@H](CN([O-])C=O)C(=O)N=c1[nH]ccs1 (optimized conformer: 61.0256865125176 kcal/mol)

>  <smiles>  (78) 
CCCCC(CN(O)C=O)C(=O)N=c1[nH]ccs1

>  <score_type>  (78) 
oracle

>  <origin>  (78) 
adg

>  <m_score__min__energy>  (78) 
-8.9700000000000006

>  <m_primary>  (78) 
energy

$$$$
78:0
     RDKit          3D

 38 40  0  0  1  0  0  0  0  0999 V2000
   55.2040   25.0740   45.6310 C   0  0  0  0  0  0  0  0  0  0  0  0
   55.1900   26.4450   45.9690 O   0  0  0  0  0  0  0  0  0  0  0  0
   56.4030   27.0790   46.1700 C   0  0  0  0  0  0  0  0  0  0  0  0
   57.3560   26.4760   46.9450 C   0  0  0  0  0  0  0  0  0  0  0  0
   58.5760   27.0800   47.1650 C   0  0  0  0  0  0  0  0  0  0  0  0
   59.5230   26.5240   47.9110 N   0  0  0  0  0  0  0  0  0  0  0  0
   60.7280   27.0710   48.1560 C   0  0  0  0  0  0  0  0  0  0  0  0
   60.9760   28.2800   47.5940 N   0  0  0  0  0  0  0  0  0  0  0  0
   60.0420   28.8830   46.8280 C   0  0  0  0  0  0  0  0  0  0  0  0
   60.3180   30.0450   46.3040 N   0  0  0  0  0  0  0  0  0  0  0  0
   59.7070   31.1960   46.8790 C   0  0  0  0  0  0  0  0  0  0  0  0
   59.6010   31.3920   48.2420 C   0  0  0  0  0  0  0  0  0  0  0  0
   58.9940   32.5340   48.6980 C   0  0  0  0  0  0  0  0  0  0  0  0
   58.5040   33.4600   47.7980 C   0  0  0  0  0  0  0  0  0  0  0  0
   58.6000   33.2840   46.4330 C   0  0  0  0  0  0  0  0  0  0  0  0
   58.0880   34.2520   45.5220 N   0  0  0  0  0  0  0  0  0  0  0  0
   56.8750   34.2730   45.2760 O   0  0  0  0  0  0  0  0  0  0  0  0
   58.9050   35.1670   44.9070 O   0  0  0  0  0  0  0  0  0  0  0  0
   59.2100   32.1360   45.9710 C   0  0  0  0  0  0  0  0  0  0  0  0
   58.8120   28.3130   46.5830 C   0  0  0  0  0  0  0  0  0  0  0  0
   57.8420   28.9120   45.8040 C   0  0  0  0  0  0  0  0  0  0  0  0
   56.6190   28.3140   45.5790 C   0  0  0  0  0  0  0  0  0  0  0  0
   55.6170   28.8560   44.8150 O   0  0  0  0  0  0  0  0  0  0  0  0
   55.9260   29.7680   43.7780 C   0  0  0  0  0  0  0  0  0  0  0  0
   55.2102   24.4698   46.5502 H   0  0  0  0  0  0  0  0  0  0  0  0
   54.3083   24.8329   45.0398 H   0  0  0  0  0  0  0  0  0  0  0  0
   56.1045   24.8513   45.0398 H   0  0  0  0  0  0  0  0  0  0  0  0
   57.1461   25.4962   47.3987 H   0  0  0  0  0  0  0  0  0  0  0  0
   59.3300   25.6000   48.3390 H   0  0  0  0  0  0  0  0  0  0  0  0
   61.4757   26.5619   48.7819 H   0  0  0  0  0  0  0  0  0  0  0  0
   59.9958   30.6466   48.9481 H   0  0  0  0  0  0  0  0  0  0  0  0
   58.8975   32.7123   49.7792 H   0  0  0  0  0  0  0  0  0  0  0  0
   58.0202   34.3698   48.1831 H   0  0  0  0  0  0  0  0  0  0  0  0
   59.3053   31.9604   44.8893 H   0  0  0  0  0  0  0  0  0  0  0  0
   58.0498   29.8924   45.3505 H   0  0  0  0  0  0  0  0  0  0  0  0
   56.2499   30.7241   44.2150 H   0  0  0  0  0  0  0  0  0  0  0  0
   56.7348   29.3562   43.1565 H   0  0  0  0  0  0  0  0  0  0  0  0
   55.0335   29.9326   43.1565 H   0  0  0  0  0  0  0  0  0  0  0  0
  1  2  1  0
  2  3  1  0
  3  4  2  0
  4  5  1  0
  5  6  1  0
  6  7  1  0
  7  8  2  0
  8  9  1  0
  9 10  2  0
 10 11  1  0
 11 12  2  0
 12 13  1  0
 13 14  2  0
 14 15  1  0
 15 16  1  0
 16 17  2  0
 16 18  1  0
 15 19  2  0
  9 20  1  0
 20 21  1  0
 21 22  2  0
 22 23  1  0
 23 24  1  0
 22  3  1  0
 20  5  2  0
 19 11  1  0
  1 25  1  0
  1 26  1  0
  1 27  1  0
  4 28  1  0
  6 29  1  0
  7 30  1  0
 12 31  1  0
 13 32  1  0
 14 33  1  0
 19 34  1  0
 21 35  1  0
 24 36  1  0
 24 37  1  0
 24 38  1  0
M  CHG  2  16   1  18  -1
M  END
>  <smiles>  (79) 
COc1cc2[nH]cnc(=Nc3cccc([N+](=O)[O-])c3)c2cc1OC

>  <score_type>  (79) 
oracle

>  <origin>  (79) 
adg

>  <m_score__min__energy>  (79) 
-7.3300000000000001

>  <m_primary>  (79) 
energy

$$$$
79:0
     RDKit          3D

 60 61  0  0  0  0  0  0  0  0999 V2000
   54.9180   30.7750   52.0520 C   0  0  0  0  0  0  0  0  0  0  0  0
   56.4030   30.7570   52.4050 C   0  0  0  0  0  0  0  0  0  0  0  0
   57.0380   32.1330   52.1850 C   0  0  0  0  0  0  0  0  0  0  0  0
   58.5680   32.0540   52.2230 C   0  0  0  0  0  0  0  0  0  0  0  0
   59.1340   32.5410   50.9530 N   0  0  0  0  0  0  0  0  0  0  0  0
   58.4860   32.2400   49.7890 C   0  0  0  0  0  0  0  0  0  0  0  0
   58.9420   32.7300   48.5630 C   0  0  0  0  0  0  0  0  0  0  0  0
   58.2070   32.3790   47.3380 C   0  0  0  0  0  0  0  0  0  0  0  0
   57.1810   33.0330   47.0200 O   0  0  0  0  0  0  0  0  0  0  0  0
   58.6930   31.3220   46.4960 N   0  0  0  0  0  0  0  0  0  0  0  0
   58.0170   30.9100   45.3000 C   0  0  0  0  0  0  0  0  0  0  0  0
   58.0970   31.6740   44.1220 C   0  0  0  0  0  0  0  0  0  0  0  0
   57.4140   31.2680   42.9740 C   0  0  0  0  0  0  0  0  0  0  0  0
   56.6450   30.1000   42.9900 C   0  0  0  0  0  0  0  0  0  0  0  0
   56.5500   29.3430   44.1640 C   0  0  0  0  0  0  0  0  0  0  0  0
   57.2270   29.7500   45.3170 C   0  0  0  0  0  0  0  0  0  0  0  0
   60.1000   33.5260   48.5250 C   0  0  0  0  0  0  0  0  0  0  0  0
   60.6190   33.9970   47.2660 N   0  0  0  0  0  0  0  0  0  0  0  0
   61.9180   33.4840   46.7910 C   0  0  0  0  0  0  0  0  0  0  0  0
   62.2590   32.1220   47.4130 C   0  0  0  0  0  0  0  0  0  0  0  0
   63.5920   32.1700   48.1560 C   0  0  0  0  0  0  0  0  0  0  0  0
   59.8730   35.0370   46.5380 C   0  0  0  0  0  0  0  0  0  0  0  0
   59.5150   34.5870   45.1140 C   0  0  0  0  0  0  0  0  0  0  0  0
   58.0080   34.6490   44.8820 C   0  0  0  0  0  0  0  0  0  0  0  0
   60.7770   33.8150   49.7260 C   0  0  0  0  0  0  0  0  0  0  0  0
   61.9890   34.5840   49.7170 N   0  0  0  0  0  0  0  0  0  0  0  0
   60.2580   33.3290   50.9420 C   0  0  0  0  0  0  0  0  0  0  0  0
   60.8380   33.6220   52.0250 O   0  0  0  0  0  0  0  0  0  0  0  0
   54.3215   30.7822   52.9762 H   0  0  0  0  0  0  0  0  0  0  0  0
   54.6921   31.6759   51.4627 H   0  0  0  0  0  0  0  0  0  0  0  0
   54.6703   29.8798   51.4627 H   0  0  0  0  0  0  0  0  0  0  0  0
   56.5178   30.4730   53.4615 H   0  0  0  0  0  0  0  0  0  0  0  0
   56.9087   30.0301   51.7524 H   0  0  0  0  0  0  0  0  0  0  0  0
   56.7236   32.5198   51.2044 H   0  0  0  0  0  0  0  0  0  0  0  0
   56.7052   32.8015   52.9927 H   0  0  0  0  0  0  0  0  0  0  0  0
   58.9435   32.6747   53.0499 H   0  0  0  0  0  0  0  0  0  0  0  0
   58.8699   31.0068   52.3725 H   0  0  0  0  0  0  0  0  0  0  0  0
   57.5907   31.6015   49.8175 H   0  0  0  0  0  0  0  0  0  0  0  0
   59.6650   30.9690   46.6630 H   0  0  0  0  0  0  0  0  0  0  0  0
   58.6995   32.5942   44.1050 H   0  0  0  0  0  0  0  0  0  0  0  0
   57.4809   31.8683   42.0547 H   0  0  0  0  0  0  0  0  0  0  0  0
   56.1156   29.7765   42.0816 H   0  0  0  0  0  0  0  0  0  0  0  0
   55.9417   28.4266   44.1789 H   0  0  0  0  0  0  0  0  0  0  0  0
   57.1404   29.1592   46.2409 H   0  0  0  0  0  0  0  0  0  0  0  0
   61.8787   33.3754   45.6971 H   0  0  0  0  0  0  0  0  0  0  0  0
   62.6972   34.2001   47.0912 H   0  0  0  0  0  0  0  0  0  0  0  0
   61.4644   31.8419   48.1202 H   0  0  0  0  0  0  0  0  0  0  0  0
   62.3387   31.3809   46.6041 H   0  0  0  0  0  0  0  0  0  0  0  0
   63.4078   32.1634   49.2404 H   0  0  0  0  0  0  0  0  0  0  0  0
   64.1966   31.2930   47.8814 H   0  0  0  0  0  0  0  0  0  0  0  0
   64.1320   33.0882   47.8814 H   0  0  0  0  0  0  0  0  0  0  0  0
   58.9452   35.2595   47.0855 H   0  0  0  0  0  0  0  0  0  0  0  0
   60.5114   35.9298   46.4654 H   0  0  0  0  0  0  0  0  0  0  0  0
   60.0174   35.2470   44.3915 H   0  0  0  0  0  0  0  0  0  0  0  0
   59.8468   33.5466   44.9821 H   0  0  0  0  0  0  0  0  0  0  0  0
   57.4884   34.6704   45.8513 H   0  0  0  0  0  0  0  0  0  0  0  0
   57.7616   35.5580   44.3137 H   0  0  0  0  0  0  0  0  0  0  0  0
   57.6877   33.7633   44.3137 H   0  0  0  0  0  0  0  0  0  0  0  0
   62.3930   34.9510   48.8250 H   0  0  0  0  0  0  0  0  0  0  0  0
   62.4860   34.8310   50.6010 H   0  0  0  0  0  0  0  0  0  0  0  0
  1  2  1  0
  2  3  1  0
  3  4  1  0
  4  5  1  0
  5  6  1  0
  6  7  2  0
  7  8  1  0
  8  9  2  0
  8 10  1  0
 10 11  1  0
 11 12  2  0
 12 13  1  0
 13 14  2  0
 14 15  1  0
 15 16  2  0
  7 17  1  0
 17 18  1  0
 18 19  1  0
 19 20  1  0
 20 21  1  0
 18 22  1  0
 22 23  1  0
 23 24  1  0
 17 25  2  0
 25 26  1  0
 25 27  1  0
 27 28  2  0
 27  5  1  0
 16 11  1  0
  1 29  1  0
  1 30  1  0
  1 31  1  0
  2 32  1  0
  2 33  1  0
  3 34  1  0
  3 35  1  0
  4 36  1  0
  4 37  1  0
  6 38  1  0
 10 39  1  0
 12 40  1  0
 13 41  1  0
 14 42  1  0
 15 43  1  0
 16 44  1  0
 19 45  1  0
 19 46  1  0
 20 47  1  0
 20 48  1  0
 21 49  1  0
 21 50  1  0
 21 51  1  0
 22 52  1  0
 22 53  1  0
 23 54  1  0
 23 55  1  0
 24 56  1  0
 24 57  1  0
 24 58  1  0
 26 59  1  0
 26 60  1  0
M  END
>  <UniqueID>  (80) 
66

>  <SMILES>  (80) 
CCCCn1cc(C(=O)Nc2ccccc2)c(N(CCC)CCC)c(N)c1=O

>  <Energy>  (80) 
60.640503860797686

>  <Genealogy>  (80) 
CCCCn1cc(C(=O)Nc2ccccc2)c(N(CCC)CCC)c(N)c1=O (3D coordinates assigned)
CCCCn1cc(C(=O)Nc2ccccc2)c(N(CCC)CCC)c(N)c1=O (optimized conformer: 60.640503860797686 kcal/mol)

>  <smiles>  (80) 
CCCCn1cc(C(=O)Nc2ccccc2)c(N(CCC)CCC)c(N)c1=O

>  <score_type>  (80) 
oracle

>  <origin>  (80) 
adg

>  <m_score__min__energy>  (80) 
-8.0899999999999999

>  <m_primary>  (80) 
energy

$$$$
80:0
     RDKit          3D

 34 36  0  0  0  0  0  0  0  0999 V2000
   56.7020   27.1800   42.5720 H   0  0  0  0  0  0  0  0  0  0  0  0
   57.3940   27.9060   42.7070 O   0  0  0  0  0  0  0  0  0  0  0  0
   57.1580   28.9680   43.5760 C   0  0  0  0  0  0  0  0  0  0  0  0
   56.0870   29.8230   43.5080 C   0  0  0  0  0  0  0  0  0  0  0  0
   55.2839   29.7855   42.7573 H   0  0  0  0  0  0  0  0  0  0  0  0
   56.1810   30.7140   44.5100 N   0  0  0  0  0  0  0  0  0  0  0  0
   57.3250   30.3910   45.1520 C   0  0  0  0  0  0  0  0  0  0  0  0
   57.7670   31.1410   46.1250 N   0  0  0  0  0  0  0  0  0  0  0  0
   58.3330   32.4540   46.0620 C   0  0  0  0  0  0  0  0  0  0  0  0
   57.9790   33.3090   45.0110 C   0  0  0  0  0  0  0  0  0  0  0  0
   57.2401   32.9831   44.2641 H   0  0  0  0  0  0  0  0  0  0  0  0
   58.5620   34.5760   44.9080 C   0  0  0  0  0  0  0  0  0  0  0  0
   58.2670   35.2525   44.0923 H   0  0  0  0  0  0  0  0  0  0  0  0
   59.5200   34.9830   45.8420 C   0  0  0  0  0  0  0  0  0  0  0  0
   59.9719   35.9830   45.7655 H   0  0  0  0  0  0  0  0  0  0  0  0
   59.9040   34.1200   46.8730 C   0  0  0  0  0  0  0  0  0  0  0  0
   60.6621   34.4386   47.6035 H   0  0  0  0  0  0  0  0  0  0  0  0
   59.3240   32.8520   46.9750 C   0  0  0  0  0  0  0  0  0  0  0  0
   59.6442   32.1645   47.7717 H   0  0  0  0  0  0  0  0  0  0  0  0
   57.9440   29.2890   44.6270 N   0  0  0  0  0  0  0  0  0  0  0  0
   59.0140   28.4300   45.1820 C   0  0  0  0  0  0  0  0  0  0  0  0
   59.4867   27.9601   44.3069 H   0  0  0  0  0  0  0  0  0  0  0  0
   58.4500   27.3680   46.1360 C   0  0  0  0  0  0  0  0  0  0  0  0
   57.3628   27.4950   46.2445 H   0  0  0  0  0  0  0  0  0  0  0  0
   58.6311   26.3538   45.7506 H   0  0  0  0  0  0  0  0  0  0  0  0
   59.1390   27.5750   47.4780 C   0  0  0  0  0  0  0  0  0  0  0  0
   58.4817   28.1301   48.1635 H   0  0  0  0  0  0  0  0  0  0  0  0
   59.3778   26.6157   47.9605 H   0  0  0  0  0  0  0  0  0  0  0  0
   60.3930   28.3770   47.1850 C   0  0  0  0  0  0  0  0  0  0  0  0
   60.6532   29.0117   48.0449 H   0  0  0  0  0  0  0  0  0  0  0  0
   61.2588   27.7259   46.9939 H   0  0  0  0  0  0  0  0  0  0  0  0
   60.0540   29.2320   45.9780 C   0  0  0  0  0  0  0  0  0  0  0  0
   59.6327   30.1967   46.2971 H   0  0  0  0  0  0  0  0  0  0  0  0
   60.9458   29.4543   45.3736 H   0  0  0  0  0  0  0  0  0  0  0  0
  1  2  1  0
  2  3  1  0
  3  4  2  0
  4  5  1  0
  4  6  1  0
  6  7  1  0
  7  8  2  0
  8  9  1  0
  9 10  2  0
 10 11  1  0
 10 12  1  0
 12 13  1  0
 12 14  2  0
 14 15  1  0
 14 16  1  0
 16 17  1  0
 16 18  2  0
 18 19  1  0
  7 20  1  0
 20 21  1  0
 21 22  1  0
 21 23  1  0
 23 24  1  0
 23 25  1  0
 23 26  1  0
 26 27  1  0
 26 28  1  0
 26 29  1  0
 29 30  1  0
 29 31  1  0
 29 32  1  0
 32 33  1  0
 32 34  1  0
 20  3  1  0
 32 21  1  0
 18  9  1  0
M  CHG  1   6  -1
M  END
>  <UniqueID>  (81) 
67

>  <SMILES>  (81) 
Oc1c[n-]/c(=N/c2ccccc2)n1C1CCCC1

>  <Energy>  (81) 
82.6912500855366

>  <Genealogy>  (81) 
Oc1c[n-]c(=Nc2ccccc2)n1C1CCCC1 (protonated)
Oc1c[n-]/c(=N/c2ccccc2)n1C1CCCC1 (cis-trans isomerization)
Oc1c[n-]/c(=N/c2ccccc2)n1C1CCCC1 (3D coordinates assigned)
Oc1c[n-]/c(=N/c2ccccc2)n1C1CCCC1 (nonaromatic ring conformer: 82.6912500855366 kcal/mol)

>  <smiles>  (81) 
Oc1c[nH]c(=Nc2ccccc2)n1C1CCCC1

>  <score_type>  (81) 
oracle

>  <origin>  (81) 
adg

>  <m_score__min__energy>  (81) 
-8.3300000000000001

>  <m_primary>  (81) 
energy

$$$$
81:0
     RDKit          3D

 37 39  0  0  0  0  0  0  0  0999 V2000
   63.1410   33.7870   46.9850 C   0  0  0  0  0  0  0  0  0  0  0  0
   62.4100   33.7890   48.2040 O   0  0  0  0  0  0  0  0  0  0  0  0
   61.0390   34.0630   48.2640 C   0  0  0  0  0  0  0  0  0  0  0  0
   60.5510   34.6060   49.2940 O   0  0  0  0  0  0  0  0  0  0  0  0
   60.1640   33.7160   47.1210 C   0  0  0  0  0  0  0  0  0  0  0  0
   60.0160   34.6020   46.0410 C   0  0  0  0  0  0  0  0  0  0  0  0
   59.1920   34.2740   44.9630 C   0  0  0  0  0  0  0  0  0  0  0  0
   58.5000   33.0550   44.9420 C   0  0  0  0  0  0  0  0  0  0  0  0
   57.6930   32.7410   43.8900 N   0  0  0  0  0  0  0  0  0  0  0  0
   57.0160   31.5640   43.8360 C   0  0  0  0  0  0  0  0  0  0  0  0
   57.1330   30.6220   44.8680 C   0  0  0  0  0  0  0  0  0  0  0  0
   56.3990   29.3370   44.7640 C   0  0  0  0  0  0  0  0  0  0  0  0
   55.1440   29.3370   44.8670 O   0  0  0  0  0  0  0  0  0  0  0  0
   57.0750   28.0840   44.5820 N   0  0  0  0  0  0  0  0  0  0  0  0
   58.1210   27.5550   45.4100 C   0  0  0  0  0  0  0  0  0  0  0  0
   59.4660   27.9320   45.2360 C   0  0  0  0  0  0  0  0  0  0  0  0
   60.4600   27.3890   46.0570 C   0  0  0  0  0  0  0  0  0  0  0  0
   60.1220   26.4590   47.0440 C   0  0  0  0  0  0  0  0  0  0  0  0
   58.7920   26.0630   47.2050 C   0  0  0  0  0  0  0  0  0  0  0  0
   57.7960   26.6040   46.3860 C   0  0  0  0  0  0  0  0  0  0  0  0
   57.9360   30.9330   45.9830 C   0  0  0  0  0  0  0  0  0  0  0  0
   58.0090   30.1300   46.9540 O   0  0  0  0  0  0  0  0  0  0  0  0
   58.6390   32.1530   46.0210 C   0  0  0  0  0  0  0  0  0  0  0  0
   59.4710   32.4930   47.1050 C   0  0  0  0  0  0  0  0  0  0  0  0
   64.2190   33.7840   47.2039 H   0  0  0  0  0  0  0  0  0  0  0  0
   62.8824   32.8896   46.4039 H   0  0  0  0  0  0  0  0  0  0  0  0
   62.8873   34.6858   46.4039 H   0  0  0  0  0  0  0  0  0  0  0  0
   60.5536   35.5617   46.0448 H   0  0  0  0  0  0  0  0  0  0  0  0
   59.0849   34.9772   44.1239 H   0  0  0  0  0  0  0  0  0  0  0  0
   57.5850   33.4100   43.0940 H   0  0  0  0  0  0  0  0  0  0  0  0
   56.3690   31.3478   42.9731 H   0  0  0  0  0  0  0  0  0  0  0  0
   59.7361   28.6553   44.4525 H   0  0  0  0  0  0  0  0  0  0  0  0
   61.5086   27.6943   45.9256 H   0  0  0  0  0  0  0  0  0  0  0  0
   60.9034   26.0387   47.6942 H   0  0  0  0  0  0  0  0  0  0  0  0
   58.5280   25.3249   47.9767 H   0  0  0  0  0  0  0  0  0  0  0  0
   56.7517   26.2811   46.5088 H   0  0  0  0  0  0  0  0  0  0  0  0
   59.5798   31.7945   47.9478 H   0  0  0  0  0  0  0  0  0  0  0  0
  1  2  1  0
  2  3  1  0
  3  4  2  0
  3  5  1  0
  5  6  2  0
  6  7  1  0
  7  8  2  0
  8  9  1  0
  9 10  1  0
 10 11  2  0
 11 12  1  0
 12 13  2  0
 12 14  1  0
 14 15  1  0
 15 16  2  0
 16 17  1  0
 17 18  2  0
 18 19  1  0
 19 20  2  0
 11 21  1  0
 21 22  2  0
 21 23  1  0
 23 24  2  0
 24  5  1  0
 23  8  1  0
 20 15  1  0
  1 25  1  0
  1 26  1  0
  1 27  1  0
  6 28  1  0
  7 29  1  0
  9 30  1  0
 10 31  1  0
 16 32  1  0
 17 33  1  0
 18 34  1  0
 19 35  1  0
 20 36  1  0
 24 37  1  0
M  CHG  1  14  -1
M  END
>  <UniqueID>  (82) 
68

>  <SMILES>  (82) 
COC(=O)c1ccc2[nH]cc(C(=O)[N-]c3ccccc3)c(=O)c2c1

>  <Energy>  (82) 
51.29619352722983

>  <Genealogy>  (82) 
COC(=O)c1ccc2[nH]cc(C(=O)[N-]c3ccccc3)c(=O)c2c1 (protonated)
COC(=O)c1ccc2[nH]cc(C(=O)[N-]c3ccccc3)c(=O)c2c1 (3D coordinates assigned)
COC(=O)c1ccc2[nH]cc(C(=O)[N-]c3ccccc3)c(=O)c2c1 (optimized conformer: 51.29619352722983 kcal/mol)

>  <smiles>  (82) 
COC(=O)c1ccc2[nH]cc(C(=O)Nc3ccccc3)c(=O)c2c1

>  <score_type>  (82) 
oracle

>  <origin>  (82) 
adg

>  <m_score__min__energy>  (82) 
-9.2899999999999991

>  <m_primary>  (82) 
energy

$$$$
82:0
     RDKit          3D

 34 35  0  0  0  0  0  0  0  0999 V2000
   54.8010   29.3440   45.8500 H   0  0  0  0  0  0  0  0  0  0  0  0
   55.1420   29.3150   44.8630 N   0  0  0  0  0  0  0  0  0  0  0  0
   56.8670   29.3650   44.9250 S   0  0  0  0  0  0  0  0  0  0  0  0
   57.3340   28.9750   46.3000 O   0  0  0  0  0  0  0  0  0  0  0  0
   57.4310   28.3880   43.9310 O   0  0  0  0  0  0  0  0  0  0  0  0
   57.4230   30.9930   44.5490 C   0  0  0  0  0  0  0  0  0  0  0  0
   57.7320   31.3470   43.2290 C   0  0  0  0  0  0  0  0  0  0  0  0
   57.6421   30.6015   42.4252 H   0  0  0  0  0  0  0  0  0  0  0  0
   58.1540   32.6450   42.9320 C   0  0  0  0  0  0  0  0  0  0  0  0
   58.3982   32.9181   41.8948 H   0  0  0  0  0  0  0  0  0  0  0  0
   58.2670   33.5980   43.9480 C   0  0  0  0  0  0  0  0  0  0  0  0
   58.6011   34.6183   43.7086 H   0  0  0  0  0  0  0  0  0  0  0  0
   57.9550   33.2560   45.2740 C   0  0  0  0  0  0  0  0  0  0  0  0
   58.0430   34.2830   46.3710 C   0  0  0  0  0  0  0  0  0  0  0  0
   57.3151   35.0842   46.1756 H   0  0  0  0  0  0  0  0  0  0  0  0
   57.8228   33.7956   47.3322 H   0  0  0  0  0  0  0  0  0  0  0  0
   59.3870   34.8580   46.4300 N   0  0  0  0  0  0  0  0  0  0  0  0
   60.3370   34.4480   47.2180 C   0  0  0  0  0  0  0  0  0  0  0  0
   60.2190   34.5540   48.5730 N   0  0  0  0  0  0  0  0  0  0  0  0
   61.1970   34.1280   49.4170 C   0  0  0  0  0  0  0  0  0  0  0  0
   61.0680   34.2325   50.5044 H   0  0  0  0  0  0  0  0  0  0  0  0
   62.3670   33.5570   48.9040 C   0  0  0  0  0  0  0  0  0  0  0  0
   63.6460   33.0160   49.9840 S   0  0  0  0  0  0  0  0  0  0  0  0
   64.1730   34.1810   50.7730 O   0  0  0  0  0  0  0  0  0  0  0  0
   63.1050   31.9920   50.9420 O   0  0  0  0  0  0  0  0  0  0  0  0
   64.9300   32.3190   49.0590 N   0  0  0  0  0  0  0  0  0  0  0  0
   65.4980   33.1110   48.6810 H   0  0  0  0  0  0  0  0  0  0  0  0
   64.4920   31.8440   48.2380 H   0  0  0  0  0  0  0  0  0  0  0  0
   62.5140   33.4480   47.5160 C   0  0  0  0  0  0  0  0  0  0  0  0
   63.4311   33.0124   47.0927 H   0  0  0  0  0  0  0  0  0  0  0  0
   61.4970   33.8920   46.6690 C   0  0  0  0  0  0  0  0  0  0  0  0
   61.6071   33.8052   45.5780 H   0  0  0  0  0  0  0  0  0  0  0  0
   57.5280   31.9500   45.5670 C   0  0  0  0  0  0  0  0  0  0  0  0
   57.2745   31.6771   46.6020 H   0  0  0  0  0  0  0  0  0  0  0  0
  1  2  1  0
  2  3  1  0
  3  4  2  0
  3  5  2  0
  3  6  1  0
  6  7  2  0
  7  8  1  0
  7  9  1  0
  9 10  1  0
  9 11  2  0
 11 12  1  0
 11 13  1  0
 13 14  1  0
 14 15  1  0
 14 16  1  0
 14 17  1  0
 17 18  2  0
 18 19  1  0
 19 20  1  0
 20 21  1  0
 20 22  2  0
 22 23  1  0
 23 24  2  0
 23 25  2  0
 23 26  1  0
 26 27  1  0
 26 28  1  0
 22 29  1  0
 29 30  1  0
 29 31  2  0
 31 32  1  0
 13 33  2  0
 33 34  1  0
 33  6  1  0
 31 18  1  0
M  CHG  2   2  -1  19  -1
M  END
>  <UniqueID>  (83) 
69

>  <SMILES>  (83) 
[NH-]S(=O)(=O)c1cccc(C/N=c2/ccc(S(N)(=O)=O)c[n-]2)c1

>  <Energy>  (83) 
32.47843509787932

>  <Genealogy>  (83) 
[NH-]S(=O)(=O)c1cccc(CN=c2ccc(S(N)(=O)=O)c[n-]2)c1 (protonated)
[NH-]S(=O)(=O)c1cccc(C/N=c2/ccc(S(N)(=O)=O)c[n-]2)c1 (cis-trans isomerization)
[NH-]S(=O)(=O)c1cccc(C/N=c2/ccc(S(N)(=O)=O)c[n-]2)c1 (3D coordinates assigned)
[NH-]S(=O)(=O)c1cccc(C/N=c2/ccc(S(N)(=O)=O)c[n-]2)c1 (optimized conformer: 32.47843509787932 kcal/mol)

>  <smiles>  (83) 
NS(=O)(=O)c1ccc(=NCc2cccc(S(N)(=O)=O)c2)[nH]c1

>  <score_type>  (83) 
oracle

>  <origin>  (83) 
adg

>  <m_score__min__energy>  (83) 
-12.4

>  <m_primary>  (83) 
energy

$$$$
83:0
     RDKit          3D

 43 46  0  0  0  0  0  0  0  0999 V2000
   58.4760   33.7070   52.5930 C   0  0  0  0  0  0  0  0  0  0  0  0
   58.9100   34.2790   51.3640 O   0  0  0  0  0  0  0  0  0  0  0  0
   59.4490   33.5460   50.2960 C   0  0  0  0  0  0  0  0  0  0  0  0
   59.1960   32.1720   50.1210 C   0  0  0  0  0  0  0  0  0  0  0  0
   59.7740   31.4790   49.0530 C   0  0  0  0  0  0  0  0  0  0  0  0
   60.5940   32.1510   48.1330 C   0  0  0  0  0  0  0  0  0  0  0  0
   61.2390   31.4050   46.9990 C   0  0  0  0  0  0  0  0  0  0  0  0
   60.3560   30.2850   46.5530 C   0  0  0  0  0  0  0  0  0  0  0  0
   59.1260   30.4780   46.0110 N   0  0  0  0  0  0  0  0  0  0  0  0
   58.7090   29.2160   45.8000 C   0  0  0  0  0  0  0  0  0  0  0  0
   57.4960   28.7810   45.2490 C   0  0  0  0  0  0  0  0  0  0  0  0
   56.4330   29.7220   44.8310 C   0  0  0  0  0  0  0  0  0  0  0  0
   55.2360   29.4650   45.1270 O   0  0  0  0  0  0  0  0  0  0  0  0
   56.7100   30.9020   44.0630 N   0  0  0  0  0  0  0  0  0  0  0  0
   57.3580   32.0970   44.5270 C   0  0  0  0  0  0  0  0  0  0  0  0
   57.0220   32.7080   45.7480 C   0  0  0  0  0  0  0  0  0  0  0  0
   57.6690   33.8800   46.1410 C   0  0  0  0  0  0  0  0  0  0  0  0
   58.6260   34.4490   45.3000 C   0  0  0  0  0  0  0  0  0  0  0  0
   58.9200   33.8610   44.1100 N   0  0  0  0  0  0  0  0  0  0  0  0
   58.3130   32.7120   43.7110 C   0  0  0  0  0  0  0  0  0  0  0  0
   57.3270   27.3860   45.0910 C   0  0  0  0  0  0  0  0  0  0  0  0
   58.3320   26.4840   45.5070 C   0  0  0  0  0  0  0  0  0  0  0  0
   58.0680   24.6040   45.2990 Br  0  0  0  0  0  0  0  0  0  0  0  0
   59.5270   26.9620   46.0740 C   0  0  0  0  0  0  0  0  0  0  0  0
   59.6750   28.3390   46.1960 C   0  0  0  0  0  0  0  0  0  0  0  0
   60.6900   29.0100   46.6670 O   0  0  0  0  0  0  0  0  0  0  0  0
   60.8450   33.5210   48.3100 C   0  0  0  0  0  0  0  0  0  0  0  0
   60.2740   34.2100   49.3820 C   0  0  0  0  0  0  0  0  0  0  0  0
   58.9055   34.2730   53.4327 H   0  0  0  0  0  0  0  0  0  0  0  0
   57.3781   33.7458   52.6480 H   0  0  0  0  0  0  0  0  0  0  0  0
   58.8091   32.6601   52.6480 H   0  0  0  0  0  0  0  0  0  0  0  0
   58.5408   31.6415   50.8276 H   0  0  0  0  0  0  0  0  0  0  0  0
   59.5852   30.4020   48.9331 H   0  0  0  0  0  0  0  0  0  0  0  0
   61.4052   32.0942   46.1580 H   0  0  0  0  0  0  0  0  0  0  0  0
   62.1998   30.9920   47.3400 H   0  0  0  0  0  0  0  0  0  0  0  0
   56.2500   32.2625   46.3926 H   0  0  0  0  0  0  0  0  0  0  0  0
   57.4269   34.3511   47.1050 H   0  0  0  0  0  0  0  0  0  0  0  0
   59.1423   35.3729   45.5997 H   0  0  0  0  0  0  0  0  0  0  0  0
   58.5743   32.2635   42.7412 H   0  0  0  0  0  0  0  0  0  0  0  0
   56.4022   26.9984   44.6389 H   0  0  0  0  0  0  0  0  0  0  0  0
   60.3155   26.2718   46.4086 H   0  0  0  0  0  0  0  0  0  0  0  0
   61.4948   34.0544   47.6006 H   0  0  0  0  0  0  0  0  0  0  0  0
   60.4746   35.2841   49.5088 H   0  0  0  0  0  0  0  0  0  0  0  0
  1  2  1  0
  2  3  1  0
  3  4  2  0
  4  5  1  0
  5  6  2  0
  6  7  1  0
  7  8  1  0
  8  9  2  0
  9 10  1  0
 10 11  2  0
 11 12  1  0
 12 13  2  0
 12 14  1  0
 14 15  1  0
 15 16  2  0
 16 17  1  0
 17 18  2  0
 18 19  1  0
 19 20  2  0
 11 21  1  0
 21 22  2  0
 22 23  1  0
 22 24  1  0
 24 25  2  0
 25 26  1  0
  6 27  1  0
 27 28  2  0
 28  3  1  0
 26  8  1  0
 25 10  1  0
 20 15  1  0
  1 29  1  0
  1 30  1  0
  1 31  1  0
  4 32  1  0
  5 33  1  0
  7 34  1  0
  7 35  1  0
 16 36  1  0
 17 37  1  0
 18 38  1  0
 20 39  1  0
 21 40  1  0
 24 41  1  0
 27 42  1  0
 28 43  1  0
M  CHG  1  14  -1
M  END
>  <UniqueID>  (84) 
70

>  <SMILES>  (84) 
COc1ccc(Cc2nc3c(C(=O)[N-]c4cccnc4)cc(Br)cc3o2)cc1

>  <Energy>  (84) 
86.1003525225699

>  <Genealogy>  (84) 
COc1ccc(Cc2nc3c(C(=O)[N-]c4cccnc4)cc(Br)cc3o2)cc1 (protonated)
COc1ccc(Cc2nc3c(C(=O)[N-]c4cccnc4)cc(Br)cc3o2)cc1 (3D coordinates assigned)
COc1ccc(Cc2nc3c(C(=O)[N-]c4cccnc4)cc(Br)cc3o2)cc1 (optimized conformer: 86.1003525225699 kcal/mol)

>  <smiles>  (84) 
COc1ccc(Cc2nc3c(C(=O)Nc4cccnc4)cc(Br)cc3o2)cc1

>  <score_type>  (84) 
oracle

>  <origin>  (84) 
adg

>  <m_score__min__energy>  (84) 
-10.380000000000001

>  <m_primary>  (84) 
energy

$$$$
84:0
     RDKit          3D

 38 39  0  0  0  0  0  0  0  0999 V2000
   55.5190   24.1800   46.5750 C   0  0  0  0  0  0  0  0  0  0  0  0
   54.8450   25.1600   45.6220 C   0  0  0  0  0  0  0  0  0  0  0  0
   55.1500   26.5380   46.0120 N   0  0  0  0  0  0  0  0  0  0  0  0
   56.8620   26.8390   45.9630 S   0  0  0  0  0  0  0  0  0  0  0  0
   57.4320   26.7320   47.3510 O   0  0  0  0  0  0  0  0  0  0  0  0
   57.5200   25.8140   45.0840 O   0  0  0  0  0  0  0  0  0  0  0  0
   57.1730   28.4420   45.3040 C   0  0  0  0  0  0  0  0  0  0  0  0
   56.1090   29.2150   44.8200 C   0  0  0  0  0  0  0  0  0  0  0  0
   56.3460   30.4870   44.2910 C   0  0  0  0  0  0  0  0  0  0  0  0
   57.6530   31.0020   44.2370 C   0  0  0  0  0  0  0  0  0  0  0  0
   57.9050   32.2980   43.6510 N   0  0  0  0  0  0  0  0  0  0  0  0
   57.3870   33.3830   44.5020 C   0  0  0  0  0  0  0  0  0  0  0  0
   58.2990   33.6630   45.6720 C   0  0  0  0  0  0  0  0  0  0  0  0
   59.2630   34.6830   45.5940 C   0  0  0  0  0  0  0  0  0  0  0  0
   60.0750   34.9690   46.6950 C   0  0  0  0  0  0  0  0  0  0  0  0
   59.9320   34.2440   47.8790 C   0  0  0  0  0  0  0  0  0  0  0  0
   58.9720   33.2300   47.9690 C   0  0  0  0  0  0  0  0  0  0  0  0
   58.7870   32.3250   49.4590 Cl  0  0  0  0  0  0  0  0  0  0  0  0
   58.1550   32.9420   46.8690 C   0  0  0  0  0  0  0  0  0  0  0  0
   58.7180   30.2190   44.7150 C   0  0  0  0  0  0  0  0  0  0  0  0
   58.4790   28.9470   45.2440 C   0  0  0  0  0  0  0  0  0  0  0  0
   55.3137   24.4785   47.6136 H   0  0  0  0  0  0  0  0  0  0  0  0
   55.1249   23.1681   46.3996 H   0  0  0  0  0  0  0  0  0  0  0  0
   56.6049   24.1860   46.3996 H   0  0  0  0  0  0  0  0  0  0  0  0
   55.2110   24.9825   44.6000 H   0  0  0  0  0  0  0  0  0  0  0  0
   53.7563   25.0086   45.6635 H   0  0  0  0  0  0  0  0  0  0  0  0
   55.0833   28.8192   44.8565 H   0  0  0  0  0  0  0  0  0  0  0  0
   55.5052   31.0883   43.9149 H   0  0  0  0  0  0  0  0  0  0  0  0
   57.4320   32.3470   42.7190 H   0  0  0  0  0  0  0  0  0  0  0  0
   58.9300   32.4340   43.4840 H   0  0  0  0  0  0  0  0  0  0  0  0
   57.2941   34.2967   43.8966 H   0  0  0  0  0  0  0  0  0  0  0  0
   56.4098   33.0695   44.8980 H   0  0  0  0  0  0  0  0  0  0  0  0
   59.3787   35.2580   44.6634 H   0  0  0  0  0  0  0  0  0  0  0  0
   60.8286   35.7675   46.6282 H   0  0  0  0  0  0  0  0  0  0  0  0
   60.5748   34.4700   48.7425 H   0  0  0  0  0  0  0  0  0  0  0  0
   57.3973   32.1479   46.9424 H   0  0  0  0  0  0  0  0  0  0  0  0
   59.7456   30.6093   44.6726 H   0  0  0  0  0  0  0  0  0  0  0  0
   59.3188   28.3406   45.6143 H   0  0  0  0  0  0  0  0  0  0  0  0
  1  2  1  0
  2  3  1  0
  3  4  1  0
  4  5  2  0
  4  6  2  0
  4  7  1  0
  7  8  2  0
  8  9  1  0
  9 10  2  0
 10 11  1  0
 11 12  1  0
 12 13  1  0
 13 14  2  0
 14 15  1  0
 15 16  2  0
 16 17  1  0
 17 18  1  0
 17 19  2  0
 10 20  1  0
 20 21  2  0
 21  7  1  0
 19 13  1  0
  1 22  1  0
  1 23  1  0
  1 24  1  0
  2 25  1  0
  2 26  1  0
  8 27  1  0
  9 28  1  0
 11 29  1  0
 11 30  1  0
 12 31  1  0
 12 32  1  0
 14 33  1  0
 15 34  1  0
 16 35  1  0
 19 36  1  0
 20 37  1  0
 21 38  1  0
M  CHG  2   3  -1  11   1
M  END
>  <UniqueID>  (85) 
71

>  <SMILES>  (85) 
CC[N-]S(=O)(=O)c1ccc([NH2+]Cc2cccc(Cl)c2)cc1

>  <Energy>  (85) 
35.022621891873776

>  <Genealogy>  (85) 
CC[N-]S(=O)(=O)c1ccc([NH2+]Cc2cccc(Cl)c2)cc1 (protonated)
CC[N-]S(=O)(=O)c1ccc([NH2+]Cc2cccc(Cl)c2)cc1 (3D coordinates assigned)
CC[N-]S(=O)(=O)c1ccc([NH2+]Cc2cccc(Cl)c2)cc1 (optimized conformer: 35.022621891873776 kcal/mol)

>  <smiles>  (85) 
CCNS(=O)(=O)c1ccc(NCc2cccc(Cl)c2)cc1

>  <score_type>  (85) 
oracle

>  <origin>  (85) 
adg

>  <m_score__min__energy>  (85) 
-7.9299999999999997

>  <m_primary>  (85) 
energy

$$$$
85:0
     RDKit          3D

 31 33  0  0  0  0  0  0  0  0999 V2000
   58.9318   25.6088   45.1584 H   0  0  0  0  0  0  0  0  0  0  0  0
   58.2170   26.4420   45.2280 C   0  0  0  0  0  0  0  0  0  0  0  0
   58.5980   28.0790   45.1260 S   0  0  0  0  0  0  0  0  0  0  0  0
   57.0060   28.5680   45.3180 C   0  0  0  0  0  0  0  0  0  0  0  0
   56.6320   29.8130   45.3290 N   0  0  0  0  0  0  0  0  0  0  0  0
   57.1220   30.8190   44.4300 C   0  0  0  0  0  0  0  0  0  0  0  0
   56.9530   30.6200   43.0550 C   0  0  0  0  0  0  0  0  0  0  0  0
   56.4384   29.7170   42.6948 H   0  0  0  0  0  0  0  0  0  0  0  0
   57.4310   31.5560   42.1360 C   0  0  0  0  0  0  0  0  0  0  0  0
   57.2989   31.3827   41.0578 H   0  0  0  0  0  0  0  0  0  0  0  0
   58.0760   32.7110   42.5810 C   0  0  0  0  0  0  0  0  0  0  0  0
   58.4633   33.4379   41.8519 H   0  0  0  0  0  0  0  0  0  0  0  0
   58.2320   32.9480   43.9540 C   0  0  0  0  0  0  0  0  0  0  0  0
   58.8620   34.1210   44.3990 C   0  0  0  0  0  0  0  0  0  0  0  0
   59.2499   34.8457   43.6680 H   0  0  0  0  0  0  0  0  0  0  0  0
   58.9980   34.3710   45.7650 C   0  0  0  0  0  0  0  0  0  0  0  0
   59.4986   35.2885   46.1078 H   0  0  0  0  0  0  0  0  0  0  0  0
   58.5000   33.4590   46.6980 C   0  0  0  0  0  0  0  0  0  0  0  0
   58.6031   33.6644   47.7737 H   0  0  0  0  0  0  0  0  0  0  0  0
   57.8720   32.2880   46.2710 C   0  0  0  0  0  0  0  0  0  0  0  0
   57.4752   31.5800   47.0135 H   0  0  0  0  0  0  0  0  0  0  0  0
   57.7420   32.0050   44.8960 C   0  0  0  0  0  0  0  0  0  0  0  0
   56.1730   27.5110   45.4690 N   0  0  0  0  0  0  0  0  0  0  0  0
   55.1420   27.5940   45.6190 H   0  0  0  0  0  0  0  0  0  0  0  0
   56.8390   26.3230   45.4160 C   0  0  0  0  0  0  0  0  0  0  0  0
   56.1590   25.0160   45.5460 C   0  0  0  0  0  0  0  0  0  0  0  0
   54.9720   24.9680   45.9700 O   0  0  0  0  0  0  0  0  0  0  0  0
   56.8530   23.7400   45.1810 C   0  0  0  0  0  0  0  0  0  0  0  0
   57.1437   23.2056   46.0975 H   0  0  0  0  0  0  0  0  0  0  0  0
   56.1735   23.1095   44.5887 H   0  0  0  0  0  0  0  0  0  0  0  0
   57.7515   23.9677   44.5887 H   0  0  0  0  0  0  0  0  0  0  0  0
  1  2  1  0
  2  3  1  0
  3  4  1  0
  4  5  2  0
  5  6  1  0
  6  7  2  0
  7  8  1  0
  7  9  1  0
  9 10  1  0
  9 11  2  0
 11 12  1  0
 11 13  1  0
 13 14  2  0
 14 15  1  0
 14 16  1  0
 16 17  1  0
 16 18  2  0
 18 19  1  0
 18 20  1  0
 20 21  1  0
 20 22  2  0
  4 23  1  0
 23 24  1  0
 23 25  1  0
 25 26  1  0
 26 27  2  0
 26 28  1  0
 28 29  1  0
 28 30  1  0
 28 31  1  0
 25  2  2  0
 22  6  1  0
 22 13  1  0
M  END
>  <UniqueID>  (86) 
72

>  <SMILES>  (86) 
CC(=O)c1cs/c(=N/c2cccc3ccccc23)[nH]1

>  <Energy>  (86) 
74.12234251060232

>  <Genealogy>  (86) 
CC(=O)c1cs/c(=N/c2cccc3ccccc23)[nH]1 (cis-trans isomerization)
CC(=O)c1cs/c(=N/c2cccc3ccccc23)[nH]1 (3D coordinates assigned)
CC(=O)c1cs/c(=N/c2cccc3ccccc23)[nH]1 (optimized conformer: 74.12234251060232 kcal/mol)

>  <smiles>  (86) 
CC(=O)c1csc(=Nc2cccc3ccccc23)[nH]1

>  <score_type>  (86) 
oracle

>  <origin>  (86) 
adg

>  <m_score__min__energy>  (86) 
-8.5500000000000007

>  <m_primary>  (86) 
energy

$$$$
86:0
     RDKit          3D

 38 40  0  0  0  0  0  0  0  0999 V2000
   55.6568   29.5178   45.1354 H   0  0  0  0  0  0  0  0  0  0  0  0
   56.3120   28.6350   45.0980 C   0  0  0  0  0  0  0  0  0  0  0  0
   55.8950   27.4590   45.6380 N   0  0  0  0  0  0  0  0  0  0  0  0
   56.6590   26.3310   45.5960 C   0  0  0  0  0  0  0  0  0  0  0  0
   56.2510   25.2190   46.1360 N   0  0  0  0  0  0  0  0  0  0  0  0
   55.5530   24.1570   45.4690 C   0  0  0  0  0  0  0  0  0  0  0  0
   54.3180   24.0210   45.6730 O   0  0  0  0  0  0  0  0  0  0  0  0
   56.2550   23.1750   44.6220 C   0  0  0  0  0  0  0  0  0  0  0  0
   55.7230   22.5830   43.5760 O   0  0  0  0  0  0  0  0  0  0  0  0
   56.6190   21.7850   43.0420 C   0  0  0  0  0  0  0  0  0  0  0  0
   56.4583   21.1548   42.1549 H   0  0  0  0  0  0  0  0  0  0  0  0
   57.7930   21.8580   43.7640 C   0  0  0  0  0  0  0  0  0  0  0  0
   58.7253   21.3085   43.5667 H   0  0  0  0  0  0  0  0  0  0  0  0
   57.5620   22.7580   44.7820 C   0  0  0  0  0  0  0  0  0  0  0  0
   58.2710   23.0776   45.5599 H   0  0  0  0  0  0  0  0  0  0  0  0
   57.9200   26.3780   44.9920 C   0  0  0  0  0  0  0  0  0  0  0  0
   58.5514   25.4779   44.9586 H   0  0  0  0  0  0  0  0  0  0  0  0
   58.3720   27.5740   44.4320 C   0  0  0  0  0  0  0  0  0  0  0  0
   59.3557   27.6133   43.9413 H   0  0  0  0  0  0  0  0  0  0  0  0
   57.5730   28.7270   44.4940 C   0  0  0  0  0  0  0  0  0  0  0  0
   57.9890   29.9710   43.9050 N   0  0  0  0  0  0  0  0  0  0  0  0
   58.8290   29.9620   43.2830 H   0  0  0  0  0  0  0  0  0  0  0  0
   57.2750   31.2090   44.0480 C   0  0  0  0  0  0  0  0  0  0  0  0
   56.0930   31.2230   44.4860 O   0  0  0  0  0  0  0  0  0  0  0  0
   57.9360   32.5000   43.6730 C   0  0  0  0  0  0  0  0  0  0  0  0
   58.8306   32.2897   43.0685 H   0  0  0  0  0  0  0  0  0  0  0  0
   57.2308   33.1128   43.0924 H   0  0  0  0  0  0  0  0  0  0  0  0
   58.3370   33.2480   44.9130 C   0  0  0  0  0  0  0  0  0  0  0  0
   57.8930   32.8170   46.1740 C   0  0  0  0  0  0  0  0  0  0  0  0
   57.2257   31.9460   46.2514 H   0  0  0  0  0  0  0  0  0  0  0  0
   58.2960   33.4910   47.3320 C   0  0  0  0  0  0  0  0  0  0  0  0
   57.9395   33.1541   48.3166 H   0  0  0  0  0  0  0  0  0  0  0  0
   59.1520   34.5930   47.2380 C   0  0  0  0  0  0  0  0  0  0  0  0
   59.4667   35.1240   48.1485 H   0  0  0  0  0  0  0  0  0  0  0  0
   59.6080   35.0200   45.9870 C   0  0  0  0  0  0  0  0  0  0  0  0
   60.2830   35.8855   45.9144 H   0  0  0  0  0  0  0  0  0  0  0  0
   59.2070   34.3480   44.8280 C   0  0  0  0  0  0  0  0  0  0  0  0
   59.5740   34.6818   43.8462 H   0  0  0  0  0  0  0  0  0  0  0  0
  1  2  1  0
  2  3  1  0
  3  4  1  0
  4  5  2  0
  5  6  1  0
  6  7  2  0
  6  8  1  0
  8  9  1  0
  9 10  1  0
 10 11  1  0
 10 12  2  0
 12 13  1  0
 12 14  1  0
 14 15  1  0
  4 16  1  0
 16 17  1  0
 16 18  2  0
 18 19  1  0
 18 20  1  0
 20 21  1  0
 21 22  1  0
 21 23  1  0
 23 24  2  0
 23 25  1  0
 25 26  1  0
 25 27  1  0
 25 28  1  0
 28 29  2  0
 29 30  1  0
 29 31  1  0
 31 32  1  0
 31 33  2  0
 33 34  1  0
 33 35  1  0
 35 36  1  0
 35 37  2  0
 37 38  1  0
 20  2  2  0
 37 28  1  0
 14  8  2  0
M  CHG  1   3  -1
M  END
>  <UniqueID>  (87) 
73

>  <SMILES>  (87) 
O=C(Cc1ccccc1)Nc1cc/c(=N/C(=O)c2ccco2)[n-]c1

>  <Energy>  (87) 
73.76141168433837

>  <Genealogy>  (87) 
O=C(Cc1ccccc1)Nc1ccc(=NC(=O)c2ccco2)[n-]c1 (protonated)
O=C(Cc1ccccc1)Nc1cc/c(=N/C(=O)c2ccco2)[n-]c1 (cis-trans isomerization)
O=C(Cc1ccccc1)Nc1cc/c(=N/C(=O)c2ccco2)[n-]c1 (3D coordinates assigned)
O=C(Cc1ccccc1)Nc1cc/c(=N/C(=O)c2ccco2)[n-]c1 (optimized conformer: 73.76141168433837 kcal/mol)

>  <smiles>  (87) 
O=C(Cc1ccccc1)Nc1ccc(=NC(=O)c2ccco2)[nH]c1

>  <score_type>  (87) 
oracle

>  <origin>  (87) 
adg

>  <m_score__min__energy>  (87) 
-10.83

>  <m_primary>  (87) 
energy

$$$$
87:0
     RDKit          3D

 38 41  0  0  0  0  0  0  0  0999 V2000
   60.4030   27.8980   46.9590 C   0  0  0  0  0  0  0  0  0  0  0  0
   59.6190   29.1140   46.5550 C   0  0  0  0  0  0  0  0  0  0  0  0
   60.1080   30.3430   46.9100 N   0  0  0  0  0  0  0  0  0  0  0  0
   59.4240   31.4480   46.5390 C   0  0  0  0  0  0  0  0  0  0  0  0
   58.2570   31.3760   45.8540 C   0  0  0  0  0  0  0  0  0  0  0  0
   57.8270   32.6790   45.7070 C   0  0  0  0  0  0  0  0  0  0  0  0
   58.7420   33.4790   46.3070 N   0  0  0  0  0  0  0  0  0  0  0  0
   59.7200   32.7330   46.8150 N   0  0  0  0  0  0  0  0  0  0  0  0
   60.8560   33.2460   47.5360 C   0  0  0  0  0  0  0  0  0  0  0  0
   62.1250   33.2640   46.9330 C   0  0  0  0  0  0  0  0  0  0  0  0
   63.2330   33.7580   47.6290 C   0  0  0  0  0  0  0  0  0  0  0  0
   63.0840   34.2330   48.9340 C   0  0  0  0  0  0  0  0  0  0  0  0
   61.8290   34.2140   49.5460 C   0  0  0  0  0  0  0  0  0  0  0  0
   60.7190   33.7220   48.8530 C   0  0  0  0  0  0  0  0  0  0  0  0
   57.7340   30.1450   45.4910 C   0  0  0  0  0  0  0  0  0  0  0  0
   56.6430   30.0780   44.8600 O   0  0  0  0  0  0  0  0  0  0  0  0
   58.4280   29.0120   45.8490 N   0  0  0  0  0  0  0  0  0  0  0  0
   57.9010   27.7230   45.4840 C   0  0  0  0  0  0  0  0  0  0  0  0
   58.2710   27.1260   44.2690 C   0  0  0  0  0  0  0  0  0  0  0  0
   57.7590   25.8730   43.9190 C   0  0  0  0  0  0  0  0  0  0  0  0
   56.8790   25.2100   44.7810 C   0  0  0  0  0  0  0  0  0  0  0  0
   56.5110   25.7980   45.9940 C   0  0  0  0  0  0  0  0  0  0  0  0
   57.0220   27.0520   46.3470 C   0  0  0  0  0  0  0  0  0  0  0  0
   60.4432   27.8356   48.0565 H   0  0  0  0  0  0  0  0  0  0  0  0
   59.9151   26.9973   46.5582 H   0  0  0  0  0  0  0  0  0  0  0  0
   61.4248   27.9707   46.5582 H   0  0  0  0  0  0  0  0  0  0  0  0
   56.9099   33.0081   45.1965 H   0  0  0  0  0  0  0  0  0  0  0  0
   58.6960   34.5210   46.3520 H   0  0  0  0  0  0  0  0  0  0  0  0
   62.2478   32.8871   45.9069 H   0  0  0  0  0  0  0  0  0  0  0  0
   64.2223   33.7724   47.1484 H   0  0  0  0  0  0  0  0  0  0  0  0
   63.9559   34.6223   49.4801 H   0  0  0  0  0  0  0  0  0  0  0  0
   61.7136   34.5866   50.5745 H   0  0  0  0  0  0  0  0  0  0  0  0
   59.7328   33.7069   49.3401 H   0  0  0  0  0  0  0  0  0  0  0  0
   58.9648   27.6447   43.5911 H   0  0  0  0  0  0  0  0  0  0  0  0
   58.0484   25.4081   42.9650 H   0  0  0  0  0  0  0  0  0  0  0  0
   56.4763   24.2247   44.5036 H   0  0  0  0  0  0  0  0  0  0  0  0
   55.8197   25.2752   46.6713 H   0  0  0  0  0  0  0  0  0  0  0  0
   56.7337   27.5126   47.3034 H   0  0  0  0  0  0  0  0  0  0  0  0
  1  2  1  0
  2  3  2  0
  3  4  1  0
  4  5  2  0
  5  6  1  0
  6  7  2  0
  7  8  1  0
  8  9  1  0
  9 10  2  0
 10 11  1  0
 11 12  2  0
 12 13  1  0
 13 14  2  0
  5 15  1  0
 15 16  2  0
 15 17  1  0
 17 18  1  0
 18 19  2  0
 19 20  1  0
 20 21  2  0
 21 22  1  0
 22 23  2  0
 17  2  1  0
 23 18  1  0
  8  4  1  0
 14  9  1  0
  1 24  1  0
  1 25  1  0
  1 26  1  0
  6 27  1  0
  7 28  1  0
 10 29  1  0
 11 30  1  0
 12 31  1  0
 13 32  1  0
 14 33  1  0
 19 34  1  0
 20 35  1  0
 21 36  1  0
 22 37  1  0
 23 38  1  0
M  CHG  1   7   1
M  END
>  <UniqueID>  (88) 
74

>  <SMILES>  (88) 
Cc1nc2c(c[nH+]n2-c2ccccc2)c(=O)n1-c1ccccc1

>  <Energy>  (88) 
98.75376957611422

>  <Genealogy>  (88) 
Cc1nc2c(c[nH+]n2-c2ccccc2)c(=O)n1-c1ccccc1 (protonated)
Cc1nc2c(c[nH+]n2-c2ccccc2)c(=O)n1-c1ccccc1 (3D coordinates assigned)
Cc1nc2c(c[nH+]n2-c2ccccc2)c(=O)n1-c1ccccc1 (optimized conformer: 98.75376957611422 kcal/mol)

>  <smiles>  (88) 
Cc1nc2c(cnn2-c2ccccc2)c(=O)n1-c1ccccc1

>  <score_type>  (88) 
oracle

>  <origin>  (88) 
adg

>  <m_score__min__energy>  (88) 
-5.8799999999999999

>  <m_primary>  (88) 
energy

$$$$
88:0
     RDKit          3D

 35 37  0  0  0  0  0  0  0  0999 V2000
   57.4220   28.1160   43.2460 O   0  0  0  0  0  0  0  0  0  0  0  0
   57.0790   28.7770   44.2650 C   0  0  0  0  0  0  0  0  0  0  0  0
   56.1690   28.2160   45.2260 N   0  0  0  0  0  0  0  0  0  0  0  0
   56.2490   27.0330   45.7600 C   0  0  0  0  0  0  0  0  0  0  0  0
   55.1920   26.2250   45.9970 N   0  0  0  0  0  0  0  0  0  0  0  0
   55.5420   25.0640   46.5490 N   0  0  0  0  0  0  0  0  0  0  0  0
   56.8730   24.9430   46.7570 C   0  0  0  0  0  0  0  0  0  0  0  0
   57.6940   26.3230   46.2400 S   0  0  0  0  0  0  0  0  0  0  0  0
   57.6190   30.1430   44.4700 C   0  0  0  0  0  0  0  0  0  0  0  0
   58.1350   30.5270   45.7190 C   0  0  0  0  0  0  0  0  0  0  0  0
   58.6470   31.8130   45.9140 C   0  0  0  0  0  0  0  0  0  0  0  0
   58.6570   32.7430   44.8580 C   0  0  0  0  0  0  0  0  0  0  0  0
   59.1820   34.0720   45.0210 N   0  0  0  0  0  0  0  0  0  0  0  0
   59.4400   34.8290   46.5620 S   0  0  0  0  0  0  0  0  0  0  0  0
   59.6380   36.3050   46.3620 O   0  0  0  0  0  0  0  0  0  0  0  0
   58.2280   34.6110   47.4250 O   0  0  0  0  0  0  0  0  0  0  0  0
   60.8800   34.1630   47.3260 C   0  0  0  0  0  0  0  0  0  0  0  0
   60.9620   34.0610   48.7220 C   0  0  0  0  0  0  0  0  0  0  0  0
   62.1050   33.5220   49.3210 C   0  0  0  0  0  0  0  0  0  0  0  0
   63.1710   33.0860   48.5270 C   0  0  0  0  0  0  0  0  0  0  0  0
   63.0950   33.1900   47.1350 C   0  0  0  0  0  0  0  0  0  0  0  0
   64.1290   32.7680   46.3670 F   0  0  0  0  0  0  0  0  0  0  0  0
   61.9530   33.7290   46.5350 C   0  0  0  0  0  0  0  0  0  0  0  0
   58.1320   32.3630   43.6150 C   0  0  0  0  0  0  0  0  0  0  0  0
   57.6210   31.0780   43.4200 C   0  0  0  0  0  0  0  0  0  0  0  0
   57.3560   24.0616   47.2040 H   0  0  0  0  0  0  0  0  0  0  0  0
   58.1361   29.8084   46.5519 H   0  0  0  0  0  0  0  0  0  0  0  0
   59.0445   32.0997   46.8988 H   0  0  0  0  0  0  0  0  0  0  0  0
   59.5150   34.5940   44.1780 H   0  0  0  0  0  0  0  0  0  0  0  0
   60.1254   34.4057   49.3475 H   0  0  0  0  0  0  0  0  0  0  0  0
   62.1658   33.4409   50.4163 H   0  0  0  0  0  0  0  0  0  0  0  0
   64.0695   32.6611   48.9982 H   0  0  0  0  0  0  0  0  0  0  0  0
   61.8963   33.8127   45.4397 H   0  0  0  0  0  0  0  0  0  0  0  0
   58.1224   33.0844   42.7846 H   0  0  0  0  0  0  0  0  0  0  0  0
   57.2168   30.7951   42.4369 H   0  0  0  0  0  0  0  0  0  0  0  0
  1  2  2  0
  2  3  1  0
  3  4  2  3
  4  5  1  0
  5  6  1  0
  6  7  2  0
  7  8  1  0
  2  9  1  0
  9 10  2  0
 10 11  1  0
 11 12  2  0
 12 13  1  0
 13 14  1  0
 14 15  2  0
 14 16  2  0
 14 17  1  0
 17 18  2  0
 18 19  1  0
 19 20  2  0
 20 21  1  0
 21 22  1  0
 21 23  2  0
 12 24  1  0
 24 25  2  0
  8  4  1  0
 25  9  1  0
 23 17  1  0
  7 26  1  0
 10 27  1  0
 11 28  1  0
 13 29  1  0
 18 30  1  0
 19 31  1  0
 20 32  1  0
 23 33  1  0
 24 34  1  0
 25 35  1  0
M  CHG  1   5  -1
M  END
>  <UniqueID>  (89) 
75

>  <SMILES>  (89) 
O=C(N=c1[n-]ncs1)c1ccc(NS(=O)(=O)c2cccc(F)c2)cc1

>  <Energy>  (89) 
77.49804313979973

>  <Genealogy>  (89) 
O=C(N=c1[n-]ncs1)c1ccc(NS(=O)(=O)c2cccc(F)c2)cc1 (protonated)
O=C(N=c1[n-]ncs1)c1ccc(NS(=O)(=O)c2cccc(F)c2)cc1 (3D coordinates assigned)
O=C(N=c1[n-]ncs1)c1ccc(NS(=O)(=O)c2cccc(F)c2)cc1 (optimized conformer: 77.49804313979973 kcal/mol)

>  <smiles>  (89) 
O=C(N=c1[nH]ncs1)c1ccc(NS(=O)(=O)c2cccc(F)c2)cc1

>  <score_type>  (89) 
oracle

>  <origin>  (89) 
adg

>  <m_score__min__energy>  (89) 
-10.94

>  <m_primary>  (89) 
energy

$$$$
89:0
     RDKit          3D

 29 31  0  0  0  0  0  0  0  0999 V2000
   60.5943   29.2925   45.8366 H   0  0  0  0  0  0  0  0  0  0  0  0
   59.8090   28.5490   46.0380 C   0  0  0  0  0  0  0  0  0  0  0  0
   59.9220   27.5160   46.9100 N   0  0  0  0  0  0  0  0  0  0  0  0
   58.7330   26.8890   46.8090 C   0  0  0  0  0  0  0  0  0  0  0  0
   58.3530   25.7390   47.4860 C   0  0  0  0  0  0  0  0  0  0  0  0
   59.0212   25.2576   48.2152 H   0  0  0  0  0  0  0  0  0  0  0  0
   57.0840   25.2150   47.2040 C   0  0  0  0  0  0  0  0  0  0  0  0
   56.7346   24.3121   47.7262 H   0  0  0  0  0  0  0  0  0  0  0  0
   56.2540   25.8430   46.2520 C   0  0  0  0  0  0  0  0  0  0  0  0
   55.0870   25.3230   45.9960 N   0  0  0  0  0  0  0  0  0  0  0  0
   54.8460   24.0950   45.2480 C   0  0  0  0  0  0  0  0  0  0  0  0
   54.6829   23.2640   45.9501 H   0  0  0  0  0  0  0  0  0  0  0  0
   53.9553   24.2202   44.6148 H   0  0  0  0  0  0  0  0  0  0  0  0
   55.7180   23.8743   44.6148 H   0  0  0  0  0  0  0  0  0  0  0  0
   56.7000   26.9760   45.6170 N   0  0  0  0  0  0  0  0  0  0  0  0
   56.1300   27.4380   44.8770 H   0  0  0  0  0  0  0  0  0  0  0  0
   57.8990   27.4690   45.9350 N   0  0  0  0  0  0  0  0  0  0  0  0
   58.5580   28.5310   45.4370 C   0  0  0  0  0  0  0  0  0  0  0  0
   58.0450   29.5090   44.4560 C   0  0  0  0  0  0  0  0  0  0  0  0
   57.0480   29.1470   43.5340 C   0  0  0  0  0  0  0  0  0  0  0  0
   56.6540   28.1200   43.5286 H   0  0  0  0  0  0  0  0  0  0  0  0
   56.5550   30.0860   42.6240 C   0  0  0  0  0  0  0  0  0  0  0  0
   55.7821   29.7937   41.8979 H   0  0  0  0  0  0  0  0  0  0  0  0
   57.0420   31.3950   42.6350 C   0  0  0  0  0  0  0  0  0  0  0  0
   56.6567   32.1313   41.9143 H   0  0  0  0  0  0  0  0  0  0  0  0
   58.0180   31.7690   43.5610 C   0  0  0  0  0  0  0  0  0  0  0  0
   58.3965   32.8018   43.5730 H   0  0  0  0  0  0  0  0  0  0  0  0
   58.5150   30.8330   44.4730 C   0  0  0  0  0  0  0  0  0  0  0  0
   59.2771   31.1344   45.2068 H   0  0  0  0  0  0  0  0  0  0  0  0
  1  2  1  0
  2  3  1  0
  3  4  2  0
  4  5  1  0
  5  6  1  0
  5  7  2  0
  7  8  1  0
  7  9  1  0
  9 10  2  0
 10 11  1  0
 11 12  1  0
 11 13  1  0
 11 14  1  0
  9 15  1  0
 15 16  1  0
 15 17  1  0
 17 18  1  0
 18 19  1  0
 19 20  2  0
 20 21  1  0
 20 22  1  0
 22 23  1  0
 22 24  2  0
 24 25  1  0
 24 26  1  0
 26 27  1  0
 26 28  2  0
 28 29  1  0
 18  2  2  0
 28 19  1  0
 17  4  1  0
M  END
>  <UniqueID>  (90) 
76

>  <SMILES>  (90) 
C/N=c1/ccc2ncc(-c3ccccc3)n2[nH]1

>  <Energy>  (90) 
73.05157903507676

>  <Genealogy>  (90) 
C/N=c1/ccc2ncc(-c3ccccc3)n2[nH]1 (cis-trans isomerization)
C/N=c1/ccc2ncc(-c3ccccc3)n2[nH]1 (3D coordinates assigned)
C/N=c1/ccc2ncc(-c3ccccc3)n2[nH]1 (optimized conformer: 73.05157903507676 kcal/mol)

>  <smiles>  (90) 
CN=c1ccc2ncc(-c3ccccc3)n2[nH]1

>  <score_type>  (90) 
oracle

>  <origin>  (90) 
adg

>  <m_score__min__energy>  (90) 
-6.0999999999999996

>  <m_primary>  (90) 
energy

$$$$
90:0
     RDKit          3D

 44 46  0  0  0  0  0  0  0  0999 V2000
   55.6740   28.6630   44.8980 O   0  0  0  0  0  0  0  0  0  0  0  0
   56.6830   29.3970   44.7150 C   0  0  0  0  0  0  0  0  0  0  0  0
   56.4880   30.6950   43.9770 C   0  0  0  0  0  0  0  0  0  0  0  0
   56.5730   31.7880   44.8700 O   0  0  0  0  0  0  0  0  0  0  0  0
   57.4390   32.7910   44.3700 C   0  0  0  0  0  0  0  0  0  0  0  0
   58.2220   33.4030   45.4980 C   0  0  0  0  0  0  0  0  0  0  0  0
   58.9740   34.5690   45.2770 C   0  0  0  0  0  0  0  0  0  0  0  0
   59.6820   35.1600   46.3290 C   0  0  0  0  0  0  0  0  0  0  0  0
   59.6380   34.5940   47.6070 C   0  0  0  0  0  0  0  0  0  0  0  0
   58.8840   33.4400   47.8350 C   0  0  0  0  0  0  0  0  0  0  0  0
   58.1760   32.8460   46.7870 C   0  0  0  0  0  0  0  0  0  0  0  0
   57.9720   28.9950   45.2350 N   0  0  0  0  0  0  0  0  0  0  0  0
   59.1910   29.5380   44.6270 C   0  0  0  0  0  0  0  0  0  0  0  0
   60.3530   28.5630   44.8080 C   0  0  0  0  0  0  0  0  0  0  0  0
   60.5130   28.1830   46.1620 O   0  0  0  0  0  0  0  0  0  0  0  0
   59.3600   27.5280   46.6720 C   0  0  2  0  0  0  0  0  0  0  0  0
   59.1530   26.1290   46.0440 C   0  0  0  0  0  0  0  0  0  0  0  0
   57.7490   25.7240   46.1150 N   0  0  0  0  0  0  0  0  0  0  0  0
   57.1930   24.8630   46.9860 C   0  0  0  0  0  0  0  0  0  0  0  0
   55.8700   24.7200   46.7580 N   0  0  0  0  0  0  0  0  0  0  0  0
   55.6590   25.5420   45.7050 C   0  0  0  0  0  0  0  0  0  0  0  0
   56.7910   26.1520   45.3160 N   0  0  0  0  0  0  0  0  0  0  0  0
   58.1070   28.4210   46.5790 C   0  0  0  0  0  0  0  0  0  0  0  0
   57.2673   30.7947   43.2071 H   0  0  0  0  0  0  0  0  0  0  0  0
   55.4923   30.6932   43.5094 H   0  0  0  0  0  0  0  0  0  0  0  0
   58.1343   32.3435   43.6446 H   0  0  0  0  0  0  0  0  0  0  0  0
   56.8408   33.5731   43.8796 H   0  0  0  0  0  0  0  0  0  0  0  0
   59.0062   35.0187   44.2736 H   0  0  0  0  0  0  0  0  0  0  0  0
   60.2735   36.0702   46.1508 H   0  0  0  0  0  0  0  0  0  0  0  0
   60.1972   35.0575   48.4331 H   0  0  0  0  0  0  0  0  0  0  0  0
   58.8477   32.9981   48.8417 H   0  0  0  0  0  0  0  0  0  0  0  0
   57.5808   31.9396   46.9717 H   0  0  0  0  0  0  0  0  0  0  0  0
   59.0188   29.7021   43.5530 H   0  0  0  0  0  0  0  0  0  0  0  0
   59.4425   30.4897   45.1179 H   0  0  0  0  0  0  0  0  0  0  0  0
   60.1599   27.6629   44.2058 H   0  0  0  0  0  0  0  0  0  0  0  0
   61.2756   29.0656   44.4822 H   0  0  0  0  0  0  0  0  0  0  0  0
   59.5354   27.3511   47.7434 H   0  0  0  0  0  0  0  0  0  0  0  0
   59.4659   26.1582   44.9898 H   0  0  0  0  0  0  0  0  0  0  0  0
   59.7563   25.4005   46.6055 H   0  0  0  0  0  0  0  0  0  0  0  0
   57.7454   24.3422   47.7820 H   0  0  0  0  0  0  0  0  0  0  0  0
   54.6804   25.6927   45.2258 H   0  0  0  0  0  0  0  0  0  0  0  0
   56.9070   26.8380   44.5350 H   0  0  0  0  0  0  0  0  0  0  0  0
   57.2161   27.8161   46.8035 H   0  0  0  0  0  0  0  0  0  0  0  0
   58.2061   29.2425   47.3038 H   0  0  0  0  0  0  0  0  0  0  0  0
  1  2  2  0
  2  3  1  0
  3  4  1  0
  4  5  1  0
  5  6  1  0
  6  7  2  0
  7  8  1  0
  8  9  2  0
  9 10  1  0
 10 11  2  0
  2 12  1  0
 12 13  1  0
 13 14  1  0
 14 15  1  0
 15 16  1  0
 16 17  1  0
 17 18  1  0
 18 19  1  0
 19 20  2  0
 20 21  1  0
 21 22  2  0
 16 23  1  0
 11  6  1  0
 23 12  1  0
 22 18  1  0
  3 24  1  0
  3 25  1  0
  5 26  1  0
  5 27  1  0
  7 28  1  0
  8 29  1  0
  9 30  1  0
 10 31  1  0
 11 32  1  0
 13 33  1  0
 13 34  1  0
 14 35  1  0
 14 36  1  0
 16 37  1  1
 17 38  1  0
 17 39  1  0
 19 40  1  0
 21 41  1  0
 22 42  1  0
 23 43  1  0
 23 44  1  0
M  CHG  1  22   1
M  END
>  <UniqueID>  (91) 
77

>  <SMILES>  (91) 
O=C(COCc1ccccc1)N1CCO[C@H](Cn2cnc[nH+]2)C1

>  <Energy>  (91) 
83.47274921493202

>  <Genealogy>  (91) 
O=C(COCc1ccccc1)N1CCOC(Cn2cnc[nH+]2)C1 (protonated)
O=C(COCc1ccccc1)N1CCO[C@H](Cn2cnc[nH+]2)C1 (chirality)
O=C(COCc1ccccc1)N1CCO[C@H](Cn2cnc[nH+]2)C1 (3D coordinates assigned)
O=C(COCc1ccccc1)N1CCO[C@H](Cn2cnc[nH+]2)C1 (nonaromatic ring conformer: 83.47274921493202 kcal/mol)

>  <smiles>  (91) 
O=C(COCc1ccccc1)N1CCOC(Cn2cncn2)C1

>  <score_type>  (91) 
oracle

>  <origin>  (91) 
adg

>  <m_score__min__energy>  (91) 
-5.8200000000000003

>  <m_primary>  (91) 
energy

$$$$
91:0
     RDKit          3D

 43 45  0  0  0  0  0  0  0  0999 V2000
   60.0973   35.8940   46.6968 H   0  0  0  0  0  0  0  0  0  0  0  0
   59.5030   35.0120   46.4160 C   0  0  0  0  0  0  0  0  0  0  0  0
   59.2950   34.4210   44.8570 S   0  0  0  0  0  0  0  0  0  0  0  0
   58.3240   33.1130   45.2770 C   0  0  0  0  0  0  0  0  0  0  0  0
   57.7130   32.1680   44.3150 C   0  0  0  0  0  0  0  0  0  0  0  0
   57.1540   31.0470   44.6840 N   0  0  0  0  0  0  0  0  0  0  0  0
   57.8070   29.8080   45.0040 C   0  0  0  0  0  0  0  0  0  0  0  0
   59.1070   29.5330   44.5570 C   0  0  0  0  0  0  0  0  0  0  0  0
   59.6577   30.2875   43.9761 H   0  0  0  0  0  0  0  0  0  0  0  0
   59.7050   28.3060   44.8460 C   0  0  0  0  0  0  0  0  0  0  0  0
   60.7322   28.1086   44.5054 H   0  0  0  0  0  0  0  0  0  0  0  0
   59.0110   27.3190   45.5670 C   0  0  0  0  0  0  0  0  0  0  0  0
   57.6920   27.5880   45.9990 C   0  0  0  0  0  0  0  0  0  0  0  0
   57.0940   28.8220   45.6900 C   0  0  0  0  0  0  0  0  0  0  0  0
   56.0536   29.0132   45.9916 H   0  0  0  0  0  0  0  0  0  0  0  0
   56.9010   26.5430   46.7370 C   0  0  0  0  0  0  0  0  0  0  0  0
   57.4996   26.1551   47.5744 H   0  0  0  0  0  0  0  0  0  0  0  0
   55.9741   26.9927   47.1224 H   0  0  0  0  0  0  0  0  0  0  0  0
   56.5640   25.4390   45.8240 N   0  0  0  0  0  0  0  0  0  0  0  0
   55.1890   25.0840   45.5580 C   0  0  0  0  0  0  0  0  0  0  0  0
   54.2820   25.9500   45.6900 O   0  0  0  0  0  0  0  0  0  0  0  0
   54.7970   23.7010   45.1340 C   0  0  0  0  0  0  0  0  0  0  0  0
   54.6211   23.0804   46.0250 H   0  0  0  0  0  0  0  0  0  0  0  0
   53.8770   23.7487   44.5329 H   0  0  0  0  0  0  0  0  0  0  0  0
   55.6052   23.2589   44.5329 H   0  0  0  0  0  0  0  0  0  0  0  0
   57.6240   24.7980   45.0240 C   0  0  0  0  0  0  0  0  0  0  0  0
   57.3136   23.7696   44.7871 H   0  0  0  0  0  0  0  0  0  0  0  0
   57.7641   25.3991   44.1135 H   0  0  0  0  0  0  0  0  0  0  0  0
   58.9750   24.7480   45.7630 C   0  0  0  0  0  0  0  0  0  0  0  0
   58.7981   24.3743   46.7824 H   0  0  0  0  0  0  0  0  0  0  0  0
   59.6334   24.0885   45.1785 H   0  0  0  0  0  0  0  0  0  0  0  0
   59.6550   26.0540   45.8590 N   0  0  0  0  0  0  0  0  0  0  0  0
   61.0210   26.0690   46.3920 C   0  0  0  0  0  0  0  0  0  0  0  0
   60.9856   26.0686   47.4914 H   0  0  0  0  0  0  0  0  0  0  0  0
   61.5609   25.1767   46.0422 H   0  0  0  0  0  0  0  0  0  0  0  0
   61.5412   26.9729   46.0422 H   0  0  0  0  0  0  0  0  0  0  0  0
   57.6850   32.5170   42.9300 N   0  0  0  0  0  0  0  0  0  0  0  0
   57.2560   31.8720   42.2310 H   0  0  0  0  0  0  0  0  0  0  0  0
   58.0760   33.4270   42.5970 H   0  0  0  0  0  0  0  0  0  0  0  0
   58.1270   33.1420   46.6550 C   0  0  0  0  0  0  0  0  0  0  0  0
   57.5071   32.4093   47.1925 H   0  0  0  0  0  0  0  0  0  0  0  0
   58.7960   34.1960   47.2890 C   0  0  0  0  0  0  0  0  0  0  0  0
   58.7645   34.3619   48.3760 H   0  0  0  0  0  0  0  0  0  0  0  0
  1  2  1  0
  2  3  1  0
  3  4  1  0
  4  5  1  0
  5  6  2  0
  6  7  1  0
  7  8  2  0
  8  9  1  0
  8 10  1  0
 10 11  1  0
 10 12  2  0
 12 13  1  0
 13 14  2  0
 14 15  1  0
 13 16  1  0
 16 17  1  0
 16 18  1  0
 16 19  1  0
 19 20  1  0
 20 21  2  0
 20 22  1  0
 22 23  1  0
 22 24  1  0
 22 25  1  0
 19 26  1  0
 26 27  1  0
 26 28  1  0
 26 29  1  0
 29 30  1  0
 29 31  1  0
 29 32  1  0
 32 33  1  0
 33 34  1  0
 33 35  1  0
 33 36  1  0
  5 37  1  0
 37 38  1  0
 37 39  1  0
  4 40  2  0
 40 41  1  0
 40 42  1  0
 42 43  1  0
 42  2  2  0
 14  7  1  0
 32 12  1  0
M  END
>  <UniqueID>  (92) 
78

>  <SMILES>  (92) 
CC(=O)N1CCN(C)c2ccc(/N=C(/N)c3cccs3)cc2C1

>  <Energy>  (92) 
88.40310212390365

>  <Genealogy>  (92) 
CC(=O)N1CCN(C)c2ccc(/N=C(/N)c3cccs3)cc2C1 (cis-trans isomerization)
CC(=O)N1CCN(C)c2ccc(/N=C(/N)c3cccs3)cc2C1 (3D coordinates assigned)
CC(=O)N1CCN(C)c2ccc(/N=C(/N)c3cccs3)cc2C1 (nonaromatic ring conformer: 88.40310212390365 kcal/mol)

>  <smiles>  (92) 
CC(=O)N1CCN(C)c2ccc(N=C(N)c3cccs3)cc2C1

>  <score_type>  (92) 
oracle

>  <origin>  (92) 
adg

>  <m_score__min__energy>  (92) 
-6.2599999999999998

>  <m_primary>  (92) 
energy

$$$$
92:0
     RDKit          3D

 53 55  0  0  0  0  0  0  0  0999 V2000
   56.0030   31.0800   44.4920 O   0  0  0  0  0  0  0  0  0  0  0  0
   56.2420   29.8950   44.8490 C   0  0  0  0  0  0  0  0  0  0  0  0
   55.1930   28.9820   44.8720 O   0  0  0  0  0  0  0  0  0  0  0  0
   57.6280   29.4810   45.1870 C   0  0  0  0  0  0  0  0  0  0  0  0
   57.9760   28.1200   45.0750 C   0  0  0  0  0  0  0  0  0  0  0  0
   59.2460   27.6740   45.4390 C   0  0  0  0  0  0  0  0  0  0  0  0
   60.1970   28.5790   45.9030 C   0  0  0  0  0  0  0  0  0  0  0  0
   59.8830   29.9350   46.0010 C   0  0  0  0  0  0  0  0  0  0  0  0
   58.6030   30.4010   45.6530 C   0  0  0  0  0  0  0  0  0  0  0  0
   58.3380   31.8120   45.6820 N   0  0  0  0  0  0  0  0  0  0  0  0
   58.7640   32.8230   47.0260 S   0  0  0  0  0  0  0  0  0  0  0  0
   58.1590   32.2560   48.2780 O   0  0  0  0  0  0  0  0  0  0  0  0
   58.2440   34.2210   46.8340 O   0  0  0  0  0  0  0  0  0  0  0  0
   60.5270   32.8750   47.1530 C   0  0  0  0  0  0  0  0  0  0  0  0
   61.2350   33.7690   46.3320 C   0  0  0  0  0  0  0  0  0  0  0  0
   62.6270   33.8420   46.3960 C   0  0  0  0  0  0  0  0  0  0  0  0
   63.3280   33.0300   47.2850 C   0  0  0  0  0  0  0  0  0  0  0  0
   62.6410   32.1430   48.1150 C   0  0  0  0  0  0  0  0  0  0  0  0
   61.2360   32.0480   48.0610 C   0  0  0  0  0  0  0  0  0  0  0  0
   60.5330   31.1400   48.9350 N   0  0  0  0  0  0  0  0  0  0  0  0
   60.9720   29.7720   49.2180 C   0  0  0  0  0  0  0  0  0  0  0  0
   59.7750   28.8680   49.5480 C   0  0  0  0  0  0  0  0  0  0  0  0
   58.5190   29.6640   49.9270 C   0  0  0  0  0  0  0  0  0  0  0  0
   58.7790   30.5010   51.1220 N   0  0  0  0  0  0  0  0  0  0  0  0
   58.6850   29.7260   52.3750 C   0  0  0  0  0  0  0  0  0  0  0  0
   57.2220   29.3440   52.7030 C   0  0  0  0  0  0  0  0  0  0  0  0
   56.2710   30.1080   51.9820 O   0  0  0  0  0  0  0  0  0  0  0  0
   56.6320   31.4730   51.9990 C   0  0  0  0  0  0  0  0  0  0  0  0
   57.9120   31.7030   51.1710 C   0  0  0  0  0  0  0  0  0  0  0  0
   57.2360   27.4000   44.6954 H   0  0  0  0  0  0  0  0  0  0  0  0
   59.4969   26.6059   45.3595 H   0  0  0  0  0  0  0  0  0  0  0  0
   61.1972   28.2245   46.1927 H   0  0  0  0  0  0  0  0  0  0  0  0
   60.6443   30.6463   46.3539 H   0  0  0  0  0  0  0  0  0  0  0  0
   57.8150   32.2550   44.8940 H   0  0  0  0  0  0  0  0  0  0  0  0
   60.6869   34.4172   45.6325 H   0  0  0  0  0  0  0  0  0  0  0  0
   63.1713   34.5411   45.7441 H   0  0  0  0  0  0  0  0  0  0  0  0
   64.4254   33.0882   47.3328 H   0  0  0  0  0  0  0  0  0  0  0  0
   63.2023   31.5111   48.8190 H   0  0  0  0  0  0  0  0  0  0  0  0
   59.6660   31.4590   49.4200 H   0  0  0  0  0  0  0  0  0  0  0  0
   61.4931   29.3715   48.3359 H   0  0  0  0  0  0  0  0  0  0  0  0
   61.6462   29.7926   50.0869 H   0  0  0  0  0  0  0  0  0  0  0  0
   59.5474   28.2498   48.6671 H   0  0  0  0  0  0  0  0  0  0  0  0
   60.0528   28.2522   50.4161 H   0  0  0  0  0  0  0  0  0  0  0  0
   58.2331   30.3123   49.0856 H   0  0  0  0  0  0  0  0  0  0  0  0
   57.7054   28.9597   50.1548 H   0  0  0  0  0  0  0  0  0  0  0  0
   59.2788   28.8060   52.2706 H   0  0  0  0  0  0  0  0  0  0  0  0
   59.0682   30.3515   53.1947 H   0  0  0  0  0  0  0  0  0  0  0  0
   57.0748   28.2816   52.4587 H   0  0  0  0  0  0  0  0  0  0  0  0
   57.0626   29.5478   53.7721 H   0  0  0  0  0  0  0  0  0  0  0  0
   55.8124   32.0696   51.5719 H   0  0  0  0  0  0  0  0  0  0  0  0
   56.8211   31.7782   53.0388 H   0  0  0  0  0  0  0  0  0  0  0  0
   57.6244   31.9728   50.1441 H   0  0  0  0  0  0  0  0  0  0  0  0
   58.4836   32.5085   51.6552 H   0  0  0  0  0  0  0  0  0  0  0  0
  1  2  2  0
  2  3  1  0
  2  4  1  0
  4  5  2  0
  5  6  1  0
  6  7  2  0
  7  8  1  0
  8  9  2  0
  9 10  1  0
 10 11  1  0
 11 12  2  0
 11 13  2  0
 11 14  1  0
 14 15  2  0
 15 16  1  0
 16 17  2  0
 17 18  1  0
 18 19  2  0
 19 20  1  0
 20 21  1  0
 21 22  1  0
 22 23  1  0
 23 24  1  0
 24 25  1  0
 25 26  1  0
 26 27  1  0
 27 28  1  0
 28 29  1  0
  9  4  1  0
 19 14  1  0
 29 24  1  0
  5 30  1  0
  6 31  1  0
  7 32  1  0
  8 33  1  0
 10 34  1  0
 15 35  1  0
 16 36  1  0
 17 37  1  0
 18 38  1  0
 20 39  1  0
 21 40  1  0
 21 41  1  0
 22 42  1  0
 22 43  1  0
 23 44  1  0
 23 45  1  0
 25 46  1  0
 25 47  1  0
 26 48  1  0
 26 49  1  0
 28 50  1  0
 28 51  1  0
 29 52  1  0
 29 53  1  0
M  CHG  1   3  -1
M  END
>  <UniqueID>  (93) 
79

>  <SMILES>  (93) 
O=C([O-])c1ccccc1NS(=O)(=O)c1ccccc1NCCCN1CCOCC1

>  <Energy>  (93) 
71.86815965967652

>  <Genealogy>  (93) 
O=C([O-])c1ccccc1NS(=O)(=O)c1ccccc1NCCCN1CCOCC1 (protonated)
O=C([O-])c1ccccc1NS(=O)(=O)c1ccccc1NCCCN1CCOCC1 (3D coordinates assigned)
O=C([O-])c1ccccc1NS(=O)(=O)c1ccccc1NCCCN1CCOCC1 (nonaromatic ring conformer: 71.86815965967652 kcal/mol)

>  <smiles>  (93) 
O=C(O)c1ccccc1NS(=O)(=O)c1ccccc1NCCCN1CCOCC1

>  <score_type>  (93) 
oracle

>  <origin>  (93) 
adg

>  <m_score__min__energy>  (93) 
-10.720000000000001

>  <m_primary>  (93) 
energy

$$$$
93:0
     RDKit          3D

 50 52  0  0  0  0  0  0  0  0999 V2000
   55.2200   23.8420   44.8740 C   0  0  0  0  0  0  0  0  0  0  0  0
   54.3450   24.8740   45.5180 C   0  0  0  0  0  0  0  0  0  0  0  0
   53.1090   24.6530   45.6220 O   0  0  0  0  0  0  0  0  0  0  0  0
   54.8650   26.1270   45.9810 N   0  0  0  0  0  0  0  0  0  0  0  0
   56.2150   26.3450   46.4920 C   0  0  0  0  0  0  0  0  0  0  0  0
   57.0390   27.1660   45.4920 C   0  0  2  0  0  0  0  0  0  0  0  0
   58.3720   27.6730   46.1130 C   0  0  0  0  0  0  0  0  0  0  0  0
   58.2650   29.1290   46.1240 N   0  0  0  0  0  0  0  0  0  0  0  0
   59.2060   30.0350   46.7340 C   0  0  0  0  0  0  0  0  0  0  0  0
   59.5210   31.2650   46.1300 C   0  0  0  0  0  0  0  0  0  0  0  0
   60.4260   32.1430   46.7350 C   0  0  0  0  0  0  0  0  0  0  0  0
   60.6870   33.3360   46.1450 F   0  0  0  0  0  0  0  0  0  0  0  0
   61.0240   31.8090   47.9600 C   0  0  0  0  0  0  0  0  0  0  0  0
   61.9470   32.7110   48.5830 N   0  0  0  0  0  0  0  0  0  0  0  0
   61.5540   34.0070   49.1140 C   0  0  0  0  0  0  0  0  0  0  0  0
   62.7970   34.5860   49.7850 C   0  0  0  0  0  0  0  0  0  0  0  0
   63.9560   33.6390   49.4340 C   0  0  1  0  0  0  0  0  0  0  0  0
   64.8130   33.3130   50.5890 N   0  0  0  0  0  0  0  0  0  0  0  0
   65.4480   32.1910   50.8260 C   0  0  0  0  0  0  0  0  0  0  0  0
   64.9550   31.3100   51.8400 N   0  0  0  0  0  0  0  0  0  0  0  0
   66.6290   31.8060   50.1060 N   0  0  0  0  0  0  0  0  0  0  0  0
   63.3550   32.4040   48.7590 C   0  0  0  0  0  0  0  0  0  0  0  0
   60.7000   30.5900   48.5750 C   0  0  0  0  0  0  0  0  0  0  0  0
   61.2810   30.2380   49.7490 F   0  0  0  0  0  0  0  0  0  0  0  0
   59.7960   29.7140   47.9680 C   0  0  0  0  0  0  0  0  0  0  0  0
   57.0460   29.4560   45.4810 C   0  0  0  0  0  0  0  0  0  0  0  0
   56.6750   30.6290   45.2160 O   0  0  0  0  0  0  0  0  0  0  0  0
   56.3330   28.3410   45.1090 O   0  0  0  0  0  0  0  0  0  0  0  0
   55.7224   23.2495   45.6528 H   0  0  0  0  0  0  0  0  0  0  0  0
   54.6049   23.1786   44.2482 H   0  0  0  0  0  0  0  0  0  0  0  0
   55.9750   24.3403   44.2482 H   0  0  0  0  0  0  0  0  0  0  0  0
   56.1578   26.8881   47.4468 H   0  0  0  0  0  0  0  0  0  0  0  0
   56.7022   25.3700   46.6404 H   0  0  0  0  0  0  0  0  0  0  0  0
   57.2307   26.4956   44.6413 H   0  0  0  0  0  0  0  0  0  0  0  0
   58.4908   27.2880   47.1366 H   0  0  0  0  0  0  0  0  0  0  0  0
   59.2465   27.3312   45.5399 H   0  0  0  0  0  0  0  0  0  0  0  0
   59.0517   31.5390   45.1736 H   0  0  0  0  0  0  0  0  0  0  0  0
   61.2175   34.6665   48.3005 H   0  0  0  0  0  0  0  0  0  0  0  0
   60.7207   33.9130   49.8259 H   0  0  0  0  0  0  0  0  0  0  0  0
   63.0012   35.5966   49.4017 H   0  0  0  0  0  0  0  0  0  0  0  0
   62.6627   34.6680   50.8737 H   0  0  0  0  0  0  0  0  0  0  0  0
   64.6450   34.1411   48.7389 H   0  0  0  0  0  0  0  0  0  0  0  0
   64.9130   34.0820   51.2910 H   0  0  0  0  0  0  0  0  0  0  0  0
   65.4460   30.4130   52.0450 H   0  0  0  0  0  0  0  0  0  0  0  0
   64.1020   31.5480   52.3950 H   0  0  0  0  0  0  0  0  0  0  0  0
   67.0610   32.3810   49.3560 H   0  0  0  0  0  0  0  0  0  0  0  0
   67.0980   30.9020   50.3340 H   0  0  0  0  0  0  0  0  0  0  0  0
   63.8350   32.2250   47.7856 H   0  0  0  0  0  0  0  0  0  0  0  0
   63.5046   31.4946   49.3596 H   0  0  0  0  0  0  0  0  0  0  0  0
   59.5439   28.7637   48.4613 H   0  0  0  0  0  0  0  0  0  0  0  0
  1  2  1  0
  2  3  2  0
  2  4  1  0
  4  5  1  0
  5  6  1  0
  6  7  1  0
  7  8  1  0
  8  9  1  0
  9 10  2  0
 10 11  1  0
 11 12  1  0
 11 13  2  0
 13 14  1  0
 14 15  1  0
 15 16  1  0
 16 17  1  0
 17 18  1  0
 18 19  2  3
 19 20  1  0
 19 21  1  0
 17 22  1  0
 13 23  1  0
 23 24  1  0
 23 25  2  0
  8 26  1  0
 26 27  2  0
 26 28  1  0
 28  6  1  0
 25  9  1  0
 22 14  1  0
  1 29  1  0
  1 30  1  0
  1 31  1  0
  5 32  1  0
  5 33  1  0
  6 34  1  6
  7 35  1  0
  7 36  1  0
 10 37  1  0
 15 38  1  0
 15 39  1  0
 16 40  1  0
 16 41  1  0
 17 42  1  6
 18 43  1  0
 20 44  1  0
 20 45  1  0
 21 46  1  0
 21 47  1  0
 22 48  1  0
 22 49  1  0
 25 50  1  0
M  CHG  2   4  -1  18   1
M  END
>  <UniqueID>  (94) 
80

>  <SMILES>  (94) 
CC(=O)[N-]C[C@@H]1CN(c2cc(F)c(N3CC[C@@H]([NH+]=C(N)N)C3)c(F)c2)C(=O)O1

>  <Energy>  (94) 
74.3199293625422

>  <Genealogy>  (94) 
CC(=O)[N-]CC1CN(c2cc(F)c(N3CCC([NH+]=C(N)N)C3)c(F)c2)C(=O)O1 (protonated)
CC(=O)[N-]C[C@@H]1CN(c2cc(F)c(N3CC[C@@H]([NH+]=C(N)N)C3)c(F)c2)C(=O)O1 (chirality)
CC(=O)[N-]C[C@@H]1CN(c2cc(F)c(N3CC[C@@H]([NH+]=C(N)N)C3)c(F)c2)C(=O)O1 (3D coordinates assigned)
CC(=O)[N-]C[C@@H]1CN(c2cc(F)c(N3CC[C@@H]([NH+]=C(N)N)C3)c(F)c2)C(=O)O1 (nonaromatic ring conformer: 74.3199293625422 kcal/mol)

>  <smiles>  (94) 
CC(=O)NCC1CN(c2cc(F)c(N3CCC(N=C(N)N)C3)c(F)c2)C(=O)O1

>  <score_type>  (94) 
oracle

>  <origin>  (94) 
adg

>  <m_score__min__energy>  (94) 
-8

>  <m_primary>  (94) 
energy

$$$$
94:0
     RDKit          3D

 48 52  0  0  0  0  0  0  0  0999 V2000
   62.6596   28.5663   53.1280 H   0  0  0  0  0  0  0  0  0  0  0  0
   62.1310   28.1990   52.2360 C   0  0  0  0  0  0  0  0  0  0  0  0
   61.6780   29.1030   51.2700 C   0  0  0  0  0  0  0  0  0  0  0  0
   61.8515   30.1812   51.4015 H   0  0  0  0  0  0  0  0  0  0  0  0
   61.0040   28.6360   50.1360 C   0  0  0  0  0  0  0  0  0  0  0  0
   60.6482   29.3477   49.3765 H   0  0  0  0  0  0  0  0  0  0  0  0
   60.7820   27.2640   49.9670 C   0  0  0  0  0  0  0  0  0  0  0  0
   60.0780   26.7820   48.8080 C   0  0  0  0  0  0  0  0  0  0  0  0
   59.4920   26.3840   47.8320 C   0  0  0  0  0  0  0  0  0  0  0  0
   58.7930   25.9190   46.6660 C   0  0  0  0  0  0  0  0  0  0  0  0
   58.6000   26.7610   45.6090 N   0  0  0  0  0  0  0  0  0  0  0  0
   57.9250   26.3860   44.4840 C   0  0  0  0  0  0  0  0  0  0  0  0
   57.7460   27.2780   43.5490 N   0  0  0  0  0  0  0  0  0  0  0  0
   57.7020   28.7040   43.6760 C   0  0  0  0  0  0  0  0  0  0  0  0
   56.5400   29.4140   43.3420 C   0  0  0  0  0  0  0  0  0  0  0  0
   55.6707   28.8805   42.9302 H   0  0  0  0  0  0  0  0  0  0  0  0
   56.4830   30.7990   43.5310 C   0  0  0  0  0  0  0  0  0  0  0  0
   55.5774   31.3544   43.2458 H   0  0  0  0  0  0  0  0  0  0  0  0
   57.5790   31.4830   44.0840 C   0  0  0  0  0  0  0  0  0  0  0  0
   57.5520   32.8670   44.3120 O   0  0  0  0  0  0  0  0  0  0  0  0
   58.2120   33.5330   45.3560 C   0  0  0  0  0  0  0  0  0  0  0  0
   58.0620   33.1460   46.7020 C   0  0  0  0  0  0  0  0  0  0  0  0
   57.4283   32.2837   46.9567 H   0  0  0  0  0  0  0  0  0  0  0  0
   58.7150   33.8530   47.7150 C   0  0  0  0  0  0  0  0  0  0  0  0
   58.6030   33.5395   48.7634 H   0  0  0  0  0  0  0  0  0  0  0  0
   59.5110   34.9590   47.3980 C   0  0  0  0  0  0  0  0  0  0  0  0
   60.0268   35.5131   48.1961 H   0  0  0  0  0  0  0  0  0  0  0  0
   59.6500   35.3590   46.0660 C   0  0  0  0  0  0  0  0  0  0  0  0
   60.2722   36.2313   45.8172 H   0  0  0  0  0  0  0  0  0  0  0  0
   59.0000   34.6530   45.0490 C   0  0  0  0  0  0  0  0  0  0  0  0
   59.1068   34.9770   44.0033 H   0  0  0  0  0  0  0  0  0  0  0  0
   58.7160   30.7620   44.4670 C   0  0  0  0  0  0  0  0  0  0  0  0
   59.5667   31.2865   44.9265 H   0  0  0  0  0  0  0  0  0  0  0  0
   58.7770   29.3790   44.2690 C   0  0  0  0  0  0  0  0  0  0  0  0
   59.6716   28.8195   44.5798 H   0  0  0  0  0  0  0  0  0  0  0  0
   57.4680   25.0470   44.4210 C   0  0  0  0  0  0  0  0  0  0  0  0
   56.8900   24.3090   43.3970 C   0  0  0  0  0  0  0  0  0  0  0  0
   56.6164   24.6428   42.3852 H   0  0  0  0  0  0  0  0  0  0  0  0
   56.7410   23.0510   43.9570 C   0  0  0  0  0  0  0  0  0  0  0  0
   56.2510   22.0530   43.3660 O   0  0  0  0  0  0  0  0  0  0  0  0
   57.2110   23.0090   45.2180 N   0  0  0  0  0  0  0  0  0  0  0  0
   57.6570   24.2280   45.4760 N   0  0  0  0  0  0  0  0  0  0  0  0
   58.2950   24.6100   46.6080 C   0  0  0  0  0  0  0  0  0  0  0  0
   58.4182   23.9167   47.4531 H   0  0  0  0  0  0  0  0  0  0  0  0
   61.2380   26.3590   50.9360 C   0  0  0  0  0  0  0  0  0  0  0  0
   61.0656   25.2804   50.8058 H   0  0  0  0  0  0  0  0  0  0  0  0
   61.9120   26.8280   52.0680 C   0  0  0  0  0  0  0  0  0  0  0  0
   62.2704   26.1175   52.8274 H   0  0  0  0  0  0  0  0  0  0  0  0
  1  2  1  0
  2  3  2  0
  3  4  1  0
  3  5  1  0
  5  6  1  0
  5  7  2  0
  7  8  1  0
  8  9  3  0
  9 10  1  0
 10 11  1  0
 11 12  1  0
 12 13  2  0
 13 14  1  0
 14 15  2  0
 15 16  1  0
 15 17  1  0
 17 18  1  0
 17 19  2  0
 19 20  1  0
 20 21  1  0
 21 22  2  0
 22 23  1  0
 22 24  1  0
 24 25  1  0
 24 26  2  0
 26 27  1  0
 26 28  1  0
 28 29  1  0
 28 30  2  0
 30 31  1  0
 19 32  1  0
 32 33  1  0
 32 34  2  0
 34 35  1  0
 12 36  1  0
 36 37  2  0
 37 38  1  0
 37 39  1  0
 39 40  2  0
 39 41  1  0
 41 42  1  0
 42 43  1  0
 43 44  1  0
  7 45  1  0
 45 46  1  0
 45 47  2  0
 47 48  1  0
 47  2  1  0
 43 10  2  0
 34 14  1  0
 42 36  1  0
 30 21  1  0
M  CHG  2  11  -1  41  -1
M  END
>  <UniqueID>  (95) 
81

>  <SMILES>  (95) 
O=c1cc2/c(=N\c3ccc(Oc4ccccc4)cc3)[n-]c(C#Cc3ccccc3)cn2[n-]1

>  <Energy>  (95) 
108.89749186800313

>  <Genealogy>  (95) 
O=c1cc2c(=Nc3ccc(Oc4ccccc4)cc3)[n-]c(C#Cc3ccccc3)cn2[n-]1 (protonated)
O=c1cc2/c(=N\c3ccc(Oc4ccccc4)cc3)[n-]c(C#Cc3ccccc3)cn2[n-]1 (cis-trans isomerization)
O=c1cc2/c(=N\c3ccc(Oc4ccccc4)cc3)[n-]c(C#Cc3ccccc3)cn2[n-]1 (3D coordinates assigned)
O=c1cc2/c(=N\c3ccc(Oc4ccccc4)cc3)[n-]c(C#Cc3ccccc3)cn2[n-]1 (optimized conformer: 108.89749186800313 kcal/mol)

>  <smiles>  (95) 
O=c1cc2c(=Nc3ccc(Oc4ccccc4)cc3)[nH]c(C#Cc3ccccc3)cn2[nH]1

>  <score_type>  (95) 
oracle

>  <origin>  (95) 
adg

>  <m_score__min__energy>  (95) 
-10.06

>  <m_primary>  (95) 
energy

$$$$
95:0
     RDKit          3D

 31 33  0  0  0  0  0  0  0  0999 V2000
   58.3660   25.4360   45.6420 C   0  0  0  0  0  0  0  0  0  0  0  0
   58.1950   26.9180   45.5430 C   0  0  0  0  0  0  0  0  0  0  0  0
   57.1290   27.5100   44.9560 N   0  0  0  0  0  0  0  0  0  0  0  0
   57.2990   28.8550   45.0460 C   0  0  0  0  0  0  0  0  0  0  0  0
   56.5500   29.9240   44.6300 C   0  0  0  0  0  0  0  0  0  0  0  0
   55.4660   29.7600   44.0350 O   0  0  0  0  0  0  0  0  0  0  0  0
   57.0000   31.1800   44.8750 N   0  0  0  0  0  0  0  0  0  0  0  0
   58.1590   31.4250   45.5110 C   0  0  0  0  0  0  0  0  0  0  0  0
   58.6610   32.7640   45.7830 C   0  0  0  0  0  0  0  0  0  0  0  0
   59.0680   33.1510   47.0580 C   0  0  0  0  0  0  0  0  0  0  0  0
   59.5440   34.4080   47.3310 C   0  0  0  0  0  0  0  0  0  0  0  0
   59.6420   35.3590   46.3380 C   0  0  0  0  0  0  0  0  0  0  0  0
   59.2470   35.0080   45.0630 C   0  0  0  0  0  0  0  0  0  0  0  0
   58.7710   33.7410   44.8050 C   0  0  0  0  0  0  0  0  0  0  0  0
   58.9050   30.3860   45.9240 N   0  0  0  0  0  0  0  0  0  0  0  0
   58.4870   29.1330   45.6980 C   0  0  0  0  0  0  0  0  0  0  0  0
   59.0640   27.9040   46.0190 C   0  0  0  0  0  0  0  0  0  0  0  0
   60.3350   27.6320   46.7180 C   0  0  0  0  0  0  0  0  0  0  0  0
   58.4001   25.1408   46.7011 H   0  0  0  0  0  0  0  0  0  0  0  0
   57.5196   24.9355   45.1489 H   0  0  0  0  0  0  0  0  0  0  0  0
   59.3041   25.1414   45.1489 H   0  0  0  0  0  0  0  0  0  0  0  0
   56.2960   27.0730   44.4990 H   0  0  0  0  0  0  0  0  0  0  0  0
   56.4140   31.9510   44.5500 H   0  0  0  0  0  0  0  0  0  0  0  0
   59.0051   32.4200   47.8776 H   0  0  0  0  0  0  0  0  0  0  0  0
   59.8518   34.6607   48.3564 H   0  0  0  0  0  0  0  0  0  0  0  0
   60.0236   36.3675   46.5553 H   0  0  0  0  0  0  0  0  0  0  0  0
   59.3126   35.7440   44.2481 H   0  0  0  0  0  0  0  0  0  0  0  0
   58.4647   33.4935   43.7779 H   0  0  0  0  0  0  0  0  0  0  0  0
   60.1704   27.6672   47.8051 H   0  0  0  0  0  0  0  0  0  0  0  0
   60.7030   26.6348   46.4350 H   0  0  0  0  0  0  0  0  0  0  0  0
   61.0789   28.3913   46.4350 H   0  0  0  0  0  0  0  0  0  0  0  0
  1  2  1  0
  2  3  1  0
  3  4  1  0
  4  5  1  0
  5  6  2  0
  5  7  1  0
  7  8  1  0
  8  9  1  0
  9 10  2  0
 10 11  1  0
 11 12  2  0
 12 13  1  0
 13 14  2  0
  8 15  2  0
 15 16  1  0
 16 17  1  0
 17 18  1  0
 17  2  2  0
 16  4  2  0
 14  9  1  0
  1 19  1  0
  1 20  1  0
  1 21  1  0
  3 22  1  0
  7 23  1  0
 10 24  1  0
 11 25  1  0
 12 26  1  0
 13 27  1  0
 14 28  1  0
 18 29  1  0
 18 30  1  0
 18 31  1  0
M  END
>  <smiles>  (96) 
Cc1[nH]c2c(=O)[nH]c(-c3ccccc3)nc2c1C

>  <score_type>  (96) 
oracle

>  <origin>  (96) 
adg

>  <m_score__min__energy>  (96) 
-6.9699999999999998

>  <m_primary>  (96) 
energy

$$$$
96:0
     RDKit          3D

 51 53  0  0  0  0  0  0  0  0999 V2000
   60.6440   31.0110   49.9570 C   0  0  0  0  0  0  0  0  0  0  0  0
   60.8570   30.8190   48.5580 O   0  0  0  0  0  0  0  0  0  0  0  0
   60.5010   29.6590   47.8550 C   0  0  0  0  0  0  0  0  0  0  0  0
   60.7440   28.4200   48.4550 C   0  0  0  0  0  0  0  0  0  0  0  0
   60.4390   27.2330   47.7830 C   0  0  0  0  0  0  0  0  0  0  0  0
   59.8740   27.2770   46.5060 C   0  0  0  0  0  0  0  0  0  0  0  0
   59.5930   28.5100   45.8930 C   0  0  0  0  0  0  0  0  0  0  0  0
   59.0180   28.5680   44.4900 C   0  0  0  0  0  0  0  0  0  0  0  0
   57.5520   28.3750   44.4170 N   0  0  0  0  0  0  0  0  0  0  0  0
   56.9900   27.6270   45.5480 C   0  0  0  0  0  0  0  0  0  0  0  0
   56.6530   29.8410   44.0870 S   0  0  0  0  0  0  0  0  0  0  0  0
   55.3770   29.8160   44.8810 O   0  0  0  0  0  0  0  0  0  0  0  0
   56.2960   29.8870   42.6260 O   0  0  0  0  0  0  0  0  0  0  0  0
   57.5310   31.3080   44.5100 C   0  0  0  0  0  0  0  0  0  0  0  0
   57.9400   32.2940   43.6190 C   0  0  0  0  0  0  0  0  0  0  0  0
   58.5910   33.3640   44.2430 C   0  0  0  0  0  0  0  0  0  0  0  0
   58.6610   33.2290   45.6250 C   0  0  0  0  0  0  0  0  0  0  0  0
   59.5020   34.3160   46.7210 S   0  0  0  0  0  0  0  0  0  0  0  0
   58.5650   34.7330   47.8220 O   0  0  0  0  0  0  0  0  0  0  0  0
   59.9180   35.5480   45.9620 O   0  0  0  0  0  0  0  0  0  0  0  0
   60.9190   33.5430   47.4030 N   0  0  0  0  0  0  0  0  0  0  0  0
   61.3040   34.2240   48.6530 C   0  0  0  0  0  0  0  0  0  0  0  0
   62.6020   33.6070   49.2340 C   0  0  0  0  0  0  0  0  0  0  0  0
   63.5710   33.1980   48.2620 O   0  0  0  0  0  0  0  0  0  0  0  0
   63.3920   33.8690   47.0230 C   0  0  0  0  0  0  0  0  0  0  0  0
   62.0260   33.4930   46.4110 C   0  0  0  0  0  0  0  0  0  0  0  0
   57.9190   31.7870   46.0750 S   0  0  0  0  0  0  0  0  0  0  0  0
   59.9230   29.6980   46.5690 C   0  0  0  0  0  0  0  0  0  0  0  0
   61.3439   30.3801   50.5244 H   0  0  0  0  0  0  0  0  0  0  0  0
   60.8133   32.0675   50.2121 H   0  0  0  0  0  0  0  0  0  0  0  0
   59.6106   30.7333   50.2121 H   0  0  0  0  0  0  0  0  0  0  0  0
   61.1789   28.3789   49.4645 H   0  0  0  0  0  0  0  0  0  0  0  0
   60.6440   26.2633   48.2600 H   0  0  0  0  0  0  0  0  0  0  0  0
   59.6475   26.3398   45.9765 H   0  0  0  0  0  0  0  0  0  0  0  0
   59.2563   29.5528   44.0619 H   0  0  0  0  0  0  0  0  0  0  0  0
   59.4706   27.7347   43.9326 H   0  0  0  0  0  0  0  0  0  0  0  0
   57.3296   28.0790   46.4916 H   0  0  0  0  0  0  0  0  0  0  0  0
   55.8916   27.6602   45.5000 H   0  0  0  0  0  0  0  0  0  0  0  0
   57.3277   26.5812   45.5000 H   0  0  0  0  0  0  0  0  0  0  0  0
   57.7692   32.2385   42.5338 H   0  0  0  0  0  0  0  0  0  0  0  0
   59.0050   34.2239   43.6961 H   0  0  0  0  0  0  0  0  0  0  0  0
   60.6440   32.5620   47.6470 H   0  0  0  0  0  0  0  0  0  0  0  0
   61.4723   35.2912   48.4460 H   0  0  0  0  0  0  0  0  0  0  0  0
   60.4940   34.1015   49.3871 H   0  0  0  0  0  0  0  0  0  0  0  0
   63.0716   34.3562   49.8883 H   0  0  0  0  0  0  0  0  0  0  0  0
   62.2952   32.6924   49.7626 H   0  0  0  0  0  0  0  0  0  0  0  0
   63.4301   34.9558   47.1886 H   0  0  0  0  0  0  0  0  0  0  0  0
   64.1925   33.5685   46.3309 H   0  0  0  0  0  0  0  0  0  0  0  0
   61.8001   34.1963   45.5959 H   0  0  0  0  0  0  0  0  0  0  0  0
   62.0990   32.4577   46.0467 H   0  0  0  0  0  0  0  0  0  0  0  0
   59.7282   30.6686   46.0895 H   0  0  0  0  0  0  0  0  0  0  0  0
  1  2  1  0
  2  3  1  0
  3  4  2  0
  4  5  1  0
  5  6  2  0
  6  7  1  0
  7  8  1  0
  8  9  1  0
  9 10  1  0
  9 11  1  0
 11 12  2  0
 11 13  2  0
 11 14  1  0
 14 15  2  0
 15 16  1  0
 16 17  2  0
 17 18  1  0
 18 19  2  0
 18 20  2  0
 18 21  1  0
 21 22  1  0
 22 23  1  0
 23 24  1  0
 24 25  1  0
 25 26  1  0
 17 27  1  0
  7 28  2  0
 28  3  1  0
 27 14  1  0
 26 21  1  0
  1 29  1  0
  1 30  1  0
  1 31  1  0
  4 32  1  0
  5 33  1  0
  6 34  1  0
  8 35  1  0
  8 36  1  0
 10 37  1  0
 10 38  1  0
 10 39  1  0
 15 40  1  0
 16 41  1  0
 21 42  1  0
 22 43  1  0
 22 44  1  0
 23 45  1  0
 23 46  1  0
 25 47  1  0
 25 48  1  0
 26 49  1  0
 26 50  1  0
 28 51  1  0
M  CHG  1  21   1
M  END
>  <UniqueID>  (97) 
82

>  <SMILES>  (97) 
COc1cccc(CN(C)S(=O)(=O)c2ccc(S(=O)(=O)[NH+]3CCOCC3)s2)c1

>  <Energy>  (97) 
85.901204024468

>  <Genealogy>  (97) 
COc1cccc(CN(C)S(=O)(=O)c2ccc(S(=O)(=O)[NH+]3CCOCC3)s2)c1 (protonated)
COc1cccc(CN(C)S(=O)(=O)c2ccc(S(=O)(=O)[NH+]3CCOCC3)s2)c1 (3D coordinates assigned)
COc1cccc(CN(C)S(=O)(=O)c2ccc(S(=O)(=O)[NH+]3CCOCC3)s2)c1 (nonaromatic ring conformer: 85.901204024468 kcal/mol)

>  <smiles>  (97) 
COc1cccc(CN(C)S(=O)(=O)c2ccc(S(=O)(=O)N3CCOCC3)s2)c1

>  <score_type>  (97) 
oracle

>  <origin>  (97) 
adg

>  <m_score__min__energy>  (97) 
-8.4900000000000002

>  <m_primary>  (97) 
energy

$$$$
