0:0
     RDKit          3D

 49 53  0  0  1  0  0  0  0  0999 V2000
   60.0050   30.3910   46.6610 O   0  0  0  0  0  0  0  0  0  0  0  0
   60.2620   31.1070   47.8380 C   0  0  2  0  0  0  0  0  0  0  0  0
   61.5130   31.8730   47.8320 C   0  0  0  0  0  0  0  0  0  0  0  0
   61.8520   32.7810   46.8070 C   0  0  0  0  0  0  0  0  0  0  0  0
   63.0220   33.4820   46.7640 C   0  0  0  0  0  0  0  0  0  0  0  0
   63.9720   33.3390   47.7490 C   0  0  0  0  0  0  0  0  0  0  0  0
   63.6860   32.4660   48.7670 C   0  0  0  0  0  0  0  0  0  0  0  0
   64.6570   32.3360   49.7580 C   0  0  0  0  0  0  0  0  0  0  0  0
   64.4620   31.4850   50.8260 C   0  0  0  0  0  0  0  0  0  0  0  0
   63.2840   30.7720   50.8810 C   0  0  0  0  0  0  0  0  0  0  0  0
   62.3390   30.9180   49.8900 C   0  0  0  0  0  0  0  0  0  0  0  0
   62.5020   31.7590   48.8100 C   0  0  0  0  0  0  0  0  0  0  0  0
   59.4330   30.9240   48.9880 C   0  0  0  0  0  0  0  0  0  0  0  0
   58.8080   29.7690   49.3410 N   0  0  0  0  0  0  0  0  0  0  0  0
   58.1540   29.8640   50.4750 N   0  0  0  0  0  0  0  0  0  0  0  0
   58.3250   31.1090   50.9200 C   0  0  0  0  0  0  0  0  0  0  0  0
   57.8170   31.6470   52.1040 C   0  0  0  0  0  0  0  0  0  0  0  0
   58.1390   32.9550   52.3600 C   0  0  0  0  0  0  0  0  0  0  0  0
   58.9330   33.6730   51.4580 C   0  0  0  0  0  0  0  0  0  0  0  0
   59.4170   33.1080   50.2940 C   0  0  0  0  0  0  0  0  0  0  0  0
   60.2090   33.9300   49.3840 C   0  0  0  0  0  0  0  0  0  0  0  0
   59.6610   34.7750   48.5120 C   0  0  0  0  0  0  0  0  0  0  0  0
   59.0060   34.3450   47.2840 C   0  0  0  0  0  0  0  0  0  0  0  0
   57.9810   33.4530   47.2130 C   0  0  0  0  0  0  0  0  0  0  0  0
   57.4000   33.0870   45.9920 C   0  0  0  0  0  0  0  0  0  0  0  0
   57.8510   33.6260   44.7990 C   0  0  0  0  0  0  0  0  0  0  0  0
   58.8780   34.5210   44.8630 C   0  0  0  0  0  0  0  0  0  0  0  0
   59.4470   34.8780   46.0660 C   0  0  0  0  0  0  0  0  0  0  0  0
   59.0990   31.7910   50.0380 C   0  0  0  0  0  0  0  0  0  0  0  0
   59.4430   29.6110   46.8280 H   0  0  0  0  0  0  0  0  0  0  0  0
   59.6156   31.9503   48.1228 H   0  0  0  0  0  0  0  0  0  0  0  0
   61.1288   32.9333   45.9923 H   0  0  0  0  0  0  0  0  0  0  0  0
   63.2087   34.1726   45.9284 H   0  0  0  0  0  0  0  0  0  0  0  0
   64.9180   33.8996   47.7211 H   0  0  0  0  0  0  0  0  0  0  0  0
   65.5880   32.9176   49.6879 H   0  0  0  0  0  0  0  0  0  0  0  0
   65.2249   31.3786   51.6112 H   0  0  0  0  0  0  0  0  0  0  0  0
   63.0980   30.0842   51.7190 H   0  0  0  0  0  0  0  0  0  0  0  0
   61.4090   30.3353   49.9638 H   0  0  0  0  0  0  0  0  0  0  0  0
   57.6140   29.0590   50.8940 H   0  0  0  0  0  0  0  0  0  0  0  0
   57.1945   31.0557   52.7917 H   0  0  0  0  0  0  0  0  0  0  0  0
   57.7726   33.4412   53.2762 H   0  0  0  0  0  0  0  0  0  0  0  0
   59.1795   34.7211   51.6834 H   0  0  0  0  0  0  0  0  0  0  0  0
   61.3054   33.8482   49.4199 H   0  0  0  0  0  0  0  0  0  0  0  0
   59.7054   35.8522   48.7304 H   0  0  0  0  0  0  0  0  0  0  0  0
   57.5972   33.0060   48.1419 H   0  0  0  0  0  0  0  0  0  0  0  0
   56.5737   32.3610   45.9808 H   0  0  0  0  0  0  0  0  0  0  0  0
   57.3985   33.3433   43.8370 H   0  0  0  0  0  0  0  0  0  0  0  0
   59.2606   34.9678   43.9335 H   0  0  0  0  0  0  0  0  0  0  0  0
   60.2733   35.6041   46.0701 H   0  0  0  0  0  0  0  0  0  0  0  0
  1  2  1  0
  2  3  1  0
  3  4  2  0
  4  5  1  0
  5  6  2  0
  6  7  1  0
  7  8  2  0
  8  9  1  0
  9 10  2  0
 10 11  1  0
 11 12  2  0
  2 13  1  0
 13 14  2  0
 14 15  1  0
 15 16  1  0
 16 17  2  0
 17 18  1  0
 18 19  2  0
 19 20  1  0
 20 21  1  0
 21 22  2  0
 22 23  1  0
 23 24  2  0
 24 25  1  0
 25 26  2  0
 26 27  1  0
 27 28  2  0
 20 29  2  0
 12  3  1  0
 29 13  1  0
 12  7  1  0
 29 16  1  0
 28 23  1  0
  1 30  1  0
  2 31  1  6
  4 32  1  0
  5 33  1  0
  6 34  1  0
  8 35  1  0
  9 36  1  0
 10 37  1  0
 11 38  1  0
 15 39  1  0
 17 40  1  0
 18 41  1  0
 19 42  1  0
 21 43  1  0
 22 44  1  0
 24 45  1  0
 25 46  1  0
 26 47  1  0
 27 48  1  0
 28 49  1  0
M  END
>  <smiles>  (1) 
OC(c1cccc2ccccc12)c1n[nH]c2cccc(C=Cc3ccccc3)c12

>  <score_type>  (1) 
oracle

>  <origin>  (1) 
adg

>  <m_score__min__energy>  (1) 
-10.01

>  <m_primary>  (1) 
energy

$$$$
1:0
     RDKit          3D

 32 33  0  0  0  0  0  0  0  0999 V2000
   63.0440   30.6780   50.8690 C   0  0  0  0  0  0  0  0  0  0  0  0
   63.9010   31.2510   49.8890 O   0  0  0  0  0  0  0  0  0  0  0  0
   63.4200   31.9940   48.8070 C   0  0  0  0  0  0  0  0  0  0  0  0
   62.2180   31.7070   48.2420 N   0  0  0  0  0  0  0  0  0  0  0  0
   61.7410   32.4250   47.1910 C   0  0  0  0  0  0  0  0  0  0  0  0
   60.4240   32.0720   46.5990 C   0  0  0  0  0  0  0  0  0  0  0  0
   59.5330   33.0870   46.2310 C   0  0  0  0  0  0  0  0  0  0  0  0
   58.2930   32.7800   45.6700 C   0  0  0  0  0  0  0  0  0  0  0  0
   57.2090   34.0950   45.2380 Cl  0  0  0  0  0  0  0  0  0  0  0  0
   57.9120   31.4460   45.4540 C   0  0  0  0  0  0  0  0  0  0  0  0
   56.6410   31.2270   44.8890 O   0  0  0  0  0  0  0  0  0  0  0  0
   56.3500   30.4620   43.7240 C   0  0  0  0  0  0  0  0  0  0  0  0
   58.8080   30.4050   45.8080 C   0  0  0  0  0  0  0  0  0  0  0  0
   58.4470   29.0650   45.5900 O   0  0  0  0  0  0  0  0  0  0  0  0
   58.9470   28.2430   44.5400 C   0  0  0  0  0  0  0  0  0  0  0  0
   60.0570   30.7330   46.3740 C   0  0  0  0  0  0  0  0  0  0  0  0
   62.5290   33.4710   46.6880 C   0  0  0  0  0  0  0  0  0  0  0  0
   63.7250   33.7340   47.2730 N   0  0  0  0  0  0  0  0  0  0  0  0
   64.1610   33.0190   48.3100 N   0  0  0  0  0  0  0  0  0  0  0  0
   63.4171   30.9274   51.8733 H   0  0  0  0  0  0  0  0  0  0  0  0
   62.0269   31.0783   50.7458 H   0  0  0  0  0  0  0  0  0  0  0  0
   63.0253   29.5851   50.7458 H   0  0  0  0  0  0  0  0  0  0  0  0
   59.8138   34.1392   46.3860 H   0  0  0  0  0  0  0  0  0  0  0  0
   55.9733   29.4718   44.0202 H   0  0  0  0  0  0  0  0  0  0  0  0
   55.5864   30.9809   43.1259 H   0  0  0  0  0  0  0  0  0  0  0  0
   57.2654   30.3422   43.1259 H   0  0  0  0  0  0  0  0  0  0  0  0
   59.4731   27.3781   44.9703 H   0  0  0  0  0  0  0  0  0  0  0  0
   58.1097   27.8912   43.9193 H   0  0  0  0  0  0  0  0  0  0  0  0
   59.6444   28.8247   43.9193 H   0  0  0  0  0  0  0  0  0  0  0  0
   60.7563   29.9280   46.6442 H   0  0  0  0  0  0  0  0  0  0  0  0
   62.1826   34.0691   45.8322 H   0  0  0  0  0  0  0  0  0  0  0  0
   65.0860   33.2490   48.7370 H   0  0  0  0  0  0  0  0  0  0  0  0
  1  2  1  0
  2  3  1  0
  3  4  2  0
  4  5  1  0
  5  6  1  0
  6  7  2  0
  7  8  1  0
  8  9  1  0
  8 10  2  0
 10 11  1  0
 11 12  1  0
 10 13  1  0
 13 14  1  0
 14 15  1  0
 13 16  2  0
  5 17  2  0
 17 18  1  0
 18 19  2  0
 19  3  1  0
 16  6  1  0
  1 20  1  0
  1 21  1  0
  1 22  1  0
  7 23  1  0
 12 24  1  0
 12 25  1  0
 12 26  1  0
 15 27  1  0
 15 28  1  0
 15 29  1  0
 16 30  1  0
 17 31  1  0
 19 32  1  0
M  CHG  1  19   1
M  END
>  <UniqueID>  (2) 
1

>  <SMILES>  (2) 
COc1nc(-c2cc(Cl)c(OC)c(OC)c2)cn[nH+]1

>  <Energy>  (2) 
37.328510094422654

>  <Genealogy>  (2) 
COc1nc(-c2cc(Cl)c(OC)c(OC)c2)cn[nH+]1 (protonated)
COc1nc(-c2cc(Cl)c(OC)c(OC)c2)cn[nH+]1 (3D coordinates assigned)
COc1nc(-c2cc(Cl)c(OC)c(OC)c2)cn[nH+]1 (optimized conformer: 37.328510094422654 kcal/mol)

>  <smiles>  (2) 
COc1nncc(-c2cc(Cl)c(OC)c(OC)c2)n1

>  <score_type>  (2) 
oracle

>  <origin>  (2) 
adg

>  <m_score__min__energy>  (2) 
-4.54

>  <m_primary>  (2) 
energy

$$$$
2:0
     RDKit          3D

 38 40  0  0  0  0  0  0  0  0999 V2000
   57.2600   27.0230   45.6460 C   0  0  0  0  0  0  0  0  0  0  0  0
   58.1090   28.1370   46.2000 C   0  0  0  0  0  0  0  0  0  0  0  0
   59.2200   27.8220   46.9870 C   0  0  0  0  0  0  0  0  0  0  0  0
   60.0390   28.8380   47.4680 C   0  0  0  0  0  0  0  0  0  0  0  0
   61.0630   28.5420   48.1420 O   0  0  0  0  0  0  0  0  0  0  0  0
   59.7330   30.1430   47.1960 N   0  0  0  0  0  0  0  0  0  0  0  0
   60.5860   31.2060   47.6540 C   0  0  0  0  0  0  0  0  0  0  0  0
   61.8690   31.3420   47.1030 C   0  0  0  0  0  0  0  0  0  0  0  0
   62.7130   32.3740   47.5240 C   0  0  0  0  0  0  0  0  0  0  0  0
   62.2750   33.2830   48.4900 C   0  0  0  0  0  0  0  0  0  0  0  0
   60.9920   33.1670   49.0320 C   0  0  0  0  0  0  0  0  0  0  0  0
   60.1420   32.1350   48.6160 C   0  0  0  0  0  0  0  0  0  0  0  0
   58.5130   32.0570   49.2760 Cl  0  0  0  0  0  0  0  0  0  0  0  0
   58.6590   30.4510   46.4580 N   0  0  0  0  0  0  0  0  0  0  0  0
   57.8330   29.4970   45.9390 C   0  0  0  0  0  0  0  0  0  0  0  0
   56.6870   29.9200   45.0960 C   0  0  0  0  0  0  0  0  0  0  0  0
   55.6840   29.1670   44.9780 O   0  0  0  0  0  0  0  0  0  0  0  0
   56.6500   31.2130   44.4740 N   0  0  0  0  0  0  0  0  0  0  0  0
   57.4040   32.3660   44.8750 C   0  0  0  0  0  0  0  0  0  0  0  0
   57.0900   33.0860   46.0430 C   0  0  0  0  0  0  0  0  0  0  0  0
   57.8410   34.2120   46.3980 C   0  0  0  0  0  0  0  0  0  0  0  0
   58.9170   34.6160   45.6040 C   0  0  0  0  0  0  0  0  0  0  0  0
   59.2510   33.8870   44.4590 C   0  0  0  0  0  0  0  0  0  0  0  0
   58.5020   32.7620   44.1000 C   0  0  0  0  0  0  0  0  0  0  0  0
   56.8221   26.4484   46.4755 H   0  0  0  0  0  0  0  0  0  0  0  0
   56.4546   27.4479   45.0289 H   0  0  0  0  0  0  0  0  0  0  0  0
   57.8833   26.3591   45.0289 H   0  0  0  0  0  0  0  0  0  0  0  0
   59.4464   26.7723   47.2256 H   0  0  0  0  0  0  0  0  0  0  0  0
   62.2128   30.6328   46.3356 H   0  0  0  0  0  0  0  0  0  0  0  0
   63.7213   32.4701   47.0948 H   0  0  0  0  0  0  0  0  0  0  0  0
   62.9412   34.0917   48.8248 H   0  0  0  0  0  0  0  0  0  0  0  0
   60.6489   33.8888   49.7878 H   0  0  0  0  0  0  0  0  0  0  0  0
   58.4390   31.4600   46.2830 H   0  0  0  0  0  0  0  0  0  0  0  0
   56.2522   32.7627   46.6783 H   0  0  0  0  0  0  0  0  0  0  0  0
   57.5836   34.7802   47.3041 H   0  0  0  0  0  0  0  0  0  0  0  0
   59.5007   35.5067   45.8795 H   0  0  0  0  0  0  0  0  0  0  0  0
   60.1046   34.1989   43.8392 H   0  0  0  0  0  0  0  0  0  0  0  0
   58.7763   32.1850   43.2045 H   0  0  0  0  0  0  0  0  0  0  0  0
  1  2  1  0
  2  3  2  0
  3  4  1  0
  4  5  2  0
  4  6  1  0
  6  7  1  0
  7  8  2  0
  8  9  1  0
  9 10  2  0
 10 11  1  0
 11 12  2  0
 12 13  1  0
  6 14  1  0
 14 15  2  0
 15 16  1  0
 16 17  2  0
 16 18  1  0
 18 19  1  0
 19 20  2  0
 20 21  1  0
 21 22  2  0
 22 23  1  0
 23 24  2  0
 15  2  1  0
 24 19  1  0
 12  7  1  0
  1 25  1  0
  1 26  1  0
  1 27  1  0
  3 28  1  0
  8 29  1  0
  9 30  1  0
 10 31  1  0
 11 32  1  0
 14 33  1  0
 20 34  1  0
 21 35  1  0
 22 36  1  0
 23 37  1  0
 24 38  1  0
M  CHG  2  14   1  18  -1
M  END
>  <UniqueID>  (3) 
2

>  <SMILES>  (3) 
Cc1cc(=O)n(-c2ccccc2Cl)[nH+]c1C(=O)[N-]c1ccccc1

>  <Energy>  (3) 
57.45178427572994

>  <Genealogy>  (3) 
Cc1cc(=O)n(-c2ccccc2Cl)[nH+]c1C(=O)[N-]c1ccccc1 (protonated)
Cc1cc(=O)n(-c2ccccc2Cl)[nH+]c1C(=O)[N-]c1ccccc1 (3D coordinates assigned)
Cc1cc(=O)n(-c2ccccc2Cl)[nH+]c1C(=O)[N-]c1ccccc1 (optimized conformer: 57.45178427572994 kcal/mol)

>  <smiles>  (3) 
Cc1cc(=O)n(-c2ccccc2Cl)nc1C(=O)Nc1ccccc1

>  <score_type>  (3) 
oracle

>  <origin>  (3) 
adg

>  <m_score__min__energy>  (3) 
-7.46

>  <m_primary>  (3) 
energy

$$$$
3:0
     RDKit          3D

 48 51  0  0  0  0  0  0  0  0999 V2000
   62.8760   34.2510   49.2110 C   0  0  0  0  0  0  0  0  0  0  0  0
   61.9920   33.6770   48.0840 C   0  0  0  0  0  0  0  0  0  0  0  0
   62.7940   33.7010   46.7760 C   0  0  0  0  0  0  0  0  0  0  0  0
   60.8390   34.5140   47.8930 O   0  0  0  0  0  0  0  0  0  0  0  0
   59.7370   34.2980   47.0420 C   0  0  0  0  0  0  0  0  0  0  0  0
   58.6690   33.5430   47.5450 C   0  0  0  0  0  0  0  0  0  0  0  0
   57.5390   33.2920   46.7590 C   0  0  0  0  0  0  0  0  0  0  0  0
   57.4660   33.7980   45.4600 C   0  0  0  0  0  0  0  0  0  0  0  0
   58.5210   34.5560   44.9460 C   0  0  0  0  0  0  0  0  0  0  0  0
   59.6520   34.8100   45.7290 C   0  0  0  0  0  0  0  0  0  0  0  0
   61.5810   32.2440   48.3450 C   0  0  0  0  0  0  0  0  0  0  0  0
   61.3220   31.4870   47.3710 O   0  0  0  0  0  0  0  0  0  0  0  0
   61.4960   31.7510   49.6900 N   0  0  0  0  0  0  0  0  0  0  0  0
   60.3710   31.0900   50.2870 C   0  0  0  0  0  0  0  0  0  0  0  0
   60.4660   29.7690   50.8090 C   0  0  0  0  0  0  0  0  0  0  0  0
   59.3510   29.1550   51.4120 C   0  0  0  0  0  0  0  0  0  0  0  0
   58.1740   29.8910   51.4890 C   0  0  0  0  0  0  0  0  0  0  0  0
   57.0200   29.5450   52.0010 O   0  0  0  0  0  0  0  0  0  0  0  0
   56.2170   30.5880   51.8390 C   0  0  0  0  0  0  0  0  0  0  0  0
   54.8050   30.5980   52.2910 C   0  0  0  0  0  0  0  0  0  0  0  0
   54.4580   30.3640   53.6370 C   0  0  0  0  0  0  0  0  0  0  0  0
   53.1180   30.3790   54.0360 C   0  0  0  0  0  0  0  0  0  0  0  0
   52.1100   30.6270   53.1010 C   0  0  0  0  0  0  0  0  0  0  0  0
   50.4300   30.6460   53.6050 Cl  0  0  0  0  0  0  0  0  0  0  0  0
   52.4420   30.8620   51.7640 C   0  0  0  0  0  0  0  0  0  0  0  0
   53.7810   30.8470   51.3610 C   0  0  0  0  0  0  0  0  0  0  0  0
   56.8430   31.6250   51.2210 N   0  0  0  0  0  0  0  0  0  0  0  0
   58.0820   31.1600   51.0070 C   0  0  0  0  0  0  0  0  0  0  0  0
   59.1600   31.8040   50.4060 C   0  0  0  0  0  0  0  0  0  0  0  0
   62.4508   33.9749   50.1872 H   0  0  0  0  0  0  0  0  0  0  0  0
   63.8928   33.8404   49.1246 H   0  0  0  0  0  0  0  0  0  0  0  0
   62.9146   35.3469   49.1246 H   0  0  0  0  0  0  0  0  0  0  0  0
   63.8693   33.7332   47.0057 H   0  0  0  0  0  0  0  0  0  0  0  0
   62.5707   32.7958   46.1923 H   0  0  0  0  0  0  0  0  0  0  0  0
   62.5170   34.5913   46.1923 H   0  0  0  0  0  0  0  0  0  0  0  0
   58.7196   33.1434   48.5686 H   0  0  0  0  0  0  0  0  0  0  0  0
   56.7082   32.6960   47.1646 H   0  0  0  0  0  0  0  0  0  0  0  0
   56.5782   33.6000   44.8414 H   0  0  0  0  0  0  0  0  0  0  0  0
   58.4621   34.9543   43.9223 H   0  0  0  0  0  0  0  0  0  0  0  0
   60.4780   35.4107   45.3204 H   0  0  0  0  0  0  0  0  0  0  0  0
   61.4185   29.2230   50.7408 H   0  0  0  0  0  0  0  0  0  0  0  0
   59.4093   28.1303   51.8077 H   0  0  0  0  0  0  0  0  0  0  0  0
   55.2467   30.1683   54.3784 H   0  0  0  0  0  0  0  0  0  0  0  0
   52.8568   30.1951   55.0886 H   0  0  0  0  0  0  0  0  0  0  0  0
   51.6490   31.0590   51.0276 H   0  0  0  0  0  0  0  0  0  0  0  0
   54.0351   31.0317   50.3068 H   0  0  0  0  0  0  0  0  0  0  0  0
   56.4720   32.5670   50.9660 H   0  0  0  0  0  0  0  0  0  0  0  0
   59.0705   32.8360   50.0359 H   0  0  0  0  0  0  0  0  0  0  0  0
  1  2  1  0
  2  3  1  0
  2  4  1  0
  4  5  1  0
  5  6  2  0
  6  7  1  0
  7  8  2  0
  8  9  1  0
  9 10  2  0
  2 11  1  0
 11 12  2  0
 11 13  1  0
 13 14  1  0
 14 15  2  0
 15 16  1  0
 16 17  2  0
 17 18  1  0
 18 19  1  0
 19 20  1  0
 20 21  2  0
 21 22  1  0
 22 23  2  0
 23 24  1  0
 23 25  1  0
 25 26  2  0
 19 27  2  0
 27 28  1  0
 28 29  2  0
 10  5  1  0
 29 14  1  0
 28 17  1  0
 26 20  1  0
  1 30  1  0
  1 31  1  0
  1 32  1  0
  3 33  1  0
  3 34  1  0
  3 35  1  0
  6 36  1  0
  7 37  1  0
  8 38  1  0
  9 39  1  0
 10 40  1  0
 15 41  1  0
 16 42  1  0
 21 43  1  0
 22 44  1  0
 25 45  1  0
 26 46  1  0
 27 47  1  0
 29 48  1  0
M  CHG  2  13  -1  27   1
M  END
>  <UniqueID>  (4) 
3

>  <SMILES>  (4) 
CC(C)(Oc1ccccc1)C(=O)[N-]c1ccc2oc(-c3ccc(Cl)cc3)[nH+]c2c1

>  <Energy>  (4) 
96.39548778658907

>  <Genealogy>  (4) 
CC(C)(Oc1ccccc1)C(=O)[N-]c1ccc2oc(-c3ccc(Cl)cc3)[nH+]c2c1 (protonated)
CC(C)(Oc1ccccc1)C(=O)[N-]c1ccc2oc(-c3ccc(Cl)cc3)[nH+]c2c1 (3D coordinates assigned)
CC(C)(Oc1ccccc1)C(=O)[N-]c1ccc2oc(-c3ccc(Cl)cc3)[nH+]c2c1 (optimized conformer: 96.39548778658907 kcal/mol)

>  <smiles>  (4) 
CC(C)(Oc1ccccc1)C(=O)Nc1ccc2oc(-c3ccc(Cl)cc3)nc2c1

>  <score_type>  (4) 
oracle

>  <origin>  (4) 
adg

>  <m_score__min__energy>  (4) 
-8.7100000000000009

>  <m_primary>  (4) 
energy

$$$$
4:0
     RDKit          3D

 45 49  0  0  0  0  0  0  0  0999 V2000
   63.8000   33.1020   47.1140 C   0  0  0  0  0  0  0  0  0  0  0  0
   62.8870   33.8560   46.3770 C   0  0  0  0  0  0  0  0  0  0  0  0
   61.5240   33.5500   46.4250 C   0  0  0  0  0  0  0  0  0  0  0  0
   61.0530   32.4540   47.1800 C   0  0  0  0  0  0  0  0  0  0  0  0
   59.5430   32.1840   47.2990 C   0  0  0  0  0  0  0  0  0  0  0  0
   59.1960   32.4670   48.7720 C   0  0  0  0  0  0  0  0  0  0  0  0
   59.6970   33.6180   49.4220 C   0  0  0  0  0  0  0  0  0  0  0  0
   59.4560   33.8360   50.7810 C   0  0  0  0  0  0  0  0  0  0  0  0
   58.7520   32.8920   51.5280 C   0  0  0  0  0  0  0  0  0  0  0  0
   58.3070   31.7170   50.9220 C   0  0  0  0  0  0  0  0  0  0  0  0
   58.5440   31.4940   49.5630 C   0  0  0  0  0  0  0  0  0  0  0  0
   59.1770   30.7600   46.8970 C   0  0  0  0  0  0  0  0  0  0  0  0
   60.0380   29.6600   46.9280 C   0  0  0  0  0  0  0  0  0  0  0  0
   59.3020   28.6320   46.3900 C   0  0  0  0  0  0  0  0  0  0  0  0
   59.6290   27.2960   46.1640 C   0  0  0  0  0  0  0  0  0  0  0  0
   58.6490   26.4740   45.5770 C   0  0  0  0  0  0  0  0  0  0  0  0
   57.3840   27.0030   45.2320 C   0  0  0  0  0  0  0  0  0  0  0  0
   57.0890   28.3580   45.4700 C   0  0  0  0  0  0  0  0  0  0  0  0
   58.0800   29.1450   46.0540 C   0  0  0  0  0  0  0  0  0  0  0  0
   58.0200   30.4190   46.3510 O   0  0  0  0  0  0  0  0  0  0  0  0
   58.7600   33.0490   46.3820 N   0  0  0  0  0  0  0  0  0  0  0  0
   58.7790   33.0260   45.0320 C   0  0  0  0  0  0  0  0  0  0  0  0
   57.7230   33.7720   44.5660 C   0  0  0  0  0  0  0  0  0  0  0  0
   57.0000   34.2250   45.6060 N   0  0  0  0  0  0  0  0  0  0  0  0
   57.6440   33.7500   46.6910 C   0  0  0  0  0  0  0  0  0  0  0  0
   61.9880   31.7450   47.9690 C   0  0  0  0  0  0  0  0  0  0  0  0
   63.3500   32.0550   47.9180 C   0  0  0  0  0  0  0  0  0  0  0  0
   64.8742   33.3329   47.0612 H   0  0  0  0  0  0  0  0  0  0  0  0
   63.2402   34.6930   45.7568 H   0  0  0  0  0  0  0  0  0  0  0  0
   60.8085   34.1717   45.8668 H   0  0  0  0  0  0  0  0  0  0  0  0
   60.2843   34.3517   48.8504 H   0  0  0  0  0  0  0  0  0  0  0  0
   59.8225   34.7545   51.2628 H   0  0  0  0  0  0  0  0  0  0  0  0
   58.5479   33.0737   52.5935 H   0  0  0  0  0  0  0  0  0  0  0  0
   57.7680   30.9639   51.5156 H   0  0  0  0  0  0  0  0  0  0  0  0
   58.2190   30.5491   49.1030 H   0  0  0  0  0  0  0  0  0  0  0  0
   61.0727   29.6249   47.2997 H   0  0  0  0  0  0  0  0  0  0  0  0
   60.6181   26.8982   46.4349 H   0  0  0  0  0  0  0  0  0  0  0  0
   58.8686   25.4133   45.3854 H   0  0  0  0  0  0  0  0  0  0  0  0
   56.6254   26.3509   44.7745 H   0  0  0  0  0  0  0  0  0  0  0  0
   56.1094   28.7819   45.2041 H   0  0  0  0  0  0  0  0  0  0  0  0
   59.5165   32.4984   44.4093 H   0  0  0  0  0  0  0  0  0  0  0  0
   57.5030   33.9683   43.5063 H   0  0  0  0  0  0  0  0  0  0  0  0
   57.2979   33.9152   47.7220 H   0  0  0  0  0  0  0  0  0  0  0  0
   61.6390   30.9391   48.6314 H   0  0  0  0  0  0  0  0  0  0  0  0
   64.0683   31.4721   48.5131 H   0  0  0  0  0  0  0  0  0  0  0  0
  1  2  2  0
  2  3  1  0
  3  4  2  0
  4  5  1  0
  5  6  1  0
  6  7  2  0
  7  8  1  0
  8  9  2  0
  9 10  1  0
 10 11  2  0
  5 12  1  0
 12 13  2  0
 13 14  1  0
 14 15  2  0
 15 16  1  0
 16 17  2  0
 17 18  1  0
 18 19  2  0
 19 20  1  0
  5 21  1  0
 21 22  1  0
 22 23  2  0
 23 24  1  0
 24 25  2  0
  4 26  1  0
 26 27  2  0
 27  1  1  0
 11  6  1  0
 20 12  1  0
 25 21  1  0
 19 14  1  0
  1 28  1  0
  2 29  1  0
  3 30  1  0
  7 31  1  0
  8 32  1  0
  9 33  1  0
 10 34  1  0
 11 35  1  0
 13 36  1  0
 15 37  1  0
 16 38  1  0
 17 39  1  0
 18 40  1  0
 22 41  1  0
 23 42  1  0
 25 43  1  0
 26 44  1  0
 27 45  1  0
M  END
>  <UniqueID>  (5) 
4

>  <SMILES>  (5) 
c1ccc(C(c2ccccc2)(c2cc3ccccc3o2)n2ccnc2)cc1

>  <Energy>  (5) 
126.25921010272313

>  <Genealogy>  (5) 
c1ccc(C(c2ccccc2)(c2cc3ccccc3o2)n2ccnc2)cc1 (3D coordinates assigned)
c1ccc(C(c2ccccc2)(c2cc3ccccc3o2)n2ccnc2)cc1 (optimized conformer: 126.25921010272313 kcal/mol)

>  <smiles>  (5) 
c1ccc(C(c2ccccc2)(c2cc3ccccc3o2)n2ccnc2)cc1

>  <score_type>  (5) 
oracle

>  <origin>  (5) 
adg

>  <m_score__min__energy>  (5) 
-7.9900000000000002

>  <m_primary>  (5) 
energy

$$$$
5:0
     RDKit          3D

 46 47  0  0  0  0  0  0  0  0999 V2000
   60.7950   30.2740   48.0070 C   0  0  0  0  0  0  0  0  0  0  0  0
   61.7190   31.4510   47.6760 C   0  0  0  0  0  0  0  0  0  0  0  0
   61.4720   32.6610   48.4890 N   0  0  0  0  0  0  0  0  0  0  0  0
   62.4720   33.7240   48.2780 C   0  0  0  0  0  0  0  0  0  0  0  0
   63.2430   33.4840   46.9840 C   0  0  0  0  0  0  0  0  0  0  0  0
   59.8110   33.2300   48.4090 S   0  0  0  0  0  0  0  0  0  0  0  0
   59.7650   34.6430   48.9210 O   0  0  0  0  0  0  0  0  0  0  0  0
   58.9440   32.3970   49.3120 O   0  0  0  0  0  0  0  0  0  0  0  0
   59.1210   33.2100   46.7780 C   0  0  0  0  0  0  0  0  0  0  0  0
   59.6450   34.0430   45.7780 C   0  0  0  0  0  0  0  0  0  0  0  0
   59.0830   34.0510   44.5000 C   0  0  0  0  0  0  0  0  0  0  0  0
   57.9850   33.2370   44.2130 C   0  0  0  0  0  0  0  0  0  0  0  0
   57.4330   32.4170   45.2040 C   0  0  0  0  0  0  0  0  0  0  0  0
   56.3010   31.6020   44.8690 N   0  0  0  0  0  0  0  0  0  0  0  0
   56.3820   30.0580   44.0820 S   0  0  0  0  0  0  0  0  0  0  0  0
   55.0680   29.3500   44.2470 O   0  0  0  0  0  0  0  0  0  0  0  0
   56.6380   30.2670   42.6150 O   0  0  0  0  0  0  0  0  0  0  0  0
   57.6530   29.0810   44.8100 C   0  0  0  0  0  0  0  0  0  0  0  0
   57.3110   28.0280   45.6670 C   0  0  0  0  0  0  0  0  0  0  0  0
   58.3100   27.2660   46.2800 C   0  0  0  0  0  0  0  0  0  0  0  0
   59.6640   27.5590   46.0500 C   0  0  0  0  0  0  0  0  0  0  0  0
   60.7420   26.7300   46.6810 C   0  0  0  0  0  0  0  0  0  0  0  0
   60.0040   28.6020   45.1760 C   0  0  0  0  0  0  0  0  0  0  0  0
   59.0030   29.3610   44.5620 C   0  0  0  0  0  0  0  0  0  0  0  0
   58.0040   32.4130   46.4900 C   0  0  0  0  0  0  0  0  0  0  0  0
   60.7122   30.1686   49.0988 H   0  0  0  0  0  0  0  0  0  0  0  0
   59.7983   30.4589   47.5799 H   0  0  0  0  0  0  0  0  0  0  0  0
   61.2112   29.3497   47.5799 H   0  0  0  0  0  0  0  0  0  0  0  0
   62.7584   31.1308   47.8405 H   0  0  0  0  0  0  0  0  0  0  0  0
   61.5191   31.7261   46.6299 H   0  0  0  0  0  0  0  0  0  0  0  0
   61.9601   34.6959   48.2193 H   0  0  0  0  0  0  0  0  0  0  0  0
   63.1800   33.7181   49.1199 H   0  0  0  0  0  0  0  0  0  0  0  0
   64.2684   33.1648   47.2220 H   0  0  0  0  0  0  0  0  0  0  0  0
   62.7414   32.6995   46.3984 H   0  0  0  0  0  0  0  0  0  0  0  0
   63.2752   34.4146   46.3984 H   0  0  0  0  0  0  0  0  0  0  0  0
   60.5034   34.6934   46.0021 H   0  0  0  0  0  0  0  0  0  0  0  0
   59.5055   34.6992   43.7182 H   0  0  0  0  0  0  0  0  0  0  0  0
   57.5514   33.2403   43.2021 H   0  0  0  0  0  0  0  0  0  0  0  0
   56.2522   27.7994   45.8587 H   0  0  0  0  0  0  0  0  0  0  0  0
   58.0345   26.4340   46.9448 H   0  0  0  0  0  0  0  0  0  0  0  0
   60.6596   26.7933   47.7761 H   0  0  0  0  0  0  0  0  0  0  0  0
   60.6312   25.6822   46.3650 H   0  0  0  0  0  0  0  0  0  0  0  0
   61.7262   27.1062   46.3650 H   0  0  0  0  0  0  0  0  0  0  0  0
   61.0621   28.8237   44.9728 H   0  0  0  0  0  0  0  0  0  0  0  0
   59.2766   30.1810   43.8817 H   0  0  0  0  0  0  0  0  0  0  0  0
   57.5699   31.7786   47.2768 H   0  0  0  0  0  0  0  0  0  0  0  0
  1  2  1  0
  2  3  1  0
  3  4  1  0
  4  5  1  0
  3  6  1  0
  6  7  2  0
  6  8  2  0
  6  9  1  0
  9 10  2  0
 10 11  1  0
 11 12  2  0
 12 13  1  0
 13 14  1  0
 14 15  1  0
 15 16  2  0
 15 17  2  0
 15 18  1  0
 18 19  2  0
 19 20  1  0
 20 21  2  0
 21 22  1  0
 21 23  1  0
 23 24  2  0
 13 25  2  0
 25  9  1  0
 24 18  1  0
  1 26  1  0
  1 27  1  0
  1 28  1  0
  2 29  1  0
  2 30  1  0
  4 31  1  0
  4 32  1  0
  5 33  1  0
  5 34  1  0
  5 35  1  0
 10 36  1  0
 11 37  1  0
 12 38  1  0
 19 39  1  0
 20 40  1  0
 22 41  1  0
 22 42  1  0
 22 43  1  0
 23 44  1  0
 24 45  1  0
 25 46  1  0
M  CHG  1  14  -1
M  END
>  <UniqueID>  (6) 
5

>  <SMILES>  (6) 
CCN(CC)S(=O)(=O)c1cccc([N-]S(=O)(=O)c2ccc(C)cc2)c1

>  <Energy>  (6) 
48.037549365351815

>  <Genealogy>  (6) 
CCN(CC)S(=O)(=O)c1cccc([N-]S(=O)(=O)c2ccc(C)cc2)c1 (protonated)
CCN(CC)S(=O)(=O)c1cccc([N-]S(=O)(=O)c2ccc(C)cc2)c1 (3D coordinates assigned)
CCN(CC)S(=O)(=O)c1cccc([N-]S(=O)(=O)c2ccc(C)cc2)c1 (optimized conformer: 48.037549365351815 kcal/mol)

>  <smiles>  (6) 
CCN(CC)S(=O)(=O)c1cccc(NS(=O)(=O)c2ccc(C)cc2)c1

>  <score_type>  (6) 
oracle

>  <origin>  (6) 
adg

>  <m_score__min__energy>  (6) 
-10.039999999999999

>  <m_primary>  (6) 
energy

$$$$
6:0
     RDKit          3D

 15 15  0  0  0  0  0  0  0  0999 V2000
   50.6410   31.5780   48.4530 C   0  0  0  0  0  0  0  0  0  0  0  0
   50.8580   32.3360   49.6760 N   0  0  0  0  0  0  0  0  0  0  0  0
   51.4380   31.8470   50.8930 C   0  0  0  0  0  0  0  0  0  0  0  0
   52.4030   31.0420   50.8110 O   0  0  0  0  0  0  0  0  0  0  0  0
   51.0010   32.2700   52.2390 C   0  0  0  0  0  0  0  0  0  0  0  0
   51.2890   31.6740   53.4560 C   0  0  0  0  0  0  0  0  0  0  0  0
   50.6790   32.4580   54.4120 C   0  0  0  0  0  0  0  0  0  0  0  0
   50.0630   33.4840   53.7280 C   0  0  0  0  0  0  0  0  0  0  0  0
   50.2760   33.3470   52.4410 O   0  0  0  0  0  0  0  0  0  0  0  0
   50.3464   30.5490   48.7068 H   0  0  0  0  0  0  0  0  0  0  0  0
   49.8428   32.0532   47.8639 H   0  0  0  0  0  0  0  0  0  0  0  0
   51.5697   31.5588   47.8639 H   0  0  0  0  0  0  0  0  0  0  0  0
   51.8821   30.7631   53.6247 H   0  0  0  0  0  0  0  0  0  0  0  0
   50.6831   32.2973   55.5002 H   0  0  0  0  0  0  0  0  0  0  0  0
   49.4812   34.2946   54.1911 H   0  0  0  0  0  0  0  0  0  0  0  0
  1  2  1  0
  2  3  1  0
  3  4  2  0
  3  5  1  0
  5  6  2  0
  6  7  1  0
  7  8  2  0
  8  9  1  0
  9  5  1  0
  1 10  1  0
  1 11  1  0
  1 12  1  0
  6 13  1  0
  7 14  1  0
  8 15  1  0
M  CHG  1   2  -1
M  END
>  <UniqueID>  (7) 
6

>  <SMILES>  (7) 
C[N-]C(=O)c1ccco1

>  <Energy>  (7) 
40.62639191722944

>  <Genealogy>  (7) 
C[N-]C(=O)c1ccco1 (protonated)
C[N-]C(=O)c1ccco1 (3D coordinates assigned)
C[N-]C(=O)c1ccco1 (optimized conformer: 40.62639191722944 kcal/mol)

>  <smiles>  (7) 
CNC(=O)c1ccco1

>  <score_type>  (7) 
oracle

>  <origin>  (7) 
adg

>  <m_score__min__energy>  (7) 
-7.2000000000000002

>  <m_primary>  (7) 
energy

$$$$
7:0
     RDKit          3D

 43 45  0  0  0  0  0  0  0  0999 V2000
   59.7080   35.6960   46.3720 C   0  0  0  0  0  0  0  0  0  0  0  0
   59.0260   34.4060   46.0220 C   0  0  0  0  0  0  0  0  0  0  0  0
   58.4800   33.5980   47.0290 C   0  0  0  0  0  0  0  0  0  0  0  0
   57.8120   32.4180   46.6980 C   0  0  0  0  0  0  0  0  0  0  0  0
   57.6540   32.0410   45.3560 C   0  0  0  0  0  0  0  0  0  0  0  0
   56.9850   30.8190   45.0160 N   0  0  0  0  0  0  0  0  0  0  0  0
   57.6070   29.6420   44.4810 C   0  0  0  0  0  0  0  0  0  0  0  0
   56.9670   28.9430   43.6520 O   0  0  0  0  0  0  0  0  0  0  0  0
   58.9660   29.1760   44.9310 C   0  0  0  0  0  0  0  0  0  0  0  0
   58.8460   27.9200   46.2520 S   0  0  0  0  0  0  0  0  0  0  0  0
   59.1970   29.0680   47.5800 C   0  0  0  0  0  0  0  0  0  0  0  0
   58.5180   28.9770   48.7520 N   0  0  0  0  0  0  0  0  0  0  0  0
   58.7790   29.8290   49.7750 C   0  0  0  0  0  0  0  0  0  0  0  0
   58.1440   29.7220   50.8560 O   0  0  0  0  0  0  0  0  0  0  0  0
   59.7550   30.8180   49.6280 C   0  0  0  0  0  0  0  0  0  0  0  0
   60.4430   30.9110   48.4060 C   0  0  0  0  0  0  0  0  0  0  0  0
   61.4970   31.9330   48.1770 C   0  0  0  0  0  0  0  0  0  0  0  0
   62.5500   31.6620   47.2800 C   0  0  0  0  0  0  0  0  0  0  0  0
   63.5450   32.6150   47.0450 C   0  0  0  0  0  0  0  0  0  0  0  0
   63.5000   33.8510   47.6930 C   0  0  0  0  0  0  0  0  0  0  0  0
   62.4560   34.1380   48.5750 C   0  0  0  0  0  0  0  0  0  0  0  0
   61.4570   33.1880   48.8150 C   0  0  0  0  0  0  0  0  0  0  0  0
   60.1460   30.0240   47.4160 N   0  0  0  0  0  0  0  0  0  0  0  0
   58.2100   32.8410   44.3390 C   0  0  0  0  0  0  0  0  0  0  0  0
   58.0590   32.4500   42.8940 C   0  0  0  0  0  0  0  0  0  0  0  0
   58.8790   34.0290   44.6790 C   0  0  0  0  0  0  0  0  0  0  0  0
   59.7616   35.7974   47.4660 H   0  0  0  0  0  0  0  0  0  0  0  0
   60.7252   35.6984   45.9533 H   0  0  0  0  0  0  0  0  0  0  0  0
   59.1372   36.5379   45.9533 H   0  0  0  0  0  0  0  0  0  0  0  0
   58.5783   33.8949   48.0836 H   0  0  0  0  0  0  0  0  0  0  0  0
   57.4062   31.7786   47.4958 H   0  0  0  0  0  0  0  0  0  0  0  0
   59.4960   28.7399   44.0714 H   0  0  0  0  0  0  0  0  0  0  0  0
   59.5110   30.0437   45.3311 H   0  0  0  0  0  0  0  0  0  0  0  0
   59.9805   31.5103   50.4526 H   0  0  0  0  0  0  0  0  0  0  0  0
   62.5890   30.6930   46.7609 H   0  0  0  0  0  0  0  0  0  0  0  0
   64.3657   32.3907   46.3477 H   0  0  0  0  0  0  0  0  0  0  0  0
   64.2862   34.5980   47.5089 H   0  0  0  0  0  0  0  0  0  0  0  0
   62.4189   35.1133   49.0823 H   0  0  0  0  0  0  0  0  0  0  0  0
   60.6347   33.4230   49.5068 H   0  0  0  0  0  0  0  0  0  0  0  0
   57.6634   31.4256   42.8308 H   0  0  0  0  0  0  0  0  0  0  0  0
   57.3638   33.1429   42.3974 H   0  0  0  0  0  0  0  0  0  0  0  0
   59.0395   32.4957   42.3974 H   0  0  0  0  0  0  0  0  0  0  0  0
   59.2911   34.6690   43.8849 H   0  0  0  0  0  0  0  0  0  0  0  0
  1  2  1  0
  2  3  2  0
  3  4  1  0
  4  5  2  0
  5  6  1  0
  6  7  1  0
  7  8  2  0
  7  9  1  0
  9 10  1  0
 10 11  1  0
 11 12  2  0
 12 13  1  0
 13 14  2  0
 13 15  1  0
 15 16  2  0
 16 17  1  0
 17 18  2  0
 18 19  1  0
 19 20  2  0
 20 21  1  0
 21 22  2  0
 16 23  1  0
  5 24  1  0
 24 25  1  0
 24 26  2  0
 26  2  1  0
 23 11  1  0
 22 17  1  0
  1 27  1  0
  1 28  1  0
  1 29  1  0
  3 30  1  0
  4 31  1  0
  9 32  1  0
  9 33  1  0
 15 34  1  0
 18 35  1  0
 19 36  1  0
 20 37  1  0
 21 38  1  0
 22 39  1  0
 25 40  1  0
 25 41  1  0
 25 42  1  0
 26 43  1  0
M  CHG  2   6  -1  23  -1
M  END
>  <UniqueID>  (8) 
7

>  <SMILES>  (8) 
Cc1ccc([N-]C(=O)CSc2nc(=O)cc(-c3ccccc3)[n-]2)c(C)c1

>  <Energy>  (8) 
49.94412224365381

>  <Genealogy>  (8) 
Cc1ccc([N-]C(=O)CSc2nc(=O)cc(-c3ccccc3)[n-]2)c(C)c1 (protonated)
Cc1ccc([N-]C(=O)CSc2nc(=O)cc(-c3ccccc3)[n-]2)c(C)c1 (3D coordinates assigned)
Cc1ccc([N-]C(=O)CSc2nc(=O)cc(-c3ccccc3)[n-]2)c(C)c1 (optimized conformer: 49.94412224365381 kcal/mol)

>  <smiles>  (8) 
Cc1ccc(NC(=O)CSc2nc(=O)cc(-c3ccccc3)[nH]2)c(C)c1

>  <score_type>  (8) 
oracle

>  <origin>  (8) 
adg

>  <m_score__min__energy>  (8) 
-11.300000000000001

>  <m_primary>  (8) 
energy

$$$$
8:0
     RDKit          3D

 60 63  0  0  0  0  0  0  0  0999 V2000
   60.1293   25.3197   46.4223 H   0  0  0  0  0  0  0  0  0  0  0  0
   59.8110   26.3190   46.7540 C   0  0  0  0  0  0  0  0  0  0  0  0
   60.5710   27.0090   47.6360 N   0  0  0  0  0  0  0  0  0  0  0  0
   60.1940   28.2200   48.1200 C   0  0  0  0  0  0  0  0  0  0  0  0
   60.9970   28.8440   49.0790 C   0  0  0  0  0  0  0  0  0  0  0  0
   61.9640   28.3965   49.3524 H   0  0  0  0  0  0  0  0  0  0  0  0
   60.5840   30.0360   49.6980 C   0  0  0  0  0  0  0  0  0  0  0  0
   61.3810   30.6930   50.6540 O   0  0  0  0  0  0  0  0  0  0  0  0
   62.7690   30.4620   50.8920 C   0  0  0  0  0  0  0  0  0  0  0  0
   63.0927   29.5828   50.3156 H   0  0  0  0  0  0  0  0  0  0  0  0
   62.9193   30.2897   51.9680 H   0  0  0  0  0  0  0  0  0  0  0  0
   63.5970   31.6700   50.4690 C   0  0  0  0  0  0  0  0  0  0  0  0
   63.9589   32.1979   51.3636 H   0  0  0  0  0  0  0  0  0  0  0  0
   64.4556   31.3341   49.8691 H   0  0  0  0  0  0  0  0  0  0  0  0
   62.9740   32.3497   49.8691 H   0  0  0  0  0  0  0  0  0  0  0  0
   59.3280   30.5860   49.3640 C   0  0  0  0  0  0  0  0  0  0  0  0
   58.8320   31.7810   50.0170 N   0  0  0  0  0  0  0  0  0  0  0  0
   59.1220   31.8210   51.0220 H   0  0  0  0  0  0  0  0  0  0  0  0
   57.7860   31.7320   50.0120 H   0  0  0  0  0  0  0  0  0  0  0  0
   59.2720   33.0110   49.3210 C   0  0  0  0  0  0  0  0  0  0  0  0
   58.5624   33.8155   49.5645 H   0  0  0  0  0  0  0  0  0  0  0  0
   60.6760   33.4290   49.8210 C   0  0  0  0  0  0  0  0  0  0  0  0
   60.5723   33.9560   50.7810 H   0  0  0  0  0  0  0  0  0  0  0  0
   61.2869   32.5219   49.9392 H   0  0  0  0  0  0  0  0  0  0  0  0
   61.3730   34.3550   48.8150 C   0  0  0  0  0  0  0  0  0  0  0  0
   60.7720   35.2693   48.7019 H   0  0  0  0  0  0  0  0  0  0  0  0
   62.3773   34.5773   49.2050 H   0  0  0  0  0  0  0  0  0  0  0  0
   61.5360   33.7240   47.4810 N   0  0  0  0  0  0  0  0  0  0  0  0
   62.9400   33.4610   47.0980 C   0  0  0  0  0  0  0  0  0  0  0  0
   63.0937   33.8316   46.0738 H   0  0  0  0  0  0  0  0  0  0  0  0
   63.5718   33.9767   47.8362 H   0  0  0  0  0  0  0  0  0  0  0  0
   63.3340   31.9780   47.1380 C   0  0  0  0  0  0  0  0  0  0  0  0
   63.4212   31.6499   48.1843 H   0  0  0  0  0  0  0  0  0  0  0  0
   62.5636   31.3801   46.6292 H   0  0  0  0  0  0  0  0  0  0  0  0
   64.2996   31.8413   46.6292 H   0  0  0  0  0  0  0  0  0  0  0  0
   60.6290   32.5890   47.1970 C   0  0  0  0  0  0  0  0  0  0  0  0
   60.5493   32.4546   46.1081 H   0  0  0  0  0  0  0  0  0  0  0  0
   61.0406   31.6828   47.6653 H   0  0  0  0  0  0  0  0  0  0  0  0
   59.2350   32.8500   47.7740 C   0  0  0  0  0  0  0  0  0  0  0  0
   58.8323   33.7721   47.3294 H   0  0  0  0  0  0  0  0  0  0  0  0
   58.5982   31.9855   47.5349 H   0  0  0  0  0  0  0  0  0  0  0  0
   58.5260   29.9450   48.4020 C   0  0  0  0  0  0  0  0  0  0  0  0
   57.5189   30.3367   48.1963 H   0  0  0  0  0  0  0  0  0  0  0  0
   58.9810   28.8130   47.6950 C   0  0  0  0  0  0  0  0  0  0  0  0
   58.2360   28.1670   46.6570 C   0  0  0  0  0  0  0  0  0  0  0  0
   57.2400   28.7180   46.0030 N   0  0  0  0  0  0  0  0  0  0  0  0
   57.2530   29.7210   44.9780 C   0  0  0  0  0  0  0  0  0  0  0  0
   56.8220   29.3930   43.6870 C   0  0  0  0  0  0  0  0  0  0  0  0
   56.4450   28.3815   43.4756 H   0  0  0  0  0  0  0  0  0  0  0  0
   56.8690   30.3460   42.6660 C   0  0  0  0  0  0  0  0  0  0  0  0
   56.5051   30.0908   41.6598 H   0  0  0  0  0  0  0  0  0  0  0  0
   57.3780   31.6240   42.9210 C   0  0  0  0  0  0  0  0  0  0  0  0
   57.4180   32.5410   41.9230 F   0  0  0  0  0  0  0  0  0  0  0  0
   57.8500   31.9460   44.1990 C   0  0  0  0  0  0  0  0  0  0  0  0
   58.5090   33.5400   44.5250 Cl  0  0  0  0  0  0  0  0  0  0  0  0
   57.7960   30.9940   45.2230 C   0  0  0  0  0  0  0  0  0  0  0  0
   58.1799   31.2428   46.2234 H   0  0  0  0  0  0  0  0  0  0  0  0
   58.6260   26.8680   46.2630 C   0  0  0  0  0  0  0  0  0  0  0  0
   57.8720   26.1220   45.2800 C   0  0  0  0  0  0  0  0  0  0  0  0
   57.2700   25.5260   44.4930 N   0  0  0  0  0  0  0  0  0  0  0  0
  1  2  1  0
  2  3  1  0
  3  4  1  0
  4  5  2  0
  5  6  1  0
  5  7  1  0
  7  8  1  0
  8  9  1  0
  9 10  1  0
  9 11  1  0
  9 12  1  0
 12 13  1  0
 12 14  1  0
 12 15  1  0
  7 16  2  0
 16 17  1  0
 17 18  1  0
 17 19  1  0
 17 20  1  0
 20 21  1  0
 20 22  1  0
 22 23  1  0
 22 24  1  0
 22 25  1  0
 25 26  1  0
 25 27  1  0
 25 28  1  0
 28 29  1  0
 29 30  1  0
 29 31  1  0
 29 32  1  0
 32 33  1  0
 32 34  1  0
 32 35  1  0
 28 36  1  0
 36 37  1  0
 36 38  1  0
 36 39  1  0
 39 40  1  0
 39 41  1  0
 16 42  1  0
 42 43  1  0
 42 44  2  0
 44 45  1  0
 45 46  2  0
 46 47  1  0
 47 48  2  0
 48 49  1  0
 48 50  1  0
 50 51  1  0
 50 52  2  0
 52 53  1  0
 52 54  1  0
 54 55  1  0
 54 56  2  0
 56 57  1  0
 45 58  1  0
 58 59  1  0
 59 60  3  0
 58  2  2  0
 44  4  1  0
 56 47  1  0
 39 20  1  0
M  CHG  2   3  -1  17   1
M  END
>  <UniqueID>  (9) 
8

>  <SMILES>  (9) 
CCOc1cc2[n-]cc(C#N)/c(=N/c3ccc(F)c(Cl)c3)c2cc1[NH2+]C1CCN(CC)CC1

>  <Energy>  (9) 
94.65975953811486

>  <Genealogy>  (9) 
CCOc1cc2[n-]cc(C#N)c(=Nc3ccc(F)c(Cl)c3)c2cc1[NH2+]C1CCN(CC)CC1 (protonated)
CCOc1cc2[n-]cc(C#N)/c(=N/c3ccc(F)c(Cl)c3)c2cc1[NH2+]C1CCN(CC)CC1 (cis-trans isomerization)
CCOc1cc2[n-]cc(C#N)/c(=N/c3ccc(F)c(Cl)c3)c2cc1[NH2+]C1CCN(CC)CC1 (3D coordinates assigned)
CCOc1cc2[n-]cc(C#N)/c(=N/c3ccc(F)c(Cl)c3)c2cc1[NH2+]C1CCN(CC)CC1 (nonaromatic ring conformer: 94.65975953811486 kcal/mol)

>  <smiles>  (9) 
CCOc1cc2[nH]cc(C#N)c(=Nc3ccc(F)c(Cl)c3)c2cc1NC1CCN(CC)CC1

>  <score_type>  (9) 
oracle

>  <origin>  (9) 
adg

>  <m_score__min__energy>  (9) 
-7.5199999999999996

>  <m_primary>  (9) 
energy

$$$$
9:0
     RDKit          3D

 33 34  0  0  0  0  0  0  0  0999 V2000
   57.0010   21.1080   42.9810 C   0  0  0  0  0  0  0  0  0  0  0  0
   55.9130   21.9960   43.2150 O   0  0  0  0  0  0  0  0  0  0  0  0
   56.0060   23.1830   43.9550 C   0  0  0  0  0  0  0  0  0  0  0  0
   57.1110   24.0160   43.7420 C   0  0  0  0  0  0  0  0  0  0  0  0
   57.2490   25.2100   44.4550 C   0  0  0  0  0  0  0  0  0  0  0  0
   56.2920   25.5830   45.4030 C   0  0  0  0  0  0  0  0  0  0  0  0
   56.4590   26.7980   46.0840 O   0  0  0  0  0  0  0  0  0  0  0  0
   57.6470   27.2460   46.6790 C   0  0  0  0  0  0  0  0  0  0  0  0
   58.4890   26.3300   47.3360 C   0  0  0  0  0  0  0  0  0  0  0  0
   59.6570   26.7400   47.8920 N   0  0  0  0  0  0  0  0  0  0  0  0
   60.0590   28.0330   47.8310 C   0  0  0  0  0  0  0  0  0  0  0  0
   59.2720   28.9790   47.1770 C   0  0  0  0  0  0  0  0  0  0  0  0
   58.0570   28.6040   46.5870 C   0  0  0  0  0  0  0  0  0  0  0  0
   57.3700   29.5430   45.9930 N   0  0  0  0  0  0  0  0  0  0  0  0
   56.6720   29.5720   44.4020 S   0  0  0  0  0  0  0  0  0  0  0  0
   57.0220   31.1490   43.6620 C   0  0  0  0  0  0  0  0  0  0  0  0
   55.1800   29.4000   44.4850 O   0  0  0  0  0  0  0  0  0  0  0  0
   57.2750   28.4930   43.5470 O   0  0  0  0  0  0  0  0  0  0  0  0
   55.1700   24.7610   45.6090 C   0  0  0  0  0  0  0  0  0  0  0  0
   55.0310   23.5660   44.8950 C   0  0  0  0  0  0  0  0  0  0  0  0
   57.4132   20.7715   43.9437 H   0  0  0  0  0  0  0  0  0  0  0  0
   56.6473   20.2374   42.4092 H   0  0  0  0  0  0  0  0  0  0  0  0
   57.7831   21.6290   42.4092 H   0  0  0  0  0  0  0  0  0  0  0  0
   57.8772   23.7281   43.0071 H   0  0  0  0  0  0  0  0  0  0  0  0
   58.1164   25.8605   44.2690 H   0  0  0  0  0  0  0  0  0  0  0  0
   58.1976   25.2712   47.3996 H   0  0  0  0  0  0  0  0  0  0  0  0
   61.0076   28.3360   48.2983 H   0  0  0  0  0  0  0  0  0  0  0  0
   59.6060   30.0257   47.1235 H   0  0  0  0  0  0  0  0  0  0  0  0
   57.1878   31.8961   44.4522 H   0  0  0  0  0  0  0  0  0  0  0  0
   57.9242   31.0690   43.0379 H   0  0  0  0  0  0  0  0  0  0  0  0
   56.1706   31.4582   43.0379 H   0  0  0  0  0  0  0  0  0  0  0  0
   54.3985   25.0587   46.3344 H   0  0  0  0  0  0  0  0  0  0  0  0
   54.1558   22.9228   45.0690 H   0  0  0  0  0  0  0  0  0  0  0  0
  1  2  1  0
  2  3  1  0
  3  4  2  0
  4  5  1  0
  5  6  2  0
  6  7  1  0
  7  8  1  0
  8  9  2  0
  9 10  1  0
 10 11  1  0
 11 12  2  0
 12 13  1  0
 13 14  2  3
 14 15  1  0
 15 16  1  0
 15 17  2  0
 15 18  2  0
  6 19  1  0
 19 20  2  0
 20  3  1  0
 13  8  1  0
  1 21  1  0
  1 22  1  0
  1 23  1  0
  4 24  1  0
  5 25  1  0
  9 26  1  0
 11 27  1  0
 12 28  1  0
 16 29  1  0
 16 30  1  0
 16 31  1  0
 19 32  1  0
 20 33  1  0
M  CHG  1  10  -1
M  END
>  <UniqueID>  (10) 
9

>  <SMILES>  (10) 
COc1ccc(Oc2c[n-]ccc2=NS(C)(=O)=O)cc1

>  <Energy>  (10) 
45.03831507436522

>  <Genealogy>  (10) 
COc1ccc(Oc2c[n-]ccc2=NS(C)(=O)=O)cc1 (protonated)
COc1ccc(Oc2c[n-]ccc2=NS(C)(=O)=O)cc1 (3D coordinates assigned)
COc1ccc(Oc2c[n-]ccc2=NS(C)(=O)=O)cc1 (optimized conformer: 45.03831507436522 kcal/mol)

>  <smiles>  (10) 
COc1ccc(Oc2c[nH]ccc2=NS(C)(=O)=O)cc1

>  <score_type>  (10) 
oracle

>  <origin>  (10) 
adg

>  <m_score__min__energy>  (10) 
-8.1600000000000001

>  <m_primary>  (10) 
energy

$$$$
10:0
     RDKit          3D

 52 56  0  0  0  0  0  0  0  0999 V2000
   64.5640   29.2380   52.5730 H   0  0  0  0  0  0  0  0  0  0  0  0
   64.8710   30.0060   51.9350 N   0  0  0  0  0  0  0  0  0  0  0  0
   64.0470   30.5770   51.1190 C   0  0  0  0  0  0  0  0  0  0  0  0
   64.4470   31.6380   50.3700 N   0  0  0  0  0  0  0  0  0  0  0  0
   63.5940   32.2510   49.5090 C   0  0  0  0  0  0  0  0  0  0  0  0
   63.9376   33.1105   48.9147 H   0  0  0  0  0  0  0  0  0  0  0  0
   62.2750   31.7900   49.3760 C   0  0  0  0  0  0  0  0  0  0  0  0
   61.3240   32.4400   48.4340 C   0  0  0  0  0  0  0  0  0  0  0  0
   61.2930   33.8350   48.3040 C   0  0  0  0  0  0  0  0  0  0  0  0
   61.9537   34.4551   48.9277 H   0  0  0  0  0  0  0  0  0  0  0  0
   60.4330   34.4440   47.3920 C   0  0  0  0  0  0  0  0  0  0  0  0
   60.4147   35.5409   47.3115 H   0  0  0  0  0  0  0  0  0  0  0  0
   59.5880   33.6730   46.5730 C   0  0  0  0  0  0  0  0  0  0  0  0
   59.5380   32.2710   46.7650 C   0  0  0  0  0  0  0  0  0  0  0  0
   60.4430   31.6670   47.6620 C   0  0  0  0  0  0  0  0  0  0  0  0
   60.4587   30.5713   47.7583 H   0  0  0  0  0  0  0  0  0  0  0  0
   58.5760   31.4610   45.9690 C   0  0  0  0  0  0  0  0  0  0  0  0
   57.9640   32.0630   44.8640 C   0  0  0  0  0  0  0  0  0  0  0  0
   57.1330   31.3070   44.0370 C   0  0  0  0  0  0  0  0  0  0  0  0
   56.6760   31.7644   43.1471 H   0  0  0  0  0  0  0  0  0  0  0  0
   56.8840   29.9710   44.3420 C   0  0  0  0  0  0  0  0  0  0  0  0
   56.2313   29.3676   43.6940 H   0  0  0  0  0  0  0  0  0  0  0  0
   57.4700   29.4010   45.4790 C   0  0  0  0  0  0  0  0  0  0  0  0
   57.1590   28.0000   45.8360 C   0  0  0  0  0  0  0  0  0  0  0  0
   55.9450   27.4510   45.6250 N   0  0  0  0  0  0  0  0  0  0  0  0
   56.1190   26.2030   46.1040 C   0  0  0  0  0  0  0  0  0  0  0  0
   55.1890   25.3050   46.1080 N   0  0  0  0  0  0  0  0  0  0  0  0
   54.2030   25.5500   46.3470 H   0  0  0  0  0  0  0  0  0  0  0  0
   57.3560   25.9760   46.5740 N   0  0  0  0  0  0  0  0  0  0  0  0
   58.0140   27.1110   46.3980 N   0  0  0  0  0  0  0  0  0  0  0  0
   59.4410   27.2740   46.7050 C   0  0  0  0  0  0  0  0  0  0  0  0
   59.8437   28.0965   46.0956 H   0  0  0  0  0  0  0  0  0  0  0  0
   60.2110   25.9940   46.3570 C   0  0  0  0  0  0  0  0  0  0  0  0
   60.5164   25.4864   47.2838 H   0  0  0  0  0  0  0  0  0  0  0  0
   59.5648   25.3258   45.7688 H   0  0  0  0  0  0  0  0  0  0  0  0
   61.1041   26.2518   45.7688 H   0  0  0  0  0  0  0  0  0  0  0  0
   59.6240   27.6270   48.1840 C   0  0  0  0  0  0  0  0  0  0  0  0
   59.2069   26.8224   48.8073 H   0  0  0  0  0  0  0  0  0  0  0  0
   60.6957   27.7427   48.4035 H   0  0  0  0  0  0  0  0  0  0  0  0
   59.1009   28.5695   48.4035 H   0  0  0  0  0  0  0  0  0  0  0  0
   58.2700   30.1640   46.2810 N   0  0  0  0  0  0  0  0  0  0  0  0
   58.6060   29.7520   47.1750 H   0  0  0  0  0  0  0  0  0  0  0  0
   58.1860   33.4110   44.5880 O   0  0  0  0  0  0  0  0  0  0  0  0
   58.6410   34.3370   45.5780 C   0  0  2  0  0  0  0  0  0  0  0  0
   57.7985   34.6974   46.1865 H   0  0  0  0  0  0  0  0  0  0  0  0
   59.2720   35.5280   44.8490 C   0  0  0  0  0  0  0  0  0  0  0  0
   59.6540   36.2490   45.5868 H   0  0  0  0  0  0  0  0  0  0  0  0
   60.1011   35.1745   44.2185 H   0  0  0  0  0  0  0  0  0  0  0  0
   58.5139   36.0155   44.2185 H   0  0  0  0  0  0  0  0  0  0  0  0
   61.8900   30.6900   50.1590 C   0  0  0  0  0  0  0  0  0  0  0  0
   60.8663   30.2948   50.0830 H   0  0  0  0  0  0  0  0  0  0  0  0
   62.7770   30.1120   51.0100 N   0  0  0  0  0  0  0  0  0  0  0  0
  1  2  1  0
  2  3  2  3
  3  4  1  0
  4  5  2  0
  5  6  1  0
  5  7  1  0
  7  8  1  0
  8  9  2  0
  9 10  1  0
  9 11  1  0
 11 12  1  0
 11 13  2  0
 13 14  1  0
 14 15  2  0
 15 16  1  0
 14 17  1  0
 17 18  2  0
 18 19  1  0
 19 20  1  0
 19 21  2  0
 21 22  1  0
 21 23  1  0
 23 24  1  0
 24 25  2  0
 25 26  1  0
 26 27  2  0
 27 28  1  0
 26 29  1  0
 29 30  1  0
 30 31  1  0
 31 32  1  0
 31 33  1  0
 33 34  1  0
 33 35  1  0
 33 36  1  0
 31 37  1  0
 37 38  1  0
 37 39  1  0
 37 40  1  0
 23 41  2  0
 41 42  1  0
 18 43  1  0
 43 44  1  0
 44 45  1  1
 44 46  1  0
 46 47  1  0
 46 48  1  0
 46 49  1  0
  7 50  2  0
 50 51  1  0
 50 52  1  0
 52  3  1  0
 15  8  1  0
 41 17  1  0
 44 13  1  0
 30 24  1  0
M  CHG  3  29  -1  41   1  52  -1
M  END
>  <UniqueID>  (11) 
10

>  <SMILES>  (11) 
[H]/N=c1\nc(-c2ccc3c([nH+]2)-c2cc(-c4cnc(=N)[n-]c4)ccc2[C@@H](C)O3)n(C(C)C)[n-]1

>  <Energy>  (11) 
104.37302219324783

>  <Genealogy>  (11) 
CC1Oc2ccc(-c3nc(=N)[n-]n3C(C)C)[nH+]c2-c2cc(-c3cnc(=N)[n-]c3)ccc21 (protonated)
CC(C)n1[n-]c(=N)nc1-c1ccc2c([nH+]1)-c1cc(-c3cnc(=N)[n-]c3)ccc1[C@@H](C)O2 (chirality)
[H]/N=c1\nc(-c2ccc3c([nH+]2)-c2cc(-c4cnc(=N)[n-]c4)ccc2[C@@H](C)O3)n(C(C)C)[n-]1 (cis-trans isomerization)
[H]/N=c1\nc(-c2ccc3c([nH+]2)-c2cc(-c4cnc(=N)[n-]c4)ccc2[C@@H](C)O3)n(C(C)C)[n-]1 (3D coordinates assigned)
[H]/N=c1\nc(-c2ccc3c([nH+]2)-c2cc(-c4cnc(=N)[n-]c4)ccc2[C@@H](C)O3)n(C(C)C)[n-]1 (nonaromatic ring conformer: 104.37302219324783 kcal/mol)

>  <smiles>  (11) 
CC1Oc2ccc(-c3nc(=N)[nH]n3C(C)C)nc2-c2cc(-c3cnc(=N)[nH]c3)ccc21

>  <score_type>  (11) 
oracle

>  <origin>  (11) 
adg

>  <m_score__min__energy>  (11) 
-10.18

>  <m_primary>  (11) 
energy

$$$$
11:0
     RDKit          3D

 47 50  0  0  0  0  0  0  0  0999 V2000
   61.0238   28.7099   45.4812 H   0  0  0  0  0  0  0  0  0  0  0  0
   60.3410   28.9060   46.3210 C   0  0  0  0  0  0  0  0  0  0  0  0
   60.8050   29.6440   47.3400 C   0  0  0  0  0  0  0  0  0  0  0  0
   62.0400   30.9140   47.1050 S   0  0  0  0  0  0  0  0  0  0  0  0
   61.9810   31.2030   48.8940 C   0  0  0  0  0  0  0  0  0  0  0  0
   62.8260   32.1690   49.5510 N   0  0  0  0  0  0  0  0  0  0  0  0
   64.2140   32.3410   49.0770 C   0  0  0  0  0  0  0  0  0  0  0  0
   64.2015   32.9534   48.1633 H   0  0  0  0  0  0  0  0  0  0  0  0
   64.6290   31.3401   48.8872 H   0  0  0  0  0  0  0  0  0  0  0  0
   65.0940   33.0160   50.1000 C   0  0  0  0  0  0  0  0  0  0  0  0
   66.4790   32.7840   50.1070 C   0  0  0  0  0  0  0  0  0  0  0  0
   66.9203   32.0791   49.3871 H   0  0  0  0  0  0  0  0  0  0  0  0
   67.2990   33.4460   51.0260 C   0  0  0  0  0  0  0  0  0  0  0  0
   68.3813   33.2499   51.0377 H   0  0  0  0  0  0  0  0  0  0  0  0
   66.7450   34.3560   51.9290 C   0  0  0  0  0  0  0  0  0  0  0  0
   67.3913   34.8751   52.6521 H   0  0  0  0  0  0  0  0  0  0  0  0
   65.3700   34.6080   51.9150 C   0  0  0  0  0  0  0  0  0  0  0  0
   64.9377   35.3353   52.6180 H   0  0  0  0  0  0  0  0  0  0  0  0
   64.5410   33.9350   51.0060 C   0  0  0  0  0  0  0  0  0  0  0  0
   63.0740   34.2290   50.9390 C   0  0  0  0  0  0  0  0  0  0  0  0
   62.8838   34.9407   50.1221 H   0  0  0  0  0  0  0  0  0  0  0  0
   62.7521   34.6604   51.8983 H   0  0  0  0  0  0  0  0  0  0  0  0
   62.2830   32.9420   50.6820 C   0  0  0  0  0  0  0  0  0  0  0  0
   61.2386   33.2068   50.4606 H   0  0  0  0  0  0  0  0  0  0  0  0
   62.3560   32.3161   51.5836 H   0  0  0  0  0  0  0  0  0  0  0  0
   61.1180   30.5000   49.5610 N   0  0  0  0  0  0  0  0  0  0  0  0
   60.3920   29.6060   48.7390 C   0  0  0  0  0  0  0  0  0  0  0  0
   59.4490   28.9070   49.1920 O   0  0  0  0  0  0  0  0  0  0  0  0
   58.9820   28.3380   46.2440 C   0  0  0  0  0  0  0  0  0  0  0  0
   57.9600   29.0830   45.6410 C   0  0  0  0  0  0  0  0  0  0  0  0
   58.1709   30.0955   45.2663 H   0  0  0  0  0  0  0  0  0  0  0  0
   56.6660   28.5460   45.5110 C   0  0  0  0  0  0  0  0  0  0  0  0
   55.6100   29.2680   44.9320 O   0  0  0  0  0  0  0  0  0  0  0  0
   55.7140   30.0210   43.7280 C   0  0  0  0  0  0  0  0  0  0  0  0
   55.8608   31.0836   43.9716 H   0  0  0  0  0  0  0  0  0  0  0  0
   56.5705   29.6577   43.1411 H   0  0  0  0  0  0  0  0  0  0  0  0
   54.7911   29.9034   43.1411 H   0  0  0  0  0  0  0  0  0  0  0  0
   56.4110   27.2480   45.9730 C   0  0  0  0  0  0  0  0  0  0  0  0
   55.1320   26.7130   45.8540 O   0  0  0  0  0  0  0  0  0  0  0  0
   57.4320   26.4790   46.5510 C   0  0  0  0  0  0  0  0  0  0  0  0
   57.1270   25.1800   46.9880 O   0  0  0  0  0  0  0  0  0  0  0  0
   56.6290   24.1440   46.1470 C   0  0  0  0  0  0  0  0  0  0  0  0
   56.2355   23.3254   46.7675 H   0  0  0  0  0  0  0  0  0  0  0  0
   55.8240   24.5424   45.5120 H   0  0  0  0  0  0  0  0  0  0  0  0
   57.4429   23.7641   45.5120 H   0  0  0  0  0  0  0  0  0  0  0  0
   58.7220   27.0260   46.6700 C   0  0  0  0  0  0  0  0  0  0  0  0
   59.5337   26.4210   47.1003 H   0  0  0  0  0  0  0  0  0  0  0  0
  1  2  1  0
  2  3  2  0
  3  4  1  0
  4  5  1  0
  5  6  1  0
  6  7  1  0
  7  8  1  0
  7  9  1  0
  7 10  1  0
 10 11  2  0
 11 12  1  0
 11 13  1  0
 13 14  1  0
 13 15  2  0
 15 16  1  0
 15 17  1  0
 17 18  1  0
 17 19  2  0
 19 20  1  0
 20 21  1  0
 20 22  1  0
 20 23  1  0
 23 24  1  0
 23 25  1  0
  5 26  2  0
 26 27  1  0
 27 28  2  0
  2 29  1  0
 29 30  2  0
 30 31  1  0
 30 32  1  0
 32 33  1  0
 33 34  1  0
 34 35  1  0
 34 36  1  0
 34 37  1  0
 32 38  2  0
 38 39  1  0
 38 40  1  0
 40 41  1  0
 41 42  1  0
 42 43  1  0
 42 44  1  0
 42 45  1  0
 40 46  2  0
 46 47  1  0
 27  3  1  0
 46 29  1  0
 23  6  1  0
 19 10  1  0
M  CHG  1  39  -1
M  END
>  <UniqueID>  (12) 
11

>  <SMILES>  (12) 
COc1cc(/C=C2/SC(N3CCc4ccccc4C3)=NC2=O)cc(OC)c1[O-]

>  <Energy>  (12) 
79.08558011392068

>  <Genealogy>  (12) 
COc1cc(C=C2SC(N3CCc4ccccc4C3)=NC2=O)cc(OC)c1[O-] (protonated)
COc1cc(/C=C2/SC(N3CCc4ccccc4C3)=NC2=O)cc(OC)c1[O-] (cis-trans isomerization)
COc1cc(/C=C2/SC(N3CCc4ccccc4C3)=NC2=O)cc(OC)c1[O-] (3D coordinates assigned)
COc1cc(/C=C2/SC(N3CCc4ccccc4C3)=NC2=O)cc(OC)c1[O-] (nonaromatic ring conformer: 79.08558011392068 kcal/mol)

>  <smiles>  (12) 
COc1cc(C=C2SC(N3CCc4ccccc4C3)=NC2=O)cc(OC)c1O

>  <score_type>  (12) 
oracle

>  <origin>  (12) 
adg

>  <m_score__min__energy>  (12) 
-11.41

>  <m_primary>  (12) 
energy

$$$$
12:0
     RDKit          3D

 35 37  0  0  0  0  0  0  0  0999 V2000
   55.1540   28.5590   45.2420 H   0  0  0  0  0  0  0  0  0  0  0  0
   55.1450   29.4500   44.7630 O   0  0  0  0  0  0  0  0  0  0  0  0
   56.2250   30.2980   44.8660 N   0  0  0  0  0  0  0  0  0  0  0  0
   57.3970   29.8920   45.2550 C   0  0  0  0  0  0  0  0  0  0  0  0
   57.7090   28.4480   45.1970 C   0  0  0  0  0  0  0  0  0  0  0  0
   57.0180   27.6050   45.9080 N   0  0  0  0  0  0  0  0  0  0  0  0
   57.1430   26.1790   45.8070 C   0  0  0  0  0  0  0  0  0  0  0  0
   56.6600   25.3730   46.8440 C   0  0  0  0  0  0  0  0  0  0  0  0
   56.2190   25.8368   47.7386 H   0  0  0  0  0  0  0  0  0  0  0  0
   56.7360   23.9800   46.7470 C   0  0  0  0  0  0  0  0  0  0  0  0
   56.3666   23.3504   47.5699 H   0  0  0  0  0  0  0  0  0  0  0  0
   57.2810   23.3880   45.6050 C   0  0  0  0  0  0  0  0  0  0  0  0
   57.3437   22.2922   45.5323 H   0  0  0  0  0  0  0  0  0  0  0  0
   57.7470   24.1840   44.5540 C   0  0  0  0  0  0  0  0  0  0  0  0
   58.1604   23.7131   43.6499 H   0  0  0  0  0  0  0  0  0  0  0  0
   57.6880   25.5830   44.6510 C   0  0  0  0  0  0  0  0  0  0  0  0
   58.1240   26.4500   43.5040 C   0  0  0  0  0  0  0  0  0  0  0  0
   58.7601   25.8661   42.8225 H   0  0  0  0  0  0  0  0  0  0  0  0
   57.2406   26.8108   42.9569 H   0  0  0  0  0  0  0  0  0  0  0  0
   59.0640   27.8670   44.1490 S   0  0  0  0  0  0  0  0  0  0  0  0
   58.4070   30.8600   45.7530 C   0  0  0  0  0  0  0  0  0  0  0  0
   59.6040   30.4020   46.3260 C   0  0  0  0  0  0  0  0  0  0  0  0
   59.7963   29.3214   46.3993 H   0  0  0  0  0  0  0  0  0  0  0  0
   60.5530   31.3100   46.8040 C   0  0  0  0  0  0  0  0  0  0  0  0
   61.4890   30.9408   47.2485 H   0  0  0  0  0  0  0  0  0  0  0  0
   60.3160   32.6950   46.7190 C   0  0  0  0  0  0  0  0  0  0  0  0
   61.2350   33.6470   47.1850 O   0  0  0  0  0  0  0  0  0  0  0  0
   62.6500   33.5140   47.0840 C   0  0  0  0  0  0  0  0  0  0  0  0
   63.0873   33.4729   48.0925 H   0  0  0  0  0  0  0  0  0  0  0  0
   62.8935   32.5890   46.5408 H   0  0  0  0  0  0  0  0  0  0  0  0
   63.0616   34.3774   46.5408 H   0  0  0  0  0  0  0  0  0  0  0  0
   59.1200   33.1490   46.1500 C   0  0  0  0  0  0  0  0  0  0  0  0
   58.9253   34.2293   46.0796 H   0  0  0  0  0  0  0  0  0  0  0  0
   58.1720   32.2420   45.6710 C   0  0  0  0  0  0  0  0  0  0  0  0
   57.2362   32.6123   45.2271 H   0  0  0  0  0  0  0  0  0  0  0  0
  1  2  1  0
  2  3  1  0
  3  4  2  0
  4  5  1  0
  5  6  2  0
  6  7  1  0
  7  8  2  0
  8  9  1  0
  8 10  1  0
 10 11  1  0
 10 12  2  0
 12 13  1  0
 12 14  1  0
 14 15  1  0
 14 16  2  0
 16 17  1  0
 17 18  1  0
 17 19  1  0
 17 20  1  0
  4 21  1  0
 21 22  2  0
 22 23  1  0
 22 24  1  0
 24 25  1  0
 24 26  2  0
 26 27  1  0
 27 28  1  0
 28 29  1  0
 28 30  1  0
 28 31  1  0
 26 32  1  0
 32 33  1  0
 32 34  2  0
 34 35  1  0
 20  5  1  0
 34 21  1  0
 16  7  1  0
M  END
>  <UniqueID>  (13) 
12

>  <SMILES>  (13) 
COc1ccc(/C(=N\O)C2=Nc3ccccc3CS2)cc1

>  <Energy>  (13) 
47.64421997701027

>  <Genealogy>  (13) 
COc1ccc(/C(=N\O)C2=Nc3ccccc3CS2)cc1 (cis-trans isomerization)
COc1ccc(/C(=N\O)C2=Nc3ccccc3CS2)cc1 (3D coordinates assigned)
COc1ccc(/C(=N\O)C2=Nc3ccccc3CS2)cc1 (nonaromatic ring conformer: 47.64421997701027 kcal/mol)

>  <smiles>  (13) 
COc1ccc(C(=NO)C2=Nc3ccccc3CS2)cc1

>  <score_type>  (13) 
oracle

>  <origin>  (13) 
adg

>  <m_score__min__energy>  (13) 
-8.25

>  <m_primary>  (13) 
energy

$$$$
13:0
     RDKit          3D

 35 37  0  0  0  0  0  0  0  0999 V2000
   54.4585   29.7872   43.8029 H   0  0  0  0  0  0  0  0  0  0  0  0
   55.5260   29.7740   44.0680 C   0  0  0  0  0  0  0  0  0  0  0  0
   55.9790   29.2590   45.2430 N   0  0  0  0  0  0  0  0  0  0  0  0
   57.3190   29.3640   45.3530 C   0  0  0  0  0  0  0  0  0  0  0  0
   57.9640   28.9060   46.3860 N   0  0  0  0  0  0  0  0  0  0  0  0
   59.0550   29.5360   47.0750 C   0  0  0  0  0  0  0  0  0  0  0  0
   59.7560   28.8400   47.8560 O   0  0  0  0  0  0  0  0  0  0  0  0
   59.2740   30.9980   47.0080 C   0  0  0  0  0  0  0  0  0  0  0  0
   58.1950   31.7810   46.7570 N   0  0  0  0  0  0  0  0  0  0  0  0
   58.2600   33.1130   46.6930 N   0  0  0  0  0  0  0  0  0  0  0  0
   57.0330   33.8430   46.3580 C   0  0  0  0  0  0  0  0  0  0  0  0
   56.9618   34.7430   46.9864 H   0  0  0  0  0  0  0  0  0  0  0  0
   56.1653   33.1915   46.5385 H   0  0  0  0  0  0  0  0  0  0  0  0
   57.0530   34.2550   44.8830 C   0  0  0  0  0  0  0  0  0  0  0  0
   57.3574   35.3095   44.8095 H   0  0  0  0  0  0  0  0  0  0  0  0
   56.0442   34.1116   44.4686 H   0  0  0  0  0  0  0  0  0  0  0  0
   58.0290   33.3990   44.0820 C   0  0  0  0  0  0  0  0  0  0  0  0
   58.6730   32.8342   44.7721 H   0  0  0  0  0  0  0  0  0  0  0  0
   57.4667   32.6975   43.4482 H   0  0  0  0  0  0  0  0  0  0  0  0
   58.6511   34.0480   43.4482 H   0  0  0  0  0  0  0  0  0  0  0  0
   59.4500   33.7620   46.8780 C   0  0  0  0  0  0  0  0  0  0  0  0
   59.5050   35.0210   46.8020 O   0  0  0  0  0  0  0  0  0  0  0  0
   60.6140   33.0190   47.1410 C   0  0  0  0  0  0  0  0  0  0  0  0
   61.8580   33.6540   47.3280 C   0  0  0  0  0  0  0  0  0  0  0  0
   61.9210   34.7518   47.2979 H   0  0  0  0  0  0  0  0  0  0  0  0
   63.0100   32.9000   47.5510 C   0  0  0  0  0  0  0  0  0  0  0  0
   63.9752   33.4049   47.7043 H   0  0  0  0  0  0  0  0  0  0  0  0
   62.9410   31.5080   47.5800 C   0  0  0  0  0  0  0  0  0  0  0  0
   63.8537   30.9171   47.7467 H   0  0  0  0  0  0  0  0  0  0  0  0
   61.7160   30.8610   47.3980 C   0  0  0  0  0  0  0  0  0  0  0  0
   61.6724   29.7619   47.4107 H   0  0  0  0  0  0  0  0  0  0  0  0
   60.5340   31.6060   47.1980 C   0  0  0  0  0  0  0  0  0  0  0  0
   57.9970   30.0790   43.9810 S   0  0  0  0  0  0  0  0  0  0  0  0
   56.5080   30.2820   43.2270 C   0  0  0  0  0  0  0  0  0  0  0  0
   56.3406   30.7376   42.2399 H   0  0  0  0  0  0  0  0  0  0  0  0
  1  2  1  0
  2  3  1  0
  3  4  1  0
  4  5  2  0
  5  6  1  0
  6  7  2  0
  6  8  1  0
  8  9  2  0
  9 10  1  0
 10 11  1  0
 11 12  1  0
 11 13  1  0
 11 14  1  0
 14 15  1  0
 14 16  1  0
 14 17  1  0
 17 18  1  0
 17 19  1  0
 17 20  1  0
 10 21  1  0
 21 22  2  0
 21 23  1  0
 23 24  2  0
 24 25  1  0
 24 26  1  0
 26 27  1  0
 26 28  2  0
 28 29  1  0
 28 30  1  0
 30 31  1  0
 30 32  2  0
  4 33  1  0
 33 34  1  0
 34 35  1  0
 34  2  2  0
 32  8  1  0
 32 23  1  0
M  CHG  1   3  -1
M  END
>  <UniqueID>  (14) 
13

>  <SMILES>  (14) 
CCCn1nc(C(=O)/N=c2/[n-]ccs2)c2ccccc2c1=O

>  <Energy>  (14) 
79.28474903030978

>  <Genealogy>  (14) 
CCCn1nc(C(=O)N=c2[n-]ccs2)c2ccccc2c1=O (protonated)
CCCn1nc(C(=O)/N=c2/[n-]ccs2)c2ccccc2c1=O (cis-trans isomerization)
CCCn1nc(C(=O)/N=c2/[n-]ccs2)c2ccccc2c1=O (3D coordinates assigned)
CCCn1nc(C(=O)/N=c2/[n-]ccs2)c2ccccc2c1=O (optimized conformer: 79.28474903030978 kcal/mol)

>  <smiles>  (14) 
CCCn1nc(C(=O)N=c2[nH]ccs2)c2ccccc2c1=O

>  <score_type>  (14) 
oracle

>  <origin>  (14) 
adg

>  <m_score__min__energy>  (14) 
-8.5899999999999999

>  <m_primary>  (14) 
energy

$$$$
14:0
     RDKit          3D

 37 38  0  0  0  0  0  0  0  0999 V2000
   56.4500   29.8410   42.6090 C   0  0  0  0  0  0  0  0  0  0  0  0
   56.3830   29.9850   44.3830 S   0  0  0  0  0  0  0  0  0  0  0  0
   57.5790   29.2800   44.9550 O   0  0  0  0  0  0  0  0  0  0  0  0
   55.1340   29.3340   44.9070 O   0  0  0  0  0  0  0  0  0  0  0  0
   56.4400   31.6510   44.8720 N   0  0  0  0  0  0  0  0  0  0  0  0
   57.5450   32.5370   44.6600 C   0  0  0  0  0  0  0  0  0  0  0  0
   57.4910   33.3550   43.7040 O   0  0  0  0  0  0  0  0  0  0  0  0
   58.7410   32.5240   45.5230 C   0  0  0  0  0  0  0  0  0  0  0  0
   59.0590   31.3920   46.2870 C   0  0  0  0  0  0  0  0  0  0  0  0
   60.1930   31.3870   47.1030 C   0  0  0  0  0  0  0  0  0  0  0  0
   61.0370   32.5110   47.1600 C   0  0  0  0  0  0  0  0  0  0  0  0
   62.2400   32.5090   48.0320 C   0  0  0  0  0  0  0  0  0  0  0  0
   63.2860   33.4230   47.8080 C   0  0  0  0  0  0  0  0  0  0  0  0
   64.4170   33.4210   48.6280 C   0  0  0  0  0  0  0  0  0  0  0  0
   64.5240   32.5050   49.6820 C   0  0  0  0  0  0  0  0  0  0  0  0
   65.9420   32.5160   50.7250 S   0  0  0  0  0  0  0  0  0  0  0  0
   66.2680   30.8630   51.2930 C   0  0  0  0  0  0  0  0  0  0  0  0
   65.6990   33.4150   51.9050 O   0  0  0  0  0  0  0  0  0  0  0  0
   67.1320   33.0300   49.9640 O   0  0  0  0  0  0  0  0  0  0  0  0
   63.4830   31.5970   49.9160 C   0  0  0  0  0  0  0  0  0  0  0  0
   62.3510   31.5970   49.0970 C   0  0  0  0  0  0  0  0  0  0  0  0
   60.7280   33.6340   46.3730 C   0  0  0  0  0  0  0  0  0  0  0  0
   59.5930   33.6360   45.5560 C   0  0  0  0  0  0  0  0  0  0  0  0
   56.8996   28.8748   42.3363 H   0  0  0  0  0  0  0  0  0  0  0  0
   55.4316   29.9007   42.1976 H   0  0  0  0  0  0  0  0  0  0  0  0
   57.0602   30.6585   42.1976 H   0  0  0  0  0  0  0  0  0  0  0  0
   58.4122   30.5033   46.2436 H   0  0  0  0  0  0  0  0  0  0  0  0
   60.4277   30.4972   47.7056 H   0  0  0  0  0  0  0  0  0  0  0  0
   63.2126   34.1446   46.9810 H   0  0  0  0  0  0  0  0  0  0  0  0
   65.2272   34.1422   48.4450 H   0  0  0  0  0  0  0  0  0  0  0  0
   66.2711   30.8472   52.3929 H   0  0  0  0  0  0  0  0  0  0  0  0
   65.4861   30.1858   50.9188 H   0  0  0  0  0  0  0  0  0  0  0  0
   67.2485   30.5334   50.9188 H   0  0  0  0  0  0  0  0  0  0  0  0
   63.5572   30.8812   50.7479 H   0  0  0  0  0  0  0  0  0  0  0  0
   61.5403   30.8781   49.2866 H   0  0  0  0  0  0  0  0  0  0  0  0
   61.3833   34.5171   46.4000 H   0  0  0  0  0  0  0  0  0  0  0  0
   59.3677   34.5159   44.9355 H   0  0  0  0  0  0  0  0  0  0  0  0
  1  2  1  0
  2  3  2  0
  2  4  2  0
  2  5  1  0
  5  6  1  0
  6  7  2  0
  6  8  1  0
  8  9  2  0
  9 10  1  0
 10 11  2  0
 11 12  1  0
 12 13  2  0
 13 14  1  0
 14 15  2  0
 15 16  1  0
 16 17  1  0
 16 18  2  0
 16 19  2  0
 15 20  1  0
 20 21  2  0
 11 22  1  0
 22 23  2  0
 23  8  1  0
 21 12  1  0
  1 24  1  0
  1 25  1  0
  1 26  1  0
  9 27  1  0
 10 28  1  0
 13 29  1  0
 14 30  1  0
 17 31  1  0
 17 32  1  0
 17 33  1  0
 20 34  1  0
 21 35  1  0
 22 36  1  0
 23 37  1  0
M  CHG  1   5  -1
M  END
>  <UniqueID>  (15) 
14

>  <SMILES>  (15) 
CS(=O)(=O)[N-]C(=O)c1ccc(-c2ccc(S(C)(=O)=O)cc2)cc1

>  <Energy>  (15) 
43.29250716509698

>  <Genealogy>  (15) 
CS(=O)(=O)[N-]C(=O)c1ccc(-c2ccc(S(C)(=O)=O)cc2)cc1 (protonated)
CS(=O)(=O)[N-]C(=O)c1ccc(-c2ccc(S(C)(=O)=O)cc2)cc1 (3D coordinates assigned)
CS(=O)(=O)[N-]C(=O)c1ccc(-c2ccc(S(C)(=O)=O)cc2)cc1 (optimized conformer: 43.29250716509698 kcal/mol)

>  <smiles>  (15) 
CS(=O)(=O)NC(=O)c1ccc(-c2ccc(S(C)(=O)=O)cc2)cc1

>  <score_type>  (15) 
oracle

>  <origin>  (15) 
adg

>  <m_score__min__energy>  (15) 
-9.4800000000000004

>  <m_primary>  (15) 
energy

$$$$
15:0
     RDKit          3D

 47 50  0  0  0  0  0  0  0  0999 V2000
   59.8520   34.6320   48.7950 O   0  0  0  0  0  0  0  0  0  0  0  0
   60.4490   34.3170   47.7300 C   0  0  0  0  0  0  0  0  0  0  0  0
   59.7480   34.3810   46.4240 C   0  0  0  0  0  0  0  0  0  0  0  0
   59.7180   35.4910   45.8230 O   0  0  0  0  0  0  0  0  0  0  0  0
   59.1090   33.2300   45.8150 N   0  0  0  0  0  0  0  0  0  0  0  0
   59.5100   31.8600   46.1680 C   0  0  0  0  0  0  0  0  0  0  0  0
   58.7930   30.8300   45.2880 C   0  0  0  0  0  0  0  0  0  0  0  0
   57.3430   31.1050   45.2750 N   0  0  0  0  0  0  0  0  0  0  0  0
   56.6520   30.0600   44.5430 C   0  0  0  0  0  0  0  0  0  0  0  0
   55.4320   30.0750   44.4550 O   0  0  0  0  0  0  0  0  0  0  0  0
   57.4150   28.9570   43.8560 C   0  0  0  0  0  0  0  0  0  0  0  0
   57.7760   27.8950   44.8450 C   0  0  0  0  0  0  0  0  0  0  0  0
   59.0460   27.3630   45.0410 C   0  0  0  0  0  0  0  0  0  0  0  0
   59.0690   26.3190   45.9740 C   0  0  0  0  0  0  0  0  0  0  0  0
   57.8200   26.0180   46.5050 C   0  0  0  0  0  0  0  0  0  0  0  0
   56.6870   27.0490   45.8070 S   0  0  0  0  0  0  0  0  0  0  0  0
   57.0060   32.4480   44.7250 C   0  0  0  0  0  0  0  0  0  0  0  0
   58.1960   33.4320   44.6790 C   0  0  0  0  0  0  0  0  0  0  0  0
   61.8350   33.8160   47.8270 C   0  0  0  0  0  0  0  0  0  0  0  0
   62.5560   33.2240   46.7950 C   0  0  0  0  0  0  0  0  0  0  0  0
   63.7900   32.8700   47.2190 N   0  0  0  0  0  0  0  0  0  0  0  0
   63.8500   33.2140   48.5160 C   0  0  0  0  0  0  0  0  0  0  0  0
   64.9160   33.0120   49.3890 C   0  0  0  0  0  0  0  0  0  0  0  0
   64.7560   33.4100   50.7290 C   0  0  0  0  0  0  0  0  0  0  0  0
   63.5400   33.9790   51.1630 C   0  0  0  0  0  0  0  0  0  0  0  0
   62.4780   34.1670   50.2610 C   0  0  0  0  0  0  0  0  0  0  0  0
   62.6740   33.7890   48.9300 C   0  0  0  0  0  0  0  0  0  0  0  0
   60.5963   31.7568   46.0291 H   0  0  0  0  0  0  0  0  0  0  0  0
   59.2345   31.6750   47.2167 H   0  0  0  0  0  0  0  0  0  0  0  0
   59.1852   30.8904   44.2621 H   0  0  0  0  0  0  0  0  0  0  0  0
   58.9675   29.8224   45.6933 H   0  0  0  0  0  0  0  0  0  0  0  0
   57.0190   31.0800   46.2720 H   0  0  0  0  0  0  0  0  0  0  0  0
   56.7898   28.5199   43.0635 H   0  0  0  0  0  0  0  0  0  0  0  0
   58.3349   29.3716   43.4180 H   0  0  0  0  0  0  0  0  0  0  0  0
   59.9420   27.7257   44.5161 H   0  0  0  0  0  0  0  0  0  0  0  0
   59.9886   25.7873   46.2598 H   0  0  0  0  0  0  0  0  0  0  0  0
   57.6084   25.2397   47.2529 H   0  0  0  0  0  0  0  0  0  0  0  0
   56.6282   32.3159   43.7004 H   0  0  0  0  0  0  0  0  0  0  0  0
   56.2591   32.8878   45.4022 H   0  0  0  0  0  0  0  0  0  0  0  0
   58.7516   33.2770   43.7424 H   0  0  0  0  0  0  0  0  0  0  0  0
   57.7984   34.4561   44.7346 H   0  0  0  0  0  0  0  0  0  0  0  0
   62.1749   33.0658   45.7753 H   0  0  0  0  0  0  0  0  0  0  0  0
   64.5360   32.4110   46.6520 H   0  0  0  0  0  0  0  0  0  0  0  0
   65.8544   32.5552   49.0416 H   0  0  0  0  0  0  0  0  0  0  0  0
   65.5831   33.2769   51.4419 H   0  0  0  0  0  0  0  0  0  0  0  0
   63.4220   34.2778   52.2150 H   0  0  0  0  0  0  0  0  0  0  0  0
   61.5221   34.5984   50.5928 H   0  0  0  0  0  0  0  0  0  0  0  0
  1  2  2  0
  2  3  1  0
  3  4  2  0
  3  5  1  0
  5  6  1  0
  6  7  1  0
  7  8  1  0
  8  9  1  0
  9 10  2  0
  9 11  1  0
 11 12  1  0
 12 13  2  0
 13 14  1  0
 14 15  2  0
 15 16  1  0
  8 17  1  0
 17 18  1  0
  2 19  1  0
 19 20  2  0
 20 21  1  0
 21 22  1  0
 22 23  2  0
 23 24  1  0
 24 25  2  0
 25 26  1  0
 26 27  2  0
 18  5  1  0
 27 19  1  0
 16 12  1  0
 27 22  1  0
  6 28  1  0
  6 29  1  0
  7 30  1  0
  7 31  1  0
  8 32  1  0
 11 33  1  0
 11 34  1  0
 13 35  1  0
 14 36  1  0
 15 37  1  0
 17 38  1  0
 17 39  1  0
 18 40  1  0
 18 41  1  0
 20 42  1  0
 21 43  1  0
 23 44  1  0
 24 45  1  0
 25 46  1  0
 26 47  1  0
M  CHG  1   8   1
M  END
>  <UniqueID>  (16) 
15

>  <SMILES>  (16) 
O=C(C(=O)N1CC[NH+](C(=O)Cc2cccs2)CC1)c1c[nH]c2ccccc12

>  <Energy>  (16) 
120.5578252661738

>  <Genealogy>  (16) 
O=C(C(=O)N1CC[NH+](C(=O)Cc2cccs2)CC1)c1c[nH]c2ccccc12 (protonated)
O=C(C(=O)N1CC[NH+](C(=O)Cc2cccs2)CC1)c1c[nH]c2ccccc12 (3D coordinates assigned)
O=C(C(=O)N1CC[NH+](C(=O)Cc2cccs2)CC1)c1c[nH]c2ccccc12 (nonaromatic ring conformer: 120.5578252661738 kcal/mol)

>  <smiles>  (16) 
O=C(C(=O)N1CCN(C(=O)Cc2cccs2)CC1)c1c[nH]c2ccccc12

>  <score_type>  (16) 
oracle

>  <origin>  (16) 
adg

>  <m_score__min__energy>  (16) 
-8.0800000000000001

>  <m_primary>  (16) 
energy

$$$$
16:0
     RDKit          3D

 45 48  0  0  0  0  0  0  0  0999 V2000
   60.0500   27.8820   46.4610 C   0  0  0  0  0  0  0  0  0  0  0  0
   60.2870   29.1400   47.0200 C   0  0  0  0  0  0  0  0  0  0  0  0
   59.7910   30.2910   46.3980 C   0  0  0  0  0  0  0  0  0  0  0  0
   59.0450   30.1930   45.2020 C   0  0  0  0  0  0  0  0  0  0  0  0
   58.4780   31.3930   44.4610 C   0  0  1  0  0  0  0  0  0  0  0  0
   57.1060   31.2230   43.8120 C   0  0  0  0  0  0  0  0  0  0  0  0
   57.2560   32.0760   45.0710 C   0  0  2  0  0  0  0  0  0  0  0  0
   57.1610   33.5960   44.8380 C   0  0  0  0  0  0  0  0  0  0  0  0
   57.9270   34.3420   45.8610 N   0  0  0  0  0  0  0  0  0  0  0  0
   58.0370   33.5770   47.1320 C   0  0  0  0  0  0  0  0  0  0  0  0
   59.2680   33.9640   47.9610 C   0  0  0  0  0  0  0  0  0  0  0  0
   60.4870   33.7850   47.1640 N   0  0  0  0  0  0  0  0  0  0  0  0
   61.7470   33.4480   47.7830 C   0  0  0  0  0  0  0  0  0  0  0  0
   62.5580   32.4160   47.2760 C   0  0  0  0  0  0  0  0  0  0  0  0
   63.7680   32.1190   47.9070 C   0  0  0  0  0  0  0  0  0  0  0  0
   64.1620   32.8430   49.0330 C   0  0  0  0  0  0  0  0  0  0  0  0
   63.3330   33.8550   49.5170 C   0  0  0  0  0  0  0  0  0  0  0  0
   62.1580   34.1320   48.8900 N   0  0  0  0  0  0  0  0  0  0  0  0
   60.4040   33.9080   45.7050 C   0  0  0  0  0  0  0  0  0  0  0  0
   59.2280   34.8160   45.3210 C   0  0  0  0  0  0  0  0  0  0  0  0
   58.8160   28.9190   44.6540 C   0  0  0  0  0  0  0  0  0  0  0  0
   59.3150   27.7720   45.2790 C   0  0  0  0  0  0  0  0  0  0  0  0
   60.4421   26.9789   46.9516 H   0  0  0  0  0  0  0  0  0  0  0  0
   60.8652   29.2260   47.9518 H   0  0  0  0  0  0  0  0  0  0  0  0
   59.9830   31.2785   46.8429 H   0  0  0  0  0  0  0  0  0  0  0  0
   59.4664   31.7311   44.1165 H   0  0  0  0  0  0  0  0  0  0  0  0
   56.8916   31.7021   42.8453 H   0  0  0  0  0  0  0  0  0  0  0  0
   56.4826   30.3636   43.5242 H   0  0  0  0  0  0  0  0  0  0  0  0
   56.7915   32.0897   46.0680 H   0  0  0  0  0  0  0  0  0  0  0  0
   57.5658   33.8327   43.8430 H   0  0  0  0  0  0  0  0  0  0  0  0
   56.1044   33.8941   44.9072 H   0  0  0  0  0  0  0  0  0  0  0  0
   57.1358   33.7660   47.7338 H   0  0  0  0  0  0  0  0  0  0  0  0
   58.1396   32.5141   46.8679 H   0  0  0  0  0  0  0  0  0  0  0  0
   59.1845   35.0172   48.2671 H   0  0  0  0  0  0  0  0  0  0  0  0
   59.3209   33.3196   48.8509 H   0  0  0  0  0  0  0  0  0  0  0  0
   62.2413   31.8474   46.3892 H   0  0  0  0  0  0  0  0  0  0  0  0
   64.4097   31.3153   47.5168 H   0  0  0  0  0  0  0  0  0  0  0  0
   65.1155   32.6182   49.5332 H   0  0  0  0  0  0  0  0  0  0  0  0
   63.6297   34.4297   50.4067 H   0  0  0  0  0  0  0  0  0  0  0  0
   61.3395   34.3420   45.3222 H   0  0  0  0  0  0  0  0  0  0  0  0
   60.2486   32.9111   45.2668 H   0  0  0  0  0  0  0  0  0  0  0  0
   59.4227   35.8256   45.7119 H   0  0  0  0  0  0  0  0  0  0  0  0
   59.1511   34.8078   44.2237 H   0  0  0  0  0  0  0  0  0  0  0  0
   58.2378   28.8233   43.7231 H   0  0  0  0  0  0  0  0  0  0  0  0
   59.1282   26.7814   44.8387 H   0  0  0  0  0  0  0  0  0  0  0  0
  1  2  2  0
  2  3  1  0
  3  4  2  0
  4  5  1  0
  5  6  1  0
  6  7  1  0
  7  8  1  0
  8  9  1  0
  9 10  1  0
 10 11  1  0
 11 12  1  0
 12 13  1  0
 13 14  2  0
 14 15  1  0
 15 16  2  0
 16 17  1  0
 17 18  2  0
 12 19  1  0
 19 20  1  0
  4 21  1  0
 21 22  2  0
 22  1  1  0
  7  5  1  0
 20  9  1  0
 18 13  1  0
  1 23  1  0
  2 24  1  0
  3 25  1  0
  5 26  1  6
  6 27  1  0
  6 28  1  0
  7 29  1  1
  8 30  1  0
  8 31  1  0
 10 32  1  0
 10 33  1  0
 11 34  1  0
 11 35  1  0
 14 36  1  0
 15 37  1  0
 16 38  1  0
 17 39  1  0
 19 40  1  0
 19 41  1  0
 20 42  1  0
 20 43  1  0
 21 44  1  0
 22 45  1  0
M  END
>  <UniqueID>  (17) 
16

>  <SMILES>  (17) 
c1ccc([C@H]2C[C@@H]2CN2CCN(c3ccccn3)CC2)cc1

>  <Energy>  (17) 
327.1218318647015

>  <Genealogy>  (17) 
c1ccc([C@H]2C[C@@H]2CN2CCN(c3ccccn3)CC2)cc1 (chirality)
c1ccc([C@H]2C[C@@H]2CN2CCN(c3ccccn3)CC2)cc1 (3D coordinates assigned)
c1ccc([C@H]2C[C@@H]2CN2CCN(c3ccccn3)CC2)cc1 (nonaromatic ring conformer: 327.1218318647015 kcal/mol)

>  <smiles>  (17) 
c1ccc(C2CC2CN2CCN(c3ccccn3)CC2)cc1

>  <score_type>  (17) 
oracle

>  <origin>  (17) 
adg

>  <m_score__min__energy>  (17) 
-7.9800000000000004

>  <m_primary>  (17) 
energy

$$$$
17:0
     RDKit          3D

 57 59  0  0  0  0  0  0  0  0999 V2000
   62.5210   34.3930   49.3020 C   0  0  0  0  0  0  0  0  0  0  0  0
   62.9550   32.9120   49.3080 C   0  0  0  0  0  0  0  0  0  0  0  0
   63.7050   32.5960   48.0030 C   0  0  0  0  0  0  0  0  0  0  0  0
   61.8060   31.9950   49.6140 N   0  0  0  0  0  0  0  0  0  0  0  0
   62.1670   30.6570   50.1580 C   0  0  0  0  0  0  0  0  0  0  0  0
   62.2150   30.5980   51.6950 C   0  0  0  0  0  0  0  0  0  0  0  0
   60.9800   31.1080   52.3110 N   0  0  0  0  0  0  0  0  0  0  0  0
   59.8220   30.1990   52.1330 C   0  0  0  0  0  0  0  0  0  0  0  0
   59.1440   29.9370   53.4930 C   0  0  0  0  0  0  0  0  0  0  0  0
   57.8390   30.6140   53.6550 N   0  0  0  0  0  0  0  0  0  0  0  0
   57.1670   30.9890   52.3860 C   0  0  0  0  0  0  0  0  0  0  0  0
   55.9680   30.0840   52.0550 C   0  0  0  0  0  0  0  0  0  0  0  0
   54.9410   29.9910   53.2160 C   0  0  0  0  0  0  0  0  0  0  0  0
   53.6450   30.7160   52.8980 C   0  0  0  0  0  0  0  0  0  0  0  0
   52.6250   30.8370   53.8610 C   0  0  0  0  0  0  0  0  0  0  0  0
   51.4370   31.5080   53.5540 C   0  0  0  0  0  0  0  0  0  0  0  0
   51.2520   32.0630   52.2850 C   0  0  0  0  0  0  0  0  0  0  0  0
   50.0710   32.7320   51.9840 O   0  0  0  0  0  0  0  0  0  0  0  0
   52.2550   31.9460   51.3190 C   0  0  0  0  0  0  0  0  0  0  0  0
   53.4440   31.2760   51.6210 C   0  0  0  0  0  0  0  0  0  0  0  0
   55.5230   30.4670   54.5630 C   0  0  0  0  0  0  0  0  0  0  0  0
   56.9770   30.0090   54.6980 C   0  0  0  0  0  0  0  0  0  0  0  0
   60.7230   32.4930   51.8730 C   0  0  0  0  0  0  0  0  0  0  0  0
   60.6820   32.6480   50.3390 C   0  0  0  0  0  0  0  0  0  0  0  0
   62.4168   34.7487   50.3377 H   0  0  0  0  0  0  0  0  0  0  0  0
   63.2804   34.9955   48.7820 H   0  0  0  0  0  0  0  0  0  0  0  0
   61.5566   34.4904   48.7820 H   0  0  0  0  0  0  0  0  0  0  0  0
   63.6631   32.7302   50.1299 H   0  0  0  0  0  0  0  0  0  0  0  0
   64.6948   32.1790   48.2407 H   0  0  0  0  0  0  0  0  0  0  0  0
   63.1296   31.8638   47.4175 H   0  0  0  0  0  0  0  0  0  0  0  0
   63.8271   33.5192   47.4175 H   0  0  0  0  0  0  0  0  0  0  0  0
   61.3870   31.7830   48.6740 H   0  0  0  0  0  0  0  0  0  0  0  0
   61.4214   29.9284   49.8071 H   0  0  0  0  0  0  0  0  0  0  0  0
   63.1820   30.4310   49.7992 H   0  0  0  0  0  0  0  0  0  0  0  0
   62.3594   29.5524   52.0048 H   0  0  0  0  0  0  0  0  0  0  0  0
   63.0469   31.2344   52.0309 H   0  0  0  0  0  0  0  0  0  0  0  0
   59.0970   30.6624   51.4477 H   0  0  0  0  0  0  0  0  0  0  0  0
   60.1731   29.2443   51.7144 H   0  0  0  0  0  0  0  0  0  0  0  0
   58.9869   28.8534   53.5981 H   0  0  0  0  0  0  0  0  0  0  0  0
   59.8123   30.3451   54.2656 H   0  0  0  0  0  0  0  0  0  0  0  0
   56.8113   32.0265   52.4702 H   0  0  0  0  0  0  0  0  0  0  0  0
   57.9021   30.8735   51.5759 H   0  0  0  0  0  0  0  0  0  0  0  0
   55.4585   30.4874   51.1675 H   0  0  0  0  0  0  0  0  0  0  0  0
   56.3585   29.0709   51.8784 H   0  0  0  0  0  0  0  0  0  0  0  0
   54.7067   28.9215   53.3221 H   0  0  0  0  0  0  0  0  0  0  0  0
   52.7634   30.4009   54.8613 H   0  0  0  0  0  0  0  0  0  0  0  0
   50.6463   31.5991   54.3133 H   0  0  0  0  0  0  0  0  0  0  0  0
   52.1086   32.3817   50.3196 H   0  0  0  0  0  0  0  0  0  0  0  0
   54.2288   31.1853   50.8556 H   0  0  0  0  0  0  0  0  0  0  0  0
   55.4815   31.5652   54.6097 H   0  0  0  0  0  0  0  0  0  0  0  0
   54.9315   30.0353   55.3838 H   0  0  0  0  0  0  0  0  0  0  0  0
   57.3539   30.3047   55.6882 H   0  0  0  0  0  0  0  0  0  0  0  0
   57.0060   28.9161   54.5768 H   0  0  0  0  0  0  0  0  0  0  0  0
   59.7544   32.8151   52.2828 H   0  0  0  0  0  0  0  0  0  0  0  0
   61.5544   33.1118   52.2417 H   0  0  0  0  0  0  0  0  0  0  0  0
   59.7406   32.2098   49.9761 H   0  0  0  0  0  0  0  0  0  0  0  0
   60.7672   33.7255   50.1349 H   0  0  0  0  0  0  0  0  0  0  0  0
  1  2  1  0
  2  3  1  0
  2  4  1  0
  4  5  1  0
  5  6  1  0
  6  7  1  0
  7  8  1  0
  8  9  1  0
  9 10  1  0
 10 11  1  0
 11 12  1  0
 12 13  1  0
 13 14  1  0
 14 15  2  0
 15 16  1  0
 16 17  2  0
 17 18  1  0
 17 19  1  0
 19 20  2  0
 13 21  1  0
 21 22  1  0
  7 23  1  0
 23 24  1  0
 24  4  1  0
 22 10  1  0
 20 14  1  0
  1 25  1  0
  1 26  1  0
  1 27  1  0
  2 28  1  0
  3 29  1  0
  3 30  1  0
  3 31  1  0
  4 32  1  0
  5 33  1  0
  5 34  1  0
  6 35  1  0
  6 36  1  0
  8 37  1  0
  8 38  1  0
  9 39  1  0
  9 40  1  0
 11 41  1  0
 11 42  1  0
 12 43  1  0
 12 44  1  0
 13 45  1  0
 15 46  1  0
 16 47  1  0
 19 48  1  0
 20 49  1  0
 21 50  1  0
 21 51  1  0
 22 52  1  0
 22 53  1  0
 23 54  1  0
 23 55  1  0
 24 56  1  0
 24 57  1  0
M  CHG  2   4   1  18  -1
M  END
>  <UniqueID>  (18) 
17

>  <SMILES>  (18) 
CC(C)[NH+]1CCN(CCN2CCC(c3ccc([O-])cc3)CC2)CC1

>  <Energy>  (18) 
84.70394905897072

>  <Genealogy>  (18) 
CC(C)[NH+]1CCN(CCN2CCC(c3ccc([O-])cc3)CC2)CC1 (protonated)
CC(C)[NH+]1CCN(CCN2CCC(c3ccc([O-])cc3)CC2)CC1 (3D coordinates assigned)
CC(C)[NH+]1CCN(CCN2CCC(c3ccc([O-])cc3)CC2)CC1 (nonaromatic ring conformer: 84.70394905897072 kcal/mol)

>  <smiles>  (18) 
CC(C)N1CCN(CCN2CCC(c3ccc(O)cc3)CC2)CC1

>  <score_type>  (18) 
oracle

>  <origin>  (18) 
adg

>  <m_score__min__energy>  (18) 
-8.5800000000000001

>  <m_primary>  (18) 
energy

$$$$
18:0
     RDKit          3D

 35 38  0  0  0  0  0  0  0  0999 V2000
   58.5400   34.8540   46.2830 O   0  0  0  0  0  0  0  0  0  0  0  0
   58.3940   33.7340   45.8200 C   0  0  0  0  0  0  0  0  0  0  0  0
   58.2690   33.4590   44.3630 C   0  0  0  0  0  0  0  0  0  0  0  0
   58.1210   31.9370   44.2910 C   0  0  0  0  0  0  0  0  0  0  0  0
   58.1090   31.4580   45.6730 N   0  0  0  0  0  0  0  0  0  0  0  0
   58.1080   30.0630   46.0120 C   0  0  0  0  0  0  0  0  0  0  0  0
   57.0210   29.2650   45.6210 C   0  0  0  0  0  0  0  0  0  0  0  0
   56.9480   27.9260   46.0100 C   0  0  0  0  0  0  0  0  0  0  0  0
   55.8870   27.1630   45.6310 N   0  0  0  0  0  0  0  0  0  0  0  0
   55.7790   25.8560   45.9950 C   0  0  0  0  0  0  0  0  0  0  0  0
   54.7820   25.1840   45.6220 O   0  0  0  0  0  0  0  0  0  0  0  0
   56.7710   25.2630   46.7810 C   0  0  0  0  0  0  0  0  0  0  0  0
   57.8700   26.0230   47.1870 C   0  0  0  0  0  0  0  0  0  0  0  0
   57.9680   27.3670   46.8050 C   0  0  0  0  0  0  0  0  0  0  0  0
   59.0590   28.1560   47.1930 C   0  0  0  0  0  0  0  0  0  0  0  0
   59.1470   29.5010   46.7930 C   0  0  0  0  0  0  0  0  0  0  0  0
   60.3100   30.2650   47.1540 N   0  0  0  0  0  0  0  0  0  0  0  0
   61.4210   30.4940   46.4240 C   0  0  0  0  0  0  0  0  0  0  0  0
   62.3270   31.2050   47.1240 N   0  0  0  0  0  0  0  0  0  0  0  0
   61.7880   31.4220   48.3130 N   0  0  0  0  0  0  0  0  0  0  0  0
   60.5740   30.8490   48.3380 C   0  0  0  0  0  0  0  0  0  0  0  0
   58.3210   32.5120   46.6510 C   0  0  0  0  0  0  0  0  0  0  0  0
   57.3834   33.9592   43.9442 H   0  0  0  0  0  0  0  0  0  0  0  0
   59.1273   33.8312   43.7843 H   0  0  0  0  0  0  0  0  0  0  0  0
   57.1804   31.6695   43.7874 H   0  0  0  0  0  0  0  0  0  0  0  0
   58.9431   31.4828   43.7184 H   0  0  0  0  0  0  0  0  0  0  0  0
   56.2205   29.6981   45.0033 H   0  0  0  0  0  0  0  0  0  0  0  0
   56.6868   24.2070   47.0772 H   0  0  0  0  0  0  0  0  0  0  0  0
   58.6571   25.5671   47.8055 H   0  0  0  0  0  0  0  0  0  0  0  0
   59.8535   27.7193   47.8159 H   0  0  0  0  0  0  0  0  0  0  0  0
   61.5684   30.1455   45.3911 H   0  0  0  0  0  0  0  0  0  0  0  0
   62.2490   31.9460   49.0890 H   0  0  0  0  0  0  0  0  0  0  0  0
   59.8929   30.8557   49.2018 H   0  0  0  0  0  0  0  0  0  0  0  0
   57.4819   32.5667   47.3602 H   0  0  0  0  0  0  0  0  0  0  0  0
   59.2186   32.3548   47.2671 H   0  0  0  0  0  0  0  0  0  0  0  0
  1  2  2  0
  2  3  1  0
  3  4  1  0
  4  5  1  0
  5  6  1  0
  6  7  2  0
  7  8  1  0
  8  9  1  0
  9 10  1  0
 10 11  2  0
 10 12  1  0
 12 13  2  0
 13 14  1  0
 14 15  1  0
 15 16  2  0
 16 17  1  0
 17 18  1  0
 18 19  2  0
 19 20  1  0
 20 21  2  0
  5 22  1  0
 22  2  1  0
 16  6  1  0
 21 17  1  0
 14  8  2  0
  3 23  1  0
  3 24  1  0
  4 25  1  0
  4 26  1  0
  7 27  1  0
 12 28  1  0
 13 29  1  0
 15 30  1  0
 18 31  1  0
 20 32  1  0
 21 33  1  0
 22 34  1  0
 22 35  1  0
M  CHG  2   9  -1  20   1
M  END
>  <UniqueID>  (19) 
18

>  <SMILES>  (19) 
O=C1CCN(c2cc3[n-]c(=O)ccc3cc2-n2cn[nH+]c2)C1

>  <Energy>  (19) 
87.49526561423517

>  <Genealogy>  (19) 
O=C1CCN(c2cc3[n-]c(=O)ccc3cc2-n2cn[nH+]c2)C1 (protonated)
O=C1CCN(c2cc3[n-]c(=O)ccc3cc2-n2cn[nH+]c2)C1 (3D coordinates assigned)
O=C1CCN(c2cc3[n-]c(=O)ccc3cc2-n2cn[nH+]c2)C1 (nonaromatic ring conformer: 87.49526561423517 kcal/mol)

>  <smiles>  (19) 
O=C1CCN(c2cc3[nH]c(=O)ccc3cc2-n2cnnc2)C1

>  <score_type>  (19) 
oracle

>  <origin>  (19) 
adg

>  <m_score__min__energy>  (19) 
-7.3799999999999999

>  <m_primary>  (19) 
energy

$$$$
19:0
     RDKit          3D

 37 38  0  0  0  0  0  0  0  0999 V2000
   64.1320   32.7960   48.5800 C   0  0  0  0  0  0  0  0  0  0  0  0
   63.7090   32.6110   47.1220 C   0  0  0  0  0  0  0  0  0  0  0  0
   62.9820   33.8400   46.5590 C   0  0  0  0  0  0  0  0  0  0  0  0
   61.5390   33.8790   46.9890 C   0  0  0  0  0  0  0  0  0  0  0  0
   60.5180   33.8790   46.0320 C   0  0  0  0  0  0  0  0  0  0  0  0
   59.1900   33.8430   46.4660 C   0  0  0  0  0  0  0  0  0  0  0  0
   58.0660   33.7920   45.4740 C   0  0  0  0  0  0  0  0  0  0  0  0
   57.1970   32.6990   45.7630 O   0  0  0  0  0  0  0  0  0  0  0  0
   57.3940   31.4090   45.2600 C   0  0  0  0  0  0  0  0  0  0  0  0
   56.5530   30.8920   44.4740 O   0  0  0  0  0  0  0  0  0  0  0  0
   58.5840   30.6520   45.6600 C   0  0  0  0  0  0  0  0  0  0  0  0
   59.3210   29.7910   44.8540 C   0  0  0  0  0  0  0  0  0  0  0  0
   60.3980   29.1970   45.5230 C   0  0  0  0  0  0  0  0  0  0  0  0
   60.5120   29.5850   46.8520 C   0  0  0  0  0  0  0  0  0  0  0  0
   59.2700   30.6660   47.1960 S   0  0  0  0  0  0  0  0  0  0  0  0
   58.9190   33.8280   47.7980 N   0  0  0  0  0  0  0  0  0  0  0  0
   59.9190   33.8390   48.7170 C   0  0  0  0  0  0  0  0  0  0  0  0
   59.5140   33.8120   50.4620 S   0  0  0  0  0  0  0  0  0  0  0  0
   58.5620   32.2670   50.3330 C   0  0  0  0  0  0  0  0  0  0  0  0
   61.2180   33.8530   48.3140 N   0  0  0  0  0  0  0  0  0  0  0  0
   63.3276   32.4442   49.2426 H   0  0  0  0  0  0  0  0  0  0  0  0
   65.0462   32.2156   48.7730 H   0  0  0  0  0  0  0  0  0  0  0  0
   64.3265   33.8613   48.7730 H   0  0  0  0  0  0  0  0  0  0  0  0
   64.6074   32.4242   46.5153 H   0  0  0  0  0  0  0  0  0  0  0  0
   63.0099   31.7627   47.0825 H   0  0  0  0  0  0  0  0  0  0  0  0
   63.4862   34.7487   46.9197 H   0  0  0  0  0  0  0  0  0  0  0  0
   63.0112   33.7825   45.4609 H   0  0  0  0  0  0  0  0  0  0  0  0
   60.7562   33.9068   44.9585 H   0  0  0  0  0  0  0  0  0  0  0  0
   57.4958   34.7313   45.5238 H   0  0  0  0  0  0  0  0  0  0  0  0
   58.4855   33.6574   44.4661 H   0  0  0  0  0  0  0  0  0  0  0  0
   59.0820   29.5964   43.7980 H   0  0  0  0  0  0  0  0  0  0  0  0
   61.0890   28.4895   45.0414 H   0  0  0  0  0  0  0  0  0  0  0  0
   61.2828   29.2436   47.5587 H   0  0  0  0  0  0  0  0  0  0  0  0
   58.3316   31.8930   51.3415 H   0  0  0  0  0  0  0  0  0  0  0  0
   57.6248   32.4581   49.7898 H   0  0  0  0  0  0  0  0  0  0  0  0
   59.1541   31.5158   49.7898 H   0  0  0  0  0  0  0  0  0  0  0  0
   61.9760   33.8420   49.0330 H   0  0  0  0  0  0  0  0  0  0  0  0
  1  2  1  0
  2  3  1  0
  3  4  1  0
  4  5  2  0
  5  6  1  0
  6  7  1  0
  7  8  1  0
  8  9  1  0
  9 10  2  0
  9 11  1  0
 11 12  2  0
 12 13  1  0
 13 14  2  0
 14 15  1  0
  6 16  2  0
 16 17  1  0
 17 18  1  0
 18 19  1  0
 17 20  2  0
 20  4  1  0
 15 11  1  0
  1 21  1  0
  1 22  1  0
  1 23  1  0
  2 24  1  0
  2 25  1  0
  3 26  1  0
  3 27  1  0
  5 28  1  0
  7 29  1  0
  7 30  1  0
 12 31  1  0
 13 32  1  0
 14 33  1  0
 19 34  1  0
 19 35  1  0
 19 36  1  0
 20 37  1  0
M  CHG  1  20   1
M  END
>  <UniqueID>  (20) 
19

>  <SMILES>  (20) 
CCCc1cc(COC(=O)c2cccs2)nc(SC)[nH+]1

>  <Energy>  (20) 
49.62855010764147

>  <Genealogy>  (20) 
CCCc1cc(COC(=O)c2cccs2)nc(SC)[nH+]1 (protonated)
CCCc1cc(COC(=O)c2cccs2)nc(SC)[nH+]1 (3D coordinates assigned)
CCCc1cc(COC(=O)c2cccs2)nc(SC)[nH+]1 (optimized conformer: 49.62855010764147 kcal/mol)

>  <smiles>  (20) 
CCCc1cc(COC(=O)c2cccs2)nc(SC)n1

>  <score_type>  (20) 
oracle

>  <origin>  (20) 
adg

>  <m_score__min__energy>  (20) 
-5.1200000000000001

>  <m_primary>  (20) 
energy

$$$$
20:0
     RDKit          3D

 38 39  0  0  0  0  0  0  0  0999 V2000
   57.4020   32.0160   41.7920 C   0  0  0  0  0  0  0  0  0  0  0  0
   57.8170   31.5750   43.1860 C   0  0  0  0  0  0  0  0  0  0  0  0
   56.6650   31.1750   43.9210 O   0  0  0  0  0  0  0  0  0  0  0  0
   56.6310   30.0190   44.7060 C   0  0  0  0  0  0  0  0  0  0  0  0
   55.5500   29.3890   44.8510 O   0  0  0  0  0  0  0  0  0  0  0  0
   57.8710   29.5340   45.3500 C   0  0  0  0  0  0  0  0  0  0  0  0
   58.6360   30.1400   46.3520 C   0  0  0  0  0  0  0  0  0  0  0  0
   58.4630   31.5110   46.9700 C   0  0  0  0  0  0  0  0  0  0  0  0
   59.0920   32.6040   46.1930 N   0  0  0  0  0  0  0  0  0  0  0  0
   60.3090   33.1810   46.8070 C   0  0  0  0  0  0  0  0  0  0  0  0
   60.0690   34.6220   47.2910 C   0  0  0  0  0  0  0  0  0  0  0  0
   59.6520   35.5040   46.2570 O   0  0  0  0  0  0  0  0  0  0  0  0
   58.8750   34.8780   45.2430 C   0  0  0  0  0  0  0  0  0  0  0  0
   58.1310   33.6190   45.7160 C   0  0  0  0  0  0  0  0  0  0  0  0
   59.6240   29.2940   46.7100 N   0  0  0  0  0  0  0  0  0  0  0  0
   59.5490   28.2010   45.9710 N   0  0  0  0  0  0  0  0  0  0  0  0
   60.4340   27.0480   46.1260 C   0  0  0  0  0  0  0  0  0  0  0  0
   58.4960   28.3100   45.1350 C   0  0  0  0  0  0  0  0  0  0  0  0
   57.9990   27.1230   44.1130 S   0  0  0  0  0  0  0  0  0  0  0  0
   56.6500   32.8151   41.8689 H   0  0  0  0  0  0  0  0  0  0  0  0
   58.2819   32.3915   41.2491 H   0  0  0  0  0  0  0  0  0  0  0  0
   56.9738   31.1605   41.2491 H   0  0  0  0  0  0  0  0  0  0  0  0
   58.5153   30.7285   43.1099 H   0  0  0  0  0  0  0  0  0  0  0  0
   58.3092   32.4117   43.7034 H   0  0  0  0  0  0  0  0  0  0  0  0
   57.3862   31.7202   47.0526 H   0  0  0  0  0  0  0  0  0  0  0  0
   58.9649   31.4855   47.9485 H   0  0  0  0  0  0  0  0  0  0  0  0
   60.6045   32.5603   47.6657 H   0  0  0  0  0  0  0  0  0  0  0  0
   61.1028   33.2008   46.0458 H   0  0  0  0  0  0  0  0  0  0  0  0
   59.2907   34.6035   48.0681 H   0  0  0  0  0  0  0  0  0  0  0  0
   61.0291   35.0001   47.6721 H   0  0  0  0  0  0  0  0  0  0  0  0
   58.1321   35.6029   44.8789 H   0  0  0  0  0  0  0  0  0  0  0  0
   59.5745   34.5587   44.4564 H   0  0  0  0  0  0  0  0  0  0  0  0
   57.4494   33.8872   46.5367 H   0  0  0  0  0  0  0  0  0  0  0  0
   57.5604   33.2028   44.8727 H   0  0  0  0  0  0  0  0  0  0  0  0
   60.3300   29.4530   47.4650 H   0  0  0  0  0  0  0  0  0  0  0  0
   60.5890   26.8460   47.1961 H   0  0  0  0  0  0  0  0  0  0  0  0
   59.9770   26.1683   45.6493 H   0  0  0  0  0  0  0  0  0  0  0  0
   61.4019   27.2620   45.6493 H   0  0  0  0  0  0  0  0  0  0  0  0
  1  2  1  0
  2  3  1  0
  3  4  1  0
  4  5  2  0
  4  6  1  0
  6  7  2  0
  7  8  1  0
  8  9  1  0
  9 10  1  0
 10 11  1  0
 11 12  1  0
 12 13  1  0
 13 14  1  0
  7 15  1  0
 15 16  1  0
 16 17  1  0
 16 18  1  0
 18 19  2  0
 18  6  1  0
 14  9  1  0
  1 20  1  0
  1 21  1  0
  1 22  1  0
  2 23  1  0
  2 24  1  0
  8 25  1  0
  8 26  1  0
 10 27  1  0
 10 28  1  0
 11 29  1  0
 11 30  1  0
 13 31  1  0
 13 32  1  0
 14 33  1  0
 14 34  1  0
 15 35  1  0
 17 36  1  0
 17 37  1  0
 17 38  1  0
M  END
>  <UniqueID>  (21) 
20

>  <SMILES>  (21) 
CCOC(=O)c1c(CN2CCOCC2)[nH]n(C)c1=S

>  <Energy>  (21) 
82.02888512256048

>  <Genealogy>  (21) 
CCOC(=O)c1c(CN2CCOCC2)[nH]n(C)c1=S (3D coordinates assigned)
CCOC(=O)c1c(CN2CCOCC2)[nH]n(C)c1=S (nonaromatic ring conformer: 82.02888512256048 kcal/mol)

>  <smiles>  (21) 
CCOC(=O)c1c(CN2CCOCC2)[nH]n(C)c1=S

>  <score_type>  (21) 
oracle

>  <origin>  (21) 
adg

>  <m_score__min__energy>  (21) 
-6.0800000000000001

>  <m_primary>  (21) 
energy

$$$$
21:0
     RDKit          3D

 36 38  0  0  1  0  0  0  0  0999 V2000
   54.1500   24.8380   45.6170 C   0  0  0  0  0  0  0  0  0  0  0  0
   54.7700   26.0450   45.9220 O   0  0  0  0  0  0  0  0  0  0  0  0
   56.0840   26.1840   46.3280 C   0  0  0  0  0  0  0  0  0  0  0  0
   56.7310   25.2310   47.0690 C   0  0  0  0  0  0  0  0  0  0  0  0
   58.0210   25.3030   47.5020 C   0  0  0  0  0  0  0  0  0  0  0  0
   58.7270   26.4670   47.1430 C   0  0  0  0  0  0  0  0  0  0  0  0
   58.0970   27.4250   46.4050 C   0  0  0  0  0  0  0  0  0  0  0  0
   58.7550   28.5710   46.0380 C   0  0  0  0  0  0  0  0  0  0  0  0
   59.9100   28.8000   46.3380 N   0  0  0  0  0  0  0  0  0  0  0  0
   60.5160   29.5170   47.3060 C   0  0  0  0  0  0  0  0  0  0  0  0
   61.1590   30.7340   46.9630 C   0  0  0  0  0  0  0  0  0  0  0  0
   61.6940   31.5340   47.9570 C   0  0  0  0  0  0  0  0  0  0  0  0
   61.6260   31.1870   49.2840 C   0  0  0  0  0  0  0  0  0  0  0  0
   61.0010   30.0000   49.6280 C   0  0  0  0  0  0  0  0  0  0  0  0
   60.4480   29.1610   48.6790 C   0  0  0  0  0  0  0  0  0  0  0  0
   58.0880   29.5110   45.2960 N   0  0  0  0  0  0  0  0  0  0  0  0
   56.8230   29.3410   44.9240 C   0  0  0  0  0  0  0  0  0  0  0  0
   55.9370   30.5710   43.9490 S   0  0  0  0  0  0  0  0  0  0  0  0
   57.0870   31.2150   42.7130 C   0  0  0  0  0  0  0  0  0  0  0  0
   56.1440   28.2380   45.2610 N   0  0  0  0  0  0  0  0  0  0  0  0
   56.7910   27.3110   45.9880 C   0  0  0  0  0  0  0  0  0  0  0  0
   53.8826   24.3175   46.5484 H   0  0  0  0  0  0  0  0  0  0  0  0
   53.2396   25.0313   45.0307 H   0  0  0  0  0  0  0  0  0  0  0  0
   54.8374   24.2106   45.0307 H   0  0  0  0  0  0  0  0  0  0  0  0
   56.1601   24.3299   47.3377 H   0  0  0  0  0  0  0  0  0  0  0  0
   58.4827   24.5005   48.0959 H   0  0  0  0  0  0  0  0  0  0  0  0
   59.7735   26.6019   47.4539 H   0  0  0  0  0  0  0  0  0  0  0  0
   61.2321   31.0410   45.9092 H   0  0  0  0  0  0  0  0  0  0  0  0
   62.1883   32.4757   47.6761 H   0  0  0  0  0  0  0  0  0  0  0  0
   62.0589   31.8383   50.0576 H   0  0  0  0  0  0  0  0  0  0  0  0
   60.9429   29.7162   50.6892 H   0  0  0  0  0  0  0  0  0  0  0  0
   59.9589   28.2245   48.9850 H   0  0  0  0  0  0  0  0  0  0  0  0
   57.9393   31.6923   43.2187 H   0  0  0  0  0  0  0  0  0  0  0  0
   57.4497   30.3887   42.0839 H   0  0  0  0  0  0  0  0  0  0  0  0
   56.5720   31.9560   42.0839 H   0  0  0  0  0  0  0  0  0  0  0  0
   55.1450   28.1120   44.9630 H   0  0  0  0  0  0  0  0  0  0  0  0
  1  2  1  0
  2  3  1  0
  3  4  2  0
  4  5  1  0
  5  6  2  0
  6  7  1  0
  7  8  1  0
  8  9  2  0
  9 10  1  0
 10 11  2  0
 11 12  1  0
 12 13  2  0
 13 14  1  0
 14 15  2  0
  8 16  1  0
 16 17  2  0
 17 18  1  0
 18 19  1  0
 17 20  1  0
 20 21  1  0
 21  3  1  0
 21  7  2  0
 15 10  1  0
  1 22  1  0
  1 23  1  0
  1 24  1  0
  4 25  1  0
  5 26  1  0
  6 27  1  0
 11 28  1  0
 12 29  1  0
 13 30  1  0
 14 31  1  0
 15 32  1  0
 19 33  1  0
 19 34  1  0
 19 35  1  0
 20 36  1  0
M  END
>  <smiles>  (22) 
COc1cccc2c(=Nc3ccccc3)nc(SC)[nH]c12

>  <score_type>  (22) 
oracle

>  <origin>  (22) 
adg

>  <m_score__min__energy>  (22) 
-7.1699999999999999

>  <m_primary>  (22) 
energy

$$$$
22:0
     RDKit          3D

 42 43  0  0  0  0  0  0  0  0999 V2000
   58.0580   34.1490   45.0100 C   0  0  0  0  0  0  0  0  0  0  0  0
   57.2130   32.9400   45.4080 C   0  0  0  0  0  0  0  0  0  0  0  0
   58.0750   31.7030   45.6880 C   0  0  0  0  0  0  0  0  0  0  0  0
   57.3930   30.4730   45.2130 N   0  0  0  0  0  0  0  0  0  0  0  0
   56.3110   30.7520   44.2420 C   0  0  0  0  0  0  0  0  0  0  0  0
   56.7240   30.5140   42.7740 C   0  0  0  0  0  0  0  0  0  0  0  0
   57.3890   31.7550   42.1860 C   0  0  0  0  0  0  0  0  0  0  0  0
   58.3280   29.4320   44.7330 C   0  0  0  0  0  0  0  0  0  0  0  0
   57.8620   28.0740   45.1540 C   0  0  0  0  0  0  0  0  0  0  0  0
   57.5630   27.6840   46.4380 C   0  0  0  0  0  0  0  0  0  0  0  0
   57.2540   26.4120   46.3960 O   0  0  0  0  0  0  0  0  0  0  0  0
   57.3610   26.0220   45.1440 C   0  0  0  0  0  0  0  0  0  0  0  0
   57.1000   24.6420   44.6900 C   0  0  0  0  0  0  0  0  0  0  0  0
   57.2550   23.5660   45.5790 C   0  0  0  0  0  0  0  0  0  0  0  0
   57.0100   22.2560   45.1530 C   0  0  0  0  0  0  0  0  0  0  0  0
   56.6080   22.0070   43.8380 C   0  0  0  0  0  0  0  0  0  0  0  0
   56.3680   20.6980   43.4270 O   0  0  0  0  0  0  0  0  0  0  0  0
   56.4510   23.0760   42.9460 C   0  0  0  0  0  0  0  0  0  0  0  0
   56.6960   24.3870   43.3680 C   0  0  0  0  0  0  0  0  0  0  0  0
   57.7440   27.0230   44.3200 N   0  0  0  0  0  0  0  0  0  0  0  0
   58.4156   34.6606   45.9158 H   0  0  0  0  0  0  0  0  0  0  0  0
   58.9196   33.8139   44.4138 H   0  0  0  0  0  0  0  0  0  0  0  0
   57.4473   34.8430   44.4138 H   0  0  0  0  0  0  0  0  0  0  0  0
   56.6431   33.1884   46.3155 H   0  0  0  0  0  0  0  0  0  0  0  0
   56.5423   32.7035   44.5688 H   0  0  0  0  0  0  0  0  0  0  0  0
   59.0375   31.8073   45.1659 H   0  0  0  0  0  0  0  0  0  0  0  0
   58.2376   31.6221   46.7729 H   0  0  0  0  0  0  0  0  0  0  0  0
   55.4578   30.0976   44.4740 H   0  0  0  0  0  0  0  0  0  0  0  0
   56.0576   31.8181   44.3378 H   0  0  0  0  0  0  0  0  0  0  0  0
   57.4309   29.6723   42.7309 H   0  0  0  0  0  0  0  0  0  0  0  0
   55.8210   30.2886   42.1876 H   0  0  0  0  0  0  0  0  0  0  0  0
   57.7376   32.4055   43.0017 H   0  0  0  0  0  0  0  0  0  0  0  0
   58.2461   31.4529   41.5662 H   0  0  0  0  0  0  0  0  0  0  0  0
   56.6628   32.3013   41.5662 H   0  0  0  0  0  0  0  0  0  0  0  0
   58.3814   29.4720   43.6350 H   0  0  0  0  0  0  0  0  0  0  0  0
   59.3210   29.6179   45.1683 H   0  0  0  0  0  0  0  0  0  0  0  0
   57.5801   28.3218   47.3341 H   0  0  0  0  0  0  0  0  0  0  0  0
   57.5707   23.7541   46.6158 H   0  0  0  0  0  0  0  0  0  0  0  0
   57.1343   21.4190   45.8558 H   0  0  0  0  0  0  0  0  0  0  0  0
   57.0290   19.9540   43.6160 H   0  0  0  0  0  0  0  0  0  0  0  0
   56.1340   22.8837   41.9104 H   0  0  0  0  0  0  0  0  0  0  0  0
   56.5720   25.2218   42.6624 H   0  0  0  0  0  0  0  0  0  0  0  0
  1  2  1  0
  2  3  1  0
  3  4  1  0
  4  5  1  0
  5  6  1  0
  6  7  1  0
  4  8  1  0
  8  9  1  0
  9 10  2  0
 10 11  1  0
 11 12  1  0
 12 13  1  0
 13 14  2  0
 14 15  1  0
 15 16  2  0
 16 17  1  0
 16 18  1  0
 18 19  2  0
 12 20  2  0
 20  9  1  0
 19 13  1  0
  1 21  1  0
  1 22  1  0
  1 23  1  0
  2 24  1  0
  2 25  1  0
  3 26  1  0
  3 27  1  0
  5 28  1  0
  5 29  1  0
  6 30  1  0
  6 31  1  0
  7 32  1  0
  7 33  1  0
  7 34  1  0
  8 35  1  0
  8 36  1  0
 10 37  1  0
 14 38  1  0
 15 39  1  0
 17 40  1  0
 18 41  1  0
 19 42  1  0
M  END
>  <UniqueID>  (23) 
21

>  <SMILES>  (23) 
CCCN(CCC)Cc1coc(-c2ccc(O)cc2)n1

>  <Energy>  (23) 
66.09590402805408

>  <Genealogy>  (23) 
CCCN(CCC)Cc1coc(-c2ccc(O)cc2)n1 (3D coordinates assigned)
CCCN(CCC)Cc1coc(-c2ccc(O)cc2)n1 (optimized conformer: 66.09590402805408 kcal/mol)

>  <smiles>  (23) 
CCCN(CCC)Cc1coc(-c2ccc(O)cc2)n1

>  <score_type>  (23) 
oracle

>  <origin>  (23) 
adg

>  <m_score__min__energy>  (23) 
-6.5300000000000002

>  <m_primary>  (23) 
energy

$$$$
23:0
     RDKit          3D

 37 40  0  0  0  0  0  0  0  0999 V2000
   60.6460   31.0900   50.6480 C   0  0  0  0  0  0  0  0  0  0  0  0
   60.7190   32.0290   49.5340 N   0  0  0  0  0  0  0  0  0  0  0  0
   59.6960   32.5700   48.8250 C   0  0  0  0  0  0  0  0  0  0  0  0
   58.4820   32.3770   49.1040 O   0  0  0  0  0  0  0  0  0  0  0  0
   60.1150   33.3360   47.7810 N   0  0  0  0  0  0  0  0  0  0  0  0
   59.2930   34.1230   46.8610 C   0  0  0  0  0  0  0  0  0  0  0  0
   58.7120   33.2300   45.7980 C   0  0  0  0  0  0  0  0  0  0  0  0
   58.4870   33.7240   44.5050 C   0  0  0  0  0  0  0  0  0  0  0  0
   57.9160   32.8980   43.5370 C   0  0  0  0  0  0  0  0  0  0  0  0
   57.5660   31.5840   43.8630 C   0  0  0  0  0  0  0  0  0  0  0  0
   56.9880   30.7320   42.9100 C   0  0  0  0  0  0  0  0  0  0  0  0
   56.6440   29.4230   43.2600 C   0  0  0  0  0  0  0  0  0  0  0  0
   56.8750   28.9590   44.5580 C   0  0  0  0  0  0  0  0  0  0  0  0
   57.4500   29.8000   45.5150 C   0  0  0  0  0  0  0  0  0  0  0  0
   57.8010   31.1170   45.1770 C   0  0  0  0  0  0  0  0  0  0  0  0
   58.3620   31.9470   46.1040 N   0  0  0  0  0  0  0  0  0  0  0  0
   61.4610   33.2630   47.8440 C   0  0  0  0  0  0  0  0  0  0  0  0
   62.4250   33.8420   47.0230 C   0  0  0  0  0  0  0  0  0  0  0  0
   63.7730   33.5690   47.3230 C   0  0  0  0  0  0  0  0  0  0  0  0
   64.0960   32.7340   48.4180 C   0  0  0  0  0  0  0  0  0  0  0  0
   63.1100   32.1880   49.1930 N   0  0  0  0  0  0  0  0  0  0  0  0
   61.8170   32.4660   48.8920 C   0  0  0  0  0  0  0  0  0  0  0  0
   60.6890   31.6436   51.5976 H   0  0  0  0  0  0  0  0  0  0  0  0
   59.7015   30.5288   50.5932 H   0  0  0  0  0  0  0  0  0  0  0  0
   61.4924   30.3896   50.5932 H   0  0  0  0  0  0  0  0  0  0  0  0
   58.4762   34.6019   47.4209 H   0  0  0  0  0  0  0  0  0  0  0  0
   59.9192   34.8916   46.3845 H   0  0  0  0  0  0  0  0  0  0  0  0
   58.7600   34.7598   44.2549 H   0  0  0  0  0  0  0  0  0  0  0  0
   57.7415   33.2791   42.5200 H   0  0  0  0  0  0  0  0  0  0  0  0
   56.8055   31.0939   41.8874 H   0  0  0  0  0  0  0  0  0  0  0  0
   56.1903   28.7564   42.5118 H   0  0  0  0  0  0  0  0  0  0  0  0
   56.6032   27.9278   44.8275 H   0  0  0  0  0  0  0  0  0  0  0  0
   57.6280   29.4293   46.5353 H   0  0  0  0  0  0  0  0  0  0  0  0
   58.5300   31.5930   47.0740 H   0  0  0  0  0  0  0  0  0  0  0  0
   62.1451   34.4855   46.1759 H   0  0  0  0  0  0  0  0  0  0  0  0
   64.5737   34.0043   46.7070 H   0  0  0  0  0  0  0  0  0  0  0  0
   65.1504   32.5216   48.6486 H   0  0  0  0  0  0  0  0  0  0  0  0
  1  2  1  0
  2  3  1  0
  3  4  2  0
  3  5  1  0
  5  6  1  0
  6  7  1  0
  7  8  2  0
  8  9  1  0
  9 10  2  0
 10 11  1  0
 11 12  2  0
 12 13  1  0
 13 14  2  0
 14 15  1  0
 15 16  2  0
  5 17  1  0
 17 18  2  0
 18 19  1  0
 19 20  2  0
 20 21  1  0
 21 22  2  0
 22  2  1  0
 16  7  1  0
 22 17  1  0
 15 10  1  0
  1 23  1  0
  1 24  1  0
  1 25  1  0
  6 26  1  0
  6 27  1  0
  8 28  1  0
  9 29  1  0
 11 30  1  0
 12 31  1  0
 13 32  1  0
 14 33  1  0
 16 34  1  0
 18 35  1  0
 19 36  1  0
 20 37  1  0
M  CHG  1  16   1
M  END
>  <UniqueID>  (24) 
22

>  <SMILES>  (24) 
Cn1c(=O)n(Cc2ccc3ccccc3[nH+]2)c2cccnc21

>  <Energy>  (24) 
86.14269132846535

>  <Genealogy>  (24) 
Cn1c(=O)n(Cc2ccc3ccccc3[nH+]2)c2cccnc21 (protonated)
Cn1c(=O)n(Cc2ccc3ccccc3[nH+]2)c2cccnc21 (3D coordinates assigned)
Cn1c(=O)n(Cc2ccc3ccccc3[nH+]2)c2cccnc21 (optimized conformer: 86.14269132846535 kcal/mol)

>  <smiles>  (24) 
Cn1c(=O)n(Cc2ccc3ccccc3n2)c2cccnc21

>  <score_type>  (24) 
oracle

>  <origin>  (24) 
adg

>  <m_score__min__energy>  (24) 
-6.3499999999999996

>  <m_primary>  (24) 
energy

$$$$
24:0
     RDKit          3D

 37 38  0  0  0  0  0  0  0  0999 V2000
   60.6140   28.9480   44.9240 C   0  0  0  0  0  0  0  0  0  0  0  0
   59.2370   29.1140   45.4160 N   0  0  0  0  0  0  0  0  0  0  0  0
   59.1300   28.5730   46.7820 C   0  0  0  0  0  0  0  0  0  0  0  0
   58.2620   28.4680   44.5050 C   0  0  0  0  0  0  0  0  0  0  0  0
   57.1500   29.4570   44.1340 C   0  0  0  0  0  0  0  0  0  0  0  0
   57.0470   30.5440   45.1180 N   0  0  0  0  0  0  0  0  0  0  0  0
   57.0130   31.8770   44.4960 C   0  0  0  0  0  0  0  0  0  0  0  0
   58.1020   32.7690   45.0180 C   0  0  0  0  0  0  0  0  0  0  0  0
   59.1740   32.3160   45.7000 N   0  0  0  0  0  0  0  0  0  0  0  0
   60.0000   33.3230   46.1010 C   0  0  0  0  0  0  0  0  0  0  0  0
   61.2380   33.0470   46.8760 C   0  0  0  0  0  0  0  0  0  0  0  0
   61.2910   32.0220   47.8420 C   0  0  0  0  0  0  0  0  0  0  0  0
   62.4670   31.7840   48.5600 C   0  0  0  0  0  0  0  0  0  0  0  0
   63.6020   32.5630   48.3260 C   0  0  0  0  0  0  0  0  0  0  0  0
   64.7410   32.3290   49.0240 F   0  0  0  0  0  0  0  0  0  0  0  0
   63.5630   33.5850   47.3760 C   0  0  0  0  0  0  0  0  0  0  0  0
   62.3890   33.8290   46.6560 C   0  0  0  0  0  0  0  0  0  0  0  0
   59.5650   34.6020   45.7360 C   0  0  0  0  0  0  0  0  0  0  0  0
   58.1170   34.4430   44.8950 S   0  0  0  0  0  0  0  0  0  0  0  0
   61.3013   28.8651   45.7788 H   0  0  0  0  0  0  0  0  0  0  0  0
   60.6775   28.0357   44.3127 H   0  0  0  0  0  0  0  0  0  0  0  0
   60.8925   29.8191   44.3127 H   0  0  0  0  0  0  0  0  0  0  0  0
   59.2900   29.3817   47.5102 H   0  0  0  0  0  0  0  0  0  0  0  0
   58.1290   28.1409   46.9279 H   0  0  0  0  0  0  0  0  0  0  0  0
   59.8912   27.7924   46.9279 H   0  0  0  0  0  0  0  0  0  0  0  0
   58.7793   28.1427   43.5904 H   0  0  0  0  0  0  0  0  0  0  0  0
   57.8163   27.5998   45.0126 H   0  0  0  0  0  0  0  0  0  0  0  0
   57.3699   29.8884   43.1463 H   0  0  0  0  0  0  0  0  0  0  0  0
   56.1942   28.9127   44.1190 H   0  0  0  0  0  0  0  0  0  0  0  0
   57.8640   30.4910   45.7710 H   0  0  0  0  0  0  0  0  0  0  0  0
   57.1364   31.7648   43.4087 H   0  0  0  0  0  0  0  0  0  0  0  0
   56.0465   32.3417   44.7408 H   0  0  0  0  0  0  0  0  0  0  0  0
   60.4007   31.4047   48.0325 H   0  0  0  0  0  0  0  0  0  0  0  0
   62.4981   30.9810   49.3111 H   0  0  0  0  0  0  0  0  0  0  0  0
   64.4570   34.1994   47.1934 H   0  0  0  0  0  0  0  0  0  0  0  0
   62.3642   34.6384   45.9116 H   0  0  0  0  0  0  0  0  0  0  0  0
   60.0806   35.5474   45.9602 H   0  0  0  0  0  0  0  0  0  0  0  0
  1  2  1  0
  2  3  1  0
  2  4  1  0
  4  5  1  0
  5  6  1  0
  6  7  1  0
  7  8  1  0
  8  9  2  0
  9 10  1  0
 10 11  1  0
 11 12  2  0
 12 13  1  0
 13 14  2  0
 14 15  1  0
 14 16  1  0
 16 17  2  0
 10 18  2  0
 18 19  1  0
 19  8  1  0
 17 11  1  0
  1 20  1  0
  1 21  1  0
  1 22  1  0
  3 23  1  0
  3 24  1  0
  3 25  1  0
  4 26  1  0
  4 27  1  0
  5 28  1  0
  5 29  1  0
  6 30  1  0
  7 31  1  0
  7 32  1  0
 12 33  1  0
 13 34  1  0
 16 35  1  0
 17 36  1  0
 18 37  1  0
M  END
>  <UniqueID>  (25) 
23

>  <SMILES>  (25) 
CN(C)CCNCc1nc(-c2ccc(F)cc2)cs1

>  <Energy>  (25) 
68.5105116180662

>  <Genealogy>  (25) 
CN(C)CCNCc1nc(-c2ccc(F)cc2)cs1 (3D coordinates assigned)
CN(C)CCNCc1nc(-c2ccc(F)cc2)cs1 (optimized conformer: 68.5105116180662 kcal/mol)

>  <smiles>  (25) 
CN(C)CCNCc1nc(-c2ccc(F)cc2)cs1

>  <score_type>  (25) 
oracle

>  <origin>  (25) 
adg

>  <m_score__min__energy>  (25) 
-6.7199999999999998

>  <m_primary>  (25) 
energy

$$$$
25:0
     RDKit          3D

 30 31  0  0  0  0  0  0  0  0999 V2000
   63.1410   32.4360   47.5000 C   0  0  0  0  0  0  0  0  0  0  0  0
   61.6980   32.7070   47.2870 C   0  0  0  0  0  0  0  0  0  0  0  0
   60.7020   31.8400   47.7370 C   0  0  0  0  0  0  0  0  0  0  0  0
   59.3600   32.1560   47.5020 C   0  0  0  0  0  0  0  0  0  0  0  0
   58.9920   33.3050   46.8340 C   0  0  0  0  0  0  0  0  0  0  0  0
   57.6300   33.6320   46.5910 N   0  0  0  0  0  0  0  0  0  0  0  0
   57.0340   33.5540   45.2560 C   0  0  0  0  0  0  0  0  0  0  0  0
   57.1160   32.1730   44.7120 C   0  0  0  0  0  0  0  0  0  0  0  0
   58.1690   31.7600   43.9100 C   0  0  0  0  0  0  0  0  0  0  0  0
   57.9250   30.4740   43.6020 N   0  0  0  0  0  0  0  0  0  0  0  0
   56.7690   30.0820   44.1800 C   0  0  0  0  0  0  0  0  0  0  0  0
   56.2690   31.1410   44.8690 N   0  0  0  0  0  0  0  0  0  0  0  0
   60.0100   34.1310   46.4080 C   0  0  0  0  0  0  0  0  0  0  0  0
   59.6370   35.3850   45.6790 C   0  0  0  0  0  0  0  0  0  0  0  0
   61.3450   33.8540   46.6200 C   0  0  0  0  0  0  0  0  0  0  0  0
   63.3513   32.3965   48.5790 H   0  0  0  0  0  0  0  0  0  0  0  0
   63.4050   31.4726   47.0395 H   0  0  0  0  0  0  0  0  0  0  0  0
   63.7366   33.2380   47.0395 H   0  0  0  0  0  0  0  0  0  0  0  0
   60.9696   30.9166   48.2716 H   0  0  0  0  0  0  0  0  0  0  0  0
   58.5777   31.4702   47.8593 H   0  0  0  0  0  0  0  0  0  0  0  0
   57.0390   33.9340   47.3800 H   0  0  0  0  0  0  0  0  0  0  0  0
   55.9774   33.8540   45.3164 H   0  0  0  0  0  0  0  0  0  0  0  0
   57.5897   34.2265   44.5860 H   0  0  0  0  0  0  0  0  0  0  0  0
   59.0312   32.3634   43.5899 H   0  0  0  0  0  0  0  0  0  0  0  0
   58.5150   29.8420   43.0100 H   0  0  0  0  0  0  0  0  0  0  0  0
   56.3135   29.0835   44.1061 H   0  0  0  0  0  0  0  0  0  0  0  0
   59.4018   36.1759   46.4065 H   0  0  0  0  0  0  0  0  0  0  0  0
   60.4785   35.7061   45.0476 H   0  0  0  0  0  0  0  0  0  0  0  0
   58.7568   35.1940   45.0476 H   0  0  0  0  0  0  0  0  0  0  0  0
   62.1196   34.5460   46.2578 H   0  0  0  0  0  0  0  0  0  0  0  0
  1  2  1  0
  2  3  2  0
  3  4  1  0
  4  5  2  0
  5  6  1  0
  6  7  1  0
  7  8  1  0
  8  9  2  0
  9 10  1  0
 10 11  1  0
 11 12  2  0
  5 13  1  0
 13 14  1  0
 13 15  2  0
 15  2  1  0
 12  8  1  0
  1 16  1  0
  1 17  1  0
  1 18  1  0
  3 19  1  0
  4 20  1  0
  6 21  1  0
  7 22  1  0
  7 23  1  0
  9 24  1  0
 10 25  1  0
 11 26  1  0
 14 27  1  0
 14 28  1  0
 14 29  1  0
 15 30  1  0
M  END
>  <smiles>  (26) 
Cc1ccc(NCc2c[nH]cn2)c(C)c1

>  <score_type>  (26) 
oracle

>  <origin>  (26) 
adg

>  <m_score__min__energy>  (26) 
-6.1699999999999999

>  <m_primary>  (26) 
energy

$$$$
26:0
     RDKit          3D

 58 61  0  0  0  0  0  0  0  0999 V2000
   62.5840   33.8170   51.2220 O   0  0  0  0  0  0  0  0  0  0  0  0
   62.7880   33.0680   49.9340 S   0  0  0  0  0  0  0  0  0  0  0  0
   64.1910   33.3440   49.4710 O   0  0  0  0  0  0  0  0  0  0  0  0
   62.5870   31.3660   50.1910 N   0  0  0  0  0  0  0  0  0  0  0  0
   61.4960   30.8260   50.9520 C   0  0  0  0  0  0  0  0  0  0  0  0
   61.4310   31.0600   52.3360 C   0  0  0  0  0  0  0  0  0  0  0  0
   60.4280   30.4710   53.1090 C   0  0  0  0  0  0  0  0  0  0  0  0
   59.4890   29.6300   52.5140 C   0  0  0  0  0  0  0  0  0  0  0  0
   58.5200   29.0540   53.2680 F   0  0  0  0  0  0  0  0  0  0  0  0
   59.5440   29.3810   51.1400 C   0  0  0  0  0  0  0  0  0  0  0  0
   60.5340   29.9810   50.3420 C   0  0  0  0  0  0  0  0  0  0  0  0
   60.5250   29.7220   48.8830 C   0  0  0  0  0  0  0  0  0  0  0  0
   60.0150   28.5250   48.3590 C   0  0  0  0  0  0  0  0  0  0  0  0
   60.0440   28.3340   46.9790 C   0  0  0  0  0  0  0  0  0  0  0  0
   60.5770   29.2870   46.1720 N   0  0  0  0  0  0  0  0  0  0  0  0
   61.0870   30.4340   46.6940 C   0  0  0  0  0  0  0  0  0  0  0  0
   61.0620   30.6430   48.0360 N   0  0  0  0  0  0  0  0  0  0  0  0
   61.6090   33.5870   48.7040 C   0  0  0  0  0  0  0  0  0  0  0  0
   60.2750   33.9230   49.0470 C   0  0  0  0  0  0  0  0  0  0  0  0
   59.6460   33.8230   50.6890 Cl  0  0  0  0  0  0  0  0  0  0  0  0
   59.3700   34.3160   48.0560 C   0  0  0  0  0  0  0  0  0  0  0  0
   59.7540   34.3560   46.7110 C   0  0  0  0  0  0  0  0  0  0  0  0
   58.7810   34.8080   45.6550 C   0  0  0  0  0  0  0  0  0  0  0  0
   57.6660   33.7700   45.4710 C   0  0  0  0  0  0  0  0  0  0  0  0
   58.0820   32.6450   44.5210 C   0  0  0  0  0  0  0  0  0  0  0  0
   57.1800   31.4810   44.6930 N   0  0  0  0  0  0  0  0  0  0  0  0
   57.8050   30.4120   45.4990 C   0  0  0  0  0  0  0  0  0  0  0  0
   56.9470   29.1280   45.5100 C   0  0  0  0  0  0  0  0  0  0  0  0
   55.5890   29.3790   45.0090 N   0  0  0  0  0  0  0  0  0  0  0  0
   55.6180   29.8830   43.6250 C   0  0  0  0  0  0  0  0  0  0  0  0
   56.7140   30.9470   43.4010 C   0  0  0  0  0  0  0  0  0  0  0  0
   61.0610   34.0040   46.3610 C   0  0  0  0  0  0  0  0  0  0  0  0
   61.9810   33.6080   47.3370 C   0  0  0  0  0  0  0  0  0  0  0  0
   63.5730   33.1020   46.7790 Cl  0  0  0  0  0  0  0  0  0  0  0  0
   63.1910   30.7240   49.6330 H   0  0  0  0  0  0  0  0  0  0  0  0
   62.1762   31.7124   52.8145 H   0  0  0  0  0  0  0  0  0  0  0  0
   60.3789   30.6711   54.1895 H   0  0  0  0  0  0  0  0  0  0  0  0
   58.8056   28.7090   50.6783 H   0  0  0  0  0  0  0  0  0  0  0  0
   59.6006   27.7528   49.0239 H   0  0  0  0  0  0  0  0  0  0  0  0
   59.6348   27.4106   46.5432 H   0  0  0  0  0  0  0  0  0  0  0  0
   61.5209   31.1945   46.0282 H   0  0  0  0  0  0  0  0  0  0  0  0
   58.3443   34.5970   48.3371 H   0  0  0  0  0  0  0  0  0  0  0  0
   58.3361   35.7668   45.9595 H   0  0  0  0  0  0  0  0  0  0  0  0
   59.3189   34.9246   44.7026 H   0  0  0  0  0  0  0  0  0  0  0  0
   57.4205   33.3348   46.4510 H   0  0  0  0  0  0  0  0  0  0  0  0
   56.7954   34.2802   45.0332 H   0  0  0  0  0  0  0  0  0  0  0  0
   58.0216   33.0032   43.4827 H   0  0  0  0  0  0  0  0  0  0  0  0
   59.1141   32.3407   44.7495 H   0  0  0  0  0  0  0  0  0  0  0  0
   58.7924   30.1771   45.0750 H   0  0  0  0  0  0  0  0  0  0  0  0
   57.8957   30.7722   46.5344 H   0  0  0  0  0  0  0  0  0  0  0  0
   57.4284   28.3719   44.8724 H   0  0  0  0  0  0  0  0  0  0  0  0
   56.8700   28.7753   46.5491 H   0  0  0  0  0  0  0  0  0  0  0  0
   55.1320   30.0970   45.6230 H   0  0  0  0  0  0  0  0  0  0  0  0
   55.8045   29.0375   42.9465 H   0  0  0  0  0  0  0  0  0  0  0  0
   54.6469   30.3592   43.4245 H   0  0  0  0  0  0  0  0  0  0  0  0
   57.5618   30.4886   42.8708 H   0  0  0  0  0  0  0  0  0  0  0  0
   56.2964   31.7705   42.8031 H   0  0  0  0  0  0  0  0  0  0  0  0
   61.3693   34.0389   45.3057 H   0  0  0  0  0  0  0  0  0  0  0  0
  1  2  2  0
  2  3  2  0
  2  4  1  0
  4  5  1  0
  5  6  2  0
  6  7  1  0
  7  8  2  0
  8  9  1  0
  8 10  1  0
 10 11  2  0
 11 12  1  0
 12 13  2  0
 13 14  1  0
 14 15  2  0
 15 16  1  0
 16 17  2  0
  2 18  1  0
 18 19  2  0
 19 20  1  0
 19 21  1  0
 21 22  2  0
 22 23  1  0
 23 24  1  0
 24 25  1  0
 25 26  1  0
 26 27  1  0
 27 28  1  0
 28 29  1  0
 29 30  1  0
 30 31  1  0
 22 32  1  0
 32 33  2  0
 33 34  1  0
 11  5  1  0
 17 12  1  0
 33 18  1  0
 31 26  1  0
  4 35  1  0
  6 36  1  0
  7 37  1  0
 10 38  1  0
 13 39  1  0
 14 40  1  0
 16 41  1  0
 21 42  1  0
 23 43  1  0
 23 44  1  0
 24 45  1  0
 24 46  1  0
 25 47  1  0
 25 48  1  0
 27 49  1  0
 27 50  1  0
 28 51  1  0
 28 52  1  0
 29 53  1  0
 30 54  1  0
 30 55  1  0
 31 56  1  0
 31 57  1  0
 32 58  1  0
M  END
>  <UniqueID>  (27) 
24

>  <SMILES>  (27) 
O=S(=O)(Nc1ccc(F)cc1-c1ccncn1)c1c(Cl)cc(CCCN2CCNCC2)cc1Cl

>  <Energy>  (27) 
83.3529818478632

>  <Genealogy>  (27) 
O=S(=O)(Nc1ccc(F)cc1-c1ccncn1)c1c(Cl)cc(CCCN2CCNCC2)cc1Cl (3D coordinates assigned)
O=S(=O)(Nc1ccc(F)cc1-c1ccncn1)c1c(Cl)cc(CCCN2CCNCC2)cc1Cl (nonaromatic ring conformer: 83.3529818478632 kcal/mol)

>  <smiles>  (27) 
O=S(=O)(Nc1ccc(F)cc1-c1ccncn1)c1c(Cl)cc(CCCN2CCNCC2)cc1Cl

>  <score_type>  (27) 
oracle

>  <origin>  (27) 
adg

>  <m_score__min__energy>  (27) 
-9.5099999999999998

>  <m_primary>  (27) 
energy

$$$$
27:0
     RDKit          3D

 22 23  0  0  0  0  0  0  0  0999 V2000
   57.0170   28.9860   43.2030 O   0  0  0  0  0  0  0  0  0  0  0  0
   56.6130   29.5560   44.5340 S   0  0  0  0  0  0  0  0  0  0  0  0
   55.1380   29.8370   44.5190 O   0  0  0  0  0  0  0  0  0  0  0  0
   56.9580   28.3930   45.7760 N   0  0  0  0  0  0  0  0  0  0  0  0
   56.6880   27.1260   45.6860 C   0  0  0  0  0  0  0  0  0  0  0  0
   55.4740   26.6270   45.9950 N   0  0  0  0  0  0  0  0  0  0  0  0
   55.4310   25.2770   45.8270 C   0  0  0  0  0  0  0  0  0  0  0  0
   56.6140   24.6970   45.3840 C   0  0  0  0  0  0  0  0  0  0  0  0
   57.7560   25.9180   45.1940 S   0  0  0  0  0  0  0  0  0  0  0  0
   57.4770   31.0570   44.8540 C   0  0  0  0  0  0  0  0  0  0  0  0
   58.1550   31.2430   46.0690 C   0  0  0  0  0  0  0  0  0  0  0  0
   58.8340   32.4400   46.3170 C   0  0  0  0  0  0  0  0  0  0  0  0
   58.8410   33.4540   45.3550 C   0  0  0  0  0  0  0  0  0  0  0  0
   58.1710   33.2710   44.1420 C   0  0  0  0  0  0  0  0  0  0  0  0
   57.4920   32.0750   43.8900 C   0  0  0  0  0  0  0  0  0  0  0  0
   54.5246   24.6869   46.0275 H   0  0  0  0  0  0  0  0  0  0  0  0
   56.7755   23.6261   45.1912 H   0  0  0  0  0  0  0  0  0  0  0  0
   58.1522   30.4460   46.8271 H   0  0  0  0  0  0  0  0  0  0  0  0
   59.3633   32.5838   47.2705 H   0  0  0  0  0  0  0  0  0  0  0  0
   59.3737   34.3959   45.5525 H   0  0  0  0  0  0  0  0  0  0  0  0
   58.1779   34.0688   43.3848 H   0  0  0  0  0  0  0  0  0  0  0  0
   56.9684   31.9324   42.9332 H   0  0  0  0  0  0  0  0  0  0  0  0
  1  2  2  0
  2  3  2  0
  2  4  1  0
  4  5  2  3
  5  6  1  0
  6  7  1  0
  7  8  2  0
  8  9  1  0
  2 10  1  0
 10 11  2  0
 11 12  1  0
 12 13  2  0
 13 14  1  0
 14 15  2  0
  9  5  1  0
 15 10  1  0
  7 16  1  0
  8 17  1  0
 11 18  1  0
 12 19  1  0
 13 20  1  0
 14 21  1  0
 15 22  1  0
M  CHG  1   6  -1
M  END
>  <UniqueID>  (28) 
25

>  <SMILES>  (28) 
O=S(=O)(N=c1[n-]ccs1)c1ccccc1

>  <Energy>  (28) 
56.04134964047919

>  <Genealogy>  (28) 
O=S(=O)(N=c1[n-]ccs1)c1ccccc1 (protonated)
O=S(=O)(N=c1[n-]ccs1)c1ccccc1 (3D coordinates assigned)
O=S(=O)(N=c1[n-]ccs1)c1ccccc1 (optimized conformer: 56.04134964047919 kcal/mol)

>  <smiles>  (28) 
O=S(=O)(N=c1[nH]ccs1)c1ccccc1

>  <score_type>  (28) 
oracle

>  <origin>  (28) 
adg

>  <m_score__min__energy>  (28) 
-8.1099999999999994

>  <m_primary>  (28) 
energy

$$$$
28:0
     RDKit          3D

 34 36  0  0  0  0  0  0  0  0999 V2000
   59.8107   35.7061   47.3866 H   0  0  0  0  0  0  0  0  0  0  0  0
   59.3330   34.8850   46.8320 C   0  0  0  0  0  0  0  0  0  0  0  0
   59.2280   34.9500   45.4790 N   0  0  0  0  0  0  0  0  0  0  0  0
   58.6410   33.9590   44.7580 C   0  0  0  0  0  0  0  0  0  0  0  0
   58.5783   34.0443   43.6631 H   0  0  0  0  0  0  0  0  0  0  0  0
   58.1130   32.8250   45.4010 C   0  0  0  0  0  0  0  0  0  0  0  0
   57.4810   31.7410   44.6040 C   0  0  0  0  0  0  0  0  0  0  0  0
   56.9870   30.6440   45.2440 N   0  0  0  0  0  0  0  0  0  0  0  0
   56.4070   29.6200   44.5650 C   0  0  0  0  0  0  0  0  0  0  0  0
   55.9280   28.6100   45.2300 N   0  0  0  0  0  0  0  0  0  0  0  0
   56.6760   27.5370   45.8280 C   0  0  0  0  0  0  0  0  0  0  0  0
   56.0530   26.2940   45.9900 C   0  0  0  0  0  0  0  0  0  0  0  0
   55.0199   26.1503   45.6406 H   0  0  0  0  0  0  0  0  0  0  0  0
   56.7360   25.2350   46.5930 C   0  0  0  0  0  0  0  0  0  0  0  0
   56.2449   24.2568   46.7024 H   0  0  0  0  0  0  0  0  0  0  0  0
   58.0400   25.4150   47.0570 C   0  0  0  0  0  0  0  0  0  0  0  0
   58.5763   24.5735   47.5199 H   0  0  0  0  0  0  0  0  0  0  0  0
   58.6700   26.6600   46.9370 C   0  0  0  0  0  0  0  0  0  0  0  0
   59.9750   26.7950   47.4370 O   0  0  0  0  0  0  0  0  0  0  0  0
   60.3820   27.8020   48.3570 C   0  0  0  0  0  0  0  0  0  0  0  0
   60.2357   27.4399   49.3853 H   0  0  0  0  0  0  0  0  0  0  0  0
   61.4451   28.0356   48.1983 H   0  0  0  0  0  0  0  0  0  0  0  0
   59.7797   28.7087   48.1983 H   0  0  0  0  0  0  0  0  0  0  0  0
   57.9790   27.7260   46.3290 C   0  0  0  0  0  0  0  0  0  0  0  0
   58.4595   28.7119   46.2448 H   0  0  0  0  0  0  0  0  0  0  0  0
   56.3000   29.6900   43.2100 N   0  0  0  0  0  0  0  0  0  0  0  0
   56.7830   30.7550   42.5220 C   0  0  0  0  0  0  0  0  0  0  0  0
   56.6946   30.7879   41.4260 H   0  0  0  0  0  0  0  0  0  0  0  0
   57.3910   31.8070   43.2040 C   0  0  0  0  0  0  0  0  0  0  0  0
   57.7927   32.6724   42.6565 H   0  0  0  0  0  0  0  0  0  0  0  0
   58.2280   32.7440   46.8020 C   0  0  0  0  0  0  0  0  0  0  0  0
   57.8382   31.8637   47.3340 H   0  0  0  0  0  0  0  0  0  0  0  0
   58.8350   33.7770   47.5180 C   0  0  0  0  0  0  0  0  0  0  0  0
   58.9199   33.7180   48.6131 H   0  0  0  0  0  0  0  0  0  0  0  0
  1  2  1  0
  2  3  2  0
  3  4  1  0
  4  5  1  0
  4  6  2  0
  6  7  1  0
  7  8  2  0
  8  9  1  0
  9 10  2  0
 10 11  1  0
 11 12  2  0
 12 13  1  0
 12 14  1  0
 14 15  1  0
 14 16  2  0
 16 17  1  0
 16 18  1  0
 18 19  1  0
 19 20  1  0
 20 21  1  0
 20 22  1  0
 20 23  1  0
 18 24  2  0
 24 25  1  0
  9 26  1  0
 26 27  1  0
 27 28  1  0
 27 29  2  0
 29 30  1  0
  6 31  1  0
 31 32  1  0
 31 33  2  0
 33 34  1  0
 33  2  1  0
 29  7  1  0
 24 11  1  0
M  CHG  1  26  -1
M  END
>  <UniqueID>  (29) 
26

>  <SMILES>  (29) 
COc1cccc(/N=c2/nc(-c3cccnc3)cc[n-]2)c1

>  <Energy>  (29) 
48.13600047667599

>  <Genealogy>  (29) 
COc1cccc(N=c2nc(-c3cccnc3)cc[n-]2)c1 (protonated)
COc1cccc(/N=c2/nc(-c3cccnc3)cc[n-]2)c1 (cis-trans isomerization)
COc1cccc(/N=c2/nc(-c3cccnc3)cc[n-]2)c1 (3D coordinates assigned)
COc1cccc(/N=c2/nc(-c3cccnc3)cc[n-]2)c1 (optimized conformer: 48.13600047667599 kcal/mol)

>  <smiles>  (29) 
COc1cccc(N=c2nc(-c3cccnc3)cc[nH]2)c1

>  <score_type>  (29) 
oracle

>  <origin>  (29) 
adg

>  <m_score__min__energy>  (29) 
-8.9499999999999993

>  <m_primary>  (29) 
energy

$$$$
29:0
     RDKit          3D

 17 17  0  0  0  0  0  0  0  0999 V2000
   55.5820   30.6400   52.3040 C   0  0  0  0  0  0  0  0  0  0  0  0
   54.3080   29.8240   52.4890 C   0  0  0  0  0  0  0  0  0  0  0  0
   53.1710   30.4320   51.7140 C   0  0  0  0  0  0  0  0  0  0  0  0
   52.4190   31.4770   52.2660 C   0  0  0  0  0  0  0  0  0  0  0  0
   51.3520   31.9940   51.5310 C   0  0  0  0  0  0  0  0  0  0  0  0
   50.6610   32.9370   51.9960 O   0  0  0  0  0  0  0  0  0  0  0  0
   51.0570   31.4760   50.3120 N   0  0  0  0  0  0  0  0  0  0  0  0
   51.7850   30.4550   49.7890 C   0  0  0  0  0  0  0  0  0  0  0  0
   51.3910   29.8540   48.3200 S   0  0  0  0  0  0  0  0  0  0  0  0
   52.8310   29.9330   50.4890 N   0  0  0  0  0  0  0  0  0  0  0  0
   55.9945   30.9042   53.2889 H   0  0  0  0  0  0  0  0  0  0  0  0
   56.3199   30.0460   51.7448 H   0  0  0  0  0  0  0  0  0  0  0  0
   55.3511   31.5587   51.7448 H   0  0  0  0  0  0  0  0  0  0  0  0
   54.4810   28.7981   52.1317 H   0  0  0  0  0  0  0  0  0  0  0  0
   54.0444   29.8163   53.5569 H   0  0  0  0  0  0  0  0  0  0  0  0
   52.6648   31.8817   53.2589 H   0  0  0  0  0  0  0  0  0  0  0  0
   53.3810   29.1410   50.0860 H   0  0  0  0  0  0  0  0  0  0  0  0
  1  2  1  0
  2  3  1  0
  3  4  2  0
  4  5  1  0
  5  6  2  0
  5  7  1  0
  7  8  1  0
  8  9  2  0
  8 10  1  0
 10  3  1  0
  1 11  1  0
  1 12  1  0
  1 13  1  0
  2 14  1  0
  2 15  1  0
  4 16  1  0
 10 17  1  0
M  CHG  1   7  -1
M  END
>  <UniqueID>  (30) 
27

>  <SMILES>  (30) 
CCc1cc(=O)[n-]c(=S)[nH]1

>  <Energy>  (30) 
12.526613260576504

>  <Genealogy>  (30) 
CCc1cc(=O)[n-]c(=S)[nH]1 (protonated)
CCc1cc(=O)[n-]c(=S)[nH]1 (3D coordinates assigned)
CCc1cc(=O)[n-]c(=S)[nH]1 (optimized conformer: 12.526613260576504 kcal/mol)

>  <smiles>  (30) 
CCc1cc(=O)[nH]c(=S)[nH]1

>  <score_type>  (30) 
oracle

>  <origin>  (30) 
adg

>  <m_score__min__energy>  (30) 
-6.6799999999999997

>  <m_primary>  (30) 
energy

$$$$
30:0
     RDKit          3D

 39 41  0  0  0  0  0  0  0  0999 V2000
   59.6560   35.0920   45.2520 O   0  0  0  0  0  0  0  0  0  0  0  0
   59.4470   34.2280   46.4650 S   0  0  0  0  0  0  0  0  0  0  0  0
   58.5770   34.9580   47.4520 O   0  0  0  0  0  0  0  0  0  0  0  0
   61.0200   33.8900   47.1880 C   0  0  0  0  0  0  0  0  0  0  0  0
   62.1560   33.8230   46.3680 C   0  0  0  0  0  0  0  0  0  0  0  0
   63.4110   33.5540   46.9210 C   0  0  0  0  0  0  0  0  0  0  0  0
   63.5420   33.3590   48.2980 C   0  0  0  0  0  0  0  0  0  0  0  0
   62.4170   33.4370   49.1240 C   0  0  0  0  0  0  0  0  0  0  0  0
   61.1580   33.7060   48.5750 C   0  0  0  0  0  0  0  0  0  0  0  0
   60.0840   33.7930   49.3990 F   0  0  0  0  0  0  0  0  0  0  0  0
   58.6820   32.7200   46.0160 N   0  0  0  0  0  0  0  0  0  0  0  0
   58.5050   31.8570   47.2010 C   0  0  0  0  0  0  0  0  0  0  0  0
   59.1580   30.5150   46.9950 C   0  0  0  0  0  0  0  0  0  0  0  0
   59.5780   30.1130   45.7180 C   0  0  0  0  0  0  0  0  0  0  0  0
   60.1760   28.8610   45.5540 C   0  0  0  0  0  0  0  0  0  0  0  0
   60.3420   28.0380   46.6230 N   0  0  0  0  0  0  0  0  0  0  0  0
   59.9350   28.3980   47.8690 C   0  0  0  0  0  0  0  0  0  0  0  0
   59.3320   29.6400   48.0780 C   0  0  0  0  0  0  0  0  0  0  0  0
   57.4380   32.9330   45.2420 C   0  0  0  0  0  0  0  0  0  0  0  0
   57.0190   31.7420   44.4210 C   0  0  0  0  0  0  0  0  0  0  0  0
   57.3570   31.5090   43.1020 C   0  0  0  0  0  0  0  0  0  0  0  0
   56.7580   30.3130   42.7730 C   0  0  0  0  0  0  0  0  0  0  0  0
   56.0890   29.8930   43.9060 C   0  0  0  0  0  0  0  0  0  0  0  0
   56.2620   30.7670   44.8700 O   0  0  0  0  0  0  0  0  0  0  0  0
   62.0586   33.9830   45.2841 H   0  0  0  0  0  0  0  0  0  0  0  0
   64.2966   33.4958   46.2712 H   0  0  0  0  0  0  0  0  0  0  0  0
   64.5297   33.1442   48.7320 H   0  0  0  0  0  0  0  0  0  0  0  0
   62.5215   33.2865   50.2086 H   0  0  0  0  0  0  0  0  0  0  0  0
   58.9594   32.3477   48.0743 H   0  0  0  0  0  0  0  0  0  0  0  0
   57.4282   31.7012   47.3629 H   0  0  0  0  0  0  0  0  0  0  0  0
   59.4376   30.7781   44.8531 H   0  0  0  0  0  0  0  0  0  0  0  0
   60.5133   28.5405   44.5573 H   0  0  0  0  0  0  0  0  0  0  0  0
   60.0810   27.7095   48.7144 H   0  0  0  0  0  0  0  0  0  0  0  0
   58.9958   29.9303   49.0843 H   0  0  0  0  0  0  0  0  0  0  0  0
   56.6276   33.1701   45.9471 H   0  0  0  0  0  0  0  0  0  0  0  0
   57.6372   33.7531   44.5365 H   0  0  0  0  0  0  0  0  0  0  0  0
   57.9748   32.1451   42.4510 H   0  0  0  0  0  0  0  0  0  0  0  0
   56.8034   29.7963   41.8030 H   0  0  0  0  0  0  0  0  0  0  0  0
   55.5008   28.9671   43.9880 H   0  0  0  0  0  0  0  0  0  0  0  0
  1  2  2  0
  2  3  2  0
  2  4  1  0
  4  5  2  0
  5  6  1  0
  6  7  2  0
  7  8  1  0
  8  9  2  0
  9 10  1  0
  2 11  1  0
 11 12  1  0
 12 13  1  0
 13 14  2  0
 14 15  1  0
 15 16  2  0
 16 17  1  0
 17 18  2  0
 11 19  1  0
 19 20  1  0
 20 21  2  0
 21 22  1  0
 22 23  2  0
 23 24  1  0
  9  4  1  0
 18 13  1  0
 24 20  1  0
  5 25  1  0
  6 26  1  0
  7 27  1  0
  8 28  1  0
 12 29  1  0
 12 30  1  0
 14 31  1  0
 15 32  1  0
 17 33  1  0
 18 34  1  0
 19 35  1  0
 19 36  1  0
 21 37  1  0
 22 38  1  0
 23 39  1  0
M  END
>  <UniqueID>  (31) 
28

>  <SMILES>  (31) 
O=S(=O)(c1ccccc1F)N(Cc1ccncc1)Cc1ccco1

>  <Energy>  (31) 
69.59474218411073

>  <Genealogy>  (31) 
O=S(=O)(c1ccccc1F)N(Cc1ccncc1)Cc1ccco1 (3D coordinates assigned)
O=S(=O)(c1ccccc1F)N(Cc1ccncc1)Cc1ccco1 (optimized conformer: 69.59474218411073 kcal/mol)

>  <smiles>  (31) 
O=S(=O)(c1ccccc1F)N(Cc1ccncc1)Cc1ccco1

>  <score_type>  (31) 
oracle

>  <origin>  (31) 
adg

>  <m_score__min__energy>  (31) 
-8.1600000000000001

>  <m_primary>  (31) 
energy

$$$$
31:0
     RDKit          3D

 45 48  0  0  0  0  0  0  0  0999 V2000
   53.7470   23.4900   45.8130 C   0  0  0  0  0  0  0  0  0  0  0  0
   54.8800   23.5960   46.8280 C   0  0  0  0  0  0  0  0  0  0  0  0
   56.0230   24.3010   46.2520 N   0  0  0  0  0  0  0  0  0  0  0  0
   55.9880   25.7010   45.9360 C   0  0  0  0  0  0  0  0  0  0  0  0
   54.9030   26.3390   46.0120 O   0  0  0  0  0  0  0  0  0  0  0  0
   57.1600   26.3830   45.4720 N   0  0  0  0  0  0  0  0  0  0  0  0
   57.7560   27.5360   46.0800 C   0  0  0  0  0  0  0  0  0  0  0  0
   58.2330   27.4390   47.3940 C   0  0  0  0  0  0  0  0  0  0  0  0
   58.8470   28.5350   48.0050 C   0  0  0  0  0  0  0  0  0  0  0  0
   59.0360   29.7300   47.2890 C   0  0  0  0  0  0  0  0  0  0  0  0
   59.6140   30.8820   47.9170 N   0  0  0  0  0  0  0  0  0  0  0  0
   60.0110   32.0210   47.4040 C   0  0  0  0  0  0  0  0  0  0  0  0
   59.1870   32.8730   46.6000 C   0  0  0  0  0  0  0  0  0  0  0  0
   57.7730   32.8020   46.5660 C   0  0  0  0  0  0  0  0  0  0  0  0
   57.0330   33.6330   45.7230 C   0  0  0  0  0  0  0  0  0  0  0  0
   57.6750   34.5870   44.9350 C   0  0  0  0  0  0  0  0  0  0  0  0
   59.0560   34.7470   45.0260 C   0  0  0  0  0  0  0  0  0  0  0  0
   59.8070   33.9280   45.8770 C   0  0  0  0  0  0  0  0  0  0  0  0
   61.1250   34.1910   46.0430 N   0  0  0  0  0  0  0  0  0  0  0  0
   61.9020   33.4890   46.9010 C   0  0  0  0  0  0  0  0  0  0  0  0
   63.2460   33.8450   47.0600 C   0  0  0  0  0  0  0  0  0  0  0  0
   64.0650   33.1270   47.9330 C   0  0  0  0  0  0  0  0  0  0  0  0
   63.5460   32.0470   48.6480 C   0  0  0  0  0  0  0  0  0  0  0  0
   62.2070   31.6770   48.4930 C   0  0  0  0  0  0  0  0  0  0  0  0
   61.3610   32.3990   47.6210 C   0  0  0  0  0  0  0  0  0  0  0  0
   58.5510   29.8310   45.9800 C   0  0  0  0  0  0  0  0  0  0  0  0
   57.9350   28.7350   45.3690 C   0  0  0  0  0  0  0  0  0  0  0  0
   52.7872   23.4002   46.3429 H   0  0  0  0  0  0  0  0  0  0  0  0
   53.7346   24.3909   45.1820 H   0  0  0  0  0  0  0  0  0  0  0  0
   53.9019   22.6024   45.1820 H   0  0  0  0  0  0  0  0  0  0  0  0
   54.5236   24.1463   47.7113 H   0  0  0  0  0  0  0  0  0  0  0  0
   55.1963   22.5818   47.1133 H   0  0  0  0  0  0  0  0  0  0  0  0
   56.8940   23.7540   46.0670 H   0  0  0  0  0  0  0  0  0  0  0  0
   58.1234   26.4947   47.9474 H   0  0  0  0  0  0  0  0  0  0  0  0
   59.1837   28.4628   49.0497 H   0  0  0  0  0  0  0  0  0  0  0  0
   57.2505   32.0820   47.2129 H   0  0  0  0  0  0  0  0  0  0  0  0
   55.9382   33.5345   45.6804 H   0  0  0  0  0  0  0  0  0  0  0  0
   57.0923   35.2123   44.2426 H   0  0  0  0  0  0  0  0  0  0  0  0
   59.5583   35.5204   44.4264 H   0  0  0  0  0  0  0  0  0  0  0  0
   63.6586   34.6938   46.4949 H   0  0  0  0  0  0  0  0  0  0  0  0
   65.1200   33.4127   48.0573 H   0  0  0  0  0  0  0  0  0  0  0  0
   64.1934   31.4843   49.3366 H   0  0  0  0  0  0  0  0  0  0  0  0
   61.8091   30.8182   49.0534 H   0  0  0  0  0  0  0  0  0  0  0  0
   58.6551   30.7775   45.4293 H   0  0  0  0  0  0  0  0  0  0  0  0
   57.5890   28.8113   44.3276 H   0  0  0  0  0  0  0  0  0  0  0  0
  1  2  1  0
  2  3  1  0
  3  4  1  0
  4  5  2  0
  4  6  1  0
  6  7  1  0
  7  8  2  0
  8  9  1  0
  9 10  2  0
 10 11  1  0
 11 12  2  3
 12 13  1  0
 13 14  2  0
 14 15  1  0
 15 16  2  0
 16 17  1  0
 17 18  2  0
 18 19  1  0
 19 20  1  0
 20 21  2  0
 21 22  1  0
 22 23  2  0
 23 24  1  0
 24 25  2  0
 10 26  1  0
 26 27  2  0
 27  7  1  0
 25 12  1  0
 18 13  1  0
 25 20  1  0
  1 28  1  0
  1 29  1  0
  1 30  1  0
  2 31  1  0
  2 32  1  0
  3 33  1  0
  8 34  1  0
  9 35  1  0
 14 36  1  0
 15 37  1  0
 16 38  1  0
 17 39  1  0
 21 40  1  0
 22 41  1  0
 23 42  1  0
 24 43  1  0
 26 44  1  0
 27 45  1  0
M  CHG  2   6  -1  19  -1
M  END
>  <UniqueID>  (32) 
29

>  <SMILES>  (32) 
CCNC(=O)[N-]c1ccc(N=c2c3ccccc3[n-]c3ccccc23)cc1

>  <Energy>  (32) 
77.23224424407476

>  <Genealogy>  (32) 
CCNC(=O)[N-]c1ccc(N=c2c3ccccc3[n-]c3ccccc23)cc1 (protonated)
CCNC(=O)[N-]c1ccc(N=c2c3ccccc3[n-]c3ccccc23)cc1 (3D coordinates assigned)
CCNC(=O)[N-]c1ccc(N=c2c3ccccc3[n-]c3ccccc23)cc1 (optimized conformer: 77.23224424407476 kcal/mol)

>  <smiles>  (32) 
CCNC(=O)Nc1ccc(N=c2c3ccccc3[nH]c3ccccc23)cc1

>  <score_type>  (32) 
oracle

>  <origin>  (32) 
adg

>  <m_score__min__energy>  (32) 
-10.92

>  <m_primary>  (32) 
energy

$$$$
32:0
     RDKit          3D

 33 35  0  0  0  0  0  0  0  0999 V2000
   57.6702   32.2545   42.5134 H   0  0  0  0  0  0  0  0  0  0  0  0
   57.3420   31.5360   43.2790 C   0  0  0  0  0  0  0  0  0  0  0  0
   56.5380   30.0850   42.9900 S   0  0  0  0  0  0  0  0  0  0  0  0
   56.4390   29.7010   44.6170 C   0  0  0  0  0  0  0  0  0  0  0  0
   55.9150   28.5980   45.0640 N   0  0  0  0  0  0  0  0  0  0  0  0
   56.6230   27.4800   45.6270 C   0  0  0  0  0  0  0  0  0  0  0  0
   55.9690   26.2880   45.9970 C   0  0  0  0  0  0  0  0  0  0  0  0
   54.8790   26.2006   45.8780 H   0  0  0  0  0  0  0  0  0  0  0  0
   56.7020   25.2160   46.5150 C   0  0  0  0  0  0  0  0  0  0  0  0
   56.1852   24.2929   46.8163 H   0  0  0  0  0  0  0  0  0  0  0  0
   58.0890   25.3140   46.6510 C   0  0  0  0  0  0  0  0  0  0  0  0
   58.6614   24.4733   47.0700 H   0  0  0  0  0  0  0  0  0  0  0  0
   58.7500   26.4820   46.2540 C   0  0  0  0  0  0  0  0  0  0  0  0
   60.5320   26.6030   46.4160 S   0  0  0  0  0  0  0  0  0  0  0  0
   60.6280   28.1800   45.5120 C   0  0  0  0  0  0  0  0  0  0  0  0
   60.6786   29.0118   46.2301 H   0  0  0  0  0  0  0  0  0  0  0  0
   61.5282   28.1860   44.8798 H   0  0  0  0  0  0  0  0  0  0  0  0
   59.7352   28.2952   44.8798 H   0  0  0  0  0  0  0  0  0  0  0  0
   58.0170   27.5580   45.7390 C   0  0  0  0  0  0  0  0  0  0  0  0
   58.5399   28.4716   45.4199 H   0  0  0  0  0  0  0  0  0  0  0  0
   57.0170   30.6410   45.3950 N   0  0  0  0  0  0  0  0  0  0  0  0
   57.5210   31.6710   44.6610 C   0  0  0  0  0  0  0  0  0  0  0  0
   58.1900   32.8260   45.3180 C   0  0  0  0  0  0  0  0  0  0  0  0
   58.6470   33.9290   44.5730 C   0  0  0  0  0  0  0  0  0  0  0  0
   58.5122   33.9530   43.4816 H   0  0  0  0  0  0  0  0  0  0  0  0
   59.2720   34.9920   45.2260 C   0  0  0  0  0  0  0  0  0  0  0  0
   59.6302   35.8578   44.6498 H   0  0  0  0  0  0  0  0  0  0  0  0
   59.4420   34.9560   46.6080 C   0  0  0  0  0  0  0  0  0  0  0  0
   59.9322   35.7910   47.1300 H   0  0  0  0  0  0  0  0  0  0  0  0
   58.9840   33.8500   47.3220 C   0  0  0  0  0  0  0  0  0  0  0  0
   59.1142   33.8106   48.4136 H   0  0  0  0  0  0  0  0  0  0  0  0
   58.3760   32.8180   46.6740 N   0  0  0  0  0  0  0  0  0  0  0  0
   58.0430   32.0110   47.2480 H   0  0  0  0  0  0  0  0  0  0  0  0
  1  2  1  0
  2  3  1  0
  3  4  1  0
  4  5  2  0
  5  6  1  0
  6  7  2  0
  7  8  1  0
  7  9  1  0
  9 10  1  0
  9 11  2  0
 11 12  1  0
 11 13  1  0
 13 14  1  0
 14 15  1  0
 15 16  1  0
 15 17  1  0
 15 18  1  0
 13 19  2  0
 19 20  1  0
  4 21  1  0
 21 22  1  0
 22 23  1  0
 23 24  2  0
 24 25  1  0
 24 26  1  0
 26 27  1  0
 26 28  2  0
 28 29  1  0
 28 30  1  0
 30 31  1  0
 30 32  2  0
 32 33  1  0
 22  2  2  0
 32 23  1  0
 19  6  1  0
M  CHG  2  21  -1  32   1
M  END
>  <UniqueID>  (33) 
30

>  <SMILES>  (33) 
CSc1cccc(/N=c2\[n-]c(-c3cccc[nH+]3)cs2)c1

>  <Energy>  (33) 
68.96178049682253

>  <Genealogy>  (33) 
CSc1cccc(N=c2[n-]c(-c3cccc[nH+]3)cs2)c1 (protonated)
CSc1cccc(/N=c2\[n-]c(-c3cccc[nH+]3)cs2)c1 (cis-trans isomerization)
CSc1cccc(/N=c2\[n-]c(-c3cccc[nH+]3)cs2)c1 (3D coordinates assigned)
CSc1cccc(/N=c2\[n-]c(-c3cccc[nH+]3)cs2)c1 (optimized conformer: 68.96178049682253 kcal/mol)

>  <smiles>  (33) 
CSc1cccc(N=c2[nH]c(-c3ccccn3)cs2)c1

>  <score_type>  (33) 
oracle

>  <origin>  (33) 
adg

>  <m_score__min__energy>  (33) 
-7.8300000000000001

>  <m_primary>  (33) 
energy

$$$$
33:0
     RDKit          3D

 46 48  0  0  0  0  0  0  0  0999 V2000
   59.3120   33.5220   51.0760 C   0  0  0  0  0  0  0  0  0  0  0  0
   60.0420   33.3330   49.8050 N   0  0  2  0  0  0  0  0  0  0  0  0
   61.5070   33.3770   50.0320 C   0  0  0  0  0  0  0  0  0  0  0  0
   62.2830   33.0170   48.7910 C   0  0  0  0  0  0  0  0  0  0  0  0
   62.3440   31.7140   48.2750 C   0  0  0  0  0  0  0  0  0  0  0  0
   63.1340   31.6030   47.1400 C   0  0  0  0  0  0  0  0  0  0  0  0
   63.7540   33.1240   46.7860 S   0  0  0  0  0  0  0  0  0  0  0  0
   63.0300   33.9390   48.0640 C   0  0  0  0  0  0  0  0  0  0  0  0
   59.6590   34.3760   48.8230 C   0  0  0  0  0  0  0  0  0  0  0  0
   59.2680   33.7790   47.4940 C   0  0  0  0  0  0  0  0  0  0  0  0
   58.9910   34.5930   46.3910 C   0  0  0  0  0  0  0  0  0  0  0  0
   58.6060   34.0050   45.1860 C   0  0  0  0  0  0  0  0  0  0  0  0
   58.5030   32.6130   45.0840 C   0  0  0  0  0  0  0  0  0  0  0  0
   58.0400   32.0350   43.8470 C   0  0  0  0  0  0  0  0  0  0  0  0
   57.6660   31.5720   42.8540 N   0  0  0  0  0  0  0  0  0  0  0  0
   58.7980   31.8200   46.2130 C   0  0  0  0  0  0  0  0  0  0  0  0
   58.7150   30.3840   46.1750 N   0  0  0  0  0  0  0  0  0  0  0  0
   57.4620   29.7350   45.7550 C   0  0  0  0  0  0  0  0  0  0  0  0
   57.7290   28.3870   45.0670 C   0  0  0  0  0  0  0  0  0  0  0  0
   58.9340   28.4980   44.1240 C   0  0  0  0  0  0  0  0  0  0  0  0
   60.2220   28.9420   44.8550 C   0  0  0  0  0  0  0  0  0  0  0  0
   59.9500   29.5920   46.2210 C   0  0  0  0  0  0  0  0  0  0  0  0
   59.1630   32.4290   47.3760 N   0  0  0  0  0  0  0  0  0  0  0  0
   59.9943   33.3453   51.9205 H   0  0  0  0  0  0  0  0  0  0  0  0
   58.9243   34.5501   51.1268 H   0  0  0  0  0  0  0  0  0  0  0  0
   58.4740   32.8112   51.1268 H   0  0  0  0  0  0  0  0  0  0  0  0
   59.7930   32.3930   49.4110 H   0  0  0  0  0  0  0  0  0  0  0  0
   61.7875   34.3940   50.3434 H   0  0  0  0  0  0  0  0  0  0  0  0
   61.7519   32.6399   50.8109 H   0  0  0  0  0  0  0  0  0  0  0  0
   61.8158   30.8616   48.7272 H   0  0  0  0  0  0  0  0  0  0  0  0
   63.3217   30.6804   46.5712 H   0  0  0  0  0  0  0  0  0  0  0  0
   63.1289   35.0117   48.2868 H   0  0  0  0  0  0  0  0  0  0  0  0
   58.8063   34.9448   49.2223 H   0  0  0  0  0  0  0  0  0  0  0  0
   60.5294   35.0288   48.6613 H   0  0  0  0  0  0  0  0  0  0  0  0
   59.0759   35.6867   46.4729 H   0  0  0  0  0  0  0  0  0  0  0  0
   58.3828   34.6370   44.3138 H   0  0  0  0  0  0  0  0  0  0  0  0
   56.8327   29.5656   46.6412 H   0  0  0  0  0  0  0  0  0  0  0  0
   56.9556   30.3953   45.0356 H   0  0  0  0  0  0  0  0  0  0  0  0
   57.9363   27.6243   45.8320 H   0  0  0  0  0  0  0  0  0  0  0  0
   56.8422   28.1032   44.4813 H   0  0  0  0  0  0  0  0  0  0  0  0
   59.1118   27.5155   43.6623 H   0  0  0  0  0  0  0  0  0  0  0  0
   58.6979   29.2636   43.3703 H   0  0  0  0  0  0  0  0  0  0  0  0
   60.8588   28.0584   45.0090 H   0  0  0  0  0  0  0  0  0  0  0  0
   60.7110   29.6992   44.2245 H   0  0  0  0  0  0  0  0  0  0  0  0
   59.8475   28.8050   46.9827 H   0  0  0  0  0  0  0  0  0  0  0  0
   60.7900   30.2559   46.4734 H   0  0  0  0  0  0  0  0  0  0  0  0
  1  2  1  0
  2  3  1  0
  3  4  1  0
  4  5  1  0
  5  6  2  0
  6  7  1  0
  7  8  1  0
  2  9  1  0
  9 10  1  0
 10 11  2  0
 11 12  1  0
 12 13  2  0
 13 14  1  0
 14 15  3  0
 13 16  1  0
 16 17  1  0
 17 18  1  0
 18 19  1  0
 19 20  1  0
 20 21  1  0
 21 22  1  0
 16 23  2  0
  8  4  2  0
 23 10  1  0
 22 17  1  0
  1 24  1  0
  1 25  1  0
  1 26  1  0
  2 27  1  6
  3 28  1  0
  3 29  1  0
  5 30  1  0
  6 31  1  0
  8 32  1  0
  9 33  1  0
  9 34  1  0
 11 35  1  0
 12 36  1  0
 18 37  1  0
 18 38  1  0
 19 39  1  0
 19 40  1  0
 20 41  1  0
 20 42  1  0
 21 43  1  0
 21 44  1  0
 22 45  1  0
 22 46  1  0
M  CHG  1   2   1
M  END
>  <UniqueID>  (34) 
31

>  <SMILES>  (34) 
C[N@H+](Cc1ccsc1)Cc1ccc(C#N)c(N2CCCCC2)n1

>  <Energy>  (34) 
79.66596572425178

>  <Genealogy>  (34) 
C[NH+](Cc1ccsc1)Cc1ccc(C#N)c(N2CCCCC2)n1 (protonated)
C[N@H+](Cc1ccsc1)Cc1ccc(C#N)c(N2CCCCC2)n1 (chirality)
C[N@H+](Cc1ccsc1)Cc1ccc(C#N)c(N2CCCCC2)n1 (3D coordinates assigned)
C[N@H+](Cc1ccsc1)Cc1ccc(C#N)c(N2CCCCC2)n1 (nonaromatic ring conformer: 79.66596572425178 kcal/mol)

>  <smiles>  (34) 
CN(Cc1ccsc1)Cc1ccc(C#N)c(N2CCCCC2)n1

>  <score_type>  (34) 
oracle

>  <origin>  (34) 
adg

>  <m_score__min__energy>  (34) 
-5.4500000000000002

>  <m_primary>  (34) 
energy

$$$$
34:0
     RDKit          3D

 51 53  0  0  0  0  0  0  0  0999 V2000
   56.3800   27.8400   44.2040 H   0  0  0  0  0  0  0  0  0  0  0  0
   56.5990   27.7550   45.2160 N   0  0  0  0  0  0  0  0  0  0  0  0
   57.5820   27.0810   45.7370 C   0  0  0  0  0  0  0  0  0  0  0  0
   58.5520   27.6960   46.5840 C   0  0  0  0  0  0  0  0  0  0  0  0
   58.4340   29.1490   47.0420 C   0  0  0  0  0  0  0  0  0  0  0  0
   57.3930   29.4791   46.9100 H   0  0  0  0  0  0  0  0  0  0  0  0
   58.7368   29.1970   48.0984 H   0  0  0  0  0  0  0  0  0  0  0  0
   59.3560   30.0840   46.2420 C   0  0  0  0  0  0  0  0  0  0  0  0
   59.9247   30.7050   46.9497 H   0  0  0  0  0  0  0  0  0  0  0  0
   60.0149   29.4510   45.6294 H   0  0  0  0  0  0  0  0  0  0  0  0
   58.4420   31.1870   45.1020 S   0  0  0  0  0  0  0  0  0  0  0  0
   58.3910   32.5860   46.2280 C   0  0  0  0  0  0  0  0  0  0  0  0
   57.0160   33.4640   46.3550 S   0  0  0  0  0  0  0  0  0  0  0  0
   59.5910   33.0400   46.8640 N   0  0  0  0  0  0  0  0  0  0  0  0
   59.6130   33.2800   48.3090 C   0  0  0  0  0  0  0  0  0  0  0  0
   59.5365   34.3604   48.5012 H   0  0  0  0  0  0  0  0  0  0  0  0
   58.7642   32.7599   48.7771 H   0  0  0  0  0  0  0  0  0  0  0  0
   60.9220   32.7490   48.9020 C   0  0  0  0  0  0  0  0  0  0  0  0
   61.0547   33.1750   49.9074 H   0  0  0  0  0  0  0  0  0  0  0  0
   60.8568   31.6516   48.9396 H   0  0  0  0  0  0  0  0  0  0  0  0
   62.0890   33.1070   48.0760 N   0  0  0  0  0  0  0  0  0  0  0  0
   63.4170   32.7020   48.4840 C   0  0  0  0  0  0  0  0  0  0  0  0
   64.4230   33.0640   47.8180 O   0  0  0  0  0  0  0  0  0  0  0  0
   63.6360   31.8510   49.6980 C   0  0  0  0  0  0  0  0  0  0  0  0
   63.4802   32.4564   50.6031 H   0  0  0  0  0  0  0  0  0  0  0  0
   62.9245   31.0121   49.6910 H   0  0  0  0  0  0  0  0  0  0  0  0
   64.6641   31.4598   49.6910 H   0  0  0  0  0  0  0  0  0  0  0  0
   61.9000   33.9450   46.8800 C   0  0  0  0  0  0  0  0  0  0  0  0
   61.6764   34.9760   47.1915 H   0  0  0  0  0  0  0  0  0  0  0  0
   62.8215   33.9228   46.2797 H   0  0  0  0  0  0  0  0  0  0  0  0
   60.7420   33.4120   46.0320 C   0  0  0  0  0  0  0  0  0  0  0  0
   60.4316   34.1917   45.3209 H   0  0  0  0  0  0  0  0  0  0  0  0
   61.0887   32.5129   45.5015 H   0  0  0  0  0  0  0  0  0  0  0  0
   59.6300   26.8970   47.0610 C   0  0  0  0  0  0  0  0  0  0  0  0
   60.7490   27.4560   47.8930 C   0  0  0  0  0  0  0  0  0  0  0  0
   60.5083   27.3358   48.9596 H   0  0  0  0  0  0  0  0  0  0  0  0
   61.6804   26.9173   47.6643 H   0  0  0  0  0  0  0  0  0  0  0  0
   60.8777   28.5242   47.6643 H   0  0  0  0  0  0  0  0  0  0  0  0
   59.6980   25.5830   46.7290 N   0  0  0  0  0  0  0  0  0  0  0  0
   58.7730   24.9710   45.9540 C   0  0  0  0  0  0  0  0  0  0  0  0
   58.9060   23.6080   45.6730 C   0  0  0  0  0  0  0  0  0  0  0  0
   59.7582   23.0452   46.0816 H   0  0  0  0  0  0  0  0  0  0  0  0
   57.9630   22.9590   44.8770 C   0  0  0  0  0  0  0  0  0  0  0  0
   58.0737   21.8850   44.6666 H   0  0  0  0  0  0  0  0  0  0  0  0
   56.8740   23.6640   44.3420 C   0  0  0  0  0  0  0  0  0  0  0  0
   55.8980   22.9940   43.5250 N   0  0  0  0  0  0  0  0  0  0  0  0
   54.7200   23.4020   43.4780 O   0  0  0  0  0  0  0  0  0  0  0  0
   56.2460   21.8880   42.7840 O   0  0  0  0  0  0  0  0  0  0  0  0
   56.7460   25.0370   44.6220 C   0  0  0  0  0  0  0  0  0  0  0  0
   55.8982   25.5989   44.2030 H   0  0  0  0  0  0  0  0  0  0  0  0
   57.6900   25.7040   45.4330 C   0  0  0  0  0  0  0  0  0  0  0  0
  1  2  1  0
  2  3  2  0
  3  4  1  0
  4  5  1  0
  5  6  1  0
  5  7  1  0
  5  8  1  0
  8  9  1  0
  8 10  1  0
  8 11  1  0
 11 12  1  0
 12 13  2  0
 12 14  1  0
 14 15  1  0
 15 16  1  0
 15 17  1  0
 15 18  1  0
 18 19  1  0
 18 20  1  0
 18 21  1  0
 21 22  1  0
 22 23  2  0
 22 24  1  0
 24 25  1  0
 24 26  1  0
 24 27  1  0
 21 28  1  0
 28 29  1  0
 28 30  1  0
 28 31  1  0
 31 32  1  0
 31 33  1  0
  4 34  2  0
 34 35  1  0
 35 36  1  0
 35 37  1  0
 35 38  1  0
 34 39  1  0
 39 40  1  0
 40 41  2  0
 41 42  1  0
 41 43  1  0
 43 44  1  0
 43 45  2  0
 45 46  1  0
 46 47  2  0
 46 48  1  0
 45 49  1  0
 49 50  1  0
 49 51  2  0
 51  3  1  0
 31 14  1  0
 51 40  1  0
M  CHG  3  39  -1  46   1  48  -1
M  END
>  <UniqueID>  (35) 
32

>  <SMILES>  (35) 
[H]/N=c1\c(CCSC(=S)N2CCN(C(C)=O)CC2)c(C)[n-]c2ccc([N+](=O)[O-])cc12

>  <Energy>  (35) 
60.758804902935694

>  <Genealogy>  (35) 
CC(=O)N1CCN(C(=S)SCCc2c(C)[n-]c3ccc([N+](=O)[O-])cc3c2=N)CC1 (protonated)
[H]/N=c1\c(CCSC(=S)N2CCN(C(C)=O)CC2)c(C)[n-]c2ccc([N+](=O)[O-])cc12 (cis-trans isomerization)
[H]/N=c1\c(CCSC(=S)N2CCN(C(C)=O)CC2)c(C)[n-]c2ccc([N+](=O)[O-])cc12 (3D coordinates assigned)
[H]/N=c1\c(CCSC(=S)N2CCN(C(C)=O)CC2)c(C)[n-]c2ccc([N+](=O)[O-])cc12 (nonaromatic ring conformer: 60.758804902935694 kcal/mol)

>  <smiles>  (35) 
CC(=O)N1CCN(C(=S)SCCc2c(C)[nH]c3ccc([N+](=O)[O-])cc3c2=N)CC1

>  <score_type>  (35) 
oracle

>  <origin>  (35) 
adg

>  <m_score__min__energy>  (35) 
-9.8900000000000006

>  <m_primary>  (35) 
energy

$$$$
35:0
     RDKit          3D

 40 43  0  0  0  0  0  0  0  0999 V2000
   52.2750   23.8730   44.8340 H   0  0  0  0  0  0  0  0  0  0  0  0
   52.7750   23.0580   45.2540 N   0  0  0  0  0  0  0  0  0  0  0  0
   54.0620   22.9600   45.1920 C   0  0  0  0  0  0  0  0  0  0  0  0
   54.8730   24.0360   45.0250 N   0  0  0  0  0  0  0  0  0  0  0  0
   56.0840   23.4450   45.0270 C   0  0  0  0  0  0  0  0  0  0  0  0
   57.3310   24.0720   44.8670 C   0  0  0  0  0  0  0  0  0  0  0  0
   57.4650   25.5390   44.7020 C   0  0  0  0  0  0  0  0  0  0  0  0
   57.7690   26.0850   43.4440 C   0  0  0  0  0  0  0  0  0  0  0  0
   57.9041   25.4202   42.5781 H   0  0  0  0  0  0  0  0  0  0  0  0
   57.9010   27.4680   43.2850 C   0  0  0  0  0  0  0  0  0  0  0  0
   58.1218   27.8848   42.2913 H   0  0  0  0  0  0  0  0  0  0  0  0
   57.7540   28.3270   44.3830 C   0  0  0  0  0  0  0  0  0  0  0  0
   57.8720   29.7460   44.1840 N   0  0  0  0  0  0  0  0  0  0  0  0
   58.8050   30.1110   43.8870 H   0  0  0  0  0  0  0  0  0  0  0  0
   56.8240   30.6900   44.4670 C   0  0  0  0  0  0  0  0  0  0  0  0
   55.6900   30.2930   44.8460 O   0  0  0  0  0  0  0  0  0  0  0  0
   57.0370   32.0960   44.2940 N   0  0  0  0  0  0  0  0  0  0  0  0
   57.8840   32.9220   45.1040 C   0  0  0  0  0  0  0  0  0  0  0  0
   58.4120   34.0980   44.5550 C   0  0  0  0  0  0  0  0  0  0  0  0
   58.1917   34.3607   43.5098 H   0  0  0  0  0  0  0  0  0  0  0  0
   59.2170   34.9390   45.3280 C   0  0  0  0  0  0  0  0  0  0  0  0
   59.6386   35.8540   44.8865 H   0  0  0  0  0  0  0  0  0  0  0  0
   59.4870   34.6190   46.6610 C   0  0  0  0  0  0  0  0  0  0  0  0
   60.1277   35.2776   47.2658 H   0  0  0  0  0  0  0  0  0  0  0  0
   58.9430   33.4620   47.2260 C   0  0  0  0  0  0  0  0  0  0  0  0
   59.2910   33.0360   49.0550 Br  0  0  0  0  0  0  0  0  0  0  0  0
   58.1360   32.6190   46.4540 C   0  0  0  0  0  0  0  0  0  0  0  0
   57.6973   31.7164   46.9045 H   0  0  0  0  0  0  0  0  0  0  0  0
   57.4330   27.7850   45.6380 C   0  0  0  0  0  0  0  0  0  0  0  0
   57.2869   28.4520   46.5004 H   0  0  0  0  0  0  0  0  0  0  0  0
   57.2980   26.4030   45.7980 C   0  0  0  0  0  0  0  0  0  0  0  0
   57.0594   25.9887   46.7886 H   0  0  0  0  0  0  0  0  0  0  0  0
   58.4660   23.2310   44.8620 C   0  0  0  0  0  0  0  0  0  0  0  0
   59.4665   23.6694   44.7324 H   0  0  0  0  0  0  0  0  0  0  0  0
   58.3320   21.8380   45.0210 C   0  0  0  0  0  0  0  0  0  0  0  0
   59.2223   21.1920   45.0196 H   0  0  0  0  0  0  0  0  0  0  0  0
   57.0560   21.2810   45.1810 C   0  0  0  0  0  0  0  0  0  0  0  0
   56.9242   20.1965   45.3094 H   0  0  0  0  0  0  0  0  0  0  0  0
   55.9900   22.1160   45.1730 N   0  0  0  0  0  0  0  0  0  0  0  0
   54.7210   21.7820   45.2830 N   0  0  0  0  0  0  0  0  0  0  0  0
  1  2  1  0
  2  3  2  0
  3  4  1  0
  4  5  2  0
  5  6  1  0
  6  7  1  0
  7  8  2  0
  8  9  1  0
  8 10  1  0
 10 11  1  0
 10 12  2  0
 12 13  1  0
 13 14  1  0
 13 15  1  0
 15 16  2  0
 15 17  1  0
 17 18  1  0
 18 19  2  0
 19 20  1  0
 19 21  1  0
 21 22  1  0
 21 23  2  0
 23 24  1  0
 23 25  1  0
 25 26  1  0
 25 27  2  0
 27 28  1  0
 12 29  1  0
 29 30  1  0
 29 31  2  0
 31 32  1  0
  6 33  2  0
 33 34  1  0
 33 35  1  0
 35 36  1  0
 35 37  2  0
 37 38  1  0
 37 39  1  0
 39 40  1  0
 40  3  1  0
 39  5  1  0
 31  7  1  0
 27 18  1  0
M  CHG  2  17  -1  40  -1
M  END
>  <UniqueID>  (36) 
33

>  <SMILES>  (36) 
[H]/N=c1/nc2c(-c3ccc(NC(=O)[N-]c4cccc(Br)c4)cc3)cccn2[n-]1

>  <Energy>  (36) 
96.97266527771174

>  <Genealogy>  (36) 
N=c1nc2c(-c3ccc(NC(=O)[N-]c4cccc(Br)c4)cc3)cccn2[n-]1 (protonated)
[H]/N=c1/nc2c(-c3ccc(NC(=O)[N-]c4cccc(Br)c4)cc3)cccn2[n-]1 (cis-trans isomerization)
[H]/N=c1/nc2c(-c3ccc(NC(=O)[N-]c4cccc(Br)c4)cc3)cccn2[n-]1 (3D coordinates assigned)
[H]/N=c1/nc2c(-c3ccc(NC(=O)[N-]c4cccc(Br)c4)cc3)cccn2[n-]1 (optimized conformer: 96.97266527771174 kcal/mol)

>  <smiles>  (36) 
N=c1nc2c(-c3ccc(NC(=O)Nc4cccc(Br)c4)cc3)cccn2[nH]1

>  <score_type>  (36) 
oracle

>  <origin>  (36) 
adg

>  <m_score__min__energy>  (36) 
-11.59

>  <m_primary>  (36) 
energy

$$$$
36:0
     RDKit          3D

 54 56  0  0  0  0  0  0  0  0999 V2000
   56.2750   29.7170   42.6420 C   0  0  0  0  0  0  0  0  0  0  0  0
   56.6660   29.5360   44.1260 C   0  0  0  0  0  0  0  0  0  0  0  0
   57.3040   30.8390   44.6500 C   0  0  0  0  0  0  0  0  0  0  0  0
   55.4580   29.2640   44.9190 N   0  0  0  0  0  0  0  0  0  0  0  0
   57.6400   28.3370   44.3020 C   0  0  0  0  0  0  0  0  0  0  0  0
   57.6400   27.7320   45.6880 C   0  0  0  0  0  0  0  0  0  0  0  0
   56.5480   27.3500   46.1850 O   0  0  0  0  0  0  0  0  0  0  0  0
   58.8340   27.5840   46.4700 N   0  0  0  0  0  0  0  0  0  0  0  0
   58.9730   27.8450   47.9030 C   0  0  1  0  0  0  0  0  0  0  0  0
   60.3640   27.3750   48.3650 C   0  0  0  0  0  0  0  0  0  0  0  0
   60.8020   28.1100   49.6320 C   0  0  0  0  0  0  0  0  0  0  0  0
   60.8550   29.6390   49.4220 C   0  0  0  0  0  0  0  0  0  0  0  0
   59.9770   30.1220   48.3290 N   0  0  0  0  0  0  0  0  0  0  0  0
   60.6740   30.3130   47.0370 C   0  0  0  0  0  0  0  0  0  0  0  0
   61.5230   31.5440   47.1170 C   0  0  0  0  0  0  0  0  0  0  0  0
   62.7870   31.5290   47.5930 N   0  0  0  0  0  0  0  0  0  0  0  0
   63.1400   32.8310   47.6370 C   0  0  0  0  0  0  0  0  0  0  0  0
   62.0890   33.6130   47.2120 C   0  0  0  0  0  0  0  0  0  0  0  0
   61.0760   32.7980   46.8780 N   0  0  0  0  0  0  0  0  0  0  0  0
   59.7680   33.2040   46.4540 C   0  0  0  0  0  0  0  0  0  0  0  0
   59.5930   33.7940   45.1930 C   0  0  0  0  0  0  0  0  0  0  0  0
   58.3280   34.2330   44.7920 C   0  0  0  0  0  0  0  0  0  0  0  0
   57.2290   34.0740   45.6410 C   0  0  0  0  0  0  0  0  0  0  0  0
   57.3930   33.4670   46.8890 C   0  0  0  0  0  0  0  0  0  0  0  0
   58.6560   33.0270   47.2960 C   0  0  0  0  0  0  0  0  0  0  0  0
   58.7960   32.4180   48.5010 F   0  0  0  0  0  0  0  0  0  0  0  0
   58.7270   29.3440   48.2160 C   0  0  0  0  0  0  0  0  0  0  0  0
   55.2784   30.1783   42.5790 H   0  0  0  0  0  0  0  0  0  0  0  0
   57.0114   30.3658   42.1453 H   0  0  0  0  0  0  0  0  0  0  0  0
   56.2568   28.7357   42.1453 H   0  0  0  0  0  0  0  0  0  0  0  0
   57.3007   30.8323   45.7500 H   0  0  0  0  0  0  0  0  0  0  0  0
   58.3398   30.9120   44.2868 H   0  0  0  0  0  0  0  0  0  0  0  0
   56.7265   31.7019   44.2868 H   0  0  0  0  0  0  0  0  0  0  0  0
   55.6550   29.4490   45.9310 H   0  0  0  0  0  0  0  0  0  0  0  0
   55.2070   28.2510   44.8430 H   0  0  0  0  0  0  0  0  0  0  0  0
   57.3548   27.5536   43.5844 H   0  0  0  0  0  0  0  0  0  0  0  0
   58.6538   28.7274   44.1293 H   0  0  0  0  0  0  0  0  0  0  0  0
   58.2123   27.2801   48.4617 H   0  0  0  0  0  0  0  0  0  0  0  0
   60.3280   26.2950   48.5707 H   0  0  0  0  0  0  0  0  0  0  0  0
   61.0888   27.5933   47.5669 H   0  0  0  0  0  0  0  0  0  0  0  0
   60.0874   27.8863   50.4378 H   0  0  0  0  0  0  0  0  0  0  0  0
   61.8140   27.7666   49.8925 H   0  0  0  0  0  0  0  0  0  0  0  0
   60.5463   30.1288   50.3573 H   0  0  0  0  0  0  0  0  0  0  0  0
   61.8880   29.8886   49.1382 H   0  0  0  0  0  0  0  0  0  0  0  0
   61.3096   29.4398   46.8285 H   0  0  0  0  0  0  0  0  0  0  0  0
   59.9352   30.4235   46.2295 H   0  0  0  0  0  0  0  0  0  0  0  0
   64.1196   33.2104   47.9632 H   0  0  0  0  0  0  0  0  0  0  0  0
   62.0811   34.7115   47.1561 H   0  0  0  0  0  0  0  0  0  0  0  0
   60.4537   33.9114   44.5182 H   0  0  0  0  0  0  0  0  0  0  0  0
   58.1971   34.7044   43.8068 H   0  0  0  0  0  0  0  0  0  0  0  0
   56.2355   34.4265   45.3269 H   0  0  0  0  0  0  0  0  0  0  0  0
   56.5260   33.3350   47.5529 H   0  0  0  0  0  0  0  0  0  0  0  0
   58.1805   29.4184   49.1677 H   0  0  0  0  0  0  0  0  0  0  0  0
   58.1516   29.7651   47.3784 H   0  0  0  0  0  0  0  0  0  0  0  0
  1  2  1  0
  2  3  1  0
  2  4  1  0
  2  5  1  0
  5  6  1  0
  6  7  2  0
  6  8  1  0
  8  9  1  0
  9 10  1  0
 10 11  1  0
 11 12  1  0
 12 13  1  0
 13 14  1  0
 14 15  1  0
 15 16  2  0
 16 17  1  0
 17 18  2  0
 18 19  1  0
 19 20  1  0
 20 21  2  0
 21 22  1  0
 22 23  2  0
 23 24  1  0
 24 25  2  0
 25 26  1  0
 13 27  1  0
 27  9  1  0
 19 15  1  0
 25 20  1  0
  1 28  1  0
  1 29  1  0
  1 30  1  0
  3 31  1  0
  3 32  1  0
  3 33  1  0
  4 34  1  0
  4 35  1  0
  5 36  1  0
  5 37  1  0
  9 38  1  1
 10 39  1  0
 10 40  1  0
 11 41  1  0
 11 42  1  0
 12 43  1  0
 12 44  1  0
 14 45  1  0
 14 46  1  0
 17 47  1  0
 18 48  1  0
 21 49  1  0
 22 50  1  0
 23 51  1  0
 24 52  1  0
 27 53  1  0
 27 54  1  0
M  CHG  1   8  -1
M  END
>  <UniqueID>  (37) 
34

>  <SMILES>  (37) 
CC(C)(N)CC(=O)[N-][C@H]1CCCN(Cc2nccn2-c2ccccc2F)C1

>  <Energy>  (37) 
92.67630713585989

>  <Genealogy>  (37) 
CC(C)(N)CC(=O)[N-]C1CCCN(Cc2nccn2-c2ccccc2F)C1 (protonated)
CC(C)(N)CC(=O)[N-][C@H]1CCCN(Cc2nccn2-c2ccccc2F)C1 (chirality)
CC(C)(N)CC(=O)[N-][C@H]1CCCN(Cc2nccn2-c2ccccc2F)C1 (3D coordinates assigned)
CC(C)(N)CC(=O)[N-][C@H]1CCCN(Cc2nccn2-c2ccccc2F)C1 (nonaromatic ring conformer: 92.67630713585989 kcal/mol)

>  <smiles>  (37) 
CC(C)(N)CC(=O)NC1CCCN(Cc2nccn2-c2ccccc2F)C1

>  <score_type>  (37) 
oracle

>  <origin>  (37) 
adg

>  <m_score__min__energy>  (37) 
-10.16

>  <m_primary>  (37) 
energy

$$$$
37:0
     RDKit          3D

 42 43  0  0  0  0  0  0  0  0999 V2000
   55.1320   26.7160   45.9710 O   0  0  0  0  0  0  0  0  0  0  0  0
   55.4770   25.5060   45.9950 C   0  0  0  0  0  0  0  0  0  0  0  0
   56.2000   25.0130   47.1270 N   0  0  0  0  0  0  0  0  0  0  0  0
   57.5260   25.4880   47.5120 C   0  0  0  0  0  0  0  0  0  0  0  0
   58.5340   25.3480   46.3610 C   0  0  0  0  0  0  0  0  0  0  0  0
   58.5670   26.5640   45.4260 C   0  0  0  0  0  0  0  0  0  0  0  0
   57.7460   26.3290   44.2290 N   0  0  0  0  0  0  0  0  0  0  0  0
   57.9300   27.3840   43.2190 C   0  0  0  0  0  0  0  0  0  0  0  0
   57.6840   28.7620   43.7850 C   0  0  0  0  0  0  0  0  0  0  0  0
   58.6990   29.4260   44.4960 C   0  0  0  0  0  0  0  0  0  0  0  0
   58.4820   30.7130   44.9970 C   0  0  0  0  0  0  0  0  0  0  0  0
   57.2550   31.3480   44.7880 C   0  0  0  0  0  0  0  0  0  0  0  0
   56.2430   30.6990   44.0760 C   0  0  0  0  0  0  0  0  0  0  0  0
   56.4560   29.4110   43.5730 C   0  0  0  0  0  0  0  0  0  0  0  0
   55.1930   24.6400   44.8880 N   0  0  0  0  0  0  0  0  0  0  0  0
   56.0370   23.6000   44.3730 C   0  0  0  0  0  0  0  0  0  0  0  0
   55.8530   23.0570   43.0890 C   0  0  0  0  0  0  0  0  0  0  0  0
   56.6840   22.0300   42.6370 C   0  0  0  0  0  0  0  0  0  0  0  0
   57.6930   21.5250   43.4600 C   0  0  0  0  0  0  0  0  0  0  0  0
   57.8770   22.0380   44.7560 C   0  0  0  0  0  0  0  0  0  0  0  0
   58.9090   21.5100   45.6080 N   0  0  0  0  0  0  0  0  0  0  0  0
   60.0960   21.8760   45.4740 O   0  0  0  0  0  0  0  0  0  0  0  0
   58.6070   20.5880   46.5840 O   0  0  0  0  0  0  0  0  0  0  0  0
   57.0340   23.0740   45.2050 C   0  0  0  0  0  0  0  0  0  0  0  0
   57.4562   26.5478   47.7983 H   0  0  0  0  0  0  0  0  0  0  0  0
   57.8792   24.8755   48.3547 H   0  0  0  0  0  0  0  0  0  0  0  0
   59.5372   25.2121   46.7912 H   0  0  0  0  0  0  0  0  0  0  0  0
   58.2186   24.4840   45.7576 H   0  0  0  0  0  0  0  0  0  0  0  0
   58.1777   27.4416   45.9629 H   0  0  0  0  0  0  0  0  0  0  0  0
   59.6066   26.7361   45.1104 H   0  0  0  0  0  0  0  0  0  0  0  0
   56.7370   26.3130   44.5070 H   0  0  0  0  0  0  0  0  0  0  0  0
   58.9613   27.3355   42.8394 H   0  0  0  0  0  0  0  0  0  0  0  0
   57.1998   27.2133   42.4143 H   0  0  0  0  0  0  0  0  0  0  0  0
   59.6677   28.9309   44.6587 H   0  0  0  0  0  0  0  0  0  0  0  0
   59.2780   31.2263   45.5563 H   0  0  0  0  0  0  0  0  0  0  0  0
   57.0856   32.3600   45.1844 H   0  0  0  0  0  0  0  0  0  0  0  0
   55.2783   31.2010   43.9109 H   0  0  0  0  0  0  0  0  0  0  0  0
   55.6588   28.9043   43.0092 H   0  0  0  0  0  0  0  0  0  0  0  0
   55.0530   23.4420   42.4395 H   0  0  0  0  0  0  0  0  0  0  0  0
   56.5432   21.6165   41.6274 H   0  0  0  0  0  0  0  0  0  0  0  0
   58.3476   20.7212   43.0921 H   0  0  0  0  0  0  0  0  0  0  0  0
   57.1603   23.4748   46.2216 H   0  0  0  0  0  0  0  0  0  0  0  0
  1  2  2  0
  2  3  1  0
  3  4  1  0
  4  5  1  0
  5  6  1  0
  6  7  1  0
  7  8  1  0
  8  9  1  0
  9 10  2  0
 10 11  1  0
 11 12  2  0
 12 13  1  0
 13 14  2  0
  2 15  1  0
 15 16  1  0
 16 17  2  0
 17 18  1  0
 18 19  2  0
 19 20  1  0
 20 21  1  0
 21 22  2  0
 21 23  1  0
 20 24  2  0
 14  9  1  0
 24 16  1  0
  4 25  1  0
  4 26  1  0
  5 27  1  0
  5 28  1  0
  6 29  1  0
  6 30  1  0
  7 31  1  0
  8 32  1  0
  8 33  1  0
 10 34  1  0
 11 35  1  0
 12 36  1  0
 13 37  1  0
 14 38  1  0
 17 39  1  0
 18 40  1  0
 19 41  1  0
 24 42  1  0
M  CHG  4   3  -1  15  -1  21   1  23  -1
M  END
>  <UniqueID>  (38) 
35

>  <SMILES>  (38) 
O=C([N-]CCCNCc1ccccc1)[N-]c1cccc([N+](=O)[O-])c1

>  <Energy>  (38) 
41.68187642314817

>  <Genealogy>  (38) 
O=C([N-]CCCNCc1ccccc1)[N-]c1cccc([N+](=O)[O-])c1 (protonated)
O=C([N-]CCCNCc1ccccc1)[N-]c1cccc([N+](=O)[O-])c1 (3D coordinates assigned)
O=C([N-]CCCNCc1ccccc1)[N-]c1cccc([N+](=O)[O-])c1 (optimized conformer: 41.68187642314817 kcal/mol)

>  <smiles>  (38) 
O=C(NCCCNCc1ccccc1)Nc1cccc([N+](=O)[O-])c1

>  <score_type>  (38) 
oracle

>  <origin>  (38) 
adg

>  <m_score__min__energy>  (38) 
-13

>  <m_primary>  (38) 
energy

$$$$
38:0
     RDKit          3D

 44 46  0  0  0  0  0  0  0  0999 V2000
   58.1376   30.1966   42.9676 H   0  0  0  0  0  0  0  0  0  0  0  0
   57.3310   30.7250   43.4970 C   0  0  0  0  0  0  0  0  0  0  0  0
   56.2530   29.9360   44.1180 C   0  0  0  0  0  0  0  0  0  0  0  0
   55.1730   29.7780   43.4870 O   0  0  0  0  0  0  0  0  0  0  0  0
   56.4460   29.3130   45.3960 N   0  0  0  0  0  0  0  0  0  0  0  0
   57.6340   28.6490   45.8590 C   0  0  0  0  0  0  0  0  0  0  0  0
   58.8680   29.3230   45.9400 C   0  0  0  0  0  0  0  0  0  0  0  0
   58.9304   30.3854   45.6618 H   0  0  0  0  0  0  0  0  0  0  0  0
   60.0140   28.6490   46.3720 C   0  0  0  0  0  0  0  0  0  0  0  0
   60.9721   29.1848   46.4427 H   0  0  0  0  0  0  0  0  0  0  0  0
   59.9450   27.2970   46.7140 C   0  0  0  0  0  0  0  0  0  0  0  0
   60.8464   26.7716   47.0624 H   0  0  0  0  0  0  0  0  0  0  0  0
   58.7320   26.6110   46.6140 C   0  0  0  0  0  0  0  0  0  0  0  0
   58.6823   25.5438   46.8757 H   0  0  0  0  0  0  0  0  0  0  0  0
   57.5780   27.2790   46.1810 C   0  0  0  0  0  0  0  0  0  0  0  0
   56.3390   26.5490   46.0820 C   0  0  0  0  0  0  0  0  0  0  0  0
   55.3450   25.9610   46.0030 N   0  0  0  0  0  0  0  0  0  0  0  0
   57.3640   32.0630   43.5540 C   0  0  0  0  0  0  0  0  0  0  0  0
   56.9233   32.6285   42.7198 H   0  0  0  0  0  0  0  0  0  0  0  0
   57.9610   32.8260   44.6780 C   0  0  0  0  0  0  0  0  0  0  0  0
   57.6790   32.4200   45.9910 C   0  0  0  0  0  0  0  0  0  0  0  0
   57.0309   31.5483   46.1645 H   0  0  0  0  0  0  0  0  0  0  0  0
   58.2140   33.1130   47.0810 C   0  0  0  0  0  0  0  0  0  0  0  0
   57.9900   32.7762   48.1039 H   0  0  0  0  0  0  0  0  0  0  0  0
   59.0310   34.2300   46.8830 C   0  0  0  0  0  0  0  0  0  0  0  0
   59.5460   34.8840   48.0130 O   0  0  0  0  0  0  0  0  0  0  0  0
   60.3490   34.2740   49.0260 C   0  0  0  0  0  0  0  0  0  0  0  0
   60.8607   35.0592   49.6019 H   0  0  0  0  0  0  0  0  0  0  0  0
   59.6964   33.6806   49.6832 H   0  0  0  0  0  0  0  0  0  0  0  0
   61.3780   33.3600   48.4150 C   0  0  0  0  0  0  0  0  0  0  0  0
   62.5020   33.8970   47.7680 C   0  0  0  0  0  0  0  0  0  0  0  0
   62.6335   34.9878   47.7140 H   0  0  0  0  0  0  0  0  0  0  0  0
   63.4550   33.0520   47.1920 C   0  0  0  0  0  0  0  0  0  0  0  0
   64.3373   33.4787   46.6926 H   0  0  0  0  0  0  0  0  0  0  0  0
   63.2880   31.6660   47.2500 C   0  0  0  0  0  0  0  0  0  0  0  0
   64.0397   31.0021   46.7982 H   0  0  0  0  0  0  0  0  0  0  0  0
   62.1660   31.1230   47.8820 C   0  0  0  0  0  0  0  0  0  0  0  0
   62.0346   30.0317   47.9257 H   0  0  0  0  0  0  0  0  0  0  0  0
   61.2100   31.9650   48.4590 C   0  0  0  0  0  0  0  0  0  0  0  0
   60.3241   31.5345   48.9487 H   0  0  0  0  0  0  0  0  0  0  0  0
   59.3000   34.6570   45.5690 C   0  0  0  0  0  0  0  0  0  0  0  0
   59.9325   35.5408   45.3994 H   0  0  0  0  0  0  0  0  0  0  0  0
   58.7670   33.9630   44.4780 C   0  0  0  0  0  0  0  0  0  0  0  0
   58.9792   34.3083   43.4554 H   0  0  0  0  0  0  0  0  0  0  0  0
  1  2  1  0
  2  3  1  0
  3  4  2  0
  3  5  1  0
  5  6  1  0
  6  7  2  0
  7  8  1  0
  7  9  1  0
  9 10  1  0
  9 11  2  0
 11 12  1  0
 11 13  1  0
 13 14  1  0
 13 15  2  0
 15 16  1  0
 16 17  3  0
  2 18  2  0
 18 19  1  0
 18 20  1  0
 20 21  2  0
 21 22  1  0
 21 23  1  0
 23 24  1  0
 23 25  2  0
 25 26  1  0
 26 27  1  0
 27 28  1  0
 27 29  1  0
 27 30  1  0
 30 31  2  0
 31 32  1  0
 31 33  1  0
 33 34  1  0
 33 35  2  0
 35 36  1  0
 35 37  1  0
 37 38  1  0
 37 39  2  0
 39 40  1  0
 25 41  1  0
 41 42  1  0
 41 43  2  0
 43 44  1  0
 15  6  1  0
 43 20  1  0
 39 30  1  0
M  CHG  1   5  -1
M  END
>  <UniqueID>  (39) 
36

>  <SMILES>  (39) 
N#Cc1ccccc1[N-]C(=O)/C=C/c1ccc(OCc2ccccc2)cc1

>  <Energy>  (39) 
51.31706504992294

>  <Genealogy>  (39) 
N#Cc1ccccc1[N-]C(=O)C=Cc1ccc(OCc2ccccc2)cc1 (protonated)
N#Cc1ccccc1[N-]C(=O)/C=C/c1ccc(OCc2ccccc2)cc1 (cis-trans isomerization)
N#Cc1ccccc1[N-]C(=O)/C=C/c1ccc(OCc2ccccc2)cc1 (3D coordinates assigned)
N#Cc1ccccc1[N-]C(=O)/C=C/c1ccc(OCc2ccccc2)cc1 (optimized conformer: 51.31706504992294 kcal/mol)

>  <smiles>  (39) 
N#Cc1ccccc1NC(=O)C=Cc1ccc(OCc2ccccc2)cc1

>  <score_type>  (39) 
oracle

>  <origin>  (39) 
adg

>  <m_score__min__energy>  (39) 
-11.17

>  <m_primary>  (39) 
energy

$$$$
39:0
     RDKit          3D

 41 43  0  0  0  0  0  0  0  0999 V2000
   58.7940   28.2130   44.8980 C   0  0  0  0  0  0  0  0  0  0  0  0
   57.3800   28.2320   45.2560 N   0  0  0  0  0  0  0  0  0  0  0  0
   56.5680   29.4940   44.3790 S   0  0  0  0  0  0  0  0  0  0  0  0
   55.1550   29.6090   44.8770 O   0  0  0  0  0  0  0  0  0  0  0  0
   56.5430   29.1470   42.9150 O   0  0  0  0  0  0  0  0  0  0  0  0
   57.3890   31.0330   44.6290 C   0  0  0  0  0  0  0  0  0  0  0  0
   57.6460   31.8830   43.5470 C   0  0  0  0  0  0  0  0  0  0  0  0
   58.2830   33.1070   43.7560 C   0  0  0  0  0  0  0  0  0  0  0  0
   58.6780   33.4860   45.0420 C   0  0  0  0  0  0  0  0  0  0  0  0
   58.4240   32.6470   46.1490 C   0  0  0  0  0  0  0  0  0  0  0  0
   57.7650   31.4180   45.9240 C   0  0  0  0  0  0  0  0  0  0  0  0
   58.8000   33.0970   47.4770 N   0  0  0  0  0  0  0  0  0  0  0  0
   58.5200   32.3170   48.6950 C   0  0  0  0  0  0  0  0  0  0  0  0
   59.3810   31.0930   48.7460 C   0  0  0  0  0  0  0  0  0  0  0  0
   58.9020   29.9760   48.4050 O   0  0  0  0  0  0  0  0  0  0  0  0
   60.7280   31.1990   49.2290 N   0  0  0  0  0  0  0  0  0  0  0  0
   61.7470   32.0790   48.7330 C   0  0  0  0  0  0  0  0  0  0  0  0
   62.4380   31.8190   47.5330 C   0  0  0  0  0  0  0  0  0  0  0  0
   63.4130   32.7110   47.0760 C   0  0  0  0  0  0  0  0  0  0  0  0
   63.6990   33.8700   47.8020 C   0  0  0  0  0  0  0  0  0  0  0  0
   63.0000   34.1470   48.9810 C   0  0  0  0  0  0  0  0  0  0  0  0
   62.0220   33.2600   49.4410 C   0  0  0  0  0  0  0  0  0  0  0  0
   61.3480   33.5420   50.5850 F   0  0  0  0  0  0  0  0  0  0  0  0
   59.4100   34.3970   47.6080 C   0  0  0  0  0  0  0  0  0  0  0  0
   59.4880   34.9640   48.7330 O   0  0  0  0  0  0  0  0  0  0  0  0
   60.0240   35.0530   46.4110 C   0  0  0  0  0  0  0  0  0  0  0  0
   59.3060   34.7220   45.2240 O   0  0  0  0  0  0  0  0  0  0  0  0
   59.4039   28.2048   45.8134 H   0  0  0  0  0  0  0  0  0  0  0  0
   59.0101   27.3119   44.3053 H   0  0  0  0  0  0  0  0  0  0  0  0
   59.0342   29.1080   44.3053 H   0  0  0  0  0  0  0  0  0  0  0  0
   57.3457   31.5860   42.5313 H   0  0  0  0  0  0  0  0  0  0  0  0
   58.4751   33.7766   42.9047 H   0  0  0  0  0  0  0  0  0  0  0  0
   57.5443   30.7556   46.7740 H   0  0  0  0  0  0  0  0  0  0  0  0
   58.7244   32.9399   49.5783 H   0  0  0  0  0  0  0  0  0  0  0  0
   57.4644   32.0080   48.6836 H   0  0  0  0  0  0  0  0  0  0  0  0
   62.2099   30.9119   46.9541 H   0  0  0  0  0  0  0  0  0  0  0  0
   63.9560   32.4998   46.1430 H   0  0  0  0  0  0  0  0  0  0  0  0
   64.4741   34.5646   47.4461 H   0  0  0  0  0  0  0  0  0  0  0  0
   63.2199   35.0640   49.5473 H   0  0  0  0  0  0  0  0  0  0  0  0
   60.0065   36.1441   46.5499 H   0  0  0  0  0  0  0  0  0  0  0  0
   61.0589   34.6951   46.3067 H   0  0  0  0  0  0  0  0  0  0  0  0
  1  2  1  0
  2  3  1  0
  3  4  2  0
  3  5  2  0
  3  6  1  0
  6  7  2  0
  7  8  1  0
  8  9  2  0
  9 10  1  0
 10 11  2  0
 10 12  1  0
 12 13  1  0
 13 14  1  0
 14 15  2  0
 14 16  1  0
 16 17  1  0
 17 18  2  0
 18 19  1  0
 19 20  2  0
 20 21  1  0
 21 22  2  0
 22 23  1  0
 12 24  1  0
 24 25  2  0
 24 26  1  0
 26 27  1  0
 11  6  1  0
 22 17  1  0
 27  9  1  0
  1 28  1  0
  1 29  1  0
  1 30  1  0
  7 31  1  0
  8 32  1  0
 11 33  1  0
 13 34  1  0
 13 35  1  0
 18 36  1  0
 19 37  1  0
 20 38  1  0
 21 39  1  0
 26 40  1  0
 26 41  1  0
M  CHG  2   2  -1  16  -1
M  END
>  <UniqueID>  (40) 
37

>  <SMILES>  (40) 
C[N-]S(=O)(=O)c1ccc2c(c1)N(CC(=O)[N-]c1ccccc1F)C(=O)CO2

>  <Energy>  (40) 
48.97982595574932

>  <Genealogy>  (40) 
C[N-]S(=O)(=O)c1ccc2c(c1)N(CC(=O)[N-]c1ccccc1F)C(=O)CO2 (protonated)
C[N-]S(=O)(=O)c1ccc2c(c1)N(CC(=O)[N-]c1ccccc1F)C(=O)CO2 (3D coordinates assigned)
C[N-]S(=O)(=O)c1ccc2c(c1)N(CC(=O)[N-]c1ccccc1F)C(=O)CO2 (nonaromatic ring conformer: 48.97982595574932 kcal/mol)

>  <smiles>  (40) 
CNS(=O)(=O)c1ccc2c(c1)N(CC(=O)Nc1ccccc1F)C(=O)CO2

>  <score_type>  (40) 
oracle

>  <origin>  (40) 
adg

>  <m_score__min__energy>  (40) 
-10.66

>  <m_primary>  (40) 
energy

$$$$
40:0
     RDKit          3D

 28 30  0  0  0  0  0  0  0  0999 V2000
   56.4552   28.6784   43.3370 H   0  0  0  0  0  0  0  0  0  0  0  0
   56.9970   29.3680   44.0010 C   0  0  0  0  0  0  0  0  0  0  0  0
   57.7230   28.8610   45.0870 C   0  0  0  0  0  0  0  0  0  0  0  0
   57.7800   27.4410   45.2820 N   0  0  0  0  0  0  0  0  0  0  0  0
   56.7730   26.6600   45.5450 C   0  0  0  0  0  0  0  0  0  0  0  0
   56.8170   25.2860   45.4830 C   0  0  0  0  0  0  0  0  0  0  0  0
   57.6761   24.6416   45.2448 H   0  0  0  0  0  0  0  0  0  0  0  0
   55.5220   24.9090   45.7920 C   0  0  0  0  0  0  0  0  0  0  0  0
   55.0020   23.5110   45.7990 C   0  0  0  0  0  0  0  0  0  0  0  0
   54.8759   23.1719   46.8378 H   0  0  0  0  0  0  0  0  0  0  0  0
   54.0315   23.4782   45.2822 H   0  0  0  0  0  0  0  0  0  0  0  0
   55.7151   22.8519   45.2822 H   0  0  0  0  0  0  0  0  0  0  0  0
   54.7520   25.9990   45.9890 N   0  0  0  0  0  0  0  0  0  0  0  0
   55.5220   27.0660   45.8440 N   0  0  0  0  0  0  0  0  0  0  0  0
   55.1650   28.0450   45.9030 H   0  0  0  0  0  0  0  0  0  0  0  0
   58.4630   29.7410   45.8980 C   0  0  0  0  0  0  0  0  0  0  0  0
   59.0729   29.3447   46.7232 H   0  0  0  0  0  0  0  0  0  0  0  0
   58.4250   31.1220   45.6570 C   0  0  0  0  0  0  0  0  0  0  0  0
   59.1370   32.0220   46.4600 C   0  0  0  0  0  0  0  0  0  0  0  0
   59.7414   31.6512   47.3009 H   0  0  0  0  0  0  0  0  0  0  0  0
   59.0780   33.3900   46.1910 C   0  0  0  0  0  0  0  0  0  0  0  0
   59.6328   34.1027   46.8188 H   0  0  0  0  0  0  0  0  0  0  0  0
   58.3080   33.8480   45.1170 C   0  0  0  0  0  0  0  0  0  0  0  0
   58.2460   35.0800   44.8630 O   0  0  0  0  0  0  0  0  0  0  0  0
   57.6250   32.9640   44.3410 N   0  0  0  0  0  0  0  0  0  0  0  0
   57.6620   31.6250   44.5790 C   0  0  0  0  0  0  0  0  0  0  0  0
   56.9560   30.7430   43.7550 C   0  0  0  0  0  0  0  0  0  0  0  0
   56.3671   31.1323   42.9114 H   0  0  0  0  0  0  0  0  0  0  0  0
  1  2  1  0
  2  3  2  0
  3  4  1  0
  4  5  2  0
  5  6  1  0
  6  7  1  0
  6  8  2  0
  8  9  1  0
  9 10  1  0
  9 11  1  0
  9 12  1  0
  8 13  1  0
 13 14  1  0
 14 15  1  0
  3 16  1  0
 16 17  1  0
 16 18  2  0
 18 19  1  0
 19 20  1  0
 19 21  2  0
 21 22  1  0
 21 23  1  0
 23 24  2  0
 23 25  1  0
 25 26  1  0
 26 27  2  0
 27 28  1  0
 27  2  1  0
 14  5  1  0
 26 18  1  0
M  CHG  2  13  -1  25  -1
M  END
>  <UniqueID>  (41) 
38

>  <SMILES>  (41) 
Cc1c/c(=N/c2ccc3[n-]c(=O)ccc3c2)[nH][n-]1

>  <Energy>  (41) 
70.28274314710131

>  <Genealogy>  (41) 
Cc1cc(=Nc2ccc3[n-]c(=O)ccc3c2)[nH][n-]1 (protonated)
Cc1c/c(=N/c2ccc3[n-]c(=O)ccc3c2)[nH][n-]1 (cis-trans isomerization)
Cc1c/c(=N/c2ccc3[n-]c(=O)ccc3c2)[nH][n-]1 (3D coordinates assigned)
Cc1c/c(=N/c2ccc3[n-]c(=O)ccc3c2)[nH][n-]1 (optimized conformer: 70.28274314710131 kcal/mol)

>  <smiles>  (41) 
Cc1cc(=Nc2ccc3[nH]c(=O)ccc3c2)[nH][nH]1

>  <score_type>  (41) 
oracle

>  <origin>  (41) 
adg

>  <m_score__min__energy>  (41) 
-10.48

>  <m_primary>  (41) 
energy

$$$$
41:0
     RDKit          3D

 41 43  0  0  0  0  0  0  0  0999 V2000
   58.4470   34.3710   52.5030 C   0  0  0  0  0  0  0  0  0  0  0  0
   59.3020   33.4130   51.7270 C   0  0  0  0  0  0  0  0  0  0  0  0
   60.6750   33.3210   51.9800 C   0  0  0  0  0  0  0  0  0  0  0  0
   61.4530   32.4760   51.2520 N   0  0  0  0  0  0  0  0  0  0  0  0
   60.9390   31.7120   50.2450 C   0  0  0  0  0  0  0  0  0  0  0  0
   59.5600   31.7730   49.9480 C   0  0  0  0  0  0  0  0  0  0  0  0
   58.7510   32.6370   50.7020 C   0  0  0  0  0  0  0  0  0  0  0  0
   58.9140   30.8330   48.9480 C   0  0  0  0  0  0  0  0  0  0  0  0
   59.5080   30.8710   47.5980 N   0  0  0  0  0  0  0  0  0  0  0  0
   58.7450   31.4680   46.5260 C   0  0  0  0  0  0  0  0  0  0  0  0
   58.9740   32.7600   46.1600 N   0  0  0  0  0  0  0  0  0  0  0  0
   58.2690   33.3420   45.1560 C   0  0  0  0  0  0  0  0  0  0  0  0
   58.5050   34.5360   44.8360 O   0  0  0  0  0  0  0  0  0  0  0  0
   57.2880   32.6150   44.4810 C   0  0  0  0  0  0  0  0  0  0  0  0
   57.0540   31.2900   44.8660 C   0  0  0  0  0  0  0  0  0  0  0  0
   56.0090   30.4510   44.1710 C   0  0  1  0  0  0  0  0  0  0  0  0
   56.6200   29.6730   43.0000 C   0  0  0  0  0  0  0  0  0  0  0  0
   55.3880   29.5800   45.0820 O   0  0  0  0  0  0  0  0  0  0  0  0
   57.7890   30.7510   45.8760 N   0  0  0  0  0  0  0  0  0  0  0  0
   60.7970   30.2270   47.3090 C   0  0  0  0  0  0  0  0  0  0  0  0
   61.9250   30.9670   48.0280 C   0  0  0  0  0  0  0  0  0  0  0  0
   61.8200   30.8710   49.4860 N   0  0  0  0  0  0  0  0  0  0  0  0
   58.5952   34.2049   53.5802 H   0  0  0  0  0  0  0  0  0  0  0  0
   58.7295   35.4033   52.2488 H   0  0  0  0  0  0  0  0  0  0  0  0
   57.3894   34.2072   52.2488 H   0  0  0  0  0  0  0  0  0  0  0  0
   61.1276   33.9356   52.7721 H   0  0  0  0  0  0  0  0  0  0  0  0
   62.4760   32.4330   51.4610 H   0  0  0  0  0  0  0  0  0  0  0  0
   57.6747   32.7045   50.4851 H   0  0  0  0  0  0  0  0  0  0  0  0
   59.0040   29.8068   49.3338 H   0  0  0  0  0  0  0  0  0  0  0  0
   57.8702   31.1626   48.8391 H   0  0  0  0  0  0  0  0  0  0  0  0
   56.7111   33.0732   43.6641 H   0  0  0  0  0  0  0  0  0  0  0  0
   55.2424   31.1265   43.7635 H   0  0  0  0  0  0  0  0  0  0  0  0
   57.2555   28.8638   43.3892 H   0  0  0  0  0  0  0  0  0  0  0  0
   55.8151   29.2437   42.3853 H   0  0  0  0  0  0  0  0  0  0  0  0
   57.2278   30.3532   42.3853 H   0  0  0  0  0  0  0  0  0  0  0  0
   55.7940   29.7330   45.9760 H   0  0  0  0  0  0  0  0  0  0  0  0
   60.7681   29.1831   47.6546 H   0  0  0  0  0  0  0  0  0  0  0  0
   60.9799   30.2565   46.2247 H   0  0  0  0  0  0  0  0  0  0  0  0
   62.8865   30.5344   47.7145 H   0  0  0  0  0  0  0  0  0  0  0  0
   61.8522   32.0307   47.7573 H   0  0  0  0  0  0  0  0  0  0  0  0
   62.6560   30.4900   49.9810 H   0  0  0  0  0  0  0  0  0  0  0  0
  1  2  1  0
  2  3  2  0
  3  4  1  0
  4  5  2  0
  5  6  1  0
  6  7  2  0
  6  8  1  0
  8  9  1  0
  9 10  1  0
 10 11  2  0
 11 12  1  0
 12 13  2  0
 12 14  1  0
 14 15  2  0
 15 16  1  0
 16 17  1  0
 16 18  1  0
 15 19  1  0
  9 20  1  0
 20 21  1  0
 21 22  1  0
  7  2  1  0
 19 10  1  0
 22  5  1  0
  1 23  1  0
  1 24  1  0
  1 25  1  0
  3 26  1  0
  4 27  1  0
  7 28  1  0
  8 29  1  0
  8 30  1  0
 14 31  1  0
 16 32  1  6
 17 33  1  0
 17 34  1  0
 17 35  1  0
 18 36  1  0
 20 37  1  0
 20 38  1  0
 21 39  1  0
 21 40  1  0
 22 41  1  0
M  CHG  2   4   1  19  -1
M  END
>  <UniqueID>  (42) 
39

>  <SMILES>  (42) 
Cc1c[nH+]c2c(c1)CN(c1nc(=O)cc([C@@H](C)O)[n-]1)CCN2

>  <Energy>  (42) 
50.73094498378962

>  <Genealogy>  (42) 
Cc1c[nH+]c2c(c1)CN(c1nc(=O)cc(C(C)O)[n-]1)CCN2 (protonated)
Cc1c[nH+]c2c(c1)CN(c1nc(=O)cc([C@@H](C)O)[n-]1)CCN2 (chirality)
Cc1c[nH+]c2c(c1)CN(c1nc(=O)cc([C@@H](C)O)[n-]1)CCN2 (3D coordinates assigned)
Cc1c[nH+]c2c(c1)CN(c1nc(=O)cc([C@@H](C)O)[n-]1)CCN2 (nonaromatic ring conformer: 50.73094498378962 kcal/mol)

>  <smiles>  (42) 
Cc1cnc2c(c1)CN(c1nc(=O)cc(C(C)O)[nH]1)CCN2

>  <score_type>  (42) 
oracle

>  <origin>  (42) 
adg

>  <m_score__min__energy>  (42) 
-5.8899999999999997

>  <m_primary>  (42) 
energy

$$$$
42:0
     RDKit          3D

 45 48  0  0  0  0  0  0  0  0999 V2000
   55.3480   30.3060   44.5490 O   0  0  0  0  0  0  0  0  0  0  0  0
   56.7100   30.2790   43.9140 S   0  0  0  0  0  0  0  0  0  0  0  0
   56.7600   31.2170   42.7410 O   0  0  0  0  0  0  0  0  0  0  0  0
   57.0910   28.6860   43.3880 N   0  0  0  0  0  0  0  0  0  0  0  0
   57.8670   27.8940   44.0640 C   0  0  0  0  0  0  0  0  0  0  0  0
   58.1050   26.5020   43.5240 C   0  0  0  0  0  0  0  0  0  0  0  0
   57.2270   25.4220   44.1900 C   0  0  0  0  0  0  0  0  0  0  0  0
   57.5970   25.0430   45.6390 C   0  0  0  0  0  0  0  0  0  0  0  0
   57.7350   26.2420   46.5960 C   0  0  0  0  0  0  0  0  0  0  0  0
   58.8820   27.2190   46.2500 C   0  0  0  0  0  0  0  0  0  0  0  0
   58.4470   28.2930   45.3370 N   0  0  0  0  0  0  0  0  0  0  0  0
   58.7040   29.6870   45.6590 C   0  0  0  0  0  0  0  0  0  0  0  0
   59.7300   30.0560   46.5560 C   0  0  0  0  0  0  0  0  0  0  0  0
   59.9480   31.3970   46.8820 C   0  0  0  0  0  0  0  0  0  0  0  0
   59.1590   32.4000   46.3080 C   0  0  0  0  0  0  0  0  0  0  0  0
   59.4290   34.0940   46.7050 S   0  0  0  0  0  0  0  0  0  0  0  0
   58.1300   34.8530   46.7440 O   0  0  0  0  0  0  0  0  0  0  0  0
   60.3110   34.7040   45.6520 O   0  0  0  0  0  0  0  0  0  0  0  0
   60.2100   34.2270   48.2470 N   0  0  0  0  0  0  0  0  0  0  0  0
   61.5640   33.8400   48.5260 C   0  0  0  0  0  0  0  0  0  0  0  0
   62.4600   33.4540   47.5100 C   0  0  0  0  0  0  0  0  0  0  0  0
   63.7670   33.0680   47.8310 C   0  0  0  0  0  0  0  0  0  0  0  0
   64.1940   33.0800   49.1610 C   0  0  0  0  0  0  0  0  0  0  0  0
   65.4650   32.7150   49.4670 F   0  0  0  0  0  0  0  0  0  0  0  0
   63.3140   33.4710   50.1740 C   0  0  0  0  0  0  0  0  0  0  0  0
   62.0020   33.8430   49.8580 C   0  0  0  0  0  0  0  0  0  0  0  0
   58.1560   32.0520   45.3990 C   0  0  0  0  0  0  0  0  0  0  0  0
   57.9350   30.7090   45.0740 C   0  0  0  0  0  0  0  0  0  0  0  0
   57.8918   26.5066   42.4449 H   0  0  0  0  0  0  0  0  0  0  0  0
   59.1522   26.2461   43.7427 H   0  0  0  0  0  0  0  0  0  0  0  0
   56.1895   25.7875   44.1930 H   0  0  0  0  0  0  0  0  0  0  0  0
   57.3830   24.5085   43.5973 H   0  0  0  0  0  0  0  0  0  0  0  0
   56.8132   24.3783   46.0314 H   0  0  0  0  0  0  0  0  0  0  0  0
   58.5853   24.5620   45.5946 H   0  0  0  0  0  0  0  0  0  0  0  0
   56.7897   26.8042   46.5787 H   0  0  0  0  0  0  0  0  0  0  0  0
   57.9728   25.8231   47.5849 H   0  0  0  0  0  0  0  0  0  0  0  0
   59.2517   27.6741   47.1807 H   0  0  0  0  0  0  0  0  0  0  0  0
   59.6710   26.6450   45.7422 H   0  0  0  0  0  0  0  0  0  0  0  0
   60.3657   29.2779   47.0038 H   0  0  0  0  0  0  0  0  0  0  0  0
   60.7433   31.6655   47.5929 H   0  0  0  0  0  0  0  0  0  0  0  0
   62.1316   33.4558   46.4602 H   0  0  0  0  0  0  0  0  0  0  0  0
   64.4585   32.7549   47.0349 H   0  0  0  0  0  0  0  0  0  0  0  0
   63.6527   33.4864   51.2205 H   0  0  0  0  0  0  0  0  0  0  0  0
   61.3100   34.1396   50.6600 H   0  0  0  0  0  0  0  0  0  0  0  0
   57.5382   32.8365   44.9375 H   0  0  0  0  0  0  0  0  0  0  0  0
  1  2  2  0
  2  3  2  0
  2  4  1  0
  4  5  2  0
  5  6  1  0
  6  7  1  0
  7  8  1  0
  8  9  1  0
  9 10  1  0
 10 11  1  0
 11 12  1  0
 12 13  2  0
 13 14  1  0
 14 15  2  0
 15 16  1  0
 16 17  2  0
 16 18  2  0
 16 19  1  0
 19 20  1  0
 20 21  2  0
 21 22  1  0
 22 23  2  0
 23 24  1  0
 23 25  1  0
 25 26  2  0
 15 27  1  0
 27 28  2  0
 28  2  1  0
 11  5  1  0
 28 12  1  0
 26 20  1  0
  6 29  1  0
  6 30  1  0
  7 31  1  0
  7 32  1  0
  8 33  1  0
  8 34  1  0
  9 35  1  0
  9 36  1  0
 10 37  1  0
 10 38  1  0
 13 39  1  0
 14 40  1  0
 21 41  1  0
 22 42  1  0
 25 43  1  0
 26 44  1  0
 27 45  1  0
M  CHG  1  19  -1
M  END
>  <UniqueID>  (43) 
40

>  <SMILES>  (43) 
O=S1(=O)N=C2CCCCCN2c2ccc(S(=O)(=O)[N-]c3ccc(F)cc3)cc21

>  <Energy>  (43) 
66.2978279909139

>  <Genealogy>  (43) 
O=S1(=O)N=C2CCCCCN2c2ccc(S(=O)(=O)[N-]c3ccc(F)cc3)cc21 (protonated)
O=S1(=O)N=C2CCCCCN2c2ccc(S(=O)(=O)[N-]c3ccc(F)cc3)cc21 (3D coordinates assigned)
O=S1(=O)N=C2CCCCCN2c2ccc(S(=O)(=O)[N-]c3ccc(F)cc3)cc21 (nonaromatic ring conformer: 66.2978279909139 kcal/mol)

>  <smiles>  (43) 
O=S1(=O)N=C2CCCCCN2c2ccc(S(=O)(=O)Nc3ccc(F)cc3)cc21

>  <score_type>  (43) 
oracle

>  <origin>  (43) 
adg

>  <m_score__min__energy>  (43) 
-9.5500000000000007

>  <m_primary>  (43) 
energy

$$$$
43:0
     RDKit          3D

 30 31  0  0  0  0  0  0  0  0999 V2000
   60.1020   26.5200   46.7880 C   0  0  0  0  0  0  0  0  0  0  0  0
   58.6210   26.3820   46.5610 C   0  0  0  0  0  0  0  0  0  0  0  0
   57.9930   25.1390   46.7170 C   0  0  0  0  0  0  0  0  0  0  0  0
   56.6550   25.0200   46.5140 N   0  0  0  0  0  0  0  0  0  0  0  0
   55.9050   26.0930   46.1570 C   0  0  0  0  0  0  0  0  0  0  0  0
   54.6670   25.9630   45.9750 O   0  0  0  0  0  0  0  0  0  0  0  0
   56.4900   27.3080   45.9950 N   0  0  0  0  0  0  0  0  0  0  0  0
   57.8250   27.4780   46.1810 C   0  0  0  0  0  0  0  0  0  0  0  0
   58.5270   29.1180   45.9490 S   0  0  0  0  0  0  0  0  0  0  0  0
   57.7340   29.4140   44.3280 C   0  0  0  0  0  0  0  0  0  0  0  0
   56.3950   30.0750   44.5010 C   0  0  0  0  0  0  0  0  0  0  0  0
   55.3590   29.3640   44.5860 O   0  0  0  0  0  0  0  0  0  0  0  0
   56.2620   31.4980   44.6030 N   0  0  0  0  0  0  0  0  0  0  0  0
   57.2710   32.4210   45.0420 C   0  0  0  0  0  0  0  0  0  0  0  0
   57.4430   32.7260   46.4040 C   0  0  0  0  0  0  0  0  0  0  0  0
   58.4540   33.6040   46.8050 C   0  0  0  0  0  0  0  0  0  0  0  0
   59.3100   34.1690   45.8550 C   0  0  0  0  0  0  0  0  0  0  0  0
   60.2910   35.0190   46.2470 F   0  0  0  0  0  0  0  0  0  0  0  0
   59.1610   33.8470   44.5040 C   0  0  0  0  0  0  0  0  0  0  0  0
   58.1510   32.9690   44.0980 C   0  0  0  0  0  0  0  0  0  0  0  0
   58.0210   32.6610   42.7830 F   0  0  0  0  0  0  0  0  0  0  0  0
   60.3071   26.5391   47.8685 H   0  0  0  0  0  0  0  0  0  0  0  0
   60.6241   25.6666   46.3307 H   0  0  0  0  0  0  0  0  0  0  0  0
   60.4575   27.4552   46.3307 H   0  0  0  0  0  0  0  0  0  0  0  0
   58.5849   24.2575   47.0045 H   0  0  0  0  0  0  0  0  0  0  0  0
   58.3821   30.0652   43.7231 H   0  0  0  0  0  0  0  0  0  0  0  0
   57.5871   28.4465   43.8257 H   0  0  0  0  0  0  0  0  0  0  0  0
   56.7802   32.2725   47.1557 H   0  0  0  0  0  0  0  0  0  0  0  0
   58.5763   33.8508   47.8699 H   0  0  0  0  0  0  0  0  0  0  0  0
   59.8398   34.2851   43.7575 H   0  0  0  0  0  0  0  0  0  0  0  0
  1  2  1  0
  2  3  1  0
  3  4  2  0
  4  5  1  0
  5  6  2  0
  5  7  1  0
  7  8  1  0
  8  9  1  0
  9 10  1  0
 10 11  1  0
 11 12  2  0
 11 13  1  0
 13 14  1  0
 14 15  2  0
 15 16  1  0
 16 17  2  0
 17 18  1  0
 17 19  1  0
 19 20  2  0
 20 21  1  0
  8  2  2  0
 20 14  1  0
  1 22  1  0
  1 23  1  0
  1 24  1  0
  3 25  1  0
 10 26  1  0
 10 27  1  0
 15 28  1  0
 16 29  1  0
 19 30  1  0
M  CHG  2   7  -1  13  -1
M  END
>  <UniqueID>  (44) 
41

>  <SMILES>  (44) 
Cc1cnc(=O)[n-]c1SCC(=O)[N-]c1ccc(F)cc1F

>  <Energy>  (44) 
33.737920834664116

>  <Genealogy>  (44) 
Cc1cnc(=O)[n-]c1SCC(=O)[N-]c1ccc(F)cc1F (protonated)
Cc1cnc(=O)[n-]c1SCC(=O)[N-]c1ccc(F)cc1F (3D coordinates assigned)
Cc1cnc(=O)[n-]c1SCC(=O)[N-]c1ccc(F)cc1F (optimized conformer: 33.737920834664116 kcal/mol)

>  <smiles>  (44) 
Cc1cnc(=O)[nH]c1SCC(=O)Nc1ccc(F)cc1F

>  <score_type>  (44) 
oracle

>  <origin>  (44) 
adg

>  <m_score__min__energy>  (44) 
-11.06

>  <m_primary>  (44) 
energy

$$$$
44:0
     RDKit          3D

 62 65  0  0  0  0  0  0  0  0999 V2000
   60.6360   31.5580   49.4740 C   0  0  0  0  0  0  0  0  0  0  0  0
   60.3600   30.0440   49.4110 C   0  0  0  0  0  0  0  0  0  0  0  0
   60.8120   29.3540   50.7130 C   0  0  0  0  0  0  0  0  0  0  0  0
   58.8500   29.8210   49.2320 C   0  0  0  0  0  0  0  0  0  0  0  0
   61.0120   29.4590   48.2730 O   0  0  0  0  0  0  0  0  0  0  0  0
   60.7900   29.7950   46.9290 C   0  0  0  0  0  0  0  0  0  0  0  0
   61.1640   30.9060   46.4670 O   0  0  0  0  0  0  0  0  0  0  0  0
   60.1260   28.8520   46.0810 N   0  0  0  0  0  0  0  0  0  0  0  0
   59.6880   29.1750   44.7240 C   0  0  0  0  0  0  0  0  0  0  0  0
   58.3670   28.4520   44.3940 C   0  0  2  0  0  0  0  0  0  0  0  0
   57.1330   29.3760   44.4720 C   0  0  0  0  0  0  0  0  0  0  0  0
   57.4830   30.7980   44.1410 C   0  0  0  0  0  0  0  0  0  0  0  0
   57.4260   31.3980   42.8860 C   0  0  0  0  0  0  0  0  0  0  0  0
   57.7690   32.7030   42.9720 N   0  0  0  0  0  0  0  0  0  0  0  0
   58.0340   32.9340   44.2700 C   0  0  0  0  0  0  0  0  0  0  0  0
   58.4200   34.1400   44.8520 C   0  0  0  0  0  0  0  0  0  0  0  0
   58.6360   34.1590   46.2420 C   0  0  0  0  0  0  0  0  0  0  0  0
   58.4610   32.9870   47.0100 C   0  0  0  0  0  0  0  0  0  0  0  0
   58.0700   31.7840   46.3950 C   0  0  0  0  0  0  0  0  0  0  0  0
   57.8660   31.7950   45.0150 C   0  0  0  0  0  0  0  0  0  0  0  0
   58.1920   27.2340   45.1950 N   0  0  0  0  0  0  0  0  0  0  0  0
   57.4760   27.0120   46.4230 C   0  0  0  0  0  0  0  0  0  0  0  0
   57.9630   27.4820   47.4850 O   0  0  0  0  0  0  0  0  0  0  0  0
   56.2190   26.2530   46.5140 C   0  0  0  0  0  0  0  0  0  0  0  0
   55.1610   26.7030   46.0020 O   0  0  0  0  0  0  0  0  0  0  0  0
   56.1880   25.0470   47.2870 N   0  0  0  0  0  0  0  0  0  0  0  0
   56.1110   23.7130   46.7680 C   0  0  0  0  0  0  0  0  0  0  0  0
   55.8480   22.5870   47.5850 C   0  0  0  0  0  0  0  0  0  0  0  0
   55.7520   21.2990   47.0170 C   0  0  0  0  0  0  0  0  0  0  0  0
   55.9040   21.1200   45.6320 C   0  0  0  0  0  0  0  0  0  0  0  0
   56.1410   22.2480   44.8510 C   0  0  0  0  0  0  0  0  0  0  0  0
   56.2360   23.5000   45.3930 C   0  0  0  0  0  0  0  0  0  0  0  0
   56.4660   24.4630   44.4160 O   0  0  0  0  0  0  0  0  0  0  0  0
   56.5370   23.8510   43.1220 C   0  0  0  0  0  0  0  0  0  0  0  0
   56.3210   22.3990   43.4250 C   0  0  0  0  0  0  0  0  0  0  0  0
   56.2990   21.4670   42.5780 O   0  0  0  0  0  0  0  0  0  0  0  0
   60.6941   31.8767   50.5252 H   0  0  0  0  0  0  0  0  0  0  0  0
   61.5891   31.7782   48.9709 H   0  0  0  0  0  0  0  0  0  0  0  0
   59.8219   32.1004   48.9709 H   0  0  0  0  0  0  0  0  0  0  0  0
   60.4395   29.9227   51.5778 H   0  0  0  0  0  0  0  0  0  0  0  0
   60.4083   28.3313   50.7452 H   0  0  0  0  0  0  0  0  0  0  0  0
   61.9109   29.3156   50.7452 H   0  0  0  0  0  0  0  0  0  0  0  0
   58.3702   29.7501   50.2193 H   0  0  0  0  0  0  0  0  0  0  0  0
   58.4183   30.6651   48.6743 H   0  0  0  0  0  0  0  0  0  0  0  0
   58.6807   28.8881   48.6743 H   0  0  0  0  0  0  0  0  0  0  0  0
   59.8310   27.9380   46.4920 H   0  0  0  0  0  0  0  0  0  0  0  0
   59.5358   30.2613   44.6421 H   0  0  0  0  0  0  0  0  0  0  0  0
   60.4603   28.8445   44.0138 H   0  0  0  0  0  0  0  0  0  0  0  0
   58.4472   28.1427   43.3414 H   0  0  0  0  0  0  0  0  0  0  0  0
   56.3752   29.0199   43.7585 H   0  0  0  0  0  0  0  0  0  0  0  0
   56.7480   29.3482   45.5021 H   0  0  0  0  0  0  0  0  0  0  0  0
   57.1421   30.8833   41.9562 H   0  0  0  0  0  0  0  0  0  0  0  0
   57.8090   33.3910   42.1870 H   0  0  0  0  0  0  0  0  0  0  0  0
   58.5515   35.0475   44.2444 H   0  0  0  0  0  0  0  0  0  0  0  0
   58.9434   35.0935   46.7341 H   0  0  0  0  0  0  0  0  0  0  0  0
   58.6316   33.0150   48.0963 H   0  0  0  0  0  0  0  0  0  0  0  0
   57.9297   30.8648   46.9828 H   0  0  0  0  0  0  0  0  0  0  0  0
   55.7177   22.7171   48.6695 H   0  0  0  0  0  0  0  0  0  0  0  0
   55.5570   20.4299   47.6625 H   0  0  0  0  0  0  0  0  0  0  0  0
   55.8378   20.1199   45.1787 H   0  0  0  0  0  0  0  0  0  0  0  0
   55.7501   24.2378   42.4577 H   0  0  0  0  0  0  0  0  0  0  0  0
   57.4845   24.0491   42.5996 H   0  0  0  0  0  0  0  0  0  0  0  0
  1  2  1  0
  2  3  1  0
  2  4  1  0
  2  5  1  0
  5  6  1  0
  6  7  2  0
  6  8  1  0
  8  9  1  0
  9 10  1  0
 10 11  1  0
 11 12  1  0
 12 13  2  0
 13 14  1  0
 14 15  1  0
 15 16  2  0
 16 17  1  0
 17 18  2  0
 18 19  1  0
 19 20  2  0
 10 21  1  0
 21 22  1  0
 22 23  2  0
 22 24  1  0
 24 25  2  0
 24 26  1  0
 26 27  1  0
 27 28  2  0
 28 29  1  0
 29 30  2  0
 30 31  1  0
 31 32  2  0
 32 33  1  0
 33 34  1  0
 34 35  1  0
 35 36  2  0
 20 12  1  0
 32 27  1  0
 20 15  1  0
 35 31  1  0
  1 37  1  0
  1 38  1  0
  1 39  1  0
  3 40  1  0
  3 41  1  0
  3 42  1  0
  4 43  1  0
  4 44  1  0
  4 45  1  0
  8 46  1  0
  9 47  1  0
  9 48  1  0
 10 49  1  6
 11 50  1  0
 11 51  1  0
 13 52  1  0
 14 53  1  0
 16 54  1  0
 17 55  1  0
 18 56  1  0
 19 57  1  0
 28 58  1  0
 29 59  1  0
 30 60  1  0
 34 61  1  0
 34 62  1  0
M  CHG  2  21  -1  26  -1
M  END
>  <UniqueID>  (45) 
42

>  <SMILES>  (45) 
CC(C)(C)OC(=O)NC[C@H](Cc1c[nH]c2ccccc12)[N-]C(=O)C(=O)[N-]c1cccc2c1OCC2=O

>  <Energy>  (45) 
120.61816624349248

>  <Genealogy>  (45) 
CC(C)(C)OC(=O)NCC(Cc1c[nH]c2ccccc12)[N-]C(=O)C(=O)[N-]c1cccc2c1OCC2=O (protonated)
CC(C)(C)OC(=O)NC[C@H](Cc1c[nH]c2ccccc12)[N-]C(=O)C(=O)[N-]c1cccc2c1OCC2=O (chirality)
CC(C)(C)OC(=O)NC[C@H](Cc1c[nH]c2ccccc12)[N-]C(=O)C(=O)[N-]c1cccc2c1OCC2=O (3D coordinates assigned)
CC(C)(C)OC(=O)NC[C@H](Cc1c[nH]c2ccccc12)[N-]C(=O)C(=O)[N-]c1cccc2c1OCC2=O (nonaromatic ring conformer: 120.61816624349248 kcal/mol)

>  <smiles>  (45) 
CC(C)(C)OC(=O)NCC(Cc1c[nH]c2ccccc12)NC(=O)C(=O)Nc1cccc2c1OCC2=O

>  <score_type>  (45) 
oracle

>  <origin>  (45) 
adg

>  <m_score__min__energy>  (45) 
-12.789999999999999

>  <m_primary>  (45) 
energy

$$$$
45:0
     RDKit          3D

 37 39  0  0  0  0  0  0  0  0999 V2000
   59.6860   34.9510   48.8900 O   0  0  0  0  0  0  0  0  0  0  0  0
   60.3700   34.5140   47.9250 C   0  0  0  0  0  0  0  0  0  0  0  0
   59.7830   34.4890   46.5610 C   0  0  0  0  0  0  0  0  0  0  0  0
   59.9840   35.4560   45.7770 O   0  0  0  0  0  0  0  0  0  0  0  0
   58.9600   33.3550   46.0800 C   0  0  0  0  0  0  0  0  0  0  0  0
   58.9140   32.1650   46.8250 C   0  0  0  0  0  0  0  0  0  0  0  0
   58.1320   31.0890   46.3950 C   0  0  0  0  0  0  0  0  0  0  0  0
   57.3610   31.1920   45.2340 C   0  0  0  0  0  0  0  0  0  0  0  0
   56.5990   30.0850   44.8290 O   0  0  0  0  0  0  0  0  0  0  0  0
   57.0840   28.7790   44.6680 C   0  0  0  0  0  0  0  0  0  0  0  0
   57.0050   27.8230   45.6990 C   0  0  0  0  0  0  0  0  0  0  0  0
   57.5160   26.5360   45.5050 C   0  0  0  0  0  0  0  0  0  0  0  0
   58.1170   26.1960   44.2900 C   0  0  0  0  0  0  0  0  0  0  0  0
   58.2150   27.1470   43.2700 C   0  0  0  0  0  0  0  0  0  0  0  0
   57.7060   28.4360   43.4620 C   0  0  0  0  0  0  0  0  0  0  0  0
   57.4020   32.3810   44.4840 C   0  0  0  0  0  0  0  0  0  0  0  0
   58.1860   33.4560   44.9110 C   0  0  0  0  0  0  0  0  0  0  0  0
   61.7470   34.0400   48.1980 C   0  0  0  0  0  0  0  0  0  0  0  0
   62.5200   33.5120   47.1480 C   0  0  0  0  0  0  0  0  0  0  0  0
   63.8160   33.0440   47.3890 C   0  0  0  0  0  0  0  0  0  0  0  0
   64.3460   33.0860   48.6810 C   0  0  0  0  0  0  0  0  0  0  0  0
   63.5800   33.5900   49.7350 C   0  0  0  0  0  0  0  0  0  0  0  0
   62.2840   34.0600   49.4980 C   0  0  0  0  0  0  0  0  0  0  0  0
   59.4976   32.0792   47.7535 H   0  0  0  0  0  0  0  0  0  0  0  0
   58.1235   30.1543   46.9748 H   0  0  0  0  0  0  0  0  0  0  0  0
   56.5400   28.0895   46.6596 H   0  0  0  0  0  0  0  0  0  0  0  0
   57.4448   25.7899   46.3101 H   0  0  0  0  0  0  0  0  0  0  0  0
   58.5125   25.1811   44.1364 H   0  0  0  0  0  0  0  0  0  0  0  0
   58.6928   26.8815   42.3154 H   0  0  0  0  0  0  0  0  0  0  0  0
   57.7952   29.1842   42.6606 H   0  0  0  0  0  0  0  0  0  0  0  0
   56.8147   32.4651   43.5577 H   0  0  0  0  0  0  0  0  0  0  0  0
   58.1976   34.3886   44.3278 H   0  0  0  0  0  0  0  0  0  0  0  0
   62.1028   33.4669   46.1312 H   0  0  0  0  0  0  0  0  0  0  0  0
   64.4183   32.6426   46.5607 H   0  0  0  0  0  0  0  0  0  0  0  0
   65.3670   32.7220   48.8684 H   0  0  0  0  0  0  0  0  0  0  0  0
   63.9966   33.6173   50.7527 H   0  0  0  0  0  0  0  0  0  0  0  0
   61.6815   34.4474   50.3328 H   0  0  0  0  0  0  0  0  0  0  0  0
  1  2  2  0
  2  3  1  0
  3  4  2  0
  3  5  1  0
  5  6  2  0
  6  7  1  0
  7  8  2  0
  8  9  1  0
  9 10  1  0
 10 11  2  0
 11 12  1  0
 12 13  2  0
 13 14  1  0
 14 15  2  0
  8 16  1  0
 16 17  2  0
  2 18  1  0
 18 19  2  0
 19 20  1  0
 20 21  2  0
 21 22  1  0
 22 23  2  0
 17  5  1  0
 23 18  1  0
 15 10  1  0
  6 24  1  0
  7 25  1  0
 11 26  1  0
 12 27  1  0
 13 28  1  0
 14 29  1  0
 15 30  1  0
 16 31  1  0
 17 32  1  0
 19 33  1  0
 20 34  1  0
 21 35  1  0
 22 36  1  0
 23 37  1  0
M  END
>  <UniqueID>  (46) 
43

>  <SMILES>  (46) 
O=C(C(=O)c1ccc(Oc2ccccc2)cc1)c1ccccc1

>  <Energy>  (46) 
55.97153012499854

>  <Genealogy>  (46) 
O=C(C(=O)c1ccc(Oc2ccccc2)cc1)c1ccccc1 (3D coordinates assigned)
O=C(C(=O)c1ccc(Oc2ccccc2)cc1)c1ccccc1 (optimized conformer: 55.97153012499854 kcal/mol)

>  <smiles>  (46) 
O=C(C(=O)c1ccc(Oc2ccccc2)cc1)c1ccccc1

>  <score_type>  (46) 
oracle

>  <origin>  (46) 
adg

>  <m_score__min__energy>  (46) 
-8.3200000000000003

>  <m_primary>  (46) 
energy

$$$$
46:0
     RDKit          3D

 35 37  0  0  0  0  0  0  0  0999 V2000
   57.7971   32.7550   42.6906 H   0  0  0  0  0  0  0  0  0  0  0  0
   57.3860   31.8750   43.2070 C   0  0  0  0  0  0  0  0  0  0  0  0
   57.4800   31.7670   44.6040 C   0  0  0  0  0  0  0  0  0  0  0  0
   58.1210   32.8230   45.4290 C   0  0  0  0  0  0  0  0  0  0  0  0
   58.6910   33.9710   44.8490 C   0  0  0  0  0  0  0  0  0  0  0  0
   58.6749   34.0992   43.7566 H   0  0  0  0  0  0  0  0  0  0  0  0
   59.2770   34.9480   45.6560 C   0  0  0  0  0  0  0  0  0  0  0  0
   59.7261   35.8447   45.2041 H   0  0  0  0  0  0  0  0  0  0  0  0
   59.2880   34.7770   47.0410 C   0  0  0  0  0  0  0  0  0  0  0  0
   59.7520   35.5388   47.6847 H   0  0  0  0  0  0  0  0  0  0  0  0
   58.7260   33.6700   47.5960 N   0  0  0  0  0  0  0  0  0  0  0  0
   58.7400   33.5590   48.6340 H   0  0  0  0  0  0  0  0  0  0  0  0
   58.1470   32.7050   46.8310 C   0  0  0  0  0  0  0  0  0  0  0  0
   57.6954   31.8252   47.3127 H   0  0  0  0  0  0  0  0  0  0  0  0
   56.9850   30.6530   45.2150 N   0  0  0  0  0  0  0  0  0  0  0  0
   56.3920   29.6350   44.5340 C   0  0  0  0  0  0  0  0  0  0  0  0
   55.9360   28.6190   45.2110 N   0  0  0  0  0  0  0  0  0  0  0  0
   56.6790   27.4980   45.7170 C   0  0  0  0  0  0  0  0  0  0  0  0
   58.0610   27.5840   45.9250 C   0  0  0  0  0  0  0  0  0  0  0  0
   58.6020   28.5031   45.6558 H   0  0  0  0  0  0  0  0  0  0  0  0
   58.7500   26.5050   46.4730 C   0  0  0  0  0  0  0  0  0  0  0  0
   60.6380   26.6090   46.7460 Br  0  0  0  0  0  0  0  0  0  0  0  0
   58.0490   25.3540   46.8330 C   0  0  0  0  0  0  0  0  0  0  0  0
   58.5904   24.4986   47.2632 H   0  0  0  0  0  0  0  0  0  0  0  0
   56.6940   25.2790   46.6560 N   0  0  0  0  0  0  0  0  0  0  0  0
   55.9770   24.0670   47.0730 C   0  0  0  0  0  0  0  0  0  0  0  0
   55.9479   24.0179   48.1715 H   0  0  0  0  0  0  0  0  0  0  0  0
   54.9500   24.0950   46.6799 H   0  0  0  0  0  0  0  0  0  0  0  0
   56.4960   23.1804   46.6799 H   0  0  0  0  0  0  0  0  0  0  0  0
   56.0010   26.3370   46.1230 C   0  0  0  0  0  0  0  0  0  0  0  0
   54.7480   26.2750   45.9890 O   0  0  0  0  0  0  0  0  0  0  0  0
   56.2600   29.7380   43.1350 C   0  0  0  0  0  0  0  0  0  0  0  0
   55.7604   28.9409   42.5649 H   0  0  0  0  0  0  0  0  0  0  0  0
   56.7680   30.8590   42.4790 C   0  0  0  0  0  0  0  0  0  0  0  0
   56.6810   30.9418   41.3856 H   0  0  0  0  0  0  0  0  0  0  0  0
  1  2  1  0
  2  3  2  0
  3  4  1  0
  4  5  2  0
  5  6  1  0
  5  7  1  0
  7  8  1  0
  7  9  2  0
  9 10  1  0
  9 11  1  0
 11 12  1  0
 11 13  2  0
 13 14  1  0
  3 15  1  0
 15 16  1  0
 16 17  2  0
 17 18  1  0
 18 19  2  0
 19 20  1  0
 19 21  1  0
 21 22  1  0
 21 23  2  0
 23 24  1  0
 23 25  1  0
 25 26  1  0
 26 27  1  0
 26 28  1  0
 26 29  1  0
 25 30  1  0
 30 31  2  0
 16 32  1  0
 32 33  1  0
 32 34  2  0
 34 35  1  0
 34  2  1  0
 13  4  1  0
 30 18  1  0
M  CHG  2  11   1  15  -1
M  END
>  <UniqueID>  (47) 
44

>  <SMILES>  (47) 
Cn1cc(Br)cc(/N=c2\cccc(-c3ccc[nH+]c3)[n-]2)c1=O

>  <Energy>  (47) 
53.930630489622644

>  <Genealogy>  (47) 
Cn1cc(Br)cc(N=c2cccc(-c3ccc[nH+]c3)[n-]2)c1=O (protonated)
Cn1cc(Br)cc(/N=c2\cccc(-c3ccc[nH+]c3)[n-]2)c1=O (cis-trans isomerization)
Cn1cc(Br)cc(/N=c2\cccc(-c3ccc[nH+]c3)[n-]2)c1=O (3D coordinates assigned)
Cn1cc(Br)cc(/N=c2\cccc(-c3ccc[nH+]c3)[n-]2)c1=O (optimized conformer: 53.930630489622644 kcal/mol)

>  <smiles>  (47) 
Cn1cc(Br)cc(N=c2cccc(-c3cccnc3)[nH]2)c1=O

>  <score_type>  (47) 
oracle

>  <origin>  (47) 
adg

>  <m_score__min__energy>  (47) 
-9.5099999999999998

>  <m_primary>  (47) 
energy

$$$$
47:0
     RDKit          3D

 49 53  0  0  0  0  0  0  0  0999 V2000
   54.8440   29.7150   43.4420 O   0  0  0  0  0  0  0  0  0  0  0  0
   55.8510   29.6940   44.1990 C   0  0  0  0  0  0  0  0  0  0  0  0
   56.9320   30.7280   44.0270 C   0  0  0  0  0  0  0  0  0  0  0  0
   57.4460   31.1620   45.2870 O   0  0  0  0  0  0  0  0  0  0  0  0
   58.0300   32.4170   45.5440 C   0  0  0  0  0  0  0  0  0  0  0  0
   58.1140   33.4140   44.5510 C   0  0  0  0  0  0  0  0  0  0  0  0
   58.6990   34.6500   44.8320 C   0  0  0  0  0  0  0  0  0  0  0  0
   59.2100   34.9160   46.1020 C   0  0  0  0  0  0  0  0  0  0  0  0
   59.1390   33.9430   47.1080 C   0  0  0  0  0  0  0  0  0  0  0  0
   59.6510   34.2090   48.3870 C   0  0  0  0  0  0  0  0  0  0  0  0
   59.5790   33.2370   49.3880 C   0  0  0  0  0  0  0  0  0  0  0  0
   58.9970   31.9970   49.1230 C   0  0  0  0  0  0  0  0  0  0  0  0
   58.4830   31.7170   47.8530 C   0  0  0  0  0  0  0  0  0  0  0  0
   58.5460   32.6840   46.8300 C   0  0  0  0  0  0  0  0  0  0  0  0
   55.8940   28.7280   45.2560 N   0  0  0  0  0  0  0  0  0  0  0  0
   57.0600   27.9310   45.6290 C   0  0  2  0  0  0  0  0  0  0  0  0
   58.2310   28.1950   44.6510 C   0  0  0  0  0  0  0  0  0  0  0  0
   58.0050   27.5220   43.2790 C   0  0  0  0  0  0  0  0  0  0  0  0
   57.8930   25.9910   43.4040 C   0  0  0  0  0  0  0  0  0  0  0  0
   56.9980   25.6290   44.5500 C   0  0  0  0  0  0  0  0  0  0  0  0
   56.6790   26.4800   45.5960 C   0  0  0  0  0  0  0  0  0  0  0  0
   55.9200   25.8490   46.5210 N   0  0  0  0  0  0  0  0  0  0  0  0
   55.7870   24.5860   46.0730 C   0  0  0  0  0  0  0  0  0  0  0  0
   55.1060   23.5380   46.6900 C   0  0  0  0  0  0  0  0  0  0  0  0
   55.1080   22.2850   46.0500 C   0  0  0  0  0  0  0  0  0  0  0  0
   55.7850   22.1060   44.8210 C   0  0  0  0  0  0  0  0  0  0  0  0
   55.7790   20.8610   44.2030 O   0  0  0  0  0  0  0  0  0  0  0  0
   56.4640   23.1820   44.2200 C   0  0  0  0  0  0  0  0  0  0  0  0
   56.4400   24.4120   44.8750 C   0  0  0  0  0  0  0  0  0  0  0  0
   57.7522   30.2930   43.4370 H   0  0  0  0  0  0  0  0  0  0  0  0
   56.4986   31.5984   43.5126 H   0  0  0  0  0  0  0  0  0  0  0  0
   57.7148   33.2162   43.5452 H   0  0  0  0  0  0  0  0  0  0  0  0
   58.7572   35.4185   44.0471 H   0  0  0  0  0  0  0  0  0  0  0  0
   59.6701   35.8923   46.3147 H   0  0  0  0  0  0  0  0  0  0  0  0
   60.1102   35.1852   48.6021 H   0  0  0  0  0  0  0  0  0  0  0  0
   59.9827   33.4502   50.3888 H   0  0  0  0  0  0  0  0  0  0  0  0
   58.9423   31.2367   49.9161 H   0  0  0  0  0  0  0  0  0  0  0  0
   58.0270   30.7365   47.6515 H   0  0  0  0  0  0  0  0  0  0  0  0
   57.3893   28.2102   46.6407 H   0  0  0  0  0  0  0  0  0  0  0  0
   58.3306   29.2802   44.5016 H   0  0  0  0  0  0  0  0  0  0  0  0
   59.1436   27.7674   45.0919 H   0  0  0  0  0  0  0  0  0  0  0  0
   57.0750   27.9123   42.8399 H   0  0  0  0  0  0  0  0  0  0  0  0
   58.8705   27.7503   42.6397 H   0  0  0  0  0  0  0  0  0  0  0  0
   57.4753   25.5801   42.4730 H   0  0  0  0  0  0  0  0  0  0  0  0
   58.8938   25.5716   43.5841 H   0  0  0  0  0  0  0  0  0  0  0  0
   55.5240   26.2560   47.3980 H   0  0  0  0  0  0  0  0  0  0  0  0
   54.5837   23.6858   47.6467 H   0  0  0  0  0  0  0  0  0  0  0  0
   54.5785   21.4373   46.5094 H   0  0  0  0  0  0  0  0  0  0  0  0
   56.9959   23.0566   43.2653 H   0  0  0  0  0  0  0  0  0  0  0  0
  1  2  2  0
  2  3  1  0
  3  4  1  0
  4  5  1  0
  5  6  2  0
  6  7  1  0
  7  8  2  0
  8  9  1  0
  9 10  2  0
 10 11  1  0
 11 12  2  0
 12 13  1  0
 13 14  2  0
  2 15  1  0
 15 16  1  0
 16 17  1  0
 17 18  1  0
 18 19  1  0
 19 20  1  0
 20 21  2  0
 21 22  1  0
 22 23  1  0
 23 24  2  0
 24 25  1  0
 25 26  2  0
 26 27  1  0
 26 28  1  0
 28 29  2  0
 14  5  1  0
 21 16  1  0
 29 23  1  0
 14  9  1  0
 29 20  1  0
  3 30  1  0
  3 31  1  0
  6 32  1  0
  7 33  1  0
  8 34  1  0
 10 35  1  0
 11 36  1  0
 12 37  1  0
 13 38  1  0
 16 39  1  1
 17 40  1  0
 17 41  1  0
 18 42  1  0
 18 43  1  0
 19 44  1  0
 19 45  1  0
 22 46  1  0
 24 47  1  0
 25 48  1  0
 28 49  1  0
M  CHG  2  15  -1  27  -1
M  END
>  <UniqueID>  (48) 
45

>  <SMILES>  (48) 
O=C(COc1cccc2ccccc12)[N-][C@@H]1CCCc2c1[nH]c1ccc([O-])cc21

>  <Energy>  (48) 
90.2891834271043

>  <Genealogy>  (48) 
O=C(COc1cccc2ccccc12)[N-]C1CCCc2c1[nH]c1ccc([O-])cc21 (protonated)
O=C(COc1cccc2ccccc12)[N-][C@@H]1CCCc2c1[nH]c1ccc([O-])cc21 (chirality)
O=C(COc1cccc2ccccc12)[N-][C@@H]1CCCc2c1[nH]c1ccc([O-])cc21 (3D coordinates assigned)
O=C(COc1cccc2ccccc12)[N-][C@@H]1CCCc2c1[nH]c1ccc([O-])cc21 (nonaromatic ring conformer: 90.2891834271043 kcal/mol)

>  <smiles>  (48) 
O=C(COc1cccc2ccccc12)NC1CCCc2c1[nH]c1ccc(O)cc21

>  <score_type>  (48) 
oracle

>  <origin>  (48) 
adg

>  <m_score__min__energy>  (48) 
-13.65

>  <m_primary>  (48) 
energy

$$$$
48:0
     RDKit          3D

 31 32  0  0  0  0  0  0  0  0999 V2000
   65.0730   33.0040   49.7400 C   0  0  0  0  0  0  0  0  0  0  0  0
   64.0130   33.7970   49.2170 O   0  0  0  0  0  0  0  0  0  0  0  0
   62.9030   33.2820   48.5300 C   0  0  0  0  0  0  0  0  0  0  0  0
   63.0500   32.0770   47.8360 C   0  0  0  0  0  0  0  0  0  0  0  0
   61.9750   31.5220   47.1360 C   0  0  0  0  0  0  0  0  0  0  0  0
   60.7260   32.1680   47.1180 C   0  0  0  0  0  0  0  0  0  0  0  0
   59.5820   31.5810   46.3750 C   0  0  0  0  0  0  0  0  0  0  0  0
   58.6780   32.4070   45.6840 C   0  0  0  0  0  0  0  0  0  0  0  0
   57.6010   31.8550   44.9850 C   0  0  0  0  0  0  0  0  0  0  0  0
   57.4020   30.4620   44.9580 C   0  0  0  0  0  0  0  0  0  0  0  0
   56.2610   29.8570   44.2190 C   0  0  0  0  0  0  0  0  0  0  0  0
   56.2640   29.7250   42.7240 C   0  0  0  0  0  0  0  0  0  0  0  0
   55.2540   29.4380   44.8540 O   0  0  0  0  0  0  0  0  0  0  0  0
   58.3080   29.6380   45.6500 C   0  0  0  0  0  0  0  0  0  0  0  0
   59.3840   30.1900   46.3490 C   0  0  0  0  0  0  0  0  0  0  0  0
   60.5790   33.3810   47.8170 C   0  0  0  0  0  0  0  0  0  0  0  0
   61.6560   33.9330   48.5160 C   0  0  0  0  0  0  0  0  0  0  0  0
   65.0409   33.0280   50.8393 H   0  0  0  0  0  0  0  0  0  0  0  0
   64.9606   31.9664   49.3925 H   0  0  0  0  0  0  0  0  0  0  0  0
   66.0366   33.4047   49.3925 H   0  0  0  0  0  0  0  0  0  0  0  0
   64.0213   31.5607   47.8410 H   0  0  0  0  0  0  0  0  0  0  0  0
   62.1069   30.5732   46.5953 H   0  0  0  0  0  0  0  0  0  0  0  0
   58.8198   33.4978   45.6937 H   0  0  0  0  0  0  0  0  0  0  0  0
   56.9022   32.5156   44.4508 H   0  0  0  0  0  0  0  0  0  0  0  0
   56.2882   28.6599   42.4500 H   0  0  0  0  0  0  0  0  0  0  0  0
   55.3551   30.1888   42.3131 H   0  0  0  0  0  0  0  0  0  0  0  0
   57.1509   30.2295   42.3131 H   0  0  0  0  0  0  0  0  0  0  0  0
   58.1676   28.5470   45.6406 H   0  0  0  0  0  0  0  0  0  0  0  0
   60.0827   29.5299   46.8839 H   0  0  0  0  0  0  0  0  0  0  0  0
   59.6084   33.8987   47.8130 H   0  0  0  0  0  0  0  0  0  0  0  0
   61.5279   34.8815   49.0581 H   0  0  0  0  0  0  0  0  0  0  0  0
  1  2  1  0
  2  3  1  0
  3  4  2  0
  4  5  1  0
  5  6  2  0
  6  7  1  0
  7  8  2  0
  8  9  1  0
  9 10  2  0
 10 11  1  0
 11 12  1  0
 11 13  2  0
 10 14  1  0
 14 15  2  0
  6 16  1  0
 16 17  2  0
 17  3  1  0
 15  7  1  0
  1 18  1  0
  1 19  1  0
  1 20  1  0
  4 21  1  0
  5 22  1  0
  8 23  1  0
  9 24  1  0
 12 25  1  0
 12 26  1  0
 12 27  1  0
 14 28  1  0
 15 29  1  0
 16 30  1  0
 17 31  1  0
M  END
>  <UniqueID>  (49) 
46

>  <SMILES>  (49) 
COc1ccc(-c2ccc(C(C)=O)cc2)cc1

>  <Energy>  (49) 
36.490430327000794

>  <Genealogy>  (49) 
COc1ccc(-c2ccc(C(C)=O)cc2)cc1 (3D coordinates assigned)
COc1ccc(-c2ccc(C(C)=O)cc2)cc1 (optimized conformer: 36.490430327000794 kcal/mol)

>  <smiles>  (49) 
COc1ccc(-c2ccc(C(C)=O)cc2)cc1

>  <score_type>  (49) 
oracle

>  <origin>  (49) 
adg

>  <m_score__min__energy>  (49) 
-6.4400000000000004

>  <m_primary>  (49) 
energy

$$$$
49:0
     RDKit          3D

 19 20  0  0  0  0  0  0  0  0999 V2000
   56.6500   30.5420   45.2160 O   0  0  0  0  0  0  0  0  0  0  0  0
   57.0330   31.1660   44.1910 C   0  0  0  0  0  0  0  0  0  0  0  0
   56.7150   30.7250   42.8900 C   0  0  0  0  0  0  0  0  0  0  0  0
   57.2640   31.5180   41.8860 C   0  0  0  0  0  0  0  0  0  0  0  0
   58.1110   32.7170   42.6840 S   0  0  0  0  0  0  0  0  0  0  0  0
   57.8060   32.2850   44.2600 N   0  0  0  0  0  0  0  0  0  0  0  0
   58.2940   32.9680   45.4310 C   0  0  0  0  0  0  0  0  0  0  0  0
   58.9610   34.2020   45.3230 C   0  0  0  0  0  0  0  0  0  0  0  0
   59.4400   34.8490   46.4670 C   0  0  0  0  0  0  0  0  0  0  0  0
   59.2640   34.2700   47.7250 C   0  0  0  0  0  0  0  0  0  0  0  0
   58.6150   33.0400   47.8420 C   0  0  0  0  0  0  0  0  0  0  0  0
   58.1350   32.3880   46.7020 C   0  0  0  0  0  0  0  0  0  0  0  0
   56.0934   29.8402   42.6879 H   0  0  0  0  0  0  0  0  0  0  0  0
   57.1619   31.3838   40.7990 H   0  0  0  0  0  0  0  0  0  0  0  0
   59.1066   34.6605   44.3338 H   0  0  0  0  0  0  0  0  0  0  0  0
   59.9564   35.8159   46.3751 H   0  0  0  0  0  0  0  0  0  0  0  0
   59.6367   34.7831   48.6238 H   0  0  0  0  0  0  0  0  0  0  0  0
   58.4808   32.5824   48.8333 H   0  0  0  0  0  0  0  0  0  0  0  0
   57.6301   31.4157   46.8000 H   0  0  0  0  0  0  0  0  0  0  0  0
  1  2  2  0
  2  3  1  0
  3  4  2  0
  4  5  1  0
  5  6  1  0
  6  7  1  0
  7  8  2  0
  8  9  1  0
  9 10  2  0
 10 11  1  0
 11 12  2  0
  6  2  1  0
 12  7  1  0
  3 13  1  0
  4 14  1  0
  8 15  1  0
  9 16  1  0
 10 17  1  0
 11 18  1  0
 12 19  1  0
M  END
>  <UniqueID>  (50) 
47

>  <SMILES>  (50) 
O=c1ccsn1-c1ccccc1

>  <Energy>  (50) 
57.82105036331856

>  <Genealogy>  (50) 
O=c1ccsn1-c1ccccc1 (3D coordinates assigned)
O=c1ccsn1-c1ccccc1 (optimized conformer: 57.82105036331856 kcal/mol)

>  <smiles>  (50) 
O=c1ccsn1-c1ccccc1

>  <score_type>  (50) 
oracle

>  <origin>  (50) 
adg

>  <m_score__min__energy>  (50) 
-5.5999999999999996

>  <m_primary>  (50) 
energy

$$$$
50:0
     RDKit          3D

 39 40  0  0  0  0  0  0  0  0999 V2000
   60.7010   29.6770   49.7120 C   0  0  0  0  0  0  0  0  0  0  0  0
   60.7930   30.0660   48.3470 O   0  0  0  0  0  0  0  0  0  0  0  0
   60.1850   29.3800   47.2850 C   0  0  0  0  0  0  0  0  0  0  0  0
   59.1220   28.4770   47.4790 C   0  0  0  0  0  0  0  0  0  0  0  0
   58.5490   27.8180   46.3870 C   0  0  0  0  0  0  0  0  0  0  0  0
   59.0290   28.0460   45.0880 C   0  0  0  0  0  0  0  0  0  0  0  0
   58.3950   27.3550   43.9040 C   0  0  0  0  0  0  0  0  0  0  0  0
   57.3970   28.2100   43.2380 N   0  0  0  0  0  0  0  0  0  0  0  0
   56.6860   29.0750   44.1950 C   0  0  0  0  0  0  0  0  0  0  0  0
   57.1800   30.4950   44.0860 C   0  0  0  0  0  0  0  0  0  0  0  0
   57.3120   31.1030   42.8280 C   0  0  0  0  0  0  0  0  0  0  0  0
   57.8030   32.4070   42.7280 C   0  0  0  0  0  0  0  0  0  0  0  0
   58.1740   33.1100   43.8770 C   0  0  0  0  0  0  0  0  0  0  0  0
   58.0600   32.5070   45.1440 C   0  0  0  0  0  0  0  0  0  0  0  0
   58.4260   33.1640   46.3280 O   0  0  0  0  0  0  0  0  0  0  0  0
   58.8770   34.5130   46.4020 C   0  0  0  0  0  0  0  0  0  0  0  0
   59.1400   34.8520   47.7170 F   0  0  0  0  0  0  0  0  0  0  0  0
   60.0390   34.6420   45.6650 F   0  0  0  0  0  0  0  0  0  0  0  0
   57.5680   31.1990   45.2370 C   0  0  0  0  0  0  0  0  0  0  0  0
   60.0860   28.9490   44.8960 C   0  0  0  0  0  0  0  0  0  0  0  0
   60.6580   29.6080   45.9870 C   0  0  0  0  0  0  0  0  0  0  0  0
   60.9064   30.5453   50.3554 H   0  0  0  0  0  0  0  0  0  0  0  0
   59.6887   29.2991   49.9182 H   0  0  0  0  0  0  0  0  0  0  0  0
   61.4368   28.8857   49.9182 H   0  0  0  0  0  0  0  0  0  0  0  0
   58.7409   28.2893   48.4937 H   0  0  0  0  0  0  0  0  0  0  0  0
   57.7169   27.1166   46.5470 H   0  0  0  0  0  0  0  0  0  0  0  0
   59.1818   27.0967   43.1799 H   0  0  0  0  0  0  0  0  0  0  0  0
   57.8815   26.4538   44.2703 H   0  0  0  0  0  0  0  0  0  0  0  0
   56.7010   27.5840   42.7670 H   0  0  0  0  0  0  0  0  0  0  0  0
   57.8610   28.7940   42.5050 H   0  0  0  0  0  0  0  0  0  0  0  0
   55.6082   29.0482   43.9766 H   0  0  0  0  0  0  0  0  0  0  0  0
   56.8737   28.7088   45.2151 H   0  0  0  0  0  0  0  0  0  0  0  0
   57.0284   30.5519   41.9193 H   0  0  0  0  0  0  0  0  0  0  0  0
   57.8979   32.8823   41.7405 H   0  0  0  0  0  0  0  0  0  0  0  0
   58.5564   34.1378   43.7914 H   0  0  0  0  0  0  0  0  0  0  0  0
   58.0968   35.1778   46.0028 H   0  0  0  0  0  0  0  0  0  0  0  0
   57.4847   30.7180   46.2227 H   0  0  0  0  0  0  0  0  0  0  0  0
   60.4660   29.1389   43.8813 H   0  0  0  0  0  0  0  0  0  0  0  0
   61.4873   30.3122   45.8249 H   0  0  0  0  0  0  0  0  0  0  0  0
  1  2  1  0
  2  3  1  0
  3  4  2  0
  4  5  1  0
  5  6  2  0
  6  7  1  0
  7  8  1  0
  8  9  1  0
  9 10  1  0
 10 11  2  0
 11 12  1  0
 12 13  2  0
 13 14  1  0
 14 15  1  0
 15 16  1  0
 16 17  1  0
 16 18  1  0
 14 19  2  0
  6 20  1  0
 20 21  2  0
 21  3  1  0
 19 10  1  0
  1 22  1  0
  1 23  1  0
  1 24  1  0
  4 25  1  0
  5 26  1  0
  7 27  1  0
  7 28  1  0
  8 29  1  0
  8 30  1  0
  9 31  1  0
  9 32  1  0
 11 33  1  0
 12 34  1  0
 13 35  1  0
 16 36  1  0
 19 37  1  0
 20 38  1  0
 21 39  1  0
M  CHG  1   8   1
M  END
>  <UniqueID>  (51) 
48

>  <SMILES>  (51) 
COc1ccc(C[NH2+]Cc2cccc(OC(F)F)c2)cc1

>  <Energy>  (51) 
37.00138252886255

>  <Genealogy>  (51) 
COc1ccc(C[NH2+]Cc2cccc(OC(F)F)c2)cc1 (protonated)
COc1ccc(C[NH2+]Cc2cccc(OC(F)F)c2)cc1 (3D coordinates assigned)
COc1ccc(C[NH2+]Cc2cccc(OC(F)F)c2)cc1 (optimized conformer: 37.00138252886255 kcal/mol)

>  <smiles>  (51) 
COc1ccc(CNCc2cccc(OC(F)F)c2)cc1

>  <score_type>  (51) 
oracle

>  <origin>  (51) 
adg

>  <m_score__min__energy>  (51) 
-4.8399999999999999

>  <m_primary>  (51) 
energy

$$$$
51:0
     RDKit          3D

 40 42  0  0  0  0  0  0  0  0999 V2000
   57.0340   33.8200   45.3590 C   0  0  0  0  0  0  0  0  0  0  0  0
   58.1570   34.5860   45.9280 N   0  0  0  0  0  0  0  0  0  0  0  0
   59.0860   34.9690   44.8530 C   0  0  0  0  0  0  0  0  0  0  0  0
   58.8610   33.8060   46.9710 C   0  0  0  0  0  0  0  0  0  0  0  0
   60.1200   33.1410   46.4000 C   0  0  0  0  0  0  0  0  0  0  0  0
   60.1620   31.6730   46.7440 C   0  0  0  0  0  0  0  0  0  0  0  0
   61.1350   31.0090   47.4950 C   0  0  0  0  0  0  0  0  0  0  0  0
   62.2670   31.6120   48.2230 C   0  0  0  0  0  0  0  0  0  0  0  0
   63.0700   32.5750   47.5910 C   0  0  0  0  0  0  0  0  0  0  0  0
   64.1360   33.1630   48.2780 C   0  0  0  0  0  0  0  0  0  0  0  0
   64.4160   32.7840   49.5930 C   0  0  0  0  0  0  0  0  0  0  0  0
   65.4510   33.3560   50.2580 F   0  0  0  0  0  0  0  0  0  0  0  0
   63.6350   31.8100   50.2220 C   0  0  0  0  0  0  0  0  0  0  0  0
   62.5660   31.2210   49.5370 C   0  0  0  0  0  0  0  0  0  0  0  0
   60.9490   29.6740   47.3850 N   0  0  0  0  0  0  0  0  0  0  0  0
   59.8780   29.5410   46.5810 C   0  0  0  0  0  0  0  0  0  0  0  0
   59.3180   28.3420   46.1480 C   0  0  0  0  0  0  0  0  0  0  0  0
   58.2270   28.4100   45.2690 C   0  0  0  0  0  0  0  0  0  0  0  0
   57.7350   29.6590   44.8440 C   0  0  0  0  0  0  0  0  0  0  0  0
   56.2600   29.7520   43.6350 Br  0  0  0  0  0  0  0  0  0  0  0  0
   58.3420   30.8370   45.3090 C   0  0  0  0  0  0  0  0  0  0  0  0
   59.3870   30.7270   46.1720 N   0  0  0  0  0  0  0  0  0  0  0  0
   56.4238   33.4038   46.1741 H   0  0  0  0  0  0  0  0  0  0  0  0
   56.4139   34.4842   44.7391 H   0  0  0  0  0  0  0  0  0  0  0  0
   57.4261   33.0003   44.7391 H   0  0  0  0  0  0  0  0  0  0  0  0
   60.0179   35.3532   45.2933 H   0  0  0  0  0  0  0  0  0  0  0  0
   59.3096   34.0897   44.2310 H   0  0  0  0  0  0  0  0  0  0  0  0
   58.6249   35.7504   44.2310 H   0  0  0  0  0  0  0  0  0  0  0  0
   59.1498   34.4797   47.7912 H   0  0  0  0  0  0  0  0  0  0  0  0
   58.1847   33.0206   47.3394 H   0  0  0  0  0  0  0  0  0  0  0  0
   60.1211   33.2538   45.3058 H   0  0  0  0  0  0  0  0  0  0  0  0
   61.0027   33.6284   46.8397 H   0  0  0  0  0  0  0  0  0  0  0  0
   62.8595   32.8677   46.5518 H   0  0  0  0  0  0  0  0  0  0  0  0
   64.7552   33.9252   47.7824 H   0  0  0  0  0  0  0  0  0  0  0  0
   63.8606   31.5066   51.2550 H   0  0  0  0  0  0  0  0  0  0  0  0
   61.9579   30.4486   50.0306 H   0  0  0  0  0  0  0  0  0  0  0  0
   61.5220   28.9120   47.8110 H   0  0  0  0  0  0  0  0  0  0  0  0
   59.7178   27.3739   46.4840 H   0  0  0  0  0  0  0  0  0  0  0  0
   57.7539   27.4840   44.9103 H   0  0  0  0  0  0  0  0  0  0  0  0
   57.9812   31.8238   44.9833 H   0  0  0  0  0  0  0  0  0  0  0  0
  1  2  1  0
  2  3  1  0
  2  4  1  0
  4  5  1  0
  5  6  1  0
  6  7  2  0
  7  8  1  0
  8  9  2  0
  9 10  1  0
 10 11  2  0
 11 12  1  0
 11 13  1  0
 13 14  2  0
  7 15  1  0
 15 16  2  0
 16 17  1  0
 17 18  2  0
 18 19  1  0
 19 20  1  0
 19 21  2  0
 21 22  1  0
 22  6  1  0
 14  8  1  0
 22 16  1  0
  1 23  1  0
  1 24  1  0
  1 25  1  0
  3 26  1  0
  3 27  1  0
  3 28  1  0
  4 29  1  0
  4 30  1  0
  5 31  1  0
  5 32  1  0
  9 33  1  0
 10 34  1  0
 13 35  1  0
 14 36  1  0
 15 37  1  0
 17 38  1  0
 18 39  1  0
 21 40  1  0
M  CHG  1  15   1
M  END
>  <UniqueID>  (52) 
49

>  <SMILES>  (52) 
CN(C)CCc1c(-c2ccc(F)cc2)[nH+]c2ccc(Br)cn12

>  <Energy>  (52) 
79.38410076618312

>  <Genealogy>  (52) 
CN(C)CCc1c(-c2ccc(F)cc2)[nH+]c2ccc(Br)cn12 (protonated)
CN(C)CCc1c(-c2ccc(F)cc2)[nH+]c2ccc(Br)cn12 (3D coordinates assigned)
CN(C)CCc1c(-c2ccc(F)cc2)[nH+]c2ccc(Br)cn12 (optimized conformer: 79.38410076618312 kcal/mol)

>  <smiles>  (52) 
CN(C)CCc1c(-c2ccc(F)cc2)nc2ccc(Br)cn12

>  <score_type>  (52) 
oracle

>  <origin>  (52) 
adg

>  <m_score__min__energy>  (52) 
-5.5199999999999996

>  <m_primary>  (52) 
energy

$$$$
52:0
     RDKit          3D

 47 48  0  0  0  0  0  0  0  0999 V2000
   57.1580   31.3770   42.3620 C   0  0  0  0  0  0  0  0  0  0  0  0
   57.6670   32.0450   43.6050 C   0  0  0  0  0  0  0  0  0  0  0  0
   57.3330   31.5510   44.8750 C   0  0  0  0  0  0  0  0  0  0  0  0
   57.8100   32.1850   46.0260 C   0  0  0  0  0  0  0  0  0  0  0  0
   58.6260   33.3210   45.9200 C   0  0  0  0  0  0  0  0  0  0  0  0
   59.2850   34.0790   47.3730 S   0  0  0  0  0  0  0  0  0  0  0  0
   58.5340   33.5490   48.5630 O   0  0  0  0  0  0  0  0  0  0  0  0
   59.0510   35.5620   47.3060 O   0  0  0  0  0  0  0  0  0  0  0  0
   60.9940   33.7700   47.6000 N   0  0  0  0  0  0  0  0  0  0  0  0
   61.3700   33.7430   49.0170 C   0  0  0  0  0  0  0  0  0  0  0  0
   61.5080   32.6290   46.8120 C   0  0  0  0  0  0  0  0  0  0  0  0
   61.1960   31.2240   47.4000 C   0  0  1  0  0  0  0  0  0  0  0  0
   59.8680   31.2090   47.8590 O   0  0  0  0  0  0  0  0  0  0  0  0
   61.3830   30.1080   46.3560 C   0  0  0  0  0  0  0  0  0  0  0  0
   60.1940   29.9410   45.5790 O   0  0  0  0  0  0  0  0  0  0  0  0
   59.1960   28.9810   45.8150 C   0  0  0  0  0  0  0  0  0  0  0  0
   58.3890   28.5870   44.7430 C   0  0  0  0  0  0  0  0  0  0  0  0
   57.3650   27.6540   44.9280 C   0  0  0  0  0  0  0  0  0  0  0  0
   57.1370   27.0840   46.1930 C   0  0  0  0  0  0  0  0  0  0  0  0
   56.0520   26.0950   46.3900 C   0  0  0  0  0  0  0  0  0  0  0  0
   54.7690   26.3010   45.8040 N   0  0  0  0  0  0  0  0  0  0  0  0
   56.2540   25.0570   47.0760 O   0  0  0  0  0  0  0  0  0  0  0  0
   57.9600   27.4680   47.2660 C   0  0  0  0  0  0  0  0  0  0  0  0
   58.9820   28.4030   47.0800 C   0  0  0  0  0  0  0  0  0  0  0  0
   58.9370   33.8310   44.6510 C   0  0  0  0  0  0  0  0  0  0  0  0
   58.4640   33.1940   43.5010 C   0  0  0  0  0  0  0  0  0  0  0  0
   56.5128   30.5302   42.6388 H   0  0  0  0  0  0  0  0  0  0  0  0
   56.5796   32.0998   41.7679 H   0  0  0  0  0  0  0  0  0  0  0  0
   58.0084   31.0111   41.7679 H   0  0  0  0  0  0  0  0  0  0  0  0
   56.6930   30.6609   44.9654 H   0  0  0  0  0  0  0  0  0  0  0  0
   57.5445   31.7916   47.0183 H   0  0  0  0  0  0  0  0  0  0  0  0
   60.4644   33.8080   49.6380 H   0  0  0  0  0  0  0  0  0  0  0  0
   61.8995   32.8045   49.2380 H   0  0  0  0  0  0  0  0  0  0  0  0
   62.0282   34.5962   49.2380 H   0  0  0  0  0  0  0  0  0  0  0  0
   61.0653   32.6830   45.8065 H   0  0  0  0  0  0  0  0  0  0  0  0
   62.6038   32.7248   46.8155 H   0  0  0  0  0  0  0  0  0  0  0  0
   61.8995   31.0341   48.2240 H   0  0  0  0  0  0  0  0  0  0  0  0
   59.6790   32.1040   48.2470 H   0  0  0  0  0  0  0  0  0  0  0  0
   62.2165   30.3730   45.6889 H   0  0  0  0  0  0  0  0  0  0  0  0
   61.5996   29.1652   46.8797 H   0  0  0  0  0  0  0  0  0  0  0  0
   58.5618   29.0155   43.7447 H   0  0  0  0  0  0  0  0  0  0  0  0
   56.7320   27.3631   44.0767 H   0  0  0  0  0  0  0  0  0  0  0  0
   53.9850   26.7120   46.3590 H   0  0  0  0  0  0  0  0  0  0  0  0
   57.7981   27.0285   48.2613 H   0  0  0  0  0  0  0  0  0  0  0  0
   59.6227   28.6887   47.9273 H   0  0  0  0  0  0  0  0  0  0  0  0
   59.5557   34.7360   44.5608 H   0  0  0  0  0  0  0  0  0  0  0  0
   58.7181   33.5958   42.5090 H   0  0  0  0  0  0  0  0  0  0  0  0
  1  2  1  0
  2  3  2  0
  3  4  1  0
  4  5  2  0
  5  6  1  0
  6  7  2  0
  6  8  2  0
  6  9  1  0
  9 10  1  0
  9 11  1  0
 11 12  1  0
 12 13  1  0
 12 14  1  0
 14 15  1  0
 15 16  1  0
 16 17  2  0
 17 18  1  0
 18 19  2  0
 19 20  1  0
 20 21  1  0
 20 22  2  0
 19 23  1  0
 23 24  2  0
  5 25  1  0
 25 26  2  0
 26  2  1  0
 24 16  1  0
  1 27  1  0
  1 28  1  0
  1 29  1  0
  3 30  1  0
  4 31  1  0
 10 32  1  0
 10 33  1  0
 10 34  1  0
 11 35  1  0
 11 36  1  0
 12 37  1  1
 13 38  1  0
 14 39  1  0
 14 40  1  0
 17 41  1  0
 18 42  1  0
 21 43  1  0
 23 44  1  0
 24 45  1  0
 25 46  1  0
 26 47  1  0
M  CHG  1  21  -1
M  END
>  <UniqueID>  (53) 
50

>  <SMILES>  (53) 
Cc1ccc(S(=O)(=O)N(C)C[C@@H](O)COc2ccc(C([NH-])=O)cc2)cc1

>  <Energy>  (53) 
46.28633328510851

>  <Genealogy>  (53) 
Cc1ccc(S(=O)(=O)N(C)CC(O)COc2ccc(C([NH-])=O)cc2)cc1 (protonated)
Cc1ccc(S(=O)(=O)N(C)C[C@@H](O)COc2ccc(C([NH-])=O)cc2)cc1 (chirality)
Cc1ccc(S(=O)(=O)N(C)C[C@@H](O)COc2ccc(C([NH-])=O)cc2)cc1 (3D coordinates assigned)
Cc1ccc(S(=O)(=O)N(C)C[C@@H](O)COc2ccc(C([NH-])=O)cc2)cc1 (optimized conformer: 46.28633328510851 kcal/mol)

>  <smiles>  (53) 
Cc1ccc(S(=O)(=O)N(C)CC(O)COc2ccc(C(N)=O)cc2)cc1

>  <score_type>  (53) 
oracle

>  <origin>  (53) 
adg

>  <m_score__min__energy>  (53) 
-10.789999999999999

>  <m_primary>  (53) 
energy

$$$$
53:0
     RDKit          3D

 34 36  0  0  0  0  0  0  0  0999 V2000
   53.6520   26.5470   46.3170 H   0  0  0  0  0  0  0  0  0  0  0  0
   54.4330   25.9660   45.9340 N   0  0  0  0  0  0  0  0  0  0  0  0
   55.6690   26.3480   45.9820 C   0  0  0  0  0  0  0  0  0  0  0  0
   55.9950   27.6170   45.6220 N   0  0  0  0  0  0  0  0  0  0  0  0
   57.2790   28.0700   45.6580 C   0  0  0  0  0  0  0  0  0  0  0  0
   57.5720   29.4670   45.2460 C   0  0  0  0  0  0  0  0  0  0  0  0
   58.4400   30.2910   45.9840 C   0  0  0  0  0  0  0  0  0  0  0  0
   58.9279   29.8992   46.8887 H   0  0  0  0  0  0  0  0  0  0  0  0
   58.6800   31.5680   45.5870 N   0  0  0  0  0  0  0  0  0  0  0  0
   58.1050   32.1100   44.4820 C   0  0  0  0  0  0  0  0  0  0  0  0
   58.3910   33.3440   44.1740 N   0  0  0  0  0  0  0  0  0  0  0  0
   58.3840   34.5060   45.0660 C   0  0  0  0  0  0  0  0  0  0  0  0
   58.6912   35.3970   44.4988 H   0  0  0  0  0  0  0  0  0  0  0  0
   57.3673   34.6358   45.4654 H   0  0  0  0  0  0  0  0  0  0  0  0
   59.3320   34.3050   46.2200 C   0  0  0  0  0  0  0  0  0  0  0  0
   60.6840   34.0080   45.9780 C   0  0  0  0  0  0  0  0  0  0  0  0
   61.0479   33.9143   44.9442 H   0  0  0  0  0  0  0  0  0  0  0  0
   61.5690   33.8310   47.0470 C   0  0  0  0  0  0  0  0  0  0  0  0
   62.6245   33.5899   46.8523 H   0  0  0  0  0  0  0  0  0  0  0  0
   61.1140   33.9600   48.3610 C   0  0  0  0  0  0  0  0  0  0  0  0
   61.8108   33.8191   49.2004 H   0  0  0  0  0  0  0  0  0  0  0  0
   59.7740   34.2680   48.6100 C   0  0  0  0  0  0  0  0  0  0  0  0
   59.4174   34.3713   49.6455 H   0  0  0  0  0  0  0  0  0  0  0  0
   58.8860   34.4450   47.5450 C   0  0  0  0  0  0  0  0  0  0  0  0
   57.8336   34.6949   47.7451 H   0  0  0  0  0  0  0  0  0  0  0  0
   57.2230   31.3230   43.7160 C   0  0  0  0  0  0  0  0  0  0  0  0
   56.7468   31.7403   42.8165 H   0  0  0  0  0  0  0  0  0  0  0  0
   56.9580   30.0100   44.1070 C   0  0  0  0  0  0  0  0  0  0  0  0
   56.2619   29.3954   43.5174 H   0  0  0  0  0  0  0  0  0  0  0  0
   58.2910   27.1840   46.0690 C   0  0  0  0  0  0  0  0  0  0  0  0
   59.3390   27.5169   46.0987 H   0  0  0  0  0  0  0  0  0  0  0  0
   57.9670   25.9150   46.4290 N   0  0  0  0  0  0  0  0  0  0  0  0
   56.6820   25.4770   46.4010 C   0  0  0  0  0  0  0  0  0  0  0  0
   56.4393   24.4479   46.7045 H   0  0  0  0  0  0  0  0  0  0  0  0
  1  2  1  0
  2  3  2  0
  3  4  1  0
  4  5  1  0
  5  6  1  0
  6  7  2  0
  7  8  1  0
  7  9  1  0
  9 10  1  0
 10 11  2  0
 11 12  1  0
 12 13  1  0
 12 14  1  0
 12 15  1  0
 15 16  2  0
 16 17  1  0
 16 18  1  0
 18 19  1  0
 18 20  2  0
 20 21  1  0
 20 22  1  0
 22 23  1  0
 22 24  2  0
 24 25  1  0
 10 26  1  0
 26 27  1  0
 26 28  2  0
 28 29  1  0
  5 30  2  0
 30 31  1  0
 30 32  1  0
 32 33  2  0
 33 34  1  0
 33  3  1  0
 28  6  1  0
 24 15  1  0
M  CHG  2   4  -1   9  -1
M  END
>  <UniqueID>  (54) 
51

>  <SMILES>  (54) 
[H]/N=c1\cncc(-c2cc/c(=N\Cc3ccccc3)[n-]c2)[n-]1

>  <Energy>  (54) 
45.187840119863964

>  <Genealogy>  (54) 
N=c1cncc(-c2ccc(=NCc3ccccc3)[n-]c2)[n-]1 (protonated)
[H]/N=c1\cncc(-c2cc/c(=N\Cc3ccccc3)[n-]c2)[n-]1 (cis-trans isomerization)
[H]/N=c1\cncc(-c2cc/c(=N\Cc3ccccc3)[n-]c2)[n-]1 (3D coordinates assigned)
[H]/N=c1\cncc(-c2cc/c(=N\Cc3ccccc3)[n-]c2)[n-]1 (optimized conformer: 45.187840119863964 kcal/mol)

>  <smiles>  (54) 
N=c1cncc(-c2ccc(=NCc3ccccc3)[nH]c2)[nH]1

>  <score_type>  (54) 
oracle

>  <origin>  (54) 
adg

>  <m_score__min__energy>  (54) 
-11.109999999999999

>  <m_primary>  (54) 
energy

$$$$
54:0
     RDKit          3D

 46 48  0  0  0  0  0  0  0  0999 V2000
   57.7790   32.8400   43.5480 C   0  0  0  0  0  0  0  0  0  0  0  0
   58.3240   32.8630   44.9800 C   0  0  0  0  0  0  0  0  0  0  0  0
   57.2080   33.2020   45.9840 C   0  0  0  0  0  0  0  0  0  0  0  0
   57.7410   33.0910   47.4190 C   0  0  0  0  0  0  0  0  0  0  0  0
   59.0920   33.6550   47.5430 N   0  0  0  0  0  0  0  0  0  0  0  0
   59.8080   33.4900   48.7830 C   0  0  0  0  0  0  0  0  0  0  0  0
   59.1630   33.3720   49.8600 O   0  0  0  0  0  0  0  0  0  0  0  0
   61.2860   33.3930   48.8110 C   0  0  0  0  0  0  0  0  0  0  0  0
   62.0010   34.2060   49.7080 C   0  0  0  0  0  0  0  0  0  0  0  0
   63.3960   34.1810   49.7320 C   0  0  0  0  0  0  0  0  0  0  0  0
   64.0950   33.3470   48.8600 C   0  0  0  0  0  0  0  0  0  0  0  0
   63.4010   32.5340   47.9630 C   0  0  0  0  0  0  0  0  0  0  0  0
   61.9940   32.5500   47.9200 C   0  0  0  0  0  0  0  0  0  0  0  0
   61.2930   31.6530   47.0410 N   0  0  0  0  0  0  0  0  0  0  0  0
   60.7040   30.4200   47.4920 C   0  0  0  0  0  0  0  0  0  0  0  0
   61.0980   29.8990   48.5700 O   0  0  0  0  0  0  0  0  0  0  0  0
   59.6830   29.7090   46.6940 C   0  0  0  0  0  0  0  0  0  0  0  0
   58.8930   28.7710   47.2480 C   0  0  0  0  0  0  0  0  0  0  0  0
   57.7270   27.7880   46.2950 S   0  0  0  0  0  0  0  0  0  0  0  0
   57.3210   29.1250   45.1400 C   0  0  0  0  0  0  0  0  0  0  0  0
   58.6050   29.5290   44.4270 C   0  0  0  0  0  0  0  0  0  0  0  0
   59.5500   30.0810   45.3440 O   0  0  0  0  0  0  0  0  0  0  0  0
   59.6130   34.5270   46.4800 C   0  0  0  0  0  0  0  0  0  0  0  0
   59.5230   33.8400   45.1050 C   0  0  0  0  0  0  0  0  0  0  0  0
   56.6803   32.7936   43.5745 H   0  0  0  0  0  0  0  0  0  0  0  0
   58.0949   33.7523   43.0208 H   0  0  0  0  0  0  0  0  0  0  0  0
   58.1706   31.9576   43.0208 H   0  0  0  0  0  0  0  0  0  0  0  0
   58.6954   31.8565   45.2230 H   0  0  0  0  0  0  0  0  0  0  0  0
   56.8562   34.2286   45.8045 H   0  0  0  0  0  0  0  0  0  0  0  0
   56.3765   32.4941   45.8520 H   0  0  0  0  0  0  0  0  0  0  0  0
   57.0642   33.6358   48.0936 H   0  0  0  0  0  0  0  0  0  0  0  0
   57.7893   32.0247   47.6849 H   0  0  0  0  0  0  0  0  0  0  0  0
   61.4558   34.8678   50.3971 H   0  0  0  0  0  0  0  0  0  0  0  0
   63.9449   34.8199   50.4395 H   0  0  0  0  0  0  0  0  0  0  0  0
   65.1947   33.3300   48.8793 H   0  0  0  0  0  0  0  0  0  0  0  0
   63.9590   31.8739   47.2826 H   0  0  0  0  0  0  0  0  0  0  0  0
   61.2870   31.8660   46.0190 H   0  0  0  0  0  0  0  0  0  0  0  0
   58.9636   28.5978   48.3320 H   0  0  0  0  0  0  0  0  0  0  0  0
   56.5801   28.7741   44.4066 H   0  0  0  0  0  0  0  0  0  0  0  0
   56.8944   29.9833   45.6798 H   0  0  0  0  0  0  0  0  0  0  0  0
   59.0448   28.6415   43.9485 H   0  0  0  0  0  0  0  0  0  0  0  0
   58.3612   30.2931   43.6742 H   0  0  0  0  0  0  0  0  0  0  0  0
   59.0243   35.4559   46.4566 H   0  0  0  0  0  0  0  0  0  0  0  0
   60.6700   34.7442   46.6933 H   0  0  0  0  0  0  0  0  0  0  0  0
   59.4211   34.6172   44.3332 H   0  0  0  0  0  0  0  0  0  0  0  0
   60.4400   33.2456   44.9790 H   0  0  0  0  0  0  0  0  0  0  0  0
  1  2  1  0
  2  3  1  0
  3  4  1  0
  4  5  1  0
  5  6  1  0
  6  7  2  0
  6  8  1  0
  8  9  2  0
  9 10  1  0
 10 11  2  0
 11 12  1  0
 12 13  2  0
 13 14  1  0
 14 15  1  0
 15 16  2  0
 15 17  1  0
 17 18  2  0
 18 19  1  0
 19 20  1  0
 20 21  1  0
 21 22  1  0
  5 23  1  0
 23 24  1  0
 24  2  1  0
 13  8  1  0
 22 17  1  0
  1 25  1  0
  1 26  1  0
  1 27  1  0
  2 28  1  0
  3 29  1  0
  3 30  1  0
  4 31  1  0
  4 32  1  0
  9 33  1  0
 10 34  1  0
 11 35  1  0
 12 36  1  0
 14 37  1  0
 18 38  1  0
 20 39  1  0
 20 40  1  0
 21 41  1  0
 21 42  1  0
 23 43  1  0
 23 44  1  0
 24 45  1  0
 24 46  1  0
M  END
>  <UniqueID>  (55) 
52

>  <SMILES>  (55) 
CC1CCN(C(=O)c2ccccc2NC(=O)C2=CSCCO2)CC1

>  <Energy>  (55) 
61.949357646670705

>  <Genealogy>  (55) 
CC1CCN(C(=O)c2ccccc2NC(=O)C2=CSCCO2)CC1 (3D coordinates assigned)
CC1CCN(C(=O)c2ccccc2NC(=O)C2=CSCCO2)CC1 (nonaromatic ring conformer: 61.949357646670705 kcal/mol)

>  <smiles>  (55) 
CC1CCN(C(=O)c2ccccc2NC(=O)C2=CSCCO2)CC1

>  <score_type>  (55) 
oracle

>  <origin>  (55) 
adg

>  <m_score__min__energy>  (55) 
-8.3300000000000001

>  <m_primary>  (55) 
energy

$$$$
55:0
     RDKit          3D

 40 42  0  0  0  0  0  0  0  0999 V2000
   59.6510   35.7260   45.4480 C   0  0  0  0  0  0  0  0  0  0  0  0
   58.8630   34.4470   45.3910 C   0  0  0  0  0  0  0  0  0  0  0  0
   58.6330   33.8190   44.1560 C   0  0  0  0  0  0  0  0  0  0  0  0
   57.8870   32.6280   44.0840 C   0  0  0  0  0  0  0  0  0  0  0  0
   57.6280   31.9590   42.8650 C   0  0  0  0  0  0  0  0  0  0  0  0
   58.1350   32.4780   41.5440 C   0  0  0  0  0  0  0  0  0  0  0  0
   56.8760   30.7780   42.8930 C   0  0  0  0  0  0  0  0  0  0  0  0
   56.4040   30.2930   44.1140 C   0  0  0  0  0  0  0  0  0  0  0  0
   55.7280   29.2330   44.1500 O   0  0  0  0  0  0  0  0  0  0  0  0
   56.6630   30.9450   45.2420 O   0  0  0  0  0  0  0  0  0  0  0  0
   57.3710   32.0700   45.2750 C   0  0  0  0  0  0  0  0  0  0  0  0
   57.5990   32.6950   46.5030 C   0  0  0  0  0  0  0  0  0  0  0  0
   58.3380   33.8920   46.5750 C   0  0  0  0  0  0  0  0  0  0  0  0
   58.5840   34.5600   47.7900 O   0  0  0  0  0  0  0  0  0  0  0  0
   59.7650   34.4720   48.5900 C   0  0  0  0  0  0  0  0  0  0  0  0
   59.9880   33.0440   49.1050 C   0  0  0  0  0  0  0  0  0  0  0  0
   60.6560   32.1340   48.0700 C   0  0  0  0  0  0  0  0  0  0  0  0
   61.9090   32.7290   47.6150 N   0  0  0  0  0  0  0  0  0  0  0  0
   63.0990   32.6780   48.2340 C   0  0  0  0  0  0  0  0  0  0  0  0
   63.9870   33.4320   47.5010 C   0  0  0  0  0  0  0  0  0  0  0  0
   63.3570   33.9640   46.4330 N   0  0  0  0  0  0  0  0  0  0  0  0
   62.0880   33.5180   46.5380 C   0  0  0  0  0  0  0  0  0  0  0  0
   59.8226   36.0045   46.4983 H   0  0  0  0  0  0  0  0  0  0  0  0
   60.6182   35.5836   44.9437 H   0  0  0  0  0  0  0  0  0  0  0  0
   59.0888   36.5258   44.9437 H   0  0  0  0  0  0  0  0  0  0  0  0
   59.0402   34.2627   43.2355 H   0  0  0  0  0  0  0  0  0  0  0  0
   58.8935   33.2545   41.7219 H   0  0  0  0  0  0  0  0  0  0  0  0
   58.5832   31.6515   40.9730 H   0  0  0  0  0  0  0  0  0  0  0  0
   57.2983   32.9068   40.9730 H   0  0  0  0  0  0  0  0  0  0  0  0
   56.6589   30.2368   41.9603 H   0  0  0  0  0  0  0  0  0  0  0  0
   57.1971   32.2476   47.4240 H   0  0  0  0  0  0  0  0  0  0  0  0
   60.6316   34.7728   47.9829 H   0  0  0  0  0  0  0  0  0  0  0  0
   59.6456   35.1378   49.4574 H   0  0  0  0  0  0  0  0  0  0  0  0
   60.6287   33.0891   49.9980 H   0  0  0  0  0  0  0  0  0  0  0  0
   58.9998   32.6168   49.3309 H   0  0  0  0  0  0  0  0  0  0  0  0
   60.8626   31.1544   48.5259 H   0  0  0  0  0  0  0  0  0  0  0  0
   59.9819   32.0110   47.2095 H   0  0  0  0  0  0  0  0  0  0  0  0
   63.3243   32.1312   49.1615 H   0  0  0  0  0  0  0  0  0  0  0  0
   65.0488   33.5786   47.7482 H   0  0  0  0  0  0  0  0  0  0  0  0
   61.2896   33.7702   45.8246 H   0  0  0  0  0  0  0  0  0  0  0  0
  1  2  1  0
  2  3  2  0
  3  4  1  0
  4  5  1  0
  5  6  1  0
  5  7  2  0
  7  8  1  0
  8  9  2  0
  8 10  1  0
 10 11  1  0
 11 12  1  0
 12 13  2  0
 13 14  1  0
 14 15  1  0
 15 16  1  0
 16 17  1  0
 17 18  1  0
 18 19  1  0
 19 20  2  0
 20 21  1  0
 21 22  2  0
 13  2  1  0
 22 18  1  0
 11  4  2  0
  1 23  1  0
  1 24  1  0
  1 25  1  0
  3 26  1  0
  6 27  1  0
  6 28  1  0
  6 29  1  0
  7 30  1  0
 12 31  1  0
 15 32  1  0
 15 33  1  0
 16 34  1  0
 16 35  1  0
 17 36  1  0
 17 37  1  0
 19 38  1  0
 20 39  1  0
 22 40  1  0
M  END
>  <UniqueID>  (56) 
53

>  <SMILES>  (56) 
Cc1cc2c(C)cc(=O)oc2cc1OCCCn1ccnc1

>  <Energy>  (56) 
73.47661772808223

>  <Genealogy>  (56) 
Cc1cc2c(C)cc(=O)oc2cc1OCCCn1ccnc1 (3D coordinates assigned)
Cc1cc2c(C)cc(=O)oc2cc1OCCCn1ccnc1 (optimized conformer: 73.47661772808223 kcal/mol)

>  <smiles>  (56) 
Cc1cc2c(C)cc(=O)oc2cc1OCCCn1ccnc1

>  <score_type>  (56) 
oracle

>  <origin>  (56) 
adg

>  <m_score__min__energy>  (56) 
-7.6399999999999997

>  <m_primary>  (56) 
energy

$$$$
56:0
     RDKit          3D

 50 53  0  0  0  0  0  0  0  0999 V2000
   51.1610   24.0820   44.2130 C   0  0  0  0  0  0  0  0  0  0  0  0
   52.1590   23.1040   44.4890 O   0  0  0  0  0  0  0  0  0  0  0  0
   53.3020   23.3330   45.2710 C   0  0  0  0  0  0  0  0  0  0  0  0
   54.0210   24.5420   45.2080 C   0  0  0  0  0  0  0  0  0  0  0  0
   55.1550   24.7320   45.9970 C   0  0  0  0  0  0  0  0  0  0  0  0
   55.6000   23.7160   46.8510 C   0  0  0  0  0  0  0  0  0  0  0  0
   56.8170   23.9300   47.7110 C   0  0  0  0  0  0  0  0  0  0  0  0
   57.3980   25.3300   47.4870 C   0  0  0  0  0  0  0  0  0  0  0  0
   58.8150   25.2540   47.1380 N   0  0  0  0  0  0  0  0  0  0  0  0
   59.5530   26.2570   46.4290 C   0  0  0  0  0  0  0  0  0  0  0  0
   60.7190   25.9880   46.0340 O   0  0  0  0  0  0  0  0  0  0  0  0
   58.9870   27.5780   46.1210 C   0  0  0  0  0  0  0  0  0  0  0  0
   57.7320   27.8280   45.5630 C   0  0  0  0  0  0  0  0  0  0  0  0
   57.4820   29.1950   45.3990 C   0  0  0  0  0  0  0  0  0  0  0  0
   56.3220   29.7760   44.8760 C   0  0  0  0  0  0  0  0  0  0  0  0
   55.3620   29.0620   44.4820 O   0  0  0  0  0  0  0  0  0  0  0  0
   56.2370   31.1350   44.7950 N   0  0  0  0  0  0  0  0  0  0  0  0
   57.2490   31.9550   45.2090 C   0  0  0  0  0  0  0  0  0  0  0  0
   57.1120   33.3410   45.1070 C   0  0  0  0  0  0  0  0  0  0  0  0
   58.1420   34.1810   45.5390 C   0  0  0  0  0  0  0  0  0  0  0  0
   59.3180   33.6460   46.0880 C   0  0  0  0  0  0  0  0  0  0  0  0
   60.4340   34.5520   46.5140 C   0  0  0  0  0  0  0  0  0  0  0  0
   59.4700   32.2530   46.1770 C   0  0  0  0  0  0  0  0  0  0  0  0
   58.4370   31.4040   45.7500 C   0  0  0  0  0  0  0  0  0  0  0  0
   58.5180   30.0100   45.8320 C   0  0  0  0  0  0  0  0  0  0  0  0
   59.7620   29.0470   46.4330 S   0  0  0  0  0  0  0  0  0  0  0  0
   54.8790   22.5160   46.9310 C   0  0  0  0  0  0  0  0  0  0  0  0
   53.7300   22.3170   46.1410 C   0  0  0  0  0  0  0  0  0  0  0  0
   52.9890   21.1270   46.1900 O   0  0  0  0  0  0  0  0  0  0  0  0
   51.7780   20.9610   46.9220 C   0  0  0  0  0  0  0  0  0  0  0  0
   50.7605   24.4744   45.1594 H   0  0  0  0  0  0  0  0  0  0  0  0
   51.6045   24.9049   43.6332 H   0  0  0  0  0  0  0  0  0  0  0  0
   50.3472   23.6220   43.6332 H   0  0  0  0  0  0  0  0  0  0  0  0
   53.6858   25.3422   44.5317 H   0  0  0  0  0  0  0  0  0  0  0  0
   55.7025   25.6848   45.9481 H   0  0  0  0  0  0  0  0  0  0  0  0
   56.5356   23.8206   48.7688 H   0  0  0  0  0  0  0  0  0  0  0  0
   57.5779   23.1834   47.4398 H   0  0  0  0  0  0  0  0  0  0  0  0
   56.8508   25.8208   46.6686 H   0  0  0  0  0  0  0  0  0  0  0  0
   57.2945   25.9077   48.4173 H   0  0  0  0  0  0  0  0  0  0  0  0
   57.0191   27.0384   45.2834 H   0  0  0  0  0  0  0  0  0  0  0  0
   56.1918   33.7723   44.6859 H   0  0  0  0  0  0  0  0  0  0  0  0
   58.0302   35.2715   45.4480 H   0  0  0  0  0  0  0  0  0  0  0  0
   60.4782   34.5878   47.6125 H   0  0  0  0  0  0  0  0  0  0  0  0
   61.3874   34.1691   46.1210 H   0  0  0  0  0  0  0  0  0  0  0  0
   60.2552   35.5637   46.1210 H   0  0  0  0  0  0  0  0  0  0  0  0
   60.3997   31.8265   46.5818 H   0  0  0  0  0  0  0  0  0  0  0  0
   55.2135   21.7234   47.6165 H   0  0  0  0  0  0  0  0  0  0  0  0
   51.9942   20.9906   48.0001 H   0  0  0  0  0  0  0  0  0  0  0  0
   51.0804   21.7719   46.6655 H   0  0  0  0  0  0  0  0  0  0  0  0
   51.3244   19.9923   46.6655 H   0  0  0  0  0  0  0  0  0  0  0  0
  1  2  1  0
  2  3  1  0
  3  4  2  0
  4  5  1  0
  5  6  2  0
  6  7  1  0
  7  8  1  0
  8  9  1  0
  9 10  1  0
 10 11  2  0
 10 12  1  0
 12 13  2  0
 13 14  1  0
 14 15  1  0
 15 16  2  0
 15 17  1  0
 17 18  1  0
 18 19  2  0
 19 20  1  0
 20 21  2  0
 21 22  1  0
 21 23  1  0
 23 24  2  0
 24 25  1  0
 25 26  1  0
  6 27  1  0
 27 28  2  0
 28 29  1  0
 29 30  1  0
 28  3  1  0
 26 12  1  0
 25 14  2  0
 24 18  1  0
  1 31  1  0
  1 32  1  0
  1 33  1  0
  4 34  1  0
  5 35  1  0
  7 36  1  0
  7 37  1  0
  8 38  1  0
  8 39  1  0
 13 40  1  0
 19 41  1  0
 20 42  1  0
 22 43  1  0
 22 44  1  0
 22 45  1  0
 23 46  1  0
 27 47  1  0
 30 48  1  0
 30 49  1  0
 30 50  1  0
M  CHG  2   9  -1  17  -1
M  END
>  <UniqueID>  (57) 
54

>  <SMILES>  (57) 
COc1ccc(CC[N-]C(=O)c2cc3c(=O)[n-]c4ccc(C)cc4c3s2)cc1OC

>  <Energy>  (57) 
87.30261183230324

>  <Genealogy>  (57) 
COc1ccc(CC[N-]C(=O)c2cc3c(=O)[n-]c4ccc(C)cc4c3s2)cc1OC (protonated)
COc1ccc(CC[N-]C(=O)c2cc3c(=O)[n-]c4ccc(C)cc4c3s2)cc1OC (3D coordinates assigned)
COc1ccc(CC[N-]C(=O)c2cc3c(=O)[n-]c4ccc(C)cc4c3s2)cc1OC (optimized conformer: 87.30261183230324 kcal/mol)

>  <smiles>  (57) 
COc1ccc(CCNC(=O)c2cc3c(=O)[nH]c4ccc(C)cc4c3s2)cc1OC

>  <score_type>  (57) 
oracle

>  <origin>  (57) 
adg

>  <m_score__min__energy>  (57) 
-11.140000000000001

>  <m_primary>  (57) 
energy

$$$$
57:0
     RDKit          3D

 38 40  0  0  0  0  0  0  0  0999 V2000
   60.2600   27.5630   45.4100 H   0  0  0  0  0  0  0  0  0  0  0  0
   59.8360   27.0000   46.1810 N   0  0  0  0  0  0  0  0  0  0  0  0
   58.5720   26.7050   46.2220 C   0  0  0  0  0  0  0  0  0  0  0  0
   58.1370   25.6150   46.9900 C   0  0  0  0  0  0  0  0  0  0  0  0
   58.8659   25.0008   47.5391 H   0  0  0  0  0  0  0  0  0  0  0  0
   56.7790   25.3130   47.0550 C   0  0  0  0  0  0  0  0  0  0  0  0
   56.4342   24.4591   47.6566 H   0  0  0  0  0  0  0  0  0  0  0  0
   55.8810   26.0710   46.3770 N   0  0  0  0  0  0  0  0  0  0  0  0
   56.2640   27.1340   45.6220 C   0  0  0  0  0  0  0  0  0  0  0  0
   55.5050   27.7251   45.0886 H   0  0  0  0  0  0  0  0  0  0  0  0
   57.6230   27.4860   45.5160 C   0  0  0  0  0  0  0  0  0  0  0  0
   58.0240   28.6530   44.6820 C   0  0  0  0  0  0  0  0  0  0  0  0
   59.2370   28.8690   44.4240 O   0  0  0  0  0  0  0  0  0  0  0  0
   56.8040   29.7960   44.0260 S   0  0  0  0  0  0  0  0  0  0  0  0
   57.6540   31.2230   44.6990 C   0  0  0  0  0  0  0  0  0  0  0  0
   58.1880   31.1760   45.9910 C   0  0  0  0  0  0  0  0  0  0  0  0
   58.0793   30.2643   46.5967 H   0  0  0  0  0  0  0  0  0  0  0  0
   58.8590   32.2840   46.5140 C   0  0  0  0  0  0  0  0  0  0  0  0
   59.2807   32.2372   47.5289 H   0  0  0  0  0  0  0  0  0  0  0  0
   59.0000   33.4600   45.7530 C   0  0  0  0  0  0  0  0  0  0  0  0
   59.7120   34.6370   46.3050 C   0  0  0  0  0  0  0  0  0  0  0  0
   59.6300   35.7480   45.7140 O   0  0  0  0  0  0  0  0  0  0  0  0
   60.4140   34.5250   47.5560 N   0  0  0  0  0  0  0  0  0  0  0  0
   61.6060   34.0480   47.7970 C   0  0  0  0  0  0  0  0  0  0  0  0
   62.4790   33.6160   46.7740 C   0  0  0  0  0  0  0  0  0  0  0  0
   62.1697   33.6755   45.7201 H   0  0  0  0  0  0  0  0  0  0  0  0
   63.7370   33.1130   47.1100 C   0  0  0  0  0  0  0  0  0  0  0  0
   64.4256   32.7819   46.3187 H   0  0  0  0  0  0  0  0  0  0  0  0
   64.1210   33.0300   48.4450 C   0  0  0  0  0  0  0  0  0  0  0  0
   65.1140   32.6416   48.7153 H   0  0  0  0  0  0  0  0  0  0  0  0
   63.2320   33.4450   49.4360 C   0  0  0  0  0  0  0  0  0  0  0  0
   63.5214   33.3779   50.4951 H   0  0  0  0  0  0  0  0  0  0  0  0
   62.0070   33.9330   49.0970 N   0  0  0  0  0  0  0  0  0  0  0  0
   61.3640   34.2340   49.8650 H   0  0  0  0  0  0  0  0  0  0  0  0
   58.4540   33.4980   44.4560 C   0  0  0  0  0  0  0  0  0  0  0  0
   58.5547   34.4091   43.8479 H   0  0  0  0  0  0  0  0  0  0  0  0
   57.7850   32.3870   43.9350 C   0  0  0  0  0  0  0  0  0  0  0  0
   57.3603   32.4283   42.9211 H   0  0  0  0  0  0  0  0  0  0  0  0
  1  2  1  0
  2  3  2  0
  3  4  1  0
  4  5  1  0
  4  6  2  0
  6  7  1  0
  6  8  1  0
  8  9  1  0
  9 10  1  0
  9 11  2  0
 11 12  1  0
 12 13  2  0
 12 14  1  0
 14 15  1  0
 15 16  2  0
 16 17  1  0
 16 18  1  0
 18 19  1  0
 18 20  2  0
 20 21  1  0
 21 22  2  0
 21 23  1  0
 23 24  2  0
 24 25  1  0
 25 26  1  0
 25 27  2  0
 27 28  1  0
 27 29  1  0
 29 30  1  0
 29 31  2  0
 31 32  1  0
 31 33  1  0
 33 34  1  0
 20 35  1  0
 35 36  1  0
 35 37  2  0
 37 38  1  0
 11  3  1  0
 37 15  1  0
 33 24  1  0
M  CHG  1   8  -1
M  END
>  <UniqueID>  (58) 
55

>  <SMILES>  (58) 
[H]/N=c1\cc[n-]cc1C(=O)Sc1ccc(C(=O)/N=c2\cccc[nH]2)cc1

>  <Energy>  (58) 
50.868444018406755

>  <Genealogy>  (58) 
N=c1cc[n-]cc1C(=O)Sc1ccc(C(=O)N=c2cccc[nH]2)cc1 (protonated)
[H]/N=c1\cc[n-]cc1C(=O)Sc1ccc(C(=O)/N=c2\cccc[nH]2)cc1 (cis-trans isomerization)
[H]/N=c1\cc[n-]cc1C(=O)Sc1ccc(C(=O)/N=c2\cccc[nH]2)cc1 (3D coordinates assigned)
[H]/N=c1\cc[n-]cc1C(=O)Sc1ccc(C(=O)/N=c2\cccc[nH]2)cc1 (optimized conformer: 50.868444018406755 kcal/mol)

>  <smiles>  (58) 
N=c1cc[nH]cc1C(=O)Sc1ccc(C(=O)N=c2cccc[nH]2)cc1

>  <score_type>  (58) 
oracle

>  <origin>  (58) 
adg

>  <m_score__min__energy>  (58) 
-10

>  <m_primary>  (58) 
energy

$$$$
58:0
     RDKit          3D

 41 44  0  0  0  0  0  0  0  0999 V2000
   59.2435   28.8301   47.2613 H   0  0  0  0  0  0  0  0  0  0  0  0
   59.3660   29.8880   46.9860 C   0  0  0  0  0  0  0  0  0  0  0  0
   60.4030   30.6350   47.5500 C   0  0  0  0  0  0  0  0  0  0  0  0
   61.0976   30.1508   48.2522 H   0  0  0  0  0  0  0  0  0  0  0  0
   60.5760   32.0040   47.2340 C   0  0  0  0  0  0  0  0  0  0  0  0
   61.6630   32.7870   47.8170 N   0  0  0  0  0  0  0  0  0  0  0  0
   63.0500   32.5510   47.3630 C   0  0  0  0  0  0  0  0  0  0  0  0
   63.3296   31.5189   47.6212 H   0  0  0  0  0  0  0  0  0  0  0  0
   63.0692   32.7306   46.2779 H   0  0  0  0  0  0  0  0  0  0  0  0
   64.0720   33.5020   47.9940 C   0  0  0  0  0  0  0  0  0  0  0  0
   65.0723   33.0490   47.9292 H   0  0  0  0  0  0  0  0  0  0  0  0
   64.0445   34.4569   47.4487 H   0  0  0  0  0  0  0  0  0  0  0  0
   63.7660   33.7490   49.3440 O   0  0  0  0  0  0  0  0  0  0  0  0
   62.5870   34.5160   49.3980 C   0  0  0  0  0  0  0  0  0  0  0  0
   62.4269   34.8571   50.4314 H   0  0  0  0  0  0  0  0  0  0  0  0
   62.6972   35.3758   48.7208 H   0  0  0  0  0  0  0  0  0  0  0  0
   61.3760   33.6940   48.9490 C   0  0  0  0  0  0  0  0  0  0  0  0
   61.0313   33.0890   49.8006 H   0  0  0  0  0  0  0  0  0  0  0  0
   60.6118   34.4067   48.6055 H   0  0  0  0  0  0  0  0  0  0  0  0
   59.6430   32.5910   46.3450 C   0  0  0  0  0  0  0  0  0  0  0  0
   59.7341   33.6576   46.0921 H   0  0  0  0  0  0  0  0  0  0  0  0
   58.6090   31.8380   45.7840 C   0  0  0  0  0  0  0  0  0  0  0  0
   57.8874   32.3199   45.1080 H   0  0  0  0  0  0  0  0  0  0  0  0
   58.4840   30.4730   46.0760 C   0  0  0  0  0  0  0  0  0  0  0  0
   57.4010   29.6910   45.5520 N   0  0  0  0  0  0  0  0  0  0  0  0
   57.3070   28.3930   45.5760 C   0  0  0  0  0  0  0  0  0  0  0  0
   58.4000   27.5870   45.5090 N   0  0  0  0  0  0  0  0  0  0  0  0
   57.8200   26.3700   45.5250 C   0  0  0  0  0  0  0  0  0  0  0  0
   58.4700   25.1830   45.4680 N   0  0  0  0  0  0  0  0  0  0  0  0
   57.7380   24.0270   45.4770 C   0  0  0  0  0  0  0  0  0  0  0  0
   58.4370   22.7070   45.4040 C   0  0  0  0  0  0  0  0  0  0  0  0
   58.6321   22.3386   46.4220 H   0  0  0  0  0  0  0  0  0  0  0  0
   57.8028   21.9854   44.8682 H   0  0  0  0  0  0  0  0  0  0  0  0
   59.3903   22.8260   44.8682 H   0  0  0  0  0  0  0  0  0  0  0  0
   56.3250   24.0780   45.5320 C   0  0  0  0  0  0  0  0  0  0  0  0
   55.7301   23.1528   45.5324 H   0  0  0  0  0  0  0  0  0  0  0  0
   55.6980   25.3310   45.5860 C   0  0  0  0  0  0  0  0  0  0  0  0
   54.4430   25.4290   45.6340 O   0  0  0  0  0  0  0  0  0  0  0  0
   56.4870   26.4330   45.5850 N   0  0  0  0  0  0  0  0  0  0  0  0
   56.1390   27.7020   45.6140 N   0  0  0  0  0  0  0  0  0  0  0  0
   55.1580   28.0620   45.6120 H   0  0  0  0  0  0  0  0  0  0  0  0
  1  2  1  0
  2  3  2  0
  3  4  1  0
  3  5  1  0
  5  6  1  0
  6  7  1  0
  7  8  1  0
  7  9  1  0
  7 10  1  0
 10 11  1  0
 10 12  1  0
 10 13  1  0
 13 14  1  0
 14 15  1  0
 14 16  1  0
 14 17  1  0
 17 18  1  0
 17 19  1  0
  5 20  2  0
 20 21  1  0
 20 22  1  0
 22 23  1  0
 22 24  2  0
 24 25  1  0
 25 26  2  0
 26 27  1  0
 27 28  2  0
 28 29  1  0
 29 30  1  0
 30 31  1  0
 31 32  1  0
 31 33  1  0
 31 34  1  0
 30 35  2  0
 35 36  1  0
 35 37  1  0
 37 38  2  0
 37 39  1  0
 39 40  1  0
 40 41  1  0
 24  2  1  0
 40 26  1  0
 17  6  1  0
 39 28  1  0
M  CHG  1  29  -1
M  END
>  <UniqueID>  (59) 
56

>  <SMILES>  (59) 
Cc1cc(=O)n2[nH]/c(=N\c3ccc(N4CCOCC4)cc3)nc2[n-]1

>  <Energy>  (59) 
100.64530379977585

>  <Genealogy>  (59) 
Cc1cc(=O)n2[nH]c(=Nc3ccc(N4CCOCC4)cc3)nc2[n-]1 (protonated)
Cc1cc(=O)n2[nH]/c(=N\c3ccc(N4CCOCC4)cc3)nc2[n-]1 (cis-trans isomerization)
Cc1cc(=O)n2[nH]/c(=N\c3ccc(N4CCOCC4)cc3)nc2[n-]1 (3D coordinates assigned)
Cc1cc(=O)n2[nH]/c(=N\c3ccc(N4CCOCC4)cc3)nc2[n-]1 (nonaromatic ring conformer: 100.64530379977585 kcal/mol)

>  <smiles>  (59) 
Cc1cc(=O)n2[nH]c(=Nc3ccc(N4CCOCC4)cc3)nc2[nH]1

>  <score_type>  (59) 
oracle

>  <origin>  (59) 
adg

>  <m_score__min__energy>  (59) 
-8.8300000000000001

>  <m_primary>  (59) 
energy

$$$$
59:0
     RDKit          3D

 38 39  0  0  0  0  0  0  0  0999 V2000
   63.2910   33.8230   46.3570 C   0  0  0  0  0  0  0  0  0  0  0  0
   61.8670   33.5850   46.8460 C   0  0  0  0  0  0  0  0  0  0  0  0
   61.7960   33.7460   48.3000 N   0  0  0  0  0  0  0  0  0  0  0  0
   60.1580   33.6060   48.8690 S   0  0  0  0  0  0  0  0  0  0  0  0
   59.6180   34.9770   49.1590 O   0  0  0  0  0  0  0  0  0  0  0  0
   60.1180   32.8000   50.1390 O   0  0  0  0  0  0  0  0  0  0  0  0
   59.1570   32.8460   47.6330 C   0  0  0  0  0  0  0  0  0  0  0  0
   59.0930   31.4510   47.5220 C   0  0  0  0  0  0  0  0  0  0  0  0
   58.3060   30.8590   46.5300 C   0  0  0  0  0  0  0  0  0  0  0  0
   57.5860   31.6590   45.6250 C   0  0  0  0  0  0  0  0  0  0  0  0
   56.7460   31.0930   44.6090 N   0  0  0  0  0  0  0  0  0  0  0  0
   56.3280   29.7250   44.5160 C   0  0  0  0  0  0  0  0  0  0  0  0
   55.1560   29.3840   44.8320 O   0  0  0  0  0  0  0  0  0  0  0  0
   57.2980   28.6880   44.0450 C   0  0  0  0  0  0  0  0  0  0  0  0
   57.8150   27.8930   45.2210 C   0  0  0  0  0  0  0  0  0  0  0  0
   56.9250   27.0810   45.9540 C   0  0  0  0  0  0  0  0  0  0  0  0
   55.6080   27.0270   45.6300 F   0  0  0  0  0  0  0  0  0  0  0  0
   57.3890   26.3140   47.0260 C   0  0  0  0  0  0  0  0  0  0  0  0
   58.7410   26.3370   47.3730 C   0  0  0  0  0  0  0  0  0  0  0  0
   59.6350   27.1230   46.6460 C   0  0  0  0  0  0  0  0  0  0  0  0
   59.1860   27.8970   45.5690 C   0  0  0  0  0  0  0  0  0  0  0  0
   60.3730   28.8500   44.6830 Cl  0  0  0  0  0  0  0  0  0  0  0  0
   57.6370   33.0530   45.7540 C   0  0  0  0  0  0  0  0  0  0  0  0
   58.4250   33.6440   46.7450 C   0  0  0  0  0  0  0  0  0  0  0  0
   63.9617   33.9351   47.2217 H   0  0  0  0  0  0  0  0  0  0  0  0
   63.6175   32.9670   45.7482 H   0  0  0  0  0  0  0  0  0  0  0  0
   63.3214   34.7387   45.7482 H   0  0  0  0  0  0  0  0  0  0  0  0
   61.1928   34.3103   46.3671 H   0  0  0  0  0  0  0  0  0  0  0  0
   61.5650   32.5602   46.5840 H   0  0  0  0  0  0  0  0  0  0  0  0
   59.6642   30.8191   48.2181 H   0  0  0  0  0  0  0  0  0  0  0  0
   58.2497   29.7629   46.4570 H   0  0  0  0  0  0  0  0  0  0  0  0
   56.7935   28.0103   43.3406 H   0  0  0  0  0  0  0  0  0  0  0  0
   58.1428   29.1841   43.5448 H   0  0  0  0  0  0  0  0  0  0  0  0
   56.6867   25.6901   47.5983 H   0  0  0  0  0  0  0  0  0  0  0  0
   59.1015   25.7350   48.2201 H   0  0  0  0  0  0  0  0  0  0  0  0
   60.7001   27.1349   46.9206 H   0  0  0  0  0  0  0  0  0  0  0  0
   57.0527   33.6866   45.0705 H   0  0  0  0  0  0  0  0  0  0  0  0
   58.4705   34.7399   46.8280 H   0  0  0  0  0  0  0  0  0  0  0  0
  1  2  1  0
  2  3  1  0
  3  4  1  0
  4  5  2  0
  4  6  2  0
  4  7  1  0
  7  8  2  0
  8  9  1  0
  9 10  2  0
 10 11  1  0
 11 12  1  0
 12 13  2  0
 12 14  1  0
 14 15  1  0
 15 16  2  0
 16 17  1  0
 16 18  1  0
 18 19  2  0
 19 20  1  0
 20 21  2  0
 21 22  1  0
 10 23  1  0
 23 24  2  0
 24  7  1  0
 21 15  1  0
  1 25  1  0
  1 26  1  0
  1 27  1  0
  2 28  1  0
  2 29  1  0
  8 30  1  0
  9 31  1  0
 14 32  1  0
 14 33  1  0
 18 34  1  0
 19 35  1  0
 20 36  1  0
 23 37  1  0
 24 38  1  0
M  CHG  2   3  -1  11  -1
M  END
>  <UniqueID>  (60) 
57

>  <SMILES>  (60) 
CC[N-]S(=O)(=O)c1ccc([N-]C(=O)Cc2c(F)cccc2Cl)cc1

>  <Energy>  (60) 
38.80920372689247

>  <Genealogy>  (60) 
CC[N-]S(=O)(=O)c1ccc([N-]C(=O)Cc2c(F)cccc2Cl)cc1 (protonated)
CC[N-]S(=O)(=O)c1ccc([N-]C(=O)Cc2c(F)cccc2Cl)cc1 (3D coordinates assigned)
CC[N-]S(=O)(=O)c1ccc([N-]C(=O)Cc2c(F)cccc2Cl)cc1 (optimized conformer: 38.80920372689247 kcal/mol)

>  <smiles>  (60) 
CCNS(=O)(=O)c1ccc(NC(=O)Cc2c(F)cccc2Cl)cc1

>  <score_type>  (60) 
oracle

>  <origin>  (60) 
adg

>  <m_score__min__energy>  (60) 
-10.58

>  <m_primary>  (60) 
energy

$$$$
60:0
     RDKit          3D

 40 43  0  0  0  0  0  0  0  0999 V2000
   57.5380   34.6700   44.8670 C   0  0  0  0  0  0  0  0  0  0  0  0
   58.2470   33.4710   45.4140 C   0  0  0  0  0  0  0  0  0  0  0  0
   59.5050   33.6030   46.0080 C   0  0  0  0  0  0  0  0  0  0  0  0
   60.1470   32.4540   46.5070 C   0  0  0  0  0  0  0  0  0  0  0  0
   61.4510   32.5130   47.1410 N   0  0  0  0  0  0  0  0  0  0  0  0
   61.7670   31.6290   48.2780 C   0  0  0  0  0  0  0  0  0  0  0  0
   63.2410   31.6870   48.6860 C   0  0  0  0  0  0  0  0  0  0  0  0
   63.7180   33.0130   48.6630 O   0  0  0  0  0  0  0  0  0  0  0  0
   63.7680   33.4500   47.3250 C   0  0  0  0  0  0  0  0  0  0  0  0
   62.3590   33.6080   46.7490 C   0  0  0  0  0  0  0  0  0  0  0  0
   59.5190   31.2520   46.3750 N   0  0  0  0  0  0  0  0  0  0  0  0
   58.2990   31.1350   45.7860 C   0  0  0  0  0  0  0  0  0  0  0  0
   57.6450   29.8170   45.6610 C   0  0  0  0  0  0  0  0  0  0  0  0
   56.3390   29.6000   45.2270 C   0  0  0  0  0  0  0  0  0  0  0  0
   56.0470   28.2810   45.2330 N   0  0  0  0  0  0  0  0  0  0  0  0
   57.1560   27.6560   45.6630 C   0  0  0  0  0  0  0  0  0  0  0  0
   57.3350   26.2830   45.8280 C   0  0  0  0  0  0  0  0  0  0  0  0
   58.5860   25.8320   46.2820 C   0  0  0  0  0  0  0  0  0  0  0  0
   59.6190   26.7510   46.5580 C   0  0  0  0  0  0  0  0  0  0  0  0
   59.4140   28.1310   46.3830 C   0  0  0  0  0  0  0  0  0  0  0  0
   58.1590   28.5570   45.9350 C   0  0  0  0  0  0  0  0  0  0  0  0
   57.6750   32.2440   45.3150 N   0  0  0  0  0  0  0  0  0  0  0  0
   57.1713   35.2901   45.6983 H   0  0  0  0  0  0  0  0  0  0  0  0
   58.2338   35.2578   44.2503 H   0  0  0  0  0  0  0  0  0  0  0  0
   56.6877   34.3435   44.2503 H   0  0  0  0  0  0  0  0  0  0  0  0
   59.9860   34.5893   46.0844 H   0  0  0  0  0  0  0  0  0  0  0  0
   61.1524   31.9311   49.1388 H   0  0  0  0  0  0  0  0  0  0  0  0
   61.5520   30.5971   47.9635 H   0  0  0  0  0  0  0  0  0  0  0  0
   63.3491   31.2831   49.7034 H   0  0  0  0  0  0  0  0  0  0  0  0
   63.8270   31.0906   47.9712 H   0  0  0  0  0  0  0  0  0  0  0  0
   64.2855   34.4197   47.2820 H   0  0  0  0  0  0  0  0  0  0  0  0
   64.3087   32.6992   46.7301 H   0  0  0  0  0  0  0  0  0  0  0  0
   61.9378   34.5585   47.1082 H   0  0  0  0  0  0  0  0  0  0  0  0
   62.4468   33.5868   45.6527 H   0  0  0  0  0  0  0  0  0  0  0  0
   55.6414   30.3937   44.9214 H   0  0  0  0  0  0  0  0  0  0  0  0
   55.1420   27.8390   44.9570 H   0  0  0  0  0  0  0  0  0  0  0  0
   56.5221   25.5749   45.6095 H   0  0  0  0  0  0  0  0  0  0  0  0
   58.7605   24.7551   46.4230 H   0  0  0  0  0  0  0  0  0  0  0  0
   60.5937   26.3853   46.9133 H   0  0  0  0  0  0  0  0  0  0  0  0
   60.2163   28.8539   46.5921 H   0  0  0  0  0  0  0  0  0  0  0  0
  1  2  1  0
  2  3  2  0
  3  4  1  0
  4  5  1  0
  5  6  1  0
  6  7  1  0
  7  8  1  0
  8  9  1  0
  9 10  1  0
  4 11  2  0
 11 12  1  0
 12 13  1  0
 13 14  2  0
 14 15  1  0
 15 16  1  0
 16 17  2  0
 17 18  1  0
 18 19  2  0
 19 20  1  0
 20 21  2  0
 12 22  2  0
 22  2  1  0
 10  5  1  0
 21 13  1  0
 21 16  1  0
  1 23  1  0
  1 24  1  0
  1 25  1  0
  3 26  1  0
  6 27  1  0
  6 28  1  0
  7 29  1  0
  7 30  1  0
  9 31  1  0
  9 32  1  0
 10 33  1  0
 10 34  1  0
 14 35  1  0
 15 36  1  0
 17 37  1  0
 18 38  1  0
 19 39  1  0
 20 40  1  0
M  END
>  <UniqueID>  (61) 
58

>  <SMILES>  (61) 
Cc1cc(N2CCOCC2)nc(-c2c[nH]c3ccccc23)n1

>  <Energy>  (61) 
80.82798173945702

>  <Genealogy>  (61) 
Cc1cc(N2CCOCC2)nc(-c2c[nH]c3ccccc23)n1 (3D coordinates assigned)
Cc1cc(N2CCOCC2)nc(-c2c[nH]c3ccccc23)n1 (nonaromatic ring conformer: 80.82798173945702 kcal/mol)

>  <smiles>  (61) 
Cc1cc(N2CCOCC2)nc(-c2c[nH]c3ccccc23)n1

>  <score_type>  (61) 
oracle

>  <origin>  (61) 
adg

>  <m_score__min__energy>  (61) 
-7.3499999999999996

>  <m_primary>  (61) 
energy

$$$$
61:0
     RDKit          3D

 49 51  0  0  0  0  0  0  0  0999 V2000
   60.6810   25.2920   45.9960 O   0  0  0  0  0  0  0  0  0  0  0  0
   59.4850   25.6850   46.0360 C   0  0  0  0  0  0  0  0  0  0  0  0
   58.4860   24.8040   46.5730 N   0  0  0  0  0  0  0  0  0  0  0  0
   57.6200   23.9520   45.8040 C   0  0  0  0  0  0  0  0  0  0  0  0
   58.1380   22.7360   45.3410 C   0  0  0  0  0  0  0  0  0  0  0  0
   57.3830   21.9190   44.4960 C   0  0  0  0  0  0  0  0  0  0  0  0
   56.1000   22.3080   44.1130 C   0  0  0  0  0  0  0  0  0  0  0  0
   55.5560   23.4990   44.5970 C   0  0  0  0  0  0  0  0  0  0  0  0
   56.2920   24.3210   45.4670 C   0  0  0  0  0  0  0  0  0  0  0  0
   55.6670   25.4820   46.0380 N   0  0  0  0  0  0  0  0  0  0  0  0
   56.3260   26.2650   46.7540 O   0  0  0  0  0  0  0  0  0  0  0  0
   54.3920   25.8380   45.6640 O   0  0  0  0  0  0  0  0  0  0  0  0
   59.1490   27.0360   45.5350 C   0  0  0  0  0  0  0  0  0  0  0  0
   59.7210   28.1680   46.1350 C   0  0  0  0  0  0  0  0  0  0  0  0
   59.3370   29.4500   45.7330 C   0  0  0  0  0  0  0  0  0  0  0  0
   58.3900   29.6140   44.7130 C   0  0  0  0  0  0  0  0  0  0  0  0
   57.7950   31.2160   44.2810 S   0  0  0  0  0  0  0  0  0  0  0  0
   56.3110   31.2530   44.5280 O   0  0  0  0  0  0  0  0  0  0  0  0
   58.0520   31.4890   42.8250 O   0  0  0  0  0  0  0  0  0  0  0  0
   58.5990   32.4230   45.2600 N   0  0  0  0  0  0  0  0  0  0  0  0
   58.2650   32.1830   46.6800 C   0  0  0  0  0  0  0  0  0  0  0  0
   58.3300   33.4570   47.5430 C   0  0  0  0  0  0  0  0  0  0  0  0
   59.6660   34.2000   47.4030 C   0  0  0  0  0  0  0  0  0  0  0  0
   59.6820   35.2720   46.3010 C   0  0  0  0  0  0  0  0  0  0  0  0
   59.3670   34.7800   44.8790 C   0  0  0  0  0  0  0  0  0  0  0  0
   58.2020   33.7750   44.7980 C   0  0  0  0  0  0  0  0  0  0  0  0
   57.8560   28.4870   44.0770 C   0  0  0  0  0  0  0  0  0  0  0  0
   58.2370   27.2050   44.4800 C   0  0  0  0  0  0  0  0  0  0  0  0
   59.1473   22.4217   45.6451 H   0  0  0  0  0  0  0  0  0  0  0  0
   57.8008   20.9685   44.1327 H   0  0  0  0  0  0  0  0  0  0  0  0
   55.5157   21.6755   43.4285 H   0  0  0  0  0  0  0  0  0  0  0  0
   54.5413   23.7969   44.2944 H   0  0  0  0  0  0  0  0  0  0  0  0
   60.4756   28.0457   46.9259 H   0  0  0  0  0  0  0  0  0  0  0  0
   59.7791   30.3326   46.2183 H   0  0  0  0  0  0  0  0  0  0  0  0
   59.6270   32.2790   45.1210 H   0  0  0  0  0  0  0  0  0  0  0  0
   57.2448   31.7753   46.7350 H   0  0  0  0  0  0  0  0  0  0  0  0
   59.0129   31.4809   47.0773 H   0  0  0  0  0  0  0  0  0  0  0  0
   57.5179   34.1322   47.2354 H   0  0  0  0  0  0  0  0  0  0  0  0
   58.2285   33.1513   48.5948 H   0  0  0  0  0  0  0  0  0  0  0  0
   59.8903   34.6890   48.3625 H   0  0  0  0  0  0  0  0  0  0  0  0
   60.4167   33.4472   47.1207 H   0  0  0  0  0  0  0  0  0  0  0  0
   58.9376   36.0375   46.5651 H   0  0  0  0  0  0  0  0  0  0  0  0
   60.7163   35.6446   46.2641 H   0  0  0  0  0  0  0  0  0  0  0  0
   59.1117   35.6535   44.2611 H   0  0  0  0  0  0  0  0  0  0  0  0
   60.2637   34.2513   44.5233 H   0  0  0  0  0  0  0  0  0  0  0  0
   57.3766   34.1372   45.4285 H   0  0  0  0  0  0  0  0  0  0  0  0
   57.8947   33.6966   43.7447 H   0  0  0  0  0  0  0  0  0  0  0  0
   57.1336   28.6115   43.2568 H   0  0  0  0  0  0  0  0  0  0  0  0
   57.8212   26.3241   43.9691 H   0  0  0  0  0  0  0  0  0  0  0  0
  1  2  2  0
  2  3  1  0
  3  4  1  0
  4  5  2  0
  5  6  1  0
  6  7  2  0
  7  8  1  0
  8  9  2  0
  9 10  1  0
 10 11  2  0
 10 12  1  0
  2 13  1  0
 13 14  2  0
 14 15  1  0
 15 16  2  0
 16 17  1  0
 17 18  2  0
 17 19  2  0
 17 20  1  0
 20 21  1  0
 21 22  1  0
 22 23  1  0
 23 24  1  0
 24 25  1  0
 25 26  1  0
 16 27  1  0
 27 28  2  0
  9  4  1  0
 28 13  1  0
 26 20  1  0
  5 29  1  0
  6 30  1  0
  7 31  1  0
  8 32  1  0
 14 33  1  0
 15 34  1  0
 20 35  1  0
 21 36  1  0
 21 37  1  0
 22 38  1  0
 22 39  1  0
 23 40  1  0
 23 41  1  0
 24 42  1  0
 24 43  1  0
 25 44  1  0
 25 45  1  0
 26 46  1  0
 26 47  1  0
 27 48  1  0
 28 49  1  0
M  CHG  4   3  -1  10   1  12  -1  20   1
M  END
>  <UniqueID>  (62) 
59

>  <SMILES>  (62) 
O=C([N-]c1ccccc1[N+](=O)[O-])c1ccc(S(=O)(=O)[NH+]2CCCCCC2)cc1

>  <Energy>  (62) 
66.1036620365148

>  <Genealogy>  (62) 
O=C([N-]c1ccccc1[N+](=O)[O-])c1ccc(S(=O)(=O)[NH+]2CCCCCC2)cc1 (protonated)
O=C([N-]c1ccccc1[N+](=O)[O-])c1ccc(S(=O)(=O)[NH+]2CCCCCC2)cc1 (3D coordinates assigned)
O=C([N-]c1ccccc1[N+](=O)[O-])c1ccc(S(=O)(=O)[NH+]2CCCCCC2)cc1 (nonaromatic ring conformer: 66.1036620365148 kcal/mol)

>  <smiles>  (62) 
O=C(Nc1ccccc1[N+](=O)[O-])c1ccc(S(=O)(=O)N2CCCCCC2)cc1

>  <score_type>  (62) 
oracle

>  <origin>  (62) 
adg

>  <m_score__min__energy>  (62) 
-8.5399999999999991

>  <m_primary>  (62) 
energy

$$$$
62:0
     RDKit          3D

 67 69  0  0  0  0  0  0  0  0999 V2000
   61.6580   27.3160   51.9250 C   0  0  0  0  0  0  0  0  0  0  0  0
   60.9640   28.6030   51.5950 C   0  0  0  0  0  0  0  0  0  0  0  0
   61.3190   29.7900   52.2550 C   0  0  0  0  0  0  0  0  0  0  0  0
   60.6990   30.9970   51.9160 C   0  0  0  0  0  0  0  0  0  0  0  0
   59.7270   31.0320   50.9060 C   0  0  0  0  0  0  0  0  0  0  0  0
   58.9940   32.5640   50.4410 S   0  0  0  0  0  0  0  0  0  0  0  0
   57.7890   32.2900   49.5880 O   0  0  0  0  0  0  0  0  0  0  0  0
   58.5490   33.3110   51.6670 O   0  0  0  0  0  0  0  0  0  0  0  0
   60.1060   33.5470   49.5450 N   0  0  0  0  0  0  0  0  0  0  0  0
   61.3520   33.0460   49.0540 C   0  0  0  0  0  0  0  0  0  0  0  0
   62.5400   33.3550   49.7330 C   0  0  0  0  0  0  0  0  0  0  0  0
   63.7640   32.8590   49.2810 C   0  0  0  0  0  0  0  0  0  0  0  0
   65.2420   33.2730   50.1300 Cl  0  0  0  0  0  0  0  0  0  0  0  0
   63.8090   32.0310   48.1590 C   0  0  0  0  0  0  0  0  0  0  0  0
   62.6320   31.6930   47.4900 C   0  0  0  0  0  0  0  0  0  0  0  0
   61.3880   32.1840   47.9330 C   0  0  0  0  0  0  0  0  0  0  0  0
   60.1430   31.8290   47.1950 C   0  0  0  0  0  0  0  0  0  0  0  0
   59.4650   30.8360   47.5800 O   0  0  0  0  0  0  0  0  0  0  0  0
   59.6570   32.6570   46.1030 N   0  0  2  0  0  0  0  0  0  0  0  0
   60.5660   33.8000   45.8860 C   0  0  0  0  0  0  0  0  0  0  0  0
   59.8850   35.0660   46.3940 C   0  0  0  0  0  0  0  0  0  0  0  0
   58.5280   34.6370   46.9190 C   0  0  0  0  0  0  0  0  0  0  0  0
   58.3160   33.2190   46.3910 C   0  0  1  0  0  0  0  0  0  0  0  0
   57.3600   33.1750   45.1630 C   0  0  0  0  0  0  0  0  0  0  0  0
   57.6540   32.0700   44.2320 N   0  0  0  0  0  0  0  0  0  0  0  0
   57.7640   32.3220   42.7930 C   0  0  0  0  0  0  0  0  0  0  0  0
   57.6660   30.7030   44.6820 C   0  0  0  0  0  0  0  0  0  0  0  0
   56.5800   30.0930   44.8750 O   0  0  0  0  0  0  0  0  0  0  0  0
   58.8950   30.0620   44.8950 O   0  0  0  0  0  0  0  0  0  0  0  0
   59.0900   28.6650   45.1570 C   0  0  0  0  0  0  0  0  0  0  0  0
   60.6040   28.4300   45.2630 C   0  0  0  0  0  0  0  0  0  0  0  0
   58.5340   27.8160   43.9980 C   0  0  0  0  0  0  0  0  0  0  0  0
   58.4310   28.2620   46.4910 C   0  0  0  0  0  0  0  0  0  0  0  0
   59.3860   29.8530   50.2310 C   0  0  0  0  0  0  0  0  0  0  0  0
   60.0030   28.6440   50.5720 C   0  0  0  0  0  0  0  0  0  0  0  0
   61.7194   27.2021   53.0174 H   0  0  0  0  0  0  0  0  0  0  0  0
   61.0914   26.4744   51.4999 H   0  0  0  0  0  0  0  0  0  0  0  0
   62.6725   27.3270   51.4999 H   0  0  0  0  0  0  0  0  0  0  0  0
   62.0876   29.7708   53.0417 H   0  0  0  0  0  0  0  0  0  0  0  0
   60.9749   31.9220   52.4435 H   0  0  0  0  0  0  0  0  0  0  0  0
   62.5068   33.9930   50.6284 H   0  0  0  0  0  0  0  0  0  0  0  0
   64.7744   31.6438   47.8010 H   0  0  0  0  0  0  0  0  0  0  0  0
   62.6759   31.0369   46.6082 H   0  0  0  0  0  0  0  0  0  0  0  0
   59.6170   32.0660   45.2440 H   0  0  0  0  0  0  0  0  0  0  0  0
   61.5041   33.6372   46.4368 H   0  0  0  0  0  0  0  0  0  0  0  0
   60.7948   33.9002   44.8147 H   0  0  0  0  0  0  0  0  0  0  0  0
   60.4791   35.5209   47.2003 H   0  0  0  0  0  0  0  0  0  0  0  0
   59.7863   35.8155   45.5949 H   0  0  0  0  0  0  0  0  0  0  0  0
   58.5220   34.6426   48.0190 H   0  0  0  0  0  0  0  0  0  0  0  0
   57.7293   35.3184   46.5908 H   0  0  0  0  0  0  0  0  0  0  0  0
   57.8072   32.6021   47.1463 H   0  0  0  0  0  0  0  0  0  0  0  0
   56.3288   33.0587   45.5278 H   0  0  0  0  0  0  0  0  0  0  0  0
   57.5009   34.1140   44.6077 H   0  0  0  0  0  0  0  0  0  0  0  0
   58.1991   33.3187   42.6275 H   0  0  0  0  0  0  0  0  0  0  0  0
   58.4109   31.5590   42.3355 H   0  0  0  0  0  0  0  0  0  0  0  0
   56.7646   32.2776   42.3355 H   0  0  0  0  0  0  0  0  0  0  0  0
   60.8947   28.3849   46.3229 H   0  0  0  0  0  0  0  0  0  0  0  0
   60.8631   27.4809   44.7710 H   0  0  0  0  0  0  0  0  0  0  0  0
   61.1386   29.2559   44.7710 H   0  0  0  0  0  0  0  0  0  0  0  0
   57.9742   26.9612   44.4054 H   0  0  0  0  0  0  0  0  0  0  0  0
   57.8640   28.4323   43.3805 H   0  0  0  0  0  0  0  0  0  0  0  0
   59.3668   27.4482   43.3805 H   0  0  0  0  0  0  0  0  0  0  0  0
   59.0399   28.6344   47.3280 H   0  0  0  0  0  0  0  0  0  0  0  0
   57.4228   28.6983   46.5485 H   0  0  0  0  0  0  0  0  0  0  0  0
   58.3600   27.1658   46.5485 H   0  0  0  0  0  0  0  0  0  0  0  0
   58.6314   29.8774   49.4310 H   0  0  0  0  0  0  0  0  0  0  0  0
   59.7339   27.7217   50.0362 H   0  0  0  0  0  0  0  0  0  0  0  0
  1  2  1  0
  2  3  2  0
  3  4  1  0
  4  5  2  0
  5  6  1  0
  6  7  2  0
  6  8  2  0
  6  9  1  0
  9 10  1  0
 10 11  2  0
 11 12  1  0
 12 13  1  0
 12 14  2  0
 14 15  1  0
 15 16  2  0
 16 17  1  0
 17 18  2  0
 17 19  1  0
 19 20  1  0
 20 21  1  0
 21 22  1  0
 22 23  1  0
 23 24  1  0
 24 25  1  0
 25 26  1  0
 25 27  1  0
 27 28  2  0
 27 29  1  0
 29 30  1  0
 30 31  1  0
 30 32  1  0
 30 33  1  0
  5 34  1  0
 34 35  2  0
 35  2  1  0
 16 10  1  0
 23 19  1  0
  1 36  1  0
  1 37  1  0
  1 38  1  0
  3 39  1  0
  4 40  1  0
 11 41  1  0
 14 42  1  0
 15 43  1  0
 19 44  1  6
 20 45  1  0
 20 46  1  0
 21 47  1  0
 21 48  1  0
 22 49  1  0
 22 50  1  0
 23 51  1  1
 24 52  1  0
 24 53  1  0
 26 54  1  0
 26 55  1  0
 26 56  1  0
 31 57  1  0
 31 58  1  0
 31 59  1  0
 32 60  1  0
 32 61  1  0
 32 62  1  0
 33 63  1  0
 33 64  1  0
 33 65  1  0
 34 66  1  0
 35 67  1  0
M  CHG  2   9  -1  19   1
M  END
>  <UniqueID>  (63) 
60

>  <SMILES>  (63) 
Cc1ccc(S(=O)(=O)[N-]c2cc(Cl)ccc2C(=O)[N@@H+]2CCC[C@H]2CN(C)C(=O)OC(C)(C)C)cc1

>  <Energy>  (63) 
78.61095050020126

>  <Genealogy>  (63) 
Cc1ccc(S(=O)(=O)[N-]c2cc(Cl)ccc2C(=O)[NH+]2CCCC2CN(C)C(=O)OC(C)(C)C)cc1 (protonated)
Cc1ccc(S(=O)(=O)[N-]c2cc(Cl)ccc2C(=O)[N@@H+]2CCC[C@H]2CN(C)C(=O)OC(C)(C)C)cc1 (chirality)
Cc1ccc(S(=O)(=O)[N-]c2cc(Cl)ccc2C(=O)[N@@H+]2CCC[C@H]2CN(C)C(=O)OC(C)(C)C)cc1 (3D coordinates assigned)
Cc1ccc(S(=O)(=O)[N-]c2cc(Cl)ccc2C(=O)[N@@H+]2CCC[C@H]2CN(C)C(=O)OC(C)(C)C)cc1 (nonaromatic ring conformer: 78.61095050020126 kcal/mol)

>  <smiles>  (63) 
Cc1ccc(S(=O)(=O)Nc2cc(Cl)ccc2C(=O)N2CCCC2CN(C)C(=O)OC(C)(C)C)cc1

>  <score_type>  (63) 
oracle

>  <origin>  (63) 
adg

>  <m_score__min__energy>  (63) 
-8.9900000000000002

>  <m_primary>  (63) 
energy

$$$$
63:0
     RDKit          3D

 51 53  0  0  0  0  0  0  0  0999 V2000
   60.6150   30.2600   49.8140 C   0  0  0  0  0  0  0  0  0  0  0  0
   60.9070   31.2430   48.7570 N   0  0  0  0  0  0  0  0  0  0  0  0
   59.6980   31.9900   48.3500 C   0  0  0  0  0  0  0  0  0  0  0  0
   58.6840   31.0910   47.6210 C   0  0  0  0  0  0  0  0  0  0  0  0
   59.3720   30.1010   46.7830 N   0  0  0  0  0  0  0  0  0  0  0  0
   58.7890   28.7980   46.5840 C   0  0  0  0  0  0  0  0  0  0  0  0
   58.8750   27.8370   47.6030 C   0  0  0  0  0  0  0  0  0  0  0  0
   58.2310   26.6050   47.4780 C   0  0  0  0  0  0  0  0  0  0  0  0
   57.4750   26.3090   46.3320 C   0  0  0  0  0  0  0  0  0  0  0  0
   56.7990   25.0450   46.2040 N   0  0  0  0  0  0  0  0  0  0  0  0
   55.5670   24.9590   46.3920 O   0  0  0  0  0  0  0  0  0  0  0  0
   57.4980   23.9070   45.8720 O   0  0  0  0  0  0  0  0  0  0  0  0
   57.3930   27.2660   45.3070 C   0  0  0  0  0  0  0  0  0  0  0  0
   58.0600   28.4950   45.4130 C   0  0  0  0  0  0  0  0  0  0  0  0
   57.9890   29.4150   44.3150 N   0  0  0  0  0  0  0  0  0  0  0  0
   56.8190   30.1990   44.0430 C   0  0  0  0  0  0  0  0  0  0  0  0
   55.8070   30.1060   44.7910 O   0  0  0  0  0  0  0  0  0  0  0  0
   56.8510   31.2120   42.9320 C   0  0  0  0  0  0  0  0  0  0  0  0
   58.0970   32.1120   42.9540 C   0  0  0  0  0  0  0  0  0  0  0  0
   58.1740   32.9560   44.2010 C   0  0  0  0  0  0  0  0  0  0  0  0
   59.2350   33.8590   44.3860 C   0  0  0  0  0  0  0  0  0  0  0  0
   59.2840   34.6650   45.5270 C   0  0  0  0  0  0  0  0  0  0  0  0
   58.2790   34.5730   46.4940 C   0  0  0  0  0  0  0  0  0  0  0  0
   57.2290   33.6650   46.3250 C   0  0  0  0  0  0  0  0  0  0  0  0
   57.1740   32.8610   45.1840 C   0  0  0  0  0  0  0  0  0  0  0  0
   60.7520   30.3740   46.3760 C   0  0  0  0  0  0  0  0  0  0  0  0
   61.6340   30.6320   47.6130 C   0  0  0  0  0  0  0  0  0  0  0  0
   60.7543   30.7288   50.7993 H   0  0  0  0  0  0  0  0  0  0  0  0
   59.5754   29.9142   49.7161 H   0  0  0  0  0  0  0  0  0  0  0  0
   61.2973   29.4027   49.7161 H   0  0  0  0  0  0  0  0  0  0  0  0
   59.2202   32.4089   49.2479 H   0  0  0  0  0  0  0  0  0  0  0  0
   60.0073   32.7857   47.6563 H   0  0  0  0  0  0  0  0  0  0  0  0
   58.0667   30.5666   48.3653 H   0  0  0  0  0  0  0  0  0  0  0  0
   58.0540   31.7214   46.9763 H   0  0  0  0  0  0  0  0  0  0  0  0
   59.4565   28.0571   48.5104 H   0  0  0  0  0  0  0  0  0  0  0  0
   58.3162   25.8603   48.2831 H   0  0  0  0  0  0  0  0  0  0  0  0
   56.7971   27.0483   44.4084 H   0  0  0  0  0  0  0  0  0  0  0  0
   58.8810   29.6760   43.8360 H   0  0  0  0  0  0  0  0  0  0  0  0
   56.8265   30.6757   41.9719 H   0  0  0  0  0  0  0  0  0  0  0  0
   55.9780   31.8672   43.0683 H   0  0  0  0  0  0  0  0  0  0  0  0
   58.9931   31.4762   42.9018 H   0  0  0  0  0  0  0  0  0  0  0  0
   58.0349   32.7922   42.0918 H   0  0  0  0  0  0  0  0  0  0  0  0
   60.0303   33.9318   43.6296 H   0  0  0  0  0  0  0  0  0  0  0  0
   60.1148   35.3728   45.6641 H   0  0  0  0  0  0  0  0  0  0  0  0
   58.3140   35.2142   47.3871 H   0  0  0  0  0  0  0  0  0  0  0  0
   56.4448   33.5837   47.0921 H   0  0  0  0  0  0  0  0  0  0  0  0
   56.3444   32.1504   45.0543 H   0  0  0  0  0  0  0  0  0  0  0  0
   61.1456   29.5077   45.8242 H   0  0  0  0  0  0  0  0  0  0  0  0
   60.7655   31.2675   45.7346 H   0  0  0  0  0  0  0  0  0  0  0  0
   62.0551   29.6712   47.9441 H   0  0  0  0  0  0  0  0  0  0  0  0
   62.4084   31.3509   47.3074 H   0  0  0  0  0  0  0  0  0  0  0  0
  1  2  1  0
  2  3  1  0
  3  4  1  0
  4  5  1  0
  5  6  1  0
  6  7  2  0
  7  8  1  0
  8  9  2  0
  9 10  1  0
 10 11  2  0
 10 12  1  0
  9 13  1  0
 13 14  2  0
 14 15  1  0
 15 16  1  0
 16 17  2  0
 16 18  1  0
 18 19  1  0
 19 20  1  0
 20 21  2  0
 21 22  1  0
 22 23  2  0
 23 24  1  0
 24 25  2  0
  5 26  1  0
 26 27  1  0
 27  2  1  0
 14  6  1  0
 25 20  1  0
  1 28  1  0
  1 29  1  0
  1 30  1  0
  3 31  1  0
  3 32  1  0
  4 33  1  0
  4 34  1  0
  7 35  1  0
  8 36  1  0
 13 37  1  0
 15 38  1  0
 18 39  1  0
 18 40  1  0
 19 41  1  0
 19 42  1  0
 21 43  1  0
 22 44  1  0
 23 45  1  0
 24 46  1  0
 25 47  1  0
 26 48  1  0
 26 49  1  0
 27 50  1  0
 27 51  1  0
M  CHG  2  10   1  12  -1
M  END
>  <UniqueID>  (64) 
61

>  <SMILES>  (64) 
CN1CCN(c2ccc([N+](=O)[O-])cc2NC(=O)CCc2ccccc2)CC1

>  <Energy>  (64) 
64.34009986002945

>  <Genealogy>  (64) 
CN1CCN(c2ccc([N+](=O)[O-])cc2NC(=O)CCc2ccccc2)CC1 (3D coordinates assigned)
CN1CCN(c2ccc([N+](=O)[O-])cc2NC(=O)CCc2ccccc2)CC1 (nonaromatic ring conformer: 64.34009986002945 kcal/mol)

>  <smiles>  (64) 
CN1CCN(c2ccc([N+](=O)[O-])cc2NC(=O)CCc2ccccc2)CC1

>  <score_type>  (64) 
oracle

>  <origin>  (64) 
adg

>  <m_score__min__energy>  (64) 
-8.5099999999999998

>  <m_primary>  (64) 
energy

$$$$
64:0
     RDKit          3D

 64 66  0  0  0  0  0  0  0  0999 V2000
   60.8380   26.5000   47.8530 H   0  0  0  0  0  0  0  0  0  0  0  0
   60.0250   26.0200   47.4890 O   0  0  0  0  0  0  0  0  0  0  0  0
   58.8760   26.6900   47.0510 C   0  0  0  0  0  0  0  0  0  0  0  0
   57.7450   25.9190   46.7290 C   0  0  0  0  0  0  0  0  0  0  0  0
   57.7200   24.5340   46.9960 C   0  0  0  0  0  0  0  0  0  0  0  0
   58.5924   24.0537   47.4631 H   0  0  0  0  0  0  0  0  0  0  0  0
   56.5980   23.7660   46.6730 C   0  0  0  0  0  0  0  0  0  0  0  0
   56.5881   22.6885   46.8941 H   0  0  0  0  0  0  0  0  0  0  0  0
   55.4910   24.3630   46.0710 C   0  0  0  0  0  0  0  0  0  0  0  0
   54.6091   23.7565   45.8173 H   0  0  0  0  0  0  0  0  0  0  0  0
   55.5020   25.7320   45.7900 C   0  0  0  0  0  0  0  0  0  0  0  0
   54.6269   26.1972   45.3127 H   0  0  0  0  0  0  0  0  0  0  0  0
   56.6260   26.5240   46.1130 C   0  0  0  0  0  0  0  0  0  0  0  0
   56.6510   27.8950   45.8050 C   0  0  0  0  0  0  0  0  0  0  0  0
   55.5220   28.4660   45.2220 O   0  0  0  0  0  0  0  0  0  0  0  0
   57.7800   28.6890   46.1310 C   0  0  0  0  0  0  0  0  0  0  0  0
   57.8460   30.0730   45.7930 C   0  0  0  0  0  0  0  0  0  0  0  0
   56.9180   30.6670   44.8690 N   0  0  0  0  0  0  0  0  0  0  0  0
   56.2050   30.0480   44.4230 H   0  0  0  0  0  0  0  0  0  0  0  0
   57.0980   32.0170   44.3310 C   0  0  0  0  0  0  0  0  0  0  0  0
   58.1367   32.1342   43.9884 H   0  0  0  0  0  0  0  0  0  0  0  0
   56.4021   32.1599   43.4912 H   0  0  0  0  0  0  0  0  0  0  0  0
   56.8000   33.0690   45.4040 C   0  0  0  0  0  0  0  0  0  0  0  0
   55.8293   33.5401   45.1898 H   0  0  0  0  0  0  0  0  0  0  0  0
   56.7731   32.5772   46.3876 H   0  0  0  0  0  0  0  0  0  0  0  0
   57.8530   34.1070   45.4160 N   0  0  0  0  0  0  0  0  0  0  0  0
   58.8820   33.8140   44.4050 C   0  0  0  0  0  0  0  0  0  0  0  0
   59.8234   33.5460   44.9070 H   0  0  0  0  0  0  0  0  0  0  0  0
   58.5498   32.9747   43.7763 H   0  0  0  0  0  0  0  0  0  0  0  0
   59.0417   34.7024   43.7763 H   0  0  0  0  0  0  0  0  0  0  0  0
   58.4770   34.2140   46.7470 C   0  0  0  0  0  0  0  0  0  0  0  0
   57.7092   34.0823   47.5236 H   0  0  0  0  0  0  0  0  0  0  0  0
   59.2456   33.4345   46.8554 H   0  0  0  0  0  0  0  0  0  0  0  0
   58.9420   35.2050   46.8554 H   0  0  0  0  0  0  0  0  0  0  0  0
   58.8980   30.8550   46.2850 C   0  0  0  0  0  0  0  0  0  0  0  0
   58.9602   31.9179   46.0085 H   0  0  0  0  0  0  0  0  0  0  0  0
   59.8630   30.3060   47.1170 C   0  0  0  0  0  0  0  0  0  0  0  0
   60.6663   30.9448   47.5127 H   0  0  0  0  0  0  0  0  0  0  0  0
   59.8270   28.9570   47.4570 C   0  0  0  0  0  0  0  0  0  0  0  0
   60.7690   28.5030   48.4420 N   0  0  0  0  0  0  0  0  0  0  0  0
   60.8450   28.9320   49.6700 C   0  0  0  0  0  0  0  0  0  0  0  0
   60.1764   28.4821   50.4187 H   0  0  0  0  0  0  0  0  0  0  0  0
   61.7980   30.0110   50.1240 C   0  0  0  0  0  0  0  0  0  0  0  0
   62.8319   29.6676   49.9723 H   0  0  0  0  0  0  0  0  0  0  0  0
   61.6186   30.2178   51.1894 H   0  0  0  0  0  0  0  0  0  0  0  0
   61.5800   31.2580   49.3510 N   0  0  0  0  0  0  0  0  0  0  0  0
   60.7190   32.1980   50.1060 C   0  0  0  0  0  0  0  0  0  0  0  0
   59.7436   31.7250   50.2924 H   0  0  0  0  0  0  0  0  0  0  0  0
   61.2108   32.4428   51.0590 H   0  0  0  0  0  0  0  0  0  0  0  0
   60.5090   33.4870   49.3140 C   0  0  0  0  0  0  0  0  0  0  0  0
   60.3721   34.3272   50.0106 H   0  0  0  0  0  0  0  0  0  0  0  0
   61.3883   33.6755   48.6805 H   0  0  0  0  0  0  0  0  0  0  0  0
   59.6154   33.3866   48.6805 H   0  0  0  0  0  0  0  0  0  0  0  0
   62.8790   31.8920   49.0140 C   0  0  0  0  0  0  0  0  0  0  0  0
   63.6924   31.2927   49.4490 H   0  0  0  0  0  0  0  0  0  0  0  0
   62.8809   32.9126   49.4243 H   0  0  0  0  0  0  0  0  0  0  0  0
   63.0850   31.9840   47.4940 C   0  0  0  0  0  0  0  0  0  0  0  0
   62.1708   31.6347   46.9918 H   0  0  0  0  0  0  0  0  0  0  0  0
   63.9516   31.3582   47.2344 H   0  0  0  0  0  0  0  0  0  0  0  0
   63.3840   33.4070   47.0330 C   0  0  0  0  0  0  0  0  0  0  0  0
   63.5203   34.0558   47.9108 H   0  0  0  0  0  0  0  0  0  0  0  0
   64.3026   33.4110   46.4279 H   0  0  0  0  0  0  0  0  0  0  0  0
   62.5447   33.7804   46.4279 H   0  0  0  0  0  0  0  0  0  0  0  0
   58.8470   28.1010   46.8780 C   0  0  0  0  0  0  0  0  0  0  0  0
  1  2  1  0
  2  3  1  0
  3  4  2  0
  4  5  1  0
  5  6  1  0
  5  7  2  0
  7  8  1  0
  7  9  1  0
  9 10  1  0
  9 11  2  0
 11 12  1  0
 11 13  1  0
 13 14  2  0
 14 15  1  0
 14 16  1  0
 16 17  2  0
 17 18  1  0
 18 19  1  0
 18 20  1  0
 20 21  1  0
 20 22  1  0
 20 23  1  0
 23 24  1  0
 23 25  1  0
 23 26  1  0
 26 27  1  0
 27 28  1  0
 27 29  1  0
 27 30  1  0
 26 31  1  0
 31 32  1  0
 31 33  1  0
 31 34  1  0
 17 35  1  0
 35 36  1  0
 35 37  2  0
 37 38  1  0
 37 39  1  0
 39 40  1  0
 40 41  2  0
 41 42  1  0
 41 43  1  0
 43 44  1  0
 43 45  1  0
 43 46  1  0
 46 47  1  0
 47 48  1  0
 47 49  1  0
 47 50  1  0
 50 51  1  0
 50 52  1  0
 50 53  1  0
 46 54  1  0
 54 55  1  0
 54 56  1  0
 54 57  1  0
 57 58  1  0
 57 59  1  0
 57 60  1  0
 60 61  1  0
 60 62  1  0
 60 63  1  0
 39 64  2  0
 64  3  1  0
 13  4  1  0
 64 16  1  0
M  CHG  1  15  -1
M  END
>  <UniqueID>  (65) 
62

>  <SMILES>  (65) 
CCCN(CC)C/C=N\c1ccc(NCCN(C)C)c2c([O-])c3ccccc3c(O)c12

>  <Energy>  (65) 
89.71943340996546

>  <Genealogy>  (65) 
CCCN(CC)CC=Nc1ccc(NCCN(C)C)c2c([O-])c3ccccc3c(O)c12 (protonated)
CCCN(CC)C/C=N\c1ccc(NCCN(C)C)c2c([O-])c3ccccc3c(O)c12 (cis-trans isomerization)
CCCN(CC)C/C=N\c1ccc(NCCN(C)C)c2c([O-])c3ccccc3c(O)c12 (3D coordinates assigned)
CCCN(CC)C/C=N\c1ccc(NCCN(C)C)c2c([O-])c3ccccc3c(O)c12 (optimized conformer: 89.71943340996546 kcal/mol)

>  <smiles>  (65) 
CCCN(CC)CC=Nc1ccc(NCCN(C)C)c2c(O)c3ccccc3c(O)c12

>  <score_type>  (65) 
oracle

>  <origin>  (65) 
adg

>  <m_score__min__energy>  (65) 
-10.289999999999999

>  <m_primary>  (65) 
energy

$$$$
65:0
     RDKit          3D

 38 39  0  0  0  0  0  0  0  0999 V2000
   54.6200   23.7820   44.9530 C   0  0  0  0  0  0  0  0  0  0  0  0
   54.8470   25.0800   45.6520 C   0  0  0  0  0  0  0  0  0  0  0  0
   53.9500   25.9650   45.6260 O   0  0  0  0  0  0  0  0  0  0  0  0
   56.0320   25.2580   46.4380 N   0  0  0  0  0  0  0  0  0  0  0  0
   57.1480   26.1020   46.1190 C   0  0  0  0  0  0  0  0  0  0  0  0
   58.4070   25.7700   46.6320 C   0  0  0  0  0  0  0  0  0  0  0  0
   59.5200   26.5660   46.3480 C   0  0  0  0  0  0  0  0  0  0  0  0
   59.3870   27.6870   45.5280 C   0  0  0  0  0  0  0  0  0  0  0  0
   58.1460   28.0090   44.9610 C   0  0  0  0  0  0  0  0  0  0  0  0
   58.0330   29.1710   44.1230 N   0  0  0  0  0  0  0  0  0  0  0  0
   56.9580   30.1180   44.2060 C   0  0  0  0  0  0  0  0  0  0  0  0
   55.8860   29.8230   44.8010 O   0  0  0  0  0  0  0  0  0  0  0  0
   57.1090   31.4760   43.5940 C   0  0  0  0  0  0  0  0  0  0  0  0
   57.7620   32.4090   44.5750 C   0  0  0  0  0  0  0  0  0  0  0  0
   58.4210   33.5640   44.1260 C   0  0  0  0  0  0  0  0  0  0  0  0
   59.0660   34.4060   45.0350 C   0  0  0  0  0  0  0  0  0  0  0  0
   59.0590   34.1070   46.4050 C   0  0  0  0  0  0  0  0  0  0  0  0
   59.7880   34.9890   47.3750 C   0  0  0  0  0  0  0  0  0  0  0  0
   58.4280   32.9370   46.8520 C   0  0  0  0  0  0  0  0  0  0  0  0
   57.7810   32.0930   45.9430 C   0  0  0  0  0  0  0  0  0  0  0  0
   57.0230   27.2170   45.2690 C   0  0  0  0  0  0  0  0  0  0  0  0
   54.4805   22.9842   45.6973 H   0  0  0  0  0  0  0  0  0  0  0  0
   53.7213   23.8570   44.3231 H   0  0  0  0  0  0  0  0  0  0  0  0
   55.4908   23.5476   44.3231 H   0  0  0  0  0  0  0  0  0  0  0  0
   58.5213   24.8763   47.2631 H   0  0  0  0  0  0  0  0  0  0  0  0
   60.5020   26.3085   46.7714 H   0  0  0  0  0  0  0  0  0  0  0  0
   60.2617   28.3223   45.3251 H   0  0  0  0  0  0  0  0  0  0  0  0
   58.7500   29.3100   43.3750 H   0  0  0  0  0  0  0  0  0  0  0  0
   57.7323   31.4018   42.6907 H   0  0  0  0  0  0  0  0  0  0  0  0
   56.1154   31.8665   43.3288 H   0  0  0  0  0  0  0  0  0  0  0  0
   58.4296   33.8073   43.0533 H   0  0  0  0  0  0  0  0  0  0  0  0
   59.5820   35.3081   44.6743 H   0  0  0  0  0  0  0  0  0  0  0  0
   59.5389   34.6877   48.4032 H   0  0  0  0  0  0  0  0  0  0  0  0
   60.8721   34.8908   47.2165 H   0  0  0  0  0  0  0  0  0  0  0  0
   59.4875   36.0352   47.2165 H   0  0  0  0  0  0  0  0  0  0  0  0
   58.4419   32.6818   47.9219 H   0  0  0  0  0  0  0  0  0  0  0  0
   57.2854   31.1786   46.3012 H   0  0  0  0  0  0  0  0  0  0  0  0
   56.0415   27.4714   44.8424 H   0  0  0  0  0  0  0  0  0  0  0  0
  1  2  1  0
  2  3  2  0
  2  4  1  0
  4  5  1  0
  5  6  2  0
  6  7  1  0
  7  8  2  0
  8  9  1  0
  9 10  1  0
 10 11  1  0
 11 12  2  0
 11 13  1  0
 13 14  1  0
 14 15  2  0
 15 16  1  0
 16 17  2  0
 17 18  1  0
 17 19  1  0
 19 20  2  0
  9 21  2  0
 21  5  1  0
 20 14  1  0
  1 22  1  0
  1 23  1  0
  1 24  1  0
  6 25  1  0
  7 26  1  0
  8 27  1  0
 10 28  1  0
 13 29  1  0
 13 30  1  0
 15 31  1  0
 16 32  1  0
 18 33  1  0
 18 34  1  0
 18 35  1  0
 19 36  1  0
 20 37  1  0
 21 38  1  0
M  CHG  1   4  -1
M  END
>  <UniqueID>  (66) 
63

>  <SMILES>  (66) 
CC(=O)[N-]c1cccc(NC(=O)Cc2ccc(C)cc2)c1

>  <Energy>  (66) 
39.96718901791361

>  <Genealogy>  (66) 
CC(=O)[N-]c1cccc(NC(=O)Cc2ccc(C)cc2)c1 (protonated)
CC(=O)[N-]c1cccc(NC(=O)Cc2ccc(C)cc2)c1 (3D coordinates assigned)
CC(=O)[N-]c1cccc(NC(=O)Cc2ccc(C)cc2)c1 (optimized conformer: 39.96718901791361 kcal/mol)

>  <smiles>  (66) 
CC(=O)Nc1cccc(NC(=O)Cc2ccc(C)cc2)c1

>  <score_type>  (66) 
oracle

>  <origin>  (66) 
adg

>  <m_score__min__energy>  (66) 
-10.58

>  <m_primary>  (66) 
energy

$$$$
66:0
     RDKit          3D

 28 29  0  0  0  0  0  0  0  0999 V2000
   56.8639   34.0306   46.9037 H   0  0  0  0  0  0  0  0  0  0  0  0
   57.7560   33.6470   46.3870 C   0  0  0  0  0  0  0  0  0  0  0  0
   58.7910   34.6200   45.9730 C   0  0  0  0  0  0  0  0  0  0  0  0
   58.4908   35.6700   45.8413 H   0  0  0  0  0  0  0  0  0  0  0  0
   60.0720   34.2980   45.7490 C   0  0  0  0  0  0  0  0  0  0  0  0
   60.3895   34.1813   44.7023 H   0  0  0  0  0  0  0  0  0  0  0  0
   61.0930   34.0870   46.7980 C   0  0  0  0  0  0  0  0  0  0  0  0
   60.7850   34.2160   48.1630 C   0  0  0  0  0  0  0  0  0  0  0  0
   59.7569   34.4460   48.4794 H   0  0  0  0  0  0  0  0  0  0  0  0
   61.7940   34.0500   49.1160 C   0  0  0  0  0  0  0  0  0  0  0  0
   61.5569   34.1323   50.1870 H   0  0  0  0  0  0  0  0  0  0  0  0
   63.0680   33.7870   48.7210 N   0  0  0  0  0  0  0  0  0  0  0  0
   63.3990   33.6830   47.4070 C   0  0  0  0  0  0  0  0  0  0  0  0
   64.4395   33.4731   47.1183 H   0  0  0  0  0  0  0  0  0  0  0  0
   62.4210   33.8420   46.4220 C   0  0  0  0  0  0  0  0  0  0  0  0
   62.6915   33.7753   45.3579 H   0  0  0  0  0  0  0  0  0  0  0  0
   57.8390   32.3270   46.1710 C   0  0  0  0  0  0  0  0  0  0  0  0
   58.2134   31.7021   46.9952 H   0  0  0  0  0  0  0  0  0  0  0  0
   57.4680   31.6440   44.9150 C   0  0  0  0  0  0  0  0  0  0  0  0
   56.7120   30.5130   44.9850 N   0  0  0  0  0  0  0  0  0  0  0  0
   56.2950   29.8550   43.8700 C   0  0  0  0  0  0  0  0  0  0  0  0
   55.6953   28.9378   43.9653 H   0  0  0  0  0  0  0  0  0  0  0  0
   56.6270   30.3420   42.6060 C   0  0  0  0  0  0  0  0  0  0  0  0
   56.3016   29.8075   41.7014 H   0  0  0  0  0  0  0  0  0  0  0  0
   57.3760   31.5140   42.5010 C   0  0  0  0  0  0  0  0  0  0  0  0
   57.6377   31.9137   41.5102 H   0  0  0  0  0  0  0  0  0  0  0  0
   57.7930   32.1790   43.6560 C   0  0  0  0  0  0  0  0  0  0  0  0
   58.3702   33.1124   43.5815 H   0  0  0  0  0  0  0  0  0  0  0  0
  1  2  1  0
  2  3  1  0
  3  4  1  0
  3  5  2  0
  5  6  1  0
  5  7  1  0
  7  8  2  0
  8  9  1  0
  8 10  1  0
 10 11  1  0
 10 12  2  0
 12 13  1  0
 13 14  1  0
 13 15  2  0
 15 16  1  0
  2 17  2  0
 17 18  1  0
 17 19  1  0
 19 20  2  0
 20 21  1  0
 21 22  1  0
 21 23  2  0
 23 24  1  0
 23 25  1  0
 25 26  1  0
 25 27  2  0
 27 28  1  0
 15  7  1  0
 27 19  1  0
M  END
>  <UniqueID>  (67) 
64

>  <SMILES>  (67) 
C(/C=C\c1ccccn1)=C/c1ccncc1

>  <Energy>  (67) 
41.353118002316144

>  <Genealogy>  (67) 
C(/C=C\c1ccccn1)=C/c1ccncc1 (cis-trans isomerization)
C(/C=C\c1ccccn1)=C/c1ccncc1 (3D coordinates assigned)
C(/C=C\c1ccccn1)=C/c1ccncc1 (optimized conformer: 41.353118002316144 kcal/mol)

>  <smiles>  (67) 
C(C=Cc1ccccn1)=Cc1ccncc1

>  <score_type>  (67) 
oracle

>  <origin>  (67) 
adg

>  <m_score__min__energy>  (67) 
-6.7999999999999998

>  <m_primary>  (67) 
energy

$$$$
67:0
     RDKit          3D

 50 52  0  0  1  0  0  0  0  0999 V2000
   55.4920   29.7100   43.7600 C   0  0  0  0  0  0  0  0  0  0  0  0
   56.6920   30.3000   44.4410 C   0  0  0  0  0  0  0  0  0  0  0  0
   56.8070   31.5870   44.6940 O   0  0  0  0  0  0  0  0  0  0  0  0
   57.9710   31.7680   45.2940 C   0  0  0  0  0  0  0  0  0  0  0  0
   58.5510   33.0310   45.7730 C   0  0  0  0  0  0  0  0  0  0  0  0
   58.9020   34.0250   44.8790 C   0  0  0  0  0  0  0  0  0  0  0  0
   59.4360   35.1860   45.3900 C   0  0  0  0  0  0  0  0  0  0  0  0
   59.6400   35.4160   46.7270 C   0  0  0  0  0  0  0  0  0  0  0  0
   59.2870   34.4150   47.6290 C   0  0  0  0  0  0  0  0  0  0  0  0
   58.7520   33.2530   47.1130 C   0  0  0  0  0  0  0  0  0  0  0  0
   58.4120   32.2890   48.0000 F   0  0  0  0  0  0  0  0  0  0  0  0
   58.6050   30.5660   45.4230 N   0  0  0  0  0  0  0  0  0  0  0  0
   57.8100   29.6280   44.8880 C   0  0  0  0  0  0  0  0  0  0  0  0
   58.0720   28.1350   44.8020 C   0  0  0  0  0  0  0  0  0  0  0  0
   57.0770   27.5350   45.6290 N   0  0  0  0  0  0  0  0  0  0  0  0
   56.7360   26.3130   45.4670 C   0  0  0  0  0  0  0  0  0  0  0  0
   57.5220   25.5900   44.5560 C   0  0  0  0  0  0  0  0  0  0  0  0
   57.2770   24.2620   44.2890 C   0  0  0  0  0  0  0  0  0  0  0  0
   56.2300   23.7090   44.9650 N   0  0  0  0  0  0  0  0  0  0  0  0
   55.4850   24.4110   45.8350 C   0  0  0  0  0  0  0  0  0  0  0  0
   54.5200   23.8400   46.4700 N   0  0  0  0  0  0  0  0  0  0  0  0
   54.7480   22.9900   47.6170 C   0  0  0  0  0  0  0  0  0  0  0  0
   56.0340   22.2160   47.4770 C   0  0  0  0  0  0  0  0  0  0  0  0
   56.0810   21.3110   46.3800 N   0  0  0  0  0  0  0  0  0  0  0  0
   57.4000   20.8800   46.0430 C   0  0  0  0  0  0  0  0  0  0  0  0
   55.1040   20.2760   46.4080 C   0  0  0  0  0  0  0  0  0  0  0  0
   55.7180   25.7110   46.1000 N   0  0  0  0  0  0  0  0  0  0  0  0
   54.7764   29.3582   44.5178 H   0  0  0  0  0  0  0  0  0  0  0  0
   55.0137   30.4757   43.1315 H   0  0  0  0  0  0  0  0  0  0  0  0
   55.8062   28.8637   43.1315 H   0  0  0  0  0  0  0  0  0  0  0  0
   58.7594   33.8927   43.7963 H   0  0  0  0  0  0  0  0  0  0  0  0
   59.7169   35.9794   44.6818 H   0  0  0  0  0  0  0  0  0  0  0  0
   60.0708   36.3656   47.0773 H   0  0  0  0  0  0  0  0  0  0  0  0
   59.4295   34.5462   48.7118 H   0  0  0  0  0  0  0  0  0  0  0  0
   57.9738   27.7849   43.7638 H   0  0  0  0  0  0  0  0  0  0  0  0
   59.0901   27.8757   45.1280 H   0  0  0  0  0  0  0  0  0  0  0  0
   58.3531   26.0965   44.0435 H   0  0  0  0  0  0  0  0  0  0  0  0
   57.8857   23.6850   43.5773 H   0  0  0  0  0  0  0  0  0  0  0  0
   56.0590   22.6990   44.7410 H   0  0  0  0  0  0  0  0  0  0  0  0
   54.8020   23.6145   48.5209 H   0  0  0  0  0  0  0  0  0  0  0  0
   53.9169   22.2730   47.6890 H   0  0  0  0  0  0  0  0  0  0  0  0
   56.8546   22.9387   47.3572 H   0  0  0  0  0  0  0  0  0  0  0  0
   56.1194   21.6000   48.3843 H   0  0  0  0  0  0  0  0  0  0  0  0
   57.9713   20.6933   46.9643 H   0  0  0  0  0  0  0  0  0  0  0  0
   57.3434   19.9536   45.4526 H   0  0  0  0  0  0  0  0  0  0  0  0
   57.9013   21.6611   45.4526 H   0  0  0  0  0  0  0  0  0  0  0  0
   54.8664   20.0243   47.4521 H   0  0  0  0  0  0  0  0  0  0  0  0
   54.1922   20.6185   45.8968 H   0  0  0  0  0  0  0  0  0  0  0  0
   55.4985   19.3855   45.8968 H   0  0  0  0  0  0  0  0  0  0  0  0
   55.1490   26.2710   46.7660 H   0  0  0  0  0  0  0  0  0  0  0  0
  1  2  1  0
  2  3  1  0
  3  4  1  0
  4  5  1  0
  5  6  2  0
  6  7  1  0
  7  8  2  0
  8  9  1  0
  9 10  2  0
 10 11  1  0
  4 12  2  0
 12 13  1  0
 13 14  1  0
 14 15  1  0
 15 16  2  0
 16 17  1  0
 17 18  2  0
 18 19  1  0
 19 20  1  0
 20 21  2  0
 21 22  1  0
 22 23  1  0
 23 24  1  0
 24 25  1  0
 24 26  1  0
 20 27  1  0
 13  2  2  0
 27 16  1  0
 10  5  1  0
  1 28  1  0
  1 29  1  0
  1 30  1  0
  6 31  1  0
  7 32  1  0
  8 33  1  0
  9 34  1  0
 14 35  1  0
 14 36  1  0
 17 37  1  0
 18 38  1  0
 19 39  1  0
 22 40  1  0
 22 41  1  0
 23 42  1  0
 23 43  1  0
 25 44  1  0
 25 45  1  0
 25 46  1  0
 26 47  1  0
 26 48  1  0
 26 49  1  0
 27 50  1  0
M  END
>  <smiles>  (68) 
Cc1oc(-c2ccccc2F)nc1CN=c1cc[nH]c(=NCCN(C)C)[nH]1

>  <score_type>  (68) 
oracle

>  <origin>  (68) 
adg

>  <m_score__min__energy>  (68) 
-8.1099999999999994

>  <m_primary>  (68) 
energy

$$$$
68:0
     RDKit          3D

 25 26  0  0  0  0  0  0  0  0999 V2000
   55.7920   29.0120   44.9810 O   0  0  0  0  0  0  0  0  0  0  0  0
   56.8870   28.5680   45.4240 C   0  0  0  0  0  0  0  0  0  0  0  0
   58.0260   29.4450   45.5300 N   0  0  0  0  0  0  0  0  0  0  0  0
   58.0390   30.8010   45.0500 C   0  0  0  0  0  0  0  0  0  0  0  0
   57.7510   31.1070   43.7070 C   0  0  0  0  0  0  0  0  0  0  0  0
   57.7990   32.4310   43.2610 C   0  0  0  0  0  0  0  0  0  0  0  0
   58.1460   33.4570   44.1430 C   0  0  0  0  0  0  0  0  0  0  0  0
   58.4570   33.1590   45.4740 C   0  0  0  0  0  0  0  0  0  0  0  0
   58.9090   34.4460   46.5780 Cl  0  0  0  0  0  0  0  0  0  0  0  0
   58.4120   31.8350   45.9230 C   0  0  0  0  0  0  0  0  0  0  0  0
   56.9680   27.1460   45.8360 C   0  0  0  0  0  0  0  0  0  0  0  0
   58.2230   26.5470   46.0410 C   0  0  0  0  0  0  0  0  0  0  0  0
   58.3090   25.2070   46.4270 C   0  0  0  0  0  0  0  0  0  0  0  0
   57.1380   24.4690   46.5940 C   0  0  0  0  0  0  0  0  0  0  0  0
   55.9300   25.0500   46.3760 N   0  0  0  0  0  0  0  0  0  0  0  0
   55.8170   26.3540   46.0050 C   0  0  0  0  0  0  0  0  0  0  0  0
   58.8810   29.1130   46.0250 H   0  0  0  0  0  0  0  0  0  0  0  0
   57.4872   30.3016   43.0057 H   0  0  0  0  0  0  0  0  0  0  0  0
   57.5628   32.6655   42.2126 H   0  0  0  0  0  0  0  0  0  0  0  0
   58.1747   34.4988   43.7912 H   0  0  0  0  0  0  0  0  0  0  0  0
   58.6705   31.6027   46.9666 H   0  0  0  0  0  0  0  0  0  0  0  0
   59.1410   27.1356   45.8969 H   0  0  0  0  0  0  0  0  0  0  0  0
   59.2900   24.7393   46.5973 H   0  0  0  0  0  0  0  0  0  0  0  0
   57.1926   23.4146   46.9028 H   0  0  0  0  0  0  0  0  0  0  0  0
   54.8218   26.7912   45.8364 H   0  0  0  0  0  0  0  0  0  0  0  0
  1  2  2  0
  2  3  1  0
  3  4  1  0
  4  5  2  0
  5  6  1  0
  6  7  2  0
  7  8  1  0
  8  9  1  0
  8 10  2  0
  2 11  1  0
 11 12  2  0
 12 13  1  0
 13 14  2  0
 14 15  1  0
 15 16  2  0
 10  4  1  0
 16 11  1  0
  3 17  1  0
  5 18  1  0
  6 19  1  0
  7 20  1  0
 10 21  1  0
 12 22  1  0
 13 23  1  0
 14 24  1  0
 16 25  1  0
M  END
>  <UniqueID>  (69) 
65

>  <SMILES>  (69) 
O=C(Nc1cccc(Cl)c1)c1cccnc1

>  <Energy>  (69) 
33.49265275547098

>  <Genealogy>  (69) 
O=C(Nc1cccc(Cl)c1)c1cccnc1 (3D coordinates assigned)
O=C(Nc1cccc(Cl)c1)c1cccnc1 (optimized conformer: 33.49265275547098 kcal/mol)

>  <smiles>  (69) 
O=C(Nc1cccc(Cl)c1)c1cccnc1

>  <score_type>  (69) 
oracle

>  <origin>  (69) 
adg

>  <m_score__min__energy>  (69) 
-6.1299999999999999

>  <m_primary>  (69) 
energy

$$$$
69:0
     RDKit          3D

 35 37  0  0  1  0  0  0  0  0999 V2000
   59.8040   34.0950   48.0030 C   0  0  0  0  0  0  0  0  0  0  0  0
   58.7980   33.1480   47.9850 C   0  0  0  0  0  0  0  0  0  0  0  0
   58.0340   33.0250   46.8330 C   0  0  0  0  0  0  0  0  0  0  0  0
   58.2600   33.8250   45.7150 C   0  0  0  0  0  0  0  0  0  0  0  0
   57.3910   33.6360   44.4990 C   0  0  0  0  0  0  0  0  0  0  0  0
   58.1200   32.7510   43.6400 N   0  0  0  0  0  0  0  0  0  0  0  0
   57.7770   31.5070   43.5960 C   0  0  0  0  0  0  0  0  0  0  0  0
   58.3160   30.5610   44.4760 C   0  0  0  0  0  0  0  0  0  0  0  0
   57.9380   29.2270   44.4170 C   0  0  0  0  0  0  0  0  0  0  0  0
   58.4990   28.2560   45.3300 C   0  0  0  0  0  0  0  0  0  0  0  0
   59.8580   28.0670   45.4800 C   0  0  0  0  0  0  0  0  0  0  0  0
   60.3810   27.1210   46.3690 C   0  0  0  0  0  0  0  0  0  0  0  0
   59.5650   26.3400   47.1300 C   0  0  0  0  0  0  0  0  0  0  0  0
   58.2020   26.5110   46.9940 C   0  0  0  0  0  0  0  0  0  0  0  0
   57.6800   27.4560   46.1060 C   0  0  0  0  0  0  0  0  0  0  0  0
   57.0330   28.9210   43.4690 N   0  0  0  0  0  0  0  0  0  0  0  0
   56.5280   29.8470   42.6340 C   0  0  0  0  0  0  0  0  0  0  0  0
   56.8740   31.1450   42.6670 N   0  0  0  0  0  0  0  0  0  0  0  0
   59.2700   34.7740   45.7380 C   0  0  0  0  0  0  0  0  0  0  0  0
   60.0240   34.8870   46.8920 C   0  0  0  0  0  0  0  0  0  0  0  0
   60.4287   34.2183   48.9000 H   0  0  0  0  0  0  0  0  0  0  0  0
   58.6079   32.5090   48.8599 H   0  0  0  0  0  0  0  0  0  0  0  0
   57.2288   32.2762   46.8018 H   0  0  0  0  0  0  0  0  0  0  0  0
   56.4265   33.1891   44.7817 H   0  0  0  0  0  0  0  0  0  0  0  0
   57.1686   34.5929   44.0042 H   0  0  0  0  0  0  0  0  0  0  0  0
   59.0525   30.8809   45.2279 H   0  0  0  0  0  0  0  0  0  0  0  0
   60.5508   28.6782   44.8829 H   0  0  0  0  0  0  0  0  0  0  0  0
   61.4716   27.0061   46.4547 H   0  0  0  0  0  0  0  0  0  0  0  0
   59.9781   25.5981   47.8293 H   0  0  0  0  0  0  0  0  0  0  0  0
   57.5162   25.8943   47.5935 H   0  0  0  0  0  0  0  0  0  0  0  0
   56.5888   27.5663   46.0222 H   0  0  0  0  0  0  0  0  0  0  0  0
   56.6850   27.9480   43.3440 H   0  0  0  0  0  0  0  0  0  0  0  0
   55.7917   29.5240   41.8833 H   0  0  0  0  0  0  0  0  0  0  0  0
   59.4655   35.4164   44.8667 H   0  0  0  0  0  0  0  0  0  0  0  0
   60.8292   35.6356   46.9268 H   0  0  0  0  0  0  0  0  0  0  0  0
  1  2  2  0
  2  3  1  0
  3  4  2  0
  4  5  1  0
  5  6  1  0
  6  7  2  0
  7  8  1  0
  8  9  2  0
  9 10  1  0
 10 11  2  0
 11 12  1  0
 12 13  2  0
 13 14  1  0
 14 15  2  0
  9 16  1  0
 16 17  1  0
 17 18  2  0
  4 19  1  0
 19 20  2  0
 20  1  1  0
 18  7  1  0
 15 10  1  0
  1 21  1  0
  2 22  1  0
  3 23  1  0
  5 24  1  0
  5 25  1  0
  8 26  1  0
 11 27  1  0
 12 28  1  0
 13 29  1  0
 14 30  1  0
 15 31  1  0
 16 32  1  0
 17 33  1  0
 19 34  1  0
 20 35  1  0
M  END
>  <smiles>  (70) 
c1ccc(CN=c2cc(-c3ccccc3)[nH]cn2)cc1

>  <score_type>  (70) 
oracle

>  <origin>  (70) 
adg

>  <m_score__min__energy>  (70) 
-7.54

>  <m_primary>  (70) 
energy

$$$$
70:0
     RDKit          3D

 54 56  0  0  0  0  0  0  0  0999 V2000
   63.7520   33.0020   46.9600 C   0  0  0  0  0  0  0  0  0  0  0  0
   62.2310   32.8850   47.1100 C   0  0  2  0  0  0  0  0  0  0  0  0
   61.7140   33.8110   48.2220 C   0  0  0  0  0  0  0  0  0  0  0  0
   60.1700   33.7500   48.3170 C   0  0  2  0  0  0  0  0  0  0  0  0
   59.7050   34.2110   49.7040 C   0  0  0  0  0  0  0  0  0  0  0  0
   59.6300   32.3370   47.9830 C   0  0  0  0  0  0  0  0  0  0  0  0
   60.6460   31.3190   48.2920 N   0  0  0  0  0  0  0  0  0  0  0  0
   59.9490   29.7190   48.2260 S   0  0  0  0  0  0  0  0  0  0  0  0
   59.0740   29.5080   49.4290 O   0  0  0  0  0  0  0  0  0  0  0  0
   61.0470   28.6910   48.2630 O   0  0  0  0  0  0  0  0  0  0  0  0
   58.9860   29.4910   46.7640 C   0  0  0  0  0  0  0  0  0  0  0  0
   59.3750   30.1010   45.5640 C   0  0  0  0  0  0  0  0  0  0  0  0
   58.6300   29.8960   44.4000 C   0  0  0  0  0  0  0  0  0  0  0  0
   57.4870   29.0930   44.4300 C   0  0  0  0  0  0  0  0  0  0  0  0
   57.0700   28.5030   45.6300 C   0  0  0  0  0  0  0  0  0  0  0  0
   55.9070   27.6620   45.6210 N   0  0  0  0  0  0  0  0  0  0  0  0
   55.8510   26.2780   45.9910 C   0  0  0  0  0  0  0  0  0  0  0  0
   54.7350   25.6950   45.9790 O   0  0  0  0  0  0  0  0  0  0  0  0
   57.0810   25.5230   46.4250 C   0  0  0  0  0  0  0  0  0  0  0  0
   57.8410   25.0510   45.2650 N   0  0  0  0  0  0  0  0  0  0  0  0
   57.5470   23.8480   44.5230 C   0  0  0  0  0  0  0  0  0  0  0  0
   56.4990   23.7910   43.5810 C   0  0  0  0  0  0  0  0  0  0  0  0
   56.2410   22.6100   42.8780 C   0  0  0  0  0  0  0  0  0  0  0  0
   57.0200   21.4750   43.1020 C   0  0  0  0  0  0  0  0  0  0  0  0
   58.0600   21.5160   44.0320 C   0  0  0  0  0  0  0  0  0  0  0  0
   58.3250   22.6930   44.7420 C   0  0  0  0  0  0  0  0  0  0  0  0
   59.3420   22.7050   45.6390 F   0  0  0  0  0  0  0  0  0  0  0  0
   57.8380   28.6850   46.7920 C   0  0  0  0  0  0  0  0  0  0  0  0
   61.8000   31.4140   47.3700 C   0  0  0  0  0  0  0  0  0  0  0  0
   64.2170   33.0378   47.9562 H   0  0  0  0  0  0  0  0  0  0  0  0
   64.1341   32.1306   46.4081 H   0  0  0  0  0  0  0  0  0  0  0  0
   63.9964   33.9216   46.4081 H   0  0  0  0  0  0  0  0  0  0  0  0
   61.7776   33.2050   46.1603 H   0  0  0  0  0  0  0  0  0  0  0  0
   62.1468   33.4965   49.1831 H   0  0  0  0  0  0  0  0  0  0  0  0
   62.0115   34.8435   47.9867 H   0  0  0  0  0  0  0  0  0  0  0  0
   59.7553   34.4366   47.5642 H   0  0  0  0  0  0  0  0  0  0  0  0
   60.2598   33.6609   50.4783 H   0  0  0  0  0  0  0  0  0  0  0  0
   59.8932   35.2892   49.8142 H   0  0  0  0  0  0  0  0  0  0  0  0
   58.6285   34.0135   49.8142 H   0  0  0  0  0  0  0  0  0  0  0  0
   58.7271   32.1424   48.5805 H   0  0  0  0  0  0  0  0  0  0  0  0
   59.3883   32.2892   46.9110 H   0  0  0  0  0  0  0  0  0  0  0  0
   60.2684   30.7423   45.5384 H   0  0  0  0  0  0  0  0  0  0  0  0
   58.9442   30.3681   43.4574 H   0  0  0  0  0  0  0  0  0  0  0  0
   56.9123   28.9235   43.5075 H   0  0  0  0  0  0  0  0  0  0  0  0
   57.7181   26.1879   47.0267 H   0  0  0  0  0  0  0  0  0  0  0  0
   56.7673   24.6513   47.0180 H   0  0  0  0  0  0  0  0  0  0  0  0
   58.6390   25.6490   44.9550 H   0  0  0  0  0  0  0  0  0  0  0  0
   55.8802   24.6818   43.3980 H   0  0  0  0  0  0  0  0  0  0  0  0
   55.4208   22.5761   42.1458 H   0  0  0  0  0  0  0  0  0  0  0  0
   56.8149   20.5482   42.5461 H   0  0  0  0  0  0  0  0  0  0  0  0
   58.6737   20.6201   44.2077 H   0  0  0  0  0  0  0  0  0  0  0  0
   57.5377   28.1930   47.7289 H   0  0  0  0  0  0  0  0  0  0  0  0
   62.6489   30.8695   47.8092 H   0  0  0  0  0  0  0  0  0  0  0  0
   61.4966   30.9780   46.4067 H   0  0  0  0  0  0  0  0  0  0  0  0
  1  2  1  0
  2  3  1  0
  3  4  1  0
  4  5  1  0
  4  6  1  0
  6  7  1  0
  7  8  1  0
  8  9  2  0
  8 10  2  0
  8 11  1  0
 11 12  2  0
 12 13  1  0
 13 14  2  0
 14 15  1  0
 15 16  1  0
 16 17  1  0
 17 18  2  0
 17 19  1  0
 19 20  1  0
 20 21  1  0
 21 22  2  0
 22 23  1  0
 23 24  2  0
 24 25  1  0
 25 26  2  0
 26 27  1  0
 15 28  2  0
  7 29  1  0
 29  2  1  0
 28 11  1  0
 26 21  1  0
  1 30  1  0
  1 31  1  0
  1 32  1  0
  2 33  1  6
  3 34  1  0
  3 35  1  0
  4 36  1  6
  5 37  1  0
  5 38  1  0
  5 39  1  0
  6 40  1  0
  6 41  1  0
 12 42  1  0
 13 43  1  0
 14 44  1  0
 19 45  1  0
 19 46  1  0
 20 47  1  0
 22 48  1  0
 23 49  1  0
 24 50  1  0
 25 51  1  0
 28 52  1  0
 29 53  1  0
 29 54  1  0
M  CHG  1  16  -1
M  END
>  <UniqueID>  (71) 
66

>  <SMILES>  (71) 
C[C@@H]1C[C@H](C)CN(S(=O)(=O)c2cccc([N-]C(=O)CNc3ccccc3F)c2)C1

>  <Energy>  (71) 
60.225223877612734

>  <Genealogy>  (71) 
CC1CC(C)CN(S(=O)(=O)c2cccc([N-]C(=O)CNc3ccccc3F)c2)C1 (protonated)
C[C@@H]1C[C@H](C)CN(S(=O)(=O)c2cccc([N-]C(=O)CNc3ccccc3F)c2)C1 (chirality)
C[C@@H]1C[C@H](C)CN(S(=O)(=O)c2cccc([N-]C(=O)CNc3ccccc3F)c2)C1 (3D coordinates assigned)
C[C@@H]1C[C@H](C)CN(S(=O)(=O)c2cccc([N-]C(=O)CNc3ccccc3F)c2)C1 (nonaromatic ring conformer: 60.225223877612734 kcal/mol)

>  <smiles>  (71) 
CC1CC(C)CN(S(=O)(=O)c2cccc(NC(=O)CNc3ccccc3F)c2)C1

>  <score_type>  (71) 
oracle

>  <origin>  (71) 
adg

>  <m_score__min__energy>  (71) 
-11.279999999999999

>  <m_primary>  (71) 
energy

$$$$
71:0
     RDKit          3D

 40 41  0  0  1  0  0  0  0  0999 V2000
   55.1420   29.1790   45.2110 O   0  0  0  0  0  0  0  0  0  0  0  0
   55.5750   30.2160   44.4220 N   0  0  0  0  0  0  0  0  0  0  0  0
   56.4830   29.9980   43.5290 C   0  0  0  0  0  0  0  0  0  0  0  0
   56.9730   28.6830   43.4650 O   0  0  0  0  0  0  0  0  0  0  0  0
   56.9950   31.0500   42.6140 C   0  0  0  0  0  0  0  0  0  0  0  0
   58.2460   31.7090   43.1890 C   0  0  0  0  0  0  0  0  0  0  0  0
   57.8350   32.5450   44.3540 C   0  0  0  0  0  0  0  0  0  0  0  0
   57.8810   31.7890   45.6650 C   0  0  0  0  0  0  0  0  0  0  0  0
   59.1640   31.0010   45.7040 C   0  0  0  0  0  0  0  0  0  0  0  0
   58.9010   29.5330   46.0320 C   0  0  0  0  0  0  0  0  0  0  0  0
   60.0140   28.7880   46.4920 C   0  0  0  0  0  0  0  0  0  0  0  0
   59.2140   27.0890   46.7560 S   0  0  0  0  0  0  0  0  0  0  0  0
   57.5450   27.6800   46.2070 C   0  0  0  0  0  0  0  0  0  0  0  0
   56.5220   26.9760   46.1540 N   0  0  0  0  0  0  0  0  0  0  0  0
   56.4790   25.7370   45.4010 C   0  0  0  0  0  0  0  0  0  0  0  0
   55.4610   24.8340   45.6280 C   0  0  0  0  0  0  0  0  0  0  0  0
   55.3570   23.6380   44.9500 C   0  0  0  0  0  0  0  0  0  0  0  0
   56.3220   23.3530   44.0110 C   0  0  0  0  0  0  0  0  0  0  0  0
   56.2800   22.1900   43.3050 F   0  0  0  0  0  0  0  0  0  0  0  0
   57.3370   24.2560   43.7880 C   0  0  0  0  0  0  0  0  0  0  0  0
   57.4500   25.4540   44.4600 C   0  0  0  0  0  0  0  0  0  0  0  0
   57.7570   28.9800   45.9110 N   0  0  0  0  0  0  0  0  0  0  0  0
   55.1390   28.2030   44.9310 H   0  0  0  0  0  0  0  0  0  0  0  0
   56.6040   27.9930   44.1060 H   0  0  0  0  0  0  0  0  0  0  0  0
   57.2413   30.5947   41.6434 H   0  0  0  0  0  0  0  0  0  0  0  0
   56.2174   31.8183   42.4911 H   0  0  0  0  0  0  0  0  0  0  0  0
   58.9573   30.9366   43.5167 H   0  0  0  0  0  0  0  0  0  0  0  0
   58.7337   32.3327   42.4253 H   0  0  0  0  0  0  0  0  0  0  0  0
   58.5123   33.4090   44.4228 H   0  0  0  0  0  0  0  0  0  0  0  0
   56.7929   32.8552   44.1874 H   0  0  0  0  0  0  0  0  0  0  0  0
   57.8527   32.4978   46.5057 H   0  0  0  0  0  0  0  0  0  0  0  0
   57.0160   31.1145   45.7473 H   0  0  0  0  0  0  0  0  0  0  0  0
   59.6554   31.0667   44.7220 H   0  0  0  0  0  0  0  0  0  0  0  0
   59.8082   31.4232   46.4893 H   0  0  0  0  0  0  0  0  0  0  0  0
   61.0546   29.1066   46.6519 H   0  0  0  0  0  0  0  0  0  0  0  0
   54.6992   25.0789   46.3827 H   0  0  0  0  0  0  0  0  0  0  0  0
   54.5333   22.9375   45.1521 H   0  0  0  0  0  0  0  0  0  0  0  0
   58.0981   24.0082   43.0335 H   0  0  0  0  0  0  0  0  0  0  0  0
   58.2751   26.1524   44.2565 H   0  0  0  0  0  0  0  0  0  0  0  0
   56.8820   29.5310   45.5580 H   0  0  0  0  0  0  0  0  0  0  0  0
  1  2  1  0
  2  3  2  0
  3  4  1  0
  3  5  1  0
  5  6  1  0
  6  7  1  0
  7  8  1  0
  8  9  1  0
  9 10  1  0
 10 11  2  0
 11 12  1  0
 12 13  1  0
 13 14  2  0
 14 15  1  0
 15 16  2  0
 16 17  1  0
 17 18  2  0
 18 19  1  0
 18 20  1  0
 20 21  2  0
 13 22  1  0
 22 10  1  0
 21 15  1  0
  1 23  1  0
  4 24  1  0
  5 25  1  0
  5 26  1  0
  6 27  1  0
  6 28  1  0
  7 29  1  0
  7 30  1  0
  8 31  1  0
  8 32  1  0
  9 33  1  0
  9 34  1  0
 11 35  1  0
 16 36  1  0
 17 37  1  0
 20 38  1  0
 21 39  1  0
 22 40  1  0
M  END
>  <smiles>  (72) 
ON=C(O)CCCCCc1csc(=Nc2ccc(F)cc2)[nH]1

>  <score_type>  (72) 
oracle

>  <origin>  (72) 
adg

>  <m_score__min__energy>  (72) 
-8.6899999999999995

>  <m_primary>  (72) 
energy

$$$$
72:0
     RDKit          3D

 35 37  0  0  0  0  0  0  0  0999 V2000
   57.0230   31.5440   46.5820 H   0  0  0  0  0  0  0  0  0  0  0  0
   57.4000   32.4440   46.3120 O   0  0  0  0  0  0  0  0  0  0  0  0
   58.7480   32.7700   46.4670 C   0  0  0  0  0  0  0  0  0  0  0  0
   59.2350   33.9160   45.8340 C   0  0  0  0  0  0  0  0  0  0  0  0
   58.5580   34.5302   45.2220 H   0  0  0  0  0  0  0  0  0  0  0  0
   60.5710   34.2880   45.9710 C   0  0  0  0  0  0  0  0  0  0  0  0
   60.9341   35.2101   45.4937 H   0  0  0  0  0  0  0  0  0  0  0  0
   61.4530   33.4940   46.7130 C   0  0  0  0  0  0  0  0  0  0  0  0
   62.8060   33.8510   46.8150 C   0  0  0  0  0  0  0  0  0  0  0  0
   63.1654   34.7759   46.3403 H   0  0  0  0  0  0  0  0  0  0  0  0
   63.6980   33.0380   47.5160 C   0  0  0  0  0  0  0  0  0  0  0  0
   64.7554   33.3290   47.6014 H   0  0  0  0  0  0  0  0  0  0  0  0
   63.2510   31.8580   48.1080 C   0  0  0  0  0  0  0  0  0  0  0  0
   63.9599   31.2141   48.6492 H   0  0  0  0  0  0  0  0  0  0  0  0
   61.9050   31.4890   48.0170 C   0  0  0  0  0  0  0  0  0  0  0  0
   61.5655   30.5465   48.4714 H   0  0  0  0  0  0  0  0  0  0  0  0
   60.9810   32.3150   47.3480 C   0  0  0  0  0  0  0  0  0  0  0  0
   59.6040   31.9850   47.2650 C   0  0  0  0  0  0  0  0  0  0  0  0
   59.0570   30.8510   47.9640 N   0  0  0  0  0  0  0  0  0  0  0  0
   58.2240   30.0160   47.4680 N   0  0  0  0  0  0  0  0  0  0  0  0
   58.4750   29.1810   46.3250 C   0  0  0  0  0  0  0  0  0  0  0  0
   59.6380   28.4000   46.3060 C   0  0  0  0  0  0  0  0  0  0  0  0
   60.3448   28.4523   47.1472 H   0  0  0  0  0  0  0  0  0  0  0  0
   59.9060   27.5560   45.2270 C   0  0  0  0  0  0  0  0  0  0  0  0
   60.8119   26.9320   45.2285 H   0  0  0  0  0  0  0  0  0  0  0  0
   59.0250   27.5040   44.1470 C   0  0  0  0  0  0  0  0  0  0  0  0
   59.2291   26.8265   43.3048 H   0  0  0  0  0  0  0  0  0  0  0  0
   57.8840   28.3100   44.1320 C   0  0  0  0  0  0  0  0  0  0  0  0
   57.1979   28.2719   43.2730 H   0  0  0  0  0  0  0  0  0  0  0  0
   57.6080   29.1720   45.2130 C   0  0  0  0  0  0  0  0  0  0  0  0
   56.5070   30.0420   45.2020 O   0  0  0  0  0  0  0  0  0  0  0  0
   55.8210   30.4620   44.0270 C   0  0  0  0  0  0  0  0  0  0  0  0
   54.9145   31.0170   44.3103 H   0  0  0  0  0  0  0  0  0  0  0  0
   56.4782   31.1127   43.4315 H   0  0  0  0  0  0  0  0  0  0  0  0
   55.5403   29.5807   43.4315 H   0  0  0  0  0  0  0  0  0  0  0  0
  1  2  1  0
  2  3  1  0
  3  4  2  0
  4  5  1  0
  4  6  1  0
  6  7  1  0
  6  8  2  0
  8  9  1  0
  9 10  1  0
  9 11  2  0
 11 12  1  0
 11 13  1  0
 13 14  1  0
 13 15  2  0
 15 16  1  0
 15 17  1  0
 17 18  2  0
 18 19  1  0
 19 20  2  0
 20 21  1  0
 21 22  2  0
 22 23  1  0
 22 24  1  0
 24 25  1  0
 24 26  2  0
 26 27  1  0
 26 28  1  0
 28 29  1  0
 28 30  2  0
 30 31  1  0
 31 32  1  0
 32 33  1  0
 32 34  1  0
 32 35  1  0
 18  3  1  0
 30 21  1  0
 17  8  1  0
M  END
>  <UniqueID>  (73) 
67

>  <SMILES>  (73) 
COc1ccccc1/N=N\c1c(O)ccc2ccccc12

>  <Energy>  (73) 
56.31404818113245

>  <Genealogy>  (73) 
COc1ccccc1/N=N\c1c(O)ccc2ccccc12 (cis-trans isomerization)
COc1ccccc1/N=N\c1c(O)ccc2ccccc12 (3D coordinates assigned)
COc1ccccc1/N=N\c1c(O)ccc2ccccc12 (optimized conformer: 56.31404818113245 kcal/mol)

>  <smiles>  (73) 
COc1ccccc1N=Nc1c(O)ccc2ccccc12

>  <score_type>  (73) 
oracle

>  <origin>  (73) 
adg

>  <m_score__min__energy>  (73) 
-8.4199999999999999

>  <m_primary>  (73) 
energy

$$$$
73:0
     RDKit          3D

 19 20  0  0  0  0  0  0  0  0999 V2000
   58.4290   33.0090   43.5030 F   0  0  0  0  0  0  0  0  0  0  0  0
   58.6580   33.2490   44.8190 C   0  0  0  0  0  0  0  0  0  0  0  0
   58.7230   34.5720   45.2720 C   0  0  0  0  0  0  0  0  0  0  0  0
   58.9430   34.8410   46.6250 C   0  0  0  0  0  0  0  0  0  0  0  0
   59.0960   33.7880   47.5300 C   0  0  0  0  0  0  0  0  0  0  0  0
   59.0340   32.4650   47.0850 C   0  0  0  0  0  0  0  0  0  0  0  0
   58.8260   32.1830   45.7240 C   0  0  0  0  0  0  0  0  0  0  0  0
   58.7250   30.7560   45.2580 C   0  0  0  0  0  0  0  0  0  0  0  0
   57.2940   30.3880   45.0350 C   0  0  0  0  0  0  0  0  0  0  0  0
   56.3720   31.2160   44.5140 N   0  0  0  0  0  0  0  0  0  0  0  0
   55.2730   30.4830   44.4330 N   0  0  0  0  0  0  0  0  0  0  0  0
   55.5180   29.2600   44.8750 N   0  0  0  0  0  0  0  0  0  0  0  0
   56.7820   29.1650   45.2560 N   0  0  0  0  0  0  0  0  0  0  0  0
   58.6005   35.4020   44.5606 H   0  0  0  0  0  0  0  0  0  0  0  0
   58.9957   35.8816   46.9776 H   0  0  0  0  0  0  0  0  0  0  0  0
   59.2657   34.0009   48.5958 H   0  0  0  0  0  0  0  0  0  0  0  0
   59.1486   31.6400   47.8035 H   0  0  0  0  0  0  0  0  0  0  0  0
   59.2812   30.6408   44.3160 H   0  0  0  0  0  0  0  0  0  0  0  0
   59.1506   30.0953   46.0276 H   0  0  0  0  0  0  0  0  0  0  0  0
  1  2  1  0
  2  3  2  0
  3  4  1  0
  4  5  2  0
  5  6  1  0
  6  7  2  0
  7  8  1  0
  8  9  1  0
  9 10  1  0
 10 11  2  0
 11 12  1  0
 12 13  1  0
  7  2  1  0
 13  9  2  0
  3 14  1  0
  4 15  1  0
  5 16  1  0
  6 17  1  0
  8 18  1  0
  8 19  1  0
M  CHG  1  12  -1
M  END
>  <UniqueID>  (74) 
68

>  <SMILES>  (74) 
Fc1ccccc1Cc1nn[n-]n1

>  <Energy>  (74) 
56.24654365875727

>  <Genealogy>  (74) 
Fc1ccccc1Cc1nn[n-]n1 (protonated)
Fc1ccccc1Cc1nn[n-]n1 (3D coordinates assigned)
Fc1ccccc1Cc1nn[n-]n1 (optimized conformer: 56.24654365875727 kcal/mol)

>  <smiles>  (74) 
Fc1ccccc1Cc1nn[nH]n1

>  <score_type>  (74) 
oracle

>  <origin>  (74) 
adg

>  <m_score__min__energy>  (74) 
-7.6299999999999999

>  <m_primary>  (74) 
energy

$$$$
74:0
     RDKit          3D

 47 50  0  0  0  0  0  0  0  0999 V2000
   57.4570   32.1080   44.0930 C   0  0  0  0  0  0  0  0  0  0  0  0
   57.3700   31.2800   45.2480 O   0  0  0  0  0  0  0  0  0  0  0  0
   58.3820   30.4070   45.6820 C   0  0  0  0  0  0  0  0  0  0  0  0
   58.6590   29.2030   45.0070 C   0  0  0  0  0  0  0  0  0  0  0  0
   59.6410   28.3380   45.4830 C   0  0  0  0  0  0  0  0  0  0  0  0
   60.3740   28.6650   46.6220 C   0  0  0  0  0  0  0  0  0  0  0  0
   60.1330   29.8720   47.3020 C   0  0  0  0  0  0  0  0  0  0  0  0
   60.8930   30.2520   48.4210 O   0  0  0  0  0  0  0  0  0  0  0  0
   60.5910   29.8930   49.7650 C   0  0  0  0  0  0  0  0  0  0  0  0
   59.1220   30.7380   46.8360 C   0  0  0  0  0  0  0  0  0  0  0  0
   58.8430   32.0010   47.5480 C   0  0  0  0  0  0  0  0  0  0  0  0
   58.1980   31.9780   48.6300 O   0  0  0  0  0  0  0  0  0  0  0  0
   59.3100   33.2550   47.0390 N   0  0  0  0  0  0  0  0  0  0  0  0
   58.9210   34.6690   47.1850 C   0  0  0  0  0  0  0  0  0  0  0  0
   60.0040   35.2270   46.3210 C   0  0  0  0  0  0  0  0  0  0  0  0
   60.3940   33.7850   46.1840 C   0  0  1  0  0  0  0  0  0  0  0  0
   61.7530   33.4690   46.7520 C   0  0  0  0  0  0  0  0  0  0  0  0
   61.9610   33.0480   48.0170 N   0  0  0  0  0  0  0  0  0  0  0  0
   63.2990   32.8690   48.0370 C   0  0  0  0  0  0  0  0  0  0  0  0
   64.0440   32.4010   49.2290 C   0  0  0  0  0  0  0  0  0  0  0  0
   63.5030   31.4350   50.0980 C   0  0  0  0  0  0  0  0  0  0  0  0
   64.2310   31.0000   51.2100 C   0  0  0  0  0  0  0  0  0  0  0  0
   65.5010   31.5200   51.4680 C   0  0  0  0  0  0  0  0  0  0  0  0
   66.0490   32.4790   50.6110 C   0  0  0  0  0  0  0  0  0  0  0  0
   67.6440   33.1360   50.9310 Cl  0  0  0  0  0  0  0  0  0  0  0  0
   65.3240   32.9180   49.4990 C   0  0  0  0  0  0  0  0  0  0  0  0
   63.8510   33.1560   46.8410 N   0  0  0  0  0  0  0  0  0  0  0  0
   62.8730   33.5160   46.0690 O   0  0  0  0  0  0  0  0  0  0  0  0
   57.5673   33.1579   44.4020 H   0  0  0  0  0  0  0  0  0  0  0  0
   58.3287   31.8090   43.4923 H   0  0  0  0  0  0  0  0  0  0  0  0
   56.5422   31.9967   43.4923 H   0  0  0  0  0  0  0  0  0  0  0  0
   58.0963   28.9440   44.0980 H   0  0  0  0  0  0  0  0  0  0  0  0
   59.8390   27.3922   44.9574 H   0  0  0  0  0  0  0  0  0  0  0  0
   61.1463   27.9744   46.9917 H   0  0  0  0  0  0  0  0  0  0  0  0
   61.1435   30.5498   50.4530 H   0  0  0  0  0  0  0  0  0  0  0  0
   59.5108   30.0041   49.9403 H   0  0  0  0  0  0  0  0  0  0  0  0
   60.8853   28.8477   49.9403 H   0  0  0  0  0  0  0  0  0  0  0  0
   57.9153   34.8748   46.7897 H   0  0  0  0  0  0  0  0  0  0  0  0
   58.8471   35.0630   48.2094 H   0  0  0  0  0  0  0  0  0  0  0  0
   59.6678   35.7179   45.3958 H   0  0  0  0  0  0  0  0  0  0  0  0
   60.6942   36.0227   46.6379 H   0  0  0  0  0  0  0  0  0  0  0  0
   60.4831   33.3994   45.1576 H   0  0  0  0  0  0  0  0  0  0  0  0
   62.5032   31.0204   49.9016 H   0  0  0  0  0  0  0  0  0  0  0  0
   63.8012   30.2448   51.8845 H   0  0  0  0  0  0  0  0  0  0  0  0
   66.0695   31.1755   52.3444 H   0  0  0  0  0  0  0  0  0  0  0  0
   65.7586   33.6746   48.8292 H   0  0  0  0  0  0  0  0  0  0  0  0
   64.8500   33.0920   46.5480 H   0  0  0  0  0  0  0  0  0  0  0  0
  1  2  1  0
  2  3  1  0
  3  4  2  0
  4  5  1  0
  5  6  2  0
  6  7  1  0
  7  8  1  0
  8  9  1  0
  7 10  2  0
 10 11  1  0
 11 12  2  0
 11 13  1  0
 13 14  1  0
 14 15  1  0
 15 16  1  0
 16 17  1  0
 17 18  2  0
 18 19  1  0
 19 20  1  0
 20 21  2  0
 21 22  1  0
 22 23  2  0
 23 24  1  0
 24 25  1  0
 24 26  2  0
 19 27  2  0
 27 28  1  0
 10  3  1  0
 16 13  1  0
 28 17  1  0
 26 20  1  0
  1 29  1  0
  1 30  1  0
  1 31  1  0
  4 32  1  0
  5 33  1  0
  6 34  1  0
  9 35  1  0
  9 36  1  0
  9 37  1  0
 14 38  1  0
 14 39  1  0
 15 40  1  0
 15 41  1  0
 16 42  1  6
 21 43  1  0
 22 44  1  0
 23 45  1  0
 26 46  1  0
 27 47  1  0
M  CHG  1  27   1
M  END
>  <UniqueID>  (75) 
69

>  <SMILES>  (75) 
COc1cccc(OC)c1C(=O)N1CC[C@H]1c1nc(-c2cccc(Cl)c2)[nH+]o1

>  <Energy>  (75) 
130.9136294278865

>  <Genealogy>  (75) 
COc1cccc(OC)c1C(=O)N1CCC1c1nc(-c2cccc(Cl)c2)[nH+]o1 (protonated)
COc1cccc(OC)c1C(=O)N1CC[C@H]1c1nc(-c2cccc(Cl)c2)[nH+]o1 (chirality)
COc1cccc(OC)c1C(=O)N1CC[C@H]1c1nc(-c2cccc(Cl)c2)[nH+]o1 (3D coordinates assigned)
COc1cccc(OC)c1C(=O)N1CC[C@H]1c1nc(-c2cccc(Cl)c2)[nH+]o1 (nonaromatic ring conformer: 130.9136294278865 kcal/mol)

>  <smiles>  (75) 
COc1cccc(OC)c1C(=O)N1CCC1c1nc(-c2cccc(Cl)c2)no1

>  <score_type>  (75) 
oracle

>  <origin>  (75) 
adg

>  <m_score__min__energy>  (75) 
-6.8700000000000001

>  <m_primary>  (75) 
energy

$$$$
75:0
     RDKit          3D

 44 47  0  0  0  0  0  0  0  0999 V2000
   56.7080   30.8880   53.0030 C   0  0  0  0  0  0  0  0  0  0  0  0
   58.0370   31.2020   52.5960 O   0  0  0  0  0  0  0  0  0  0  0  0
   58.4750   31.2170   51.2640 C   0  0  0  0  0  0  0  0  0  0  0  0
   58.1410   32.3170   50.4680 C   0  0  0  0  0  0  0  0  0  0  0  0
   58.5510   32.3790   49.1340 C   0  0  0  0  0  0  0  0  0  0  0  0
   59.3070   31.3360   48.5680 C   0  0  0  0  0  0  0  0  0  0  0  0
   59.7030   31.4100   47.0990 C   0  0  1  0  0  0  0  0  0  0  0  0
   58.5040   31.1620   46.1920 C   0  0  0  0  0  0  0  0  0  0  0  0
   57.8490   32.2310   45.5420 C   0  0  0  0  0  0  0  0  0  0  0  0
   56.7650   31.9690   44.7550 N   0  0  0  0  0  0  0  0  0  0  0  0
   56.3000   30.7290   44.5980 N   0  0  0  0  0  0  0  0  0  0  0  0
   56.8800   29.6660   45.2080 C   0  0  0  0  0  0  0  0  0  0  0  0
   56.4040   28.5120   45.0350 O   0  0  0  0  0  0  0  0  0  0  0  0
   57.9950   29.8630   46.0240 C   0  0  0  0  0  0  0  0  0  0  0  0
   58.5320   28.8800   46.6050 O   0  0  0  0  0  0  0  0  0  0  0  0
   58.3380   33.6200   45.7060 C   0  0  0  0  0  0  0  0  0  0  0  0
   57.7650   34.5690   45.1050 O   0  0  0  0  0  0  0  0  0  0  0  0
   59.4760   33.9270   46.6350 C   0  0  0  0  0  0  0  0  0  0  0  0
   60.4370   32.7280   46.7240 C   0  0  1  0  0  0  0  0  0  0  0  0
   61.6470   32.9930   47.6120 C   0  0  0  0  0  0  0  0  0  0  0  0
   62.7800   32.1670   47.4960 C   0  0  0  0  0  0  0  0  0  0  0  0
   63.8880   32.3570   48.3280 C   0  0  0  0  0  0  0  0  0  0  0  0
   63.8730   33.3650   49.2940 C   0  0  0  0  0  0  0  0  0  0  0  0
   62.7500   34.1810   49.4340 C   0  0  0  0  0  0  0  0  0  0  0  0
   61.6410   33.9970   48.6030 C   0  0  0  0  0  0  0  0  0  0  0  0
   59.6420   30.2300   49.3720 C   0  0  0  0  0  0  0  0  0  0  0  0
   59.2320   30.1710   50.7060 C   0  0  0  0  0  0  0  0  0  0  0  0
   56.6543   30.8753   54.1016 H   0  0  0  0  0  0  0  0  0  0  0  0
   56.0154   31.6472   52.6108 H   0  0  0  0  0  0  0  0  0  0  0  0
   56.4284   29.8991   52.6108 H   0  0  0  0  0  0  0  0  0  0  0  0
   57.5504   33.1405   50.8958 H   0  0  0  0  0  0  0  0  0  0  0  0
   58.2804   33.2510   48.5206 H   0  0  0  0  0  0  0  0  0  0  0  0
   60.4321   30.6025   46.9367 H   0  0  0  0  0  0  0  0  0  0  0  0
   56.2720   32.7450   44.2620 H   0  0  0  0  0  0  0  0  0  0  0  0
   60.0242   34.8033   46.2588 H   0  0  0  0  0  0  0  0  0  0  0  0
   59.0717   34.1343   47.6368 H   0  0  0  0  0  0  0  0  0  0  0  0
   60.8379   32.5889   45.7092 H   0  0  0  0  0  0  0  0  0  0  0  0
   62.7945   31.3643   46.7440 H   0  0  0  0  0  0  0  0  0  0  0  0
   64.7723   31.7115   48.2212 H   0  0  0  0  0  0  0  0  0  0  0  0
   64.7468   33.5158   49.9449 H   0  0  0  0  0  0  0  0  0  0  0  0
   62.7372   34.9706   50.1997 H   0  0  0  0  0  0  0  0  0  0  0  0
   60.7567   34.6402   48.7228 H   0  0  0  0  0  0  0  0  0  0  0  0
   60.2318   29.4050   48.9460 H   0  0  0  0  0  0  0  0  0  0  0  0
   59.5026   29.3018   51.3235 H   0  0  0  0  0  0  0  0  0  0  0  0
  1  2  1  0
  2  3  1  0
  3  4  2  0
  4  5  1  0
  5  6  2  0
  6  7  1  0
  7  8  1  0
  8  9  2  0
  9 10  1  0
 10 11  1  0
 11 12  1  0
 12 13  2  0
 12 14  1  0
 14 15  2  0
  9 16  1  0
 16 17  2  0
 16 18  1  0
 18 19  1  0
 19 20  1  0
 20 21  2  0
 21 22  1  0
 22 23  2  0
 23 24  1  0
 24 25  2  0
  6 26  1  0
 26 27  2  0
 27  3  1  0
 19  7  1  0
 25 20  1  0
 14  8  1  0
  1 28  1  0
  1 29  1  0
  1 30  1  0
  4 31  1  0
  5 32  1  0
  7 33  1  1
 10 34  1  0
 18 35  1  0
 18 36  1  0
 19 37  1  6
 21 38  1  0
 22 39  1  0
 23 40  1  0
 24 41  1  0
 25 42  1  0
 26 43  1  0
 27 44  1  0
M  CHG  1  11  -1
M  END
>  <UniqueID>  (76) 
70

>  <SMILES>  (76) 
COc1ccc([C@H]2c3c([nH][n-]c(=O)c3=O)C(=O)C[C@H]2c2ccccc2)cc1

>  <Energy>  (76) 
53.92733708683049

>  <Genealogy>  (76) 
COc1ccc(C2c3c([nH][n-]c(=O)c3=O)C(=O)CC2c2ccccc2)cc1 (protonated)
COc1ccc([C@H]2c3c([nH][n-]c(=O)c3=O)C(=O)C[C@H]2c2ccccc2)cc1 (chirality)
COc1ccc([C@H]2c3c([nH][n-]c(=O)c3=O)C(=O)C[C@H]2c2ccccc2)cc1 (3D coordinates assigned)
COc1ccc([C@H]2c3c([nH][n-]c(=O)c3=O)C(=O)C[C@H]2c2ccccc2)cc1 (nonaromatic ring conformer: 53.92733708683049 kcal/mol)

>  <smiles>  (76) 
COc1ccc(C2c3c([nH][nH]c(=O)c3=O)C(=O)CC2c2ccccc2)cc1

>  <score_type>  (76) 
oracle

>  <origin>  (76) 
adg

>  <m_score__min__energy>  (76) 
-9.6300000000000008

>  <m_primary>  (76) 
energy

$$$$
76:0
     RDKit          3D

 46 49  0  0  1  0  0  0  0  0999 V2000
   59.6330   34.5880   47.5160 C   0  0  0  0  0  0  0  0  0  0  0  0
   58.8690   33.8880   46.4810 N   0  0  0  0  0  0  0  0  0  0  0  0
   58.9360   32.5950   46.1220 C   0  0  0  0  0  0  0  0  0  0  0  0
   58.0460   32.3300   45.0970 C   0  0  0  0  0  0  0  0  0  0  0  0
   57.7860   31.0380   44.3930 C   0  0  0  0  0  0  0  0  0  0  0  0
   57.0540   30.0960   45.2150 N   0  0  0  0  0  0  0  0  0  0  0  0
   57.4660   28.9020   45.3600 C   0  0  0  0  0  0  0  0  0  0  0  0
   57.2270   27.8980   44.4990 N   0  0  0  0  0  0  0  0  0  0  0  0
   57.6710   26.6440   44.6690 C   0  0  0  0  0  0  0  0  0  0  0  0
   58.4090   26.3730   45.7840 N   0  0  0  0  0  0  0  0  0  0  0  0
   58.6890   27.3230   46.6890 C   0  0  0  0  0  0  0  0  0  0  0  0
   58.2140   28.6010   46.4770 C   0  0  0  0  0  0  0  0  0  0  0  0
   58.5580   29.6170   47.5180 C   0  0  0  0  0  0  0  0  0  0  0  0
   59.9660   29.4380   47.8420 N   0  0  0  0  0  0  0  0  0  0  0  0
   60.8140   30.5680   48.0820 C   0  0  0  0  0  0  0  0  0  0  0  0
   61.7800   30.8420   47.1690 N   0  0  0  0  0  0  0  0  0  0  0  0
   62.6270   31.8810   47.3040 C   0  0  0  0  0  0  0  0  0  0  0  0
   62.5050   32.6950   48.4150 C   0  0  0  0  0  0  0  0  0  0  0  0
   63.4600   33.8380   48.5340 C   0  0  0  0  0  0  0  0  0  0  0  0
   64.6260   33.3690   49.1180 F   0  0  0  0  0  0  0  0  0  0  0  0
   63.7540   34.3740   47.3000 F   0  0  0  0  0  0  0  0  0  0  0  0
   62.8920   34.7490   49.3970 F   0  0  0  0  0  0  0  0  0  0  0  0
   61.5340   32.4350   49.3520 C   0  0  0  0  0  0  0  0  0  0  0  0
   60.6600   31.3540   49.2020 C   0  0  0  0  0  0  0  0  0  0  0  0
   59.4200   31.0100   50.3850 Cl  0  0  0  0  0  0  0  0  0  0  0  0
   60.5900   28.1330   47.9400 C   0  0  0  0  0  0  0  0  0  0  0  0
   59.4890   27.0750   47.9170 C   0  0  0  0  0  0  0  0  0  0  0  0
   57.4320   33.5660   44.8590 C   0  0  0  0  0  0  0  0  0  0  0  0
   57.9630   34.4820   45.7220 N   0  0  0  0  0  0  0  0  0  0  0  0
   59.2839   34.2681   48.5089 H   0  0  0  0  0  0  0  0  0  0  0  0
   60.7012   34.3486   47.4082 H   0  0  0  0  0  0  0  0  0  0  0  0
   59.4877   35.6730   47.4082 H   0  0  0  0  0  0  0  0  0  0  0  0
   59.6051   31.8512   46.5793 H   0  0  0  0  0  0  0  0  0  0  0  0
   57.2005   31.2428   43.4846 H   0  0  0  0  0  0  0  0  0  0  0  0
   58.7598   30.5861   44.1531 H   0  0  0  0  0  0  0  0  0  0  0  0
   56.6620   28.1140   43.6500 H   0  0  0  0  0  0  0  0  0  0  0  0
   57.4471   25.8584   43.9323 H   0  0  0  0  0  0  0  0  0  0  0  0
   58.3867   30.6308   47.1270 H   0  0  0  0  0  0  0  0  0  0  0  0
   57.9310   29.4887   48.4126 H   0  0  0  0  0  0  0  0  0  0  0  0
   63.3996   32.0776   46.5461 H   0  0  0  0  0  0  0  0  0  0  0  0
   61.4430   33.0871   50.2332 H   0  0  0  0  0  0  0  0  0  0  0  0
   61.2706   27.9808   47.0893 H   0  0  0  0  0  0  0  0  0  0  0  0
   61.1698   28.0580   48.8718 H   0  0  0  0  0  0  0  0  0  0  0  0
   59.9306   26.0680   47.8856 H   0  0  0  0  0  0  0  0  0  0  0  0
   58.8617   27.1349   48.8186 H   0  0  0  0  0  0  0  0  0  0  0  0
   56.6552   33.7651   44.1061 H   0  0  0  0  0  0  0  0  0  0  0  0
  1  2  1  0
  2  3  1  0
  3  4  2  0
  4  5  1  0
  5  6  1  0
  6  7  2  0
  7  8  1  0
  8  9  1  0
  9 10  2  0
 10 11  1  0
 11 12  2  0
 12 13  1  0
 13 14  1  0
 14 15  1  0
 15 16  2  0
 16 17  1  0
 17 18  2  0
 18 19  1  0
 19 20  1  0
 19 21  1  0
 19 22  1  0
 18 23  1  0
 23 24  2  0
 24 25  1  0
 14 26  1  0
 26 27  1  0
  4 28  1  0
 28 29  2  0
 29  2  1  0
 12  7  1  0
 24 15  1  0
 27 11  1  0
  1 30  1  0
  1 31  1  0
  1 32  1  0
  3 33  1  0
  5 34  1  0
  5 35  1  0
  8 36  1  0
  9 37  1  0
 13 38  1  0
 13 39  1  0
 17 40  1  0
 23 41  1  0
 26 42  1  0
 26 43  1  0
 27 44  1  0
 27 45  1  0
 28 46  1  0
M  END
>  <smiles>  (77) 
Cn1cc(CN=c2[nH]cnc3c2CN(c2ncc(C(F)(F)F)cc2Cl)CC3)cn1

>  <score_type>  (77) 
oracle

>  <origin>  (77) 
adg

>  <m_score__min__energy>  (77) 
-7.96

>  <m_primary>  (77) 
energy

$$$$
77:0
     RDKit          3D

 53 56  0  0  1  0  0  0  0  0999 V2000
   57.8820   26.5080   44.0750 O   0  0  0  0  0  0  0  0  0  0  0  0
   58.1020   26.3600   45.3180 C   0  0  0  0  0  0  0  0  0  0  0  0
   57.6160   25.2130   46.0040 N   0  0  0  0  0  0  0  0  0  0  0  0
   56.8610   24.1600   45.3580 C   0  0  1  0  0  0  0  0  0  0  0  0
   55.4790   24.6250   44.9580 C   0  0  0  0  0  0  0  0  0  0  0  0
   54.6870   23.4310   44.4690 C   0  0  0  0  0  0  0  0  0  0  0  0
   55.4830   22.4930   43.8340 O   0  0  0  0  0  0  0  0  0  0  0  0
   56.5790   23.0680   43.1880 C   0  0  0  0  0  0  0  0  0  0  0  0
   57.6120   23.5690   44.1770 C   0  0  2  0  0  0  0  0  0  0  0  0
   58.5310   22.4660   44.5950 C   0  0  0  0  0  0  0  0  0  0  0  0
   58.1980   21.1710   44.2820 O   0  0  0  0  0  0  0  0  0  0  0  0
   59.6240   22.6820   45.2390 N   0  0  0  0  0  0  0  0  0  0  0  0
   60.4560   21.6490   45.6110 O   0  0  0  0  0  0  0  0  0  0  0  0
   58.8650   27.4160   45.9810 C   0  0  0  0  0  0  0  0  0  0  0  0
   58.7140   27.5690   47.3410 C   0  0  0  0  0  0  0  0  0  0  0  0
   59.4090   28.5560   48.0340 C   0  0  0  0  0  0  0  0  0  0  0  0
   60.2840   29.4220   47.3680 C   0  0  0  0  0  0  0  0  0  0  0  0
   60.9820   30.4160   48.2060 C   0  0  0  0  0  0  0  0  0  0  0  0
   61.2810   31.6900   47.5590 C   0  0  0  0  0  0  0  0  0  0  0  0
   62.6210   32.0930   47.4590 C   0  0  0  0  0  0  0  0  0  0  0  0
   62.9840   33.2950   46.8950 C   0  0  0  0  0  0  0  0  0  0  0  0
   62.0510   34.1560   46.4040 N   0  0  0  0  0  0  0  0  0  0  0  0
   60.7550   33.7960   46.4850 C   0  0  0  0  0  0  0  0  0  0  0  0
   59.8360   34.6850   45.9700 C   0  0  0  0  0  0  0  0  0  0  0  0
   58.5120   34.3600   46.0190 C   0  0  0  0  0  0  0  0  0  0  0  0
   58.1230   33.1610   46.5770 C   0  0  0  0  0  0  0  0  0  0  0  0
   59.0270   32.2740   47.0910 C   0  0  0  0  0  0  0  0  0  0  0  0
   60.3650   32.5810   47.0530 C   0  0  0  0  0  0  0  0  0  0  0  0
   60.4180   29.2500   46.0230 C   0  0  0  0  0  0  0  0  0  0  0  0
   59.7180   28.2590   45.3320 C   0  0  0  0  0  0  0  0  0  0  0  0
   57.7980   25.0910   47.0300 H   0  0  0  0  0  0  0  0  0  0  0  0
   56.7344   23.3568   46.0989 H   0  0  0  0  0  0  0  0  0  0  0  0
   54.9739   25.0737   45.8261 H   0  0  0  0  0  0  0  0  0  0  0  0
   55.5537   25.3775   44.1591 H   0  0  0  0  0  0  0  0  0  0  0  0
   54.1987   22.9539   45.3315 H   0  0  0  0  0  0  0  0  0  0  0  0
   53.9497   23.7946   43.7382 H   0  0  0  0  0  0  0  0  0  0  0  0
   57.0451   22.3139   42.5368 H   0  0  0  0  0  0  0  0  0  0  0  0
   56.2202   23.9268   42.6018 H   0  0  0  0  0  0  0  0  0  0  0  0
   58.2490   24.3397   43.7184 H   0  0  0  0  0  0  0  0  0  0  0  0
   58.7550   20.4000   44.6660 H   0  0  0  0  0  0  0  0  0  0  0  0
   60.3090   20.7250   45.2230 H   0  0  0  0  0  0  0  0  0  0  0  0
   58.0333   26.9006   47.8886 H   0  0  0  0  0  0  0  0  0  0  0  0
   59.2686   28.6568   49.1203 H   0  0  0  0  0  0  0  0  0  0  0  0
   60.3506   30.6221   49.0829 H   0  0  0  0  0  0  0  0  0  0  0  0
   61.9562   29.9690   48.4535 H   0  0  0  0  0  0  0  0  0  0  0  0
   63.4072   31.4268   47.8438 H   0  0  0  0  0  0  0  0  0  0  0  0
   64.0489   33.5651   46.8400 H   0  0  0  0  0  0  0  0  0  0  0  0
   60.1637   35.6376   45.5283 H   0  0  0  0  0  0  0  0  0  0  0  0
   57.7581   35.0517   45.6150 H   0  0  0  0  0  0  0  0  0  0  0  0
   57.0524   32.9104   46.6096 H   0  0  0  0  0  0  0  0  0  0  0  0
   58.6866   31.3247   47.5303 H   0  0  0  0  0  0  0  0  0  0  0  0
   61.0975   29.9112   45.4652 H   0  0  0  0  0  0  0  0  0  0  0  0
   59.8570   28.1566   44.2456 H   0  0  0  0  0  0  0  0  0  0  0  0
  1  2  2  0
  2  3  1  0
  3  4  1  0
  4  5  1  0
  5  6  1  0
  6  7  1  0
  7  8  1  0
  8  9  1  0
  9 10  1  0
 10 11  1  0
 10 12  2  0
 12 13  1  0
  2 14  1  0
 14 15  2  0
 15 16  1  0
 16 17  2  0
 17 18  1  0
 18 19  1  0
 19 20  2  0
 20 21  1  0
 21 22  2  0
 22 23  1  0
 23 24  2  0
 24 25  1  0
 25 26  2  0
 26 27  1  0
 27 28  2  0
 17 29  1  0
 29 30  2  0
  9  4  1  0
 30 14  1  0
 28 19  1  0
 28 23  1  0
  3 31  1  0
  4 32  1  1
  5 33  1  0
  5 34  1  0
  6 35  1  0
  6 36  1  0
  8 37  1  0
  8 38  1  0
  9 39  1  6
 11 40  1  0
 13 41  1  0
 15 42  1  0
 16 43  1  0
 18 44  1  0
 18 45  1  0
 20 46  1  0
 21 47  1  0
 24 48  1  0
 25 49  1  0
 26 50  1  0
 27 51  1  0
 29 52  1  0
 30 53  1  0
M  END
>  <smiles>  (78) 
O=C(NC1CCOCC1C(O)=NO)c1ccc(Cc2ccnc3ccccc23)cc1

>  <score_type>  (78) 
oracle

>  <origin>  (78) 
adg

>  <m_score__min__energy>  (78) 
-11.07

>  <m_primary>  (78) 
energy

$$$$
78:0
     RDKit          3D

 35 39  0  0  0  0  0  0  0  0999 V2000
   60.1440   28.0170   48.5820 O   0  0  0  0  0  0  0  0  0  0  0  0
   59.4180   28.2150   47.5730 C   0  0  0  0  0  0  0  0  0  0  0  0
   58.9460   29.5080   47.0420 C   0  0  0  0  0  0  0  0  0  0  0  0
   59.1580   30.8110   47.4780 C   0  0  0  0  0  0  0  0  0  0  0  0
   58.5590   31.8550   46.7430 C   0  0  0  0  0  0  0  0  0  0  0  0
   58.7300   33.1920   47.1250 C   0  0  0  0  0  0  0  0  0  0  0  0
   58.1300   34.2150   46.3840 C   0  0  0  0  0  0  0  0  0  0  0  0
   57.3580   33.9130   45.2580 C   0  0  0  0  0  0  0  0  0  0  0  0
   57.1780   32.5840   44.8620 C   0  0  0  0  0  0  0  0  0  0  0  0
   57.7690   31.5470   45.5910 C   0  0  0  0  0  0  0  0  0  0  0  0
   57.5890   30.2500   45.1980 N   0  0  0  0  0  0  0  0  0  0  0  0
   58.1700   29.2610   45.9170 C   0  0  0  0  0  0  0  0  0  0  0  0
   58.1410   27.8250   45.7250 C   0  0  0  0  0  0  0  0  0  0  0  0
   57.5900   26.9740   44.8540 N   0  0  0  0  0  0  0  0  0  0  0  0
   57.9910   25.7430   45.2910 C   0  0  0  0  0  0  0  0  0  0  0  0
   57.6190   24.4580   44.6300 C   0  0  0  0  0  0  0  0  0  0  0  0
   58.2430   23.2480   44.9990 C   0  0  0  0  0  0  0  0  0  0  0  0
   57.8930   22.0460   44.3760 C   0  0  0  0  0  0  0  0  0  0  0  0
   56.9180   22.0300   43.3800 C   0  0  0  0  0  0  0  0  0  0  0  0
   56.2890   23.2170   43.0020 C   0  0  0  0  0  0  0  0  0  0  0  0
   56.6350   24.4240   43.6200 C   0  0  0  0  0  0  0  0  0  0  0  0
   58.7970   25.8640   46.4470 C   0  0  0  0  0  0  0  0  0  0  0  0
   58.8560   27.2150   46.6720 C   0  0  0  0  0  0  0  0  0  0  0  0
   59.7722   31.0206   48.3662 H   0  0  0  0  0  0  0  0  0  0  0  0
   59.3370   33.4374   48.0089 H   0  0  0  0  0  0  0  0  0  0  0  0
   58.2661   35.2632   46.6887 H   0  0  0  0  0  0  0  0  0  0  0  0
   56.8902   34.7244   44.6811 H   0  0  0  0  0  0  0  0  0  0  0  0
   56.5700   32.3536   43.9748 H   0  0  0  0  0  0  0  0  0  0  0  0
   56.9940   27.2290   44.0370 H   0  0  0  0  0  0  0  0  0  0  0  0
   59.0127   23.2499   45.7848 H   0  0  0  0  0  0  0  0  0  0  0  0
   58.3888   21.1100   44.6729 H   0  0  0  0  0  0  0  0  0  0  0  0
   56.6446   21.0826   42.8924 H   0  0  0  0  0  0  0  0  0  0  0  0
   55.5193   23.2039   42.2163 H   0  0  0  0  0  0  0  0  0  0  0  0
   56.1348   25.3551   43.3152 H   0  0  0  0  0  0  0  0  0  0  0  0
   59.2679   25.0595   47.0309 H   0  0  0  0  0  0  0  0  0  0  0  0
  1  2  2  0
  2  3  1  0
  3  4  2  0
  4  5  1  0
  5  6  2  0
  6  7  1  0
  7  8  2  0
  8  9  1  0
  9 10  2  0
 10 11  1  0
 11 12  2  0
 12 13  1  0
 13 14  1  0
 14 15  1  0
 15 16  1  0
 16 17  2  0
 17 18  1  0
 18 19  2  0
 19 20  1  0
 20 21  2  0
 15 22  2  0
 22 23  1  0
 23  2  1  0
 12  3  1  0
 23 13  2  0
 10  5  1  0
 21 16  1  0
  4 24  1  0
  6 25  1  0
  7 26  1  0
  8 27  1  0
  9 28  1  0
 14 29  1  0
 17 30  1  0
 18 31  1  0
 19 32  1  0
 20 33  1  0
 21 34  1  0
 22 35  1  0
M  END
>  <UniqueID>  (79) 
71

>  <SMILES>  (79) 
O=C1c2cc3ccccc3nc2-c2[nH]c(-c3ccccc3)cc21

>  <Energy>  (79) 
129.17486654664657

>  <Genealogy>  (79) 
O=C1c2cc3ccccc3nc2-c2[nH]c(-c3ccccc3)cc21 (3D coordinates assigned)
O=C1c2cc3ccccc3nc2-c2[nH]c(-c3ccccc3)cc21 (nonaromatic ring conformer: 129.17486654664657 kcal/mol)

>  <smiles>  (79) 
O=C1c2cc3ccccc3nc2-c2[nH]c(-c3ccccc3)cc21

>  <score_type>  (79) 
oracle

>  <origin>  (79) 
adg

>  <m_score__min__energy>  (79) 
-8.3200000000000003

>  <m_primary>  (79) 
energy

$$$$
79:0
     RDKit          3D

 22 23  0  0  0  0  0  0  0  0999 V2000
   57.3970   32.3970   41.5710 N   0  0  0  0  0  0  0  0  0  0  0  0
   57.7810   31.9830   42.5810 C   0  0  0  0  0  0  0  0  0  0  0  0
   58.2690   31.4580   43.8660 C   0  0  1  0  0  0  0  0  0  0  0  0
   58.4130   32.5660   44.8850 C   0  0  0  0  0  0  0  0  0  0  0  0
   58.9280   33.8160   44.4980 C   0  0  0  0  0  0  0  0  0  0  0  0
   59.0850   34.8400   45.4370 C   0  0  0  0  0  0  0  0  0  0  0  0
   58.7370   34.6260   46.7730 C   0  0  0  0  0  0  0  0  0  0  0  0
   58.2340   33.3860   47.1740 C   0  0  0  0  0  0  0  0  0  0  0  0
   58.0740   32.3590   46.2380 C   0  0  0  0  0  0  0  0  0  0  0  0
   57.3540   30.3850   44.3840 C   0  0  0  0  0  0  0  0  0  0  0  0
   56.0100   30.5190   44.3990 N   0  0  0  0  0  0  0  0  0  0  0  0
   55.5750   29.3400   44.8740 C   0  0  0  0  0  0  0  0  0  0  0  0
   56.6520   28.5250   45.1230 C   0  0  0  0  0  0  0  0  0  0  0  0
   57.7830   29.1770   44.8080 N   0  0  0  0  0  0  0  0  0  0  0  0
   59.2622   31.0172   43.6953 H   0  0  0  0  0  0  0  0  0  0  0  0
   59.2094   33.9895   43.4488 H   0  0  0  0  0  0  0  0  0  0  0  0
   59.4833   35.8161   45.1232 H   0  0  0  0  0  0  0  0  0  0  0  0
   58.8591   35.4341   47.5093 H   0  0  0  0  0  0  0  0  0  0  0  0
   57.9635   33.2171   48.2268 H   0  0  0  0  0  0  0  0  0  0  0  0
   57.6810   31.3832   46.5596 H   0  0  0  0  0  0  0  0  0  0  0  0
   54.5214   29.0698   45.0378 H   0  0  0  0  0  0  0  0  0  0  0  0
   56.5969   27.4999   45.5181 H   0  0  0  0  0  0  0  0  0  0  0  0
  1  2  3  0
  2  3  1  0
  3  4  1  0
  4  5  2  0
  5  6  1  0
  6  7  2  0
  7  8  1  0
  8  9  2  0
  3 10  1  0
 10 11  2  0
 11 12  1  0
 12 13  2  0
 13 14  1  0
  9  4  1  0
 14 10  1  0
  3 15  1  6
  5 16  1  0
  6 17  1  0
  7 18  1  0
  8 19  1  0
  9 20  1  0
 12 21  1  0
 13 22  1  0
M  CHG  1  14  -1
M  END
>  <UniqueID>  (80) 
72

>  <SMILES>  (80) 
N#C[C@@H](c1ccccc1)c1ncc[n-]1

>  <Energy>  (80) 
48.78022521960025

>  <Genealogy>  (80) 
N#CC(c1ccccc1)c1ncc[n-]1 (protonated)
N#C[C@@H](c1ccccc1)c1ncc[n-]1 (chirality)
N#C[C@@H](c1ccccc1)c1ncc[n-]1 (3D coordinates assigned)
N#C[C@@H](c1ccccc1)c1ncc[n-]1 (optimized conformer: 48.78022521960025 kcal/mol)

>  <smiles>  (80) 
N#CC(c1ccccc1)c1ncc[nH]1

>  <score_type>  (80) 
oracle

>  <origin>  (80) 
adg

>  <m_score__min__energy>  (80) 
-7.4100000000000001

>  <m_primary>  (80) 
energy

$$$$
80:0
     RDKit          3D

 43 45  0  0  0  0  0  0  0  0999 V2000
   64.6000   33.0740   49.0080 C   0  0  0  0  0  0  0  0  0  0  0  0
   63.1590   33.2030   49.2400 N   0  0  0  0  0  0  0  0  0  0  0  0
   62.6360   34.1960   50.1800 C   0  0  0  0  0  0  0  0  0  0  0  0
   62.2410   32.3530   48.5310 C   0  0  0  0  0  0  0  0  0  0  0  0
   62.6760   31.5270   47.6830 O   0  0  0  0  0  0  0  0  0  0  0  0
   60.8620   32.4880   48.7470 O   0  0  0  0  0  0  0  0  0  0  0  0
   59.8570   32.1940   47.8100 C   0  0  0  0  0  0  0  0  0  0  0  0
   59.1560   30.9790   47.8540 C   0  0  0  0  0  0  0  0  0  0  0  0
   58.1620   30.6940   46.9200 C   0  0  0  0  0  0  0  0  0  0  0  0
   57.8300   31.6200   45.9190 C   0  0  0  0  0  0  0  0  0  0  0  0
   56.8190   31.3260   44.9400 N   0  0  0  0  0  0  0  0  0  0  0  0
   56.5350   29.7780   44.2160 S   0  0  0  0  0  0  0  0  0  0  0  0
   55.1430   29.3220   44.5540 O   0  0  0  0  0  0  0  0  0  0  0  0
   56.6530   29.8960   42.7200 O   0  0  0  0  0  0  0  0  0  0  0  0
   57.6870   28.6090   44.8490 C   0  0  0  0  0  0  0  0  0  0  0  0
   59.0530   28.7670   44.5800 C   0  0  0  0  0  0  0  0  0  0  0  0
   59.9790   27.8450   45.0790 C   0  0  0  0  0  0  0  0  0  0  0  0
   59.5440   26.7620   45.8480 C   0  0  0  0  0  0  0  0  0  0  0  0
   58.1820   26.5980   46.1140 C   0  0  0  0  0  0  0  0  0  0  0  0
   57.2540   27.5190   45.6190 C   0  0  0  0  0  0  0  0  0  0  0  0
   58.5010   32.8640   45.8800 C   0  0  0  0  0  0  0  0  0  0  0  0
   58.1740   33.8350   44.9120 C   0  0  0  0  0  0  0  0  0  0  0  0
   58.8310   35.0660   44.8940 C   0  0  0  0  0  0  0  0  0  0  0  0
   59.8230   35.3460   45.8310 C   0  0  0  0  0  0  0  0  0  0  0  0
   60.1660   34.3980   46.7960 C   0  0  0  0  0  0  0  0  0  0  0  0
   59.5130   33.1510   46.8360 C   0  0  0  0  0  0  0  0  0  0  0  0
   65.1241   33.0271   49.9740 H   0  0  0  0  0  0  0  0  0  0  0  0
   64.7987   32.1545   48.4379 H   0  0  0  0  0  0  0  0  0  0  0  0
   64.9589   33.9436   48.4379 H   0  0  0  0  0  0  0  0  0  0  0  0
   62.8153   33.8555   51.2105 H   0  0  0  0  0  0  0  0  0  0  0  0
   63.1445   35.1578   50.0179 H   0  0  0  0  0  0  0  0  0  0  0  0
   61.5552   34.3208   50.0179 H   0  0  0  0  0  0  0  0  0  0  0  0
   59.3942   30.2425   48.6355 H   0  0  0  0  0  0  0  0  0  0  0  0
   57.6312   29.7317   46.9678 H   0  0  0  0  0  0  0  0  0  0  0  0
   59.3981   29.6183   43.9748 H   0  0  0  0  0  0  0  0  0  0  0  0
   61.0506   27.9724   44.8660 H   0  0  0  0  0  0  0  0  0  0  0  0
   60.2731   26.0395   46.2434 H   0  0  0  0  0  0  0  0  0  0  0  0
   57.8393   25.7423   46.7142 H   0  0  0  0  0  0  0  0  0  0  0  0
   56.1830   27.3889   45.8335 H   0  0  0  0  0  0  0  0  0  0  0  0
   57.3952   33.6208   44.1653 H   0  0  0  0  0  0  0  0  0  0  0  0
   58.5645   35.8182   44.1369 H   0  0  0  0  0  0  0  0  0  0  0  0
   60.3379   36.3179   45.8102 H   0  0  0  0  0  0  0  0  0  0  0  0
   60.9521   34.6265   47.5307 H   0  0  0  0  0  0  0  0  0  0  0  0
  1  2  1  0
  2  3  1  0
  2  4  1  0
  4  5  2  0
  4  6  1  0
  6  7  1  0
  7  8  2  0
  8  9  1  0
  9 10  2  0
 10 11  1  0
 11 12  1  0
 12 13  2  0
 12 14  2  0
 12 15  1  0
 15 16  2  0
 16 17  1  0
 17 18  2  0
 18 19  1  0
 19 20  2  0
 10 21  1  0
 21 22  2  0
 22 23  1  0
 23 24  2  0
 24 25  1  0
 25 26  2  0
 26  7  1  0
 20 15  1  0
 26 21  1  0
  1 27  1  0
  1 28  1  0
  1 29  1  0
  3 30  1  0
  3 31  1  0
  3 32  1  0
  8 33  1  0
  9 34  1  0
 16 35  1  0
 17 36  1  0
 18 37  1  0
 19 38  1  0
 20 39  1  0
 22 40  1  0
 23 41  1  0
 24 42  1  0
 25 43  1  0
M  CHG  1  11  -1
M  END
>  <UniqueID>  (81) 
73

>  <SMILES>  (81) 
CN(C)C(=O)Oc1ccc([N-]S(=O)(=O)c2ccccc2)c2ccccc12

>  <Energy>  (81) 
54.72285098537783

>  <Genealogy>  (81) 
CN(C)C(=O)Oc1ccc([N-]S(=O)(=O)c2ccccc2)c2ccccc12 (protonated)
CN(C)C(=O)Oc1ccc([N-]S(=O)(=O)c2ccccc2)c2ccccc12 (3D coordinates assigned)
CN(C)C(=O)Oc1ccc([N-]S(=O)(=O)c2ccccc2)c2ccccc12 (optimized conformer: 54.72285098537783 kcal/mol)

>  <smiles>  (81) 
CN(C)C(=O)Oc1ccc(NS(=O)(=O)c2ccccc2)c2ccccc12

>  <score_type>  (81) 
oracle

>  <origin>  (81) 
adg

>  <m_score__min__energy>  (81) 
-9.9399999999999995

>  <m_primary>  (81) 
energy

$$$$
81:0
     RDKit          3D

 58 61  0  0  0  0  0  0  0  0999 V2000
   56.7100   20.6860   43.0200 C   0  0  0  0  0  0  0  0  0  0  0  0
   56.2190   21.8780   43.6270 O   0  0  0  0  0  0  0  0  0  0  0  0
   57.0010   22.8010   44.3400 C   0  0  0  0  0  0  0  0  0  0  0  0
   58.3300   22.4950   44.6930 C   0  0  0  0  0  0  0  0  0  0  0  0
   59.1120   23.4150   45.3890 C   0  0  0  0  0  0  0  0  0  0  0  0
   58.5850   24.6520   45.7430 C   0  0  0  0  0  0  0  0  0  0  0  0
   57.2620   24.9840   45.4140 C   0  0  0  0  0  0  0  0  0  0  0  0
   56.7370   26.3180   45.7860 C   0  0  0  0  0  0  0  0  0  0  0  0
   55.5440   26.4230   46.1830 O   0  0  0  0  0  0  0  0  0  0  0  0
   57.5550   27.5420   45.6670 C   0  0  0  0  0  0  0  0  0  0  0  0
   58.9300   27.6200   45.8660 C   0  0  0  0  0  0  0  0  0  0  0  0
   59.3680   28.8810   45.6380 N   0  0  0  0  0  0  0  0  0  0  0  0
   60.7630   29.3200   45.6610 C   0  0  0  0  0  0  0  0  0  0  0  0
   61.0120   30.1810   46.8600 C   0  0  0  0  0  0  0  0  0  0  0  0
   61.1400   29.6480   47.9970 O   0  0  0  0  0  0  0  0  0  0  0  0
   61.1280   31.6020   46.7110 N   0  0  0  0  0  0  0  0  0  0  0  0
   61.1770   32.4880   47.8410 C   0  0  0  0  0  0  0  0  0  0  0  0
   59.9890   32.8740   48.5050 C   0  0  0  0  0  0  0  0  0  0  0  0
   58.6400   32.3950   48.0370 C   0  0  0  0  0  0  0  0  0  0  0  0
   60.0670   33.7180   49.6230 C   0  0  0  0  0  0  0  0  0  0  0  0
   61.2990   34.2130   50.0520 C   0  0  0  0  0  0  0  0  0  0  0  0
   62.4670   33.8690   49.3730 C   0  0  0  0  0  0  0  0  0  0  0  0
   62.4200   33.0050   48.2680 C   0  0  0  0  0  0  0  0  0  0  0  0
   63.6910   32.6430   47.5470 C   0  0  0  0  0  0  0  0  0  0  0  0
   58.2870   29.5980   45.2680 C   0  0  0  0  0  0  0  0  0  0  0  0
   58.2390   30.9330   44.8620 C   0  0  0  0  0  0  0  0  0  0  0  0
   56.9930   31.4370   44.4520 C   0  0  0  0  0  0  0  0  0  0  0  0
   55.8870   30.6300   44.4450 N   0  0  0  0  0  0  0  0  0  0  0  0
   55.9400   29.3230   44.8390 C   0  0  0  0  0  0  0  0  0  0  0  0
   57.1640   28.8120   45.2710 C   0  0  0  0  0  0  0  0  0  0  0  0
   56.4560   24.0600   44.7110 C   0  0  0  0  0  0  0  0  0  0  0  0
   55.1290   24.4440   44.4250 O   0  0  0  0  0  0  0  0  0  0  0  0
   53.9440   23.8790   44.9740 C   0  0  0  0  0  0  0  0  0  0  0  0
   57.0046   19.9708   43.8021 H   0  0  0  0  0  0  0  0  0  0  0  0
   55.9218   20.2414   42.3947 H   0  0  0  0  0  0  0  0  0  0  0  0
   57.5827   20.9256   42.3947 H   0  0  0  0  0  0  0  0  0  0  0  0
   58.7553   21.5190   44.4162 H   0  0  0  0  0  0  0  0  0  0  0  0
   60.1480   23.1621   45.6588 H   0  0  0  0  0  0  0  0  0  0  0  0
   59.2104   25.3763   46.2854 H   0  0  0  0  0  0  0  0  0  0  0  0
   59.5702   26.7772   46.1659 H   0  0  0  0  0  0  0  0  0  0  0  0
   61.4208   28.4394   45.7026 H   0  0  0  0  0  0  0  0  0  0  0  0
   60.9724   29.9012   44.7509 H   0  0  0  0  0  0  0  0  0  0  0  0
   61.2590   32.0030   45.7550 H   0  0  0  0  0  0  0  0  0  0  0  0
   58.0079   32.1706   48.9088 H   0  0  0  0  0  0  0  0  0  0  0  0
   58.1629   33.1787   47.4302 H   0  0  0  0  0  0  0  0  0  0  0  0
   58.7639   31.4859   47.4302 H   0  0  0  0  0  0  0  0  0  0  0  0
   59.1500   33.9916   50.1655 H   0  0  0  0  0  0  0  0  0  0  0  0
   61.3488   34.8763   50.9281 H   0  0  0  0  0  0  0  0  0  0  0  0
   63.4325   34.2778   49.7058 H   0  0  0  0  0  0  0  0  0  0  0  0
   64.4783   32.4188   48.2818 H   0  0  0  0  0  0  0  0  0  0  0  0
   63.5157   31.7591   46.9162 H   0  0  0  0  0  0  0  0  0  0  0  0
   64.0077   33.4867   46.9162 H   0  0  0  0  0  0  0  0  0  0  0  0
   59.1397   31.5644   44.8630 H   0  0  0  0  0  0  0  0  0  0  0  0
   56.9057   32.4866   44.1346 H   0  0  0  0  0  0  0  0  0  0  0  0
   55.0407   28.6899   44.8162 H   0  0  0  0  0  0  0  0  0  0  0  0
   53.9998   23.9056   46.0723 H   0  0  0  0  0  0  0  0  0  0  0  0
   53.0715   24.4580   44.6371 H   0  0  0  0  0  0  0  0  0  0  0  0
   53.8446   22.8366   44.6371 H   0  0  0  0  0  0  0  0  0  0  0  0
  1  2  1  0
  2  3  1  0
  3  4  2  0
  4  5  1  0
  5  6  2  0
  6  7  1  0
  7  8  1  0
  8  9  2  0
  8 10  1  0
 10 11  2  0
 11 12  1  0
 12 13  1  0
 13 14  1  0
 14 15  2  0
 14 16  1  0
 16 17  1  0
 17 18  2  0
 18 19  1  0
 18 20  1  0
 20 21  2  0
 21 22  1  0
 22 23  2  0
 23 24  1  0
 12 25  1  0
 25 26  2  0
 26 27  1  0
 27 28  2  0
 28 29  1  0
 29 30  2  0
  7 31  2  0
 31 32  1  0
 32 33  1  0
 31  3  1  0
 30 10  1  0
 23 17  1  0
 30 25  1  0
  1 34  1  0
  1 35  1  0
  1 36  1  0
  4 37  1  0
  5 38  1  0
  6 39  1  0
 11 40  1  0
 13 41  1  0
 13 42  1  0
 16 43  1  0
 19 44  1  0
 19 45  1  0
 19 46  1  0
 20 47  1  0
 21 48  1  0
 22 49  1  0
 24 50  1  0
 24 51  1  0
 24 52  1  0
 26 53  1  0
 27 54  1  0
 29 55  1  0
 33 56  1  0
 33 57  1  0
 33 58  1  0
M  END
>  <UniqueID>  (82) 
74

>  <SMILES>  (82) 
COc1cccc(C(=O)c2cn(CC(=O)Nc3c(C)cccc3C)c3ccncc23)c1OC

>  <Energy>  (82) 
108.20385096379258

>  <Genealogy>  (82) 
COc1cccc(C(=O)c2cn(CC(=O)Nc3c(C)cccc3C)c3ccncc23)c1OC (3D coordinates assigned)
COc1cccc(C(=O)c2cn(CC(=O)Nc3c(C)cccc3C)c3ccncc23)c1OC (optimized conformer: 108.20385096379258 kcal/mol)

>  <smiles>  (82) 
COc1cccc(C(=O)c2cn(CC(=O)Nc3c(C)cccc3C)c3ccncc23)c1OC

>  <score_type>  (82) 
oracle

>  <origin>  (82) 
adg

>  <m_score__min__energy>  (82) 
-9.5

>  <m_primary>  (82) 
energy

$$$$
82:0
     RDKit          3D

 42 43  0  0  0  0  0  0  0  0999 V2000
   60.3550   34.5930   46.8320 C   0  0  0  0  0  0  0  0  0  0  0  0
   59.2660   33.7290   46.2680 C   0  0  0  0  0  0  0  0  0  0  0  0
   58.3810   34.2390   45.3070 C   0  0  0  0  0  0  0  0  0  0  0  0
   57.3900   33.4190   44.7550 C   0  0  0  0  0  0  0  0  0  0  0  0
   57.2710   32.0800   45.1630 C   0  0  0  0  0  0  0  0  0  0  0  0
   56.2900   31.2040   44.5910 N   0  0  0  0  0  0  0  0  0  0  0  0
   56.4440   29.7980   44.3680 C   0  0  0  0  0  0  0  0  0  0  0  0
   55.6020   29.0050   44.8670 O   0  0  0  0  0  0  0  0  0  0  0  0
   57.5010   29.2930   43.5380 N   0  0  0  0  0  0  0  0  0  0  0  0
   57.7700   27.8600   43.4380 C   0  0  0  0  0  0  0  0  0  0  0  0
   58.7370   27.4070   44.5370 C   0  0  0  0  0  0  0  0  0  0  0  0
   57.9860   26.7460   45.6980 C   0  0  0  0  0  0  0  0  0  0  0  0
   57.9630   25.2760   45.5130 N   0  0  0  0  0  0  0  0  0  0  0  0
   57.7350   24.5590   46.7820 C   0  0  0  0  0  0  0  0  0  0  0  0
   56.2850   24.7410   47.2910 C   0  0  0  0  0  0  0  0  0  0  0  0
   55.4000   25.2160   46.2900 O   0  0  0  0  0  0  0  0  0  0  0  0
   55.6040   24.5080   45.0860 C   0  0  0  0  0  0  0  0  0  0  0  0
   56.9840   24.8490   44.4840 C   0  0  0  0  0  0  0  0  0  0  0  0
   58.1840   31.5610   46.0890 C   0  0  0  0  0  0  0  0  0  0  0  0
   59.1750   32.3790   46.6410 C   0  0  0  0  0  0  0  0  0  0  0  0
   60.3157   34.5618   47.9309 H   0  0  0  0  0  0  0  0  0  0  0  0
   61.3321   34.2217   46.4893 H   0  0  0  0  0  0  0  0  0  0  0  0
   60.2157   35.6289   46.4893 H   0  0  0  0  0  0  0  0  0  0  0  0
   58.4660   35.2876   44.9858 H   0  0  0  0  0  0  0  0  0  0  0  0
   56.7017   33.8246   43.9988 H   0  0  0  0  0  0  0  0  0  0  0  0
   58.0680   29.9690   42.9760 H   0  0  0  0  0  0  0  0  0  0  0  0
   56.8241   27.3080   43.5407 H   0  0  0  0  0  0  0  0  0  0  0  0
   58.2296   27.6562   42.4596 H   0  0  0  0  0  0  0  0  0  0  0  0
   59.4493   26.6842   44.1126 H   0  0  0  0  0  0  0  0  0  0  0  0
   59.2653   28.2915   44.9225 H   0  0  0  0  0  0  0  0  0  0  0  0
   58.4930   26.9865   46.6441 H   0  0  0  0  0  0  0  0  0  0  0  0
   56.9532   27.1238   45.7226 H   0  0  0  0  0  0  0  0  0  0  0  0
   57.9255   23.4871   46.6248 H   0  0  0  0  0  0  0  0  0  0  0  0
   58.4179   24.9746   47.5376 H   0  0  0  0  0  0  0  0  0  0  0  0
   55.9162   23.7697   47.6522 H   0  0  0  0  0  0  0  0  0  0  0  0
   56.3104   25.4952   48.0914 H   0  0  0  0  0  0  0  0  0  0  0  0
   55.5546   23.4279   45.2886 H   0  0  0  0  0  0  0  0  0  0  0  0
   54.8222   24.7959   44.3678 H   0  0  0  0  0  0  0  0  0  0  0  0
   57.3759   23.9573   43.9728 H   0  0  0  0  0  0  0  0  0  0  0  0
   56.8459   25.6877   43.7858 H   0  0  0  0  0  0  0  0  0  0  0  0
   58.1214   30.5032   46.3842 H   0  0  0  0  0  0  0  0  0  0  0  0
   59.8857   31.9628   47.3702 H   0  0  0  0  0  0  0  0  0  0  0  0
  1  2  1  0
  2  3  2  0
  3  4  1  0
  4  5  2  0
  5  6  1  0
  6  7  1  0
  7  8  2  0
  7  9  1  0
  9 10  1  0
 10 11  1  0
 11 12  1  0
 12 13  1  0
 13 14  1  0
 14 15  1  0
 15 16  1  0
 16 17  1  0
 17 18  1  0
  5 19  1  0
 19 20  2  0
 20  2  1  0
 18 13  1  0
  1 21  1  0
  1 22  1  0
  1 23  1  0
  3 24  1  0
  4 25  1  0
  9 26  1  0
 10 27  1  0
 10 28  1  0
 11 29  1  0
 11 30  1  0
 12 31  1  0
 12 32  1  0
 14 33  1  0
 14 34  1  0
 15 35  1  0
 15 36  1  0
 17 37  1  0
 17 38  1  0
 18 39  1  0
 18 40  1  0
 19 41  1  0
 20 42  1  0
M  CHG  1   6  -1
M  END
>  <UniqueID>  (83) 
75

>  <SMILES>  (83) 
Cc1ccc([N-]C(=O)NCCCN2CCOCC2)cc1

>  <Energy>  (83) 
50.14456673181424

>  <Genealogy>  (83) 
Cc1ccc([N-]C(=O)NCCCN2CCOCC2)cc1 (protonated)
Cc1ccc([N-]C(=O)NCCCN2CCOCC2)cc1 (3D coordinates assigned)
Cc1ccc([N-]C(=O)NCCCN2CCOCC2)cc1 (nonaromatic ring conformer: 50.14456673181424 kcal/mol)

>  <smiles>  (83) 
Cc1ccc(NC(=O)NCCCN2CCOCC2)cc1

>  <score_type>  (83) 
oracle

>  <origin>  (83) 
adg

>  <m_score__min__energy>  (83) 
-9.1500000000000004

>  <m_primary>  (83) 
energy

$$$$
83:0
     RDKit          3D

 34 36  0  0  0  0  0  0  0  0999 V2000
   56.9757   34.0018   43.5345 H   0  0  0  0  0  0  0  0  0  0  0  0
   57.4090   33.6890   44.4960 C   0  0  0  0  0  0  0  0  0  0  0  0
   57.8680   34.5150   45.3890 N   0  0  0  0  0  0  0  0  0  0  0  0
   58.3320   33.7130   46.4670 C   0  0  0  0  0  0  0  0  0  0  0  0
   58.8920   34.1740   47.6140 N   0  0  0  0  0  0  0  0  0  0  0  0
   59.2950   33.2830   48.5680 C   0  0  0  0  0  0  0  0  0  0  0  0
   59.7513   33.6494   49.4994 H   0  0  0  0  0  0  0  0  0  0  0  0
   59.1300   31.8950   48.3670 C   0  0  0  0  0  0  0  0  0  0  0  0
   59.4540   31.1825   49.1399 H   0  0  0  0  0  0  0  0  0  0  0  0
   58.5500   31.4280   47.1750 C   0  0  0  0  0  0  0  0  0  0  0  0
   58.4117   30.3524   46.9908 H   0  0  0  0  0  0  0  0  0  0  0  0
   58.1570   32.3780   46.2360 C   0  0  0  0  0  0  0  0  0  0  0  0
   57.5380   32.2790   44.9250 C   0  0  0  0  0  0  0  0  0  0  0  0
   57.1860   31.1510   44.2920 C   0  0  0  0  0  0  0  0  0  0  0  0
   56.6481   31.2454   43.3371 H   0  0  0  0  0  0  0  0  0  0  0  0
   57.4710   29.7920   44.7890 C   0  0  0  0  0  0  0  0  0  0  0  0
   58.6650   29.3030   45.0350 O   0  0  0  0  0  0  0  0  0  0  0  0
   58.5370   28.0660   45.4630 C   0  0  0  0  0  0  0  0  0  0  0  0
   59.6570   27.2540   45.8190 N   0  0  0  0  0  0  0  0  0  0  0  0
   59.5530   26.2680   46.1380 H   0  0  0  0  0  0  0  0  0  0  0  0
   60.6190   27.6540   45.7600 H   0  0  0  0  0  0  0  0  0  0  0  0
   57.1930   27.7050   45.5080 C   0  0  0  0  0  0  0  0  0  0  0  0
   56.5750   26.4300   45.9210 C   0  0  0  0  0  0  0  0  0  0  0  0
   55.3220   26.3250   46.0080 O   0  0  0  0  0  0  0  0  0  0  0  0
   57.3940   25.3370   46.2250 O   0  0  0  0  0  0  0  0  0  0  0  0
   57.7950   24.3620   45.2630 C   0  0  0  0  0  0  0  0  0  0  0  0
   57.3428   23.3929   45.5207 H   0  0  0  0  0  0  0  0  0  0  0  0
   58.8923   24.2852   45.2728 H   0  0  0  0  0  0  0  0  0  0  0  0
   57.3440   24.7690   43.8650 C   0  0  0  0  0  0  0  0  0  0  0  0
   56.5294   25.5042   43.9420 H   0  0  0  0  0  0  0  0  0  0  0  0
   58.1903   25.2151   43.3220 H   0  0  0  0  0  0  0  0  0  0  0  0
   56.9869   23.8815   43.3220 H   0  0  0  0  0  0  0  0  0  0  0  0
   56.5240   28.8300   45.0700 C   0  0  0  0  0  0  0  0  0  0  0  0
   55.1480   28.9730   44.9370 O   0  0  0  0  0  0  0  0  0  0  0  0
  1  2  1  0
  2  3  2  0
  3  4  1  0
  4  5  2  0
  5  6  1  0
  6  7  1  0
  6  8  2  0
  8  9  1  0
  8 10  1  0
 10 11  1  0
 10 12  2  0
 12 13  1  0
 13 14  2  0
 14 15  1  0
 14 16  1  0
 16 17  1  0
 17 18  1  0
 18 19  1  0
 19 20  1  0
 19 21  1  0
 18 22  2  0
 22 23  1  0
 23 24  2  0
 23 25  1  0
 25 26  1  0
 26 27  1  0
 26 28  1  0
 26 29  1  0
 29 30  1  0
 29 31  1  0
 29 32  1  0
 22 33  1  0
 33 34  1  0
 13  2  1  0
 33 16  2  0
 12  4  1  0
M  CHG  1  34  -1
M  END
>  <UniqueID>  (84) 
76

>  <SMILES>  (84) 
CCOC(=O)c1c(N)oc(/C=C2\C=Nc3ncccc32)c1[O-]

>  <Energy>  (84) 
94.92852184434814

>  <Genealogy>  (84) 
CCOC(=O)c1c(N)oc(C=C2C=Nc3ncccc32)c1[O-] (protonated)
CCOC(=O)c1c(N)oc(/C=C2\C=Nc3ncccc32)c1[O-] (cis-trans isomerization)
CCOC(=O)c1c(N)oc(/C=C2\C=Nc3ncccc32)c1[O-] (3D coordinates assigned)
CCOC(=O)c1c(N)oc(/C=C2\C=Nc3ncccc32)c1[O-] (nonaromatic ring conformer: 94.92852184434814 kcal/mol)

>  <smiles>  (84) 
CCOC(=O)c1c(N)oc(C=C2C=Nc3ncccc32)c1O

>  <score_type>  (84) 
oracle

>  <origin>  (84) 
adg

>  <m_score__min__energy>  (84) 
-10.300000000000001

>  <m_primary>  (84) 
energy

$$$$
84:0
     RDKit          3D

 46 47  0  0  0  0  0  0  0  0999 V2000
   62.7924   31.0203   46.3292 H   0  0  0  0  0  0  0  0  0  0  0  0
   62.2150   31.4970   47.1350 C   0  0  0  0  0  0  0  0  0  0  0  0
   61.0420   30.9110   47.4730 C   0  0  0  0  0  0  0  0  0  0  0  0
   60.1570   30.2230   46.5120 C   0  0  0  0  0  0  0  0  0  0  0  0
   60.6860   29.2800   45.6150 C   0  0  0  0  0  0  0  0  0  0  0  0
   61.7492   29.0036   45.6725 H   0  0  0  0  0  0  0  0  0  0  0  0
   59.8630   28.6920   44.6490 C   0  0  0  0  0  0  0  0  0  0  0  0
   60.2743   27.9379   43.9619 H   0  0  0  0  0  0  0  0  0  0  0  0
   58.5180   29.0620   44.5560 C   0  0  0  0  0  0  0  0  0  0  0  0
   57.8696   28.5925   43.8016 H   0  0  0  0  0  0  0  0  0  0  0  0
   57.9970   30.0280   45.4210 C   0  0  0  0  0  0  0  0  0  0  0  0
   56.9406   30.3241   45.3414 H   0  0  0  0  0  0  0  0  0  0  0  0
   58.8170   30.6190   46.3880 C   0  0  0  0  0  0  0  0  0  0  0  0
   58.4103   31.3957   47.0524 H   0  0  0  0  0  0  0  0  0  0  0  0
   60.5650   30.9920   48.9060 C   0  0  0  0  0  0  0  0  0  0  0  0
   59.9857   30.0868   49.1406 H   0  0  0  0  0  0  0  0  0  0  0  0
   61.4476   31.0747   49.5572 H   0  0  0  0  0  0  0  0  0  0  0  0
   59.6820   32.2210   49.1400 C   0  0  0  0  0  0  0  0  0  0  0  0
   58.8599   32.2202   48.4092 H   0  0  0  0  0  0  0  0  0  0  0  0
   59.2807   32.1803   50.1634 H   0  0  0  0  0  0  0  0  0  0  0  0
   60.4640   33.4550   48.9860 N   0  0  0  0  0  0  0  0  0  0  0  0
   60.8760   33.7140   49.9140 H   0  0  0  0  0  0  0  0  0  0  0  0
   59.6440   34.5690   48.4920 C   0  0  0  0  0  0  0  0  0  0  0  0
   58.8217   34.7456   49.2009 H   0  0  0  0  0  0  0  0  0  0  0  0
   60.2922   35.4533   48.4039 H   0  0  0  0  0  0  0  0  0  0  0  0
   59.0590   34.2840   47.1290 C   0  0  0  0  0  0  0  0  0  0  0  0
   59.8180   34.5080   45.9680 C   0  0  0  0  0  0  0  0  0  0  0  0
   60.8373   34.9136   46.0493 H   0  0  0  0  0  0  0  0  0  0  0  0
   59.2820   34.2170   44.7090 C   0  0  0  0  0  0  0  0  0  0  0  0
   59.8788   34.3976   43.8028 H   0  0  0  0  0  0  0  0  0  0  0  0
   57.9890   33.6970   44.6010 C   0  0  0  0  0  0  0  0  0  0  0  0
   57.5687   33.4695   43.6102 H   0  0  0  0  0  0  0  0  0  0  0  0
   57.2300   33.4660   45.7520 C   0  0  0  0  0  0  0  0  0  0  0  0
   56.2130   33.0556   45.6661 H   0  0  0  0  0  0  0  0  0  0  0  0
   57.7620   33.7560   47.0130 C   0  0  0  0  0  0  0  0  0  0  0  0
   57.1630   33.5701   47.9167 H   0  0  0  0  0  0  0  0  0  0  0  0
   62.7870   32.6920   47.7300 N   0  0  0  0  0  0  0  0  0  0  0  0
   61.9960   33.1690   48.2270 H   0  0  0  0  0  0  0  0  0  0  0  0
   63.2860   33.6520   46.7330 C   0  0  0  0  0  0  0  0  0  0  0  0
   63.7345   34.5148   47.2472 H   0  0  0  0  0  0  0  0  0  0  0  0
   64.0452   33.1652   46.1032 H   0  0  0  0  0  0  0  0  0  0  0  0
   62.4514   33.9937   46.1032 H   0  0  0  0  0  0  0  0  0  0  0  0
   63.7940   32.3880   48.7610 C   0  0  0  0  0  0  0  0  0  0  0  0
   63.3497   32.5221   49.7583 H   0  0  0  0  0  0  0  0  0  0  0  0
   64.1326   31.3476   48.6473 H   0  0  0  0  0  0  0  0  0  0  0  0
   64.6517   33.0672   48.6473 H   0  0  0  0  0  0  0  0  0  0  0  0
  1  2  1  0
  2  3  2  0
  3  4  1  0
  4  5  2  0
  5  6  1  0
  5  7  1  0
  7  8  1  0
  7  9  2  0
  9 10  1  0
  9 11  1  0
 11 12  1  0
 11 13  2  0
 13 14  1  0
  3 15  1  0
 15 16  1  0
 15 17  1  0
 15 18  1  0
 18 19  1  0
 18 20  1  0
 18 21  1  0
 21 22  1  0
 21 23  1  0
 23 24  1  0
 23 25  1  0
 23 26  1  0
 26 27  2  0
 27 28  1  0
 27 29  1  0
 29 30  1  0
 29 31  2  0
 31 32  1  0
 31 33  1  0
 33 34  1  0
 33 35  2  0
 35 36  1  0
  2 37  1  0
 37 38  1  0
 37 39  1  0
 39 40  1  0
 39 41  1  0
 39 42  1  0
 37 43  1  0
 43 44  1  0
 43 45  1  0
 43 46  1  0
 13  4  1  0
 35 26  1  0
M  CHG  1  37   1
M  END
>  <UniqueID>  (85) 
77

>  <SMILES>  (85) 
C[NH+](C)/C=C(/CCNCc1ccccc1)c1ccccc1

>  <Energy>  (85) 
54.575587082535144

>  <Genealogy>  (85) 
C[NH+](C)C=C(CCNCc1ccccc1)c1ccccc1 (protonated)
C[NH+](C)/C=C(/CCNCc1ccccc1)c1ccccc1 (cis-trans isomerization)
C[NH+](C)/C=C(/CCNCc1ccccc1)c1ccccc1 (3D coordinates assigned)
C[NH+](C)/C=C(/CCNCc1ccccc1)c1ccccc1 (optimized conformer: 54.575587082535144 kcal/mol)

>  <smiles>  (85) 
CN(C)C=C(CCNCc1ccccc1)c1ccccc1

>  <score_type>  (85) 
oracle

>  <origin>  (85) 
adg

>  <m_score__min__energy>  (85) 
-5.1299999999999999

>  <m_primary>  (85) 
energy

$$$$
85:0
     RDKit          3D

 43 45  0  0  0  0  0  0  0  0999 V2000
   58.8980   31.4670   49.4070 C   0  0  0  0  0  0  0  0  0  0  0  0
   58.8940   32.9500   49.0510 C   0  0  0  0  0  0  0  0  0  0  0  0
   59.8590   33.2280   47.9810 N   0  0  0  0  0  0  0  0  0  0  0  0
   61.2760   33.1980   48.2330 C   0  0  0  0  0  0  0  0  0  0  0  0
   62.1610   32.6660   47.2790 C   0  0  0  0  0  0  0  0  0  0  0  0
   63.5360   32.6330   47.5350 C   0  0  0  0  0  0  0  0  0  0  0  0
   64.0360   33.1260   48.7430 C   0  0  0  0  0  0  0  0  0  0  0  0
   65.3690   33.0920   48.9890 F   0  0  0  0  0  0  0  0  0  0  0  0
   63.1620   33.6530   49.6980 C   0  0  0  0  0  0  0  0  0  0  0  0
   61.7880   33.6890   49.4450 C   0  0  0  0  0  0  0  0  0  0  0  0
   59.2720   33.5900   46.3830 S   0  0  0  0  0  0  0  0  0  0  0  0
   58.2450   34.6830   46.4700 O   0  0  0  0  0  0  0  0  0  0  0  0
   60.4010   34.0400   45.4980 O   0  0  0  0  0  0  0  0  0  0  0  0
   58.5600   32.1470   45.6820 C   0  0  0  0  0  0  0  0  0  0  0  0
   57.3630   32.0690   44.9820 C   0  0  0  0  0  0  0  0  0  0  0  0
   57.1090   30.7820   44.6420 N   0  0  0  0  0  0  0  0  0  0  0  0
   55.9060   30.3010   43.9630 C   0  0  0  0  0  0  0  0  0  0  0  0
   56.2670   29.6900   42.6140 C   0  0  0  0  0  0  0  0  0  0  0  0
   58.1260   30.0470   45.1420 C   0  0  0  0  0  0  0  0  0  0  0  0
   58.2990   28.6610   45.0890 C   0  0  0  0  0  0  0  0  0  0  0  0
   59.4400   28.1150   45.7050 C   0  0  0  0  0  0  0  0  0  0  0  0
   60.3720   28.9510   46.3590 C   0  0  0  0  0  0  0  0  0  0  0  0
   60.1720   30.3420   46.4020 C   0  0  0  0  0  0  0  0  0  0  0  0
   59.0340   30.8560   45.7800 C   0  0  0  0  0  0  0  0  0  0  0  0
   58.8983   31.3525   50.5010 H   0  0  0  0  0  0  0  0  0  0  0  0
   58.0011   30.9870   48.9884 H   0  0  0  0  0  0  0  0  0  0  0  0
   59.7974   30.9918   48.9884 H   0  0  0  0  0  0  0  0  0  0  0  0
   57.8874   33.2378   48.7135 H   0  0  0  0  0  0  0  0  0  0  0  0
   59.1771   33.5290   49.9424 H   0  0  0  0  0  0  0  0  0  0  0  0
   61.7710   32.2743   46.3280 H   0  0  0  0  0  0  0  0  0  0  0  0
   64.2246   32.2183   46.7841 H   0  0  0  0  0  0  0  0  0  0  0  0
   63.5559   34.0397   50.6495 H   0  0  0  0  0  0  0  0  0  0  0  0
   61.1037   34.1043   50.1995 H   0  0  0  0  0  0  0  0  0  0  0  0
   56.7166   32.9254   44.7394 H   0  0  0  0  0  0  0  0  0  0  0  0
   55.4175   29.5385   44.5874 H   0  0  0  0  0  0  0  0  0  0  0  0
   55.2244   31.1489   43.8003 H   0  0  0  0  0  0  0  0  0  0  0  0
   56.8207   28.7528   42.7723 H   0  0  0  0  0  0  0  0  0  0  0  0
   55.3471   29.4813   42.0481 H   0  0  0  0  0  0  0  0  0  0  0  0
   56.8937   30.3950   42.0481 H   0  0  0  0  0  0  0  0  0  0  0  0
   57.5657   28.0171   44.5814 H   0  0  0  0  0  0  0  0  0  0  0  0
   59.6077   27.0282   45.6771 H   0  0  0  0  0  0  0  0  0  0  0  0
   61.2595   28.5112   46.8375 H   0  0  0  0  0  0  0  0  0  0  0  0
   60.8895   31.0035   46.9096 H   0  0  0  0  0  0  0  0  0  0  0  0
  1  2  1  0
  2  3  1  0
  3  4  1  0
  4  5  2  0
  5  6  1  0
  6  7  2  0
  7  8  1  0
  7  9  1  0
  9 10  2  0
  3 11  1  0
 11 12  2  0
 11 13  2  0
 11 14  1  0
 14 15  2  0
 15 16  1  0
 16 17  1  0
 17 18  1  0
 16 19  1  0
 19 20  2  0
 20 21  1  0
 21 22  2  0
 22 23  1  0
 23 24  2  0
 10  4  1  0
 24 14  1  0
 24 19  1  0
  1 25  1  0
  1 26  1  0
  1 27  1  0
  2 28  1  0
  2 29  1  0
  5 30  1  0
  6 31  1  0
  9 32  1  0
 10 33  1  0
 15 34  1  0
 17 35  1  0
 17 36  1  0
 18 37  1  0
 18 38  1  0
 18 39  1  0
 20 40  1  0
 21 41  1  0
 22 42  1  0
 23 43  1  0
M  END
>  <UniqueID>  (86) 
78

>  <SMILES>  (86) 
CCN(c1ccc(F)cc1)S(=O)(=O)c1cn(CC)c2ccccc12

>  <Energy>  (86) 
76.46134764939599

>  <Genealogy>  (86) 
CCN(c1ccc(F)cc1)S(=O)(=O)c1cn(CC)c2ccccc12 (3D coordinates assigned)
CCN(c1ccc(F)cc1)S(=O)(=O)c1cn(CC)c2ccccc12 (optimized conformer: 76.46134764939599 kcal/mol)

>  <smiles>  (86) 
CCN(c1ccc(F)cc1)S(=O)(=O)c1cn(CC)c2ccccc12

>  <score_type>  (86) 
oracle

>  <origin>  (86) 
adg

>  <m_score__min__energy>  (86) 
-7.6299999999999999

>  <m_primary>  (86) 
energy

$$$$
86:0
     RDKit          3D

 56 59  0  0  0  0  0  0  0  0999 V2000
   66.2530   33.0460   50.1450 C   0  0  0  0  0  0  0  0  0  0  0  0
   65.2510   32.1170   49.7420 O   0  0  0  0  0  0  0  0  0  0  0  0
   64.0690   32.4680   49.0740 C   0  0  0  0  0  0  0  0  0  0  0  0
   63.7680   32.0050   47.7780 C   0  0  0  0  0  0  0  0  0  0  0  0
   62.5800   32.3920   47.1500 C   0  0  0  0  0  0  0  0  0  0  0  0
   61.6860   33.2530   47.8020 C   0  0  0  0  0  0  0  0  0  0  0  0
   60.4440   33.6660   47.1340 C   0  0  0  0  0  0  0  0  0  0  0  0
   60.2010   34.9650   46.7000 C   0  0  0  0  0  0  0  0  0  0  0  0
   59.0860   34.9800   45.9450 N   0  0  0  0  0  0  0  0  0  0  0  0
   58.6160   33.7460   45.8850 N   0  0  0  0  0  0  0  0  0  0  0  0
   57.5380   33.3150   45.1990 C   0  0  0  0  0  0  0  0  0  0  0  0
   56.8350   34.1130   44.5210 O   0  0  0  0  0  0  0  0  0  0  0  0
   57.2290   31.9990   45.2460 N   0  0  0  0  0  0  0  0  0  0  0  0
   57.9760   31.1310   45.9880 C   0  0  0  0  0  0  0  0  0  0  0  0
   57.6420   29.9160   45.9960 O   0  0  0  0  0  0  0  0  0  0  0  0
   59.0660   31.5740   46.7170 N   0  0  0  0  0  0  0  0  0  0  0  0
   59.7940   30.6440   47.6190 C   0  0  2  0  0  0  0  0  0  0  0  0
   60.3380   29.4380   46.8380 C   0  0  0  0  0  0  0  0  0  0  0  0
   58.9400   30.2470   48.7990 C   0  0  0  0  0  0  0  0  0  0  0  0
   58.9370   29.0420   49.1710 O   0  0  0  0  0  0  0  0  0  0  0  0
   58.1980   31.2330   49.5330 N   0  0  0  0  0  0  0  0  0  0  0  0
   58.4750   31.6970   50.8620 C   0  0  0  0  0  0  0  0  0  0  0  0
   59.5500   32.5650   51.1280 C   0  0  0  0  0  0  0  0  0  0  0  0
   59.8190   32.9950   52.4320 C   0  0  0  0  0  0  0  0  0  0  0  0
   60.8990   33.8660   52.6380 O   0  0  0  0  0  0  0  0  0  0  0  0
   62.1960   33.4550   53.0580 C   0  0  0  0  0  0  0  0  0  0  0  0
   59.0090   32.5370   53.4860 C   0  0  0  0  0  0  0  0  0  0  0  0
   57.9550   31.6550   53.2340 C   0  0  0  0  0  0  0  0  0  0  0  0
   57.6850   31.2240   51.9210 C   0  0  0  0  0  0  0  0  0  0  0  0
   56.6370   30.3350   51.6290 O   0  0  0  0  0  0  0  0  0  0  0  0
   55.2810   30.5300   52.0190 C   0  0  0  0  0  0  0  0  0  0  0  0
   59.3890   32.9100   46.5970 C   0  0  0  0  0  0  0  0  0  0  0  0
   61.9710   33.6930   49.1010 C   0  0  0  0  0  0  0  0  0  0  0  0
   63.1580   33.3070   49.7280 C   0  0  0  0  0  0  0  0  0  0  0  0
   66.2958   33.0856   51.2435 H   0  0  0  0  0  0  0  0  0  0  0  0
   67.2291   32.7262   49.7514 H   0  0  0  0  0  0  0  0  0  0  0  0
   66.0078   34.0435   49.7514 H   0  0  0  0  0  0  0  0  0  0  0  0
   64.4701   31.3366   47.2581 H   0  0  0  0  0  0  0  0  0  0  0  0
   62.3463   32.0198   46.1416 H   0  0  0  0  0  0  0  0  0  0  0  0
   60.8218   35.8418   46.9363 H   0  0  0  0  0  0  0  0  0  0  0  0
   58.6740   35.8100   45.4630 H   0  0  0  0  0  0  0  0  0  0  0  0
   60.6668   31.1692   48.0342 H   0  0  0  0  0  0  0  0  0  0  0  0
   60.6846   28.6696   47.5447 H   0  0  0  0  0  0  0  0  0  0  0  0
   59.5407   29.0212   46.2051 H   0  0  0  0  0  0  0  0  0  0  0  0
   61.1782   29.7598   46.2051 H   0  0  0  0  0  0  0  0  0  0  0  0
   60.1870   32.9099   50.3002 H   0  0  0  0  0  0  0  0  0  0  0  0
   62.2384   33.4416   54.1571 H   0  0  0  0  0  0  0  0  0  0  0  0
   62.4045   32.4468   52.6707 H   0  0  0  0  0  0  0  0  0  0  0  0
   62.9471   34.1591   52.6707 H   0  0  0  0  0  0  0  0  0  0  0  0
   59.2060   32.8747   54.5142 H   0  0  0  0  0  0  0  0  0  0  0  0
   57.3324   31.2952   54.0664 H   0  0  0  0  0  0  0  0  0  0  0  0
   55.2130   30.5398   53.1169 H   0  0  0  0  0  0  0  0  0  0  0  0
   54.9192   31.4894   51.6207 H   0  0  0  0  0  0  0  0  0  0  0  0
   54.6636   29.7114   51.6207 H   0  0  0  0  0  0  0  0  0  0  0  0
   61.2584   34.3440   49.6285 H   0  0  0  0  0  0  0  0  0  0  0  0
   63.3792   33.6651   50.7443 H   0  0  0  0  0  0  0  0  0  0  0  0
  1  2  1  0
  2  3  1  0
  3  4  2  0
  4  5  1  0
  5  6  2  0
  6  7  1  0
  7  8  1  0
  8  9  2  0
  9 10  1  0
 10 11  1  0
 11 12  2  0
 11 13  1  0
 13 14  1  0
 14 15  2  0
 14 16  1  0
 16 17  1  0
 17 18  1  0
 17 19  1  0
 19 20  2  0
 19 21  1  0
 21 22  1  0
 22 23  2  0
 23 24  1  0
 24 25  1  0
 25 26  1  0
 24 27  2  0
 27 28  1  0
 28 29  2  0
 29 30  1  0
 30 31  1  0
 16 32  1  0
  6 33  1  0
 33 34  2  0
 34  3  1  0
 32  7  2  0
 32 10  1  0
 29 22  1  0
  1 35  1  0
  1 36  1  0
  1 37  1  0
  4 38  1  0
  5 39  1  0
  8 40  1  0
  9 41  1  0
 17 42  1  1
 18 43  1  0
 18 44  1  0
 18 45  1  0
 23 46  1  0
 26 47  1  0
 26 48  1  0
 26 49  1  0
 27 50  1  0
 28 51  1  0
 31 52  1  0
 31 53  1  0
 31 54  1  0
 33 55  1  0
 34 56  1  0
M  CHG  3   9   1  13  -1  21  -1
M  END
>  <UniqueID>  (87) 
79

>  <SMILES>  (87) 
COc1ccc(-c2c[nH+]n3c(=O)[n-]c(=O)n([C@H](C)C(=O)[N-]c4cc(OC)ccc4OC)c23)cc1

>  <Energy>  (87) 
115.36713206907366

>  <Genealogy>  (87) 
COc1ccc(-c2c[nH+]n3c(=O)[n-]c(=O)n(C(C)C(=O)[N-]c4cc(OC)ccc4OC)c23)cc1 (protonated)
COc1ccc(-c2c[nH+]n3c(=O)[n-]c(=O)n([C@H](C)C(=O)[N-]c4cc(OC)ccc4OC)c23)cc1 (chirality)
COc1ccc(-c2c[nH+]n3c(=O)[n-]c(=O)n([C@H](C)C(=O)[N-]c4cc(OC)ccc4OC)c23)cc1 (3D coordinates assigned)
COc1ccc(-c2c[nH+]n3c(=O)[n-]c(=O)n([C@H](C)C(=O)[N-]c4cc(OC)ccc4OC)c23)cc1 (optimized conformer: 115.36713206907366 kcal/mol)

>  <smiles>  (87) 
COc1ccc(-c2cnn3c(=O)[nH]c(=O)n(C(C)C(=O)Nc4cc(OC)ccc4OC)c23)cc1

>  <score_type>  (87) 
oracle

>  <origin>  (87) 
adg

>  <m_score__min__energy>  (87) 
-8.0199999999999996

>  <m_primary>  (87) 
energy

$$$$
87:0
     RDKit          3D

 41 43  0  0  0  0  0  0  0  0999 V2000
   63.1800   32.7970   47.5340 C   0  0  0  0  0  0  0  0  0  0  0  0
   61.8420   32.6880   48.0090 O   0  0  0  0  0  0  0  0  0  0  0  0
   60.7120   33.1400   47.3110 C   0  0  0  0  0  0  0  0  0  0  0  0
   60.2970   34.4600   47.5060 C   0  0  0  0  0  0  0  0  0  0  0  0
   59.1780   34.9570   46.8360 C   0  0  0  0  0  0  0  0  0  0  0  0
   58.4630   34.1370   45.9600 C   0  0  0  0  0  0  0  0  0  0  0  0
   58.8610   32.8060   45.7460 C   0  0  0  0  0  0  0  0  0  0  0  0
   58.1030   31.9340   44.8120 C   0  0  0  0  0  0  0  0  0  0  0  0
   57.8840   32.3330   43.4810 C   0  0  0  0  0  0  0  0  0  0  0  0
   57.1600   31.5190   42.6090 C   0  0  0  0  0  0  0  0  0  0  0  0
   56.6550   30.2930   43.0460 C   0  0  0  0  0  0  0  0  0  0  0  0
   56.8840   29.8630   44.3640 C   0  0  0  0  0  0  0  0  0  0  0  0
   56.3580   28.6170   44.8490 N   0  0  0  0  0  0  0  0  0  0  0  0
   56.9950   27.8100   45.8560 C   0  0  0  0  0  0  0  0  0  0  0  0
   58.1200   28.1350   46.3190 O   0  0  0  0  0  0  0  0  0  0  0  0
   56.3800   26.6070   46.3280 N   0  0  0  0  0  0  0  0  0  0  0  0
   56.2110   25.3980   45.5750 C   0  0  0  0  0  0  0  0  0  0  0  0
   57.2330   24.8970   44.7470 C   0  0  0  0  0  0  0  0  0  0  0  0
   57.0240   23.7340   43.9980 C   0  0  0  0  0  0  0  0  0  0  0  0
   55.7930   23.0760   44.0550 C   0  0  0  0  0  0  0  0  0  0  0  0
   54.7650   23.5850   44.8530 C   0  0  0  0  0  0  0  0  0  0  0  0
   54.9700   24.7480   45.6030 C   0  0  0  0  0  0  0  0  0  0  0  0
   57.5890   30.6970   45.2440 C   0  0  0  0  0  0  0  0  0  0  0  0
   59.9900   32.3130   46.4280 C   0  0  0  0  0  0  0  0  0  0  0  0
   63.8693   32.8532   48.3894 H   0  0  0  0  0  0  0  0  0  0  0  0
   63.4251   31.9158   46.9228 H   0  0  0  0  0  0  0  0  0  0  0  0
   63.2792   33.7062   46.9228 H   0  0  0  0  0  0  0  0  0  0  0  0
   60.8564   35.1123   48.1927 H   0  0  0  0  0  0  0  0  0  0  0  0
   58.8584   35.9970   46.9982 H   0  0  0  0  0  0  0  0  0  0  0  0
   57.5828   34.5354   45.4342 H   0  0  0  0  0  0  0  0  0  0  0  0
   58.2861   33.2931   43.1252 H   0  0  0  0  0  0  0  0  0  0  0  0
   56.9864   31.8447   41.5728 H   0  0  0  0  0  0  0  0  0  0  0  0
   56.0759   29.6615   42.3562 H   0  0  0  0  0  0  0  0  0  0  0  0
   55.4190   28.3260   44.4980 H   0  0  0  0  0  0  0  0  0  0  0  0
   58.1983   25.4211   44.6887 H   0  0  0  0  0  0  0  0  0  0  0  0
   57.8301   23.3372   43.3633 H   0  0  0  0  0  0  0  0  0  0  0  0
   55.6329   22.1572   43.4717 H   0  0  0  0  0  0  0  0  0  0  0  0
   53.7934   23.0706   44.8915 H   0  0  0  0  0  0  0  0  0  0  0  0
   54.1531   25.1541   46.2176 H   0  0  0  0  0  0  0  0  0  0  0  0
   57.7423   30.3800   46.2861 H   0  0  0  0  0  0  0  0  0  0  0  0
   60.3111   31.2729   46.2699 H   0  0  0  0  0  0  0  0  0  0  0  0
  1  2  1  0
  2  3  1  0
  3  4  2  0
  4  5  1  0
  5  6  2  0
  6  7  1  0
  7  8  1  0
  8  9  2  0
  9 10  1  0
 10 11  2  0
 11 12  1  0
 12 13  1  0
 13 14  1  0
 14 15  2  0
 14 16  1  0
 16 17  1  0
 17 18  2  0
 18 19  1  0
 19 20  2  0
 20 21  1  0
 21 22  2  0
 12 23  2  0
  7 24  2  0
 24  3  1  0
 23  8  1  0
 22 17  1  0
  1 25  1  0
  1 26  1  0
  1 27  1  0
  4 28  1  0
  5 29  1  0
  6 30  1  0
  9 31  1  0
 10 32  1  0
 11 33  1  0
 13 34  1  0
 18 35  1  0
 19 36  1  0
 20 37  1  0
 21 38  1  0
 22 39  1  0
 23 40  1  0
 24 41  1  0
M  CHG  1  16  -1
M  END
>  <UniqueID>  (88) 
80

>  <SMILES>  (88) 
COc1cccc(-c2cccc(NC(=O)[N-]c3ccccc3)c2)c1

>  <Energy>  (88) 
56.5429548449254

>  <Genealogy>  (88) 
COc1cccc(-c2cccc(NC(=O)[N-]c3ccccc3)c2)c1 (protonated)
COc1cccc(-c2cccc(NC(=O)[N-]c3ccccc3)c2)c1 (3D coordinates assigned)
COc1cccc(-c2cccc(NC(=O)[N-]c3ccccc3)c2)c1 (optimized conformer: 56.5429548449254 kcal/mol)

>  <smiles>  (88) 
COc1cccc(-c2cccc(NC(=O)Nc3ccccc3)c2)c1

>  <score_type>  (88) 
oracle

>  <origin>  (88) 
adg

>  <m_score__min__energy>  (88) 
-10.01

>  <m_primary>  (88) 
energy

$$$$
88:0
     RDKit          3D

 33 35  0  0  0  0  0  0  0  0999 V2000
   60.3088   30.7235   48.8664 H   0  0  0  0  0  0  0  0  0  0  0  0
   59.9910   30.1580   47.9780 C   0  0  0  0  0  0  0  0  0  0  0  0
   60.5570   30.4380   46.7310 C   0  0  0  0  0  0  0  0  0  0  0  0
   61.3210   31.2240   46.6391 H   0  0  0  0  0  0  0  0  0  0  0  0
   60.1540   29.7210   45.6000 C   0  0  0  0  0  0  0  0  0  0  0  0
   60.6014   29.9450   44.6204 H   0  0  0  0  0  0  0  0  0  0  0  0
   59.1760   28.7120   45.7120 C   0  0  0  0  0  0  0  0  0  0  0  0
   58.7370   27.9640   44.6090 O   0  0  0  0  0  0  0  0  0  0  0  0
   57.7190   28.3820   43.7060 C   0  0  0  0  0  0  0  0  0  0  0  0
   57.3491   27.5137   43.1410 H   0  0  0  0  0  0  0  0  0  0  0  0
   58.1287   29.1239   43.0048 H   0  0  0  0  0  0  0  0  0  0  0  0
   56.5970   28.9890   44.4790 C   0  0  0  0  0  0  0  0  0  0  0  0
   55.9070   28.2620   45.2450 O   0  0  0  0  0  0  0  0  0  0  0  0
   56.2910   30.3820   44.2940 N   0  0  0  0  0  0  0  0  0  0  0  0
   57.0800   31.3920   44.5260 C   0  0  0  0  0  0  0  0  0  0  0  0
   57.3370   31.8190   45.7940 N   0  0  0  0  0  0  0  0  0  0  0  0
   58.1610   32.8730   46.0330 C   0  0  0  0  0  0  0  0  0  0  0  0
   58.4150   33.2990   47.3400 C   0  0  0  0  0  0  0  0  0  0  0  0
   57.9464   32.7811   48.1898 H   0  0  0  0  0  0  0  0  0  0  0  0
   59.2670   34.3860   47.5640 C   0  0  0  0  0  0  0  0  0  0  0  0
   59.4670   34.7226   48.5920 H   0  0  0  0  0  0  0  0  0  0  0  0
   59.8660   35.0470   46.4850 C   0  0  0  0  0  0  0  0  0  0  0  0
   60.5353   35.9006   46.6674 H   0  0  0  0  0  0  0  0  0  0  0  0
   59.6150   34.6240   45.1750 C   0  0  0  0  0  0  0  0  0  0  0  0
   60.0859   35.1444   44.3280 H   0  0  0  0  0  0  0  0  0  0  0  0
   58.7640   33.5380   44.9450 C   0  0  0  0  0  0  0  0  0  0  0  0
   58.5070   33.1100   43.6810 N   0  0  0  0  0  0  0  0  0  0  0  0
   57.6820   32.0560   43.4490 C   0  0  0  0  0  0  0  0  0  0  0  0
   57.4871   31.7247   42.4184 H   0  0  0  0  0  0  0  0  0  0  0  0
   58.6150   28.4390   46.9660 C   0  0  0  0  0  0  0  0  0  0  0  0
   57.8507   27.6539   47.0639 H   0  0  0  0  0  0  0  0  0  0  0  0
   59.0210   29.1590   48.0950 C   0  0  0  0  0  0  0  0  0  0  0  0
   58.5758   28.9382   49.0764 H   0  0  0  0  0  0  0  0  0  0  0  0
  1  2  1  0
  2  3  2  0
  3  4  1  0
  3  5  1  0
  5  6  1  0
  5  7  2  0
  7  8  1  0
  8  9  1  0
  9 10  1  0
  9 11  1  0
  9 12  1  0
 12 13  2  0
 12 14  1  0
 14 15  2  0
 15 16  1  0
 16 17  1  0
 17 18  2  0
 18 19  1  0
 18 20  1  0
 20 21  1  0
 20 22  2  0
 22 23  1  0
 22 24  1  0
 24 25  1  0
 24 26  2  0
 26 27  1  0
 27 28  2  0
 28 29  1  0
  7 30  1  0
 30 31  1  0
 30 32  2  0
 32 33  1  0
 32  2  1  0
 28 15  1  0
 26 17  1  0
M  CHG  1  16  -1
M  END
>  <UniqueID>  (89) 
81

>  <SMILES>  (89) 
O=C(COc1ccccc1)/N=c1/cnc2ccccc2[n-]1

>  <Energy>  (89) 
40.42625888383124

>  <Genealogy>  (89) 
O=C(COc1ccccc1)N=c1cnc2ccccc2[n-]1 (protonated)
O=C(COc1ccccc1)/N=c1/cnc2ccccc2[n-]1 (cis-trans isomerization)
O=C(COc1ccccc1)/N=c1/cnc2ccccc2[n-]1 (3D coordinates assigned)
O=C(COc1ccccc1)/N=c1/cnc2ccccc2[n-]1 (optimized conformer: 40.42625888383124 kcal/mol)

>  <smiles>  (89) 
O=C(COc1ccccc1)N=c1cnc2ccccc2[nH]1

>  <score_type>  (89) 
oracle

>  <origin>  (89) 
adg

>  <m_score__min__energy>  (89) 
-9.1400000000000006

>  <m_primary>  (89) 
energy

$$$$
89:0
     RDKit          3D

 32 33  0  0  0  0  0  0  0  0999 V2000
   57.8942   34.3148   47.6648 H   0  0  0  0  0  0  0  0  0  0  0  0
   58.7330   33.9180   47.0740 C   0  0  0  0  0  0  0  0  0  0  0  0
   58.9650   34.4780   45.7240 C   0  0  0  0  0  0  0  0  0  0  0  0
   59.7840   35.4290   45.6130 O   0  0  0  0  0  0  0  0  0  0  0  0
   59.4900   32.9530   47.6160 C   0  0  0  0  0  0  0  0  0  0  0  0
   58.9927   32.1701   48.2075 H   0  0  0  0  0  0  0  0  0  0  0  0
   58.5010   32.7880   43.9840 C   0  0  0  0  0  0  0  0  0  0  0  0
   59.3458   32.7049   43.2844 H   0  0  0  0  0  0  0  0  0  0  0  0
   60.9630   32.8870   47.4590 C   0  0  0  0  0  0  0  0  0  0  0  0
   61.6450   31.7690   47.9640 C   0  0  0  0  0  0  0  0  0  0  0  0
   61.0899   30.9650   48.4694 H   0  0  0  0  0  0  0  0  0  0  0  0
   63.0310   31.6820   47.8220 C   0  0  0  0  0  0  0  0  0  0  0  0
   63.5730   30.8124   48.2220 H   0  0  0  0  0  0  0  0  0  0  0  0
   63.7260   32.7000   47.1720 C   0  0  0  0  0  0  0  0  0  0  0  0
   64.8190   32.6440   47.0611 H   0  0  0  0  0  0  0  0  0  0  0  0
   63.0200   33.7920   46.6630 C   0  0  0  0  0  0  0  0  0  0  0  0
   63.5588   34.5973   46.1423 H   0  0  0  0  0  0  0  0  0  0  0  0
   61.6680   33.8650   46.8080 N   0  0  0  0  0  0  0  0  0  0  0  0
   61.1820   34.6800   46.3770 H   0  0  0  0  0  0  0  0  0  0  0  0
   58.2430   33.9880   44.5250 C   0  0  0  0  0  0  0  0  0  0  0  0
   57.4740   34.6268   44.0662 H   0  0  0  0  0  0  0  0  0  0  0  0
   57.7110   31.5660   44.2760 C   0  0  0  0  0  0  0  0  0  0  0  0
   56.6030   31.1740   43.4950 C   0  0  0  0  0  0  0  0  0  0  0  0
   56.3045   31.7789   42.6261 H   0  0  0  0  0  0  0  0  0  0  0  0
   55.8830   30.0210   43.8200 C   0  0  0  0  0  0  0  0  0  0  0  0
   55.0253   29.7178   43.2015 H   0  0  0  0  0  0  0  0  0  0  0  0
   56.2490   29.2520   44.9280 C   0  0  0  0  0  0  0  0  0  0  0  0
   55.5330   28.1050   45.2470 O   0  0  0  0  0  0  0  0  0  0  0  0
   57.3350   29.6400   45.7160 C   0  0  0  0  0  0  0  0  0  0  0  0
   57.6221   29.0367   46.5899 H   0  0  0  0  0  0  0  0  0  0  0  0
   58.0580   30.7930   45.3970 C   0  0  0  0  0  0  0  0  0  0  0  0
   58.9055   31.0977   46.0286 H   0  0  0  0  0  0  0  0  0  0  0  0
  1  2  1  0
  2  3  1  0
  3  4  2  0
  3  5  1  0
  5  6  1  0
  5  7  2  0
  7  8  1  0
  7  9  1  0
  9 10  2  0
 10 11  1  0
 10 12  1  0
 12 13  1  0
 12 14  2  0
 14 15  1  0
 14 16  1  0
 16 17  1  0
 16 18  2  0
 18 19  1  0
  2 20  2  0
 20 21  1  0
 20 22  1  0
 22 23  2  0
 23 24  1  0
 23 25  1  0
 25 26  1  0
 25 27  2  0
 27 28  1  0
 27 29  1  0
 29 30  1  0
 29 31  2  0
 31 32  1  0
 18  9  1  0
 31 22  1  0
M  CHG  2  18   1  28  -1
M  END
>  <UniqueID>  (90) 
82

>  <SMILES>  (90) 
O=C(/C=C/c1ccc([O-])cc1)/C=C/c1cccc[nH+]1

>  <Energy>  (90) 
38.23513373294021

>  <Genealogy>  (90) 
O=C(C=Cc1ccc([O-])cc1)C=Cc1cccc[nH+]1 (protonated)
O=C(/C=C/c1ccc([O-])cc1)/C=C/c1cccc[nH+]1 (cis-trans isomerization)
O=C(/C=C/c1ccc([O-])cc1)/C=C/c1cccc[nH+]1 (3D coordinates assigned)
O=C(/C=C/c1ccc([O-])cc1)/C=C/c1cccc[nH+]1 (optimized conformer: 38.23513373294021 kcal/mol)

>  <smiles>  (90) 
O=C(C=Cc1ccc(O)cc1)C=Cc1ccccn1

>  <score_type>  (90) 
oracle

>  <origin>  (90) 
adg

>  <m_score__min__energy>  (90) 
-8.8000000000000007

>  <m_primary>  (90) 
energy

$$$$
90:0
     RDKit          3D

 32 34  0  0  0  0  0  0  0  0999 V2000
   58.5660   31.6110   44.9710 O   0  0  0  0  0  0  0  0  0  0  0  0
   57.7260   30.6760   45.0450 C   0  0  0  0  0  0  0  0  0  0  0  0
   56.5220   30.7780   44.4120 N   0  0  0  0  0  0  0  0  0  0  0  0
   55.5970   29.7700   44.4740 C   0  0  0  0  0  0  0  0  0  0  0  0
   55.8610   28.6280   45.1780 N   0  0  0  0  0  0  0  0  0  0  0  0
   57.0560   28.5230   45.8190 C   0  0  0  0  0  0  0  0  0  0  0  0
   57.9910   29.5160   45.7640 C   0  0  0  0  0  0  0  0  0  0  0  0
   59.0870   29.0800   46.4790 C   0  0  0  0  0  0  0  0  0  0  0  0
   60.7470   29.9830   46.7550 Br  0  0  0  0  0  0  0  0  0  0  0  0
   58.7540   27.8110   46.9400 C   0  0  0  0  0  0  0  0  0  0  0  0
   57.4990   27.4770   46.5470 N   0  0  0  0  0  0  0  0  0  0  0  0
   56.8310   26.1890   46.7620 C   0  0  2  0  0  0  0  0  0  0  0  0
   57.7820   25.1430   46.7940 O   0  0  0  0  0  0  0  0  0  0  0  0
   57.4320   24.2120   45.7920 C   0  0  1  0  0  0  0  0  0  0  0  0
   57.7590   22.7880   46.2630 C   0  0  0  0  0  0  0  0  0  0  0  0
   57.2410   22.5540   47.5440 O   0  0  0  0  0  0  0  0  0  0  0  0
   55.9640   24.4230   45.4210 C   0  0  1  0  0  0  0  0  0  0  0  0
   55.1200   23.6990   46.2820 O   0  0  0  0  0  0  0  0  0  0  0  0
   55.8240   25.9100   45.6410 C   0  0  1  0  0  0  0  0  0  0  0  0
   54.5100   26.3120   45.9510 O   0  0  0  0  0  0  0  0  0  0  0  0
   54.6342   29.8800   43.9534 H   0  0  0  0  0  0  0  0  0  0  0  0
   55.1530   27.8630   45.2130 H   0  0  0  0  0  0  0  0  0  0  0  0
   59.4154   27.1680   47.5393 H   0  0  0  0  0  0  0  0  0  0  0  0
   56.3011   26.2381   47.7247 H   0  0  0  0  0  0  0  0  0  0  0  0
   58.0225   24.3660   44.8768 H   0  0  0  0  0  0  0  0  0  0  0  0
   57.3193   22.0659   45.5592 H   0  0  0  0  0  0  0  0  0  0  0  0
   58.8523   22.6720   46.2992 H   0  0  0  0  0  0  0  0  0  0  0  0
   56.7310   23.3680   47.7970 H   0  0  0  0  0  0  0  0  0  0  0  0
   55.6936   24.0871   44.4090 H   0  0  0  0  0  0  0  0  0  0  0  0
   55.4990   23.7880   47.1940 H   0  0  0  0  0  0  0  0  0  0  0  0
   56.0304   26.4939   44.7319 H   0  0  0  0  0  0  0  0  0  0  0  0
   54.0310   25.5440   46.3580 H   0  0  0  0  0  0  0  0  0  0  0  0
  1  2  2  0
  2  3  1  0
  3  4  2  0
  4  5  1  0
  5  6  1  0
  6  7  2  0
  7  8  1  0
  8  9  1  0
  8 10  2  0
 10 11  1  0
 11 12  1  0
 12 13  1  0
 13 14  1  0
 14 15  1  0
 15 16  1  0
 14 17  1  0
 17 18  1  0
 17 19  1  0
 19 20  1  0
  7  2  1  0
 19 12  1  0
 11  6  1  0
  4 21  1  0
  5 22  1  0
 10 23  1  0
 12 24  1  1
 14 25  1  6
 15 26  1  0
 15 27  1  0
 16 28  1  0
 17 29  1  6
 18 30  1  0
 19 31  1  6
 20 32  1  0
M  END
>  <UniqueID>  (91) 
83

>  <SMILES>  (91) 
O=c1nc[nH]c2c1c(Br)cn2[C@@H]1O[C@@H](CO)C(O)C1O

>  <Energy>  (91) 
74.14855967415048

>  <Genealogy>  (91) 
O=c1nc[nH]c2c1c(Br)cn2[C@@H]1O[C@@H](CO)C(O)C1O (chirality)
O=c1nc[nH]c2c1c(Br)cn2[C@@H]1O[C@@H](CO)C(O)C1O (3D coordinates assigned)
O=c1nc[nH]c2c1c(Br)cn2[C@@H]1O[C@@H](CO)C(O)C1O (nonaromatic ring conformer: 74.14855967415048 kcal/mol)

>  <smiles>  (91) 
O=c1nc[nH]c2c1c(Br)cn2C1OC(CO)C(O)C1O

>  <score_type>  (91) 
oracle

>  <origin>  (91) 
adg

>  <m_score__min__energy>  (91) 
-6.8799999999999999

>  <m_primary>  (91) 
energy

$$$$
91:0
     RDKit          3D

 48 50  0  0  0  0  0  0  0  0999 V2000
   59.2980   32.8330   49.9780 C   0  0  0  0  0  0  0  0  0  0  0  0
   59.8810   33.7910   49.1000 O   0  0  0  0  0  0  0  0  0  0  0  0
   59.5540   33.9240   47.7420 C   0  0  0  0  0  0  0  0  0  0  0  0
   60.0690   34.9590   46.9380 C   0  0  0  0  0  0  0  0  0  0  0  0
   59.6890   35.0610   45.5970 C   0  0  0  0  0  0  0  0  0  0  0  0
   58.8100   34.1300   45.0410 C   0  0  0  0  0  0  0  0  0  0  0  0
   58.3100   33.0670   45.8180 C   0  0  0  0  0  0  0  0  0  0  0  0
   57.3940   32.0420   45.2480 C   0  0  0  0  0  0  0  0  0  0  0  0
   56.2420   32.4030   44.8710 O   0  0  0  0  0  0  0  0  0  0  0  0
   57.7920   30.6540   45.1540 N   0  0  0  0  0  0  0  0  0  0  0  0
   56.9730   29.5680   44.6670 C   0  0  0  0  0  0  0  0  0  0  0  0
   55.6800   29.8410   43.6820 S   0  0  0  0  0  0  0  0  0  0  0  0
   57.3930   28.2040   44.8660 N   0  0  0  0  0  0  0  0  0  0  0  0
   58.2960   27.7850   45.9020 C   0  0  0  0  0  0  0  0  0  0  0  0
   58.1860   26.4910   46.4270 C   0  0  0  0  0  0  0  0  0  0  0  0
   59.0600   26.0580   47.4250 C   0  0  0  0  0  0  0  0  0  0  0  0
   60.0300   26.9250   47.9330 C   0  0  0  0  0  0  0  0  0  0  0  0
   60.1130   28.2500   47.4670 C   0  0  0  0  0  0  0  0  0  0  0  0
   61.0900   29.1690   47.9910 N   0  0  0  0  0  0  0  0  0  0  0  0
   61.2940   30.4980   47.4660 C   0  0  0  0  0  0  0  0  0  0  0  0
   60.7310   30.8390   46.3870 O   0  0  0  0  0  0  0  0  0  0  0  0
   62.1700   31.4800   48.1520 C   0  0  0  0  0  0  0  0  0  0  0  0
   62.7570   32.5210   47.4080 C   0  0  0  0  0  0  0  0  0  0  0  0
   63.6070   33.4450   48.0250 C   0  0  0  0  0  0  0  0  0  0  0  0
   63.8920   33.3330   49.3900 C   0  0  0  0  0  0  0  0  0  0  0  0
   63.3200   32.3030   50.1390 C   0  0  0  0  0  0  0  0  0  0  0  0
   62.4650   31.3780   49.5270 C   0  0  0  0  0  0  0  0  0  0  0  0
   59.2550   28.6670   46.4350 C   0  0  0  0  0  0  0  0  0  0  0  0
   58.6810   32.9880   47.1760 C   0  0  0  0  0  0  0  0  0  0  0  0
   59.4803   33.1325   51.0206 H   0  0  0  0  0  0  0  0  0  0  0  0
   58.2145   32.7802   49.7957 H   0  0  0  0  0  0  0  0  0  0  0  0
   59.7490   31.8464   49.7957 H   0  0  0  0  0  0  0  0  0  0  0  0
   60.7719   35.6887   47.3663 H   0  0  0  0  0  0  0  0  0  0  0  0
   60.0844   35.8788   44.9767 H   0  0  0  0  0  0  0  0  0  0  0  0
   58.5056   34.2273   43.9884 H   0  0  0  0  0  0  0  0  0  0  0  0
   58.7280   30.3900   45.5220 H   0  0  0  0  0  0  0  0  0  0  0  0
   57.0460   27.4770   44.1980 H   0  0  0  0  0  0  0  0  0  0  0  0
   57.4064   25.8124   46.0505 H   0  0  0  0  0  0  0  0  0  0  0  0
   58.9848   25.0313   47.8125 H   0  0  0  0  0  0  0  0  0  0  0  0
   60.7327   26.5701   48.7013 H   0  0  0  0  0  0  0  0  0  0  0  0
   61.7220   28.8140   48.7430 H   0  0  0  0  0  0  0  0  0  0  0  0
   62.5455   32.6086   46.3321 H   0  0  0  0  0  0  0  0  0  0  0  0
   64.0518   34.2607   47.4361 H   0  0  0  0  0  0  0  0  0  0  0  0
   64.5662   34.0558   49.8727 H   0  0  0  0  0  0  0  0  0  0  0  0
   63.5416   32.2178   51.2131 H   0  0  0  0  0  0  0  0  0  0  0  0
   62.0208   30.5669   50.1227 H   0  0  0  0  0  0  0  0  0  0  0  0
   59.3334   29.6908   46.0406 H   0  0  0  0  0  0  0  0  0  0  0  0
   58.2777   32.1774   47.8008 H   0  0  0  0  0  0  0  0  0  0  0  0
  1  2  1  0
  2  3  1  0
  3  4  2  0
  4  5  1  0
  5  6  2  0
  6  7  1  0
  7  8  1  0
  8  9  2  0
  8 10  1  0
 10 11  1  0
 11 12  2  0
 11 13  1  0
 13 14  1  0
 14 15  2  0
 15 16  1  0
 16 17  2  0
 17 18  1  0
 18 19  1  0
 19 20  1  0
 20 21  2  0
 20 22  1  0
 22 23  2  0
 23 24  1  0
 24 25  2  0
 25 26  1  0
 26 27  2  0
 18 28  2  0
  7 29  2  0
 29  3  1  0
 28 14  1  0
 27 22  1  0
  1 30  1  0
  1 31  1  0
  1 32  1  0
  4 33  1  0
  5 34  1  0
  6 35  1  0
 10 36  1  0
 13 37  1  0
 15 38  1  0
 16 39  1  0
 17 40  1  0
 19 41  1  0
 23 42  1  0
 24 43  1  0
 25 44  1  0
 26 45  1  0
 27 46  1  0
 28 47  1  0
 29 48  1  0
M  END
>  <UniqueID>  (92) 
84

>  <SMILES>  (92) 
COc1cccc(C(=O)NC(=S)Nc2cccc(NC(=O)c3ccccc3)c2)c1

>  <Energy>  (92) 
66.62448512738182

>  <Genealogy>  (92) 
COc1cccc(C(=O)NC(=S)Nc2cccc(NC(=O)c3ccccc3)c2)c1 (3D coordinates assigned)
COc1cccc(C(=O)NC(=S)Nc2cccc(NC(=O)c3ccccc3)c2)c1 (optimized conformer: 66.62448512738182 kcal/mol)

>  <smiles>  (92) 
COc1cccc(C(=O)NC(=S)Nc2cccc(NC(=O)c3ccccc3)c2)c1

>  <score_type>  (92) 
oracle

>  <origin>  (92) 
adg

>  <m_score__min__energy>  (92) 
-8.5199999999999996

>  <m_primary>  (92) 
energy

$$$$
92:0
     RDKit          3D

 36 37  0  0  0  0  0  0  0  0999 V2000
   57.3950   31.9600   41.8560 C   0  0  0  0  0  0  0  0  0  0  0  0
   57.0810   31.1650   43.0510 N   0  0  0  0  0  0  0  0  0  0  0  0
   56.2780   29.9450   42.9000 C   0  0  0  0  0  0  0  0  0  0  0  0
   57.5560   31.5800   44.3590 C   0  0  0  0  0  0  0  0  0  0  0  0
   57.0620   32.7510   44.9710 C   0  0  0  0  0  0  0  0  0  0  0  0
   57.5220   33.1500   46.2270 C   0  0  0  0  0  0  0  0  0  0  0  0
   58.4910   32.3960   46.9050 C   0  0  0  0  0  0  0  0  0  0  0  0
   58.9850   32.8210   48.2360 C   0  0  0  0  0  0  0  0  0  0  0  0
   58.4390   32.2510   49.3960 C   0  0  0  0  0  0  0  0  0  0  0  0
   58.8340   32.6800   50.6220 N   0  0  0  0  0  0  0  0  0  0  0  0
   59.7640   33.6580   50.7520 C   0  0  0  0  0  0  0  0  0  0  0  0
   60.3220   34.2180   49.6490 N   0  0  0  0  0  0  0  0  0  0  0  0
   59.9690   33.8210   48.3970 C   0  0  0  0  0  0  0  0  0  0  0  0
   60.6250   34.4180   47.2640 N   0  0  0  0  0  0  0  0  0  0  0  0
   61.8350   33.7910   46.7370 C   0  0  0  0  0  0  0  0  0  0  0  0
   59.8830   35.3320   46.3950 C   0  0  0  0  0  0  0  0  0  0  0  0
   58.9800   31.2240   46.3090 C   0  0  0  0  0  0  0  0  0  0  0  0
   58.5220   30.8220   45.0510 C   0  0  0  0  0  0  0  0  0  0  0  0
   57.7832   32.9429   42.1611 H   0  0  0  0  0  0  0  0  0  0  0  0
   58.1538   31.4362   41.2561 H   0  0  0  0  0  0  0  0  0  0  0  0
   56.4831   32.0961   41.2561 H   0  0  0  0  0  0  0  0  0  0  0  0
   56.0188   29.5513   43.8939 H   0  0  0  0  0  0  0  0  0  0  0  0
   55.3566   30.1787   42.3465 H   0  0  0  0  0  0  0  0  0  0  0  0
   56.8570   29.1911   42.3465 H   0  0  0  0  0  0  0  0  0  0  0  0
   56.3049   33.3572   44.4520 H   0  0  0  0  0  0  0  0  0  0  0  0
   57.1209   34.0640   46.6892 H   0  0  0  0  0  0  0  0  0  0  0  0
   57.6871   31.4525   49.3117 H   0  0  0  0  0  0  0  0  0  0  0  0
   60.0668   33.9981   51.7533 H   0  0  0  0  0  0  0  0  0  0  0  0
   62.4708   33.4616   47.5720 H   0  0  0  0  0  0  0  0  0  0  0  0
   61.5594   32.9223   46.1211 H   0  0  0  0  0  0  0  0  0  0  0  0
   62.3858   34.5171   46.1211 H   0  0  0  0  0  0  0  0  0  0  0  0
   59.3089   36.0392   47.0116 H   0  0  0  0  0  0  0  0  0  0  0  0
   60.5885   35.8880   45.7600 H   0  0  0  0  0  0  0  0  0  0  0  0
   59.1939   34.7559   45.7600 H   0  0  0  0  0  0  0  0  0  0  0  0
   59.7302   30.6162   46.8361 H   0  0  0  0  0  0  0  0  0  0  0  0
   58.9202   29.9032   44.5957 H   0  0  0  0  0  0  0  0  0  0  0  0
  1  2  1  0
  2  3  1  0
  2  4  1  0
  4  5  2  0
  5  6  1  0
  6  7  2  0
  7  8  1  0
  8  9  2  0
  9 10  1  0
 10 11  2  0
 11 12  1  0
 12 13  2  0
 13 14  1  0
 14 15  1  0
 14 16  1  0
  7 17  1  0
 17 18  2  0
 18  4  1  0
 13  8  1  0
  1 19  1  0
  1 20  1  0
  1 21  1  0
  3 22  1  0
  3 23  1  0
  3 24  1  0
  5 25  1  0
  6 26  1  0
  9 27  1  0
 11 28  1  0
 15 29  1  0
 15 30  1  0
 15 31  1  0
 16 32  1  0
 16 33  1  0
 16 34  1  0
 17 35  1  0
 18 36  1  0
M  END
>  <UniqueID>  (93) 
85

>  <SMILES>  (93) 
CN(C)c1ccc(-c2cncnc2N(C)C)cc1

>  <Energy>  (93) 
47.41124726360512

>  <Genealogy>  (93) 
CN(C)c1ccc(-c2cncnc2N(C)C)cc1 (3D coordinates assigned)
CN(C)c1ccc(-c2cncnc2N(C)C)cc1 (optimized conformer: 47.41124726360512 kcal/mol)

>  <smiles>  (93) 
CN(C)c1ccc(-c2cncnc2N(C)C)cc1

>  <score_type>  (93) 
oracle

>  <origin>  (93) 
adg

>  <m_score__min__energy>  (93) 
-5.4699999999999998

>  <m_primary>  (93) 
energy

$$$$
93:0
     RDKit          3D

 51 54  0  0  1  0  0  0  0  0999 V2000
   57.3350   21.4460   43.2400 C   0  0  0  0  0  0  0  0  0  0  0  0
   56.1900   22.0560   42.6070 N   0  0  0  0  0  0  0  0  0  0  0  0
   55.5320   23.0370   43.4320 C   0  0  0  0  0  0  0  0  0  0  0  0
   56.3360   23.3910   44.6540 C   0  0  0  0  0  0  0  0  0  0  0  0
   56.8440   24.8070   44.5600 C   0  0  0  0  0  0  0  0  0  0  0  0
   57.4030   25.1600   43.3520 C   0  0  0  0  0  0  0  0  0  0  0  0
   57.8770   26.4480   43.2270 C   0  0  0  0  0  0  0  0  0  0  0  0
   57.7970   27.3620   44.2790 C   0  0  0  0  0  0  0  0  0  0  0  0
   58.3220   28.6550   44.0210 N   0  0  0  0  0  0  0  0  0  0  0  0
   58.9590   29.3110   44.9250 C   0  0  0  0  0  0  0  0  0  0  0  0
   58.6770   30.5870   45.2420 N   0  0  0  0  0  0  0  0  0  0  0  0
   59.4010   31.1920   46.2020 C   0  0  0  0  0  0  0  0  0  0  0  0
   59.1650   32.4930   46.5760 C   0  0  0  0  0  0  0  0  0  0  0  0
   58.0720   33.2180   45.8750 C   0  0  0  0  0  0  0  0  0  0  0  0
   59.9130   33.1300   47.5720 C   0  0  0  0  0  0  0  0  0  0  0  0
   60.9190   32.4060   48.1900 C   0  0  0  0  0  0  0  0  0  0  0  0
   61.7180   33.0390   49.2330 C   0  0  0  0  0  0  0  0  0  0  0  0
   61.1870   33.2120   50.5020 C   0  0  0  0  0  0  0  0  0  0  0  0
   59.5410   32.6670   50.8710 Cl  0  0  0  0  0  0  0  0  0  0  0  0
   61.8980   33.8040   51.5230 C   0  0  0  0  0  0  0  0  0  0  0  0
   63.1940   34.2470   51.2830 C   0  0  0  0  0  0  0  0  0  0  0  0
   63.7350   34.0750   50.0070 C   0  0  0  0  0  0  0  0  0  0  0  0
   63.0130   33.4810   48.9950 C   0  0  0  0  0  0  0  0  0  0  0  0
   63.7200   33.2790   47.3980 Cl  0  0  0  0  0  0  0  0  0  0  0  0
   61.1770   31.0910   47.8300 C   0  0  0  0  0  0  0  0  0  0  0  0
   60.4080   30.4940   46.8320 C   0  0  0  0  0  0  0  0  0  0  0  0
   60.6870   29.2060   46.5070 N   0  0  0  0  0  0  0  0  0  0  0  0
   59.9540   28.6420   45.5580 N   0  0  0  0  0  0  0  0  0  0  0  0
   57.2340   26.9800   45.4710 C   0  0  0  0  0  0  0  0  0  0  0  0
   56.7430   25.6820   45.6320 C   0  0  0  0  0  0  0  0  0  0  0  0
   57.2245   21.5049   44.3328 H   0  0  0  0  0  0  0  0  0  0  0  0
   57.4042   20.3915   42.9348 H   0  0  0  0  0  0  0  0  0  0  0  0
   58.2488   21.9768   42.9348 H   0  0  0  0  0  0  0  0  0  0  0  0
   56.5580   22.5650   41.7520 H   0  0  0  0  0  0  0  0  0  0  0  0
   55.3726   23.9488   42.8377 H   0  0  0  0  0  0  0  0  0  0  0  0
   54.5788   22.6052   43.7711 H   0  0  0  0  0  0  0  0  0  0  0  0
   55.7003   23.2930   45.5464 H   0  0  0  0  0  0  0  0  0  0  0  0
   57.1959   22.7086   44.7240 H   0  0  0  0  0  0  0  0  0  0  0  0
   57.4685   24.4429   42.5205 H   0  0  0  0  0  0  0  0  0  0  0  0
   58.3293   26.7634   42.2752 H   0  0  0  0  0  0  0  0  0  0  0  0
   57.3951   33.6670   46.6168 H   0  0  0  0  0  0  0  0  0  0  0  0
   58.5027   34.0101   45.2448 H   0  0  0  0  0  0  0  0  0  0  0  0
   57.5097   32.5132   45.2448 H   0  0  0  0  0  0  0  0  0  0  0  0
   59.7086   34.1730   47.8553 H   0  0  0  0  0  0  0  0  0  0  0  0
   61.4449   33.9250   52.5180 H   0  0  0  0  0  0  0  0  0  0  0  0
   63.7812   34.7233   52.0820 H   0  0  0  0  0  0  0  0  0  0  0  0
   64.7595   34.4212   49.8056 H   0  0  0  0  0  0  0  0  0  0  0  0
   61.9794   30.5258   48.3266 H   0  0  0  0  0  0  0  0  0  0  0  0
   60.1870   27.6480   45.3240 H   0  0  0  0  0  0  0  0  0  0  0  0
   57.1692   27.6979   46.3019 H   0  0  0  0  0  0  0  0  0  0  0  0
   56.2892   25.3628   46.5818 H   0  0  0  0  0  0  0  0  0  0  0  0
  1  2  1  0
  2  3  1  0
  3  4  1  0
  4  5  1  0
  5  6  2  0
  6  7  1  0
  7  8  2  0
  8  9  1  0
  9 10  2  0
 10 11  1  0
 11 12  2  0
 12 13  1  0
 13 14  1  0
 13 15  2  0
 15 16  1  0
 16 17  1  0
 17 18  2  0
 18 19  1  0
 18 20  1  0
 20 21  2  0
 21 22  1  0
 22 23  2  0
 23 24  1  0
 16 25  2  0
 25 26  1  0
 26 27  2  0
 27 28  1  0
  8 29  1  0
 29 30  2  0
 30  5  1  0
 28 10  1  0
 26 12  1  0
 23 17  1  0
  1 31  1  0
  1 32  1  0
  1 33  1  0
  2 34  1  0
  3 35  1  0
  3 36  1  0
  4 37  1  0
  4 38  1  0
  6 39  1  0
  7 40  1  0
 14 41  1  0
 14 42  1  0
 14 43  1  0
 15 44  1  0
 20 45  1  0
 21 46  1  0
 22 47  1  0
 25 48  1  0
 28 49  1  0
 29 50  1  0
 30 51  1  0
M  END
>  <smiles>  (94) 
CNCCc1ccc(N=c2nc3c(C)cc(-c4c(Cl)cccc4Cl)cc3n[nH]2)cc1

>  <score_type>  (94) 
oracle

>  <origin>  (94) 
adg

>  <m_score__min__energy>  (94) 
-8.7300000000000004

>  <m_primary>  (94) 
energy

$$$$
94:0
     RDKit          3D

 35 37  0  0  0  0  0  0  0  0999 V2000
   56.5240   23.5030   43.0400 C   0  0  0  0  0  0  0  0  0  0  0  0
   55.5290   22.9600   43.9000 O   0  0  0  0  0  0  0  0  0  0  0  0
   55.7880   22.3310   45.1290 C   0  0  0  0  0  0  0  0  0  0  0  0
   55.7630   20.9250   45.2510 C   0  0  0  0  0  0  0  0  0  0  0  0
   56.0230   20.3140   46.4770 C   0  0  0  0  0  0  0  0  0  0  0  0
   56.3110   21.0880   47.5980 C   0  0  0  0  0  0  0  0  0  0  0  0
   56.3410   22.4800   47.4980 C   0  0  0  0  0  0  0  0  0  0  0  0
   56.0820   23.1190   46.2690 C   0  0  0  0  0  0  0  0  0  0  0  0
   56.1200   24.6040   46.2080 C   0  0  0  0  0  0  0  0  0  0  0  0
   55.0470   25.3850   45.9740 N   0  0  0  0  0  0  0  0  0  0  0  0
   55.4670   26.6370   46.0110 N   0  0  0  0  0  0  0  0  0  0  0  0
   56.7850   26.5860   46.2660 C   0  0  0  0  0  0  0  0  0  0  0  0
   57.8220   28.0370   46.4260 S   0  0  0  0  0  0  0  0  0  0  0  0
   57.4390   28.6760   44.7600 C   0  0  0  0  0  0  0  0  0  0  0  0
   56.3540   29.7020   44.8270 C   0  0  0  0  0  0  0  0  0  0  0  0
   55.1460   29.3410   44.8650 O   0  0  0  0  0  0  0  0  0  0  0  0
   56.6930   31.0900   44.8730 N   0  0  0  0  0  0  0  0  0  0  0  0
   58.0320   31.5720   44.5610 C   0  0  0  0  0  0  0  0  0  0  0  0
   58.0450   32.5890   43.4360 C   0  0  0  0  0  0  0  0  0  0  0  0
   58.2380   33.0410   44.8770 C   0  0  0  0  0  0  0  0  0  0  0  0
   57.2420   25.3270   46.3970 N   0  0  0  0  0  0  0  0  0  0  0  0
   57.3306   23.9432   43.6446 H   0  0  0  0  0  0  0  0  0  0  0  0
   56.9355   22.7044   42.4053 H   0  0  0  0  0  0  0  0  0  0  0  0
   56.0750   24.2812   42.4053 H   0  0  0  0  0  0  0  0  0  0  0  0
   55.5363   20.3056   44.3707 H   0  0  0  0  0  0  0  0  0  0  0  0
   56.0005   19.2173   46.5589 H   0  0  0  0  0  0  0  0  0  0  0  0
   56.5151   20.6020   48.5635 H   0  0  0  0  0  0  0  0  0  0  0  0
   56.5693   23.0846   48.3881 H   0  0  0  0  0  0  0  0  0  0  0  0
   58.3430   29.1332   44.3315 H   0  0  0  0  0  0  0  0  0  0  0  0
   57.0994   27.8412   44.1293 H   0  0  0  0  0  0  0  0  0  0  0  0
   58.5805   30.6457   44.7871 H   0  0  0  0  0  0  0  0  0  0  0  0
   58.8894   32.6199   42.7317 H   0  0  0  0  0  0  0  0  0  0  0  0
   57.3564   32.8577   42.6214 H   0  0  0  0  0  0  0  0  0  0  0  0
   59.2220   33.3986   45.2145 H   0  0  0  0  0  0  0  0  0  0  0  0
   57.7468   33.7719   45.5361 H   0  0  0  0  0  0  0  0  0  0  0  0
  1  2  1  0
  2  3  1  0
  3  4  2  0
  4  5  1  0
  5  6  2  0
  6  7  1  0
  7  8  2  0
  8  9  1  0
  9 10  2  0
 10 11  1  0
 11 12  1  0
 12 13  1  0
 13 14  1  0
 14 15  1  0
 15 16  2  0
 15 17  1  0
 17 18  1  0
 18 19  1  0
 19 20  1  0
 12 21  2  0
  8  3  1  0
 21  9  1  0
 20 18  1  0
  1 22  1  0
  1 23  1  0
  1 24  1  0
  4 25  1  0
  5 26  1  0
  6 27  1  0
  7 28  1  0
 14 29  1  0
 14 30  1  0
 18 31  1  0
 19 32  1  0
 19 33  1  0
 20 34  1  0
 20 35  1  0
M  CHG  2  11  -1  17  -1
M  END
>  <UniqueID>  (95) 
86

>  <SMILES>  (95) 
COc1ccccc1-c1n[n-]c(SCC(=O)[N-]C2CC2)n1

>  <Energy>  (95) 
327.4122836649153

>  <Genealogy>  (95) 
COc1ccccc1-c1n[n-]c(SCC(=O)[N-]C2CC2)n1 (protonated)
COc1ccccc1-c1n[n-]c(SCC(=O)[N-]C2CC2)n1 (3D coordinates assigned)
COc1ccccc1-c1n[n-]c(SCC(=O)[N-]C2CC2)n1 (nonaromatic ring conformer: 327.4122836649153 kcal/mol)

>  <smiles>  (95) 
COc1ccccc1-c1n[nH]c(SCC(=O)NC2CC2)n1

>  <score_type>  (95) 
oracle

>  <origin>  (95) 
adg

>  <m_score__min__energy>  (95) 
-10.84

>  <m_primary>  (95) 
energy

$$$$
