0:0
     RDKit          3D

 22 23  0  0  0  0  0  0  0  0999 V2000
   57.4260   27.8220   46.2480 S   0  0  0  0  0  0  0  0  0  0  0  0
   56.8210   28.8930   45.1650 C   0  0  0  0  0  0  0  0  0  0  0  0
   55.5060   28.9640   44.8730 N   0  0  0  0  0  0  0  0  0  0  0  0
   55.4270   29.9610   43.9670 C   0  0  0  0  0  0  0  0  0  0  0  0
   56.6830   30.4730   43.7290 C   0  0  0  0  0  0  0  0  0  0  0  0
   57.5640   29.7900   44.4800 N   0  0  0  0  0  0  0  0  0  0  0  0
   59.0000   30.0560   44.5790 C   0  0  0  0  0  0  0  0  0  0  0  0
   59.2690   31.0520   45.6730 C   0  0  0  0  0  0  0  0  0  0  0  0
   58.5840   32.2780   45.6920 C   0  0  0  0  0  0  0  0  0  0  0  0
   58.8070   33.1950   46.7240 C   0  0  0  0  0  0  0  0  0  0  0  0
   59.7110   32.8920   47.7480 C   0  0  0  0  0  0  0  0  0  0  0  0
   60.0120   34.1450   49.1580 Br  0  0  0  0  0  0  0  0  0  0  0  0
   60.3900   31.6690   47.7400 C   0  0  0  0  0  0  0  0  0  0  0  0
   60.1680   30.7510   46.7090 C   0  0  0  0  0  0  0  0  0  0  0  0
   54.4996   30.3117   43.4906 H   0  0  0  0  0  0  0  0  0  0  0  0
   56.9237   31.2984   43.0428 H   0  0  0  0  0  0  0  0  0  0  0  0
   59.5288   29.1179   44.8035 H   0  0  0  0  0  0  0  0  0  0  0  0
   59.3557   30.4678   43.6230 H   0  0  0  0  0  0  0  0  0  0  0  0
   57.8688   32.5180   44.8914 H   0  0  0  0  0  0  0  0  0  0  0  0
   58.2711   34.1556   46.7307 H   0  0  0  0  0  0  0  0  0  0  0  0
   61.0994   31.4292   48.5458 H   0  0  0  0  0  0  0  0  0  0  0  0
   60.7001   29.7883   46.7094 H   0  0  0  0  0  0  0  0  0  0  0  0
  1  2  2  0
  2  3  1  0
  3  4  1  0
  4  5  2  0
  5  6  1  0
  6  7  1  0
  7  8  1  0
  8  9  2  0
  9 10  1  0
 10 11  2  0
 11 12  1  0
 11 13  1  0
 13 14  2  0
  6  2  1  0
 14  8  1  0
  4 15  1  0
  5 16  1  0
  7 17  1  0
  7 18  1  0
  9 19  1  0
 10 20  1  0
 13 21  1  0
 14 22  1  0
M  CHG  1   3  -1
M  END
>  <UniqueID>  (1) 
1

>  <SMILES>  (1) 
S=c1[n-]ccn1Cc1ccc(Br)cc1

>  <Energy>  (1) 
51.074216831642154

>  <Genealogy>  (1) 
S=c1[n-]ccn1Cc1ccc(Br)cc1 (protonated)
S=c1[n-]ccn1Cc1ccc(Br)cc1 (3D coordinates assigned)
S=c1[n-]ccn1Cc1ccc(Br)cc1 (optimized conformer: 51.074216831642154 kcal/mol)

>  <smiles>  (1) 
S=c1[nH]ccn1Cc1ccc(Br)cc1

>  <score_type>  (1) 
oracle

>  <origin>  (1) 
adg

>  <m_score__min__energy>  (1) 
-7.3700000000000001

>  <m_primary>  (1) 
energy

$$$$
1:0
     RDKit          3D

 40 42  0  0  0  0  0  0  0  0999 V2000
   63.9080   32.7270   46.8120 N   0  0  0  0  0  0  0  0  0  0  0  0
   63.7330   32.7440   48.2340 C   0  0  0  0  0  0  0  0  0  0  0  0
   64.6420   33.4610   49.0290 C   0  0  0  0  0  0  0  0  0  0  0  0
   64.5390   33.4330   50.4220 C   0  0  0  0  0  0  0  0  0  0  0  0
   63.5330   32.6840   51.0350 C   0  0  0  0  0  0  0  0  0  0  0  0
   62.6180   31.9730   50.2560 C   0  0  0  0  0  0  0  0  0  0  0  0
   62.6940   32.0140   48.8560 C   0  0  0  0  0  0  0  0  0  0  0  0
   61.7190   31.2930   48.0900 N   0  0  0  0  0  0  0  0  0  0  0  0
   60.9110   31.9300   47.0860 C   0  0  0  0  0  0  0  0  0  0  0  0
   61.1160   33.1410   46.7950 O   0  0  0  0  0  0  0  0  0  0  0  0
   59.8450   31.1890   46.3690 C   0  0  0  0  0  0  0  0  0  0  0  0
   58.6490   31.8190   45.9810 C   0  0  0  0  0  0  0  0  0  0  0  0
   57.6580   31.1040   45.3020 C   0  0  0  0  0  0  0  0  0  0  0  0
   57.8470   29.7500   44.9910 C   0  0  0  0  0  0  0  0  0  0  0  0
   56.7750   28.9680   44.2830 C   0  0  0  0  0  0  0  0  0  0  0  0
   55.9350   28.2710   45.2510 N   0  0  0  0  0  0  0  0  0  0  0  0
   56.3630   27.1210   45.9890 C   0  0  0  0  0  0  0  0  0  0  0  0
   57.3780   27.1810   46.7320 O   0  0  0  0  0  0  0  0  0  0  0  0
   55.6150   25.8620   45.8830 C   0  0  0  0  0  0  0  0  0  0  0  0
   56.1480   24.5940   45.8780 C   0  0  0  0  0  0  0  0  0  0  0  0
   55.1470   23.7040   45.7680 N   0  0  0  0  0  0  0  0  0  0  0  0
   54.0340   24.4640   45.7090 C   0  0  0  0  0  0  0  0  0  0  0  0
   54.2770   25.7890   45.7760 N   0  0  0  0  0  0  0  0  0  0  0  0
   59.0420   29.1190   45.3700 C   0  0  0  0  0  0  0  0  0  0  0  0
   60.0340   29.8330   46.0470 C   0  0  0  0  0  0  0  0  0  0  0  0
   64.7860   32.3760   46.3720 H   0  0  0  0  0  0  0  0  0  0  0  0
   63.1790   33.1310   46.1830 H   0  0  0  0  0  0  0  0  0  0  0  0
   65.4402   34.0484   48.5518 H   0  0  0  0  0  0  0  0  0  0  0  0
   65.2518   34.0021   51.0368 H   0  0  0  0  0  0  0  0  0  0  0  0
   63.4611   32.6539   52.1322 H   0  0  0  0  0  0  0  0  0  0  0  0
   61.8325   31.3768   50.7434 H   0  0  0  0  0  0  0  0  0  0  0  0
   61.5200   30.3090   48.3760 H   0  0  0  0  0  0  0  0  0  0  0  0
   58.4921   32.8826   46.2136 H   0  0  0  0  0  0  0  0  0  0  0  0
   56.7242   31.6068   45.0099 H   0  0  0  0  0  0  0  0  0  0  0  0
   56.1533   29.6569   43.6923 H   0  0  0  0  0  0  0  0  0  0  0  0
   57.2492   28.2279   43.6217 H   0  0  0  0  0  0  0  0  0  0  0  0
   57.2178   24.3487   45.9519 H   0  0  0  0  0  0  0  0  0  0  0  0
   53.0224   24.0423   45.6150 H   0  0  0  0  0  0  0  0  0  0  0  0
   59.1985   28.0564   45.1327 H   0  0  0  0  0  0  0  0  0  0  0  0
   60.9705   29.3304   46.3305 H   0  0  0  0  0  0  0  0  0  0  0  0
  1  2  1  0
  2  3  2  0
  3  4  1  0
  4  5  2  0
  5  6  1  0
  6  7  2  0
  7  8  1  0
  8  9  1  0
  9 10  2  0
  9 11  1  0
 11 12  2  0
 12 13  1  0
 13 14  2  0
 14 15  1  0
 15 16  1  0
 16 17  1  0
 17 18  2  0
 17 19  1  0
 19 20  2  0
 20 21  1  0
 21 22  1  0
 22 23  2  0
 14 24  1  0
 24 25  2  0
  7  2  1  0
 25 11  1  0
 23 19  1  0
  1 26  1  0
  1 27  1  0
  3 28  1  0
  4 29  1  0
  5 30  1  0
  6 31  1  0
  8 32  1  0
 12 33  1  0
 13 34  1  0
 15 35  1  0
 15 36  1  0
 20 37  1  0
 22 38  1  0
 24 39  1  0
 25 40  1  0
M  CHG  2  16  -1  21  -1
M  END
>  <UniqueID>  (2) 
2

>  <SMILES>  (2) 
Nc1ccccc1NC(=O)c1ccc(C[N-]C(=O)c2c[n-]cn2)cc1

>  <Energy>  (2) 
75.42455497079841

>  <Genealogy>  (2) 
Nc1ccccc1NC(=O)c1ccc(C[N-]C(=O)c2c[n-]cn2)cc1 (protonated)
Nc1ccccc1NC(=O)c1ccc(C[N-]C(=O)c2c[n-]cn2)cc1 (3D coordinates assigned)
Nc1ccccc1NC(=O)c1ccc(C[N-]C(=O)c2c[n-]cn2)cc1 (optimized conformer: 75.42455497079841 kcal/mol)

>  <smiles>  (2) 
Nc1ccccc1NC(=O)c1ccc(CNC(=O)c2c[nH]cn2)cc1

>  <score_type>  (2) 
oracle

>  <origin>  (2) 
adg

>  <m_score__min__energy>  (2) 
-10.44

>  <m_primary>  (2) 
energy

$$$$
2:0
     RDKit          3D

 35 36  0  0  0  0  0  0  0  0999 V2000
   64.1010   33.3870   47.9320 C   0  0  0  0  0  0  0  0  0  0  0  0
   62.7010   33.2470   47.4330 C   0  0  0  0  0  0  0  0  0  0  0  0
   61.9260   32.1080   47.5160 C   0  0  0  0  0  0  0  0  0  0  0  0
   60.7280   32.4300   46.9140 C   0  0  0  0  0  0  0  0  0  0  0  0
   60.8520   33.7440   46.4950 C   0  0  0  0  0  0  0  0  0  0  0  0
   59.8030   34.5210   45.8010 C   0  0  0  0  0  0  0  0  0  0  0  0
   59.5860   35.7070   46.1650 O   0  0  0  0  0  0  0  0  0  0  0  0
   59.0160   33.9840   44.7270 N   0  0  0  0  0  0  0  0  0  0  0  0
   57.6460   33.4850   44.8160 C   0  0  0  0  0  0  0  0  0  0  0  0
   57.5560   32.2530   45.6830 C   0  0  0  0  0  0  0  0  0  0  0  0
   57.7790   32.3370   46.9200 O   0  0  0  0  0  0  0  0  0  0  0  0
   57.3330   30.9560   45.1140 N   0  0  0  0  0  0  0  0  0  0  0  0
   57.7990   29.7110   45.6460 C   0  0  0  0  0  0  0  0  0  0  0  0
   59.0310   29.6700   46.3080 C   0  0  0  0  0  0  0  0  0  0  0  0
   59.4910   28.4760   46.8700 C   0  0  0  0  0  0  0  0  0  0  0  0
   58.7160   27.3150   46.7880 C   0  0  0  0  0  0  0  0  0  0  0  0
   59.1900   26.1400   47.3620 O   0  0  0  0  0  0  0  0  0  0  0  0
   57.4680   27.3470   46.1410 C   0  0  0  0  0  0  0  0  0  0  0  0
   56.4600   25.9020   46.0400 S   0  0  0  0  0  0  0  0  0  0  0  0
   54.7880   26.3400   46.0060 N   0  0  0  0  0  0  0  0  0  0  0  0
   56.7190   25.0290   47.2360 O   0  0  0  0  0  0  0  0  0  0  0  0
   56.7800   25.1410   44.7850 O   0  0  0  0  0  0  0  0  0  0  0  0
   57.0060   28.5540   45.5960 C   0  0  0  0  0  0  0  0  0  0  0  0
   62.0410   34.1990   46.8160 O   0  0  0  0  0  0  0  0  0  0  0  0
   64.0999   33.3869   49.0320 H   0  0  0  0  0  0  0  0  0  0  0  0
   64.7067   32.5449   47.5658 H   0  0  0  0  0  0  0  0  0  0  0  0
   64.5280   34.3323   47.5658 H   0  0  0  0  0  0  0  0  0  0  0  0
   62.2055   31.1448   47.9679 H   0  0  0  0  0  0  0  0  0  0  0  0
   59.8520   31.7761   46.7915 H   0  0  0  0  0  0  0  0  0  0  0  0
   57.0076   34.2709   45.2459 H   0  0  0  0  0  0  0  0  0  0  0  0
   57.3123   33.2165   43.8028 H   0  0  0  0  0  0  0  0  0  0  0  0
   59.6406   30.5823   46.3865 H   0  0  0  0  0  0  0  0  0  0  0  0
   60.4660   28.4494   47.3786 H   0  0  0  0  0  0  0  0  0  0  0  0
   54.6550   27.1010   46.7080 H   0  0  0  0  0  0  0  0  0  0  0  0
   56.0128   28.5942   45.1249 H   0  0  0  0  0  0  0  0  0  0  0  0
  1  2  1  0
  2  3  2  0
  3  4  1  0
  4  5  2  0
  5  6  1  0
  6  7  2  0
  6  8  1  0
  8  9  1  0
  9 10  1  0
 10 11  2  0
 10 12  1  0
 12 13  1  0
 13 14  2  0
 14 15  1  0
 15 16  2  0
 16 17  1  0
 16 18  1  0
 18 19  1  0
 19 20  1  0
 19 21  2  0
 19 22  2  0
 18 23  2  0
  5 24  1  0
 24  2  1  0
 23 13  1  0
  1 25  1  0
  1 26  1  0
  1 27  1  0
  3 28  1  0
  4 29  1  0
  9 30  1  0
  9 31  1  0
 14 32  1  0
 15 33  1  0
 20 34  1  0
 23 35  1  0
M  CHG  4   8  -1  12  -1  17  -1  20  -1
M  END
>  <UniqueID>  (3) 
3

>  <SMILES>  (3) 
Cc1ccc(C(=O)[N-]CC(=O)[N-]c2ccc([O-])c(S([NH-])(=O)=O)c2)o1

>  <Energy>  (3) 
63.3115692230646

>  <Genealogy>  (3) 
Cc1ccc(C(=O)[N-]CC(=O)[N-]c2ccc([O-])c(S([NH-])(=O)=O)c2)o1 (protonated)
Cc1ccc(C(=O)[N-]CC(=O)[N-]c2ccc([O-])c(S([NH-])(=O)=O)c2)o1 (3D coordinates assigned)
Cc1ccc(C(=O)[N-]CC(=O)[N-]c2ccc([O-])c(S([NH-])(=O)=O)c2)o1 (optimized conformer: 63.3115692230646 kcal/mol)

>  <smiles>  (3) 
Cc1ccc(C(=O)NCC(=O)Nc2ccc(O)c(S(N)(=O)=O)c2)o1

>  <score_type>  (3) 
oracle

>  <origin>  (3) 
adg

>  <m_score__min__energy>  (3) 
-14.880000000000001

>  <m_primary>  (3) 
energy

$$$$
3:0
     RDKit          3D

 57 60  0  0  1  0  0  0  0  0999 V2000
   59.0800   34.5140   44.4970 C   0  0  0  0  0  0  0  0  0  0  0  0
   58.9930   33.9930   45.8970 C   0  0  0  0  0  0  0  0  0  0  0  0
   59.8220   34.4760   46.8940 C   0  0  0  0  0  0  0  0  0  0  0  0
   59.7650   34.0120   48.1940 C   0  0  0  0  0  0  0  0  0  0  0  0
   58.8190   33.0190   48.4660 C   0  0  0  0  0  0  0  0  0  0  0  0
   57.9840   32.5300   47.4690 C   0  0  0  0  0  0  0  0  0  0  0  0
   58.0500   32.9980   46.1800 C   0  0  0  0  0  0  0  0  0  0  0  0
   57.2250   32.5440   45.1190 N   0  0  0  0  0  0  0  0  0  0  0  0
   57.1960   31.2910   44.8140 C   0  0  0  0  0  0  0  0  0  0  0  0
   56.6530   30.9950   43.5590 C   0  0  0  0  0  0  0  0  0  0  0  0
   56.5750   29.6810   43.1470 C   0  0  0  0  0  0  0  0  0  0  0  0
   57.0330   28.7400   43.9890 N   0  0  0  0  0  0  0  0  0  0  0  0
   57.5580   29.0360   45.2020 C   0  0  0  0  0  0  0  0  0  0  0  0
   58.0160   27.9560   46.0500 N   0  0  0  0  0  0  0  0  0  0  0  0
   57.0200   27.0960   46.6200 C   0  0  0  0  0  0  0  0  0  0  0  0
   56.7280   25.8640   45.8820 C   0  0  0  0  0  0  0  0  0  0  0  0
   55.5460   25.3970   45.9850 O   0  0  0  0  0  0  0  0  0  0  0  0
   57.6160   25.1410   45.0620 N   0  0  0  0  0  0  0  0  0  0  0  0
   57.2760   23.9520   44.3600 C   0  0  0  0  0  0  0  0  0  0  0  0
   57.9980   22.8070   44.6870 C   0  0  0  0  0  0  0  0  0  0  0  0
   57.7740   21.5990   44.0920 C   0  0  0  0  0  0  0  0  0  0  0  0
   56.7890   21.5280   43.1280 C   0  0  0  0  0  0  0  0  0  0  0  0
   56.0610   22.6750   42.7950 C   0  0  0  0  0  0  0  0  0  0  0  0
   56.2940   23.8880   43.4010 C   0  0  0  0  0  0  0  0  0  0  0  0
   59.4410   27.8470   46.2030 C   0  0  0  0  0  0  0  0  0  0  0  0
   60.0980   28.9370   46.9210 C   0  0  0  0  0  0  0  0  0  0  0  0
   60.7550   30.0030   46.3680 C   0  0  0  0  0  0  0  0  0  0  0  0
   61.3610   30.9850   47.1230 C   0  0  0  0  0  0  0  0  0  0  0  0
   61.3270   30.9300   48.5070 C   0  0  0  0  0  0  0  0  0  0  0  0
   60.6610   29.8500   49.0770 C   0  0  0  0  0  0  0  0  0  0  0  0
   60.0640   28.8810   48.3210 C   0  0  0  0  0  0  0  0  0  0  0  0
   57.6470   30.3290   45.6340 N   0  0  0  0  0  0  0  0  0  0  0  0
   59.2611   35.5987   44.5200 H   0  0  0  0  0  0  0  0  0  0  0  0
   59.9073   34.0152   43.9709 H   0  0  0  0  0  0  0  0  0  0  0  0
   58.1355   34.3111   43.9709 H   0  0  0  0  0  0  0  0  0  0  0  0
   60.5533   35.2582   46.6422 H   0  0  0  0  0  0  0  0  0  0  0  0
   60.4310   34.4044   48.9766 H   0  0  0  0  0  0  0  0  0  0  0  0
   58.7344   32.6181   49.4868 H   0  0  0  0  0  0  0  0  0  0  0  0
   57.2516   31.7482   47.7187 H   0  0  0  0  0  0  0  0  0  0  0  0
   56.2914   31.8033   42.9064 H   0  0  0  0  0  0  0  0  0  0  0  0
   56.1539   29.4139   42.1665 H   0  0  0  0  0  0  0  0  0  0  0  0
   56.9630   27.7490   43.6530 H   0  0  0  0  0  0  0  0  0  0  0  0
   57.3592   26.8113   47.6269 H   0  0  0  0  0  0  0  0  0  0  0  0
   56.0860   27.6768   46.6033 H   0  0  0  0  0  0  0  0  0  0  0  0
   58.5880   25.5040   44.9620 H   0  0  0  0  0  0  0  0  0  0  0  0
   58.7809   22.8789   45.4563 H   0  0  0  0  0  0  0  0  0  0  0  0
   58.3597   20.7109   44.3719 H   0  0  0  0  0  0  0  0  0  0  0  0
   56.5773   20.5736   42.6237 H   0  0  0  0  0  0  0  0  0  0  0  0
   55.2784   22.6051   42.0252 H   0  0  0  0  0  0  0  0  0  0  0  0
   55.7117   24.7798   43.1261 H   0  0  0  0  0  0  0  0  0  0  0  0
   59.6498   26.9135   46.7461 H   0  0  0  0  0  0  0  0  0  0  0  0
   59.8499   27.8782   45.1823 H   0  0  0  0  0  0  0  0  0  0  0  0
   60.8017   30.0798   45.2717 H   0  0  0  0  0  0  0  0  0  0  0  0
   61.8755   31.8186   46.6225 H   0  0  0  0  0  0  0  0  0  0  0  0
   61.8043   31.7040   49.1260 H   0  0  0  0  0  0  0  0  0  0  0  0
   60.6133   29.7735   50.1733 H   0  0  0  0  0  0  0  0  0  0  0  0
   59.5496   28.0454   48.8181 H   0  0  0  0  0  0  0  0  0  0  0  0
  1  2  1  0
  2  3  2  0
  3  4  1  0
  4  5  2  0
  5  6  1  0
  6  7  2  0
  7  8  1  0
  8  9  2  0
  9 10  1  0
 10 11  2  0
 11 12  1  0
 12 13  1  0
 13 14  1  0
 14 15  1  0
 15 16  1  0
 16 17  2  0
 16 18  1  0
 18 19  1  0
 19 20  2  0
 20 21  1  0
 21 22  2  0
 22 23  1  0
 23 24  2  0
 14 25  1  0
 25 26  1  0
 26 27  2  0
 27 28  1  0
 28 29  2  0
 29 30  1  0
 30 31  2  0
 13 32  2  0
  7  2  1  0
 32  9  1  0
 24 19  1  0
 31 26  1  0
  1 33  1  0
  1 34  1  0
  1 35  1  0
  3 36  1  0
  4 37  1  0
  5 38  1  0
  6 39  1  0
 10 40  1  0
 11 41  1  0
 12 42  1  0
 15 43  1  0
 15 44  1  0
 18 45  1  0
 20 46  1  0
 21 47  1  0
 22 48  1  0
 23 49  1  0
 24 50  1  0
 25 51  1  0
 25 52  1  0
 27 53  1  0
 28 54  1  0
 29 55  1  0
 30 56  1  0
 31 57  1  0
M  END
>  <smiles>  (4) 
Cc1ccccc1N=c1cc[nH]c(N(CC(=O)Nc2ccccc2)Cc2ccccc2)n1

>  <score_type>  (4) 
oracle

>  <origin>  (4) 
adg

>  <m_score__min__energy>  (4) 
-9.6600000000000001

>  <m_primary>  (4) 
energy

$$$$
4:0
     RDKit          3D

 53 56  0  0  0  0  0  0  0  0999 V2000
   58.8960   22.1850   44.7460 C   0  0  0  0  0  0  0  0  0  0  0  0
   57.4500   22.5640   44.5480 C   0  0  0  0  0  0  0  0  0  0  0  0
   56.9430   22.6130   43.2370 C   0  0  0  0  0  0  0  0  0  0  0  0
   55.6260   23.0090   42.9940 C   0  0  0  0  0  0  0  0  0  0  0  0
   54.7960   23.3570   44.0580 C   0  0  0  0  0  0  0  0  0  0  0  0
   55.2740   23.2980   45.3680 C   0  0  0  0  0  0  0  0  0  0  0  0
   56.5910   22.8830   45.6310 C   0  0  0  0  0  0  0  0  0  0  0  0
   57.0360   22.8190   47.0410 C   0  0  0  0  0  0  0  0  0  0  0  0
   57.1230   21.6960   47.6000 O   0  0  0  0  0  0  0  0  0  0  0  0
   57.3440   23.9910   47.8060 N   0  0  0  0  0  0  0  0  0  0  0  0
   57.5770   25.3200   47.3130 C   0  0  0  0  0  0  0  0  0  0  0  0
   56.7170   25.9370   46.3870 C   0  0  0  0  0  0  0  0  0  0  0  0
   57.0020   27.2170   45.9020 C   0  0  0  0  0  0  0  0  0  0  0  0
   58.1500   27.8940   46.3230 C   0  0  0  0  0  0  0  0  0  0  0  0
   58.4440   29.1770   45.7520 N   0  0  0  0  0  0  0  0  0  0  0  0
   57.4970   30.1500   45.2940 C   0  0  0  0  0  0  0  0  0  0  0  0
   56.3450   29.7630   44.9620 O   0  0  0  0  0  0  0  0  0  0  0  0
   57.8030   31.5920   45.2680 C   0  0  0  0  0  0  0  0  0  0  0  0
   57.0190   32.5710   44.6830 C   0  0  0  0  0  0  0  0  0  0  0  0
   57.6560   33.7640   44.9500 C   0  0  0  0  0  0  0  0  0  0  0  0
   57.2000   35.0170   44.5530 O   0  0  0  0  0  0  0  0  0  0  0  0
   58.7810   33.5610   45.6610 N   0  0  0  0  0  0  0  0  0  0  0  0
   59.6860   34.5850   46.1770 C   0  0  0  0  0  0  0  0  0  0  0  0
   60.8100   33.9420   46.9450 C   0  0  0  0  0  0  0  0  0  0  0  0
   60.6250   33.5570   48.2840 C   0  0  0  0  0  0  0  0  0  0  0  0
   61.6790   32.9850   49.0040 C   0  0  0  0  0  0  0  0  0  0  0  0
   62.9270   32.8080   48.4010 C   0  0  0  0  0  0  0  0  0  0  0  0
   63.1230   33.2030   47.0740 C   0  0  0  0  0  0  0  0  0  0  0  0
   62.0700   33.7710   46.3470 C   0  0  0  0  0  0  0  0  0  0  0  0
   58.8720   32.2350   45.8770 C   0  0  0  0  0  0  0  0  0  0  0  0
   59.0270   27.2630   47.2180 C   0  0  0  0  0  0  0  0  0  0  0  0
   58.7390   25.9870   47.7110 C   0  0  0  0  0  0  0  0  0  0  0  0
   59.1159   22.1274   45.8223 H   0  0  0  0  0  0  0  0  0  0  0  0
   59.0858   21.2068   44.2801 H   0  0  0  0  0  0  0  0  0  0  0  0
   59.5412   22.9444   44.2801 H   0  0  0  0  0  0  0  0  0  0  0  0
   57.5917   22.3361   42.3929 H   0  0  0  0  0  0  0  0  0  0  0  0
   55.2439   23.0462   41.9632 H   0  0  0  0  0  0  0  0  0  0  0  0
   53.7620   23.6789   43.8650 H   0  0  0  0  0  0  0  0  0  0  0  0
   54.6142   23.5788   46.2021 H   0  0  0  0  0  0  0  0  0  0  0  0
   55.8152   25.4097   46.0424 H   0  0  0  0  0  0  0  0  0  0  0  0
   56.3183   27.6943   45.1845 H   0  0  0  0  0  0  0  0  0  0  0  0
   56.0835   32.4273   44.1224 H   0  0  0  0  0  0  0  0  0  0  0  0
   56.2940   35.1240   44.1080 H   0  0  0  0  0  0  0  0  0  0  0  0
   60.1018   35.1601   45.3366 H   0  0  0  0  0  0  0  0  0  0  0  0
   59.1276   35.2541   46.8482 H   0  0  0  0  0  0  0  0  0  0  0  0
   59.6482   33.7060   48.7673 H   0  0  0  0  0  0  0  0  0  0  0  0
   61.5250   32.6737   50.0477 H   0  0  0  0  0  0  0  0  0  0  0  0
   63.7544   32.3584   48.9696 H   0  0  0  0  0  0  0  0  0  0  0  0
   64.1065   33.0672   46.6004 H   0  0  0  0  0  0  0  0  0  0  0  0
   62.2295   34.0843   45.3047 H   0  0  0  0  0  0  0  0  0  0  0  0
   59.6702   31.7380   46.4479 H   0  0  0  0  0  0  0  0  0  0  0  0
   59.9475   27.7758   47.5339 H   0  0  0  0  0  0  0  0  0  0  0  0
   59.4314   25.5047   48.4167 H   0  0  0  0  0  0  0  0  0  0  0  0
  1  2  1  0
  2  3  2  0
  3  4  1  0
  4  5  2  0
  5  6  1  0
  6  7  2  0
  7  8  1  0
  8  9  2  0
  8 10  1  0
 10 11  1  0
 11 12  2  0
 12 13  1  0
 13 14  2  0
 14 15  1  0
 15 16  1  0
 16 17  2  0
 16 18  1  0
 18 19  1  0
 19 20  2  0
 20 21  1  0
 20 22  1  0
 22 23  1  0
 23 24  1  0
 24 25  2  0
 25 26  1  0
 26 27  2  0
 27 28  1  0
 28 29  2  0
 22 30  1  0
 14 31  1  0
 31 32  2  0
  7  2  1  0
 32 11  1  0
 30 18  2  0
 29 24  1  0
  1 33  1  0
  1 34  1  0
  1 35  1  0
  3 36  1  0
  4 37  1  0
  5 38  1  0
  6 39  1  0
 12 40  1  0
 13 41  1  0
 19 42  1  0
 21 43  1  0
 23 44  1  0
 23 45  1  0
 25 46  1  0
 26 47  1  0
 27 48  1  0
 28 49  1  0
 29 50  1  0
 30 51  1  0
 31 52  1  0
 32 53  1  0
M  CHG  2  10  -1  15  -1
M  END
>  <UniqueID>  (5) 
4

>  <SMILES>  (5) 
Cc1ccccc1C(=O)[N-]c1ccc([N-]C(=O)c2cc(O)n(Cc3ccccc3)c2)cc1

>  <Energy>  (5) 
96.35468700981143

>  <Genealogy>  (5) 
Cc1ccccc1C(=O)[N-]c1ccc([N-]C(=O)c2cc(O)n(Cc3ccccc3)c2)cc1 (protonated)
Cc1ccccc1C(=O)[N-]c1ccc([N-]C(=O)c2cc(O)n(Cc3ccccc3)c2)cc1 (3D coordinates assigned)
Cc1ccccc1C(=O)[N-]c1ccc([N-]C(=O)c2cc(O)n(Cc3ccccc3)c2)cc1 (optimized conformer: 96.35468700981143 kcal/mol)

>  <smiles>  (5) 
Cc1ccccc1C(=O)Nc1ccc(NC(=O)c2cc(O)n(Cc3ccccc3)c2)cc1

>  <score_type>  (5) 
oracle

>  <origin>  (5) 
adg

>  <m_score__min__energy>  (5) 
-11.710000000000001

>  <m_primary>  (5) 
energy

$$$$
5:0
     RDKit          3D

 56 59  0  0  0  0  0  0  0  0999 V2000
   50.3580   32.3350   50.8860 H   0  0  0  0  0  0  0  0  0  0  0  0
   51.3310   32.2770   51.2700 N   0  0  0  0  0  0  0  0  0  0  0  0
   51.6930   30.5990   51.4720 S   0  0  0  0  0  0  0  0  0  0  0  0
   51.6550   29.9140   50.1340 O   0  0  0  0  0  0  0  0  0  0  0  0
   50.6660   29.9650   52.3670 O   0  0  0  0  0  0  0  0  0  0  0  0
   53.2900   30.4290   52.1900 C   0  0  0  0  0  0  0  0  0  0  0  0
   53.4990   29.4910   53.2090 C   0  0  0  0  0  0  0  0  0  0  0  0
   52.6661   28.8616   53.5557 H   0  0  0  0  0  0  0  0  0  0  0  0
   54.7630   29.3540   53.7850 C   0  0  0  0  0  0  0  0  0  0  0  0
   54.9272   28.6072   54.5758 H   0  0  0  0  0  0  0  0  0  0  0  0
   55.8210   30.1630   53.3600 C   0  0  0  0  0  0  0  0  0  0  0  0
   56.8185   30.0408   53.8073 H   0  0  0  0  0  0  0  0  0  0  0  0
   55.6140   31.1330   52.3620 C   0  0  0  0  0  0  0  0  0  0  0  0
   56.6760   31.9820   51.8930 N   0  0  0  0  0  0  0  0  0  0  0  0
   57.7680   31.5960   51.3010 C   0  0  0  0  0  0  0  0  0  0  0  0
   57.7960   30.4740   50.5360 N   0  0  0  0  0  0  0  0  0  0  0  0
   58.9520   30.0630   49.9520 C   0  0  0  0  0  0  0  0  0  0  0  0
   58.9840   28.9940   49.2150 N   0  0  0  0  0  0  0  0  0  0  0  0
   58.9120   28.9750   47.7520 C   0  0  0  0  0  0  0  0  0  0  0  0
   57.8619   29.0916   47.4457 H   0  0  0  0  0  0  0  0  0  0  0  0
   59.5298   29.8005   47.3687 H   0  0  0  0  0  0  0  0  0  0  0  0
   59.4580   27.6580   47.1690 C   0  0  1  0  0  0  0  0  0  0  0  0
   59.9200   27.8677   46.1930 H   0  0  0  0  0  0  0  0  0  0  0  0
   60.4150   27.1290   48.0510 O   0  0  0  0  0  0  0  0  0  0  0  0
   60.3750   27.6750   48.8800 H   0  0  0  0  0  0  0  0  0  0  0  0
   58.3470   26.6540   46.9480 C   0  0  0  0  0  0  0  0  0  0  0  0
   57.0920   27.0770   46.4790 C   0  0  0  0  0  0  0  0  0  0  0  0
   56.9258   28.1382   46.2419 H   0  0  0  0  0  0  0  0  0  0  0  0
   56.0530   26.1560   46.3120 C   0  0  0  0  0  0  0  0  0  0  0  0
   54.8120   26.5840   45.8550 O   0  0  0  0  0  0  0  0  0  0  0  0
   56.2600   24.8070   46.6140 C   0  0  0  0  0  0  0  0  0  0  0  0
   55.4434   24.0827   46.4775 H   0  0  0  0  0  0  0  0  0  0  0  0
   57.5020   24.3760   47.0890 C   0  0  0  0  0  0  0  0  0  0  0  0
   57.6950   23.0380   47.4190 O   0  0  0  0  0  0  0  0  0  0  0  0
   58.5460   25.2940   47.2490 C   0  0  0  0  0  0  0  0  0  0  0  0
   59.5262   24.9510   47.6116 H   0  0  0  0  0  0  0  0  0  0  0  0
   60.0870   30.7780   50.1420 N   0  0  0  0  0  0  0  0  0  0  0  0
   60.0720   31.8990   50.9120 C   0  0  0  0  0  0  0  0  0  0  0  0
   61.1540   32.5930   51.1010 N   0  0  0  0  0  0  0  0  0  0  0  0
   61.4780   33.8180   50.3760 C   0  0  0  0  0  0  0  0  0  0  0  0
   61.0597   34.6832   50.9112 H   0  0  0  0  0  0  0  0  0  0  0  0
   62.5704   33.9262   50.3053 H   0  0  0  0  0  0  0  0  0  0  0  0
   60.8890   33.7490   48.9960 C   0  0  0  0  0  0  0  0  0  0  0  0
   61.4990   32.9600   48.0040 C   0  0  0  0  0  0  0  0  0  0  0  0
   62.4261   32.4135   48.2315 H   0  0  0  0  0  0  0  0  0  0  0  0
   60.9300   32.8680   46.7280 C   0  0  0  0  0  0  0  0  0  0  0  0
   61.4153   32.2569   45.9527 H   0  0  0  0  0  0  0  0  0  0  0  0
   59.7440   33.5530   46.4380 C   0  0  0  0  0  0  0  0  0  0  0  0
   59.2996   33.4827   45.4342 H   0  0  0  0  0  0  0  0  0  0  0  0
   59.1240   34.3270   47.4250 C   0  0  0  0  0  0  0  0  0  0  0  0
   58.1900   34.8617   47.1974 H   0  0  0  0  0  0  0  0  0  0  0  0
   59.6900   34.4220   48.7010 C   0  0  0  0  0  0  0  0  0  0  0  0
   59.1953   35.0254   49.4763 H   0  0  0  0  0  0  0  0  0  0  0  0
   58.9130   32.3010   51.4920 N   0  0  0  0  0  0  0  0  0  0  0  0
   54.3510   31.2410   51.7630 C   0  0  0  0  0  0  0  0  0  0  0  0
   54.1911   31.9675   50.9527 H   0  0  0  0  0  0  0  0  0  0  0  0
  1  2  1  0
  2  3  1  0
  3  4  2  0
  3  5  2  0
  3  6  1  0
  6  7  2  0
  7  8  1  0
  7  9  1  0
  9 10  1  0
  9 11  2  0
 11 12  1  0
 11 13  1  0
 13 14  1  0
 14 15  2  0
 15 16  1  0
 16 17  1  0
 17 18  2  3
 18 19  1  0
 19 20  1  0
 19 21  1  0
 19 22  1  0
 22 23  1  6
 22 24  1  0
 24 25  1  0
 22 26  1  0
 26 27  2  0
 27 28  1  0
 27 29  1  0
 29 30  1  0
 29 31  2  0
 31 32  1  0
 31 33  1  0
 33 34  1  0
 33 35  2  0
 35 36  1  0
 17 37  1  0
 37 38  1  0
 38 39  2  0
 39 40  1  0
 40 41  1  0
 40 42  1  0
 40 43  1  0
 43 44  2  0
 44 45  1  0
 44 46  1  0
 46 47  1  0
 46 48  2  0
 48 49  1  0
 48 50  1  0
 50 51  1  0
 50 52  2  0
 52 53  1  0
 38 54  1  0
 13 55  2  0
 55 56  1  0
 55  6  1  0
 54 15  1  0
 35 26  1  0
 52 43  1  0
M  CHG  6   2  -1  16  -1  30  -1  34  -1  37  -1  54  -1
M  END
>  <UniqueID>  (6) 
5

>  <SMILES>  (6) 
[NH-]S(=O)(=O)c1cccc(/N=c2\[n-]c(=NC[C@@H](O)c3cc([O-])cc([O-])c3)[n-]/c(=N\Cc3ccccc3)[n-]2)c1

>  <Energy>  (6) 
63.43619899661536

>  <Genealogy>  (6) 
[NH-]S(=O)(=O)c1cccc(N=c2[n-]c(=NCc3ccccc3)[n-]c(=NCC(O)c3cc([O-])cc([O-])c3)[n-]2)c1 (protonated)
[NH-]S(=O)(=O)c1cccc(N=c2[n-]c(=NCc3ccccc3)[n-]c(=NC[C@@H](O)c3cc([O-])cc([O-])c3)[n-]2)c1 (chirality)
[NH-]S(=O)(=O)c1cccc(/N=c2\[n-]c(=NC[C@@H](O)c3cc([O-])cc([O-])c3)[n-]/c(=N\Cc3ccccc3)[n-]2)c1 (cis-trans isomerization)
[NH-]S(=O)(=O)c1cccc(/N=c2\[n-]c(=NC[C@@H](O)c3cc([O-])cc([O-])c3)[n-]/c(=N\Cc3ccccc3)[n-]2)c1 (3D coordinates assigned)
[NH-]S(=O)(=O)c1cccc(/N=c2\[n-]c(=NC[C@@H](O)c3cc([O-])cc([O-])c3)[n-]/c(=N\Cc3ccccc3)[n-]2)c1 (optimized conformer: 63.43619899661536 kcal/mol)

>  <smiles>  (6) 
NS(=O)(=O)c1cccc(N=c2[nH]c(=NCc3ccccc3)[nH]c(=NCC(O)c3cc(O)cc(O)c3)[nH]2)c1

>  <score_type>  (6) 
oracle

>  <origin>  (6) 
adg

>  <m_score__min__energy>  (6) 
-22.390000000000001

>  <m_primary>  (6) 
energy

$$$$
6:0
     RDKit          3D

 44 46  0  0  0  0  0  0  0  0999 V2000
   65.2360   33.0410   49.5710 C   0  0  0  0  0  0  0  0  0  0  0  0
   64.3290   33.4700   48.5610 O   0  0  0  0  0  0  0  0  0  0  0  0
   62.9490   33.2200   48.5810 C   0  0  0  0  0  0  0  0  0  0  0  0
   62.2320   33.0300   49.7790 C   0  0  0  0  0  0  0  0  0  0  0  0
   60.8550   32.7960   49.7490 C   0  0  0  0  0  0  0  0  0  0  0  0
   60.1720   32.7570   48.5220 C   0  0  0  0  0  0  0  0  0  0  0  0
   58.7870   32.5370   48.4340 C   0  0  0  0  0  0  0  0  0  0  0  0
   58.1020   32.3430   49.4760 O   0  0  0  0  0  0  0  0  0  0  0  0
   58.1760   32.5340   47.2170 N   0  0  0  0  0  0  0  0  0  0  0  0
   58.8860   32.7620   46.0700 C   0  0  0  0  0  0  0  0  0  0  0  0
   58.3110   32.8360   44.9030 N   0  0  0  0  0  0  0  0  0  0  0  0
   57.0290   32.2550   44.4970 C   0  0  0  0  0  0  0  0  0  0  0  0
   57.1890   30.8500   43.8870 C   0  0  0  0  0  0  0  0  0  0  0  0
   55.8590   30.0980   43.7160 C   0  0  0  0  0  0  0  0  0  0  0  0
   55.5690   29.2580   44.8750 N   0  0  0  0  0  0  0  0  0  0  0  0
   56.4550   28.2500   45.3770 C   0  0  0  0  0  0  0  0  0  0  0  0
   56.0040   27.1020   45.6460 O   0  0  0  0  0  0  0  0  0  0  0  0
   57.8990   28.5350   45.5520 C   0  0  0  0  0  0  0  0  0  0  0  0
   58.3430   29.2030   46.7090 C   0  0  0  0  0  0  0  0  0  0  0  0
   59.7020   29.4580   46.9060 C   0  0  0  0  0  0  0  0  0  0  0  0
   60.6350   29.0580   45.9500 C   0  0  0  0  0  0  0  0  0  0  0  0
   60.2120   28.3980   44.7950 C   0  0  0  0  0  0  0  0  0  0  0  0
   58.8530   28.1320   44.5930 C   0  0  0  0  0  0  0  0  0  0  0  0
   58.4800   27.4920   43.4550 F   0  0  0  0  0  0  0  0  0  0  0  0
   60.2290   32.9490   46.1390 N   0  0  0  0  0  0  0  0  0  0  0  0
   60.8860   32.9490   47.3260 C   0  0  0  0  0  0  0  0  0  0  0  0
   62.2670   33.1700   47.3600 C   0  0  0  0  0  0  0  0  0  0  0  0
   64.8045   33.2451   50.5620 H   0  0  0  0  0  0  0  0  0  0  0  0
   65.4181   31.9613   49.4657 H   0  0  0  0  0  0  0  0  0  0  0  0
   66.1862   33.5851   49.4657 H   0  0  0  0  0  0  0  0  0  0  0  0
   62.7596   33.0661   50.7436 H   0  0  0  0  0  0  0  0  0  0  0  0
   60.3042   32.6419   50.6886 H   0  0  0  0  0  0  0  0  0  0  0  0
   57.1500   32.3460   47.1910 H   0  0  0  0  0  0  0  0  0  0  0  0
   56.3773   32.1846   45.3804 H   0  0  0  0  0  0  0  0  0  0  0  0
   56.5935   32.9080   43.7263 H   0  0  0  0  0  0  0  0  0  0  0  0
   57.6605   30.9518   42.8984 H   0  0  0  0  0  0  0  0  0  0  0  0
   57.8038   30.2633   44.5854 H   0  0  0  0  0  0  0  0  0  0  0  0
   55.0473   30.8300   43.5924 H   0  0  0  0  0  0  0  0  0  0  0  0
   55.9388   29.4505   42.8304 H   0  0  0  0  0  0  0  0  0  0  0  0
   57.6127   29.5272   47.4650 H   0  0  0  0  0  0  0  0  0  0  0  0
   60.0370   29.9754   47.8171 H   0  0  0  0  0  0  0  0  0  0  0  0
   61.7045   29.2626   46.1060 H   0  0  0  0  0  0  0  0  0  0  0  0
   60.9495   28.0859   44.0409 H   0  0  0  0  0  0  0  0  0  0  0  0
   62.8212   33.3055   46.4195 H   0  0  0  0  0  0  0  0  0  0  0  0
  1  2  1  0
  2  3  1  0
  3  4  2  0
  4  5  1  0
  5  6  2  0
  6  7  1  0
  7  8  2  0
  7  9  1  0
  9 10  1  0
 10 11  2  3
 11 12  1  0
 12 13  1  0
 13 14  1  0
 14 15  1  0
 15 16  1  0
 16 17  2  0
 16 18  1  0
 18 19  2  0
 19 20  1  0
 20 21  2  0
 21 22  1  0
 22 23  2  0
 23 24  1  0
 10 25  1  0
 25 26  1  0
 26 27  2  0
 27  3  1  0
 26  6  1  0
 23 18  1  0
  1 28  1  0
  1 29  1  0
  1 30  1  0
  4 31  1  0
  5 32  1  0
  9 33  1  0
 12 34  1  0
 12 35  1  0
 13 36  1  0
 13 37  1  0
 14 38  1  0
 14 39  1  0
 19 40  1  0
 20 41  1  0
 21 42  1  0
 22 43  1  0
 27 44  1  0
M  CHG  2  15  -1  25  -1
M  END
>  <UniqueID>  (7) 
6

>  <SMILES>  (7) 
COc1ccc2c(=O)[nH]c(=NCCC[N-]C(=O)c3ccccc3F)[n-]c2c1

>  <Energy>  (7) 
43.260212467034464

>  <Genealogy>  (7) 
COc1ccc2c(=O)[nH]c(=NCCC[N-]C(=O)c3ccccc3F)[n-]c2c1 (protonated)
COc1ccc2c(=O)[nH]c(=NCCC[N-]C(=O)c3ccccc3F)[n-]c2c1 (3D coordinates assigned)
COc1ccc2c(=O)[nH]c(=NCCC[N-]C(=O)c3ccccc3F)[n-]c2c1 (optimized conformer: 43.260212467034464 kcal/mol)

>  <smiles>  (7) 
COc1ccc2c(=O)[nH]c(=NCCCNC(=O)c3ccccc3F)[nH]c2c1

>  <score_type>  (7) 
oracle

>  <origin>  (7) 
adg

>  <m_score__min__energy>  (7) 
-11.619999999999999

>  <m_primary>  (7) 
energy

$$$$
7:0
     RDKit          3D

 35 37  0  0  0  0  0  0  0  0999 V2000
   59.0557   32.8721   48.0102 H   0  0  0  0  0  0  0  0  0  0  0  0
   58.6190   32.9660   47.0050 C   0  0  0  0  0  0  0  0  0  0  0  0
   57.7870   32.0270   46.4810 N   0  0  0  0  0  0  0  0  0  0  0  0
   57.3890   32.3630   45.2330 C   0  0  0  0  0  0  0  0  0  0  0  0
   56.5760   31.6530   44.5070 N   0  0  0  0  0  0  0  0  0  0  0  0
   56.3730   30.2350   44.6040 C   0  0  0  0  0  0  0  0  0  0  0  0
   55.2070   29.7820   44.4550 O   0  0  0  0  0  0  0  0  0  0  0  0
   57.4860   29.2830   44.8410 C   0  0  0  0  0  0  0  0  0  0  0  0
   58.8050   29.7060   44.6030 C   0  0  0  0  0  0  0  0  0  0  0  0
   58.9944   30.7320   44.2547 H   0  0  0  0  0  0  0  0  0  0  0  0
   59.8760   28.8350   44.8050 C   0  0  0  0  0  0  0  0  0  0  0  0
   60.9045   29.1753   44.6140 H   0  0  0  0  0  0  0  0  0  0  0  0
   59.6440   27.5330   45.2490 C   0  0  0  0  0  0  0  0  0  0  0  0
   60.4884   26.8429   45.3928 H   0  0  0  0  0  0  0  0  0  0  0  0
   58.3410   27.1050   45.5110 C   0  0  0  0  0  0  0  0  0  0  0  0
   58.1636   26.0747   45.8531 H   0  0  0  0  0  0  0  0  0  0  0  0
   57.2530   27.9810   45.3410 C   0  0  0  0  0  0  0  0  0  0  0  0
   55.9110   27.5590   45.6310 N   0  0  0  0  0  0  0  0  0  0  0  0
   55.4910   26.2310   45.9580 C   0  0  0  0  0  0  0  0  0  0  0  0
   54.2630   25.9550   45.9190 O   0  0  0  0  0  0  0  0  0  0  0  0
   56.4390   25.2630   46.4280 N   0  0  0  0  0  0  0  0  0  0  0  0
   57.0490   24.2190   45.6550 C   0  0  0  0  0  0  0  0  0  0  0  0
   58.3320   23.7210   45.9520 C   0  0  0  0  0  0  0  0  0  0  0  0
   58.9064   24.1481   46.7873 H   0  0  0  0  0  0  0  0  0  0  0  0
   58.8780   22.6850   45.1880 C   0  0  0  0  0  0  0  0  0  0  0  0
   59.8849   22.3060   45.4170 H   0  0  0  0  0  0  0  0  0  0  0  0
   58.1470   22.1300   44.1340 C   0  0  0  0  0  0  0  0  0  0  0  0
   58.5816   21.3210   43.5285 H   0  0  0  0  0  0  0  0  0  0  0  0
   56.8630   22.6040   43.8500 C   0  0  0  0  0  0  0  0  0  0  0  0
   56.2840   22.1619   43.0258 H   0  0  0  0  0  0  0  0  0  0  0  0
   56.3140   23.6390   44.6120 C   0  0  0  0  0  0  0  0  0  0  0  0
   55.2988   24.0007   44.3918 H   0  0  0  0  0  0  0  0  0  0  0  0
   58.0330   33.8310   44.7400 S   0  0  0  0  0  0  0  0  0  0  0  0
   58.8780   34.0540   46.1780 C   0  0  0  0  0  0  0  0  0  0  0  0
   59.5230   34.9111   46.4216 H   0  0  0  0  0  0  0  0  0  0  0  0
  1  2  1  0
  2  3  1  0
  3  4  1  0
  4  5  2  0
  5  6  1  0
  6  7  2  0
  6  8  1  0
  8  9  2  0
  9 10  1  0
  9 11  1  0
 11 12  1  0
 11 13  2  0
 13 14  1  0
 13 15  1  0
 15 16  1  0
 15 17  2  0
 17 18  1  0
 18 19  1  0
 19 20  2  0
 19 21  1  0
 21 22  1  0
 22 23  2  0
 23 24  1  0
 23 25  1  0
 25 26  1  0
 25 27  2  0
 27 28  1  0
 27 29  1  0
 29 30  1  0
 29 31  2  0
 31 32  1  0
  4 33  1  0
 33 34  1  0
 34 35  1  0
 34  2  2  0
 17  8  1  0
 31 22  1  0
M  CHG  3   3  -1  18  -1  21  -1
M  END
>  <UniqueID>  (8) 
7

>  <SMILES>  (8) 
O=C([N-]c1ccccc1)[N-]c1ccccc1C(=O)/N=c1\[n-]ccs1

>  <Energy>  (8) 
83.41275332562823

>  <Genealogy>  (8) 
O=C([N-]c1ccccc1)[N-]c1ccccc1C(=O)N=c1[n-]ccs1 (protonated)
O=C([N-]c1ccccc1)[N-]c1ccccc1C(=O)/N=c1\[n-]ccs1 (cis-trans isomerization)
O=C([N-]c1ccccc1)[N-]c1ccccc1C(=O)/N=c1\[n-]ccs1 (3D coordinates assigned)
O=C([N-]c1ccccc1)[N-]c1ccccc1C(=O)/N=c1\[n-]ccs1 (optimized conformer: 83.41275332562823 kcal/mol)

>  <smiles>  (8) 
O=C(Nc1ccccc1)Nc1ccccc1C(=O)N=c1[nH]ccs1

>  <score_type>  (8) 
oracle

>  <origin>  (8) 
adg

>  <m_score__min__energy>  (8) 
-13.77

>  <m_primary>  (8) 
energy

$$$$
8:0
     RDKit          3D

 31 32  0  0  0  0  0  0  0  0999 V2000
   58.4916   28.8380   46.1940 H   0  0  0  0  0  0  0  0  0  0  0  0
   57.7010   28.5080   45.5040 C   0  0  0  0  0  0  0  0  0  0  0  0
   56.7090   29.5170   45.0750 C   0  0  0  0  0  0  0  0  0  0  0  0
   55.4800   29.2460   45.1080 O   0  0  0  0  0  0  0  0  0  0  0  0
   57.1230   30.7470   44.4620 N   0  0  0  0  0  0  0  0  0  0  0  0
   57.7820   31.7300   45.0110 C   0  0  0  0  0  0  0  0  0  0  0  0
   58.5930   31.5780   46.2750 C   0  0  0  0  0  0  0  0  0  0  0  0
   58.3653   30.6003   46.7246 H   0  0  0  0  0  0  0  0  0  0  0  0
   59.6554   31.6605   46.0020 H   0  0  0  0  0  0  0  0  0  0  0  0
   58.2950   32.6570   47.2870 C   0  0  0  0  0  0  0  0  0  0  0  0
   58.0839   32.3346   48.3173 H   0  0  0  0  0  0  0  0  0  0  0  0
   58.2650   33.9830   47.0380 C   0  0  0  0  0  0  0  0  0  0  0  0
   57.6738   34.6044   47.7267 H   0  0  0  0  0  0  0  0  0  0  0  0
   58.9660   34.6980   45.9030 C   0  0  0  0  0  0  0  0  0  0  0  0
   58.4788   35.6732   45.7559 H   0  0  0  0  0  0  0  0  0  0  0  0
   60.0235   34.7902   46.1916 H   0  0  0  0  0  0  0  0  0  0  0  0
   58.9360   33.9370   44.5670 C   0  0  0  0  0  0  0  0  0  0  0  0
   58.9909   34.6640   43.7434 H   0  0  0  0  0  0  0  0  0  0  0  0
   59.7940   33.2489   44.5498 H   0  0  0  0  0  0  0  0  0  0  0  0
   57.6550   33.1010   44.4060 C   0  0  0  0  0  0  0  0  0  0  0  0
   56.8252   33.6286   44.8990 H   0  0  0  0  0  0  0  0  0  0  0  0
   57.4713   32.9752   43.3288 H   0  0  0  0  0  0  0  0  0  0  0  0
   57.7150   27.2230   45.1200 C   0  0  0  0  0  0  0  0  0  0  0  0
   58.1762   26.9912   44.1486 H   0  0  0  0  0  0  0  0  0  0  0  0
   57.1630   26.0960   45.8930 C   0  0  0  0  0  0  0  0  0  0  0  0
   57.9290   25.1450   46.4560 N   0  0  0  0  0  0  0  0  0  0  0  0
   57.0420   24.3830   47.1310 C   0  0  0  0  0  0  0  0  0  0  0  0
   57.3850   23.3660   47.7880 O   0  0  0  0  0  0  0  0  0  0  0  0
   55.7620   24.8040   47.0560 N   0  0  0  0  0  0  0  0  0  0  0  0
   55.8540   25.8960   46.2810 C   0  0  0  0  0  0  0  0  0  0  0  0
   54.7730   26.7100   45.9720 O   0  0  0  0  0  0  0  0  0  0  0  0
  1  2  1  0
  2  3  1  0
  3  4  2  0
  3  5  1  0
  5  6  2  0
  6  7  1  0
  7  8  1  0
  7  9  1  0
  7 10  1  0
 10 11  1  0
 10 12  2  0
 12 13  1  0
 12 14  1  0
 14 15  1  0
 14 16  1  0
 14 17  1  0
 17 18  1  0
 17 19  1  0
 17 20  1  0
 20 21  1  0
 20 22  1  0
  2 23  2  3
 23 24  1  0
 23 25  1  0
 25 26  1  0
 26 27  1  0
 27 28  2  0
 27 29  1  0
 29 30  1  0
 30 31  1  0
 20  6  1  0
 30 25  2  0
M  CHG  3  26  -1  29  -1  31  -1
M  END
>  <UniqueID>  (9) 
8

>  <SMILES>  (9) 
O=C(C=Cc1[n-]c(=O)[n-]c1[O-])/N=C1\CC=CCCC1

>  <Energy>  (9) 
76.01619768952975

>  <Genealogy>  (9) 
O=C(C=Cc1[n-]c(=O)[n-]c1[O-])N=C1CC=CCCC1 (protonated)
O=C(C=Cc1[n-]c(=O)[n-]c1[O-])/N=C1\CC=CCCC1 (cis-trans isomerization)
O=C(C=Cc1[n-]c(=O)[n-]c1[O-])/N=C1\CC=CCCC1 (3D coordinates assigned)
O=C(C=Cc1[n-]c(=O)[n-]c1[O-])/N=C1\CC=CCCC1 (nonaromatic ring conformer: 76.01619768952975 kcal/mol)

>  <smiles>  (9) 
O=C(C=Cc1[nH]c(=O)[nH]c1O)N=C1CC=CCCC1

>  <score_type>  (9) 
oracle

>  <origin>  (9) 
adg

>  <m_score__min__energy>  (9) 
-13.24

>  <m_primary>  (9) 
energy

$$$$
9:0
     RDKit          3D

 62 65  0  0  0  0  0  0  0  0999 V2000
   58.2560   34.2000   44.8450 C   0  0  0  0  0  0  0  0  0  0  0  0
   57.7860   32.8990   44.2590 C   0  0  0  0  0  0  0  0  0  0  0  0
   57.7950   32.7060   42.8700 C   0  0  0  0  0  0  0  0  0  0  0  0
   57.4100   31.4750   42.3260 C   0  0  0  0  0  0  0  0  0  0  0  0
   57.0140   30.4200   43.1650 C   0  0  0  0  0  0  0  0  0  0  0  0
   56.5580   29.1160   42.5760 C   0  0  0  0  0  0  0  0  0  0  0  0
   56.9970   30.6110   44.5600 C   0  0  0  0  0  0  0  0  0  0  0  0
   56.5760   29.5710   45.3970 O   0  0  0  0  0  0  0  0  0  0  0  0
   57.5800   28.2370   45.7630 S   0  0  0  0  0  0  0  0  0  0  0  0
   56.7660   27.1850   46.4640 O   0  0  0  0  0  0  0  0  0  0  0  0
   58.1580   27.6410   44.5080 O   0  0  0  0  0  0  0  0  0  0  0  0
   58.8790   28.7970   46.8110 C   0  0  0  0  0  0  0  0  0  0  0  0
   59.2620   30.1390   46.7750 C   0  0  0  0  0  0  0  0  0  0  0  0
   60.1840   30.6320   47.7000 C   0  0  0  0  0  0  0  0  0  0  0  0
   60.7660   29.7890   48.6710 C   0  0  0  0  0  0  0  0  0  0  0  0
   61.6470   30.3260   49.7000 N   0  0  0  0  0  0  0  0  0  0  0  0
   61.4450   29.9220   51.1050 C   0  0  0  0  0  0  0  0  0  0  0  0
   62.3210   30.7080   52.0820 C   0  0  0  0  0  0  0  0  0  0  0  0
   62.3690   32.1760   51.6700 C   0  0  0  0  0  0  0  0  0  0  0  0
   63.0400   32.3260   50.3590 N   0  0  2  0  0  0  0  0  0  0  0  0
   62.9990   33.7290   49.8580 C   0  0  0  0  0  0  0  0  0  0  0  0
   61.8100   34.1880   48.9430 C   0  0  0  0  0  0  0  0  0  0  0  0
   61.9880   33.8210   47.4710 C   0  0  0  0  0  0  0  0  0  0  0  0
   60.5930   33.8490   46.8510 C   0  0  0  0  0  0  0  0  0  0  0  0
   59.5890   33.9330   48.0020 C   0  0  0  0  0  0  0  0  0  0  0  0
   60.3810   33.7800   49.2930 C   0  0  0  0  0  0  0  0  0  0  0  0
   62.6490   31.3270   49.3840 C   0  0  0  0  0  0  0  0  0  0  0  0
   63.2830   31.2480   48.2950 O   0  0  0  0  0  0  0  0  0  0  0  0
   60.3980   28.4240   48.6670 C   0  0  0  0  0  0  0  0  0  0  0  0
   59.4600   27.9370   47.7510 C   0  0  0  0  0  0  0  0  0  0  0  0
   57.4040   31.8420   45.1010 C   0  0  0  0  0  0  0  0  0  0  0  0
   58.2333   34.1371   45.9430 H   0  0  0  0  0  0  0  0  0  0  0  0
   59.2842   34.4026   44.5106 H   0  0  0  0  0  0  0  0  0  0  0  0
   57.5947   35.0129   44.5106 H   0  0  0  0  0  0  0  0  0  0  0  0
   58.1059   33.5254   42.2052 H   0  0  0  0  0  0  0  0  0  0  0  0
   57.4176   31.3329   41.2352 H   0  0  0  0  0  0  0  0  0  0  0  0
   56.3124   28.4137   43.3862 H   0  0  0  0  0  0  0  0  0  0  0  0
   55.6660   29.2861   41.9552 H   0  0  0  0  0  0  0  0  0  0  0  0
   57.3616   28.6931   41.9552 H   0  0  0  0  0  0  0  0  0  0  0  0
   58.8357   30.8104   46.0150 H   0  0  0  0  0  0  0  0  0  0  0  0
   60.4618   31.6960   47.6717 H   0  0  0  0  0  0  0  0  0  0  0  0
   60.3899   30.0863   51.3693 H   0  0  0  0  0  0  0  0  0  0  0  0
   61.7273   28.8621   51.1876 H   0  0  0  0  0  0  0  0  0  0  0  0
   61.9006   30.6270   53.0953 H   0  0  0  0  0  0  0  0  0  0  0  0
   63.3401   30.2943   52.0684 H   0  0  0  0  0  0  0  0  0  0  0  0
   61.3427   32.5652   51.5978 H   0  0  0  0  0  0  0  0  0  0  0  0
   62.9363   32.7388   52.4259 H   0  0  0  0  0  0  0  0  0  0  0  0
   64.0530   32.1320   50.5500 H   0  0  0  0  0  0  0  0  0  0  0  0
   62.9943   34.3843   50.7415 H   0  0  0  0  0  0  0  0  0  0  0  0
   63.8745   33.7924   49.1951 H   0  0  0  0  0  0  0  0  0  0  0  0
   61.8930   35.2658   49.1468 H   0  0  0  0  0  0  0  0  0  0  0  0
   62.6412   34.5522   46.9724 H   0  0  0  0  0  0  0  0  0  0  0  0
   62.4556   32.8316   47.3592 H   0  0  0  0  0  0  0  0  0  0  0  0
   60.4893   34.7262   46.1955 H   0  0  0  0  0  0  0  0  0  0  0  0
   60.4170   32.9488   46.2438 H   0  0  0  0  0  0  0  0  0  0  0  0
   59.0761   34.9060   47.9861 H   0  0  0  0  0  0  0  0  0  0  0  0
   58.8238   33.1476   47.9146 H   0  0  0  0  0  0  0  0  0  0  0  0
   59.9735   34.4379   50.0747 H   0  0  0  0  0  0  0  0  0  0  0  0
   60.3329   32.7526   49.6830 H   0  0  0  0  0  0  0  0  0  0  0  0
   60.8552   27.7362   49.3936 H   0  0  0  0  0  0  0  0  0  0  0  0
   59.1775   26.8740   47.7691 H   0  0  0  0  0  0  0  0  0  0  0  0
   57.4236   31.9789   46.1923 H   0  0  0  0  0  0  0  0  0  0  0  0
  1  2  1  0
  2  3  2  0
  3  4  1  0
  4  5  2  0
  5  6  1  0
  5  7  1  0
  7  8  1  0
  8  9  1  0
  9 10  2  0
  9 11  2  0
  9 12  1  0
 12 13  2  0
 13 14  1  0
 14 15  2  0
 15 16  1  0
 16 17  1  0
 17 18  1  0
 18 19  1  0
 19 20  1  0
 20 21  1  0
 21 22  1  0
 22 23  1  0
 23 24  1  0
 24 25  1  0
 25 26  1  0
 20 27  1  0
 27 28  2  0
 15 29  1  0
 29 30  2  0
  7 31  2  0
 31  2  1  0
 30 12  1  0
 27 16  1  0
 26 22  1  0
  1 32  1  0
  1 33  1  0
  1 34  1  0
  3 35  1  0
  4 36  1  0
  6 37  1  0
  6 38  1  0
  6 39  1  0
 13 40  1  0
 14 41  1  0
 17 42  1  0
 17 43  1  0
 18 44  1  0
 18 45  1  0
 19 46  1  0
 19 47  1  0
 20 48  1  1
 21 49  1  0
 21 50  1  0
 22 51  1  0
 23 52  1  0
 23 53  1  0
 24 54  1  0
 24 55  1  0
 25 56  1  0
 25 57  1  0
 26 58  1  0
 26 59  1  0
 29 60  1  0
 30 61  1  0
 31 62  1  0
M  CHG  1  20   1
M  END
>  <UniqueID>  (10) 
9

>  <SMILES>  (10) 
Cc1ccc(C)c(OS(=O)(=O)c2ccc(N3CCC[N@H+](CC4CCCC4)C3=O)cc2)c1

>  <Energy>  (10) 
86.59971986865104

>  <Genealogy>  (10) 
Cc1ccc(C)c(OS(=O)(=O)c2ccc(N3CCC[NH+](CC4CCCC4)C3=O)cc2)c1 (protonated)
Cc1ccc(C)c(OS(=O)(=O)c2ccc(N3CCC[N@H+](CC4CCCC4)C3=O)cc2)c1 (chirality)
Cc1ccc(C)c(OS(=O)(=O)c2ccc(N3CCC[N@H+](CC4CCCC4)C3=O)cc2)c1 (3D coordinates assigned)
Cc1ccc(C)c(OS(=O)(=O)c2ccc(N3CCC[N@H+](CC4CCCC4)C3=O)cc2)c1 (nonaromatic ring conformer: 86.59971986865104 kcal/mol)

>  <smiles>  (10) 
Cc1ccc(C)c(OS(=O)(=O)c2ccc(N3CCCN(CC4CCCC4)C3=O)cc2)c1

>  <score_type>  (10) 
oracle

>  <origin>  (10) 
adg

>  <m_score__min__energy>  (10) 
-8.3200000000000003

>  <m_primary>  (10) 
energy

$$$$
10:0
     RDKit          3D

 36 38  0  0  0  0  0  0  0  0999 V2000
   54.0270   25.8880   45.7410 N   0  0  0  0  0  0  0  0  0  0  0  0
   55.5490   25.0880   45.9270 S   0  0  0  0  0  0  0  0  0  0  0  0
   55.8260   24.2800   44.6890 O   0  0  0  0  0  0  0  0  0  0  0  0
   55.4920   24.1720   47.1170 O   0  0  0  0  0  0  0  0  0  0  0  0
   56.8180   26.2820   46.1700 C   0  0  0  0  0  0  0  0  0  0  0  0
   57.8230   26.0750   47.1250 C   0  0  0  0  0  0  0  0  0  0  0  0
   58.8330   27.0260   47.2990 C   0  0  0  0  0  0  0  0  0  0  0  0
   58.8460   28.1850   46.5180 C   0  0  0  0  0  0  0  0  0  0  0  0
   57.8460   28.4000   45.5600 C   0  0  0  0  0  0  0  0  0  0  0  0
   57.8790   29.8430   44.5510 S   0  0  0  0  0  0  0  0  0  0  0  0
   59.2880   30.0800   44.0890 O   0  0  0  0  0  0  0  0  0  0  0  0
   56.9880   29.6680   43.3520 O   0  0  0  0  0  0  0  0  0  0  0  0
   57.3410   31.2210   45.4590 N   0  0  0  0  0  0  0  0  0  0  0  0
   58.0250   32.4830   45.5430 C   0  0  0  0  0  0  0  0  0  0  0  0
   57.5690   33.6050   44.8290 C   0  0  0  0  0  0  0  0  0  0  0  0
   58.2260   34.8310   44.9320 C   0  0  0  0  0  0  0  0  0  0  0  0
   59.3520   34.9650   45.7430 C   0  0  0  0  0  0  0  0  0  0  0  0
   59.9810   36.2030   45.8240 O   0  0  0  0  0  0  0  0  0  0  0  0
   59.8350   33.8580   46.4660 C   0  0  0  0  0  0  0  0  0  0  0  0
   60.9670   33.9770   47.2920 C   0  0  0  0  0  0  0  0  0  0  0  0
   61.4340   32.8770   48.0140 C   0  0  0  0  0  0  0  0  0  0  0  0
   60.7810   31.6480   47.9200 C   0  0  0  0  0  0  0  0  0  0  0  0
   59.6570   31.5090   47.1040 C   0  0  0  0  0  0  0  0  0  0  0  0
   59.1680   32.6060   46.3650 C   0  0  0  0  0  0  0  0  0  0  0  0
   56.8250   27.4520   45.3990 C   0  0  0  0  0  0  0  0  0  0  0  0
   54.0430   26.7230   46.3670 H   0  0  0  0  0  0  0  0  0  0  0  0
   57.8170   25.1623   47.7389 H   0  0  0  0  0  0  0  0  0  0  0  0
   59.6184   26.8618   48.0515 H   0  0  0  0  0  0  0  0  0  0  0  0
   59.6432   28.9303   46.6556 H   0  0  0  0  0  0  0  0  0  0  0  0
   56.6841   33.5149   44.1818 H   0  0  0  0  0  0  0  0  0  0  0  0
   57.8527   35.6991   44.3689 H   0  0  0  0  0  0  0  0  0  0  0  0
   61.4878   34.9428   47.3697 H   0  0  0  0  0  0  0  0  0  0  0  0
   62.3193   32.9798   48.6587 H   0  0  0  0  0  0  0  0  0  0  0  0
   61.1533   30.7848   48.4912 H   0  0  0  0  0  0  0  0  0  0  0  0
   59.1486   30.5359   47.0369 H   0  0  0  0  0  0  0  0  0  0  0  0
   56.0258   27.6278   44.6639 H   0  0  0  0  0  0  0  0  0  0  0  0
  1  2  1  0
  2  3  2  0
  2  4  2  0
  2  5  1  0
  5  6  2  0
  6  7  1  0
  7  8  2  0
  8  9  1  0
  9 10  1  0
 10 11  2  0
 10 12  2  0
 10 13  1  0
 13 14  1  0
 14 15  2  0
 15 16  1  0
 16 17  2  0
 17 18  1  0
 17 19  1  0
 19 20  2  0
 20 21  1  0
 21 22  2  0
 22 23  1  0
 23 24  2  0
  9 25  2  0
 25  5  1  0
 24 14  1  0
 24 19  1  0
  1 26  1  0
  6 27  1  0
  7 28  1  0
  8 29  1  0
 15 30  1  0
 16 31  1  0
 20 32  1  0
 21 33  1  0
 22 34  1  0
 23 35  1  0
 25 36  1  0
M  CHG  3   1  -1  13  -1  18  -1
M  END
>  <UniqueID>  (11) 
10

>  <SMILES>  (11) 
[NH-]S(=O)(=O)c1cccc(S(=O)(=O)[N-]c2ccc([O-])c3ccccc23)c1

>  <Energy>  (11) 
46.292433360557645

>  <Genealogy>  (11) 
[NH-]S(=O)(=O)c1cccc(S(=O)(=O)[N-]c2ccc([O-])c3ccccc23)c1 (protonated)
[NH-]S(=O)(=O)c1cccc(S(=O)(=O)[N-]c2ccc([O-])c3ccccc23)c1 (3D coordinates assigned)
[NH-]S(=O)(=O)c1cccc(S(=O)(=O)[N-]c2ccc([O-])c3ccccc23)c1 (optimized conformer: 46.292433360557645 kcal/mol)

>  <smiles>  (11) 
NS(=O)(=O)c1cccc(S(=O)(=O)Nc2ccc(O)c3ccccc23)c1

>  <score_type>  (11) 
oracle

>  <origin>  (11) 
adg

>  <m_score__min__energy>  (11) 
-13.289999999999999

>  <m_primary>  (11) 
energy

$$$$
11:0
     RDKit          3D

 24 24  0  0  0  0  0  0  0  0999 V2000
   56.2530   21.7870   42.2380 N   0  0  0  0  0  0  0  0  0  0  0  0
   56.2550   22.3140   43.4180 C   0  0  0  0  0  0  0  0  0  0  0  0
   55.8550   21.6540   44.5250 N   0  0  0  0  0  0  0  0  0  0  0  0
   55.9560   22.4360   45.6320 C   0  0  0  0  0  0  0  0  0  0  0  0
   56.4440   23.7260   45.4000 C   0  0  0  0  0  0  0  0  0  0  0  0
   56.6300   24.8090   46.3860 C   0  0  0  0  0  0  0  0  0  0  0  0
   57.0400   24.5090   47.5400 O   0  0  0  0  0  0  0  0  0  0  0  0
   56.3410   26.2260   46.0890 C   0  0  0  0  0  0  0  0  0  0  0  0
   55.1840   26.6960   46.2610 O   0  0  0  0  0  0  0  0  0  0  0  0
   57.3980   27.0750   45.6320 N   0  0  0  0  0  0  0  0  0  0  0  0
   57.6950   28.3840   46.2080 C   0  0  0  0  0  0  0  0  0  0  0  0
   58.0730   29.3960   45.1220 C   0  0  0  0  0  0  0  0  0  0  0  0
   56.6300   30.1550   44.3860 S   0  0  0  0  0  0  0  0  0  0  0  0
   55.2250   29.2660   44.8550 N   0  0  0  0  0  0  0  0  0  0  0  0
   56.7520   30.1380   42.8880 O   0  0  0  0  0  0  0  0  0  0  0  0
   56.4990   31.5750   44.8600 O   0  0  0  0  0  0  0  0  0  0  0  0
   56.7400   23.8850   43.7470 S   0  0  0  0  0  0  0  0  0  0  0  0
   56.6590   22.2930   41.4200 H   0  0  0  0  0  0  0  0  0  0  0  0
   55.6752   22.0812   46.6346 H   0  0  0  0  0  0  0  0  0  0  0  0
   56.8071   28.7492   46.7450 H   0  0  0  0  0  0  0  0  0  0  0  0
   58.5475   28.2763   46.8947 H   0  0  0  0  0  0  0  0  0  0  0  0
   58.6985   30.1819   45.5705 H   0  0  0  0  0  0  0  0  0  0  0  0
   58.6170   28.8595   44.3306 H   0  0  0  0  0  0  0  0  0  0  0  0
   55.5250   28.2760   45.0010 H   0  0  0  0  0  0  0  0  0  0  0  0
  1  2  2  3
  2  3  1  0
  3  4  1  0
  4  5  2  0
  5  6  1  0
  6  7  2  0
  6  8  1  0
  8  9  2  0
  8 10  1  0
 10 11  1  0
 11 12  1  0
 12 13  1  0
 13 14  1  0
 13 15  2  0
 13 16  2  0
  5 17  1  0
 17  2  1  0
  1 18  1  0
  4 19  1  0
 11 20  1  0
 11 21  1  0
 12 22  1  0
 12 23  1  0
 14 24  1  0
M  CHG  3   3  -1  10  -1  14  -1
M  END
>  <UniqueID>  (12) 
11

>  <SMILES>  (12) 
N=c1[n-]cc(C(=O)C(=O)[N-]CCS([NH-])(=O)=O)s1

>  <Energy>  (12) 
45.1486444568557

>  <Genealogy>  (12) 
N=c1[n-]cc(C(=O)C(=O)[N-]CCS([NH-])(=O)=O)s1 (protonated)
N=c1[n-]cc(C(=O)C(=O)[N-]CCS([NH-])(=O)=O)s1 (3D coordinates assigned)
N=c1[n-]cc(C(=O)C(=O)[N-]CCS([NH-])(=O)=O)s1 (optimized conformer: 45.1486444568557 kcal/mol)

>  <smiles>  (12) 
N=c1[nH]cc(C(=O)C(=O)NCCS(N)(=O)=O)s1

>  <score_type>  (12) 
oracle

>  <origin>  (12) 
adg

>  <m_score__min__energy>  (12) 
-12.49

>  <m_primary>  (12) 
energy

$$$$
12:0
     RDKit          3D

 36 37  0  0  0  0  0  0  0  0999 V2000
   55.4950   28.9650   44.8740 O   0  0  0  0  0  0  0  0  0  0  0  0
   56.6780   29.3910   44.9350 C   0  0  0  0  0  0  0  0  0  0  0  0
   57.8060   28.4110   45.0830 C   0  0  0  0  0  0  0  0  0  0  0  0
   57.4560   27.1380   44.4450 N   0  0  0  0  0  0  0  0  0  0  0  0
   56.8720   25.9950   45.6190 S   0  0  0  0  0  0  0  0  0  0  0  0
   57.7240   26.0220   46.8570 O   0  0  0  0  0  0  0  0  0  0  0  0
   55.4570   26.3390   45.9950 O   0  0  0  0  0  0  0  0  0  0  0  0
   56.9350   24.3810   44.9160 C   0  0  0  0  0  0  0  0  0  0  0  0
   56.5660   24.1720   43.5780 C   0  0  0  0  0  0  0  0  0  0  0  0
   56.6260   22.8900   43.0240 C   0  0  0  0  0  0  0  0  0  0  0  0
   57.0580   21.8120   43.8000 C   0  0  0  0  0  0  0  0  0  0  0  0
   57.4320   22.0130   45.1310 C   0  0  0  0  0  0  0  0  0  0  0  0
   57.3720   23.2940   45.6910 C   0  0  0  0  0  0  0  0  0  0  0  0
   57.7430   23.4730   46.9830 F   0  0  0  0  0  0  0  0  0  0  0  0
   56.9080   30.8050   44.8830 N   0  0  0  0  0  0  0  0  0  0  0  0
   58.1230   31.4190   44.3640 C   0  0  0  0  0  0  0  0  0  0  0  0
   58.5450   32.5450   45.2710 C   0  0  0  0  0  0  0  0  0  0  0  0
   58.5380   33.8640   44.7870 C   0  0  0  0  0  0  0  0  0  0  0  0
   58.9140   34.9240   45.6160 C   0  0  0  0  0  0  0  0  0  0  0  0
   59.2900   34.6800   46.9380 C   0  0  0  0  0  0  0  0  0  0  0  0
   59.2820   33.3760   47.4370 C   0  0  0  0  0  0  0  0  0  0  0  0
   58.9080   32.3060   46.6140 C   0  0  0  0  0  0  0  0  0  0  0  0
   58.9110   30.6830   47.2990 Cl  0  0  0  0  0  0  0  0  0  0  0  0
   58.7086   28.8207   44.6060 H   0  0  0  0  0  0  0  0  0  0  0  0
   57.9934   28.2374   46.1529 H   0  0  0  0  0  0  0  0  0  0  0  0
   56.6650   27.3130   43.7830 H   0  0  0  0  0  0  0  0  0  0  0  0
   56.2286   25.0196   42.9635 H   0  0  0  0  0  0  0  0  0  0  0  0
   56.3327   22.7300   41.9760 H   0  0  0  0  0  0  0  0  0  0  0  0
   57.1038   20.8037   43.3627 H   0  0  0  0  0  0  0  0  0  0  0  0
   57.7741   21.1630   45.7397 H   0  0  0  0  0  0  0  0  0  0  0  0
   58.9234   30.6658   44.3181 H   0  0  0  0  0  0  0  0  0  0  0  0
   57.9317   31.8136   43.3552 H   0  0  0  0  0  0  0  0  0  0  0  0
   58.2345   34.0634   43.7487 H   0  0  0  0  0  0  0  0  0  0  0  0
   58.9137   35.9526   45.2262 H   0  0  0  0  0  0  0  0  0  0  0  0
   59.5926   35.5152   47.5867 H   0  0  0  0  0  0  0  0  0  0  0  0
   59.5708   33.1880   48.4816 H   0  0  0  0  0  0  0  0  0  0  0  0
  1  2  2  0
  2  3  1  0
  3  4  1  0
  4  5  1  0
  5  6  2  0
  5  7  2  0
  5  8  1  0
  8  9  2  0
  9 10  1  0
 10 11  2  0
 11 12  1  0
 12 13  2  0
 13 14  1  0
  2 15  1  0
 15 16  1  0
 16 17  1  0
 17 18  2  0
 18 19  1  0
 19 20  2  0
 20 21  1  0
 21 22  2  0
 22 23  1  0
 13  8  1  0
 22 17  1  0
  3 24  1  0
  3 25  1  0
  4 26  1  0
  9 27  1  0
 10 28  1  0
 11 29  1  0
 12 30  1  0
 16 31  1  0
 16 32  1  0
 18 33  1  0
 19 34  1  0
 20 35  1  0
 21 36  1  0
M  CHG  1  15  -1
M  END
>  <UniqueID>  (13) 
12

>  <SMILES>  (13) 
O=C(CNS(=O)(=O)c1ccccc1F)[N-]Cc1ccccc1Cl

>  <Energy>  (13) 
33.30475657134852

>  <Genealogy>  (13) 
O=C(CNS(=O)(=O)c1ccccc1F)[N-]Cc1ccccc1Cl (protonated)
O=C(CNS(=O)(=O)c1ccccc1F)[N-]Cc1ccccc1Cl (3D coordinates assigned)
O=C(CNS(=O)(=O)c1ccccc1F)[N-]Cc1ccccc1Cl (optimized conformer: 33.30475657134852 kcal/mol)

>  <smiles>  (13) 
O=C(CNS(=O)(=O)c1ccccc1F)NCc1ccccc1Cl

>  <score_type>  (13) 
oracle

>  <origin>  (13) 
adg

>  <m_score__min__energy>  (13) 
-10.51

>  <m_primary>  (13) 
energy

$$$$
13:0
     RDKit          3D

 40 42  0  0  0  0  0  0  0  0999 V2000
   60.6146   29.4213   46.7816 H   0  0  0  0  0  0  0  0  0  0  0  0
   59.7300   28.7780   46.6650 C   0  0  0  0  0  0  0  0  0  0  0  0
   59.6720   27.5520   47.3200 C   0  0  0  0  0  0  0  0  0  0  0  0
   60.5104   27.2285   47.9544 H   0  0  0  0  0  0  0  0  0  0  0  0
   58.5530   26.7320   47.1740 C   0  0  0  0  0  0  0  0  0  0  0  0
   58.5192   25.7624   47.6925 H   0  0  0  0  0  0  0  0  0  0  0  0
   57.4640   27.1300   46.3700 C   0  0  0  0  0  0  0  0  0  0  0  0
   56.2850   26.2260   46.2580 C   0  0  0  0  0  0  0  0  0  0  0  0
   55.1440   26.7170   46.0330 O   0  0  0  0  0  0  0  0  0  0  0  0
   56.4230   24.8110   46.4450 N   0  0  0  0  0  0  0  0  0  0  0  0
   56.6290   23.8240   45.4240 C   0  0  0  0  0  0  0  0  0  0  0  0
   57.3460   22.6380   45.6640 C   0  0  0  0  0  0  0  0  0  0  0  0
   57.7869   22.4546   46.6550 H   0  0  0  0  0  0  0  0  0  0  0  0
   57.5000   21.6910   44.6460 C   0  0  0  0  0  0  0  0  0  0  0  0
   58.0713   20.7702   44.8350 H   0  0  0  0  0  0  0  0  0  0  0  0
   56.9300   21.9120   43.3900 C   0  0  0  0  0  0  0  0  0  0  0  0
   57.0770   20.9910   42.4060 F   0  0  0  0  0  0  0  0  0  0  0  0
   56.1940   23.0770   43.1530 C   0  0  0  0  0  0  0  0  0  0  0  0
   55.7375   23.2478   42.1669 H   0  0  0  0  0  0  0  0  0  0  0  0
   56.0380   24.0250   44.1690 C   0  0  0  0  0  0  0  0  0  0  0  0
   55.4477   24.9342   43.9822 H   0  0  0  0  0  0  0  0  0  0  0  0
   57.5260   28.3800   45.7010 C   0  0  0  0  0  0  0  0  0  0  0  0
   56.4540   28.7830   44.8840 O   0  0  0  0  0  0  0  0  0  0  0  0
   56.5620   29.3160   43.5630 C   0  0  0  0  0  0  0  0  0  0  0  0
   55.6400   29.0928   43.0061 H   0  0  0  0  0  0  0  0  0  0  0  0
   57.4274   28.8562   43.0633 H   0  0  0  0  0  0  0  0  0  0  0  0
   56.7620   30.7990   43.6110 C   0  0  0  0  0  0  0  0  0  0  0  0
   57.1400   31.4060   42.5730 O   0  0  0  0  0  0  0  0  0  0  0  0
   56.5320   31.5020   44.8430 N   0  0  0  0  0  0  0  0  0  0  0  0
   57.3400   32.3560   45.3980 C   0  0  0  0  0  0  0  0  0  0  0  0
   57.7730   32.2810   46.6770 N   0  0  0  0  0  0  0  0  0  0  0  0
   58.5970   33.2760   47.0020 N   0  0  0  0  0  0  0  0  0  0  0  0
   58.8300   34.1320   45.9820 C   0  0  0  0  0  0  0  0  0  0  0  0
   59.6600   35.3620   46.1130 C   0  0  0  0  0  0  0  0  0  0  0  0
   59.8133   35.5892   47.1783 H   0  0  0  0  0  0  0  0  0  0  0  0
   60.6343   35.2002   45.6287 H   0  0  0  0  0  0  0  0  0  0  0  0
   59.1453   36.2049   45.6287 H   0  0  0  0  0  0  0  0  0  0  0  0
   57.9730   33.6920   44.5980 S   0  0  0  0  0  0  0  0  0  0  0  0
   58.6690   29.1930   45.8610 C   0  0  0  0  0  0  0  0  0  0  0  0
   58.7232   30.1636   45.3462 H   0  0  0  0  0  0  0  0  0  0  0  0
  1  2  1  0
  2  3  2  0
  3  4  1  0
  3  5  1  0
  5  6  1  0
  5  7  2  0
  7  8  1  0
  8  9  2  0
  8 10  1  0
 10 11  1  0
 11 12  2  0
 12 13  1  0
 12 14  1  0
 14 15  1  0
 14 16  2  0
 16 17  1  0
 16 18  1  0
 18 19  1  0
 18 20  2  0
 20 21  1  0
  7 22  1  0
 22 23  1  0
 23 24  1  0
 24 25  1  0
 24 26  1  0
 24 27  1  0
 27 28  2  0
 27 29  1  0
 29 30  2  0
 30 31  1  0
 31 32  1  0
 32 33  2  0
 33 34  1  0
 34 35  1  0
 34 36  1  0
 34 37  1  0
 33 38  1  0
 22 39  2  0
 39 40  1  0
 39  2  1  0
 20 11  1  0
 38 30  1  0
M  CHG  2  10  -1  31  -1
M  END
>  <UniqueID>  (14) 
13

>  <SMILES>  (14) 
Cc1n[n-]/c(=N\C(=O)COc2ccccc2C(=O)[N-]c2ccc(F)cc2)s1

>  <Energy>  (14) 
82.71513529833186

>  <Genealogy>  (14) 
Cc1n[n-]c(=NC(=O)COc2ccccc2C(=O)[N-]c2ccc(F)cc2)s1 (protonated)
Cc1n[n-]/c(=N\C(=O)COc2ccccc2C(=O)[N-]c2ccc(F)cc2)s1 (cis-trans isomerization)
Cc1n[n-]/c(=N\C(=O)COc2ccccc2C(=O)[N-]c2ccc(F)cc2)s1 (3D coordinates assigned)
Cc1n[n-]/c(=N\C(=O)COc2ccccc2C(=O)[N-]c2ccc(F)cc2)s1 (optimized conformer: 82.71513529833186 kcal/mol)

>  <smiles>  (14) 
Cc1n[nH]c(=NC(=O)COc2ccccc2C(=O)Nc2ccc(F)cc2)s1

>  <score_type>  (14) 
oracle

>  <origin>  (14) 
adg

>  <m_score__min__energy>  (14) 
-11.960000000000001

>  <m_primary>  (14) 
energy

$$$$
14:0
     RDKit          3D

 12 12  0  0  0  0  0  0  0  0999 V2000
   55.9070   29.0230   44.9720 N   0  0  0  0  0  0  0  0  0  0  0  0
   57.4270   28.3990   45.5060 S   0  0  0  0  0  0  0  0  0  0  0  0
   58.3840   28.3690   44.3470 O   0  0  0  0  0  0  0  0  0  0  0  0
   57.9870   29.2810   46.5850 O   0  0  0  0  0  0  0  0  0  0  0  0
   57.2100   26.7740   46.1330 C   0  0  0  0  0  0  0  0  0  0  0  0
   58.4520   25.7380   46.5990 S   0  0  0  0  0  0  0  0  0  0  0  0
   57.3740   24.5180   47.0230 C   0  0  0  0  0  0  0  0  0  0  0  0
   57.7170   23.3960   47.4780 O   0  0  0  0  0  0  0  0  0  0  0  0
   56.0840   24.8660   46.8220 N   0  0  0  0  0  0  0  0  0  0  0  0
   55.9950   26.1270   46.3250 C   0  0  0  0  0  0  0  0  0  0  0  0
   54.7700   26.7140   46.0330 O   0  0  0  0  0  0  0  0  0  0  0  0
   55.1790   28.6510   45.6220 H   0  0  0  0  0  0  0  0  0  0  0  0
  1  2  1  0
  2  3  2  0
  2  4  2  0
  2  5  1  0
  5  6  1  0
  6  7  1  0
  7  8  2  0
  7  9  1  0
  9 10  1  0
 10 11  1  0
 10  5  2  0
  1 12  1  0
M  CHG  3   1  -1   9  -1  11  -1
M  END
>  <UniqueID>  (15) 
14

>  <SMILES>  (15) 
[NH-]S(=O)(=O)c1sc(=O)[n-]c1[O-]

>  <Energy>  (15) 
41.52858251708179

>  <Genealogy>  (15) 
[NH-]S(=O)(=O)c1sc(=O)[n-]c1[O-] (protonated)
[NH-]S(=O)(=O)c1sc(=O)[n-]c1[O-] (3D coordinates assigned)
[NH-]S(=O)(=O)c1sc(=O)[n-]c1[O-] (optimized conformer: 41.52858251708179 kcal/mol)

>  <smiles>  (15) 
NS(=O)(=O)c1sc(=O)[nH]c1O

>  <score_type>  (15) 
oracle

>  <origin>  (15) 
adg

>  <m_score__min__energy>  (15) 
-13.31

>  <m_primary>  (15) 
energy

$$$$
15:0
     RDKit          3D

 40 42  0  0  0  0  0  0  0  0999 V2000
   55.6450   28.5910   45.2210 N   0  0  0  0  0  0  0  0  0  0  0  0
   56.6370   29.7540   44.4130 S   0  0  0  0  0  0  0  0  0  0  0  0
   56.9690   29.2230   43.0470 O   0  0  0  0  0  0  0  0  0  0  0  0
   55.8770   31.0440   44.2830 O   0  0  0  0  0  0  0  0  0  0  0  0
   58.1240   30.0310   45.3370 C   0  0  0  0  0  0  0  0  0  0  0  0
   58.5880   31.3480   45.4870 C   0  0  0  0  0  0  0  0  0  0  0  0
   59.7280   31.6170   46.2480 C   0  0  0  0  0  0  0  0  0  0  0  0
   60.4190   30.5760   46.8660 C   0  0  0  0  0  0  0  0  0  0  0  0
   59.9790   29.2600   46.7180 C   0  0  0  0  0  0  0  0  0  0  0  0
   58.8420   28.9700   45.9450 C   0  0  0  0  0  0  0  0  0  0  0  0
   58.4400   27.5580   45.7920 C   0  0  0  0  0  0  0  0  0  0  0  0
   58.3290   26.7320   46.9210 C   0  0  0  0  0  0  0  0  0  0  0  0
   57.9570   25.3920   46.7780 C   0  0  0  0  0  0  0  0  0  0  0  0
   57.7190   24.8540   45.5080 C   0  0  0  0  0  0  0  0  0  0  0  0
   57.3100   23.4830   45.4010 N   0  0  0  0  0  0  0  0  0  0  0  0
   55.9620   23.0010   45.3200 C   0  0  0  0  0  0  0  0  0  0  0  0
   55.6030   22.3750   44.2870 O   0  0  0  0  0  0  0  0  0  0  0  0
   54.9560   23.2590   46.4090 C   0  0  0  0  0  0  0  0  0  0  0  0
   53.6660   23.6290   45.8300 N   0  0  0  0  0  0  0  0  0  0  0  0
   52.6620   22.8010   45.4800 C   0  0  0  0  0  0  0  0  0  0  0  0
   52.6860   21.4240   45.6700 O   0  0  0  0  0  0  0  0  0  0  0  0
   51.6200   23.5010   44.9070 C   0  0  0  0  0  0  0  0  0  0  0  0
   52.0110   24.8290   44.8940 C   0  0  0  0  0  0  0  0  0  0  0  0
   53.2700   24.8630   45.4600 C   0  0  0  0  0  0  0  0  0  0  0  0
   54.0380   26.0090   45.6250 O   0  0  0  0  0  0  0  0  0  0  0  0
   57.8180   25.6840   44.3780 C   0  0  0  0  0  0  0  0  0  0  0  0
   58.1900   27.0230   44.5200 C   0  0  0  0  0  0  0  0  0  0  0  0
   56.1040   28.3810   46.1360 H   0  0  0  0  0  0  0  0  0  0  0  0
   58.0491   32.1747   45.0011 H   0  0  0  0  0  0  0  0  0  0  0  0
   60.0813   32.6527   46.3599 H   0  0  0  0  0  0  0  0  0  0  0  0
   61.3120   30.7921   47.4709 H   0  0  0  0  0  0  0  0  0  0  0  0
   60.5267   28.4430   47.2105 H   0  0  0  0  0  0  0  0  0  0  0  0
   58.5353   27.1401   47.9215 H   0  0  0  0  0  0  0  0  0  0  0  0
   57.8507   24.7563   47.6694 H   0  0  0  0  0  0  0  0  0  0  0  0
   54.8345   22.3484   47.0140 H   0  0  0  0  0  0  0  0  0  0  0  0
   55.3154   24.0853   47.0400 H   0  0  0  0  0  0  0  0  0  0  0  0
   50.6707   23.0875   44.5357 H   0  0  0  0  0  0  0  0  0  0  0  0
   51.4352   25.6841   44.5104 H   0  0  0  0  0  0  0  0  0  0  0  0
   57.6019   25.2780   43.3788 H   0  0  0  0  0  0  0  0  0  0  0  0
   58.2873   27.6611   43.6293 H   0  0  0  0  0  0  0  0  0  0  0  0
  1  2  1  0
  2  3  2  0
  2  4  2  0
  2  5  1  0
  5  6  2  0
  6  7  1  0
  7  8  2  0
  8  9  1  0
  9 10  2  0
 10 11  1  0
 11 12  2  0
 12 13  1  0
 13 14  2  0
 14 15  1  0
 15 16  1  0
 16 17  2  0
 16 18  1  0
 18 19  1  0
 19 20  1  0
 20 21  1  0
 20 22  2  0
 22 23  1  0
 23 24  2  0
 24 25  1  0
 14 26  1  0
 26 27  2  0
 10  5  1  0
 27 11  1  0
 24 19  1  0
  1 28  1  0
  6 29  1  0
  7 30  1  0
  8 31  1  0
  9 32  1  0
 12 33  1  0
 13 34  1  0
 18 35  1  0
 18 36  1  0
 22 37  1  0
 23 38  1  0
 26 39  1  0
 27 40  1  0
M  CHG  4   1  -1  15  -1  21  -1  25  -1
M  END
>  <UniqueID>  (16) 
15

>  <SMILES>  (16) 
[NH-]S(=O)(=O)c1ccccc1-c1ccc([N-]C(=O)Cn2c([O-])ccc2[O-])cc1

>  <Energy>  (16) 
82.6402753083654

>  <Genealogy>  (16) 
[NH-]S(=O)(=O)c1ccccc1-c1ccc([N-]C(=O)Cn2c([O-])ccc2[O-])cc1 (protonated)
[NH-]S(=O)(=O)c1ccccc1-c1ccc([N-]C(=O)Cn2c([O-])ccc2[O-])cc1 (3D coordinates assigned)
[NH-]S(=O)(=O)c1ccccc1-c1ccc([N-]C(=O)Cn2c([O-])ccc2[O-])cc1 (optimized conformer: 82.6402753083654 kcal/mol)

>  <smiles>  (16) 
NS(=O)(=O)c1ccccc1-c1ccc(NC(=O)Cn2c(O)ccc2O)cc1

>  <score_type>  (16) 
oracle

>  <origin>  (16) 
adg

>  <m_score__min__energy>  (16) 
-16.699999999999999

>  <m_primary>  (16) 
energy

$$$$
16:0
     RDKit          3D

 72 75  0  0  0  0  0  0  0  0999 V2000
   57.9230   32.8350   52.0700 C   0  0  0  0  0  0  0  0  0  0  0  0
   57.8040   31.9690   50.8190 C   0  0  0  0  0  0  0  0  0  0  0  0
   59.1370   31.6500   50.2840 N   0  0  0  0  0  0  0  0  0  0  0  0
   60.2960   32.4580   50.7010 C   0  0  0  0  0  0  0  0  0  0  0  0
   60.4910   33.6710   49.7820 C   0  0  0  0  0  0  0  0  0  0  0  0
   61.6240   33.4520   48.8130 C   0  0  0  0  0  0  0  0  0  0  0  0
   61.5200   33.9130   47.4900 C   0  0  0  0  0  0  0  0  0  0  0  0
   62.5870   33.7480   46.6010 C   0  0  0  0  0  0  0  0  0  0  0  0
   63.7660   33.1300   47.0290 C   0  0  0  0  0  0  0  0  0  0  0  0
   63.8800   32.6780   48.3460 C   0  0  0  0  0  0  0  0  0  0  0  0
   62.8150   32.8400   49.2380 C   0  0  0  0  0  0  0  0  0  0  0  0
   59.2940   30.4890   49.4390 C   0  0  0  0  0  0  0  0  0  0  0  0
   58.6630   29.4300   49.7150 O   0  0  0  0  0  0  0  0  0  0  0  0
   60.2090   30.5020   48.2390 C   0  0  0  0  0  0  0  0  0  0  0  0
   59.4190   30.4670   46.9390 C   0  0  0  0  0  0  0  0  0  0  0  0
   59.4010   29.2880   46.1630 C   0  0  0  0  0  0  0  0  0  0  0  0
   60.0630   28.2860   46.5530 O   0  0  0  0  0  0  0  0  0  0  0  0
   58.6740   29.2160   45.0000 N   0  0  0  0  0  0  0  0  0  0  0  0
   58.6260   27.9570   44.2260 C   0  0  0  0  0  0  0  0  0  0  0  0
   58.0320   26.8510   45.0600 C   0  0  0  0  0  0  0  0  0  0  0  0
   58.7360   25.6540   45.2640 C   0  0  0  0  0  0  0  0  0  0  0  0
   58.1680   24.6180   46.0100 C   0  0  0  0  0  0  0  0  0  0  0  0
   56.8800   24.7520   46.5560 C   0  0  0  0  0  0  0  0  0  0  0  0
   56.2870   23.6420   47.3370 C   0  0  0  0  0  0  0  0  0  0  0  0
   57.0360   22.9230   48.0530 O   0  0  0  0  0  0  0  0  0  0  0  0
   54.8770   23.3610   47.2710 N   0  0  0  0  0  0  0  0  0  0  0  0
   54.2490   22.2850   48.0390 C   0  0  0  0  0  0  0  0  0  0  0  0
   52.7990   22.0720   47.5940 C   0  0  0  0  0  0  0  0  0  0  0  0
   52.6980   21.8870   46.1110 C   0  0  0  0  0  0  0  0  0  0  0  0
   52.4580   20.7500   45.6290 O   0  0  0  0  0  0  0  0  0  0  0  0
   52.9170   22.9630   45.2600 O   0  0  0  0  0  0  0  0  0  0  0  0
   56.1820   25.9560   46.3590 C   0  0  0  0  0  0  0  0  0  0  0  0
   56.7520   26.9950   45.6180 C   0  0  0  0  0  0  0  0  0  0  0  0
   57.9410   30.2900   44.5670 C   0  0  0  0  0  0  0  0  0  0  0  0
   57.2120   30.2020   43.3800 O   0  0  0  0  0  0  0  0  0  0  0  0
   57.9090   31.4830   45.3070 C   0  0  0  0  0  0  0  0  0  0  0  0
   57.1440   32.5800   44.8670 C   0  0  0  0  0  0  0  0  0  0  0  0
   57.0970   33.7560   45.6150 C   0  0  0  0  0  0  0  0  0  0  0  0
   57.8090   33.8530   46.8070 C   0  0  0  0  0  0  0  0  0  0  0  0
   58.5780   32.7770   47.2570 C   0  0  0  0  0  0  0  0  0  0  0  0
   58.6460   31.5760   46.5120 C   0  0  0  0  0  0  0  0  0  0  0  0
   57.8359   32.2009   52.9646 H   0  0  0  0  0  0  0  0  0  0  0  0
   58.8992   33.3419   52.0736 H   0  0  0  0  0  0  0  0  0  0  0  0
   57.1197   33.5864   52.0736 H   0  0  0  0  0  0  0  0  0  0  0  0
   57.2832   31.0343   51.0741 H   0  0  0  0  0  0  0  0  0  0  0  0
   57.2376   32.5227   50.0557 H   0  0  0  0  0  0  0  0  0  0  0  0
   60.1348   32.8108   51.7303 H   0  0  0  0  0  0  0  0  0  0  0  0
   61.1966   31.8292   50.6410 H   0  0  0  0  0  0  0  0  0  0  0  0
   59.5640   33.8430   49.2154 H   0  0  0  0  0  0  0  0  0  0  0  0
   60.7347   34.5426   50.4073 H   0  0  0  0  0  0  0  0  0  0  0  0
   60.5962   34.4054   47.1522 H   0  0  0  0  0  0  0  0  0  0  0  0
   62.4986   34.1047   45.5642 H   0  0  0  0  0  0  0  0  0  0  0  0
   64.6040   32.9997   46.3285 H   0  0  0  0  0  0  0  0  0  0  0  0
   64.8089   32.1939   48.6820 H   0  0  0  0  0  0  0  0  0  0  0  0
   62.9102   32.4871   50.2755 H   0  0  0  0  0  0  0  0  0  0  0  0
   60.8182   31.4176   48.2632 H   0  0  0  0  0  0  0  0  0  0  0  0
   60.8477   29.6074   48.2805 H   0  0  0  0  0  0  0  0  0  0  0  0
   58.0078   28.1064   43.3285 H   0  0  0  0  0  0  0  0  0  0  0  0
   59.6495   27.6761   43.9369 H   0  0  0  0  0  0  0  0  0  0  0  0
   59.7409   25.5307   44.8340 H   0  0  0  0  0  0  0  0  0  0  0  0
   58.7343   23.6889   46.1714 H   0  0  0  0  0  0  0  0  0  0  0  0
   54.2960   23.8260   46.5390 H   0  0  0  0  0  0  0  0  0  0  0  0
   54.8141   21.3541   47.8836 H   0  0  0  0  0  0  0  0  0  0  0  0
   54.2533   22.5633   49.1032 H   0  0  0  0  0  0  0  0  0  0  0  0
   52.4004   21.1765   48.0933 H   0  0  0  0  0  0  0  0  0  0  0  0
   52.2202   22.9661   47.8690 H   0  0  0  0  0  0  0  0  0  0  0  0
   55.1785   26.0816   46.7917 H   0  0  0  0  0  0  0  0  0  0  0  0
   56.1940   27.9315   45.4711 H   0  0  0  0  0  0  0  0  0  0  0  0
   56.5790   32.5089   43.9259 H   0  0  0  0  0  0  0  0  0  0  0  0
   56.4967   34.6077   45.2626 H   0  0  0  0  0  0  0  0  0  0  0  0
   57.7660   34.7804   47.3970 H   0  0  0  0  0  0  0  0  0  0  0  0
   59.1366   32.8644   48.2006 H   0  0  0  0  0  0  0  0  0  0  0  0
  1  2  1  0
  2  3  1  0
  3  4  1  0
  4  5  1  0
  5  6  1  0
  6  7  2  0
  7  8  1  0
  8  9  2  0
  9 10  1  0
 10 11  2  0
  3 12  1  0
 12 13  2  0
 12 14  1  0
 14 15  1  0
 15 16  1  0
 16 17  2  0
 16 18  1  0
 18 19  1  0
 19 20  1  0
 20 21  2  0
 21 22  1  0
 22 23  2  0
 23 24  1  0
 24 25  2  0
 24 26  1  0
 26 27  1  0
 27 28  1  0
 28 29  1  0
 29 30  2  0
 29 31  1  0
 23 32  1  0
 32 33  2  0
 18 34  1  0
 34 35  1  0
 34 36  2  0
 36 37  1  0
 37 38  2  0
 38 39  1  0
 39 40  2  0
 40 41  1  0
 11  6  1  0
 41 15  2  0
 33 20  1  0
 41 36  1  0
  1 42  1  0
  1 43  1  0
  1 44  1  0
  2 45  1  0
  2 46  1  0
  4 47  1  0
  4 48  1  0
  5 49  1  0
  5 50  1  0
  7 51  1  0
  8 52  1  0
  9 53  1  0
 10 54  1  0
 11 55  1  0
 14 56  1  0
 14 57  1  0
 19 58  1  0
 19 59  1  0
 21 60  1  0
 22 61  1  0
 26 62  1  0
 27 63  1  0
 27 64  1  0
 28 65  1  0
 28 66  1  0
 32 67  1  0
 33 68  1  0
 37 69  1  0
 38 70  1  0
 39 71  1  0
 40 72  1  0
M  CHG  2  31  -1  35  -1
M  END
>  <UniqueID>  (17) 
16

>  <SMILES>  (17) 
CCN(CCc1ccccc1)C(=O)Cc1c(=O)n(Cc2ccc(C(=O)NCCC(=O)[O-])cc2)c([O-])c2ccccc12

>  <Energy>  (17) 
77.57348869267497

>  <Genealogy>  (17) 
CCN(CCc1ccccc1)C(=O)Cc1c(=O)n(Cc2ccc(C(=O)NCCC(=O)[O-])cc2)c([O-])c2ccccc12 (protonated)
CCN(CCc1ccccc1)C(=O)Cc1c(=O)n(Cc2ccc(C(=O)NCCC(=O)[O-])cc2)c([O-])c2ccccc12 (3D coordinates assigned)
CCN(CCc1ccccc1)C(=O)Cc1c(=O)n(Cc2ccc(C(=O)NCCC(=O)[O-])cc2)c([O-])c2ccccc12 (optimized conformer: 77.57348869267497 kcal/mol)

>  <smiles>  (17) 
CCN(CCc1ccccc1)C(=O)Cc1c(=O)n(Cc2ccc(C(=O)NCCC(=O)O)cc2)c(O)c2ccccc12

>  <score_type>  (17) 
oracle

>  <origin>  (17) 
adg

>  <m_score__min__energy>  (17) 
-14.9

>  <m_primary>  (17) 
energy

$$$$
17:0
     RDKit          3D

 28 29  0  0  0  0  0  0  0  0999 V2000
   55.1520   29.3400   44.8720 N   0  0  0  0  0  0  0  0  0  0  0  0
   56.7500   29.8000   44.4060 S   0  0  0  0  0  0  0  0  0  0  0  0
   57.0300   31.1930   44.8950 O   0  0  0  0  0  0  0  0  0  0  0  0
   56.8620   29.7840   42.9060 O   0  0  0  0  0  0  0  0  0  0  0  0
   57.9120   28.6740   45.1000 C   0  0  0  0  0  0  0  0  0  0  0  0
   59.2880   28.9030   44.9650 C   0  0  0  0  0  0  0  0  0  0  0  0
   60.2050   28.0030   45.5130 C   0  0  0  0  0  0  0  0  0  0  0  0
   59.7540   26.8780   46.2090 C   0  0  0  0  0  0  0  0  0  0  0  0
   58.3800   26.6520   46.3810 C   0  0  0  0  0  0  0  0  0  0  0  0
   57.9410   25.4790   47.0870 N   0  0  0  0  0  0  0  0  0  0  0  0
   56.6380   24.8900   46.9290 C   0  0  0  0  0  0  0  0  0  0  0  0
   55.7150   25.5410   46.3690 O   0  0  0  0  0  0  0  0  0  0  0  0
   56.3640   23.5340   47.4530 C   0  0  0  0  0  0  0  0  0  0  0  0
   55.0580   23.0280   47.5140 C   0  0  0  0  0  0  0  0  0  0  0  0
   54.8460   21.7430   48.0130 C   0  0  0  0  0  0  0  0  0  0  0  0
   55.9410   20.9910   48.4370 C   0  0  0  0  0  0  0  0  0  0  0  0
   55.7780   19.8290   48.8910 O   0  0  0  0  0  0  0  0  0  0  0  0
   57.1890   21.5220   48.3580 N   0  0  0  0  0  0  0  0  0  0  0  0
   57.3920   22.7510   47.8820 N   0  0  0  0  0  0  0  0  0  0  0  0
   57.4610   27.5500   45.8060 C   0  0  0  0  0  0  0  0  0  0  0  0
   55.2490   28.6250   45.6270 H   0  0  0  0  0  0  0  0  0  0  0  0
   59.6464   29.7928   44.4267 H   0  0  0  0  0  0  0  0  0  0  0  0
   61.2844   28.1801   45.3965 H   0  0  0  0  0  0  0  0  0  0  0  0
   60.4812   26.1650   46.6247 H   0  0  0  0  0  0  0  0  0  0  0  0
   58.5720   25.0920   47.8250 H   0  0  0  0  0  0  0  0  0  0  0  0
   54.2092   23.6382   47.1718 H   0  0  0  0  0  0  0  0  0  0  0  0
   53.8288   21.3284   48.0713 H   0  0  0  0  0  0  0  0  0  0  0  0
   56.3812   27.3684   45.9114 H   0  0  0  0  0  0  0  0  0  0  0  0
  1  2  1  0
  2  3  2  0
  2  4  2  0
  2  5  1  0
  5  6  2  0
  6  7  1  0
  7  8  2  0
  8  9  1  0
  9 10  1  0
 10 11  1  0
 11 12  2  0
 11 13  1  0
 13 14  1  0
 14 15  2  0
 15 16  1  0
 16 17  2  0
 16 18  1  0
 18 19  1  0
  9 20  2  0
 20  5  1  0
 19 13  2  0
  1 21  1  0
  6 22  1  0
  7 23  1  0
  8 24  1  0
 10 25  1  0
 14 26  1  0
 15 27  1  0
 20 28  1  0
M  CHG  2   1  -1  18  -1
M  END
>  <UniqueID>  (18) 
17

>  <SMILES>  (18) 
[NH-]S(=O)(=O)c1cccc(NC(=O)c2ccc(=O)[n-]n2)c1

>  <Energy>  (18) 
33.64188197103357

>  <Genealogy>  (18) 
[NH-]S(=O)(=O)c1cccc(NC(=O)c2ccc(=O)[n-]n2)c1 (protonated)
[NH-]S(=O)(=O)c1cccc(NC(=O)c2ccc(=O)[n-]n2)c1 (3D coordinates assigned)
[NH-]S(=O)(=O)c1cccc(NC(=O)c2ccc(=O)[n-]n2)c1 (optimized conformer: 33.64188197103357 kcal/mol)

>  <smiles>  (18) 
NS(=O)(=O)c1cccc(NC(=O)c2ccc(=O)[nH]n2)c1

>  <score_type>  (18) 
oracle

>  <origin>  (18) 
adg

>  <m_score__min__energy>  (18) 
-11.890000000000001

>  <m_primary>  (18) 
energy

$$$$
18:0
     RDKit          3D

 36 38  0  0  0  0  0  0  0  0999 V2000
   56.7230   29.2600   42.7920 N   0  0  0  0  0  0  0  0  0  0  0  0
   56.6210   29.7640   44.4430 S   0  0  0  0  0  0  0  0  0  0  0  0
   56.2920   31.2300   44.4990 O   0  0  0  0  0  0  0  0  0  0  0  0
   55.5280   28.9990   45.1340 O   0  0  0  0  0  0  0  0  0  0  0  0
   58.1570   29.4640   45.2490 C   0  0  0  0  0  0  0  0  0  0  0  0
   59.3060   29.1810   44.4990 C   0  0  0  0  0  0  0  0  0  0  0  0
   60.5160   28.9130   45.1430 C   0  0  0  0  0  0  0  0  0  0  0  0
   60.5870   28.9320   46.5390 C   0  0  0  0  0  0  0  0  0  0  0  0
   59.4510   29.2330   47.3000 C   0  0  0  0  0  0  0  0  0  0  0  0
   59.5490   29.2130   48.7310 N   0  0  0  0  0  0  0  0  0  0  0  0
   60.6450   29.7020   49.5170 C   0  0  0  0  0  0  0  0  0  0  0  0
   61.3560   28.8730   50.1450 O   0  0  0  0  0  0  0  0  0  0  0  0
   60.9880   31.1640   49.5800 C   0  0  0  0  0  0  0  0  0  0  0  0
   60.1940   31.9130   48.6110 N   0  0  0  0  0  0  0  0  0  0  0  0
   58.5380   32.1140   48.6700 S   0  0  0  0  0  0  0  0  0  0  0  0
   58.3550   32.9640   47.2450 C   0  0  0  0  0  0  0  0  0  0  0  0
   57.2080   33.4740   46.6460 C   0  0  0  0  0  0  0  0  0  0  0  0
   57.3530   34.1490   45.4240 C   0  0  0  0  0  0  0  0  0  0  0  0
   58.6260   34.2960   44.8360 C   0  0  0  0  0  0  0  0  0  0  0  0
   59.7680   33.7670   45.4630 C   0  0  0  0  0  0  0  0  0  0  0  0
   59.6170   33.0960   46.6820 C   0  0  0  0  0  0  0  0  0  0  0  0
   60.6290   32.4960   47.4590 C   0  0  0  0  0  0  0  0  0  0  0  0
   61.8440   32.4890   47.1180 O   0  0  0  0  0  0  0  0  0  0  0  0
   58.2280   29.4720   46.6490 C   0  0  0  0  0  0  0  0  0  0  0  0
   57.7140   29.4010   42.4910 H   0  0  0  0  0  0  0  0  0  0  0  0
   56.5480   28.2300   42.7760 H   0  0  0  0  0  0  0  0  0  0  0  0
   59.2550   29.1698   43.4002 H   0  0  0  0  0  0  0  0  0  0  0  0
   61.4148   28.6866   44.5506 H   0  0  0  0  0  0  0  0  0  0  0  0
   61.5397   28.7095   47.0419 H   0  0  0  0  0  0  0  0  0  0  0  0
   60.7781   31.5427   50.5912 H   0  0  0  0  0  0  0  0  0  0  0  0
   62.0547   31.2917   49.3435 H   0  0  0  0  0  0  0  0  0  0  0  0
   56.2202   33.3524   47.1144 H   0  0  0  0  0  0  0  0  0  0  0  0
   56.4677   34.5661   44.9217 H   0  0  0  0  0  0  0  0  0  0  0  0
   58.7266   34.8289   43.8790 H   0  0  0  0  0  0  0  0  0  0  0  0
   60.7615   33.8784   45.0041 H   0  0  0  0  0  0  0  0  0  0  0  0
   57.3218   29.6663   47.2415 H   0  0  0  0  0  0  0  0  0  0  0  0
  1  2  1  0
  2  3  2  0
  2  4  2  0
  2  5  1  0
  5  6  2  0
  6  7  1  0
  7  8  2  0
  8  9  1  0
  9 10  1  0
 10 11  1  0
 11 12  2  0
 11 13  1  0
 13 14  1  0
 14 15  1  0
 15 16  1  0
 16 17  2  0
 17 18  1  0
 18 19  2  0
 19 20  1  0
 20 21  2  0
 21 22  1  0
 22 23  2  0
  9 24  2  0
 24  5  1  0
 22 14  1  0
 21 16  1  0
  1 25  1  0
  1 26  1  0
  6 27  1  0
  7 28  1  0
  8 29  1  0
 13 30  1  0
 13 31  1  0
 17 32  1  0
 18 33  1  0
 19 34  1  0
 20 35  1  0
 24 36  1  0
M  CHG  1  10  -1
M  END
>  <UniqueID>  (19) 
18

>  <SMILES>  (19) 
NS(=O)(=O)c1cccc([N-]C(=O)Cn2sc3ccccc3c2=O)c1

>  <Energy>  (19) 
80.37915388860927

>  <Genealogy>  (19) 
NS(=O)(=O)c1cccc([N-]C(=O)Cn2sc3ccccc3c2=O)c1 (protonated)
NS(=O)(=O)c1cccc([N-]C(=O)Cn2sc3ccccc3c2=O)c1 (3D coordinates assigned)
NS(=O)(=O)c1cccc([N-]C(=O)Cn2sc3ccccc3c2=O)c1 (optimized conformer: 80.37915388860927 kcal/mol)

>  <smiles>  (19) 
NS(=O)(=O)c1cccc(NC(=O)Cn2sc3ccccc3c2=O)c1

>  <score_type>  (19) 
oracle

>  <origin>  (19) 
adg

>  <m_score__min__energy>  (19) 
-11.06

>  <m_primary>  (19) 
energy

$$$$
19:0
     RDKit          3D

 61 64  0  0  0  0  0  0  0  0999 V2000
   57.7550   28.2290   44.3770 C   0  0  0  0  0  0  0  0  0  0  0  0
   58.9600   28.1450   45.1280 O   0  0  0  0  0  0  0  0  0  0  0  0
   59.1540   28.7260   46.3920 C   0  0  0  0  0  0  0  0  0  0  0  0
   58.5990   29.9750   46.7300 C   0  0  0  0  0  0  0  0  0  0  0  0
   58.8220   30.5330   47.9900 C   0  0  0  0  0  0  0  0  0  0  0  0
   59.6180   29.8680   48.9300 C   0  0  0  0  0  0  0  0  0  0  0  0
   59.8370   30.4660   50.2170 N   0  0  0  0  0  0  0  0  0  0  0  0
   58.8550   30.4610   51.2680 C   0  0  0  0  0  0  0  0  0  0  0  0
   57.7920   29.7940   51.1500 O   0  0  0  0  0  0  0  0  0  0  0  0
   59.1080   31.2110   52.5400 C   0  0  0  0  0  0  0  0  0  0  0  0
   58.7910   32.9890   52.2970 S   0  0  0  0  0  0  0  0  0  0  0  0
   59.8150   33.1280   50.8350 C   0  0  0  0  0  0  0  0  0  0  0  0
   61.1520   32.9170   50.9280 N   0  0  0  0  0  0  0  0  0  0  0  0
   61.9600   33.0480   49.8450 C   0  0  0  0  0  0  0  0  0  0  0  0
   63.1950   32.8350   49.9660 O   0  0  0  0  0  0  0  0  0  0  0  0
   61.4160   33.4150   48.6060 C   0  0  0  0  0  0  0  0  0  0  0  0
   62.2650   33.5360   47.4410 C   0  0  0  0  0  0  0  0  0  0  0  0
   62.9470   33.6320   46.5100 N   0  0  0  0  0  0  0  0  0  0  0  0
   60.0240   33.6190   48.5260 C   0  0  0  0  0  0  0  0  0  0  0  0
   59.3600   33.9720   47.2570 C   0  0  0  0  0  0  0  0  0  0  0  0
   59.8940   34.9690   46.4230 C   0  0  0  0  0  0  0  0  0  0  0  0
   59.2560   35.2950   45.2220 C   0  0  0  0  0  0  0  0  0  0  0  0
   58.0880   34.6240   44.8410 C   0  0  0  0  0  0  0  0  0  0  0  0
   57.5530   33.6300   45.6670 C   0  0  0  0  0  0  0  0  0  0  0  0
   58.1810   33.3130   46.8770 C   0  0  0  0  0  0  0  0  0  0  0  0
   59.2620   33.4700   49.6430 N   0  0  0  0  0  0  0  0  0  0  0  0
   60.1470   28.6070   48.6120 C   0  0  0  0  0  0  0  0  0  0  0  0
   59.9250   28.0330   47.3480 C   0  0  0  0  0  0  0  0  0  0  0  0
   60.4510   26.6580   47.0410 C   0  0  0  0  0  0  0  0  0  0  0  0
   59.4680   25.6990   47.4130 O   0  0  0  0  0  0  0  0  0  0  0  0
   58.7210   24.9220   46.5160 C   0  0  0  0  0  0  0  0  0  0  0  0
   59.3160   23.9880   45.6470 C   0  0  0  0  0  0  0  0  0  0  0  0
   58.5190   23.2150   44.7980 C   0  0  0  0  0  0  0  0  0  0  0  0
   57.1300   23.3680   44.8040 C   0  0  0  0  0  0  0  0  0  0  0  0
   56.5290   24.3050   45.6540 C   0  0  0  0  0  0  0  0  0  0  0  0
   54.7790   24.4900   45.7010 S   0  0  0  0  0  0  0  0  0  0  0  0
   54.3830   26.1450   45.9920 N   0  0  0  0  0  0  0  0  0  0  0  0
   54.1980   24.0590   44.3820 O   0  0  0  0  0  0  0  0  0  0  0  0
   54.1920   23.6400   46.7920 O   0  0  0  0  0  0  0  0  0  0  0  0
   57.3290   25.0810   46.5020 C   0  0  0  0  0  0  0  0  0  0  0  0
   56.8981   28.2887   45.0641 H   0  0  0  0  0  0  0  0  0  0  0  0
   57.7800   29.1276   43.7430 H   0  0  0  0  0  0  0  0  0  0  0  0
   57.6550   27.3356   43.7430 H   0  0  0  0  0  0  0  0  0  0  0  0
   57.9845   30.5156   45.9951 H   0  0  0  0  0  0  0  0  0  0  0  0
   58.3690   31.5021   48.2460 H   0  0  0  0  0  0  0  0  0  0  0  0
   60.8020   30.7990   50.4470 H   0  0  0  0  0  0  0  0  0  0  0  0
   58.4415   30.8274   53.3265 H   0  0  0  0  0  0  0  0  0  0  0  0
   60.1582   31.0711   52.8359 H   0  0  0  0  0  0  0  0  0  0  0  0
   60.8154   35.4939   46.7153 H   0  0  0  0  0  0  0  0  0  0  0  0
   59.6731   36.0808   44.5750 H   0  0  0  0  0  0  0  0  0  0  0  0
   57.5914   34.8782   43.8930 H   0  0  0  0  0  0  0  0  0  0  0  0
   56.6389   33.0975   45.3657 H   0  0  0  0  0  0  0  0  0  0  0  0
   57.7482   32.5435   47.5332 H   0  0  0  0  0  0  0  0  0  0  0  0
   60.7417   28.0622   49.3600 H   0  0  0  0  0  0  0  0  0  0  0  0
   60.6610   26.5741   45.9645 H   0  0  0  0  0  0  0  0  0  0  0  0
   61.3801   26.4787   47.6019 H   0  0  0  0  0  0  0  0  0  0  0  0
   60.4092   23.8664   45.6361 H   0  0  0  0  0  0  0  0  0  0  0  0
   58.9868   22.4835   44.1226 H   0  0  0  0  0  0  0  0  0  0  0  0
   56.5072   22.7511   44.1396 H   0  0  0  0  0  0  0  0  0  0  0  0
   54.8230   26.7050   45.2260 H   0  0  0  0  0  0  0  0  0  0  0  0
   56.8595   25.8233   47.1642 H   0  0  0  0  0  0  0  0  0  0  0  0
  1  2  1  0
  2  3  1  0
  3  4  2  0
  4  5  1  0
  5  6  2  0
  6  7  1  0
  7  8  1  0
  8  9  2  0
  8 10  1  0
 10 11  1  0
 11 12  1  0
 12 13  2  0
 13 14  1  0
 14 15  2  0
 14 16  1  0
 16 17  1  0
 17 18  3  0
 16 19  2  0
 19 20  1  0
 20 21  2  0
 21 22  1  0
 22 23  2  0
 23 24  1  0
 24 25  2  0
 19 26  1  0
  6 27  1  0
 27 28  2  0
 28 29  1  0
 29 30  1  0
 30 31  1  0
 31 32  2  0
 32 33  1  0
 33 34  2  0
 34 35  1  0
 35 36  1  0
 36 37  1  0
 36 38  2  0
 36 39  2  0
 35 40  2  0
 28  3  1  0
 40 31  1  0
 26 12  1  0
 25 20  1  0
  1 41  1  0
  1 42  1  0
  1 43  1  0
  4 44  1  0
  5 45  1  0
  7 46  1  0
 10 47  1  0
 10 48  1  0
 21 49  1  0
 22 50  1  0
 23 51  1  0
 24 52  1  0
 25 53  1  0
 27 54  1  0
 29 55  1  0
 29 56  1  0
 32 57  1  0
 33 58  1  0
 34 59  1  0
 37 60  1  0
 40 61  1  0
M  CHG  2  26  -1  37  -1
M  END
>  <UniqueID>  (20) 
19

>  <SMILES>  (20) 
COc1ccc(NC(=O)CSc2nc(=O)c(C#N)c(-c3ccccc3)[n-]2)cc1COc1cccc(S([NH-])(=O)=O)c1

>  <Energy>  (20) 
66.38949824115734

>  <Genealogy>  (20) 
COc1ccc(NC(=O)CSc2nc(=O)c(C#N)c(-c3ccccc3)[n-]2)cc1COc1cccc(S([NH-])(=O)=O)c1 (protonated)
COc1ccc(NC(=O)CSc2nc(=O)c(C#N)c(-c3ccccc3)[n-]2)cc1COc1cccc(S([NH-])(=O)=O)c1 (3D coordinates assigned)
COc1ccc(NC(=O)CSc2nc(=O)c(C#N)c(-c3ccccc3)[n-]2)cc1COc1cccc(S([NH-])(=O)=O)c1 (optimized conformer: 66.38949824115734 kcal/mol)

>  <smiles>  (20) 
COc1ccc(NC(=O)CSc2nc(=O)c(C#N)c(-c3ccccc3)[nH]2)cc1COc1cccc(S(N)(=O)=O)c1

>  <score_type>  (20) 
oracle

>  <origin>  (20) 
adg

>  <m_score__min__energy>  (20) 
-14.779999999999999

>  <m_primary>  (20) 
energy

$$$$
20:0
     RDKit          3D

 42 44  0  0  1  0  0  0  0  0999 V2000
   55.2540   29.1680   44.6080 N   0  0  0  0  0  0  0  0  0  0  0  0
   56.3990   29.7100   44.7400 C   0  0  0  0  0  0  0  0  0  0  0  0
   56.5880   30.9000   44.1100 N   0  0  0  0  0  0  0  0  0  0  0  0
   57.7540   31.5660   44.1900 C   0  0  0  0  0  0  0  0  0  0  0  0
   57.9940   32.6880   43.6220 N   0  0  0  0  0  0  0  0  0  0  0  0
   58.0630   33.8950   44.4590 C   0  0  0  0  0  0  0  0  0  0  0  0
   57.2820   33.7740   45.7200 C   0  0  0  0  0  0  0  0  0  0  0  0
   58.2340   33.6770   46.8500 C   0  0  0  0  0  0  0  0  0  0  0  0
   58.2320   32.7360   47.8050 C   0  0  0  0  0  0  0  0  0  0  0  0
   59.1550   32.7890   48.7820 C   0  0  0  0  0  0  0  0  0  0  0  0
   60.0520   33.8080   48.7480 C   0  0  0  0  0  0  0  0  0  0  0  0
   59.5780   34.7840   47.2240 S   0  0  0  0  0  0  0  0  0  0  0  0
   58.7780   31.0280   44.9240 N   0  0  0  0  0  0  0  0  0  0  0  0
   58.6260   29.8550   45.5580 C   0  0  0  0  0  0  0  0  0  0  0  0
   59.6920   29.3110   46.3010 N   0  0  0  0  0  0  0  0  0  0  0  0
   60.6840   28.5080   45.5580 C   0  0  0  0  0  0  0  0  0  0  0  0
   60.4620   27.0890   46.0470 C   0  0  0  0  0  0  0  0  0  0  0  0
   59.9360   27.0450   47.3270 O   0  0  0  0  0  0  0  0  0  0  0  0
   60.3970   28.0540   48.1680 C   0  0  0  0  0  0  0  0  0  0  0  0
   59.9170   29.4400   47.7040 C   0  0  0  0  0  0  0  0  0  0  0  0
   57.4360   29.1730   45.4800 C   0  0  0  0  0  0  0  0  0  0  0  0
   57.1870   27.9280   46.1160 N   0  0  0  0  0  0  0  0  0  0  0  0
   57.5790   27.7750   47.3020 O   0  0  0  0  0  0  0  0  0  0  0  0
   56.5240   26.8860   45.4680 O   0  0  0  0  0  0  0  0  0  0  0  0
   55.1450   28.1640   44.8570 H   0  0  0  0  0  0  0  0  0  0  0  0
   55.8280   31.2950   43.5540 H   0  0  0  0  0  0  0  0  0  0  0  0
   59.1159   34.0838   44.7156 H   0  0  0  0  0  0  0  0  0  0  0  0
   57.6266   34.7222   43.8799 H   0  0  0  0  0  0  0  0  0  0  0  0
   56.6424   34.6598   45.8477 H   0  0  0  0  0  0  0  0  0  0  0  0
   56.6431   32.8792   45.6853 H   0  0  0  0  0  0  0  0  0  0  0  0
   57.4839   31.9297   47.7897 H   0  0  0  0  0  0  0  0  0  0  0  0
   59.1823   32.0332   49.5808 H   0  0  0  0  0  0  0  0  0  0  0  0
   60.8698   34.0126   49.4546 H   0  0  0  0  0  0  0  0  0  0  0  0
   59.6960   31.5280   45.0000 H   0  0  0  0  0  0  0  0  0  0  0  0
   60.5089   28.5783   44.4743 H   0  0  0  0  0  0  0  0  0  0  0  0
   61.7146   28.8535   45.7265 H   0  0  0  0  0  0  0  0  0  0  0  0
   59.7648   26.5848   45.3617 H   0  0  0  0  0  0  0  0  0  0  0  0
   61.4404   26.5869   46.0705 H   0  0  0  0  0  0  0  0  0  0  0  0
   60.0234   27.8690   49.1859 H   0  0  0  0  0  0  0  0  0  0  0  0
   61.4967   28.0451   48.1460 H   0  0  0  0  0  0  0  0  0  0  0  0
   58.9858   29.7176   48.2195 H   0  0  0  0  0  0  0  0  0  0  0  0
   60.6529   30.2256   47.9305 H   0  0  0  0  0  0  0  0  0  0  0  0
  1  2  2  3
  2  3  1  0
  3  4  1  0
  4  5  2  0
  5  6  1  0
  6  7  1  0
  7  8  1  0
  8  9  2  0
  9 10  1  0
 10 11  2  0
 11 12  1  0
  4 13  1  0
 13 14  1  0
 14 15  1  0
 15 16  1  0
 16 17  1  0
 17 18  1  0
 18 19  1  0
 19 20  1  0
 14 21  2  0
 21 22  1  0
 22 23  2  0
 22 24  1  0
 21  2  1  0
 12  8  1  0
 20 15  1  0
  1 25  1  0
  3 26  1  0
  6 27  1  0
  6 28  1  0
  7 29  1  0
  7 30  1  0
  9 31  1  0
 10 32  1  0
 11 33  1  0
 13 34  1  0
 16 35  1  0
 16 36  1  0
 17 37  1  0
 17 38  1  0
 19 39  1  0
 19 40  1  0
 20 41  1  0
 20 42  1  0
M  CHG  2  22   1  24  -1
M  END
>  <smiles>  (21) 
N=c1[nH]c(=NCCc2cccs2)[nH]c(N2CCOCC2)c1[N+](=O)[O-]

>  <score_type>  (21) 
oracle

>  <origin>  (21) 
adg

>  <m_score__min__energy>  (21) 
-6.6299999999999999

>  <m_primary>  (21) 
energy

$$$$
21:0
     RDKit          3D

 53 56  0  0  0  0  0  0  0  0999 V2000
   59.3701   32.2280   49.4296 H   0  0  0  0  0  0  0  0  0  0  0  0
   59.7150   31.2420   49.0850 C   0  0  0  0  0  0  0  0  0  0  0  0
   58.9270   29.7760   49.3430 S   0  0  0  0  0  0  0  0  0  0  0  0
   60.0950   28.8900   48.5330 C   0  0  0  0  0  0  0  0  0  0  0  0
   60.0540   27.5970   48.3920 N   0  0  0  0  0  0  0  0  0  0  0  0
   59.8030   26.8670   47.1780 C   0  0  0  0  0  0  0  0  0  0  0  0
   60.7720   26.6230   46.4120 O   0  0  0  0  0  0  0  0  0  0  0  0
   58.4580   26.3850   46.7930 C   0  0  0  0  0  0  0  0  0  0  0  0
   58.1370   25.0360   47.0020 C   0  0  0  0  0  0  0  0  0  0  0  0
   58.9042   24.3481   47.3870 H   0  0  0  0  0  0  0  0  0  0  0  0
   56.8450   24.5520   46.7250 C   0  0  0  0  0  0  0  0  0  0  0  0
   56.4860   23.2140   46.9450 O   0  0  0  0  0  0  0  0  0  0  0  0
   55.7610   22.7490   48.0800 C   0  0  0  0  0  0  0  0  0  0  0  0
   56.2698   23.0754   48.9990 H   0  0  0  0  0  0  0  0  0  0  0  0
   54.7418   23.1623   48.0586 H   0  0  0  0  0  0  0  0  0  0  0  0
   55.7116   21.6503   48.0586 H   0  0  0  0  0  0  0  0  0  0  0  0
   55.8720   25.4270   46.2230 C   0  0  0  0  0  0  0  0  0  0  0  0
   54.5820   24.9250   45.9900 O   0  0  0  0  0  0  0  0  0  0  0  0
   54.2350   24.0490   44.9190 C   0  0  0  0  0  0  0  0  0  0  0  0
   53.8590   23.0999   45.3287 H   0  0  0  0  0  0  0  0  0  0  0  0
   53.4542   24.5166   44.3012 H   0  0  0  0  0  0  0  0  0  0  0  0
   55.1242   23.8550   44.3012 H   0  0  0  0  0  0  0  0  0  0  0  0
   56.2080   26.7670   45.9700 C   0  0  0  0  0  0  0  0  0  0  0  0
   55.4483   27.4464   45.5561 H   0  0  0  0  0  0  0  0  0  0  0  0
   57.4990   27.2540   46.2370 C   0  0  0  0  0  0  0  0  0  0  0  0
   57.8660   28.6110   45.9580 N   0  0  0  0  0  0  0  0  0  0  0  0
   57.0950   29.6780   44.8310 S   0  0  0  0  0  0  0  0  0  0  0  0
   57.4170   29.2210   43.4370 O   0  0  0  0  0  0  0  0  0  0  0  0
   55.6060   29.6230   45.0040 O   0  0  0  0  0  0  0  0  0  0  0  0
   57.6940   31.3200   45.0480 C   0  0  0  0  0  0  0  0  0  0  0  0
   57.9940   32.1280   43.9410 C   0  0  0  0  0  0  0  0  0  0  0  0
   57.8536   31.7379   42.9221 H   0  0  0  0  0  0  0  0  0  0  0  0
   58.4710   33.4280   44.1310 C   0  0  0  0  0  0  0  0  0  0  0  0
   58.6971   34.0629   43.2617 H   0  0  0  0  0  0  0  0  0  0  0  0
   58.6610   33.9220   45.4250 C   0  0  0  0  0  0  0  0  0  0  0  0
   59.0460   34.9417   45.5732 H   0  0  0  0  0  0  0  0  0  0  0  0
   58.3620   33.1210   46.5300 C   0  0  0  0  0  0  0  0  0  0  0  0
   58.5087   33.5115   47.5478 H   0  0  0  0  0  0  0  0  0  0  0  0
   57.8770   31.8250   46.3430 C   0  0  0  0  0  0  0  0  0  0  0  0
   57.6377   31.1982   47.2147 H   0  0  0  0  0  0  0  0  0  0  0  0
   61.0770   29.6790   48.0520 N   0  0  0  0  0  0  0  0  0  0  0  0
   60.8840   30.9910   48.3570 C   0  0  0  0  0  0  0  0  0  0  0  0
   61.8870   32.0200   47.9620 C   0  0  0  0  0  0  0  0  0  0  0  0
   61.6260   32.8570   46.8610 C   0  0  0  0  0  0  0  0  0  0  0  0
   60.6783   32.7540   46.3121 H   0  0  0  0  0  0  0  0  0  0  0  0
   62.5560   33.8160   46.4580 C   0  0  0  0  0  0  0  0  0  0  0  0
   62.3410   34.4606   45.5930 H   0  0  0  0  0  0  0  0  0  0  0  0
   63.7580   33.9580   47.1510 C   0  0  0  0  0  0  0  0  0  0  0  0
   64.4911   34.7133   46.8314 H   0  0  0  0  0  0  0  0  0  0  0  0
   64.0310   33.1420   48.2500 C   0  0  0  0  0  0  0  0  0  0  0  0
   64.9790   33.2564   48.7961 H   0  0  0  0  0  0  0  0  0  0  0  0
   63.1040   32.1810   48.6580 C   0  0  0  0  0  0  0  0  0  0  0  0
   63.3238   31.5449   49.5281 H   0  0  0  0  0  0  0  0  0  0  0  0
  1  2  1  0
  2  3  1  0
  3  4  1  0
  4  5  2  0
  5  6  1  0
  6  7  2  0
  6  8  1  0
  8  9  2  0
  9 10  1  0
  9 11  1  0
 11 12  1  0
 12 13  1  0
 13 14  1  0
 13 15  1  0
 13 16  1  0
 11 17  2  0
 17 18  1  0
 18 19  1  0
 19 20  1  0
 19 21  1  0
 19 22  1  0
 17 23  1  0
 23 24  1  0
 23 25  2  0
 25 26  1  0
 26 27  1  0
 27 28  2  0
 27 29  2  0
 27 30  1  0
 30 31  2  0
 31 32  1  0
 31 33  1  0
 33 34  1  0
 33 35  2  0
 35 36  1  0
 35 37  1  0
 37 38  1  0
 37 39  2  0
 39 40  1  0
  4 41  1  0
 41 42  1  0
 42 43  1  0
 43 44  2  0
 44 45  1  0
 44 46  1  0
 46 47  1  0
 46 48  2  0
 48 49  1  0
 48 50  1  0
 50 51  1  0
 50 52  2  0
 52 53  1  0
 42  2  2  0
 52 43  1  0
 25  8  1  0
 39 30  1  0
M  CHG  2  26  -1  41  -1
M  END
>  <UniqueID>  (22) 
20

>  <SMILES>  (22) 
COc1cc([N-]S(=O)(=O)c2ccccc2)c(C(=O)/N=c2\[n-]c(-c3ccccc3)cs2)cc1OC

>  <Energy>  (22) 
92.63194991749555

>  <Genealogy>  (22) 
COc1cc([N-]S(=O)(=O)c2ccccc2)c(C(=O)N=c2[n-]c(-c3ccccc3)cs2)cc1OC (protonated)
COc1cc([N-]S(=O)(=O)c2ccccc2)c(C(=O)/N=c2\[n-]c(-c3ccccc3)cs2)cc1OC (cis-trans isomerization)
COc1cc([N-]S(=O)(=O)c2ccccc2)c(C(=O)/N=c2\[n-]c(-c3ccccc3)cs2)cc1OC (3D coordinates assigned)
COc1cc([N-]S(=O)(=O)c2ccccc2)c(C(=O)/N=c2\[n-]c(-c3ccccc3)cs2)cc1OC (optimized conformer: 92.63194991749555 kcal/mol)

>  <smiles>  (22) 
COc1cc(NS(=O)(=O)c2ccccc2)c(C(=O)N=c2[nH]c(-c3ccccc3)cs2)cc1OC

>  <score_type>  (22) 
oracle

>  <origin>  (22) 
adg

>  <m_score__min__energy>  (22) 
-12.83

>  <m_primary>  (22) 
energy

$$$$
22:0
     RDKit          3D

 51 54  0  0  0  0  0  0  0  0999 V2000
   59.5890   35.2450   45.6660 C   0  0  0  0  0  0  0  0  0  0  0  0
   58.9420   33.9020   45.4470 C   0  0  0  0  0  0  0  0  0  0  0  0
   58.6450   33.4860   44.1370 C   0  0  0  0  0  0  0  0  0  0  0  0
   58.0210   32.2580   43.9060 C   0  0  0  0  0  0  0  0  0  0  0  0
   57.6950   31.4220   44.9770 C   0  0  0  0  0  0  0  0  0  0  0  0
   56.8470   29.9140   44.6650 S   0  0  0  0  0  0  0  0  0  0  0  0
   55.3790   30.2040   44.5100 O   0  0  0  0  0  0  0  0  0  0  0  0
   57.3430   29.2570   43.4040 O   0  0  0  0  0  0  0  0  0  0  0  0
   57.0750   28.8470   46.0120 N   0  0  0  0  0  0  0  0  0  0  0  0
   57.4620   27.4670   45.9350 C   0  0  0  0  0  0  0  0  0  0  0  0
   56.5200   26.4640   45.6450 C   0  0  0  0  0  0  0  0  0  0  0  0
   56.9180   25.1330   45.5140 C   0  0  0  0  0  0  0  0  0  0  0  0
   58.2610   24.7840   45.6670 C   0  0  0  0  0  0  0  0  0  0  0  0
   59.2080   25.7620   45.9680 C   0  0  0  0  0  0  0  0  0  0  0  0
   58.8210   27.1050   46.1220 C   0  0  0  0  0  0  0  0  0  0  0  0
   59.8650   28.1100   46.4510 C   0  0  0  0  0  0  0  0  0  0  0  0
   60.4970   28.6660   45.5170 O   0  0  0  0  0  0  0  0  0  0  0  0
   60.1710   28.4900   47.8000 N   0  0  0  0  0  0  0  0  0  0  0  0
   60.6860   29.7510   48.2390 C   0  0  0  0  0  0  0  0  0  0  0  0
   60.2740   30.2410   49.4840 C   0  0  0  0  0  0  0  0  0  0  0  0
   60.7470   31.4720   49.9520 C   0  0  0  0  0  0  0  0  0  0  0  0
   61.6330   32.2330   49.1730 C   0  0  0  0  0  0  0  0  0  0  0  0
   62.1120   33.4700   49.6330 C   0  0  0  0  0  0  0  0  0  0  0  0
   62.9880   34.2210   48.8440 C   0  0  0  0  0  0  0  0  0  0  0  0
   63.3910   33.7480   47.5920 C   0  0  0  0  0  0  0  0  0  0  0  0
   62.9190   32.5180   47.1200 C   0  0  0  0  0  0  0  0  0  0  0  0
   62.0400   31.7530   47.9040 C   0  0  0  0  0  0  0  0  0  0  0  0
   61.5560   30.5200   47.4410 C   0  0  0  0  0  0  0  0  0  0  0  0
   57.9990   31.8180   46.2860 C   0  0  0  0  0  0  0  0  0  0  0  0
   58.6130   33.0600   46.5350 C   0  0  0  0  0  0  0  0  0  0  0  0
   58.9150   33.4630   47.9560 C   0  0  0  0  0  0  0  0  0  0  0  0
   59.6810   35.4360   46.7454 H   0  0  0  0  0  0  0  0  0  0  0  0
   60.5883   35.2499   45.2063 H   0  0  0  0  0  0  0  0  0  0  0  0
   58.9700   36.0295   45.2063 H   0  0  0  0  0  0  0  0  0  0  0  0
   58.9064   34.1333   43.2869 H   0  0  0  0  0  0  0  0  0  0  0  0
   57.7854   31.9479   42.8772 H   0  0  0  0  0  0  0  0  0  0  0  0
   55.4602   26.7310   45.5203 H   0  0  0  0  0  0  0  0  0  0  0  0
   56.1716   24.3568   45.2896 H   0  0  0  0  0  0  0  0  0  0  0  0
   58.5726   23.7356   45.5499 H   0  0  0  0  0  0  0  0  0  0  0  0
   60.2650   25.4811   46.0858 H   0  0  0  0  0  0  0  0  0  0  0  0
   59.5743   29.6549   50.0980 H   0  0  0  0  0  0  0  0  0  0  0  0
   60.4231   31.8451   50.9348 H   0  0  0  0  0  0  0  0  0  0  0  0
   61.7972   33.8490   50.6165 H   0  0  0  0  0  0  0  0  0  0  0  0
   63.3619   35.1886   49.2101 H   0  0  0  0  0  0  0  0  0  0  0  0
   64.0807   34.3439   46.9763 H   0  0  0  0  0  0  0  0  0  0  0  0
   63.2369   32.1498   46.1334 H   0  0  0  0  0  0  0  0  0  0  0  0
   61.8575   30.1517   46.4493 H   0  0  0  0  0  0  0  0  0  0  0  0
   57.7556   31.1522   47.1271 H   0  0  0  0  0  0  0  0  0  0  0  0
   58.4022   32.7788   48.6480 H   0  0  0  0  0  0  0  0  0  0  0  0
   60.0003   33.4135   48.1284 H   0  0  0  0  0  0  0  0  0  0  0  0
   58.5628   34.4907   48.1284 H   0  0  0  0  0  0  0  0  0  0  0  0
  1  2  1  0
  2  3  2  0
  3  4  1  0
  4  5  2  0
  5  6  1  0
  6  7  2  0
  6  8  2  0
  6  9  1  0
  9 10  1  0
 10 11  2  0
 11 12  1  0
 12 13  2  0
 13 14  1  0
 14 15  2  0
 15 16  1  0
 16 17  2  0
 16 18  1  0
 18 19  1  0
 19 20  2  0
 20 21  1  0
 21 22  2  0
 22 23  1  0
 23 24  2  0
 24 25  1  0
 25 26  2  0
 26 27  1  0
 27 28  2  0
  5 29  1  0
 29 30  2  0
 30 31  1  0
 30  2  1  0
 15 10  1  0
 28 19  1  0
 27 22  1  0
  1 32  1  0
  1 33  1  0
  1 34  1  0
  3 35  1  0
  4 36  1  0
 11 37  1  0
 12 38  1  0
 13 39  1  0
 14 40  1  0
 20 41  1  0
 21 42  1  0
 23 43  1  0
 24 44  1  0
 25 45  1  0
 26 46  1  0
 28 47  1  0
 29 48  1  0
 31 49  1  0
 31 50  1  0
 31 51  1  0
M  CHG  2   9  -1  18  -1
M  END
>  <UniqueID>  (23) 
21

>  <SMILES>  (23) 
Cc1ccc(S(=O)(=O)[N-]c2ccccc2C(=O)[N-]c2ccc3ccccc3c2)cc1C

>  <Energy>  (23) 
69.82225889722376

>  <Genealogy>  (23) 
Cc1ccc(S(=O)(=O)[N-]c2ccccc2C(=O)[N-]c2ccc3ccccc3c2)cc1C (protonated)
Cc1ccc(S(=O)(=O)[N-]c2ccccc2C(=O)[N-]c2ccc3ccccc3c2)cc1C (3D coordinates assigned)
Cc1ccc(S(=O)(=O)[N-]c2ccccc2C(=O)[N-]c2ccc3ccccc3c2)cc1C (optimized conformer: 69.82225889722376 kcal/mol)

>  <smiles>  (23) 
Cc1ccc(S(=O)(=O)Nc2ccccc2C(=O)Nc2ccc3ccccc3c2)cc1C

>  <score_type>  (23) 
oracle

>  <origin>  (23) 
adg

>  <m_score__min__energy>  (23) 
-13.449999999999999

>  <m_primary>  (23) 
energy

$$$$
23:0
     RDKit          3D

 36 38  0  0  0  0  0  0  0  0999 V2000
   63.7180   33.9380   51.0520 H   0  0  0  0  0  0  0  0  0  0  0  0
   63.8020   33.9620   50.0420 O   0  0  0  0  0  0  0  0  0  0  0  0
   62.6780   33.9710   49.2190 C   0  0  0  0  0  0  0  0  0  0  0  0
   62.8280   33.7760   47.8430 C   0  0  0  0  0  0  0  0  0  0  0  0
   63.8301   33.6173   47.4180 H   0  0  0  0  0  0  0  0  0  0  0  0
   61.7090   33.7820   47.0050 C   0  0  0  0  0  0  0  0  0  0  0  0
   61.8357   33.6341   45.9224 H   0  0  0  0  0  0  0  0  0  0  0  0
   60.4230   33.9760   47.5380 C   0  0  0  0  0  0  0  0  0  0  0  0
   59.2710   34.0000   46.6720 N   0  0  0  0  0  0  0  0  0  0  0  0
   57.9920   33.4530   47.1490 C   0  0  0  0  0  0  0  0  0  0  0  0
   57.5577   34.1497   47.8811 H   0  0  0  0  0  0  0  0  0  0  0  0
   58.1889   32.4717   47.6054 H   0  0  0  0  0  0  0  0  0  0  0  0
   56.9930   33.2530   46.0000 C   0  0  0  0  0  0  0  0  0  0  0  0
   56.5118   34.2148   45.7691 H   0  0  0  0  0  0  0  0  0  0  0  0
   56.2408   32.5134   46.3117 H   0  0  0  0  0  0  0  0  0  0  0  0
   57.6750   32.7530   44.7950 N   0  0  0  0  0  0  0  0  0  0  0  0
   57.0280   31.7860   43.9490 C   0  0  0  0  0  0  0  0  0  0  0  0
   57.0490   31.9350   42.6980 O   0  0  0  0  0  0  0  0  0  0  0  0
   56.3120   30.6730   44.4990 N   0  0  0  0  0  0  0  0  0  0  0  0
   56.8590   29.5870   44.9600 C   0  0  0  0  0  0  0  0  0  0  0  0
   56.1370   28.4860   45.2500 N   0  0  0  0  0  0  0  0  0  0  0  0
   56.9270   27.4650   45.6780 C   0  0  0  0  0  0  0  0  0  0  0  0
   56.5187   26.4866   45.9714 H   0  0  0  0  0  0  0  0  0  0  0  0
   58.2880   27.7470   45.7180 C   0  0  0  0  0  0  0  0  0  0  0  0
   59.0817   27.0544   46.0347 H   0  0  0  0  0  0  0  0  0  0  0  0
   58.5100   29.3310   45.1980 S   0  0  0  0  0  0  0  0  0  0  0  0
   58.9110   33.3970   44.3260 C   0  0  0  0  0  0  0  0  0  0  0  0
   58.7269   33.8475   43.3395 H   0  0  0  0  0  0  0  0  0  0  0  0
   59.6978   32.6305   44.2665 H   0  0  0  0  0  0  0  0  0  0  0  0
   59.3770   34.4880   45.2910 C   0  0  0  0  0  0  0  0  0  0  0  0
   58.7453   35.3801   45.1681 H   0  0  0  0  0  0  0  0  0  0  0  0
   60.4239   34.7463   45.0734 H   0  0  0  0  0  0  0  0  0  0  0  0
   60.2800   34.1800   48.9210 C   0  0  0  0  0  0  0  0  0  0  0  0
   59.2800   34.3455   49.3484 H   0  0  0  0  0  0  0  0  0  0  0  0
   61.4000   34.1740   49.7570 C   0  0  0  0  0  0  0  0  0  0  0  0
   61.2781   34.3289   50.8392 H   0  0  0  0  0  0  0  0  0  0  0  0
  1  2  1  0
  2  3  1  0
  3  4  2  0
  4  5  1  0
  4  6  1  0
  6  7  1  0
  6  8  2  0
  8  9  1  0
  9 10  1  0
 10 11  1  0
 10 12  1  0
 10 13  1  0
 13 14  1  0
 13 15  1  0
 13 16  1  0
 16 17  1  0
 17 18  2  0
 17 19  1  0
 19 20  2  0
 20 21  1  0
 21 22  1  0
 22 23  1  0
 22 24  2  0
 24 25  1  0
 24 26  1  0
 16 27  1  0
 27 28  1  0
 27 29  1  0
 27 30  1  0
 30 31  1  0
 30 32  1  0
  8 33  1  0
 33 34  1  0
 33 35  2  0
 35 36  1  0
 35  3  1  0
 30  9  1  0
 26 20  1  0
M  CHG  1  21  -1
M  END
>  <UniqueID>  (24) 
22

>  <SMILES>  (24) 
O=C(/N=c1/[n-]ccs1)N1CCN(c2ccc(O)cc2)CC1

>  <Energy>  (24) 
78.63002132353598

>  <Genealogy>  (24) 
O=C(N=c1[n-]ccs1)N1CCN(c2ccc(O)cc2)CC1 (protonated)
O=C(/N=c1/[n-]ccs1)N1CCN(c2ccc(O)cc2)CC1 (cis-trans isomerization)
O=C(/N=c1/[n-]ccs1)N1CCN(c2ccc(O)cc2)CC1 (3D coordinates assigned)
O=C(/N=c1/[n-]ccs1)N1CCN(c2ccc(O)cc2)CC1 (nonaromatic ring conformer: 78.63002132353598 kcal/mol)

>  <smiles>  (24) 
O=C(N=c1[nH]ccs1)N1CCN(c2ccc(O)cc2)CC1

>  <score_type>  (24) 
oracle

>  <origin>  (24) 
adg

>  <m_score__min__energy>  (24) 
-8.3900000000000006

>  <m_primary>  (24) 
energy

$$$$
24:0
     RDKit          3D

 56 58  0  0  0  0  0  0  0  0999 V2000
   55.7830   25.3940   46.6810 O   0  0  0  0  0  0  0  0  0  0  0  0
   56.4100   26.1840   45.9280 C   0  0  0  0  0  0  0  0  0  0  0  0
   57.6740   25.7260   45.2710 C   0  0  0  0  0  0  0  0  0  0  0  0
   57.4780   24.3590   44.6750 C   0  0  0  0  0  0  0  0  0  0  0  0
   56.5060   24.1550   43.6820 C   0  0  0  0  0  0  0  0  0  0  0  0
   56.3590   22.8960   43.0930 C   0  0  0  0  0  0  0  0  0  0  0  0
   57.1880   21.8370   43.4810 C   0  0  0  0  0  0  0  0  0  0  0  0
   58.1630   22.0360   44.4610 C   0  0  0  0  0  0  0  0  0  0  0  0
   58.3130   23.2910   45.0570 C   0  0  0  0  0  0  0  0  0  0  0  0
   55.8870   27.4820   45.6200 N   0  0  0  0  0  0  0  0  0  0  0  0
   56.6290   28.6960   45.4450 C   0  0  0  0  0  0  0  0  0  0  0  0
   57.7830   28.8880   46.2100 C   0  0  0  0  0  0  0  0  0  0  0  0
   58.5310   30.0600   46.0810 C   0  0  0  0  0  0  0  0  0  0  0  0
   58.1380   31.0550   45.1750 C   0  0  0  0  0  0  0  0  0  0  0  0
   58.8950   32.2560   44.9850 N   0  0  0  0  0  0  0  0  0  0  0  0
   58.3310   33.8620   45.3360 S   0  0  0  0  0  0  0  0  0  0  0  0
   59.3800   34.8460   44.8990 O   0  0  0  0  0  0  0  0  0  0  0  0
   57.0680   34.1330   44.5690 O   0  0  0  0  0  0  0  0  0  0  0  0
   58.0330   34.0730   47.0930 C   0  0  0  0  0  0  0  0  0  0  0  0
   59.3180   34.3570   47.8740 C   0  0  0  0  0  0  0  0  0  0  0  0
   60.4890   33.8450   47.1590 N   0  0  0  0  0  0  0  0  0  0  0  0
   61.8250   33.9570   47.6560 C   0  0  0  0  0  0  0  0  0  0  0  0
   62.0560   34.5450   48.7530 O   0  0  0  0  0  0  0  0  0  0  0  0
   62.8770   33.4290   46.9010 O   0  0  0  0  0  0  0  0  0  0  0  0
   63.4090   32.1270   47.1170 C   0  0  0  0  0  0  0  0  0  0  0  0
   62.5490   31.4030   48.1160 C   0  0  0  0  0  0  0  0  0  0  0  0
   61.4030   30.7100   47.6960 C   0  0  0  0  0  0  0  0  0  0  0  0
   60.5770   30.0820   48.6360 C   0  0  0  0  0  0  0  0  0  0  0  0
   60.8870   30.1480   50.0000 C   0  0  0  0  0  0  0  0  0  0  0  0
   62.0200   30.8440   50.4250 C   0  0  0  0  0  0  0  0  0  0  0  0
   62.8450   31.4790   49.4900 C   0  0  0  0  0  0  0  0  0  0  0  0
   56.9660   30.8760   44.4300 C   0  0  0  0  0  0  0  0  0  0  0  0
   56.2120   29.7080   44.5610 C   0  0  0  0  0  0  0  0  0  0  0  0
   57.9483   26.4343   44.4754 H   0  0  0  0  0  0  0  0  0  0  0  0
   58.4757   25.6805   46.0228 H   0  0  0  0  0  0  0  0  0  0  0  0
   55.8594   24.9874   43.3673 H   0  0  0  0  0  0  0  0  0  0  0  0
   55.5900   22.7370   42.3227 H   0  0  0  0  0  0  0  0  0  0  0  0
   57.0716   20.8479   43.0140 H   0  0  0  0  0  0  0  0  0  0  0  0
   58.8142   21.2030   44.7644 H   0  0  0  0  0  0  0  0  0  0  0  0
   59.0845   23.4451   45.8258 H   0  0  0  0  0  0  0  0  0  0  0  0
   58.1041   28.1104   46.9186 H   0  0  0  0  0  0  0  0  0  0  0  0
   59.4334   30.2033   46.6935 H   0  0  0  0  0  0  0  0  0  0  0  0
   57.3402   34.9155   47.2349 H   0  0  0  0  0  0  0  0  0  0  0  0
   57.6092   33.1329   47.4760 H   0  0  0  0  0  0  0  0  0  0  0  0
   59.4249   35.4435   48.0084 H   0  0  0  0  0  0  0  0  0  0  0  0
   59.2544   33.8532   48.8498 H   0  0  0  0  0  0  0  0  0  0  0  0
   60.3460   33.3940   46.2260 H   0  0  0  0  0  0  0  0  0  0  0  0
   63.4186   31.5710   46.1679 H   0  0  0  0  0  0  0  0  0  0  0  0
   64.4367   32.2059   47.5012 H   0  0  0  0  0  0  0  0  0  0  0  0
   61.1532   30.6602   46.6259 H   0  0  0  0  0  0  0  0  0  0  0  0
   59.6825   29.5355   48.3023 H   0  0  0  0  0  0  0  0  0  0  0  0
   60.2379   29.6515   50.7364 H   0  0  0  0  0  0  0  0  0  0  0  0
   62.2646   30.8933   51.4963 H   0  0  0  0  0  0  0  0  0  0  0  0
   63.7282   32.0397   49.8300 H   0  0  0  0  0  0  0  0  0  0  0  0
   56.6363   31.6626   43.7353 H   0  0  0  0  0  0  0  0  0  0  0  0
   55.2915   29.5791   43.9727 H   0  0  0  0  0  0  0  0  0  0  0  0
  1  2  2  0
  2  3  1  0
  3  4  1  0
  4  5  2  0
  5  6  1  0
  6  7  2  0
  7  8  1  0
  8  9  2  0
  2 10  1  0
 10 11  1  0
 11 12  2  0
 12 13  1  0
 13 14  2  0
 14 15  1  0
 15 16  1  0
 16 17  2  0
 16 18  2  0
 16 19  1  0
 19 20  1  0
 20 21  1  0
 21 22  1  0
 22 23  2  0
 22 24  1  0
 24 25  1  0
 25 26  1  0
 26 27  2  0
 27 28  1  0
 28 29  2  0
 29 30  1  0
 30 31  2  0
 14 32  1  0
 32 33  2  0
  9  4  1  0
 33 11  1  0
 31 26  1  0
  3 34  1  0
  3 35  1  0
  5 36  1  0
  6 37  1  0
  7 38  1  0
  8 39  1  0
  9 40  1  0
 12 41  1  0
 13 42  1  0
 19 43  1  0
 19 44  1  0
 20 45  1  0
 20 46  1  0
 21 47  1  0
 25 48  1  0
 25 49  1  0
 27 50  1  0
 28 51  1  0
 29 52  1  0
 30 53  1  0
 31 54  1  0
 32 55  1  0
 33 56  1  0
M  CHG  2  10  -1  15  -1
M  END
>  <UniqueID>  (25) 
23

>  <SMILES>  (25) 
O=C(Cc1ccccc1)[N-]c1ccc([N-]S(=O)(=O)CCNC(=O)OCc2ccccc2)cc1

>  <Energy>  (25) 
49.82215892604714

>  <Genealogy>  (25) 
O=C(Cc1ccccc1)[N-]c1ccc([N-]S(=O)(=O)CCNC(=O)OCc2ccccc2)cc1 (protonated)
O=C(Cc1ccccc1)[N-]c1ccc([N-]S(=O)(=O)CCNC(=O)OCc2ccccc2)cc1 (3D coordinates assigned)
O=C(Cc1ccccc1)[N-]c1ccc([N-]S(=O)(=O)CCNC(=O)OCc2ccccc2)cc1 (optimized conformer: 49.82215892604714 kcal/mol)

>  <smiles>  (25) 
O=C(Cc1ccccc1)Nc1ccc(NS(=O)(=O)CCNC(=O)OCc2ccccc2)cc1

>  <score_type>  (25) 
oracle

>  <origin>  (25) 
adg

>  <m_score__min__energy>  (25) 
-11.470000000000001

>  <m_primary>  (25) 
energy

$$$$
25:0
     RDKit          3D

 45 47  0  0  0  0  0  0  0  0999 V2000
   60.5130   26.9700   49.3330 C   0  0  0  0  0  0  0  0  0  0  0  0
   59.8160   26.3310   48.2690 O   0  0  0  0  0  0  0  0  0  0  0  0
   59.2230   27.0080   47.1910 C   0  0  0  0  0  0  0  0  0  0  0  0
   59.9360   27.9050   46.3820 C   0  0  0  0  0  0  0  0  0  0  0  0
   59.3030   28.5490   45.3170 C   0  0  0  0  0  0  0  0  0  0  0  0
   57.9450   28.3040   45.0250 C   0  0  0  0  0  0  0  0  0  0  0  0
   57.2610   29.0160   43.8700 C   0  0  0  0  0  0  0  0  0  0  0  0
   56.1020   29.8890   44.2850 C   0  0  0  0  0  0  0  0  0  0  0  0
   55.0000   29.3470   44.5630 O   0  0  0  0  0  0  0  0  0  0  0  0
   56.2540   31.2960   44.5120 N   0  0  0  0  0  0  0  0  0  0  0  0
   57.3730   31.9450   45.1300 C   0  0  0  0  0  0  0  0  0  0  0  0
   57.8350   33.1560   44.5970 C   0  0  0  0  0  0  0  0  0  0  0  0
   58.9470   33.7920   45.1540 C   0  0  0  0  0  0  0  0  0  0  0  0
   59.6190   33.2130   46.2320 C   0  0  0  0  0  0  0  0  0  0  0  0
   59.1830   31.9890   46.7590 C   0  0  0  0  0  0  0  0  0  0  0  0
   60.0600   31.2370   48.0870 S   0  0  0  0  0  0  0  0  0  0  0  0
   60.6590   32.2910   48.9760 O   0  0  0  0  0  0  0  0  0  0  0  0
   61.1620   30.3870   47.5200 O   0  0  0  0  0  0  0  0  0  0  0  0
   59.0080   30.2340   49.0370 N   0  0  0  0  0  0  0  0  0  0  0  0
   58.4200   30.6290   50.1240 C   0  0  0  0  0  0  0  0  0  0  0  0
   57.8490   29.7080   50.9460 N   0  0  0  0  0  0  0  0  0  0  0  0
   57.2360   30.0830   52.0980 C   0  0  0  0  0  0  0  0  0  0  0  0
   57.1730   31.4320   52.4470 C   0  0  0  0  0  0  0  0  0  0  0  0
   57.7550   32.3660   51.5920 C   0  0  0  0  0  0  0  0  0  0  0  0
   58.3710   31.9500   50.4550 N   0  0  0  0  0  0  0  0  0  0  0  0
   58.0680   31.3530   46.1980 C   0  0  0  0  0  0  0  0  0  0  0  0
   57.2180   27.4370   45.8790 C   0  0  0  0  0  0  0  0  0  0  0  0
   55.8440   27.2190   45.7350 O   0  0  0  0  0  0  0  0  0  0  0  0
   57.8710   26.7800   46.9290 C   0  0  0  0  0  0  0  0  0  0  0  0
   60.1211   26.6107   50.2960 H   0  0  0  0  0  0  0  0  0  0  0  0
   61.5852   26.7345   49.2626 H   0  0  0  0  0  0  0  0  0  0  0  0
   60.3713   28.0586   49.2626 H   0  0  0  0  0  0  0  0  0  0  0  0
   60.9985   28.1020   46.5875 H   0  0  0  0  0  0  0  0  0  0  0  0
   59.8716   29.2576   44.6968 H   0  0  0  0  0  0  0  0  0  0  0  0
   58.0057   29.6478   43.3638 H   0  0  0  0  0  0  0  0  0  0  0  0
   56.8508   28.2346   43.2134 H   0  0  0  0  0  0  0  0  0  0  0  0
   57.3198   33.6076   43.7364 H   0  0  0  0  0  0  0  0  0  0  0  0
   59.2939   34.7512   44.7423 H   0  0  0  0  0  0  0  0  0  0  0  0
   60.4928   33.7183   46.6691 H   0  0  0  0  0  0  0  0  0  0  0  0
   56.7891   29.3231   52.7559 H   0  0  0  0  0  0  0  0  0  0  0  0
   56.6758   31.7510   53.3749 H   0  0  0  0  0  0  0  0  0  0  0  0
   57.7157   33.4376   51.8373 H   0  0  0  0  0  0  0  0  0  0  0  0
   57.7343   30.3835   46.5964 H   0  0  0  0  0  0  0  0  0  0  0  0
   55.1410   27.9070   45.9670 H   0  0  0  0  0  0  0  0  0  0  0  0
   57.3096   26.0729   47.5574 H   0  0  0  0  0  0  0  0  0  0  0  0
  1  2  1  0
  2  3  1  0
  3  4  2  0
  4  5  1  0
  5  6  2  0
  6  7  1  0
  7  8  1  0
  8  9  2  0
  8 10  1  0
 10 11  1  0
 11 12  2  0
 12 13  1  0
 13 14  2  0
 14 15  1  0
 15 16  1  0
 16 17  2  0
 16 18  2  0
 16 19  1  0
 19 20  2  3
 20 21  1  0
 21 22  2  0
 22 23  1  0
 23 24  2  0
 24 25  1  0
 15 26  2  0
  6 27  1  0
 27 28  1  0
 27 29  2  0
 29  3  1  0
 26 11  1  0
 25 20  1  0
  1 30  1  0
  1 31  1  0
  1 32  1  0
  4 33  1  0
  5 34  1  0
  7 35  1  0
  7 36  1  0
 12 37  1  0
 13 38  1  0
 14 39  1  0
 22 40  1  0
 23 41  1  0
 24 42  1  0
 26 43  1  0
 28 44  1  0
 29 45  1  0
M  CHG  2  10  -1  25  -1
M  END
>  <UniqueID>  (26) 
24

>  <SMILES>  (26) 
COc1ccc(CC(=O)[N-]c2cccc(S(=O)(=O)N=c3nccc[n-]3)c2)c(O)c1

>  <Energy>  (26) 
54.85612498062565

>  <Genealogy>  (26) 
COc1ccc(CC(=O)[N-]c2cccc(S(=O)(=O)N=c3nccc[n-]3)c2)c(O)c1 (protonated)
COc1ccc(CC(=O)[N-]c2cccc(S(=O)(=O)N=c3nccc[n-]3)c2)c(O)c1 (3D coordinates assigned)
COc1ccc(CC(=O)[N-]c2cccc(S(=O)(=O)N=c3nccc[n-]3)c2)c(O)c1 (optimized conformer: 54.85612498062565 kcal/mol)

>  <smiles>  (26) 
COc1ccc(CC(=O)Nc2cccc(S(=O)(=O)N=c3nccc[nH]3)c2)c(O)c1

>  <score_type>  (26) 
oracle

>  <origin>  (26) 
adg

>  <m_score__min__energy>  (26) 
-12.109999999999999

>  <m_primary>  (26) 
energy

$$$$
26:0
     RDKit          3D

 68 72  0  0  0  0  0  0  0  0999 V2000
   50.0570   32.1400   53.1020 C   0  0  0  0  0  0  0  0  0  0  0  0
   51.0510   31.6450   52.2100 O   0  0  0  0  0  0  0  0  0  0  0  0
   52.3340   31.2340   52.6010 C   0  0  0  0  0  0  0  0  0  0  0  0
   52.6080   30.7360   53.8890 C   0  0  0  0  0  0  0  0  0  0  0  0
   53.9050   30.3340   54.2280 C   0  0  0  0  0  0  0  0  0  0  0  0
   54.9470   30.4360   53.2900 C   0  0  0  0  0  0  0  0  0  0  0  0
   56.2800   29.9940   53.5830 N   0  0  0  0  0  0  0  0  0  0  0  0
   57.4600   30.1970   52.7910 C   0  0  0  0  0  0  0  0  0  0  0  0
   57.4710   29.7470   51.6150 O   0  0  0  0  0  0  0  0  0  0  0  0
   58.6080   31.0100   53.2710 C   0  0  0  0  0  0  0  0  0  0  0  0
   58.9580   30.9750   54.6330 C   0  0  0  0  0  0  0  0  0  0  0  0
   59.9750   31.7920   55.1300 C   0  0  0  0  0  0  0  0  0  0  0  0
   60.6460   32.6690   54.2800 C   0  0  0  0  0  0  0  0  0  0  0  0
   60.3040   32.7300   52.9280 C   0  0  0  0  0  0  0  0  0  0  0  0
   59.3020   31.8980   52.4090 C   0  0  0  0  0  0  0  0  0  0  0  0
   59.0040   31.9750   51.0070 N   0  0  0  0  0  0  0  0  0  0  0  0
   59.2590   33.1610   50.2400 C   0  0  0  0  0  0  0  0  0  0  0  0
   59.6150   34.2210   50.8240 O   0  0  0  0  0  0  0  0  0  0  0  0
   59.0540   33.1740   48.7720 C   0  0  0  0  0  0  0  0  0  0  0  0
   59.4330   34.3040   48.0380 C   0  0  0  0  0  0  0  0  0  0  0  0
   59.2680   34.3660   46.6820 N   0  0  0  0  0  0  0  0  0  0  0  0
   59.6700   35.6020   45.9910 C   0  0  0  0  0  0  0  0  0  0  0  0
   58.7440   33.2930   45.9910 C   0  0  0  0  0  0  0  0  0  0  0  0
   58.5870   33.3160   44.5860 C   0  0  0  0  0  0  0  0  0  0  0  0
   58.0750   32.2130   43.9020 C   0  0  0  0  0  0  0  0  0  0  0  0
   57.7010   31.0620   44.5980 C   0  0  0  0  0  0  0  0  0  0  0  0
   57.1040   29.6460   43.7300 S   0  0  0  0  0  0  0  0  0  0  0  0
   56.7060   30.0360   42.3340 O   0  0  0  0  0  0  0  0  0  0  0  0
   55.8840   29.1340   44.4440 O   0  0  0  0  0  0  0  0  0  0  0  0
   58.3210   28.3850   43.6920 N   0  0  0  0  0  0  0  0  0  0  0  0
   57.7830   27.0830   44.1260 C   0  0  0  0  0  0  0  0  0  0  0  0
   57.5400   27.0310   45.6520 C   0  0  0  0  0  0  0  0  0  0  0  0
   58.2560   28.0170   46.3780 O   0  0  0  0  0  0  0  0  0  0  0  0
   59.5640   28.1460   45.8660 C   0  0  0  0  0  0  0  0  0  0  0  0
   59.5290   28.7690   44.4580 C   0  0  0  0  0  0  0  0  0  0  0  0
   57.8430   31.0160   45.9870 C   0  0  0  0  0  0  0  0  0  0  0  0
   58.3590   32.1200   46.6940 C   0  0  0  0  0  0  0  0  0  0  0  0
   58.5150   32.0720   48.0910 C   0  0  0  0  0  0  0  0  0  0  0  0
   58.1940   31.0310   48.7280 O   0  0  0  0  0  0  0  0  0  0  0  0
   54.6680   30.9170   52.0070 C   0  0  0  0  0  0  0  0  0  0  0  0
   53.3710   31.3180   51.6670 C   0  0  0  0  0  0  0  0  0  0  0  0
   50.3825   31.9779   54.1402 H   0  0  0  0  0  0  0  0  0  0  0  0
   49.9108   33.2162   52.9274 H   0  0  0  0  0  0  0  0  0  0  0  0
   49.1101   31.6082   52.9274 H   0  0  0  0  0  0  0  0  0  0  0  0
   51.7998   30.6626   54.6316 H   0  0  0  0  0  0  0  0  0  0  0  0
   54.1099   29.9364   55.2330 H   0  0  0  0  0  0  0  0  0  0  0  0
   58.4242   30.2961   55.3143 H   0  0  0  0  0  0  0  0  0  0  0  0
   60.2472   31.7434   56.1947 H   0  0  0  0  0  0  0  0  0  0  0  0
   61.4454   33.3134   54.6745 H   0  0  0  0  0  0  0  0  0  0  0  0
   60.8247   33.4363   52.2647 H   0  0  0  0  0  0  0  0  0  0  0  0
   58.3880   31.2390   50.5960 H   0  0  0  0  0  0  0  0  0  0  0  0
   59.8743   35.1630   48.5648 H   0  0  0  0  0  0  0  0  0  0  0  0
   59.9207   36.3728   46.7346 H   0  0  0  0  0  0  0  0  0  0  0  0
   60.5490   35.4006   45.3610 H   0  0  0  0  0  0  0  0  0  0  0  0
   58.8407   35.9562   45.3610 H   0  0  0  0  0  0  0  0  0  0  0  0
   58.8729   34.2172   44.0237 H   0  0  0  0  0  0  0  0  0  0  0  0
   57.9654   32.2505   42.8081 H   0  0  0  0  0  0  0  0  0  0  0  0
   56.8287   26.9039   43.6090 H   0  0  0  0  0  0  0  0  0  0  0  0
   58.5250   26.3105   43.8756 H   0  0  0  0  0  0  0  0  0  0  0  0
   56.4654   27.1754   45.8375 H   0  0  0  0  0  0  0  0  0  0  0  0
   57.8987   26.0515   46.0011 H   0  0  0  0  0  0  0  0  0  0  0  0
   60.1528   28.7919   46.5339 H   0  0  0  0  0  0  0  0  0  0  0  0
   60.0235   27.1485   45.8041 H   0  0  0  0  0  0  0  0  0  0  0  0
   59.5490   29.8643   44.5574 H   0  0  0  0  0  0  0  0  0  0  0  0
   60.4043   28.3940   43.9073 H   0  0  0  0  0  0  0  0  0  0  0  0
   57.5489   30.1084   46.5344 H   0  0  0  0  0  0  0  0  0  0  0  0
   55.4731   30.9806   51.2602 H   0  0  0  0  0  0  0  0  0  0  0  0
   53.1658   31.7023   50.6569 H   0  0  0  0  0  0  0  0  0  0  0  0
  1  2  1  0
  2  3  1  0
  3  4  2  0
  4  5  1  0
  5  6  2  0
  6  7  1  0
  7  8  1  0
  8  9  2  0
  8 10  1  0
 10 11  2  0
 11 12  1  0
 12 13  2  0
 13 14  1  0
 14 15  2  0
 15 16  1  0
 16 17  1  0
 17 18  2  0
 17 19  1  0
 19 20  2  0
 20 21  1  0
 21 22  1  0
 21 23  1  0
 23 24  2  0
 24 25  1  0
 25 26  2  0
 26 27  1  0
 27 28  2  0
 27 29  2  0
 27 30  1  0
 30 31  1  0
 31 32  1  0
 32 33  1  0
 33 34  1  0
 34 35  1  0
 26 36  1  0
 36 37  2  0
 37 38  1  0
 38 39  2  0
  6 40  1  0
 40 41  2  0
 41  3  1  0
 15 10  1  0
 38 19  1  0
 37 23  1  0
 35 30  1  0
  1 42  1  0
  1 43  1  0
  1 44  1  0
  4 45  1  0
  5 46  1  0
 11 47  1  0
 12 48  1  0
 13 49  1  0
 14 50  1  0
 16 51  1  0
 20 52  1  0
 22 53  1  0
 22 54  1  0
 22 55  1  0
 24 56  1  0
 25 57  1  0
 31 58  1  0
 31 59  1  0
 32 60  1  0
 32 61  1  0
 34 62  1  0
 34 63  1  0
 35 64  1  0
 35 65  1  0
 36 66  1  0
 40 67  1  0
 41 68  1  0
M  CHG  1   7  -1
M  END
>  <UniqueID>  (27) 
25

>  <SMILES>  (27) 
COc1ccc([N-]C(=O)c2ccccc2NC(=O)c2cn(C)c3ccc(S(=O)(=O)N4CCOCC4)cc3c2=O)cc1

>  <Energy>  (27) 
110.42133560821947

>  <Genealogy>  (27) 
COc1ccc([N-]C(=O)c2ccccc2NC(=O)c2cn(C)c3ccc(S(=O)(=O)N4CCOCC4)cc3c2=O)cc1 (protonated)
COc1ccc([N-]C(=O)c2ccccc2NC(=O)c2cn(C)c3ccc(S(=O)(=O)N4CCOCC4)cc3c2=O)cc1 (3D coordinates assigned)
COc1ccc([N-]C(=O)c2ccccc2NC(=O)c2cn(C)c3ccc(S(=O)(=O)N4CCOCC4)cc3c2=O)cc1 (nonaromatic ring conformer: 110.42133560821947 kcal/mol)

>  <smiles>  (27) 
COc1ccc(NC(=O)c2ccccc2NC(=O)c2cn(C)c3ccc(S(=O)(=O)N4CCOCC4)cc3c2=O)cc1

>  <score_type>  (27) 
oracle

>  <origin>  (27) 
adg

>  <m_score__min__energy>  (27) 
-11.1

>  <m_primary>  (27) 
energy

$$$$
27:0
     RDKit          3D

 44 46  0  0  0  0  0  0  0  0999 V2000
   55.9540   23.7600   43.9870 C   0  0  0  0  0  0  0  0  0  0  0  0
   56.1030   24.7910   45.0610 C   0  0  0  0  0  0  0  0  0  0  0  0
   55.0670   25.4600   45.6240 N   0  0  0  0  0  0  0  0  0  0  0  0
   55.5300   26.2480   46.5880 N   0  0  0  0  0  0  0  0  0  0  0  0
   56.8640   26.0730   46.6370 C   0  0  0  0  0  0  0  0  0  0  0  0
   57.7720   26.6850   47.4940 C   0  0  0  0  0  0  0  0  0  0  0  0
   59.1440   26.3320   47.3480 C   0  0  0  0  0  0  0  0  0  0  0  0
   60.0940   26.8400   48.0870 N   0  0  0  0  0  0  0  0  0  0  0  0
   60.1560   28.1110   48.7630 C   0  0  0  0  0  0  0  0  0  0  0  0
   59.8850   28.2100   49.9910 O   0  0  0  0  0  0  0  0  0  0  0  0
   60.5490   29.3170   47.9990 C   0  0  0  0  0  0  0  0  0  0  0  0
   61.2780   30.3120   48.6780 C   0  0  0  0  0  0  0  0  0  0  0  0
   61.5520   31.5360   48.0700 C   0  0  0  0  0  0  0  0  0  0  0  0
   62.4410   32.7730   48.9430 Cl  0  0  0  0  0  0  0  0  0  0  0  0
   61.0840   31.7930   46.7840 C   0  0  0  0  0  0  0  0  0  0  0  0
   60.3790   30.8120   46.0830 C   0  0  0  0  0  0  0  0  0  0  0  0
   60.1590   29.5330   46.6450 C   0  0  0  0  0  0  0  0  0  0  0  0
   59.4820   28.4900   45.8880 N   0  0  0  0  0  0  0  0  0  0  0  0
   59.4220   28.7090   44.4280 C   0  0  0  0  0  0  0  0  0  0  0  0
   57.9910   28.6350   43.8460 C   0  0  0  0  0  0  0  0  0  0  0  0
   56.9020   29.9010   44.4990 S   0  0  0  0  0  0  0  0  0  0  0  0
   57.0410   31.4260   43.5870 C   0  0  0  0  0  0  0  0  0  0  0  0
   55.4770   29.4140   44.4490 O   0  0  0  0  0  0  0  0  0  0  0  0
   57.2770   30.1620   45.9320 O   0  0  0  0  0  0  0  0  0  0  0  0
   59.4950   25.3920   46.4090 N   0  0  0  0  0  0  0  0  0  0  0  0
   58.5890   24.7910   45.5830 C   0  0  0  0  0  0  0  0  0  0  0  0
   57.2580   25.1600   45.7080 C   0  0  0  0  0  0  0  0  0  0  0  0
   55.8110   22.7706   44.4459 H   0  0  0  0  0  0  0  0  0  0  0  0
   55.0818   24.0042   43.3628 H   0  0  0  0  0  0  0  0  0  0  0  0
   56.8596   23.7473   43.3628 H   0  0  0  0  0  0  0  0  0  0  0  0
   57.4445   27.4111   48.2526 H   0  0  0  0  0  0  0  0  0  0  0  0
   61.6356   30.1211   49.7006 H   0  0  0  0  0  0  0  0  0  0  0  0
   61.2702   32.7721   46.3185 H   0  0  0  0  0  0  0  0  0  0  0  0
   59.9893   31.0374   45.0794 H   0  0  0  0  0  0  0  0  0  0  0  0
   59.9560   27.5710   46.0270 H   0  0  0  0  0  0  0  0  0  0  0  0
   58.5040   28.4070   46.2560 H   0  0  0  0  0  0  0  0  0  0  0  0
   59.8348   29.7048   44.2091 H   0  0  0  0  0  0  0  0  0  0  0  0
   60.0021   27.9013   43.9579 H   0  0  0  0  0  0  0  0  0  0  0  0
   58.0503   28.7530   42.7540 H   0  0  0  0  0  0  0  0  0  0  0  0
   57.5699   27.6598   44.1317 H   0  0  0  0  0  0  0  0  0  0  0  0
   57.1178   32.2682   44.2904 H   0  0  0  0  0  0  0  0  0  0  0  0
   57.9399   31.3940   42.9539 H   0  0  0  0  0  0  0  0  0  0  0  0
   56.1511   31.5570   42.9539 H   0  0  0  0  0  0  0  0  0  0  0  0
   58.9040   24.0399   44.8437 H   0  0  0  0  0  0  0  0  0  0  0  0
  1  2  1  0
  2  3  2  0
  3  4  1  0
  4  5  1  0
  5  6  2  0
  6  7  1  0
  7  8  2  3
  8  9  1  0
  9 10  2  0
  9 11  1  0
 11 12  2  0
 12 13  1  0
 13 14  1  0
 13 15  2  0
 15 16  1  0
 16 17  2  0
 17 18  1  0
 18 19  1  0
 19 20  1  0
 20 21  1  0
 21 22  1  0
 21 23  2  0
 21 24  2  0
  7 25  1  0
 25 26  1  0
 26 27  2  0
 27  2  1  0
 27  5  1  0
 17 11  1  0
  1 28  1  0
  1 29  1  0
  1 30  1  0
  6 31  1  0
 12 32  1  0
 15 33  1  0
 16 34  1  0
 18 35  1  0
 18 36  1  0
 19 37  1  0
 19 38  1  0
 20 39  1  0
 20 40  1  0
 22 41  1  0
 22 42  1  0
 22 43  1  0
 26 44  1  0
M  CHG  3   4  -1  18   1  25  -1
M  END
>  <UniqueID>  (28) 
26

>  <SMILES>  (28) 
Cc1n[n-]c2cc(=NC(=O)c3cc(Cl)ccc3[NH2+]CCS(C)(=O)=O)[n-]cc12

>  <Energy>  (28) 
97.4514353878048

>  <Genealogy>  (28) 
Cc1n[n-]c2cc(=NC(=O)c3cc(Cl)ccc3[NH2+]CCS(C)(=O)=O)[n-]cc12 (protonated)
Cc1n[n-]c2cc(=NC(=O)c3cc(Cl)ccc3[NH2+]CCS(C)(=O)=O)[n-]cc12 (3D coordinates assigned)
Cc1n[n-]c2cc(=NC(=O)c3cc(Cl)ccc3[NH2+]CCS(C)(=O)=O)[n-]cc12 (optimized conformer: 97.4514353878048 kcal/mol)

>  <smiles>  (28) 
Cc1n[nH]c2cc(=NC(=O)c3cc(Cl)ccc3NCCS(C)(=O)=O)[nH]cc12

>  <score_type>  (28) 
oracle

>  <origin>  (28) 
adg

>  <m_score__min__energy>  (28) 
-11.1

>  <m_primary>  (28) 
energy

$$$$
28:0
     RDKit          3D

 18 18  0  0  0  0  0  0  0  0999 V2000
   58.0870   26.9790   43.1930 C   0  0  0  0  0  0  0  0  0  0  0  0
   57.7820   28.3310   43.8330 C   0  0  0  0  0  0  0  0  0  0  0  0
   57.0930   28.1710   45.1640 C   0  0  0  0  0  0  0  0  0  0  0  0
   56.3860   29.1240   45.5900 O   0  0  0  0  0  0  0  0  0  0  0  0
   57.1930   26.9270   45.9760 C   0  0  0  0  0  0  0  0  0  0  0  0
   56.0260   26.2440   46.3710 C   0  0  0  0  0  0  0  0  0  0  0  0
   54.7690   26.7060   46.0000 O   0  0  0  0  0  0  0  0  0  0  0  0
   56.1180   25.1080   47.1100 N   0  0  0  0  0  0  0  0  0  0  0  0
   57.3210   24.6080   47.4840 C   0  0  0  0  0  0  0  0  0  0  0  0
   57.3780   23.5530   48.1650 O   0  0  0  0  0  0  0  0  0  0  0  0
   58.4620   25.2470   47.1250 N   0  0  0  0  0  0  0  0  0  0  0  0
   58.4300   26.3890   46.3890 C   0  0  0  0  0  0  0  0  0  0  0  0
   59.5150   26.9590   46.1060 O   0  0  0  0  0  0  0  0  0  0  0  0
   58.2559   26.2302   43.9808 H   0  0  0  0  0  0  0  0  0  0  0  0
   57.2363   26.6687   42.5685 H   0  0  0  0  0  0  0  0  0  0  0  0
   58.9885   27.0640   42.5685 H   0  0  0  0  0  0  0  0  0  0  0  0
   58.7255   28.8763   43.9825 H   0  0  0  0  0  0  0  0  0  0  0  0
   57.1101   28.8861   43.1618 H   0  0  0  0  0  0  0  0  0  0  0  0
  1  2  1  0
  2  3  1  0
  3  4  2  0
  3  5  1  0
  5  6  2  0
  6  7  1  0
  6  8  1  0
  8  9  1  0
  9 10  2  0
  9 11  1  0
 11 12  1  0
 12 13  2  0
 12  5  1  0
  1 14  1  0
  1 15  1  0
  1 16  1  0
  2 17  1  0
  2 18  1  0
M  CHG  3   7  -1   8  -1  11  -1
M  END
>  <UniqueID>  (29) 
27

>  <SMILES>  (29) 
CCC(=O)c1c([O-])[n-]c(=O)[n-]c1=O

>  <Energy>  (29) 
21.04271719010896

>  <Genealogy>  (29) 
CCC(=O)c1c([O-])[n-]c(=O)[n-]c1=O (protonated)
CCC(=O)c1c([O-])[n-]c(=O)[n-]c1=O (3D coordinates assigned)
CCC(=O)c1c([O-])[n-]c(=O)[n-]c1=O (optimized conformer: 21.04271719010896 kcal/mol)

>  <smiles>  (29) 
CCC(=O)c1c(O)[nH]c(=O)[nH]c1=O

>  <score_type>  (29) 
oracle

>  <origin>  (29) 
adg

>  <m_score__min__energy>  (29) 
-13.68

>  <m_primary>  (29) 
energy

$$$$
29:0
     RDKit          3D

 38 40  0  0  0  0  0  0  0  0999 V2000
   57.6480   27.6930   44.1920 O   0  0  0  0  0  0  0  0  0  0  0  0
   57.1040   28.1290   45.2420 C   0  0  0  0  0  0  0  0  0  0  0  0
   56.7330   27.1760   46.3340 C   0  0  0  0  0  0  0  0  0  0  0  0
   56.4080   25.8570   45.7640 N   0  0  0  0  0  0  0  0  0  0  0  0
   55.0980   25.4730   45.6230 C   0  0  0  0  0  0  0  0  0  0  0  0
   54.0600   26.3220   45.9920 O   0  0  0  0  0  0  0  0  0  0  0  0
   54.7840   24.2150   45.1080 C   0  0  0  0  0  0  0  0  0  0  0  0
   55.8220   23.3590   44.7550 C   0  0  0  0  0  0  0  0  0  0  0  0
   55.5720   22.2180   44.2870 O   0  0  0  0  0  0  0  0  0  0  0  0
   57.1070   23.7550   44.9210 N   0  0  0  0  0  0  0  0  0  0  0  0
   57.4090   24.9810   45.4210 C   0  0  0  0  0  0  0  0  0  0  0  0
   58.6210   25.2970   45.5680 O   0  0  0  0  0  0  0  0  0  0  0  0
   56.8450   29.5280   45.4080 N   0  0  0  0  0  0  0  0  0  0  0  0
   57.3050   30.5860   44.5550 C   0  0  0  0  0  0  0  0  0  0  0  0
   56.9470   30.6390   43.1950 C   0  0  0  0  0  0  0  0  0  0  0  0
   57.3840   31.6960   42.3900 C   0  0  0  0  0  0  0  0  0  0  0  0
   58.1670   32.7140   42.9350 C   0  0  0  0  0  0  0  0  0  0  0  0
   58.5090   32.6830   44.2890 C   0  0  0  0  0  0  0  0  0  0  0  0
   58.0730   31.6310   45.1040 C   0  0  0  0  0  0  0  0  0  0  0  0
   58.5320   31.6290   46.8430 S   0  0  0  0  0  0  0  0  0  0  0  0
   59.3230   30.0220   46.7360 C   0  0  0  0  0  0  0  0  0  0  0  0
   60.1080   29.7000   45.6220 C   0  0  0  0  0  0  0  0  0  0  0  0
   60.7190   28.4450   45.5320 C   0  0  0  0  0  0  0  0  0  0  0  0
   60.5520   27.5130   46.5610 C   0  0  0  0  0  0  0  0  0  0  0  0
   59.7760   27.8350   47.6800 C   0  0  0  0  0  0  0  0  0  0  0  0
   59.1640   29.0890   47.7690 C   0  0  0  0  0  0  0  0  0  0  0  0
   57.5782   27.0734   47.0305 H   0  0  0  0  0  0  0  0  0  0  0  0
   55.8536   27.5646   46.8685 H   0  0  0  0  0  0  0  0  0  0  0  0
   53.7357   23.9060   44.9835 H   0  0  0  0  0  0  0  0  0  0  0  0
   56.3202   29.8450   42.7629 H   0  0  0  0  0  0  0  0  0  0  0  0
   57.1098   31.7247   41.3251 H   0  0  0  0  0  0  0  0  0  0  0  0
   58.5150   33.5409   42.2985 H   0  0  0  0  0  0  0  0  0  0  0  0
   59.1236   33.4886   44.7170 H   0  0  0  0  0  0  0  0  0  0  0  0
   60.2445   30.4358   44.8158 H   0  0  0  0  0  0  0  0  0  0  0  0
   61.3300   28.1916   44.6531 H   0  0  0  0  0  0  0  0  0  0  0  0
   61.0313   26.5254   46.4907 H   0  0  0  0  0  0  0  0  0  0  0  0
   59.6475   27.1016   48.4897 H   0  0  0  0  0  0  0  0  0  0  0  0
   58.5573   29.3432   48.6506 H   0  0  0  0  0  0  0  0  0  0  0  0
  1  2  2  0
  2  3  1  0
  3  4  1  0
  4  5  1  0
  5  6  1  0
  5  7  2  0
  7  8  1  0
  8  9  2  0
  8 10  1  0
 10 11  1  0
 11 12  2  0
  2 13  1  0
 13 14  1  0
 14 15  2  0
 15 16  1  0
 16 17  2  0
 17 18  1  0
 18 19  2  0
 19 20  1  0
 20 21  1  0
 21 22  2  0
 22 23  1  0
 23 24  2  0
 24 25  1  0
 25 26  2  0
 11  4  1  0
 19 14  1  0
 26 21  1  0
  3 27  1  0
  3 28  1  0
  7 29  1  0
 15 30  1  0
 16 31  1  0
 17 32  1  0
 18 33  1  0
 22 34  1  0
 23 35  1  0
 24 36  1  0
 25 37  1  0
 26 38  1  0
M  CHG  3   6  -1  10  -1  13  -1
M  END
>  <UniqueID>  (30) 
28

>  <SMILES>  (30) 
O=C(Cn1c([O-])cc(=O)[n-]c1=O)[N-]c1ccccc1Sc1ccccc1

>  <Energy>  (30) 
41.914600665604375

>  <Genealogy>  (30) 
O=C(Cn1c([O-])cc(=O)[n-]c1=O)[N-]c1ccccc1Sc1ccccc1 (protonated)
O=C(Cn1c([O-])cc(=O)[n-]c1=O)[N-]c1ccccc1Sc1ccccc1 (3D coordinates assigned)
O=C(Cn1c([O-])cc(=O)[n-]c1=O)[N-]c1ccccc1Sc1ccccc1 (optimized conformer: 41.914600665604375 kcal/mol)

>  <smiles>  (30) 
O=C(Cn1c(O)cc(=O)[nH]c1=O)Nc1ccccc1Sc1ccccc1

>  <score_type>  (30) 
oracle

>  <origin>  (30) 
adg

>  <m_score__min__energy>  (30) 
-15

>  <m_primary>  (30) 
energy

$$$$
30:0
     RDKit          3D

 27 28  0  0  0  0  0  0  0  0999 V2000
   57.8550   32.3310   42.9500 C   0  0  0  0  0  0  0  0  0  0  0  0
   57.3890   32.0150   44.3400 C   0  0  0  0  0  0  0  0  0  0  0  0
   57.0430   32.9730   45.0830 O   0  0  0  0  0  0  0  0  0  0  0  0
   57.3550   30.6160   44.8590 C   0  0  0  0  0  0  0  0  0  0  0  0
   58.3850   30.1300   45.6800 C   0  0  0  0  0  0  0  0  0  0  0  0
   58.3620   28.8070   46.1620 C   0  0  0  0  0  0  0  0  0  0  0  0
   59.3920   28.2670   46.9780 C   0  0  0  0  0  0  0  0  0  0  0  0
   60.6480   28.9960   47.2770 C   0  0  0  0  0  0  0  0  0  0  0  0
   61.0530   29.1460   48.4600 O   0  0  0  0  0  0  0  0  0  0  0  0
   59.2400   26.9750   47.5130 C   0  0  0  0  0  0  0  0  0  0  0  0
   60.2370   26.4530   48.3420 O   0  0  0  0  0  0  0  0  0  0  0  0
   58.1100   26.2040   47.2040 C   0  0  0  0  0  0  0  0  0  0  0  0
   57.9910   24.9250   47.7420 O   0  0  0  0  0  0  0  0  0  0  0  0
   57.1080   26.7070   46.3560 C   0  0  0  0  0  0  0  0  0  0  0  0
   55.9360   25.8500   46.0380 C   0  0  0  0  0  0  0  0  0  0  0  0
   54.7660   26.3150   45.9940 O   0  0  0  0  0  0  0  0  0  0  0  0
   57.2320   28.0150   45.8420 C   0  0  0  0  0  0  0  0  0  0  0  0
   56.2770   28.5100   45.0600 O   0  0  0  0  0  0  0  0  0  0  0  0
   56.2960   29.7390   44.5600 C   0  0  0  0  0  0  0  0  0  0  0  0
   55.3470   30.1010   43.8140 O   0  0  0  0  0  0  0  0  0  0  0  0
   58.7645   32.9477   42.9995 H   0  0  0  0  0  0  0  0  0  0  0  0
   58.0752   31.3952   42.4155 H   0  0  0  0  0  0  0  0  0  0  0  0
   57.0671   32.8819   42.4155 H   0  0  0  0  0  0  0  0  0  0  0  0
   59.2212   30.7915   45.9504 H   0  0  0  0  0  0  0  0  0  0  0  0
   61.2382   29.4145   46.4484 H   0  0  0  0  0  0  0  0  0  0  0  0
   60.8520   27.0420   48.8920 H   0  0  0  0  0  0  0  0  0  0  0  0
   56.0946   24.7805   45.8355 H   0  0  0  0  0  0  0  0  0  0  0  0
  1  2  1  0
  2  3  2  0
  2  4  1  0
  4  5  2  0
  5  6  1  0
  6  7  2  0
  7  8  1  0
  8  9  2  0
  7 10  1  0
 10 11  1  0
 10 12  2  0
 12 13  1  0
 12 14  1  0
 14 15  1  0
 15 16  2  0
 14 17  2  0
 17 18  1  0
 18 19  1  0
 19 20  2  0
 19  4  1  0
 17  6  1  0
  1 21  1  0
  1 22  1  0
  1 23  1  0
  5 24  1  0
  8 25  1  0
 11 26  1  0
 15 27  1  0
M  CHG  1  13  -1
M  END
>  <UniqueID>  (31) 
29

>  <SMILES>  (31) 
CC(=O)c1cc2c(C=O)c(O)c([O-])c(C=O)c2oc1=O

>  <Energy>  (31) 
44.76601304401078

>  <Genealogy>  (31) 
CC(=O)c1cc2c(C=O)c(O)c([O-])c(C=O)c2oc1=O (protonated)
CC(=O)c1cc2c(C=O)c(O)c([O-])c(C=O)c2oc1=O (3D coordinates assigned)
CC(=O)c1cc2c(C=O)c(O)c([O-])c(C=O)c2oc1=O (optimized conformer: 44.76601304401078 kcal/mol)

>  <smiles>  (31) 
CC(=O)c1cc2c(C=O)c(O)c(O)c(C=O)c2oc1=O

>  <score_type>  (31) 
oracle

>  <origin>  (31) 
adg

>  <m_score__min__energy>  (31) 
-10.19

>  <m_primary>  (31) 
energy

$$$$
31:0
     RDKit          3D

 53 55  0  0  0  0  0  0  0  0999 V2000
   57.3950   32.3510   40.8050 C   0  0  0  0  0  0  0  0  0  0  0  0
   58.2220   32.3320   42.0870 C   0  0  0  0  0  0  0  0  0  0  0  0
   57.3930   31.9070   43.2250 N   0  0  0  0  0  0  0  0  0  0  0  0
   56.4590   30.7850   43.0420 C   0  0  0  0  0  0  0  0  0  0  0  0
   56.9560   29.5600   43.7510 C   0  0  0  0  0  0  0  0  0  0  0  0
   57.4290   28.5970   43.0850 O   0  0  0  0  0  0  0  0  0  0  0  0
   56.8160   29.4510   45.1750 N   0  0  0  0  0  0  0  0  0  0  0  0
   57.4580   28.4200   45.9370 C   0  0  0  0  0  0  0  0  0  0  0  0
   56.9620   27.1090   45.8660 C   0  0  0  0  0  0  0  0  0  0  0  0
   57.5750   26.0820   46.5850 C   0  0  0  0  0  0  0  0  0  0  0  0
   58.6770   26.3570   47.3960 C   0  0  0  0  0  0  0  0  0  0  0  0
   59.1640   27.6650   47.4990 C   0  0  0  0  0  0  0  0  0  0  0  0
   58.5520   28.7120   46.7810 C   0  0  0  0  0  0  0  0  0  0  0  0
   58.9830   30.0410   46.8970 O   0  0  0  0  0  0  0  0  0  0  0  0
   60.2190   30.5380   46.3940 C   0  0  0  0  0  0  0  0  0  0  0  0
   57.4620   32.5730   44.5100 C   0  0  0  0  0  0  0  0  0  0  0  0
   57.0080   31.9900   45.5340 O   0  0  0  0  0  0  0  0  0  0  0  0
   58.1190   33.9260   44.6570 C   0  0  0  0  0  0  0  0  0  0  0  0
   59.0550   33.9930   45.8360 C   0  0  0  0  0  0  0  0  0  0  0  0
   58.5470   34.1800   47.1410 C   0  0  0  0  0  0  0  0  0  0  0  0
   59.4160   34.2310   48.2400 C   0  0  0  0  0  0  0  0  0  0  0  0
   60.7870   34.0850   48.0210 C   0  0  0  0  0  0  0  0  0  0  0  0
   61.2850   33.8810   46.7600 C   0  0  0  0  0  0  0  0  0  0  0  0
   60.4410   33.8270   45.6480 C   0  0  0  0  0  0  0  0  0  0  0  0
   62.7560   33.7110   46.7660 C   0  0  0  0  0  0  0  0  0  0  0  0
   63.1570   34.0230   48.2210 C   0  0  0  0  0  0  0  0  0  0  0  0
   61.8560   34.0990   49.0450 C   0  0  0  0  0  0  0  0  0  0  0  0
   56.3251   32.3756   41.0592 H   0  0  0  0  0  0  0  0  0  0  0  0
   57.6525   33.2435   40.2158 H   0  0  0  0  0  0  0  0  0  0  0  0
   57.6112   31.4477   40.2158 H   0  0  0  0  0  0  0  0  0  0  0  0
   59.0605   31.6302   41.9672 H   0  0  0  0  0  0  0  0  0  0  0  0
   58.6026   33.3456   42.2814 H   0  0  0  0  0  0  0  0  0  0  0  0
   55.4758   31.0637   43.4489 H   0  0  0  0  0  0  0  0  0  0  0  0
   56.3787   30.5635   41.9675 H   0  0  0  0  0  0  0  0  0  0  0  0
   56.1200   30.0670   45.6550 H   0  0  0  0  0  0  0  0  0  0  0  0
   56.0847   26.8897   45.2398 H   0  0  0  0  0  0  0  0  0  0  0  0
   57.1891   25.0545   46.5124 H   0  0  0  0  0  0  0  0  0  0  0  0
   59.1636   25.5443   47.9552 H   0  0  0  0  0  0  0  0  0  0  0  0
   60.0294   27.8771   48.1441 H   0  0  0  0  0  0  0  0  0  0  0  0
   60.8771   30.8026   47.2347 H   0  0  0  0  0  0  0  0  0  0  0  0
   60.7024   29.7643   45.7794 H   0  0  0  0  0  0  0  0  0  0  0  0
   60.0322   31.4309   45.7794 H   0  0  0  0  0  0  0  0  0  0  0  0
   58.6899   34.1413   43.7417 H   0  0  0  0  0  0  0  0  0  0  0  0
   57.3222   34.6660   44.8229 H   0  0  0  0  0  0  0  0  0  0  0  0
   57.4631   34.2862   47.2957 H   0  0  0  0  0  0  0  0  0  0  0  0
   59.0246   34.3833   49.2566 H   0  0  0  0  0  0  0  0  0  0  0  0
   60.8522   33.6576   44.6419 H   0  0  0  0  0  0  0  0  0  0  0  0
   63.0324   32.6812   46.4957 H   0  0  0  0  0  0  0  0  0  0  0  0
   63.2620   34.3609   46.0369 H   0  0  0  0  0  0  0  0  0  0  0  0
   63.8054   33.2254   48.6127 H   0  0  0  0  0  0  0  0  0  0  0  0
   63.7123   34.9708   48.2788 H   0  0  0  0  0  0  0  0  0  0  0  0
   61.7665   33.2324   49.7166 H   0  0  0  0  0  0  0  0  0  0  0  0
   61.8137   34.9880   49.6915 H   0  0  0  0  0  0  0  0  0  0  0  0
  1  2  1  0
  2  3  1  0
  3  4  1  0
  4  5  1  0
  5  6  2  0
  5  7  1  0
  7  8  1  0
  8  9  2  0
  9 10  1  0
 10 11  2  0
 11 12  1  0
 12 13  2  0
 13 14  1  0
 14 15  1  0
  3 16  1  0
 16 17  2  0
 16 18  1  0
 18 19  1  0
 19 20  2  0
 20 21  1  0
 21 22  2  0
 22 23  1  0
 23 24  2  0
 23 25  1  0
 25 26  1  0
 26 27  1  0
 13  8  1  0
 24 19  1  0
 27 22  1  0
  1 28  1  0
  1 29  1  0
  1 30  1  0
  2 31  1  0
  2 32  1  0
  4 33  1  0
  4 34  1  0
  7 35  1  0
  9 36  1  0
 10 37  1  0
 11 38  1  0
 12 39  1  0
 15 40  1  0
 15 41  1  0
 15 42  1  0
 18 43  1  0
 18 44  1  0
 20 45  1  0
 21 46  1  0
 24 47  1  0
 25 48  1  0
 25 49  1  0
 26 50  1  0
 26 51  1  0
 27 52  1  0
 27 53  1  0
M  END
>  <UniqueID>  (32) 
30

>  <SMILES>  (32) 
CCN(CC(=O)Nc1ccccc1OC)C(=O)Cc1ccc2c(c1)CCC2

>  <Energy>  (32) 
60.020069358394224

>  <Genealogy>  (32) 
CCN(CC(=O)Nc1ccccc1OC)C(=O)Cc1ccc2c(c1)CCC2 (3D coordinates assigned)
CCN(CC(=O)Nc1ccccc1OC)C(=O)Cc1ccc2c(c1)CCC2 (nonaromatic ring conformer: 60.020069358394224 kcal/mol)

>  <smiles>  (32) 
CCN(CC(=O)Nc1ccccc1OC)C(=O)Cc1ccc2c(c1)CCC2

>  <score_type>  (32) 
oracle

>  <origin>  (32) 
adg

>  <m_score__min__energy>  (32) 
-9.5

>  <m_primary>  (32) 
energy

$$$$
32:0
     RDKit          3D

 52 55  0  0  0  0  0  0  0  0999 V2000
   55.5273   30.5738   43.9043 H   0  0  0  0  0  0  0  0  0  0  0  0
   56.2500   29.9400   44.4390 C   0  0  0  0  0  0  0  0  0  0  0  0
   55.8520   28.7560   44.9690 N   0  0  0  0  0  0  0  0  0  0  0  0
   56.7070   27.9380   45.6490 C   0  0  0  0  0  0  0  0  0  0  0  0
   56.2980   26.7990   46.1300 N   0  0  0  0  0  0  0  0  0  0  0  0
   56.2530   25.5360   45.4440 C   0  0  0  0  0  0  0  0  0  0  0  0
   57.2490   25.1560   44.5310 C   0  0  0  0  0  0  0  0  0  0  0  0
   58.1136   25.8138   44.3585 H   0  0  0  0  0  0  0  0  0  0  0  0
   57.1470   23.9470   43.8410 C   0  0  0  0  0  0  0  0  0  0  0  0
   57.9400   23.6494   43.1392 H   0  0  0  0  0  0  0  0  0  0  0  0
   56.0350   23.1060   44.0380 C   0  0  0  0  0  0  0  0  0  0  0  0
   55.8990   21.8810   43.3660 O   0  0  0  0  0  0  0  0  0  0  0  0
   56.9880   21.0550   42.9670 C   0  0  0  0  0  0  0  0  0  0  0  0
   57.5000   20.6667   43.8598 H   0  0  0  0  0  0  0  0  0  0  0  0
   56.6099   20.2145   42.3665 H   0  0  0  0  0  0  0  0  0  0  0  0
   57.6954   21.6457   42.3665 H   0  0  0  0  0  0  0  0  0  0  0  0
   55.0190   23.4970   44.9240 C   0  0  0  0  0  0  0  0  0  0  0  0
   53.9140   22.6460   45.0890 O   0  0  0  0  0  0  0  0  0  0  0  0
   53.3700   22.2660   46.3490 C   0  0  0  0  0  0  0  0  0  0  0  0
   53.9822   22.6936   47.1567 H   0  0  0  0  0  0  0  0  0  0  0  0
   52.3395   22.6417   46.4318 H   0  0  0  0  0  0  0  0  0  0  0  0
   53.3681   21.1691   46.4318 H   0  0  0  0  0  0  0  0  0  0  0  0
   55.1310   24.7200   45.6150 C   0  0  0  0  0  0  0  0  0  0  0  0
   54.3271   25.0359   46.2961 H   0  0  0  0  0  0  0  0  0  0  0  0
   58.0550   28.3230   45.8050 C   0  0  0  0  0  0  0  0  0  0  0  0
   59.2070   27.3270   46.7100 S   0  0  0  0  0  0  0  0  0  0  0  0
   58.5770   25.9890   46.9790 O   0  0  0  0  0  0  0  0  0  0  0  0
   60.4640   27.1270   45.9120 O   0  0  0  0  0  0  0  0  0  0  0  0
   59.6200   28.0740   48.2230 N   0  0  0  0  0  0  0  0  0  0  0  0
   59.9580   29.3240   48.3500 C   0  0  0  0  0  0  0  0  0  0  0  0
   61.0570   29.8080   47.7220 N   0  0  0  0  0  0  0  0  0  0  0  0
   61.4090   31.1110   47.8060 C   0  0  0  0  0  0  0  0  0  0  0  0
   62.5440   31.5640   47.1260 C   0  0  0  0  0  0  0  0  0  0  0  0
   63.1455   30.8600   46.5323 H   0  0  0  0  0  0  0  0  0  0  0  0
   62.9150   32.9070   47.1990 C   0  0  0  0  0  0  0  0  0  0  0  0
   63.8095   33.2601   46.6649 H   0  0  0  0  0  0  0  0  0  0  0  0
   62.1520   33.8020   47.9490 C   0  0  0  0  0  0  0  0  0  0  0  0
   62.4469   34.8603   48.0036 H   0  0  0  0  0  0  0  0  0  0  0  0
   61.0140   33.3610   48.6320 C   0  0  0  0  0  0  0  0  0  0  0  0
   60.4198   34.0759   49.2201 H   0  0  0  0  0  0  0  0  0  0  0  0
   60.6200   32.0020   48.5730 C   0  0  0  0  0  0  0  0  0  0  0  0
   59.5030   31.5230   49.2290 N   0  0  0  0  0  0  0  0  0  0  0  0
   58.6650   32.4290   50.0400 C   0  0  0  0  0  0  0  0  0  0  0  0
   58.8437   32.2358   51.1081 H   0  0  0  0  0  0  0  0  0  0  0  0
   58.9229   33.4729   49.8080 H   0  0  0  0  0  0  0  0  0  0  0  0
   57.6042   32.2532   49.8080 H   0  0  0  0  0  0  0  0  0  0  0  0
   59.1670   30.1910   49.1190 C   0  0  0  0  0  0  0  0  0  0  0  0
   58.1420   29.7330   49.6990 O   0  0  0  0  0  0  0  0  0  0  0  0
   58.4780   29.5410   45.2560 C   0  0  0  0  0  0  0  0  0  0  0  0
   59.5259   29.8573   45.3649 H   0  0  0  0  0  0  0  0  0  0  0  0
   57.5740   30.3530   44.5720 C   0  0  0  0  0  0  0  0  0  0  0  0
   57.9030   31.3103   44.1416 H   0  0  0  0  0  0  0  0  0  0  0  0
  1  2  1  0
  2  3  1  0
  3  4  1  0
  4  5  2  3
  5  6  1  0
  6  7  2  0
  7  8  1  0
  7  9  1  0
  9 10  1  0
  9 11  2  0
 11 12  1  0
 12 13  1  0
 13 14  1  0
 13 15  1  0
 13 16  1  0
 11 17  1  0
 17 18  1  0
 18 19  1  0
 19 20  1  0
 19 21  1  0
 19 22  1  0
 17 23  2  0
 23 24  1  0
  4 25  1  0
 25 26  1  0
 26 27  2  0
 26 28  2  0
 26 29  1  0
 29 30  2  0
 30 31  1  0
 31 32  1  0
 32 33  2  0
 33 34  1  0
 33 35  1  0
 35 36  1  0
 35 37  2  0
 37 38  1  0
 37 39  1  0
 39 40  1  0
 39 41  2  0
 41 42  1  0
 42 43  1  0
 43 44  1  0
 43 45  1  0
 43 46  1  0
 42 47  1  0
 47 48  2  0
 25 49  2  0
 49 50  1  0
 49 51  1  0
 51 52  1  0
 51  2  2  0
 23  6  1  0
 47 30  1  0
 41 32  1  0
M  CHG  2   3  -1  31  -1
M  END
>  <UniqueID>  (33) 
31

>  <SMILES>  (33) 
COc1ccc(N=c2[n-]cccc2S(=O)(=O)/N=c2\[n-]c3ccccc3n(C)c2=O)cc1OC

>  <Energy>  (33) 
75.54931804795481

>  <Genealogy>  (33) 
COc1ccc(N=c2[n-]cccc2S(=O)(=O)N=c2[n-]c3ccccc3n(C)c2=O)cc1OC (protonated)
COc1ccc(N=c2[n-]cccc2S(=O)(=O)/N=c2\[n-]c3ccccc3n(C)c2=O)cc1OC (cis-trans isomerization)
COc1ccc(N=c2[n-]cccc2S(=O)(=O)/N=c2\[n-]c3ccccc3n(C)c2=O)cc1OC (3D coordinates assigned)
COc1ccc(N=c2[n-]cccc2S(=O)(=O)/N=c2\[n-]c3ccccc3n(C)c2=O)cc1OC (optimized conformer: 75.54931804795481 kcal/mol)

>  <smiles>  (33) 
COc1ccc(N=c2[nH]cccc2S(=O)(=O)N=c2[nH]c3ccccc3n(C)c2=O)cc1OC

>  <score_type>  (33) 
oracle

>  <origin>  (33) 
adg

>  <m_score__min__energy>  (33) 
-12.49

>  <m_primary>  (33) 
energy

$$$$
33:0
     RDKit          3D

 35 36  0  0  0  0  0  0  0  0999 V2000
   62.9670   32.8750   47.1950 C   0  0  0  0  0  0  0  0  0  0  0  0
   61.9810   32.4200   48.1160 O   0  0  0  0  0  0  0  0  0  0  0  0
   60.9780   31.4880   47.8080 C   0  0  0  0  0  0  0  0  0  0  0  0
   61.0610   30.1360   48.1920 C   0  0  0  0  0  0  0  0  0  0  0  0
   60.0340   29.2400   47.8570 C   0  0  0  0  0  0  0  0  0  0  0  0
   60.1060   27.8100   48.3050 C   0  0  0  0  0  0  0  0  0  0  0  0
   58.9090   29.7050   47.1630 C   0  0  0  0  0  0  0  0  0  0  0  0
   58.8190   31.0430   46.7660 C   0  0  0  0  0  0  0  0  0  0  0  0
   57.6770   31.4580   46.0660 O   0  0  0  0  0  0  0  0  0  0  0  0
   57.5910   31.5300   44.6690 C   0  0  0  0  0  0  0  0  0  0  0  0
   58.1620   32.6230   43.9750 C   0  0  0  0  0  0  0  0  0  0  0  0
   58.8840   33.7210   44.7050 C   0  0  0  0  0  0  0  0  0  0  0  0
   58.0300   32.7010   42.5800 C   0  0  0  0  0  0  0  0  0  0  0  0
   57.3810   31.6890   41.8750 C   0  0  0  0  0  0  0  0  0  0  0  0
   56.8520   30.5910   42.5510 C   0  0  0  0  0  0  0  0  0  0  0  0
   56.9510   30.4950   43.9480 C   0  0  0  0  0  0  0  0  0  0  0  0
   56.3610   29.3130   44.6130 C   0  0  0  0  0  0  0  0  0  0  0  0
   55.1480   29.2750   44.9480 O   0  0  0  0  0  0  0  0  0  0  0  0
   59.8570   31.9320   47.0990 C   0  0  0  0  0  0  0  0  0  0  0  0
   63.8300   33.2732   47.7488 H   0  0  0  0  0  0  0  0  0  0  0  0
   63.2927   32.0361   46.5624 H   0  0  0  0  0  0  0  0  0  0  0  0
   62.5400   33.6671   46.5624 H   0  0  0  0  0  0  0  0  0  0  0  0
   61.9350   29.7802   48.7573 H   0  0  0  0  0  0  0  0  0  0  0  0
   60.1080   27.7698   49.4043 H   0  0  0  0  0  0  0  0  0  0  0  0
   59.2344   27.2607   47.9196 H   0  0  0  0  0  0  0  0  0  0  0  0
   61.0284   27.3510   47.9196 H   0  0  0  0  0  0  0  0  0  0  0  0
   58.0886   29.0109   46.9281 H   0  0  0  0  0  0  0  0  0  0  0  0
   58.7834   33.5680   45.7897 H   0  0  0  0  0  0  0  0  0  0  0  0
   59.9489   33.7058   44.4298 H   0  0  0  0  0  0  0  0  0  0  0  0
   58.4480   34.6927   44.4298 H   0  0  0  0  0  0  0  0  0  0  0  0
   58.4414   33.5663   42.0396 H   0  0  0  0  0  0  0  0  0  0  0  0
   57.2860   31.7571   40.7812 H   0  0  0  0  0  0  0  0  0  0  0  0
   56.3520   29.7917   41.9843 H   0  0  0  0  0  0  0  0  0  0  0  0
   57.0002   28.4423   44.8208 H   0  0  0  0  0  0  0  0  0  0  0  0
   59.7864   32.9878   46.7986 H   0  0  0  0  0  0  0  0  0  0  0  0
  1  2  1  0
  2  3  1  0
  3  4  2  0
  4  5  1  0
  5  6  1  0
  5  7  2  0
  7  8  1  0
  8  9  1  0
  9 10  1  0
 10 11  2  0
 11 12  1  0
 11 13  1  0
 13 14  2  0
 14 15  1  0
 15 16  2  0
 16 17  1  0
 17 18  2  0
  8 19  2  0
 19  3  1  0
 16 10  1  0
  1 20  1  0
  1 21  1  0
  1 22  1  0
  4 23  1  0
  6 24  1  0
  6 25  1  0
  6 26  1  0
  7 27  1  0
 12 28  1  0
 12 29  1  0
 12 30  1  0
 13 31  1  0
 14 32  1  0
 15 33  1  0
 17 34  1  0
 19 35  1  0
M  END
>  <UniqueID>  (34) 
32

>  <SMILES>  (34) 
COc1cc(C)cc(Oc2c(C)cccc2C=O)c1

>  <Energy>  (34) 
42.937146886341225

>  <Genealogy>  (34) 
COc1cc(C)cc(Oc2c(C)cccc2C=O)c1 (3D coordinates assigned)
COc1cc(C)cc(Oc2c(C)cccc2C=O)c1 (optimized conformer: 42.937146886341225 kcal/mol)

>  <smiles>  (34) 
COc1cc(C)cc(Oc2c(C)cccc2C=O)c1

>  <score_type>  (34) 
oracle

>  <origin>  (34) 
adg

>  <m_score__min__energy>  (34) 
-6.4199999999999999

>  <m_primary>  (34) 
energy

$$$$
34:0
     RDKit          3D

 28 29  0  0  0  0  0  0  0  0999 V2000
   58.0710   22.1020   45.3730 C   0  0  0  0  0  0  0  0  0  0  0  0
   57.1270   23.2200   45.5510 N   0  0  0  0  0  0  0  0  0  0  0  0
   55.7760   22.9860   45.5440 C   0  0  0  0  0  0  0  0  0  0  0  0
   55.3220   21.8180   45.4110 O   0  0  0  0  0  0  0  0  0  0  0  0
   54.9030   24.0160   45.6770 N   0  0  0  0  0  0  0  0  0  0  0  0
   55.3270   25.2940   45.8110 C   0  0  0  0  0  0  0  0  0  0  0  0
   54.3880   26.3070   45.9660 O   0  0  0  0  0  0  0  0  0  0  0  0
   56.6990   25.5800   45.8050 C   0  0  0  0  0  0  0  0  0  0  0  0
   57.1780   26.9780   45.9470 C   0  0  0  0  0  0  0  0  0  0  0  0
   57.1000   27.5450   47.0700 O   0  0  0  0  0  0  0  0  0  0  0  0
   57.6820   27.7270   44.8330 N   0  0  0  0  0  0  0  0  0  0  0  0
   57.5740   29.1460   44.6410 C   0  0  0  0  0  0  0  0  0  0  0  0
   58.7210   29.9520   44.5080 C   0  0  0  0  0  0  0  0  0  0  0  0
   58.5970   31.3330   44.3340 C   0  0  0  0  0  0  0  0  0  0  0  0
   57.3340   31.9250   44.3110 C   0  0  0  0  0  0  0  0  0  0  0  0
   56.1900   31.1380   44.4670 C   0  0  0  0  0  0  0  0  0  0  0  0
   56.3010   29.7530   44.6380 C   0  0  0  0  0  0  0  0  0  0  0  0
   55.1380   29.0000   44.7940 O   0  0  0  0  0  0  0  0  0  0  0  0
   57.5950   24.5060   45.6430 C   0  0  0  0  0  0  0  0  0  0  0  0
   58.8340   24.7360   45.5600 O   0  0  0  0  0  0  0  0  0  0  0  0
   58.3866   21.7282   46.3582 H   0  0  0  0  0  0  0  0  0  0  0  0
   57.5792   21.2923   44.8140 H   0  0  0  0  0  0  0  0  0  0  0  0
   58.9517   22.4512   44.8140 H   0  0  0  0  0  0  0  0  0  0  0  0
   59.7197   29.4922   44.5412 H   0  0  0  0  0  0  0  0  0  0  0  0
   59.4969   31.9544   44.2150 H   0  0  0  0  0  0  0  0  0  0  0  0
   57.2387   33.0118   44.1700 H   0  0  0  0  0  0  0  0  0  0  0  0
   55.1963   31.6095   44.4554 H   0  0  0  0  0  0  0  0  0  0  0  0
   55.1550   27.9950   44.9180 H   0  0  0  0  0  0  0  0  0  0  0  0
  1  2  1  0
  2  3  1  0
  3  4  2  0
  3  5  1  0
  5  6  1  0
  6  7  1  0
  6  8  2  0
  8  9  1  0
  9 10  2  0
  9 11  1  0
 11 12  1  0
 12 13  2  0
 13 14  1  0
 14 15  2  0
 15 16  1  0
 16 17  2  0
 17 18  1  0
  8 19  1  0
 19 20  2  0
 19  2  1  0
 17 12  1  0
  1 21  1  0
  1 22  1  0
  1 23  1  0
 13 24  1  0
 14 25  1  0
 15 26  1  0
 16 27  1  0
 18 28  1  0
M  CHG  3   5  -1   7  -1  11  -1
M  END
>  <UniqueID>  (35) 
33

>  <SMILES>  (35) 
Cn1c(=O)[n-]c([O-])c(C(=O)[N-]c2ccccc2O)c1=O

>  <Energy>  (35) 
42.9561386629483

>  <Genealogy>  (35) 
Cn1c(=O)[n-]c([O-])c(C(=O)[N-]c2ccccc2O)c1=O (protonated)
Cn1c(=O)[n-]c([O-])c(C(=O)[N-]c2ccccc2O)c1=O (3D coordinates assigned)
Cn1c(=O)[n-]c([O-])c(C(=O)[N-]c2ccccc2O)c1=O (optimized conformer: 42.9561386629483 kcal/mol)

>  <smiles>  (35) 
Cn1c(=O)[nH]c(O)c(C(=O)Nc2ccccc2O)c1=O

>  <score_type>  (35) 
oracle

>  <origin>  (35) 
adg

>  <m_score__min__energy>  (35) 
-14.039999999999999

>  <m_primary>  (35) 
energy

$$$$
35:0
     RDKit          3D

 47 49  0  0  0  0  0  0  0  0999 V2000
   66.1120   32.0100   50.1130 C   0  0  0  0  0  0  0  0  0  0  0  0
   64.8980   32.7920   49.7330 C   0  0  0  0  0  0  0  0  0  0  0  0
   64.5800   33.8070   50.4100 O   0  0  0  0  0  0  0  0  0  0  0  0
   64.1600   32.4370   48.5540 N   0  0  0  0  0  0  0  0  0  0  0  0
   62.9080   33.0330   48.1750 C   0  0  0  0  0  0  0  0  0  0  0  0
   62.5030   33.0990   46.8290 C   0  0  0  0  0  0  0  0  0  0  0  0
   61.2860   33.6980   46.4870 C   0  0  0  0  0  0  0  0  0  0  0  0
   60.4680   34.2430   47.4820 C   0  0  0  0  0  0  0  0  0  0  0  0
   58.8930   34.9850   47.0480 S   0  0  0  0  0  0  0  0  0  0  0  0
   58.4260   33.6140   45.9830 C   0  0  0  0  0  0  0  0  0  0  0  0
   58.3610   33.8210   44.6000 C   0  0  0  0  0  0  0  0  0  0  0  0
   58.0090   32.7760   43.7450 C   0  0  0  0  0  0  0  0  0  0  0  0
   57.7250   31.5050   44.2640 C   0  0  0  0  0  0  0  0  0  0  0  0
   57.3020   30.3940   43.3500 C   0  0  0  0  0  0  0  0  0  0  0  0
   57.7710   31.3000   45.6520 C   0  0  0  0  0  0  0  0  0  0  0  0
   58.1350   32.3470   46.5170 C   0  0  0  0  0  0  0  0  0  0  0  0
   58.2230   32.1510   47.9350 N   0  0  0  0  0  0  0  0  0  0  0  0
   59.0570   30.8490   48.7150 S   0  0  0  0  0  0  0  0  0  0  0  0
   58.1720   30.2160   49.7520 O   0  0  0  0  0  0  0  0  0  0  0  0
   60.3060   31.3630   49.3760 O   0  0  0  0  0  0  0  0  0  0  0  0
   59.4660   29.6450   47.4990 C   0  0  0  0  0  0  0  0  0  0  0  0
   58.8520   28.3850   47.5170 C   0  0  0  0  0  0  0  0  0  0  0  0
   59.2040   27.4180   46.5690 C   0  0  0  0  0  0  0  0  0  0  0  0
   60.1720   27.7050   45.6020 C   0  0  0  0  0  0  0  0  0  0  0  0
   60.7930   28.9580   45.5850 C   0  0  0  0  0  0  0  0  0  0  0  0
   60.4430   29.9250   46.5310 C   0  0  0  0  0  0  0  0  0  0  0  0
   60.8830   34.2130   48.8170 C   0  0  0  0  0  0  0  0  0  0  0  0
   62.0970   33.6140   49.1620 C   0  0  0  0  0  0  0  0  0  0  0  0
   66.1882   31.9609   51.2093 H   0  0  0  0  0  0  0  0  0  0  0  0
   66.0347   30.9915   49.7048 H   0  0  0  0  0  0  0  0  0  0  0  0
   67.0074   32.5016   49.7048 H   0  0  0  0  0  0  0  0  0  0  0  0
   64.6080   31.7720   47.8830 H   0  0  0  0  0  0  0  0  0  0  0  0
   63.1462   32.6777   46.0423 H   0  0  0  0  0  0  0  0  0  0  0  0
   60.9718   33.7405   45.4337 H   0  0  0  0  0  0  0  0  0  0  0  0
   58.5889   34.8138   44.1847 H   0  0  0  0  0  0  0  0  0  0  0  0
   57.9542   32.9500   42.6602 H   0  0  0  0  0  0  0  0  0  0  0  0
   56.9736   29.5316   43.9487 H   0  0  0  0  0  0  0  0  0  0  0  0
   56.4717   30.7373   42.7154 H   0  0  0  0  0  0  0  0  0  0  0  0
   58.1504   30.0981   42.7154 H   0  0  0  0  0  0  0  0  0  0  0  0
   57.5203   30.3123   46.0662 H   0  0  0  0  0  0  0  0  0  0  0  0
   58.0917   28.1559   48.2782 H   0  0  0  0  0  0  0  0  0  0  0  0
   58.7186   26.4310   46.5846 H   0  0  0  0  0  0  0  0  0  0  0  0
   60.4452   26.9455   44.8547 H   0  0  0  0  0  0  0  0  0  0  0  0
   61.5574   29.1824   44.8265 H   0  0  0  0  0  0  0  0  0  0  0  0
   60.9348   30.9089   46.5170 H   0  0  0  0  0  0  0  0  0  0  0  0
   60.2517   34.6623   49.5978 H   0  0  0  0  0  0  0  0  0  0  0  0
   62.4192   33.5976   50.2136 H   0  0  0  0  0  0  0  0  0  0  0  0
  1  2  1  0
  2  3  2  0
  2  4  1  0
  4  5  1  0
  5  6  2  0
  6  7  1  0
  7  8  2  0
  8  9  1  0
  9 10  1  0
 10 11  2  0
 11 12  1  0
 12 13  2  0
 13 14  1  0
 13 15  1  0
 15 16  2  0
 16 17  1  0
 17 18  1  0
 18 19  2  0
 18 20  2  0
 18 21  1  0
 21 22  2  0
 22 23  1  0
 23 24  2  0
 24 25  1  0
 25 26  2  0
  8 27  1  0
 27 28  2  0
 28  5  1  0
 16 10  1  0
 26 21  1  0
  1 29  1  0
  1 30  1  0
  1 31  1  0
  4 32  1  0
  6 33  1  0
  7 34  1  0
 11 35  1  0
 12 36  1  0
 14 37  1  0
 14 38  1  0
 14 39  1  0
 15 40  1  0
 22 41  1  0
 23 42  1  0
 24 43  1  0
 25 44  1  0
 26 45  1  0
 27 46  1  0
 28 47  1  0
M  CHG  1  17  -1
M  END
>  <UniqueID>  (36) 
34

>  <SMILES>  (36) 
CC(=O)Nc1ccc(Sc2ccc(C)cc2[N-]S(=O)(=O)c2ccccc2)cc1

>  <Energy>  (36) 
48.72470467449992

>  <Genealogy>  (36) 
CC(=O)Nc1ccc(Sc2ccc(C)cc2[N-]S(=O)(=O)c2ccccc2)cc1 (protonated)
CC(=O)Nc1ccc(Sc2ccc(C)cc2[N-]S(=O)(=O)c2ccccc2)cc1 (3D coordinates assigned)
CC(=O)Nc1ccc(Sc2ccc(C)cc2[N-]S(=O)(=O)c2ccccc2)cc1 (optimized conformer: 48.72470467449992 kcal/mol)

>  <smiles>  (36) 
CC(=O)Nc1ccc(Sc2ccc(C)cc2NS(=O)(=O)c2ccccc2)cc1

>  <score_type>  (36) 
oracle

>  <origin>  (36) 
adg

>  <m_score__min__energy>  (36) 
-10.140000000000001

>  <m_primary>  (36) 
energy

$$$$
36:0
     RDKit          3D

 43 46  0  0  0  0  0  0  0  0999 V2000
   54.2800   29.3430   44.4420 H   0  0  0  0  0  0  0  0  0  0  0  0
   55.1510   29.3590   45.0180 N   0  0  0  0  0  0  0  0  0  0  0  0
   56.4600   29.6920   43.9420 S   0  0  0  0  0  0  0  0  0  0  0  0
   55.9150   30.1730   42.6260 O   0  0  0  0  0  0  0  0  0  0  0  0
   57.2500   28.4350   43.7060 O   0  0  0  0  0  0  0  0  0  0  0  0
   57.4990   30.9280   44.6440 C   0  0  0  0  0  0  0  0  0  0  0  0
   58.4110   30.5950   45.6550 C   0  0  0  0  0  0  0  0  0  0  0  0
   58.4717   29.5585   46.0183 H   0  0  0  0  0  0  0  0  0  0  0  0
   59.2430   31.5740   46.2030 C   0  0  0  0  0  0  0  0  0  0  0  0
   59.9404   31.3107   47.0119 H   0  0  0  0  0  0  0  0  0  0  0  0
   59.1920   32.8950   45.7240 C   0  0  0  0  0  0  0  0  0  0  0  0
   59.9940   33.9300   46.3110 N   0  0  0  0  0  0  0  0  0  0  0  0
   61.0890   33.7830   47.0050 C   0  0  0  0  0  0  0  0  0  0  0  0
   61.0160   33.9120   48.3970 C   0  0  0  0  0  0  0  0  0  0  0  0
   60.0521   34.1301   48.8801 H   0  0  0  0  0  0  0  0  0  0  0  0
   62.1720   33.7630   49.1740 C   0  0  0  0  0  0  0  0  0  0  0  0
   62.1190   33.8730   50.5720 C   0  0  0  0  0  0  0  0  0  0  0  0
   61.1593   34.0819   51.0673 H   0  0  0  0  0  0  0  0  0  0  0  0
   63.2850   33.7180   51.3450 C   0  0  0  0  0  0  0  0  0  0  0  0
   63.2280   33.8350   52.8250 C   0  0  0  0  0  0  0  0  0  0  0  0
   62.2050   33.1990   53.5540 C   0  0  0  0  0  0  0  0  0  0  0  0
   61.4419   32.6096   53.0246 H   0  0  0  0  0  0  0  0  0  0  0  0
   62.1530   33.3120   54.9470 C   0  0  0  0  0  0  0  0  0  0  0  0
   61.3496   32.8130   55.5087 H   0  0  0  0  0  0  0  0  0  0  0  0
   63.1190   34.0570   55.6260 C   0  0  0  0  0  0  0  0  0  0  0  0
   63.0764   34.1437   56.7218 H   0  0  0  0  0  0  0  0  0  0  0  0
   64.1390   34.6920   54.9150 C   0  0  0  0  0  0  0  0  0  0  0  0
   64.8993   35.2784   55.4517 H   0  0  0  0  0  0  0  0  0  0  0  0
   64.1960   34.5840   53.5220 C   0  0  0  0  0  0  0  0  0  0  0  0
   65.0017   35.0870   52.9672 H   0  0  0  0  0  0  0  0  0  0  0  0
   64.5050   33.4500   50.6980 C   0  0  0  0  0  0  0  0  0  0  0  0
   65.4216   33.3252   51.2932 H   0  0  0  0  0  0  0  0  0  0  0  0
   64.5630   33.3410   49.3070 C   0  0  0  0  0  0  0  0  0  0  0  0
   65.5236   33.1337   48.8127 H   0  0  0  0  0  0  0  0  0  0  0  0
   63.4010   33.4950   48.5390 C   0  0  0  0  0  0  0  0  0  0  0  0
   63.4390   33.3960   47.1430 C   0  0  0  0  0  0  0  0  0  0  0  0
   64.3936   33.1951   46.6347 H   0  0  0  0  0  0  0  0  0  0  0  0
   62.3010   33.5470   46.4110 N   0  0  0  0  0  0  0  0  0  0  0  0
   62.3980   33.5100   45.3730 H   0  0  0  0  0  0  0  0  0  0  0  0
   58.2610   33.2310   44.7340 C   0  0  0  0  0  0  0  0  0  0  0  0
   58.1835   34.2717   44.3862 H   0  0  0  0  0  0  0  0  0  0  0  0
   57.4290   32.2500   44.1850 C   0  0  0  0  0  0  0  0  0  0  0  0
   56.7172   32.5172   43.3901 H   0  0  0  0  0  0  0  0  0  0  0  0
  1  2  1  0
  2  3  1  0
  3  4  2  0
  3  5  2  0
  3  6  1  0
  6  7  2  0
  7  8  1  0
  7  9  1  0
  9 10  1  0
  9 11  2  0
 11 12  1  0
 12 13  2  0
 13 14  1  0
 14 15  1  0
 14 16  2  0
 16 17  1  0
 17 18  1  0
 17 19  2  0
 19 20  1  0
 20 21  2  0
 21 22  1  0
 21 23  1  0
 23 24  1  0
 23 25  2  0
 25 26  1  0
 25 27  1  0
 27 28  1  0
 27 29  2  0
 29 30  1  0
 19 31  1  0
 31 32  1  0
 31 33  2  0
 33 34  1  0
 33 35  1  0
 35 36  2  0
 36 37  1  0
 36 38  1  0
 38 39  1  0
 11 40  1  0
 40 41  1  0
 40 42  2  0
 42 43  1  0
 42  6  1  0
 38 13  1  0
 35 16  1  0
 29 20  1  0
M  CHG  1   2  -1
M  END
>  <UniqueID>  (37) 
35

>  <SMILES>  (37) 
[NH-]S(=O)(=O)c1ccc(/N=c2/cc3cc(-c4ccccc4)ccc3c[nH]2)cc1

>  <Energy>  (37) 
65.28663408150238

>  <Genealogy>  (37) 
[NH-]S(=O)(=O)c1ccc(N=c2cc3cc(-c4ccccc4)ccc3c[nH]2)cc1 (protonated)
[NH-]S(=O)(=O)c1ccc(/N=c2/cc3cc(-c4ccccc4)ccc3c[nH]2)cc1 (cis-trans isomerization)
[NH-]S(=O)(=O)c1ccc(/N=c2/cc3cc(-c4ccccc4)ccc3c[nH]2)cc1 (3D coordinates assigned)
[NH-]S(=O)(=O)c1ccc(/N=c2/cc3cc(-c4ccccc4)ccc3c[nH]2)cc1 (optimized conformer: 65.28663408150238 kcal/mol)

>  <smiles>  (37) 
NS(=O)(=O)c1ccc(N=c2cc3cc(-c4ccccc4)ccc3c[nH]2)cc1

>  <score_type>  (37) 
oracle

>  <origin>  (37) 
adg

>  <m_score__min__energy>  (37) 
-11.300000000000001

>  <m_primary>  (37) 
energy

$$$$
37:0
     RDKit          3D

 44 45  0  0  0  0  0  0  0  0999 V2000
   60.8550   34.2040   46.4940 C   0  0  0  0  0  0  0  0  0  0  0  0
   59.8280   35.1820   47.0460 C   0  0  0  0  0  0  0  0  0  0  0  0
   58.5670   34.9560   46.4210 O   0  0  0  0  0  0  0  0  0  0  0  0
   58.1620   33.7290   45.8770 C   0  0  0  0  0  0  0  0  0  0  0  0
   57.7900   33.5880   44.5260 C   0  0  0  0  0  0  0  0  0  0  0  0
   57.4320   32.3360   44.0210 C   0  0  0  0  0  0  0  0  0  0  0  0
   57.4410   31.2100   44.8530 C   0  0  0  0  0  0  0  0  0  0  0  0
   57.0300   29.6270   44.1890 S   0  0  0  0  0  0  0  0  0  0  0  0
   55.8860   29.0180   44.9540 O   0  0  0  0  0  0  0  0  0  0  0  0
   56.6060   29.8050   42.7590 O   0  0  0  0  0  0  0  0  0  0  0  0
   58.4140   28.5670   44.2420 N   0  0  0  0  0  0  0  0  0  0  0  0
   59.6710   29.2710   44.5260 C   0  0  0  0  0  0  0  0  0  0  0  0
   60.1470   29.1270   45.9520 C   0  0  0  0  0  0  0  0  0  0  0  0
   61.0210   29.9200   46.3880 O   0  0  0  0  0  0  0  0  0  0  0  0
   59.5400   28.2070   46.8690 N   0  0  0  0  0  0  0  0  0  0  0  0
   59.1320   26.8760   46.5510 C   0  0  0  0  0  0  0  0  0  0  0  0
   60.0990   25.8990   46.2970 C   0  0  0  0  0  0  0  0  0  0  0  0
   59.7120   24.6040   45.9420 C   0  0  0  0  0  0  0  0  0  0  0  0
   58.3550   24.2880   45.8170 C   0  0  0  0  0  0  0  0  0  0  0  0
   57.3790   25.2710   46.0310 C   0  0  0  0  0  0  0  0  0  0  0  0
   55.6660   24.8960   45.8740 S   0  0  0  0  0  0  0  0  0  0  0  0
   54.7330   26.3480   45.9780 N   0  0  0  0  0  0  0  0  0  0  0  0
   55.2600   23.9530   46.9730 O   0  0  0  0  0  0  0  0  0  0  0  0
   55.3990   24.2430   44.5460 O   0  0  0  0  0  0  0  0  0  0  0  0
   57.7750   26.5670   46.3840 C   0  0  0  0  0  0  0  0  0  0  0  0
   57.7690   31.3550   46.2090 C   0  0  0  0  0  0  0  0  0  0  0  0
   58.1360   32.6070   46.7120 C   0  0  0  0  0  0  0  0  0  0  0  0
   61.3749   33.7089   47.3275 H   0  0  0  0  0  0  0  0  0  0  0  0
   60.3469   33.4477   45.8778 H   0  0  0  0  0  0  0  0  0  0  0  0
   61.5856   34.7485   45.8778 H   0  0  0  0  0  0  0  0  0  0  0  0
   59.7298   35.0354   48.1318 H   0  0  0  0  0  0  0  0  0  0  0  0
   60.1575   36.2113   46.8413 H   0  0  0  0  0  0  0  0  0  0  0  0
   57.7814   34.4677   43.8657 H   0  0  0  0  0  0  0  0  0  0  0  0
   57.1417   32.2342   42.9649 H   0  0  0  0  0  0  0  0  0  0  0  0
   58.4810   28.0520   43.3380 H   0  0  0  0  0  0  0  0  0  0  0  0
   60.4495   28.8714   43.8595 H   0  0  0  0  0  0  0  0  0  0  0  0
   59.4805   30.3417   44.3606 H   0  0  0  0  0  0  0  0  0  0  0  0
   61.1670   26.1501   46.3768 H   0  0  0  0  0  0  0  0  0  0  0  0
   60.4749   23.8326   45.7607 H   0  0  0  0  0  0  0  0  0  0  0  0
   58.0529   23.2646   45.5499 H   0  0  0  0  0  0  0  0  0  0  0  0
   55.1500   27.0330   45.3090 H   0  0  0  0  0  0  0  0  0  0  0  0
   57.0152   27.3487   46.5314 H   0  0  0  0  0  0  0  0  0  0  0  0
   57.7375   30.4823   46.8779 H   0  0  0  0  0  0  0  0  0  0  0  0
   58.4065   32.7105   47.7732 H   0  0  0  0  0  0  0  0  0  0  0  0
  1  2  1  0
  2  3  1  0
  3  4  1  0
  4  5  2  0
  5  6  1  0
  6  7  2  0
  7  8  1  0
  8  9  2  0
  8 10  2  0
  8 11  1  0
 11 12  1  0
 12 13  1  0
 13 14  2  0
 13 15  1  0
 15 16  1  0
 16 17  2  0
 17 18  1  0
 18 19  2  0
 19 20  1  0
 20 21  1  0
 21 22  1  0
 21 23  2  0
 21 24  2  0
 20 25  2  0
  7 26  1  0
 26 27  2  0
 27  4  1  0
 25 16  1  0
  1 28  1  0
  1 29  1  0
  1 30  1  0
  2 31  1  0
  2 32  1  0
  5 33  1  0
  6 34  1  0
 11 35  1  0
 12 36  1  0
 12 37  1  0
 17 38  1  0
 18 39  1  0
 19 40  1  0
 22 41  1  0
 25 42  1  0
 26 43  1  0
 27 44  1  0
M  CHG  2  15  -1  22  -1
M  END
>  <UniqueID>  (38) 
36

>  <SMILES>  (38) 
CCOc1ccc(S(=O)(=O)NCC(=O)[N-]c2cccc(S([NH-])(=O)=O)c2)cc1

>  <Energy>  (38) 
46.30442928173355

>  <Genealogy>  (38) 
CCOc1ccc(S(=O)(=O)NCC(=O)[N-]c2cccc(S([NH-])(=O)=O)c2)cc1 (protonated)
CCOc1ccc(S(=O)(=O)NCC(=O)[N-]c2cccc(S([NH-])(=O)=O)c2)cc1 (3D coordinates assigned)
CCOc1ccc(S(=O)(=O)NCC(=O)[N-]c2cccc(S([NH-])(=O)=O)c2)cc1 (optimized conformer: 46.30442928173355 kcal/mol)

>  <smiles>  (38) 
CCOc1ccc(S(=O)(=O)NCC(=O)Nc2cccc(S(N)(=O)=O)c2)cc1

>  <score_type>  (38) 
oracle

>  <origin>  (38) 
adg

>  <m_score__min__energy>  (38) 
-12.91

>  <m_primary>  (38) 
energy

$$$$
38:0
     RDKit          3D

 56 58  0  0  0  0  0  0  0  0999 V2000
   59.4160   29.3570   44.3880 C   0  0  0  0  0  0  0  0  0  0  0  0
   59.1340   29.2410   45.8860 C   0  0  1  0  0  0  0  0  0  0  0  0
   59.3520   30.5140   46.4950 O   0  0  0  0  0  0  0  0  0  0  0  0
   59.9450   30.6980   47.7550 C   0  0  0  0  0  0  0  0  0  0  0  0
   59.5010   30.0710   48.7510 O   0  0  0  0  0  0  0  0  0  0  0  0
   61.1050   31.6230   47.8890 C   0  0  0  0  0  0  0  0  0  0  0  0
   62.3380   31.2190   47.3330 C   0  0  0  0  0  0  0  0  0  0  0  0
   63.4780   32.0120   47.4630 C   0  0  0  0  0  0  0  0  0  0  0  0
   63.4140   33.2200   48.1530 C   0  0  0  0  0  0  0  0  0  0  0  0
   62.2070   33.6430   48.7100 C   0  0  0  0  0  0  0  0  0  0  0  0
   61.0440   32.8700   48.5740 C   0  0  0  0  0  0  0  0  0  0  0  0
   59.5370   33.5100   49.3360 S   0  0  0  0  0  0  0  0  0  0  0  0
   59.3120   34.8870   48.1550 C   0  0  0  0  0  0  0  0  0  0  0  0
   59.6910   34.4630   46.7660 C   0  0  0  0  0  0  0  0  0  0  0  0
   60.8660   34.6810   46.3690 O   0  0  0  0  0  0  0  0  0  0  0  0
   58.7400   33.8580   45.8740 N   0  0  0  0  0  0  0  0  0  0  0  0
   57.5620   33.1260   46.3070 C   0  0  0  0  0  0  0  0  0  0  0  0
   57.0780   32.3700   45.0800 C   0  0  0  0  0  0  0  0  0  0  0  0
   57.7140   33.0700   43.8830 C   0  0  0  0  0  0  0  0  0  0  0  0
   58.9160   33.8310   44.4330 C   0  0  0  0  0  0  0  0  0  0  0  0
   57.7020   28.8140   46.0970 C   0  0  0  0  0  0  0  0  0  0  0  0
   56.7750   29.4970   45.5940 O   0  0  0  0  0  0  0  0  0  0  0  0
   57.3780   27.5760   46.7440 N   0  0  0  0  0  0  0  0  0  0  0  0
   57.1730   26.3370   46.0530 C   0  0  0  0  0  0  0  0  0  0  0  0
   58.2850   25.5770   45.6650 C   0  0  0  0  0  0  0  0  0  0  0  0
   58.1090   24.3430   45.0300 C   0  0  0  0  0  0  0  0  0  0  0  0
   56.8160   23.8660   44.7690 C   0  0  0  0  0  0  0  0  0  0  0  0
   56.5690   22.2870   44.0320 S   0  0  0  0  0  0  0  0  0  0  0  0
   55.5920   22.4630   42.6170 N   0  0  0  0  0  0  0  0  0  0  0  0
   55.8730   21.3640   44.9940 O   0  0  0  0  0  0  0  0  0  0  0  0
   57.8960   21.6930   43.6590 O   0  0  0  0  0  0  0  0  0  0  0  0
   55.7080   24.6510   45.1110 C   0  0  0  0  0  0  0  0  0  0  0  0
   55.8840   25.8900   45.7300 C   0  0  0  0  0  0  0  0  0  0  0  0
   54.7740   26.6810   46.0070 O   0  0  0  0  0  0  0  0  0  0  0  0
   60.4235   29.7714   44.2356 H   0  0  0  0  0  0  0  0  0  0  0  0
   59.3554   28.3609   43.9253 H   0  0  0  0  0  0  0  0  0  0  0  0
   58.6720   30.0221   43.9253 H   0  0  0  0  0  0  0  0  0  0  0  0
   59.8023   28.4932   46.3379 H   0  0  0  0  0  0  0  0  0  0  0  0
   62.4007   30.2648   46.7893 H   0  0  0  0  0  0  0  0  0  0  0  0
   64.4293   31.6827   47.0197 H   0  0  0  0  0  0  0  0  0  0  0  0
   64.3158   33.8410   48.2589 H   0  0  0  0  0  0  0  0  0  0  0  0
   62.1666   34.5935   49.2622 H   0  0  0  0  0  0  0  0  0  0  0  0
   58.2574   35.1997   48.1618 H   0  0  0  0  0  0  0  0  0  0  0  0
   59.9601   35.7223   48.4586 H   0  0  0  0  0  0  0  0  0  0  0  0
   57.8208   32.4241   47.1134 H   0  0  0  0  0  0  0  0  0  0  0  0
   56.7870   33.7987   46.7032 H   0  0  0  0  0  0  0  0  0  0  0  0
   57.4008   31.3194   45.1253 H   0  0  0  0  0  0  0  0  0  0  0  0
   55.9801   32.3689   45.0121 H   0  0  0  0  0  0  0  0  0  0  0  0
   58.0385   32.3309   43.1357 H   0  0  0  0  0  0  0  0  0  0  0  0
   57.0023   33.7450   43.3853 H   0  0  0  0  0  0  0  0  0  0  0  0
   59.8503   33.3131   44.1706 H   0  0  0  0  0  0  0  0  0  0  0  0
   58.9799   34.8458   44.0133 H   0  0  0  0  0  0  0  0  0  0  0  0
   59.3003   25.9524   45.8606 H   0  0  0  0  0  0  0  0  0  0  0  0
   58.9850   23.7465   44.7352 H   0  0  0  0  0  0  0  0  0  0  0  0
   56.2380   22.6420   41.8150 H   0  0  0  0  0  0  0  0  0  0  0  0
   54.6928   24.2893   44.8906 H   0  0  0  0  0  0  0  0  0  0  0  0
  1  2  1  0
  2  3  1  0
  3  4  1  0
  4  5  2  0
  4  6  1  0
  6  7  2  0
  7  8  1  0
  8  9  2  0
  9 10  1  0
 10 11  2  0
 11 12  1  0
 12 13  1  0
 13 14  1  0
 14 15  2  0
 14 16  1  0
 16 17  1  0
 17 18  1  0
 18 19  1  0
 19 20  1  0
  2 21  1  0
 21 22  2  0
 21 23  1  0
 23 24  1  0
 24 25  2  0
 25 26  1  0
 26 27  2  0
 27 28  1  0
 28 29  1  0
 28 30  2  0
 28 31  2  0
 27 32  1  0
 32 33  2  0
 33 34  1  0
 11  6  1  0
 20 16  1  0
 33 24  1  0
  1 35  1  0
  1 36  1  0
  1 37  1  0
  2 38  1  1
  7 39  1  0
  8 40  1  0
  9 41  1  0
 10 42  1  0
 13 43  1  0
 13 44  1  0
 17 45  1  0
 17 46  1  0
 18 47  1  0
 18 48  1  0
 19 49  1  0
 19 50  1  0
 20 51  1  0
 20 52  1  0
 25 53  1  0
 26 54  1  0
 29 55  1  0
 32 56  1  0
M  CHG  3  23  -1  29  -1  34  -1
M  END
>  <UniqueID>  (39) 
37

>  <SMILES>  (39) 
C[C@@H](OC(=O)c1ccccc1SCC(=O)N1CCCC1)C(=O)[N-]c1ccc(S([NH-])(=O)=O)cc1[O-]

>  <Energy>  (39) 
57.87197679846678

>  <Genealogy>  (39) 
CC(OC(=O)c1ccccc1SCC(=O)N1CCCC1)C(=O)[N-]c1ccc(S([NH-])(=O)=O)cc1[O-] (protonated)
C[C@@H](OC(=O)c1ccccc1SCC(=O)N1CCCC1)C(=O)[N-]c1ccc(S([NH-])(=O)=O)cc1[O-] (chirality)
C[C@@H](OC(=O)c1ccccc1SCC(=O)N1CCCC1)C(=O)[N-]c1ccc(S([NH-])(=O)=O)cc1[O-] (3D coordinates assigned)
C[C@@H](OC(=O)c1ccccc1SCC(=O)N1CCCC1)C(=O)[N-]c1ccc(S([NH-])(=O)=O)cc1[O-] (nonaromatic ring conformer: 57.87197679846678 kcal/mol)

>  <smiles>  (39) 
CC(OC(=O)c1ccccc1SCC(=O)N1CCCC1)C(=O)Nc1ccc(S(N)(=O)=O)cc1O

>  <score_type>  (39) 
oracle

>  <origin>  (39) 
adg

>  <m_score__min__energy>  (39) 
-17.210000000000001

>  <m_primary>  (39) 
energy

$$$$
39:0
     RDKit          3D

 53 56  0  0  0  0  0  0  0  0999 V2000
   59.1230   29.0090   47.0560 C   0  0  0  0  0  0  0  0  0  0  0  0
   58.4120   29.8020   45.9900 C   0  0  0  0  0  0  0  0  0  0  0  0
   58.3460   31.2030   46.1030 C   0  0  0  0  0  0  0  0  0  0  0  0
   57.6340   31.9690   45.1580 C   0  0  0  0  0  0  0  0  0  0  0  0
   57.4740   33.3640   45.2560 O   0  0  0  0  0  0  0  0  0  0  0  0
   58.4400   34.3530   44.8900 C   0  0  0  0  0  0  0  0  0  0  0  0
   59.4070   34.6260   46.0490 C   0  0  1  0  0  0  0  0  0  0  0  0
   58.7830   34.2550   47.4080 C   0  0  0  0  0  0  0  0  0  0  0  0
   59.7540   34.3850   48.4490 O   0  0  0  0  0  0  0  0  0  0  0  0
   61.0950   34.0410   48.2410 C   0  0  0  0  0  0  0  0  0  0  0  0
   61.9860   33.9520   49.3160 C   0  0  0  0  0  0  0  0  0  0  0  0
   63.3210   33.5980   49.0860 C   0  0  0  0  0  0  0  0  0  0  0  0
   63.7660   33.3440   47.7830 C   0  0  0  0  0  0  0  0  0  0  0  0
   62.8780   33.4470   46.7060 C   0  0  0  0  0  0  0  0  0  0  0  0
   61.5440   33.7960   46.9350 C   0  0  0  0  0  0  0  0  0  0  0  0
   60.6410   33.9190   45.8740 O   0  0  0  0  0  0  0  0  0  0  0  0
   57.0260   31.3210   44.0800 C   0  0  0  0  0  0  0  0  0  0  0  0
   57.1010   29.9350   43.9470 C   0  0  0  0  0  0  0  0  0  0  0  0
   57.7800   29.1640   44.8990 C   0  0  0  0  0  0  0  0  0  0  0  0
   57.7820   27.6980   44.7510 C   0  0  0  0  0  0  0  0  0  0  0  0
   57.8420   27.1980   43.5970 O   0  0  0  0  0  0  0  0  0  0  0  0
   57.7330   26.8270   45.8860 N   0  0  0  0  0  0  0  0  0  0  0  0
   56.4610   25.6870   46.1780 S   0  0  0  0  0  0  0  0  0  0  0  0
   56.5440   25.2110   47.6000 O   0  0  0  0  0  0  0  0  0  0  0  0
   55.1240   26.3430   45.9750 O   0  0  0  0  0  0  0  0  0  0  0  0
   56.6540   24.3060   45.1020 C   0  0  0  0  0  0  0  0  0  0  0  0
   57.7230   23.4160   45.2680 C   0  0  0  0  0  0  0  0  0  0  0  0
   57.8290   22.2830   44.4560 C   0  0  0  0  0  0  0  0  0  0  0  0
   56.8750   22.0380   43.4580 C   0  0  0  0  0  0  0  0  0  0  0  0
   56.9830   20.8780   42.6300 N   0  0  0  0  0  0  0  0  0  0  0  0
   55.8100   22.9340   43.2870 C   0  0  0  0  0  0  0  0  0  0  0  0
   55.6980   24.0610   44.1080 C   0  0  0  0  0  0  0  0  0  0  0  0
   58.8062   29.3623   48.0484 H   0  0  0  0  0  0  0  0  0  0  0  0
   58.8722   27.9434   46.9489 H   0  0  0  0  0  0  0  0  0  0  0  0
   60.2096   29.1425   46.9489 H   0  0  0  0  0  0  0  0  0  0  0  0
   58.8557   31.7060   46.9380 H   0  0  0  0  0  0  0  0  0  0  0  0
   59.0111   33.9948   44.0208 H   0  0  0  0  0  0  0  0  0  0  0  0
   57.9126   35.2864   44.6439 H   0  0  0  0  0  0  0  0  0  0  0  0
   59.6134   35.7065   46.0439 H   0  0  0  0  0  0  0  0  0  0  0  0
   57.9366   34.9265   47.6146 H   0  0  0  0  0  0  0  0  0  0  0  0
   58.4346   33.2123   47.3703 H   0  0  0  0  0  0  0  0  0  0  0  0
   61.6387   34.1595   50.3389 H   0  0  0  0  0  0  0  0  0  0  0  0
   64.0214   33.5193   49.9305 H   0  0  0  0  0  0  0  0  0  0  0  0
   64.8146   33.0632   47.6055 H   0  0  0  0  0  0  0  0  0  0  0  0
   63.2292   33.2537   45.6816 H   0  0  0  0  0  0  0  0  0  0  0  0
   56.4819   31.9108   43.3276 H   0  0  0  0  0  0  0  0  0  0  0  0
   56.6229   29.4430   43.0872 H   0  0  0  0  0  0  0  0  0  0  0  0
   58.4820   23.6094   46.0403 H   0  0  0  0  0  0  0  0  0  0  0  0
   58.6637   21.5813   44.6005 H   0  0  0  0  0  0  0  0  0  0  0  0
   56.7010   20.9100   41.6260 H   0  0  0  0  0  0  0  0  0  0  0  0
   57.3390   19.9760   43.0180 H   0  0  0  0  0  0  0  0  0  0  0  0
   55.0596   22.7499   42.5041 H   0  0  0  0  0  0  0  0  0  0  0  0
   54.8568   24.7568   43.9726 H   0  0  0  0  0  0  0  0  0  0  0  0
  1  2  1  0
  2  3  2  0
  3  4  1  0
  4  5  1  0
  5  6  1  0
  6  7  1  0
  7  8  1  0
  8  9  1  0
  9 10  1  0
 10 11  2  0
 11 12  1  0
 12 13  2  0
 13 14  1  0
 14 15  2  0
 15 16  1  0
  4 17  2  0
 17 18  1  0
 18 19  2  0
 19 20  1  0
 20 21  2  0
 20 22  1  0
 22 23  1  0
 23 24  2  0
 23 25  2  0
 23 26  1  0
 26 27  2  0
 27 28  1  0
 28 29  2  0
 29 30  1  0
 29 31  1  0
 31 32  2  0
 19  2  1  0
 32 26  1  0
 16  7  1  0
 15 10  1  0
  1 33  1  0
  1 34  1  0
  1 35  1  0
  3 36  1  0
  6 37  1  0
  6 38  1  0
  7 39  1  1
  8 40  1  0
  8 41  1  0
 11 42  1  0
 12 43  1  0
 13 44  1  0
 14 45  1  0
 17 46  1  0
 18 47  1  0
 27 48  1  0
 28 49  1  0
 30 50  1  0
 30 51  1  0
 31 52  1  0
 32 53  1  0
M  CHG  1  22  -1
M  END
>  <UniqueID>  (40) 
38

>  <SMILES>  (40) 
Cc1cc(OC[C@H]2COc3ccccc3O2)ccc1C(=O)[N-]S(=O)(=O)c1ccc(N)cc1

>  <Energy>  (40) 
63.46003205481502

>  <Genealogy>  (40) 
Cc1cc(OCC2COc3ccccc3O2)ccc1C(=O)[N-]S(=O)(=O)c1ccc(N)cc1 (protonated)
Cc1cc(OC[C@H]2COc3ccccc3O2)ccc1C(=O)[N-]S(=O)(=O)c1ccc(N)cc1 (chirality)
Cc1cc(OC[C@H]2COc3ccccc3O2)ccc1C(=O)[N-]S(=O)(=O)c1ccc(N)cc1 (3D coordinates assigned)
Cc1cc(OC[C@H]2COc3ccccc3O2)ccc1C(=O)[N-]S(=O)(=O)c1ccc(N)cc1 (nonaromatic ring conformer: 63.46003205481502 kcal/mol)

>  <smiles>  (40) 
Cc1cc(OCC2COc3ccccc3O2)ccc1C(=O)NS(=O)(=O)c1ccc(N)cc1

>  <score_type>  (40) 
oracle

>  <origin>  (40) 
adg

>  <m_score__min__energy>  (40) 
-11.710000000000001

>  <m_primary>  (40) 
energy

$$$$
40:0
     RDKit          3D

 65 68  0  0  1  0  0  0  0  0999 V2000
   56.6490   29.2890   42.7980 C   0  0  0  0  0  0  0  0  0  0  0  0
   57.5080   29.0200   44.0280 C   0  0  0  0  0  0  0  0  0  0  0  0
   58.3470   27.8230   43.7650 C   0  0  0  0  0  0  0  0  0  0  0  0
   59.6150   27.9230   44.3410 O   0  0  0  0  0  0  0  0  0  0  0  0
   56.5350   28.6490   45.1520 C   0  0  0  0  0  0  0  0  0  0  0  0
   55.3050   29.3120   44.9800 O   0  0  0  0  0  0  0  0  0  0  0  0
   58.2220   30.1910   44.4600 N   0  0  0  0  0  0  0  0  0  0  0  0
   57.6390   31.4040   44.8600 C   0  0  0  0  0  0  0  0  0  0  0  0
   56.3820   31.4870   44.8440 O   0  0  0  0  0  0  0  0  0  0  0  0
   58.3690   32.5800   45.2960 C   0  0  0  0  0  0  0  0  0  0  0  0
   57.8440   33.8500   45.1600 C   0  0  0  0  0  0  0  0  0  0  0  0
   58.5150   34.9900   45.5680 C   0  0  0  0  0  0  0  0  0  0  0  0
   59.7730   34.8770   46.1390 C   0  0  0  0  0  0  0  0  0  0  0  0
   60.3000   33.6000   46.2740 C   0  0  0  0  0  0  0  0  0  0  0  0
   59.6100   32.4690   45.8590 C   0  0  0  0  0  0  0  0  0  0  0  0
   57.9320   27.6090   47.7810 N   0  0  0  0  0  0  0  0  0  0  0  0
   58.7080   28.6200   47.9160 C   0  0  0  0  0  0  0  0  0  0  0  0
   59.0900   29.4070   46.8940 N   0  0  0  0  0  0  0  0  0  0  0  0
   59.9070   30.4660   47.0380 C   0  0  0  0  0  0  0  0  0  0  0  0
   60.2690   31.2240   46.0570 N   0  0  0  0  0  0  0  0  0  0  0  0
   58.4260   26.4910   47.0470 C   0  0  0  0  0  0  0  0  0  0  0  0
   59.7760   26.2660   46.8590 C   0  0  0  0  0  0  0  0  0  0  0  0
   60.1690   25.1580   46.1370 C   0  0  0  0  0  0  0  0  0  0  0  0
   59.2200   24.2780   45.6050 C   0  0  0  0  0  0  0  0  0  0  0  0
   57.8580   24.4960   45.7880 C   0  0  0  0  0  0  0  0  0  0  0  0
   56.9660   23.5560   45.2170 N   0  0  0  0  0  0  0  0  0  0  0  0
   57.3500   22.1580   45.2220 C   0  0  0  0  0  0  0  0  0  0  0  0
   56.2740   21.4650   44.3710 C   0  0  0  0  0  0  0  0  0  0  0  0
   56.2260   22.1230   43.1440 O   0  0  0  0  0  0  0  0  0  0  0  0
   55.4670   23.2590   43.2710 C   0  0  0  0  0  0  0  0  0  0  0  0
   55.6910   23.8850   44.6260 C   0  0  0  0  0  0  0  0  0  0  0  0
   57.4990   25.5950   46.5040 C   0  0  0  0  0  0  0  0  0  0  0  0
   59.1860   28.9320   49.1340 N   0  0  0  0  0  0  0  0  0  0  0  0
   60.0130   29.9850   49.3460 C   0  0  0  0  0  0  0  0  0  0  0  0
   60.4040   30.7940   48.2950 C   0  0  0  0  0  0  0  0  0  0  0  0
   61.4600   32.1600   48.4880 Cl  0  0  0  0  0  0  0  0  0  0  0  0
   55.6437   29.6038   43.1146 H   0  0  0  0  0  0  0  0  0  0  0  0
   57.1101   30.0858   42.1959 H   0  0  0  0  0  0  0  0  0  0  0  0
   56.5733   28.3716   42.1959 H   0  0  0  0  0  0  0  0  0  0  0  0
   57.8401   26.9388   44.1788 H   0  0  0  0  0  0  0  0  0  0  0  0
   58.4796   27.7399   42.6762 H   0  0  0  0  0  0  0  0  0  0  0  0
   60.1420   28.6830   44.0350 H   0  0  0  0  0  0  0  0  0  0  0  0
   56.3650   27.5623   45.1393 H   0  0  0  0  0  0  0  0  0  0  0  0
   56.9713   28.9541   46.1146 H   0  0  0  0  0  0  0  0  0  0  0  0
   55.3020   30.0980   45.5940 H   0  0  0  0  0  0  0  0  0  0  0  0
   59.2740   30.1220   44.4740 H   0  0  0  0  0  0  0  0  0  0  0  0
   56.8477   33.9607   44.7070 H   0  0  0  0  0  0  0  0  0  0  0  0
   58.0526   35.9798   45.4398 H   0  0  0  0  0  0  0  0  0  0  0  0
   60.3316   35.7642   46.4720 H   0  0  0  0  0  0  0  0  0  0  0  0
   61.2964   33.4803   46.7243 H   0  0  0  0  0  0  0  0  0  0  0  0
   58.7520   29.2140   45.9250 H   0  0  0  0  0  0  0  0  0  0  0  0
   60.5231   26.9568   47.2768 H   0  0  0  0  0  0  0  0  0  0  0  0
   61.2400   24.9642   45.9778 H   0  0  0  0  0  0  0  0  0  0  0  0
   59.5559   23.4003   45.0333 H   0  0  0  0  0  0  0  0  0  0  0  0
   58.3459   22.0259   44.7739 H   0  0  0  0  0  0  0  0  0  0  0  0
   57.4128   21.7433   46.2389 H   0  0  0  0  0  0  0  0  0  0  0  0
   56.5369   20.4075   44.2206 H   0  0  0  0  0  0  0  0  0  0  0  0
   55.2958   21.5062   44.8725 H   0  0  0  0  0  0  0  0  0  0  0  0
   55.7522   23.9764   42.4874 H   0  0  0  0  0  0  0  0  0  0  0  0
   54.4042   22.9947   43.1683 H   0  0  0  0  0  0  0  0  0  0  0  0
   55.6311   24.9780   44.5171 H   0  0  0  0  0  0  0  0  0  0  0  0
   54.9152   23.4850   45.2955 H   0  0  0  0  0  0  0  0  0  0  0  0
   56.4281   25.7888   46.6639 H   0  0  0  0  0  0  0  0  0  0  0  0
   58.9350   28.3680   49.9740 H   0  0  0  0  0  0  0  0  0  0  0  0
   60.3760   30.1976   50.3624 H   0  0  0  0  0  0  0  0  0  0  0  0
  1  2  1  0
  2  3  1  0
  3  4  1  0
  2  5  1  0
  5  6  1  0
  2  7  1  0
  7  8  1  0
  8  9  2  0
  8 10  1  0
 10 11  2  0
 11 12  1  0
 12 13  2  0
 13 14  1  0
 14 15  2  0
 15 16  1  0
 16 17  2  0
 17 18  1  0
 18 19  1  0
 19 20  2  0
 20 21  1  0
 21 22  2  0
 22 23  1  0
 23 24  2  0
 24 25  1  0
 25 26  1  0
 26 27  1  0
 27 28  1  0
 28 29  1  0
 29 30  1  0
 30 31  1  0
 25 32  2  0
 19 33  1  0
 33 34  1  0
 34 35  2  0
 35 36  1  0
 15 10  1  0
 35 17  1  0
 32 21  1  0
 31 26  1  0
  1 37  1  0
  1 38  1  0
  1 39  1  0
  3 40  1  0
  3 41  1  0
  4 42  1  0
  5 43  1  0
  5 44  1  0
  6 45  1  0
  7 46  1  0
 11 47  1  0
 12 48  1  0
 13 49  1  0
 14 50  1  0
 18 51  1  0
 22 52  1  0
 23 53  1  0
 24 54  1  0
 27 55  1  0
 27 56  1  0
 28 57  1  0
 28 58  1  0
 30 59  1  0
 30 60  1  0
 31 61  1  0
 31 62  1  0
 32 63  1  0
 33 64  1  0
 34 65  1  0
M  END
>  <smiles>  (41) 
CC(CO)(CO)NC(=O)c1ccccc1N=c1[nH]c(=Nc2cccc(N3CCOCC3)c2)[nH]cc1Cl

>  <score_type>  (41) 
oracle

>  <origin>  (41) 
adg

>  <m_score__min__energy>  (41) 
-9.5899999999999999

>  <m_primary>  (41) 
energy

$$$$
41:0
     RDKit          3D

 35 36  0  0  0  0  0  0  0  0999 V2000
   62.9690   33.4820   47.0060 C   0  0  0  0  0  0  0  0  0  0  0  0
   61.6030   33.4210   47.3700 O   0  0  0  0  0  0  0  0  0  0  0  0
   60.8820   32.2560   47.1520 C   0  0  0  0  0  0  0  0  0  0  0  0
   61.4750   31.0300   46.9170 C   0  0  0  0  0  0  0  0  0  0  0  0
   60.7130   29.8760   46.7020 C   0  0  0  0  0  0  0  0  0  0  0  0
   59.3460   29.9280   46.7170 C   0  0  0  0  0  0  0  0  0  0  0  0
   58.4450   28.8150   46.5090 C   0  0  0  0  0  0  0  0  0  0  0  0
   57.6020   28.7380   45.4230 C   0  0  0  0  0  0  0  0  0  0  0  0
   57.5350   29.7140   44.3370 C   0  0  0  0  0  0  0  0  0  0  0  0
   56.1120   29.8470   43.8540 C   0  0  0  0  0  0  0  0  0  0  0  0
   55.1850   29.4150   44.8130 O   0  0  0  0  0  0  0  0  0  0  0  0
   56.7960   27.6450   45.3750 N   0  0  0  0  0  0  0  0  0  0  0  0
   56.7990   26.6880   46.3070 C   0  0  0  0  0  0  0  0  0  0  0  0
   55.9930   25.6750   46.1830 N   0  0  0  0  0  0  0  0  0  0  0  0
   57.6230   26.7550   47.3780 N   0  0  0  0  0  0  0  0  0  0  0  0
   58.4590   27.8210   47.4940 C   0  0  0  0  0  0  0  0  0  0  0  0
   59.2600   27.9190   48.5010 N   0  0  0  0  0  0  0  0  0  0  0  0
   58.7550   31.1690   46.9550 C   0  0  0  0  0  0  0  0  0  0  0  0
   59.5010   32.3010   47.1660 C   0  0  0  0  0  0  0  0  0  0  0  0
   63.5895   33.5097   47.9139 H   0  0  0  0  0  0  0  0  0  0  0  0
   63.2298   32.5946   46.4106 H   0  0  0  0  0  0  0  0  0  0  0  0
   63.1497   34.3891   46.4106 H   0  0  0  0  0  0  0  0  0  0  0  0
   62.5726   30.9595   46.8985 H   0  0  0  0  0  0  0  0  0  0  0  0
   61.2188   28.9165   46.5189 H   0  0  0  0  0  0  0  0  0  0  0  0
   57.8894   30.6897   44.7009 H   0  0  0  0  0  0  0  0  0  0  0  0
   58.1698   29.3747   43.5052 H   0  0  0  0  0  0  0  0  0  0  0  0
   55.9143   30.9037   43.6209 H   0  0  0  0  0  0  0  0  0  0  0  0
   55.9969   29.2123   42.9630 H   0  0  0  0  0  0  0  0  0  0  0  0
   54.7420   28.5890   44.4950 H   0  0  0  0  0  0  0  0  0  0  0  0
   56.1390   27.5530   44.5590 H   0  0  0  0  0  0  0  0  0  0  0  0
   55.6320   25.4480   45.2470 H   0  0  0  0  0  0  0  0  0  0  0  0
   57.6020   26.0040   48.0790 H   0  0  0  0  0  0  0  0  0  0  0  0
   59.0720   28.6570   49.2160 H   0  0  0  0  0  0  0  0  0  0  0  0
   57.6576   31.2422   46.9741 H   0  0  0  0  0  0  0  0  0  0  0  0
   58.9921   33.2588   47.3491 H   0  0  0  0  0  0  0  0  0  0  0  0
  1  2  1  0
  2  3  1  0
  3  4  2  0
  4  5  1  0
  5  6  2  0
  6  7  1  0
  7  8  2  0
  8  9  1  0
  9 10  1  0
 10 11  1  0
  8 12  1  0
 12 13  1  0
 13 14  2  3
 13 15  1  0
 15 16  1  0
 16 17  2  3
  6 18  1  0
 18 19  2  0
 19  3  1  0
 16  7  1  0
  1 20  1  0
  1 21  1  0
  1 22  1  0
  4 23  1  0
  5 24  1  0
  9 25  1  0
  9 26  1  0
 10 27  1  0
 10 28  1  0
 11 29  1  0
 12 30  1  0
 14 31  1  0
 15 32  1  0
 17 33  1  0
 18 34  1  0
 19 35  1  0
M  END
>  <smiles>  (42) 
COc1ccc(-c2c(CCO)[nH]c(=N)[nH]c2=N)cc1

>  <score_type>  (42) 
oracle

>  <origin>  (42) 
adg

>  <m_score__min__energy>  (42) 
-6.2300000000000004

>  <m_primary>  (42) 
energy

$$$$
42:0
     RDKit          3D

 46 49  0  0  0  0  0  0  0  0999 V2000
   57.5480   20.3430   44.9640 N   0  0  0  0  0  0  0  0  0  0  0  0
   57.5420   21.7720   44.6420 C   0  0  0  0  0  0  0  0  0  0  0  0
   56.4780   22.5360   45.4450 C   0  0  0  0  0  0  0  0  0  0  0  0
   56.7180   24.0230   45.4230 C   0  0  0  0  0  0  0  0  0  0  0  0
   57.8360   24.5530   44.7610 C   0  0  0  0  0  0  0  0  0  0  0  0
   58.0430   25.9340   44.7210 C   0  0  0  0  0  0  0  0  0  0  0  0
   57.1330   26.8120   45.3380 C   0  0  0  0  0  0  0  0  0  0  0  0
   57.3520   28.2810   45.2950 C   0  0  0  0  0  0  0  0  0  0  0  0
   56.6060   29.0860   44.4150 C   0  0  0  0  0  0  0  0  0  0  0  0
   56.8090   30.4680   44.3730 C   0  0  0  0  0  0  0  0  0  0  0  0
   57.7580   31.0640   45.2070 C   0  0  0  0  0  0  0  0  0  0  0  0
   57.9520   32.4040   45.1610 N   0  0  0  0  0  0  0  0  0  0  0  0
   58.8680   33.0150   45.9550 C   0  0  0  0  0  0  0  0  0  0  0  0
   59.0170   34.2640   45.8630 O   0  0  0  0  0  0  0  0  0  0  0  0
   59.6250   32.2820   46.8330 N   0  0  0  0  0  0  0  0  0  0  0  0
   60.5960   32.9410   47.6710 C   0  0  0  0  0  0  0  0  0  0  0  0
   61.9440   33.0070   47.2780 C   0  0  0  0  0  0  0  0  0  0  0  0
   62.8840   33.6480   48.0900 C   0  0  0  0  0  0  0  0  0  0  0  0
   62.4870   34.2260   49.3000 C   0  0  0  0  0  0  0  0  0  0  0  0
   63.4000   34.8460   50.0870 F   0  0  0  0  0  0  0  0  0  0  0  0
   61.1480   34.1650   49.6970 C   0  0  0  0  0  0  0  0  0  0  0  0
   60.2050   33.5250   48.8880 C   0  0  0  0  0  0  0  0  0  0  0  0
   59.4590   30.9220   46.9110 C   0  0  0  0  0  0  0  0  0  0  0  0
   60.1460   30.2470   47.7300 O   0  0  0  0  0  0  0  0  0  0  0  0
   58.5150   30.2780   46.0920 C   0  0  0  0  0  0  0  0  0  0  0  0
   58.3080   28.8860   46.1320 C   0  0  0  0  0  0  0  0  0  0  0  0
   56.0110   26.2760   45.9960 C   0  0  0  0  0  0  0  0  0  0  0  0
   55.8040   24.8940   46.0340 C   0  0  0  0  0  0  0  0  0  0  0  0
   56.8860   20.1460   45.7480 H   0  0  0  0  0  0  0  0  0  0  0  0
   57.2450   19.8040   44.1210 H   0  0  0  0  0  0  0  0  0  0  0  0
   58.5120   20.0350   45.2250 H   0  0  0  0  0  0  0  0  0  0  0  0
   58.5318   22.1927   44.8729 H   0  0  0  0  0  0  0  0  0  0  0  0
   57.3048   21.8795   43.5733 H   0  0  0  0  0  0  0  0  0  0  0  0
   55.4885   22.3290   45.0113 H   0  0  0  0  0  0  0  0  0  0  0  0
   56.5315   22.1975   46.4902 H   0  0  0  0  0  0  0  0  0  0  0  0
   58.5530   23.8777   44.2711 H   0  0  0  0  0  0  0  0  0  0  0  0
   58.9249   26.3384   44.2027 H   0  0  0  0  0  0  0  0  0  0  0  0
   55.8571   28.6241   43.7549 H   0  0  0  0  0  0  0  0  0  0  0  0
   56.2199   31.0882   43.6814 H   0  0  0  0  0  0  0  0  0  0  0  0
   62.2604   32.5524   46.3276 H   0  0  0  0  0  0  0  0  0  0  0  0
   63.9373   33.6979   47.7769 H   0  0  0  0  0  0  0  0  0  0  0  0
   60.8360   34.6216   50.6479 H   0  0  0  0  0  0  0  0  0  0  0  0
   59.1527   33.4782   49.2051 H   0  0  0  0  0  0  0  0  0  0  0  0
   58.8983   28.2663   46.8231 H   0  0  0  0  0  0  0  0  0  0  0  0
   55.2912   26.9494   46.4842 H   0  0  0  0  0  0  0  0  0  0  0  0
   54.9194   24.4873   46.5459 H   0  0  0  0  0  0  0  0  0  0  0  0
  1  2  1  0
  2  3  1  0
  3  4  1  0
  4  5  2  0
  5  6  1  0
  6  7  2  0
  7  8  1  0
  8  9  2  0
  9 10  1  0
 10 11  2  0
 11 12  1  0
 12 13  1  0
 13 14  2  0
 13 15  1  0
 15 16  1  0
 16 17  2  0
 17 18  1  0
 18 19  2  0
 19 20  1  0
 19 21  1  0
 21 22  2  0
 15 23  1  0
 23 24  2  0
 23 25  1  0
 25 26  2  0
  7 27  1  0
 27 28  2  0
 28  4  1  0
 26  8  1  0
 25 11  1  0
 22 16  1  0
  1 29  1  0
  1 30  1  0
  1 31  1  0
  2 32  1  0
  2 33  1  0
  3 34  1  0
  3 35  1  0
  5 36  1  0
  6 37  1  0
  9 38  1  0
 10 39  1  0
 17 40  1  0
 18 41  1  0
 21 42  1  0
 22 43  1  0
 26 44  1  0
 27 45  1  0
 28 46  1  0
M  CHG  2   1   1  12  -1
M  END
>  <UniqueID>  (43) 
39

>  <SMILES>  (43) 
[NH3+]CCc1ccc(-c2ccc3[n-]c(=O)n(-c4ccc(F)cc4)c(=O)c3c2)cc1

>  <Energy>  (43) 
67.20220339203979

>  <Genealogy>  (43) 
[NH3+]CCc1ccc(-c2ccc3[n-]c(=O)n(-c4ccc(F)cc4)c(=O)c3c2)cc1 (protonated)
[NH3+]CCc1ccc(-c2ccc3[n-]c(=O)n(-c4ccc(F)cc4)c(=O)c3c2)cc1 (3D coordinates assigned)
[NH3+]CCc1ccc(-c2ccc3[n-]c(=O)n(-c4ccc(F)cc4)c(=O)c3c2)cc1 (optimized conformer: 67.20220339203979 kcal/mol)

>  <smiles>  (43) 
NCCc1ccc(-c2ccc3[nH]c(=O)n(-c4ccc(F)cc4)c(=O)c3c2)cc1

>  <score_type>  (43) 
oracle

>  <origin>  (43) 
adg

>  <m_score__min__energy>  (43) 
-8.4299999999999997

>  <m_primary>  (43) 
energy

$$$$
43:0
     RDKit          3D

 55 58  0  0  1  0  0  0  0  0999 V2000
   66.4050   32.7630   49.9470 C   0  0  0  0  0  0  0  0  0  0  0  0
   65.0970   32.0880   50.1860 C   0  0  0  0  0  0  0  0  0  0  0  0
   64.9600   31.1950   51.2540 C   0  0  0  0  0  0  0  0  0  0  0  0
   63.7430   30.5700   51.4870 C   0  0  0  0  0  0  0  0  0  0  0  0
   62.6350   30.8170   50.6650 C   0  0  0  0  0  0  0  0  0  0  0  0
   61.4450   30.1280   50.9900 N   0  0  0  0  0  0  0  0  0  0  0  0
   61.0220   29.1860   50.2500 C   0  0  0  0  0  0  0  0  0  0  0  0
   61.2480   27.8340   50.5070 C   0  0  0  0  0  0  0  0  0  0  0  0
   60.7340   26.8960   49.6360 C   0  0  0  0  0  0  0  0  0  0  0  0
   60.0200   27.3000   48.5500 N   0  0  0  0  0  0  0  0  0  0  0  0
   59.7960   28.6020   48.2930 C   0  0  0  0  0  0  0  0  0  0  0  0
   59.0410   29.1110   47.1470 C   0  0  0  0  0  0  0  0  0  0  0  0
   60.0320   29.3500   46.0230 C   0  0  0  0  0  0  0  0  0  0  0  0
   59.4070   29.6130   44.6990 C   0  0  0  0  0  0  0  0  0  0  0  0
   57.9600   29.6690   44.7960 N   0  0  0  0  0  0  0  0  0  0  0  0
   57.1530   30.7150   44.3420 C   0  0  0  0  0  0  0  0  0  0  0  0
   55.8810   30.6040   44.4970 O   0  0  0  0  0  0  0  0  0  0  0  0
   57.5880   31.9650   43.6930 C   0  0  0  0  0  0  0  0  0  0  0  0
   58.1850   32.8210   44.7870 C   0  0  0  0  0  0  0  0  0  0  0  0
   58.7680   34.0360   44.5140 C   0  0  0  0  0  0  0  0  0  0  0  0
   59.2910   34.7490   45.5670 C   0  0  0  0  0  0  0  0  0  0  0  0
   59.2070   34.2170   46.8430 C   0  0  0  0  0  0  0  0  0  0  0  0
   58.6210   32.9980   47.1170 C   0  0  0  0  0  0  0  0  0  0  0  0
   58.5200   32.3330   48.7220 Cl  0  0  0  0  0  0  0  0  0  0  0  0
   58.0990   32.2880   46.0600 C   0  0  0  0  0  0  0  0  0  0  0  0
   57.3200   28.5220   45.4280 C   0  0  0  0  0  0  0  0  0  0  0  0
   57.9400   28.1990   46.7540 C   0  0  0  0  0  0  0  0  0  0  0  0
   60.3040   29.5400   49.1550 N   0  0  0  0  0  0  0  0  0  0  0  0
   62.7700   31.6960   49.6130 C   0  0  0  0  0  0  0  0  0  0  0  0
   63.9960   32.3240   49.3810 C   0  0  0  0  0  0  0  0  0  0  0  0
   66.8743   33.0052   50.9119 H   0  0  0  0  0  0  0  0  0  0  0  0
   67.0647   32.0927   49.3764 H   0  0  0  0  0  0  0  0  0  0  0  0
   66.2409   33.6890   49.3764 H   0  0  0  0  0  0  0  0  0  0  0  0
   65.8182   30.9879   51.9102 H   0  0  0  0  0  0  0  0  0  0  0  0
   63.6465   29.8699   52.3299 H   0  0  0  0  0  0  0  0  0  0  0  0
   61.8261   27.5211   51.3890 H   0  0  0  0  0  0  0  0  0  0  0  0
   60.9007   25.8242   49.8187 H   0  0  0  0  0  0  0  0  0  0  0  0
   59.6240   26.6080   47.8770 H   0  0  0  0  0  0  0  0  0  0  0  0
   58.5411   30.0554   47.4083 H   0  0  0  0  0  0  0  0  0  0  0  0
   60.6518   30.2187   46.2896 H   0  0  0  0  0  0  0  0  0  0  0  0
   60.6156   28.4237   45.9165 H   0  0  0  0  0  0  0  0  0  0  0  0
   59.7770   30.5746   44.3137 H   0  0  0  0  0  0  0  0  0  0  0  0
   59.6760   28.7900   44.0206 H   0  0  0  0  0  0  0  0  0  0  0  0
   58.3420   31.7518   42.9210 H   0  0  0  0  0  0  0  0  0  0  0  0
   56.7476   32.4741   43.1985 H   0  0  0  0  0  0  0  0  0  0  0  0
   58.8145   34.4251   43.4862 H   0  0  0  0  0  0  0  0  0  0  0  0
   59.7682   35.7257   45.3988 H   0  0  0  0  0  0  0  0  0  0  0  0
   59.6281   34.7945   47.6791 H   0  0  0  0  0  0  0  0  0  0  0  0
   57.6206   31.3114   46.2253 H   0  0  0  0  0  0  0  0  0  0  0  0
   56.2540   28.7475   45.5789 H   0  0  0  0  0  0  0  0  0  0  0  0
   57.4505   27.6514   44.7685 H   0  0  0  0  0  0  0  0  0  0  0  0
   57.1561   28.2524   47.5238 H   0  0  0  0  0  0  0  0  0  0  0  0
   58.3785   27.1944   46.6622 H   0  0  0  0  0  0  0  0  0  0  0  0
   61.9126   31.9033   48.9558 H   0  0  0  0  0  0  0  0  0  0  0  0
   64.0888   33.0237   48.5373 H   0  0  0  0  0  0  0  0  0  0  0  0
  1  2  1  0
  2  3  2  0
  3  4  1  0
  4  5  2  0
  5  6  1  0
  6  7  2  0
  7  8  1  0
  8  9  2  0
  9 10  1  0
 10 11  1  0
 11 12  1  0
 12 13  1  0
 13 14  1  0
 14 15  1  0
 15 16  1  0
 16 17  2  0
 16 18  1  0
 18 19  1  0
 19 20  2  0
 20 21  1  0
 21 22  2  0
 22 23  1  0
 23 24  1  0
 23 25  2  0
 15 26  1  0
 26 27  1  0
 11 28  2  0
  5 29  1  0
 29 30  2  0
 30  2  1  0
 28  7  1  0
 27 12  1  0
 25 19  1  0
  1 31  1  0
  1 32  1  0
  1 33  1  0
  3 34  1  0
  4 35  1  0
  8 36  1  0
  9 37  1  0
 10 38  1  0
 12 39  1  0
 13 40  1  0
 13 41  1  0
 14 42  1  0
 14 43  1  0
 18 44  1  0
 18 45  1  0
 20 46  1  0
 21 47  1  0
 22 48  1  0
 25 49  1  0
 26 50  1  0
 26 51  1  0
 27 52  1  0
 27 53  1  0
 29 54  1  0
 30 55  1  0
M  END
>  <smiles>  (44) 
Cc1ccc(N=c2cc[nH]c(C3CCN(C(=O)Cc4cccc(Cl)c4)CC3)n2)cc1

>  <score_type>  (44) 
oracle

>  <origin>  (44) 
adg

>  <m_score__min__energy>  (44) 
-9.9600000000000009

>  <m_primary>  (44) 
energy

$$$$
44:0
     RDKit          3D

 42 44  0  0  0  0  0  0  0  0999 V2000
   64.8780   32.6660   46.7120 H   0  0  0  0  0  0  0  0  0  0  0  0
   63.9620   32.9590   46.3870 O   0  0  0  0  0  0  0  0  0  0  0  0
   62.9660   33.3550   47.2770 C   0  0  0  0  0  0  0  0  0  0  0  0
   61.6850   33.6760   46.8060 C   0  0  0  0  0  0  0  0  0  0  0  0
   61.4661   33.6105   45.7300 H   0  0  0  0  0  0  0  0  0  0  0  0
   60.6810   34.0800   47.6980 C   0  0  0  0  0  0  0  0  0  0  0  0
   59.3360   34.5110   47.1770 C   0  0  0  0  0  0  0  0  0  0  0  0
   58.6240   33.6808   47.2948 H   0  0  0  0  0  0  0  0  0  0  0  0
   59.0089   35.3909   47.7504 H   0  0  0  0  0  0  0  0  0  0  0  0
   59.4210   34.9760   45.4080 S   0  0  0  0  0  0  0  0  0  0  0  0
   58.4290   33.5990   44.8350 C   0  0  0  0  0  0  0  0  0  0  0  0
   58.5020   33.0900   43.5860 N   0  0  0  0  0  0  0  0  0  0  0  0
   57.7300   32.0190   43.4110 N   0  0  0  0  0  0  0  0  0  0  0  0
   57.0380   31.6740   44.5180 C   0  0  0  0  0  0  0  0  0  0  0  0
   56.2840   30.6150   44.5570 N   0  0  0  0  0  0  0  0  0  0  0  0
   56.7000   29.2650   44.8190 C   0  0  0  0  0  0  0  0  0  0  0  0
   55.8890   28.3980   45.2430 O   0  0  0  0  0  0  0  0  0  0  0  0
   58.1340   28.8930   44.6160 C   0  0  0  0  0  0  0  0  0  0  0  0
   58.2085   27.8092   44.4431 H   0  0  0  0  0  0  0  0  0  0  0  0
   58.5291   29.4370   43.7454 H   0  0  0  0  0  0  0  0  0  0  0  0
   58.9370   29.2600   45.8350 C   0  0  0  0  0  0  0  0  0  0  0  0
   58.5550   28.7990   47.1050 C   0  0  0  0  0  0  0  0  0  0  0  0
   57.6728   28.1504   47.2104 H   0  0  0  0  0  0  0  0  0  0  0  0
   59.2930   29.1620   48.2370 C   0  0  0  0  0  0  0  0  0  0  0  0
   58.9968   28.7889   49.2285 H   0  0  0  0  0  0  0  0  0  0  0  0
   60.4060   29.9980   48.1100 C   0  0  0  0  0  0  0  0  0  0  0  0
   61.1140   30.3560   49.2100 F   0  0  0  0  0  0  0  0  0  0  0  0
   60.7830   30.4730   46.8500 C   0  0  0  0  0  0  0  0  0  0  0  0
   61.6557   31.1353   46.7510 H   0  0  0  0  0  0  0  0  0  0  0  0
   60.0520   30.1070   45.7160 C   0  0  0  0  0  0  0  0  0  0  0  0
   60.3508   30.4835   44.7266 H   0  0  0  0  0  0  0  0  0  0  0  0
   57.3610   32.7260   45.8020 S   0  0  0  0  0  0  0  0  0  0  0  0
   60.9650   34.1450   49.0700 C   0  0  0  0  0  0  0  0  0  0  0  0
   60.1776   34.4424   49.7782 H   0  0  0  0  0  0  0  0  0  0  0  0
   62.2430   33.8340   49.5420 C   0  0  0  0  0  0  0  0  0  0  0  0
   62.4585   33.8950   50.6190 H   0  0  0  0  0  0  0  0  0  0  0  0
   63.2560   33.4430   48.6460 C   0  0  0  0  0  0  0  0  0  0  0  0
   64.5580   33.1420   49.0770 O   0  0  0  0  0  0  0  0  0  0  0  0
   64.8670   32.1950   50.0920 C   0  0  0  0  0  0  0  0  0  0  0  0
   64.7171   32.6545   51.0801 H   0  0  0  0  0  0  0  0  0  0  0  0
   64.2076   31.3204   49.9905 H   0  0  0  0  0  0  0  0  0  0  0  0
   65.9153   31.8776   49.9905 H   0  0  0  0  0  0  0  0  0  0  0  0
  1  2  1  0
  2  3  1  0
  3  4  2  0
  4  5  1  0
  4  6  1  0
  6  7  1  0
  7  8  1  0
  7  9  1  0
  7 10  1  0
 10 11  1  0
 11 12  2  0
 12 13  1  0
 13 14  1  0
 14 15  2  0
 15 16  1  0
 16 17  2  0
 16 18  1  0
 18 19  1  0
 18 20  1  0
 18 21  1  0
 21 22  2  0
 22 23  1  0
 22 24  1  0
 24 25  1  0
 24 26  2  0
 26 27  1  0
 26 28  1  0
 28 29  1  0
 28 30  2  0
 30 31  1  0
 14 32  1  0
  6 33  2  0
 33 34  1  0
 33 35  1  0
 35 36  1  0
 35 37  2  0
 37 38  1  0
 38 39  1  0
 39 40  1  0
 39 41  1  0
 39 42  1  0
 37  3  1  0
 32 11  1  0
 30 21  1  0
M  CHG  1  13  -1
M  END
>  <UniqueID>  (45) 
40

>  <SMILES>  (45) 
COc1ccc(CSc2n[n-]/c(=N/C(=O)Cc3ccc(F)cc3)s2)cc1O

>  <Energy>  (45) 
72.72649408637635

>  <Genealogy>  (45) 
COc1ccc(CSc2n[n-]c(=NC(=O)Cc3ccc(F)cc3)s2)cc1O (protonated)
COc1ccc(CSc2n[n-]/c(=N/C(=O)Cc3ccc(F)cc3)s2)cc1O (cis-trans isomerization)
COc1ccc(CSc2n[n-]/c(=N/C(=O)Cc3ccc(F)cc3)s2)cc1O (3D coordinates assigned)
COc1ccc(CSc2n[n-]/c(=N/C(=O)Cc3ccc(F)cc3)s2)cc1O (optimized conformer: 72.72649408637635 kcal/mol)

>  <smiles>  (45) 
COc1ccc(CSc2n[nH]c(=NC(=O)Cc3ccc(F)cc3)s2)cc1O

>  <score_type>  (45) 
oracle

>  <origin>  (45) 
adg

>  <m_score__min__energy>  (45) 
-9.6799999999999997

>  <m_primary>  (45) 
energy

$$$$
45:0
     RDKit          3D

 43 45  0  0  1  0  0  0  0  0999 V2000
   58.1580   31.8040   50.6280 O   0  0  0  0  0  0  0  0  0  0  0  0
   58.9460   32.0210   49.6520 C   0  0  0  0  0  0  0  0  0  0  0  0
   59.2730   33.4720   49.4340 C   0  0  0  0  0  0  0  0  0  0  0  0
   59.9560   33.5290   48.2190 O   0  0  0  0  0  0  0  0  0  0  0  0
   59.3920   33.6490   46.9580 C   0  0  0  0  0  0  0  0  0  0  0  0
   59.6480   34.7730   46.1870 C   0  0  0  0  0  0  0  0  0  0  0  0
   59.0730   34.8540   44.9330 C   0  0  0  0  0  0  0  0  0  0  0  0
   58.2680   33.8260   44.4880 C   0  0  0  0  0  0  0  0  0  0  0  0
   58.0170   32.7070   45.2590 C   0  0  0  0  0  0  0  0  0  0  0  0
   57.1810   31.5970   44.7830 C   0  0  0  0  0  0  0  0  0  0  0  0
   55.9430   31.5800   44.8460 O   0  0  0  0  0  0  0  0  0  0  0  0
   57.8820   30.4880   44.2200 N   0  0  0  0  0  0  0  0  0  0  0  0
   57.5410   29.2970   44.6010 C   0  0  0  0  0  0  0  0  0  0  0  0
   58.1060   28.1120   44.1880 C   0  0  0  0  0  0  0  0  0  0  0  0
   57.3950   27.1160   44.8620 C   0  0  0  0  0  0  0  0  0  0  0  0
   56.4600   27.7340   45.6280 N   0  0  0  0  0  0  0  0  0  0  0  0
   56.5520   29.0540   45.4700 N   0  0  0  0  0  0  0  0  0  0  0  0
   58.5870   32.6280   46.5050 C   0  0  0  0  0  0  0  0  0  0  0  0
   59.4710   30.9900   48.8350 N   0  0  0  0  0  0  0  0  0  0  0  0
   59.1320   29.6010   49.0750 C   0  0  0  0  0  0  0  0  0  0  0  0
   59.6530   28.6790   48.0410 C   0  0  0  0  0  0  0  0  0  0  0  0
   59.6050   27.3130   48.1070 C   0  0  0  0  0  0  0  0  0  0  0  0
   60.1250   26.5490   47.0570 C   0  0  0  0  0  0  0  0  0  0  0  0
   60.6790   27.2180   45.9690 C   0  0  0  0  0  0  0  0  0  0  0  0
   60.7210   28.6060   45.9150 C   0  0  0  0  0  0  0  0  0  0  0  0
   60.2050   29.2630   46.9510 N   0  0  0  0  0  0  0  0  0  0  0  0
   58.3506   34.0692   49.3833 H   0  0  0  0  0  0  0  0  0  0  0  0
   59.8775   33.8791   50.2579 H   0  0  0  0  0  0  0  0  0  0  0  0
   60.2929   35.5802   46.5644 H   0  0  0  0  0  0  0  0  0  0  0  0
   59.2558   35.7311   44.2948 H   0  0  0  0  0  0  0  0  0  0  0  0
   57.8122   33.8992   43.4895 H   0  0  0  0  0  0  0  0  0  0  0  0
   58.9375   27.9781   43.4804 H   0  0  0  0  0  0  0  0  0  0  0  0
   57.5620   26.0314   44.7860 H   0  0  0  0  0  0  0  0  0  0  0  0
   55.8070   27.2080   46.2200 H   0  0  0  0  0  0  0  0  0  0  0  0
   55.9150   29.7150   45.9790 H   0  0  0  0  0  0  0  0  0  0  0  0
   58.4009   31.7500   47.1410 H   0  0  0  0  0  0  0  0  0  0  0  0
   60.1200   31.2570   48.0340 H   0  0  0  0  0  0  0  0  0  0  0  0
   59.5492   29.3040   50.0485 H   0  0  0  0  0  0  0  0  0  0  0  0
   58.0347   29.5270   49.0513 H   0  0  0  0  0  0  0  0  0  0  0  0
   59.1593   26.8178   48.9823 H   0  0  0  0  0  0  0  0  0  0  0  0
   60.0970   25.4499   47.0900 H   0  0  0  0  0  0  0  0  0  0  0  0
   61.0928   26.6347   45.1332 H   0  0  0  0  0  0  0  0  0  0  0  0
   61.1598   29.1363   45.0570 H   0  0  0  0  0  0  0  0  0  0  0  0
  1  2  2  0
  2  3  1  0
  3  4  1  0
  4  5  1  0
  5  6  2  0
  6  7  1  0
  7  8  2  0
  8  9  1  0
  9 10  1  0
 10 11  2  0
 10 12  1  0
 12 13  2  0
 13 14  1  0
 14 15  2  0
 15 16  1  0
 16 17  1  0
  9 18  2  0
  2 19  1  0
 19 20  1  0
 20 21  1  0
 21 22  2  0
 22 23  1  0
 23 24  2  0
 24 25  1  0
 25 26  2  0
 18  5  1  0
 26 21  1  0
 17 13  1  0
  3 27  1  0
  3 28  1  0
  6 29  1  0
  7 30  1  0
  8 31  1  0
 14 32  1  0
 15 33  1  0
 16 34  1  0
 17 35  1  0
 18 36  1  0
 19 37  1  0
 20 38  1  0
 20 39  1  0
 22 40  1  0
 23 41  1  0
 24 42  1  0
 25 43  1  0
M  END
>  <smiles>  (46) 
O=C(COc1cccc(C(=O)N=c2cc[nH][nH]2)c1)NCc1ccccn1

>  <score_type>  (46) 
oracle

>  <origin>  (46) 
adg

>  <m_score__min__energy>  (46) 
-8.7699999999999996

>  <m_primary>  (46) 
energy

$$$$
46:0
     RDKit          3D

 47 49  0  0  0  0  0  0  0  0999 V2000
   65.0390   32.7200   49.6380 C   0  0  0  0  0  0  0  0  0  0  0  0
   63.8090   32.6830   48.7670 C   0  0  0  0  0  0  0  0  0  0  0  0
   63.7890   33.4520   47.5930 C   0  0  0  0  0  0  0  0  0  0  0  0
   62.6810   33.4310   46.7510 C   0  0  0  0  0  0  0  0  0  0  0  0
   61.5730   32.6500   47.0690 C   0  0  0  0  0  0  0  0  0  0  0  0
   61.5470   31.8970   48.2560 C   0  0  0  0  0  0  0  0  0  0  0  0
   60.4220   31.0570   48.5670 N   0  0  0  0  0  0  0  0  0  0  0  0
   60.2630   29.6730   48.2220 C   0  0  0  0  0  0  0  0  0  0  0  0
   60.6900   28.7760   48.9990 O   0  0  0  0  0  0  0  0  0  0  0  0
   59.6510   29.2950   46.9290 C   0  0  0  0  0  0  0  0  0  0  0  0
   60.0110   29.8870   45.7850 C   0  0  0  0  0  0  0  0  0  0  0  0
   59.4040   29.4150   44.4930 C   0  0  0  0  0  0  0  0  0  0  0  0
   57.9420   29.1960   44.6000 N   0  0  0  0  0  0  0  0  0  0  0  0
   57.0640   30.6300   44.1210 S   0  0  0  0  0  0  0  0  0  0  0  0
   57.1540   30.8120   42.6310 O   0  0  0  0  0  0  0  0  0  0  0  0
   55.6190   30.4840   44.5120 O   0  0  0  0  0  0  0  0  0  0  0  0
   57.7630   32.0460   44.9000 C   0  0  0  0  0  0  0  0  0  0  0  0
   58.3150   33.0850   44.1360 C   0  0  0  0  0  0  0  0  0  0  0  0
   58.8660   34.2050   44.7680 C   0  0  0  0  0  0  0  0  0  0  0  0
   58.8700   34.2900   46.1640 C   0  0  0  0  0  0  0  0  0  0  0  0
   59.4040   35.3760   46.7750 F   0  0  0  0  0  0  0  0  0  0  0  0
   58.3230   33.2560   46.9290 C   0  0  0  0  0  0  0  0  0  0  0  0
   57.7720   32.1350   46.2990 C   0  0  0  0  0  0  0  0  0  0  0  0
   57.4620   28.7040   45.9230 C   0  0  0  0  0  0  0  0  0  0  0  0
   58.5930   28.2250   46.8490 C   0  0  0  0  0  0  0  0  0  0  0  0
   62.6690   31.9140   49.1190 C   0  0  0  0  0  0  0  0  0  0  0  0
   62.6720   31.0750   50.3770 C   0  0  0  0  0  0  0  0  0  0  0  0
   64.7393   32.7110   50.6963 H   0  0  0  0  0  0  0  0  0  0  0  0
   65.6646   31.8403   49.4266 H   0  0  0  0  0  0  0  0  0  0  0  0
   65.6106   33.6357   49.4266 H   0  0  0  0  0  0  0  0  0  0  0  0
   64.6570   34.0770   47.3360 H   0  0  0  0  0  0  0  0  0  0  0  0
   62.6806   34.0337   45.8308 H   0  0  0  0  0  0  0  0  0  0  0  0
   60.7111   32.6219   46.3861 H   0  0  0  0  0  0  0  0  0  0  0  0
   60.7420   30.7089   45.7893 H   0  0  0  0  0  0  0  0  0  0  0  0
   59.5915   30.1723   43.7176 H   0  0  0  0  0  0  0  0  0  0  0  0
   59.8687   28.4513   44.2375 H   0  0  0  0  0  0  0  0  0  0  0  0
   58.3146   33.0190   43.0380 H   0  0  0  0  0  0  0  0  0  0  0  0
   59.2964   35.0193   44.1665 H   0  0  0  0  0  0  0  0  0  0  0  0
   58.3258   33.3237   48.0269 H   0  0  0  0  0  0  0  0  0  0  0  0
   57.3446   31.3211   46.9031 H   0  0  0  0  0  0  0  0  0  0  0  0
   56.9251   29.5226   46.4245 H   0  0  0  0  0  0  0  0  0  0  0  0
   56.8145   27.8362   45.7289 H   0  0  0  0  0  0  0  0  0  0  0  0
   58.1892   28.0304   47.8535 H   0  0  0  0  0  0  0  0  0  0  0  0
   59.0319   27.2988   46.4495 H   0  0  0  0  0  0  0  0  0  0  0  0
   62.6696   31.7344   51.2575 H   0  0  0  0  0  0  0  0  0  0  0  0
   61.7761   30.4369   50.3943 H   0  0  0  0  0  0  0  0  0  0  0  0
   63.5724   30.4434   50.3943 H   0  0  0  0  0  0  0  0  0  0  0  0
  1  2  1  0
  2  3  2  0
  3  4  1  0
  4  5  2  0
  5  6  1  0
  6  7  1  0
  7  8  1  0
  8  9  2  0
  8 10  1  0
 10 11  2  0
 11 12  1  0
 12 13  1  0
 13 14  1  0
 14 15  2  0
 14 16  2  0
 14 17  1  0
 17 18  2  0
 18 19  1  0
 19 20  2  0
 20 21  1  0
 20 22  1  0
 22 23  2  0
 13 24  1  0
 24 25  1  0
  6 26  2  0
 26 27  1  0
 26  2  1  0
 25 10  1  0
 23 17  1  0
  1 28  1  0
  1 29  1  0
  1 30  1  0
  3 31  1  0
  4 32  1  0
  5 33  1  0
 11 34  1  0
 12 35  1  0
 12 36  1  0
 18 37  1  0
 19 38  1  0
 22 39  1  0
 23 40  1  0
 24 41  1  0
 24 42  1  0
 25 43  1  0
 25 44  1  0
 27 45  1  0
 27 46  1  0
 27 47  1  0
M  CHG  1   7  -1
M  END
>  <UniqueID>  (47) 
41

>  <SMILES>  (47) 
Cc1cccc([N-]C(=O)C2=CCN(S(=O)(=O)c3ccc(F)cc3)CC2)c1C

>  <Energy>  (47) 
61.768669032012916

>  <Genealogy>  (47) 
Cc1cccc([N-]C(=O)C2=CCN(S(=O)(=O)c3ccc(F)cc3)CC2)c1C (protonated)
Cc1cccc([N-]C(=O)C2=CCN(S(=O)(=O)c3ccc(F)cc3)CC2)c1C (3D coordinates assigned)
Cc1cccc([N-]C(=O)C2=CCN(S(=O)(=O)c3ccc(F)cc3)CC2)c1C (nonaromatic ring conformer: 61.768669032012916 kcal/mol)

>  <smiles>  (47) 
Cc1cccc(NC(=O)C2=CCN(S(=O)(=O)c3ccc(F)cc3)CC2)c1C

>  <score_type>  (47) 
oracle

>  <origin>  (47) 
adg

>  <m_score__min__energy>  (47) 
-11.69

>  <m_primary>  (47) 
energy

$$$$
47:0
     RDKit          3D

 39 41  0  0  0  0  0  0  0  0999 V2000
   59.6230   29.6980   50.3260 C   0  0  0  0  0  0  0  0  0  0  0  0
   59.7230   29.5590   48.8360 C   0  0  0  0  0  0  0  0  0  0  0  0
   60.6880   30.2840   48.1240 C   0  0  0  0  0  0  0  0  0  0  0  0
   60.7960   30.1370   46.7410 C   0  0  0  0  0  0  0  0  0  0  0  0
   59.9590   29.2510   46.0580 C   0  0  0  0  0  0  0  0  0  0  0  0
   59.0060   28.4770   46.7560 C   0  0  0  0  0  0  0  0  0  0  0  0
   58.1250   27.5520   46.0600 N   0  0  0  0  0  0  0  0  0  0  0  0
   57.7840   27.7700   44.6360 C   0  0  0  0  0  0  0  0  0  0  0  0
   57.0200   29.0430   44.4230 C   0  0  0  0  0  0  0  0  0  0  0  0
   57.4990   30.1940   43.8370 C   0  0  0  0  0  0  0  0  0  0  0  0
   56.5310   31.1250   43.8600 N   0  0  0  0  0  0  0  0  0  0  0  0
   55.4900   30.5060   44.4570 C   0  0  0  0  0  0  0  0  0  0  0  0
   55.7490   29.2310   44.8130 N   0  0  0  0  0  0  0  0  0  0  0  0
   57.3090   26.6180   46.8580 C   0  0  0  0  0  0  0  0  0  0  0  0
   56.7140   25.4620   46.0670 C   0  0  0  0  0  0  0  0  0  0  0  0
   57.6010   24.4380   45.6820 C   0  0  0  0  0  0  0  0  0  0  0  0
   57.1520   23.3320   44.9610 C   0  0  0  0  0  0  0  0  0  0  0  0
   55.8080   23.2270   44.6040 C   0  0  0  0  0  0  0  0  0  0  0  0
   54.9120   24.2340   44.9650 C   0  0  0  0  0  0  0  0  0  0  0  0
   55.3490   25.3530   45.6820 C   0  0  0  0  0  0  0  0  0  0  0  0
   54.4170   26.3350   45.9930 O   0  0  0  0  0  0  0  0  0  0  0  0
   58.9000   28.6500   48.1530 C   0  0  0  0  0  0  0  0  0  0  0  0
   60.2002   28.8956   50.8087 H   0  0  0  0  0  0  0  0  0  0  0  0
   60.0268   30.6747   50.6311 H   0  0  0  0  0  0  0  0  0  0  0  0
   58.5686   29.6257   50.6311 H   0  0  0  0  0  0  0  0  0  0  0  0
   61.3620   30.9707   48.6570 H   0  0  0  0  0  0  0  0  0  0  0  0
   61.5440   30.7216   46.1853 H   0  0  0  0  0  0  0  0  0  0  0  0
   60.0432   29.1553   44.9654 H   0  0  0  0  0  0  0  0  0  0  0  0
   58.7150   27.8141   44.0519 H   0  0  0  0  0  0  0  0  0  0  0  0
   57.1454   26.9354   44.3109 H   0  0  0  0  0  0  0  0  0  0  0  0
   58.5076   30.3285   43.4192 H   0  0  0  0  0  0  0  0  0  0  0  0
   54.5214   30.9956   44.6362 H   0  0  0  0  0  0  0  0  0  0  0  0
   57.9447   26.1992   47.6520 H   0  0  0  0  0  0  0  0  0  0  0  0
   56.4600   27.1995   47.2468 H   0  0  0  0  0  0  0  0  0  0  0  0
   58.6642   24.5118   45.9542 H   0  0  0  0  0  0  0  0  0  0  0  0
   57.8596   22.5405   44.6732 H   0  0  0  0  0  0  0  0  0  0  0  0
   55.4548   22.3519   44.0388 H   0  0  0  0  0  0  0  0  0  0  0  0
   53.8523   24.1472   44.6832 H   0  0  0  0  0  0  0  0  0  0  0  0
   58.1598   28.0624   48.7159 H   0  0  0  0  0  0  0  0  0  0  0  0
  1  2  1  0
  2  3  2  0
  3  4  1  0
  4  5  2  0
  5  6  1  0
  6  7  1  0
  7  8  1  0
  8  9  1  0
  9 10  2  0
 10 11  1  0
 11 12  1  0
 12 13  2  0
  7 14  1  0
 14 15  1  0
 15 16  2  0
 16 17  1  0
 17 18  2  0
 18 19  1  0
 19 20  2  0
 20 21  1  0
  6 22  2  0
 22  2  1  0
 13  9  1  0
 20 15  1  0
  1 23  1  0
  1 24  1  0
  1 25  1  0
  3 26  1  0
  4 27  1  0
  5 28  1  0
  8 29  1  0
  8 30  1  0
 10 31  1  0
 12 32  1  0
 14 33  1  0
 14 34  1  0
 16 35  1  0
 17 36  1  0
 18 37  1  0
 19 38  1  0
 22 39  1  0
M  CHG  2  11  -1  21  -1
M  END
>  <UniqueID>  (48) 
42

>  <SMILES>  (48) 
Cc1cccc(N(Cc2c[n-]cn2)Cc2ccccc2[O-])c1

>  <Energy>  (48) 
75.99696626743693

>  <Genealogy>  (48) 
Cc1cccc(N(Cc2c[n-]cn2)Cc2ccccc2[O-])c1 (protonated)
Cc1cccc(N(Cc2c[n-]cn2)Cc2ccccc2[O-])c1 (3D coordinates assigned)
Cc1cccc(N(Cc2c[n-]cn2)Cc2ccccc2[O-])c1 (optimized conformer: 75.99696626743693 kcal/mol)

>  <smiles>  (48) 
Cc1cccc(N(Cc2c[nH]cn2)Cc2ccccc2O)c1

>  <score_type>  (48) 
oracle

>  <origin>  (48) 
adg

>  <m_score__min__energy>  (48) 
-11.970000000000001

>  <m_primary>  (48) 
energy

$$$$
48:0
     RDKit          3D

 51 54  0  0  0  0  0  0  0  0999 V2000
   54.7700   25.8760   45.1750 H   0  0  0  0  0  0  0  0  0  0  0  0
   55.4660   26.0030   45.9440 N   0  0  0  0  0  0  0  0  0  0  0  0
   56.2290   27.0450   45.9980 C   0  0  0  0  0  0  0  0  0  0  0  0
   57.3510   27.0200   46.7600 N   0  0  0  0  0  0  0  0  0  0  0  0
   58.1600   28.1090   46.8190 C   0  0  0  0  0  0  0  0  0  0  0  0
   59.4200   28.0760   47.6480 C   0  0  0  0  0  0  0  0  0  0  0  0
   59.1975   27.5726   48.6004 H   0  0  0  0  0  0  0  0  0  0  0  0
   60.1803   27.5395   47.0613 H   0  0  0  0  0  0  0  0  0  0  0  0
   59.9670   29.4240   47.9450 N   0  0  1  0  0  0  0  0  0  0  0  0
   59.1440   30.0640   48.0570 H   0  0  0  0  0  0  0  0  0  0  0  0
   60.6990   29.4680   49.2010 C   0  0  0  0  0  0  0  0  0  0  0  0
   60.3210   28.7580   50.1760 O   0  0  0  0  0  0  0  0  0  0  0  0
   61.8010   30.4430   49.4010 C   0  0  0  0  0  0  0  0  0  0  0  0
   62.5370   30.4730   50.5950 C   0  0  0  0  0  0  0  0  0  0  0  0
   62.3033   29.7581   51.3976 H   0  0  0  0  0  0  0  0  0  0  0  0
   63.5730   31.4110   50.7750 C   0  0  0  0  0  0  0  0  0  0  0  0
   64.3310   31.4650   51.9560 O   0  0  0  0  0  0  0  0  0  0  0  0
   64.0940   32.3710   53.0290 C   0  0  0  0  0  0  0  0  0  0  0  0
   64.2307   31.8483   53.9872 H   0  0  0  0  0  0  0  0  0  0  0  0
   64.8030   33.2095   52.9643 H   0  0  0  0  0  0  0  0  0  0  0  0
   63.0652   32.7549   52.9643 H   0  0  0  0  0  0  0  0  0  0  0  0
   63.8650   32.3280   49.7550 C   0  0  0  0  0  0  0  0  0  0  0  0
   64.8970   33.2540   49.9680 O   0  0  0  0  0  0  0  0  0  0  0  0
   66.2660   32.9100   50.1550 C   0  0  0  0  0  0  0  0  0  0  0  0
   66.4864   32.8546   51.2313 H   0  0  0  0  0  0  0  0  0  0  0  0
   66.4657   31.9338   49.6891 H   0  0  0  0  0  0  0  0  0  0  0  0
   66.9035   33.6759   49.6891 H   0  0  0  0  0  0  0  0  0  0  0  0
   63.1250   32.2970   48.5580 C   0  0  0  0  0  0  0  0  0  0  0  0
   63.3462   33.0223   47.7611 H   0  0  0  0  0  0  0  0  0  0  0  0
   62.1090   31.3500   48.3730 C   0  0  0  0  0  0  0  0  0  0  0  0
   61.3030   31.3450   47.1030 C   0  0  0  0  0  0  0  0  0  0  0  0
   61.9389   31.6736   46.2678 H   0  0  0  0  0  0  0  0  0  0  0  0
   60.4494   32.0294   47.2169 H   0  0  0  0  0  0  0  0  0  0  0  0
   60.7780   29.9340   46.8150 C   0  0  0  0  0  0  0  0  0  0  0  0
   61.6317   29.2596   46.6527 H   0  0  0  0  0  0  0  0  0  0  0  0
   60.1409   29.9751   45.9192 H   0  0  0  0  0  0  0  0  0  0  0  0
   57.8420   29.2210   46.1110 N   0  0  0  0  0  0  0  0  0  0  0  0
   56.7150   29.2570   45.3500 C   0  0  0  0  0  0  0  0  0  0  0  0
   56.4130   30.3040   44.6390 N   0  0  0  0  0  0  0  0  0  0  0  0
   57.1790   31.5150   44.5180 C   0  0  0  0  0  0  0  0  0  0  0  0
   57.7480   31.9230   43.2950 C   0  0  0  0  0  0  0  0  0  0  0  0
   57.5925   31.3180   42.3896 H   0  0  0  0  0  0  0  0  0  0  0  0
   58.5090   33.0930   43.2280 C   0  0  0  0  0  0  0  0  0  0  0  0
   58.9388   33.4144   42.2678 H   0  0  0  0  0  0  0  0  0  0  0  0
   58.7250   33.8560   44.3800 C   0  0  0  0  0  0  0  0  0  0  0  0
   59.3148   34.7828   44.3239 H   0  0  0  0  0  0  0  0  0  0  0  0
   58.1910   33.4400   45.6020 C   0  0  0  0  0  0  0  0  0  0  0  0
   58.3703   34.0338   46.5104 H   0  0  0  0  0  0  0  0  0  0  0  0
   57.4290   32.2700   45.6720 C   0  0  0  0  0  0  0  0  0  0  0  0
   57.0229   31.9397   46.6395 H   0  0  0  0  0  0  0  0  0  0  0  0
   55.9160   28.1620   45.2900 N   0  0  0  0  0  0  0  0  0  0  0  0
  1  2  1  0
  2  3  2  0
  3  4  1  0
  4  5  1  0
  5  6  1  0
  6  7  1  0
  6  8  1  0
  6  9  1  0
  9 10  1  1
  9 11  1  0
 11 12  2  0
 11 13  1  0
 13 14  2  0
 14 15  1  0
 14 16  1  0
 16 17  1  0
 17 18  1  0
 18 19  1  0
 18 20  1  0
 18 21  1  0
 16 22  2  0
 22 23  1  0
 23 24  1  0
 24 25  1  0
 24 26  1  0
 24 27  1  0
 22 28  1  0
 28 29  1  0
 28 30  2  0
 30 31  1  0
 31 32  1  0
 31 33  1  0
 31 34  1  0
 34 35  1  0
 34 36  1  0
  5 37  2  0
 37 38  1  0
 38 39  2  3
 39 40  1  0
 40 41  2  0
 41 42  1  0
 41 43  1  0
 43 44  1  0
 43 45  2  0
 45 46  1  0
 45 47  1  0
 47 48  1  0
 47 49  2  0
 49 50  1  0
 38 51  1  0
 51  3  1  0
 34  9  1  0
 49 40  1  0
 30 13  1  0
M  CHG  3   4  -1   9   1  51  -1
M  END
>  <UniqueID>  (49) 
43

>  <SMILES>  (49) 
[H]/N=c1/[n-]c(C[N@@H+]2CCc3cc(OC)c(OC)cc3C2=O)nc(=Nc2ccccc2)[n-]1

>  <Energy>  (49) 
67.2583974482304

>  <Genealogy>  (49) 
COc1cc2c(cc1OC)C(=O)[NH+](Cc1nc(=Nc3ccccc3)[n-]c(=N)[n-]1)CC2 (protonated)
COc1cc2c(cc1OC)C(=O)[N@H+](Cc1nc(=Nc3ccccc3)[n-]c(=N)[n-]1)CC2 (chirality)
[H]/N=c1/[n-]c(C[N@@H+]2CCc3cc(OC)c(OC)cc3C2=O)nc(=Nc2ccccc2)[n-]1 (cis-trans isomerization)
[H]/N=c1/[n-]c(C[N@@H+]2CCc3cc(OC)c(OC)cc3C2=O)nc(=Nc2ccccc2)[n-]1 (3D coordinates assigned)
[H]/N=c1/[n-]c(C[N@@H+]2CCc3cc(OC)c(OC)cc3C2=O)nc(=Nc2ccccc2)[n-]1 (nonaromatic ring conformer: 67.2583974482304 kcal/mol)

>  <smiles>  (49) 
COc1cc2c(cc1OC)C(=O)N(Cc1nc(=Nc3ccccc3)[nH]c(=N)[nH]1)CC2

>  <score_type>  (49) 
oracle

>  <origin>  (49) 
adg

>  <m_score__min__energy>  (49) 
-9.8000000000000007

>  <m_primary>  (49) 
energy

$$$$
49:0
     RDKit          3D

 40 41  0  0  0  0  0  0  0  0999 V2000
   57.8870   32.3500   41.0470 C   0  0  0  0  0  0  0  0  0  0  0  0
   57.7520   32.1180   42.5220 C   0  0  0  0  0  0  0  0  0  0  0  0
   58.1610   33.1010   43.4360 C   0  0  0  0  0  0  0  0  0  0  0  0
   58.0050   32.8960   44.8150 C   0  0  0  0  0  0  0  0  0  0  0  0
   58.5050   33.9200   45.7920 C   0  0  0  0  0  0  0  0  0  0  0  0
   57.4440   31.6970   45.2780 C   0  0  0  0  0  0  0  0  0  0  0  0
   56.9940   30.7260   44.3710 C   0  0  0  0  0  0  0  0  0  0  0  0
   56.3920   29.4660   44.8520 C   0  0  0  0  0  0  0  0  0  0  0  0
   55.1400   29.3410   44.8350 O   0  0  0  0  0  0  0  0  0  0  0  0
   57.1850   28.3920   45.3720 N   0  0  0  0  0  0  0  0  0  0  0  0
   58.5910   28.1680   45.0570 C   0  0  0  0  0  0  0  0  0  0  0  0
   59.4280   28.5950   46.2200 C   0  0  0  0  0  0  0  0  0  0  0  0
   60.6780   28.4390   46.1760 O   0  0  0  0  0  0  0  0  0  0  0  0
   58.8130   29.2140   47.3580 N   0  0  0  0  0  0  0  0  0  0  0  0
   59.5880   29.7250   48.4860 C   0  0  0  0  0  0  0  0  0  0  0  0
   60.0360   31.1350   48.2140 C   0  0  0  0  0  0  0  0  0  0  0  0
   61.0680   31.3800   47.2960 C   0  0  0  0  0  0  0  0  0  0  0  0
   61.4900   32.6920   47.0710 C   0  0  0  0  0  0  0  0  0  0  0  0
   60.9060   33.7210   47.7400 N   0  0  0  0  0  0  0  0  0  0  0  0
   59.9070   33.5120   48.6390 C   0  0  0  0  0  0  0  0  0  0  0  0
   59.4550   32.2150   48.8950 C   0  0  0  0  0  0  0  0  0  0  0  0
   57.1600   30.9380   42.9940 C   0  0  0  0  0  0  0  0  0  0  0  0
   58.4332   33.2886   40.8719 H   0  0  0  0  0  0  0  0  0  0  0  0
   58.4397   31.5141   40.5934 H   0  0  0  0  0  0  0  0  0  0  0  0
   56.8871   32.4175   40.5934 H   0  0  0  0  0  0  0  0  0  0  0  0
   58.6064   34.0375   43.0692 H   0  0  0  0  0  0  0  0  0  0  0  0
   58.3310   33.5636   46.8180 H   0  0  0  0  0  0  0  0  0  0  0  0
   59.5823   34.0793   45.6370 H   0  0  0  0  0  0  0  0  0  0  0  0
   57.9682   34.8675   45.6370 H   0  0  0  0  0  0  0  0  0  0  0  0
   57.3562   31.5167   46.3596 H   0  0  0  0  0  0  0  0  0  0  0  0
   58.7576   27.0994   44.8561 H   0  0  0  0  0  0  0  0  0  0  0  0
   58.8685   28.7519   44.1670 H   0  0  0  0  0  0  0  0  0  0  0  0
   57.7720   29.3090   47.3850 H   0  0  0  0  0  0  0  0  0  0  0  0
   58.9638   29.7107   49.3916 H   0  0  0  0  0  0  0  0  0  0  0  0
   60.4739   29.0889   48.6296 H   0  0  0  0  0  0  0  0  0  0  0  0
   61.5410   30.5454   46.7577 H   0  0  0  0  0  0  0  0  0  0  0  0
   62.2968   32.8932   46.3508 H   0  0  0  0  0  0  0  0  0  0  0  0
   59.4543   34.3653   49.1653 H   0  0  0  0  0  0  0  0  0  0  0  0
   58.6501   32.0422   49.6246 H   0  0  0  0  0  0  0  0  0  0  0  0
   56.8231   30.1726   42.2794 H   0  0  0  0  0  0  0  0  0  0  0  0
  1  2  1  0
  2  3  2  0
  3  4  1  0
  4  5  1  0
  4  6  2  0
  6  7  1  0
  7  8  1  0
  8  9  2  0
  8 10  1  0
 10 11  1  0
 11 12  1  0
 12 13  2  0
 12 14  1  0
 14 15  1  0
 15 16  1  0
 16 17  2  0
 17 18  1  0
 18 19  2  0
 19 20  1  0
 20 21  2  0
  7 22  2  0
 22  2  1  0
 21 16  1  0
  1 23  1  0
  1 24  1  0
  1 25  1  0
  3 26  1  0
  5 27  1  0
  5 28  1  0
  5 29  1  0
  6 30  1  0
 11 31  1  0
 11 32  1  0
 14 33  1  0
 15 34  1  0
 15 35  1  0
 17 36  1  0
 18 37  1  0
 20 38  1  0
 21 39  1  0
 22 40  1  0
M  CHG  1  10  -1
M  END
>  <UniqueID>  (50) 
44

>  <SMILES>  (50) 
Cc1cc(C)cc(C(=O)[N-]CC(=O)NCc2ccncc2)c1

>  <Energy>  (50) 
38.887237414072594

>  <Genealogy>  (50) 
Cc1cc(C)cc(C(=O)[N-]CC(=O)NCc2ccncc2)c1 (protonated)
Cc1cc(C)cc(C(=O)[N-]CC(=O)NCc2ccncc2)c1 (3D coordinates assigned)
Cc1cc(C)cc(C(=O)[N-]CC(=O)NCc2ccncc2)c1 (optimized conformer: 38.887237414072594 kcal/mol)

>  <smiles>  (50) 
Cc1cc(C)cc(C(=O)NCC(=O)NCc2ccncc2)c1

>  <score_type>  (50) 
oracle

>  <origin>  (50) 
adg

>  <m_score__min__energy>  (50) 
-10.31

>  <m_primary>  (50) 
energy

$$$$
50:0
     RDKit          3D

 53 55  0  0  0  0  0  0  0  0999 V2000
   58.0480   31.7780   51.4340 C   0  0  0  0  0  0  0  0  0  0  0  0
   59.0740   32.5410   50.1950 S   0  0  0  0  0  0  0  0  0  0  0  0
   58.4020   32.4360   48.8550 O   0  0  0  0  0  0  0  0  0  0  0  0
   59.2430   33.9930   50.5390 O   0  0  0  0  0  0  0  0  0  0  0  0
   60.6270   31.7640   50.1220 N   0  0  0  0  0  0  0  0  0  0  0  0
   61.0010   30.7500   51.1120 C   0  0  0  0  0  0  0  0  0  0  0  0
   60.6160   29.3670   50.6510 C   0  0  0  0  0  0  0  0  0  0  0  0
   61.2800   28.3680   51.0350 O   0  0  0  0  0  0  0  0  0  0  0  0
   59.4290   29.1470   49.8800 N   0  0  0  0  0  0  0  0  0  0  0  0
   59.4100   28.8230   48.4870 C   0  0  0  0  0  0  0  0  0  0  0  0
   58.7010   29.6480   47.6050 C   0  0  0  0  0  0  0  0  0  0  0  0
   58.6450   29.3450   46.2390 C   0  0  0  0  0  0  0  0  0  0  0  0
   57.7630   30.4010   45.1330 S   0  0  0  0  0  0  0  0  0  0  0  0
   58.3310   30.2480   43.7490 O   0  0  0  0  0  0  0  0  0  0  0  0
   56.3190   29.9780   45.0920 O   0  0  0  0  0  0  0  0  0  0  0  0
   57.8590   32.0760   45.6160 N   0  0  0  0  0  0  0  0  0  0  0  0
   59.2380   32.4220   46.0050 C   0  0  0  0  0  0  0  0  0  0  0  0
   59.3830   33.9460   46.1980 C   0  0  0  0  0  0  0  0  0  0  0  0
   58.1180   34.5780   46.2390 O   0  0  0  0  0  0  0  0  0  0  0  0
   57.4610   34.4260   44.9910 C   0  0  0  0  0  0  0  0  0  0  0  0
   57.4060   32.9550   44.5290 C   0  0  0  0  0  0  0  0  0  0  0  0
   59.2940   28.2000   45.7580 C   0  0  0  0  0  0  0  0  0  0  0  0
   59.9800   27.3600   46.6360 C   0  0  0  0  0  0  0  0  0  0  0  0
   60.0300   27.6590   48.0040 C   0  0  0  0  0  0  0  0  0  0  0  0
   60.6770   26.7940   48.8860 O   0  0  0  0  0  0  0  0  0  0  0  0
   61.5600   32.1480   49.1040 C   0  0  0  0  0  0  0  0  0  0  0  0
   61.9650   31.2270   48.1270 C   0  0  0  0  0  0  0  0  0  0  0  0
   62.8830   31.6060   47.1430 C   0  0  0  0  0  0  0  0  0  0  0  0
   63.4020   32.9060   47.1330 C   0  0  0  0  0  0  0  0  0  0  0  0
   63.0070   33.8260   48.1080 C   0  0  0  0  0  0  0  0  0  0  0  0
   62.0900   33.4480   49.0930 C   0  0  0  0  0  0  0  0  0  0  0  0
   58.4158   32.0515   52.4339 H   0  0  0  0  0  0  0  0  0  0  0  0
   57.0112   32.1262   51.3168 H   0  0  0  0  0  0  0  0  0  0  0  0
   58.0831   30.6848   51.3168 H   0  0  0  0  0  0  0  0  0  0  0  0
   62.0893   30.7858   51.2682 H   0  0  0  0  0  0  0  0  0  0  0  0
   60.4664   30.9653   52.0489 H   0  0  0  0  0  0  0  0  0  0  0  0
   58.1844   30.5404   47.9880 H   0  0  0  0  0  0  0  0  0  0  0  0
   59.4858   31.9132   46.9483 H   0  0  0  0  0  0  0  0  0  0  0  0
   59.9226   32.0994   45.2067 H   0  0  0  0  0  0  0  0  0  0  0  0
   59.9118   34.1395   47.1429 H   0  0  0  0  0  0  0  0  0  0  0  0
   59.9489   34.3531   45.3471 H   0  0  0  0  0  0  0  0  0  0  0  0
   56.4327   34.8052   45.0849 H   0  0  0  0  0  0  0  0  0  0  0  0
   58.0329   34.9914   44.2405 H   0  0  0  0  0  0  0  0  0  0  0  0
   56.3723   32.6960   44.2563 H   0  0  0  0  0  0  0  0  0  0  0  0
   58.0629   32.8229   43.6566 H   0  0  0  0  0  0  0  0  0  0  0  0
   59.2626   27.9625   44.6844 H   0  0  0  0  0  0  0  0  0  0  0  0
   60.4832   26.4600   46.2529 H   0  0  0  0  0  0  0  0  0  0  0  0
   60.8040   27.0290   49.8630 H   0  0  0  0  0  0  0  0  0  0  0  0
   61.5596   30.2045   48.1349 H   0  0  0  0  0  0  0  0  0  0  0  0
   63.1975   30.8825   46.3765 H   0  0  0  0  0  0  0  0  0  0  0  0
   64.1219   33.2039   46.3565 H   0  0  0  0  0  0  0  0  0  0  0  0
   63.4173   34.8466   48.1003 H   0  0  0  0  0  0  0  0  0  0  0  0
   61.7826   34.1717   49.8622 H   0  0  0  0  0  0  0  0  0  0  0  0
  1  2  1  0
  2  3  2  0
  2  4  2  0
  2  5  1  0
  5  6  1  0
  6  7  1  0
  7  8  2  0
  7  9  1  0
  9 10  1  0
 10 11  2  0
 11 12  1  0
 12 13  1  0
 13 14  2  0
 13 15  2  0
 13 16  1  0
 16 17  1  0
 17 18  1  0
 18 19  1  0
 19 20  1  0
 20 21  1  0
 12 22  2  0
 22 23  1  0
 23 24  2  0
 24 25  1  0
  5 26  1  0
 26 27  2  0
 27 28  1  0
 28 29  2  0
 29 30  1  0
 30 31  2  0
 24 10  1  0
 31 26  1  0
 21 16  1  0
  1 32  1  0
  1 33  1  0
  1 34  1  0
  6 35  1  0
  6 36  1  0
 11 37  1  0
 17 38  1  0
 17 39  1  0
 18 40  1  0
 18 41  1  0
 20 42  1  0
 20 43  1  0
 21 44  1  0
 21 45  1  0
 22 46  1  0
 23 47  1  0
 25 48  1  0
 27 49  1  0
 28 50  1  0
 29 51  1  0
 30 52  1  0
 31 53  1  0
M  CHG  1   9  -1
M  END
>  <UniqueID>  (51) 
45

>  <SMILES>  (51) 
CS(=O)(=O)N(CC(=O)[N-]c1cc(S(=O)(=O)N2CCOCC2)ccc1O)c1ccccc1

>  <Energy>  (51) 
69.9024144487522

>  <Genealogy>  (51) 
CS(=O)(=O)N(CC(=O)[N-]c1cc(S(=O)(=O)N2CCOCC2)ccc1O)c1ccccc1 (protonated)
CS(=O)(=O)N(CC(=O)[N-]c1cc(S(=O)(=O)N2CCOCC2)ccc1O)c1ccccc1 (3D coordinates assigned)
CS(=O)(=O)N(CC(=O)[N-]c1cc(S(=O)(=O)N2CCOCC2)ccc1O)c1ccccc1 (nonaromatic ring conformer: 69.9024144487522 kcal/mol)

>  <smiles>  (51) 
CS(=O)(=O)N(CC(=O)Nc1cc(S(=O)(=O)N2CCOCC2)ccc1O)c1ccccc1

>  <score_type>  (51) 
oracle

>  <origin>  (51) 
adg

>  <m_score__min__energy>  (51) 
-10.390000000000001

>  <m_primary>  (51) 
energy

$$$$
51:0
     RDKit          3D

 68 72  0  0  0  0  0  0  0  0999 V2000
   57.4049   33.9116   43.9765 H   0  0  0  0  0  0  0  0  0  0  0  0
   57.8950   33.8620   44.9600 C   0  0  0  0  0  0  0  0  0  0  0  0
   57.1610   33.4930   46.0850 C   0  0  0  0  0  0  0  0  0  0  0  0
   56.0913   33.2555   45.9886 H   0  0  0  0  0  0  0  0  0  0  0  0
   57.7790   33.4240   47.3330 C   0  0  0  0  0  0  0  0  0  0  0  0
   57.1930   33.1311   48.2166 H   0  0  0  0  0  0  0  0  0  0  0  0
   59.1460   33.7260   47.4710 C   0  0  0  0  0  0  0  0  0  0  0  0
   59.8010   33.6180   48.8320 C   0  0  0  0  0  0  0  0  0  0  0  0
   60.8858   33.4915   48.7007 H   0  0  0  0  0  0  0  0  0  0  0  0
   59.5874   34.5361   49.3989 H   0  0  0  0  0  0  0  0  0  0  0  0
   59.2650   32.4600   49.5860 N   0  0  0  0  0  0  0  0  0  0  0  0
   58.7340   32.6540   50.8390 C   0  0  0  0  0  0  0  0  0  0  0  0
   58.7470   33.8090   51.3510 O   0  0  0  0  0  0  0  0  0  0  0  0
   58.1900   31.6070   51.5400 N   0  0  0  0  0  0  0  0  0  0  0  0
   57.6450   31.8100   52.8990 C   0  0  0  0  0  0  0  0  0  0  0  0
   58.3497   31.3992   53.6370 H   0  0  0  0  0  0  0  0  0  0  0  0
   57.5042   32.8876   53.0693 H   0  0  0  0  0  0  0  0  0  0  0  0
   56.3150   31.1150   53.0420 C   0  0  0  0  0  0  0  0  0  0  0  0
   56.0590   30.2930   54.1550 C   0  0  0  0  0  0  0  0  0  0  0  0
   56.8240   30.1776   54.9369 H   0  0  0  0  0  0  0  0  0  0  0  0
   54.8380   29.6220   54.2730 C   0  0  0  0  0  0  0  0  0  0  0  0
   54.6431   28.9824   55.1465 H   0  0  0  0  0  0  0  0  0  0  0  0
   53.8660   29.7650   53.2800 C   0  0  0  0  0  0  0  0  0  0  0  0
   54.1250   30.5550   52.1530 C   0  0  0  0  0  0  0  0  0  0  0  0
   55.3380   31.2400   52.0390 C   0  0  0  0  0  0  0  0  0  0  0  0
   55.5284   31.8778   51.1632 H   0  0  0  0  0  0  0  0  0  0  0  0
   53.1540   30.6460   51.1490 O   0  0  0  0  0  0  0  0  0  0  0  0
   52.0440   29.7460   51.1130 C   0  0  0  0  0  0  0  0  0  0  0  0
   51.2338   30.1923   50.5176 H   0  0  0  0  0  0  0  0  0  0  0  0
   52.3662   28.7975   50.6585 H   0  0  0  0  0  0  0  0  0  0  0  0
   51.5360   29.4720   52.5350 C   0  0  0  0  0  0  0  0  0  0  0  0
   51.0419   30.3744   52.9244 H   0  0  0  0  0  0  0  0  0  0  0  0
   50.8222   28.6356   52.5059 H   0  0  0  0  0  0  0  0  0  0  0  0
   52.6280   29.1240   53.3920 O   0  0  0  0  0  0  0  0  0  0  0  0
   58.1980   30.3610   50.9810 C   0  0  0  0  0  0  0  0  0  0  0  0
   57.7070   29.3720   51.5910 O   0  0  0  0  0  0  0  0  0  0  0  0
   58.7370   30.1690   49.7590 N   0  0  0  0  0  0  0  0  0  0  0  0
   59.2680   31.1950   49.0520 C   0  0  0  0  0  0  0  0  0  0  0  0
   59.8210   30.9700   47.8910 N   0  0  0  0  0  0  0  0  0  0  0  0
   59.4310   29.9800   46.9250 C   0  0  0  0  0  0  0  0  0  0  0  0
   60.2040   28.8210   46.8010 C   0  0  0  0  0  0  0  0  0  0  0  0
   61.0697   28.6683   47.4623 H   0  0  0  0  0  0  0  0  0  0  0  0
   59.8840   27.8560   45.8430 C   0  0  0  0  0  0  0  0  0  0  0  0
   60.4820   26.9355   45.7721 H   0  0  0  0  0  0  0  0  0  0  0  0
   58.8060   28.0550   44.9730 C   0  0  0  0  0  0  0  0  0  0  0  0
   58.5110   27.0770   44.0200 O   0  0  0  0  0  0  0  0  0  0  0  0
   57.6180   25.9950   44.2830 C   0  0  0  0  0  0  0  0  0  0  0  0
   56.6440   26.3885   44.6093 H   0  0  0  0  0  0  0  0  0  0  0  0
   57.3970   25.1730   43.0100 C   0  0  0  0  0  0  0  0  0  0  0  0
   57.1202   24.1436   43.2817 H   0  0  0  0  0  0  0  0  0  0  0  0
   56.5887   25.6257   42.4170 H   0  0  0  0  0  0  0  0  0  0  0  0
   58.3233   25.1593   42.4170 H   0  0  0  0  0  0  0  0  0  0  0  0
   58.2040   25.1240   45.3900 C   0  0  0  0  0  0  0  0  0  0  0  0
   57.9248   25.5390   46.3697 H   0  0  0  0  0  0  0  0  0  0  0  0
   57.8097   24.1011   45.2992 H   0  0  0  0  0  0  0  0  0  0  0  0
   59.3001   25.1038   45.2992 H   0  0  0  0  0  0  0  0  0  0  0  0
   58.0330   29.2250   45.0800 C   0  0  0  0  0  0  0  0  0  0  0  0
   56.6390   29.4870   44.0440 Cl  0  0  0  0  0  0  0  0  0  0  0  0
   58.3560   30.1880   46.0420 C   0  0  0  0  0  0  0  0  0  0  0  0
   57.7656   31.1137   46.1083 H   0  0  0  0  0  0  0  0  0  0  0  0
   59.8910   34.1080   46.3330 C   0  0  0  0  0  0  0  0  0  0  0  0
   61.2520   34.4220   46.4810 O   0  0  0  0  0  0  0  0  0  0  0  0
   62.2890   33.4660   46.6770 C   0  0  0  0  0  0  0  0  0  0  0  0
   62.4511   33.3166   47.7547 H   0  0  0  0  0  0  0  0  0  0  0  0
   61.9997   32.5111   46.2139 H   0  0  0  0  0  0  0  0  0  0  0  0
   63.2173   33.8318   46.2139 H   0  0  0  0  0  0  0  0  0  0  0  0
   59.2520   34.1690   45.0790 C   0  0  0  0  0  0  0  0  0  0  0  0
   59.8261   34.4606   44.1872 H   0  0  0  0  0  0  0  0  0  0  0  0
  1  2  1  0
  2  3  2  0
  3  4  1  0
  3  5  1  0
  5  6  1  0
  5  7  2  0
  7  8  1  0
  8  9  1  0
  8 10  1  0
  8 11  1  0
 11 12  1  0
 12 13  2  0
 12 14  1  0
 14 15  1  0
 15 16  1  0
 15 17  1  0
 15 18  1  0
 18 19  2  0
 19 20  1  0
 19 21  1  0
 21 22  1  0
 21 23  2  0
 23 24  1  0
 24 25  2  0
 25 26  1  0
 24 27  1  0
 27 28  1  0
 28 29  1  0
 28 30  1  0
 28 31  1  0
 31 32  1  0
 31 33  1  0
 31 34  1  0
 14 35  1  0
 35 36  2  0
 35 37  1  0
 37 38  1  0
 38 39  2  0
 39 40  1  0
 40 41  2  0
 41 42  1  0
 41 43  1  0
 43 44  1  0
 43 45  2  0
 45 46  1  0
 46 47  1  0
 47 48  1  0
 47 49  1  0
 49 50  1  0
 49 51  1  0
 49 52  1  0
 47 53  1  0
 53 54  1  0
 53 55  1  0
 53 56  1  0
 45 57  1  0
 57 58  1  0
 57 59  2  0
 59 60  1  0
  7 61  1  0
 61 62  1  0
 62 63  1  0
 63 64  1  0
 63 65  1  0
 63 66  1  0
 61 67  2  0
 67 68  1  0
 67  2  1  0
 38 11  1  0
 59 40  1  0
 25 18  1  0
 34 23  1  0
M  CHG  1  37  -1
M  END
>  <UniqueID>  (52) 
46

>  <SMILES>  (52) 
COc1ccccc1Cn1c(=O)n(Cc2ccc3c(c2)OCCO3)c(=O)[n-]/c1=N\c1ccc(OC(C)C)c(Cl)c1

>  <Energy>  (52) 
88.50657363425954

>  <Genealogy>  (52) 
COc1ccccc1Cn1c(=Nc2ccc(OC(C)C)c(Cl)c2)[n-]c(=O)n(Cc2ccc3c(c2)OCCO3)c1=O (protonated)
COc1ccccc1Cn1c(=O)n(Cc2ccc3c(c2)OCCO3)c(=O)[n-]/c1=N\c1ccc(OC(C)C)c(Cl)c1 (cis-trans isomerization)
COc1ccccc1Cn1c(=O)n(Cc2ccc3c(c2)OCCO3)c(=O)[n-]/c1=N\c1ccc(OC(C)C)c(Cl)c1 (3D coordinates assigned)
COc1ccccc1Cn1c(=O)n(Cc2ccc3c(c2)OCCO3)c(=O)[n-]/c1=N\c1ccc(OC(C)C)c(Cl)c1 (nonaromatic ring conformer: 88.50657363425954 kcal/mol)

>  <smiles>  (52) 
COc1ccccc1Cn1c(=Nc2ccc(OC(C)C)c(Cl)c2)[nH]c(=O)n(Cc2ccc3c(c2)OCCO3)c1=O

>  <score_type>  (52) 
oracle

>  <origin>  (52) 
adg

>  <m_score__min__energy>  (52) 
-10.109999999999999

>  <m_primary>  (52) 
energy

$$$$
52:0
     RDKit          3D

 41 43  0  0  0  0  0  0  0  0999 V2000
   55.4430   29.2910   44.7210 N   0  0  0  0  0  0  0  0  0  0  0  0
   56.6460   29.7280   44.8400 C   0  0  0  0  0  0  0  0  0  0  0  0
   56.7700   31.0470   45.1280 N   0  0  0  0  0  0  0  0  0  0  0  0
   57.9690   31.6220   45.3080 C   0  0  0  0  0  0  0  0  0  0  0  0
   58.1310   33.3610   45.6840 S   0  0  0  0  0  0  0  0  0  0  0  0
   58.7930   33.6220   47.3420 C   0  0  0  0  0  0  0  0  0  0  0  0
   60.2040   33.2180   47.3700 C   0  0  0  0  0  0  0  0  0  0  0  0
   60.5230   32.0670   48.0880 C   0  0  0  0  0  0  0  0  0  0  0  0
   61.8340   31.6350   48.1510 C   0  0  0  0  0  0  0  0  0  0  0  0
   62.8310   32.3590   47.4940 C   0  0  0  0  0  0  0  0  0  0  0  0
   62.4740   33.5020   46.7870 C   0  0  0  0  0  0  0  0  0  0  0  0
   61.1710   33.9460   46.7130 C   0  0  0  0  0  0  0  0  0  0  0  0
   60.7980   35.0530   46.0340 F   0  0  0  0  0  0  0  0  0  0  0  0
   59.0480   30.8350   45.1930 N   0  0  0  0  0  0  0  0  0  0  0  0
   58.9800   29.5100   44.9080 C   0  0  0  0  0  0  0  0  0  0  0  0
   60.2300   28.7880   44.8600 C   0  0  0  0  0  0  0  0  0  0  0  0
   61.3460   29.2080   45.2260 O   0  0  0  0  0  0  0  0  0  0  0  0
   57.7690   28.9020   44.7170 C   0  0  0  0  0  0  0  0  0  0  0  0
   57.5390   27.5630   44.3910 N   0  0  0  0  0  0  0  0  0  0  0  0
   57.4810   26.4460   45.2510 C   0  0  0  0  0  0  0  0  0  0  0  0
   58.6100   25.6560   45.4930 C   0  0  0  0  0  0  0  0  0  0  0  0
   58.6120   24.5540   46.3040 C   0  0  0  0  0  0  0  0  0  0  0  0
   57.4630   24.1540   46.9470 C   0  0  0  0  0  0  0  0  0  0  0  0
   56.3320   24.9000   46.7380 C   0  0  0  0  0  0  0  0  0  0  0  0
   56.3320   26.0300   45.9050 C   0  0  0  0  0  0  0  0  0  0  0  0
   55.1290   26.6790   45.7880 O   0  0  0  0  0  0  0  0  0  0  0  0
   55.1460   28.4490   45.2420 H   0  0  0  0  0  0  0  0  0  0  0  0
   58.7101   34.6863   47.6074 H   0  0  0  0  0  0  0  0  0  0  0  0
   58.2230   33.0205   48.0654 H   0  0  0  0  0  0  0  0  0  0  0  0
   59.7320   31.5030   48.6040 H   0  0  0  0  0  0  0  0  0  0  0  0
   62.0907   30.7263   48.7153 H   0  0  0  0  0  0  0  0  0  0  0  0
   63.8802   32.0310   47.5350 H   0  0  0  0  0  0  0  0  0  0  0  0
   63.2590   34.0720   46.2685 H   0  0  0  0  0  0  0  0  0  0  0  0
   59.9800   31.3210   45.3430 H   0  0  0  0  0  0  0  0  0  0  0  0
   60.1942   27.7639   44.4601 H   0  0  0  0  0  0  0  0  0  0  0  0
   57.3880   27.3510   43.3620 H   0  0  0  0  0  0  0  0  0  0  0  0
   59.5530   25.9378   45.0016 H   0  0  0  0  0  0  0  0  0  0  0  0
   59.5413   23.9821   46.4434 H   0  0  0  0  0  0  0  0  0  0  0  0
   57.4525   23.2708   47.6026 H   0  0  0  0  0  0  0  0  0  0  0  0
   55.3975   24.6046   47.2374 H   0  0  0  0  0  0  0  0  0  0  0  0
   54.7920   27.1520   44.9700 H   0  0  0  0  0  0  0  0  0  0  0  0
  1  2  2  3
  2  3  1  0
  3  4  2  0
  4  5  1  0
  5  6  1  0
  6  7  1  0
  7  8  2  0
  8  9  1  0
  9 10  2  0
 10 11  1  0
 11 12  2  0
 12 13  1  0
  4 14  1  0
 14 15  1  0
 15 16  1  0
 16 17  2  0
 15 18  2  0
 18 19  1  0
 19 20  1  0
 20 21  2  0
 21 22  1  0
 22 23  2  0
 23 24  1  0
 24 25  2  0
 25 26  1  0
 18  2  1  0
 25 20  1  0
 12  7  1  0
  1 27  1  0
  6 28  1  0
  6 29  1  0
  8 30  1  0
  9 31  1  0
 10 32  1  0
 11 33  1  0
 14 34  1  0
 16 35  1  0
 19 36  1  0
 21 37  1  0
 22 38  1  0
 23 39  1  0
 24 40  1  0
 26 41  1  0
M  END
>  <smiles>  (53) 
N=c1nc(SCc2ccccc2F)[nH]c(C=O)c1Nc1ccccc1O

>  <score_type>  (53) 
oracle

>  <origin>  (53) 
adg

>  <m_score__min__energy>  (53) 
-10.210000000000001

>  <m_primary>  (53) 
energy

$$$$
53:0
     RDKit          3D

 30 32  0  0  0  0  0  0  0  0999 V2000
   59.5154   35.6458   44.0987 H   0  0  0  0  0  0  0  0  0  0  0  0
   59.2150   34.9160   44.8650 C   0  0  0  0  0  0  0  0  0  0  0  0
   59.7180   35.0110   46.1210 N   0  0  0  0  0  0  0  0  0  0  0  0
   59.3790   34.1300   47.0970 C   0  0  0  0  0  0  0  0  0  0  0  0
   59.9350   34.2650   48.3710 C   0  0  0  0  0  0  0  0  0  0  0  0
   60.6405   35.0837   48.5761 H   0  0  0  0  0  0  0  0  0  0  0  0
   59.6000   33.3660   49.3860 C   0  0  0  0  0  0  0  0  0  0  0  0
   60.0477   33.4793   50.3844 H   0  0  0  0  0  0  0  0  0  0  0  0
   58.6960   32.3180   49.1430 C   0  0  0  0  0  0  0  0  0  0  0  0
   58.3390   31.3540   50.2130 C   0  0  0  0  0  0  0  0  0  0  0  0
   59.0310   30.3110   50.3710 O   0  0  0  0  0  0  0  0  0  0  0  0
   57.2130   31.5690   51.0680 N   0  0  0  0  0  0  0  0  0  0  0  0
   56.5200   32.3260   50.8830 H   0  0  0  0  0  0  0  0  0  0  0  0
   57.0190   30.9060   51.8500 H   0  0  0  0  0  0  0  0  0  0  0  0
   58.1440   32.1750   47.8560 C   0  0  0  0  0  0  0  0  0  0  0  0
   57.4461   31.3492   47.6535 H   0  0  0  0  0  0  0  0  0  0  0  0
   58.4740   33.0770   46.8220 C   0  0  0  0  0  0  0  0  0  0  0  0
   57.9190   32.9680   45.5230 C   0  0  0  0  0  0  0  0  0  0  0  0
   57.0870   31.9920   45.2630 N   0  0  0  0  0  0  0  0  0  0  0  0
   57.3360   30.5790   45.2290 C   0  0  0  0  0  0  0  0  0  0  0  0
   56.3280   29.6830   45.4130 N   0  0  0  0  0  0  0  0  0  0  0  0
   56.5740   28.3480   45.4480 C   0  0  0  0  0  0  0  0  0  0  0  0
   55.5240   27.4560   45.6210 O   0  0  0  0  0  0  0  0  0  0  0  0
   57.8790   27.8770   45.3150 C   0  0  0  0  0  0  0  0  0  0  0  0
   58.0938   26.7984   45.3340 H   0  0  0  0  0  0  0  0  0  0  0  0
   58.9070   28.8090   45.1570 C   0  0  0  0  0  0  0  0  0  0  0  0
   60.4600   28.3160   45.0170 S   0  0  0  0  0  0  0  0  0  0  0  0
   58.6170   30.1360   45.1280 N   0  0  0  0  0  0  0  0  0  0  0  0
   58.3190   33.8980   44.5400 C   0  0  0  0  0  0  0  0  0  0  0  0
   57.9237   33.8199   43.5165 H   0  0  0  0  0  0  0  0  0  0  0  0
  1  2  1  0
  2  3  1  0
  3  4  1  0
  4  5  2  0
  5  6  1  0
  5  7  1  0
  7  8  1  0
  7  9  2  0
  9 10  1  0
 10 11  2  0
 10 12  1  0
 12 13  1  0
 12 14  1  0
  9 15  1  0
 15 16  1  0
 15 17  2  0
 17 18  1  0
 18 19  2  0
 19 20  1  0
 20 21  2  0
 21 22  1  0
 22 23  1  0
 22 24  2  0
 24 25  1  0
 24 26  1  0
 26 27  2  0
 26 28  1  0
 18 29  1  0
 29 30  1  0
 29  2  2  0
 17  4  1  0
 28 20  1  0
M  CHG  3   3  -1  23  -1  28  -1
M  END
>  <UniqueID>  (54) 
47

>  <SMILES>  (54) 
NC(=O)c1ccc2[n-]cc/c(=N\c3nc([O-])cc(=S)[n-]3)c2c1

>  <Energy>  (54) 
48.792890431104844

>  <Genealogy>  (54) 
NC(=O)c1ccc2[n-]ccc(=Nc3nc([O-])cc(=S)[n-]3)c2c1 (protonated)
NC(=O)c1ccc2[n-]cc/c(=N\c3nc([O-])cc(=S)[n-]3)c2c1 (cis-trans isomerization)
NC(=O)c1ccc2[n-]cc/c(=N\c3nc([O-])cc(=S)[n-]3)c2c1 (3D coordinates assigned)
NC(=O)c1ccc2[n-]cc/c(=N\c3nc([O-])cc(=S)[n-]3)c2c1 (optimized conformer: 48.792890431104844 kcal/mol)

>  <smiles>  (54) 
NC(=O)c1ccc2[nH]ccc(=Nc3nc(O)cc(=S)[nH]3)c2c1

>  <score_type>  (54) 
oracle

>  <origin>  (54) 
adg

>  <m_score__min__energy>  (54) 
-13.6

>  <m_primary>  (54) 
energy

$$$$
54:0
     RDKit          3D

 41 43  0  0  0  0  0  0  0  0999 V2000
   63.4590   32.7830   48.4270 O   0  0  0  0  0  0  0  0  0  0  0  0
   62.8270   33.1510   49.4130 C   0  0  0  0  0  0  0  0  0  0  0  0
   63.4860   33.0560   50.6900 N   0  0  0  0  0  0  0  0  0  0  0  0
   64.8240   32.5520   50.7760 C   0  0  0  0  0  0  0  0  0  0  0  0
   65.1210   31.2650   51.1310 C   0  0  0  0  0  0  0  0  0  0  0  0
   66.4640   30.8750   51.1850 C   0  0  0  0  0  0  0  0  0  0  0  0
   67.4550   31.8110   50.8750 C   0  0  0  0  0  0  0  0  0  0  0  0
   67.1760   33.0980   50.5200 C   0  0  0  0  0  0  0  0  0  0  0  0
   65.8350   33.4680   50.4720 C   0  0  0  0  0  0  0  0  0  0  0  0
   61.5240   33.6430   49.3320 N   0  0  0  0  0  0  0  0  0  0  0  0
   60.7390   33.8000   48.1710 C   0  0  0  0  0  0  0  0  0  0  0  0
   59.3530   33.9450   48.3090 C   0  0  0  0  0  0  0  0  0  0  0  0
   58.5360   34.1020   47.2130 C   0  0  0  0  0  0  0  0  0  0  0  0
   59.0240   34.1250   45.9380 C   0  0  0  0  0  0  0  0  0  0  0  0
   58.1350   34.2960   44.7600 C   0  0  0  0  0  0  0  0  0  0  0  0
   57.7560   33.0070   44.1270 C   0  0  0  0  0  0  0  0  0  0  0  0
   57.0770   32.0960   44.9420 C   0  0  0  0  0  0  0  0  0  0  0  0
   56.6770   30.8560   44.4400 C   0  0  0  0  0  0  0  0  0  0  0  0
   56.0720   30.0310   45.1510 O   0  0  0  0  0  0  0  0  0  0  0  0
   57.0060   30.6230   43.1100 C   0  0  0  0  0  0  0  0  0  0  0  0
   56.6560   29.5040   42.6220 O   0  0  0  0  0  0  0  0  0  0  0  0
   57.6600   31.5250   42.3580 N   0  0  0  0  0  0  0  0  0  0  0  0
   58.0410   32.7150   42.8450 N   0  0  0  0  0  0  0  0  0  0  0  0
   60.3870   33.9840   45.7730 C   0  0  0  0  0  0  0  0  0  0  0  0
   61.2120   33.8250   46.8860 C   0  0  0  0  0  0  0  0  0  0  0  0
   62.9880   33.3590   51.5750 H   0  0  0  0  0  0  0  0  0  0  0  0
   64.3197   30.5502   51.3695 H   0  0  0  0  0  0  0  0  0  0  0  0
   66.7358   29.8471   51.4672 H   0  0  0  0  0  0  0  0  0  0  0  0
   68.5077   31.4951   50.9194 H   0  0  0  0  0  0  0  0  0  0  0  0
   67.9769   33.8134   50.2817 H   0  0  0  0  0  0  0  0  0  0  0  0
   65.5668   34.4970   50.1905 H   0  0  0  0  0  0  0  0  0  0  0  0
   61.0740   33.9320   50.2550 H   0  0  0  0  0  0  0  0  0  0  0  0
   58.9080   33.9331   49.3149 H   0  0  0  0  0  0  0  0  0  0  0  0
   57.4528   34.2128   47.3693 H   0  0  0  0  0  0  0  0  0  0  0  0
   57.2182   34.8101   45.0844 H   0  0  0  0  0  0  0  0  0  0  0  0
   58.6900   34.8798   44.0109 H   0  0  0  0  0  0  0  0  0  0  0  0
   56.8562   32.3584   45.9872 H   0  0  0  0  0  0  0  0  0  0  0  0
   57.9020   31.3410   41.3570 H   0  0  0  0  0  0  0  0  0  0  0  0
   58.5510   33.4130   42.2510 H   0  0  0  0  0  0  0  0  0  0  0  0
   60.8228   33.9971   44.7631 H   0  0  0  0  0  0  0  0  0  0  0  0
   62.2944   33.7144   46.7241 H   0  0  0  0  0  0  0  0  0  0  0  0
  1  2  2  0
  2  3  1  0
  3  4  1  0
  4  5  2  0
  5  6  1  0
  6  7  2  0
  7  8  1  0
  8  9  2  0
  2 10  1  0
 10 11  1  0
 11 12  2  0
 12 13  1  0
 13 14  2  0
 14 15  1  0
 15 16  1  0
 16 17  2  0
 17 18  1  0
 18 19  2  0
 18 20  1  0
 20 21  2  0
 20 22  1  0
 22 23  1  0
 14 24  1  0
 24 25  2  0
  9  4  1  0
 25 11  1  0
 23 16  1  0
  3 26  1  0
  5 27  1  0
  6 28  1  0
  7 29  1  0
  8 30  1  0
  9 31  1  0
 10 32  1  0
 12 33  1  0
 13 34  1  0
 15 35  1  0
 15 36  1  0
 17 37  1  0
 22 38  1  0
 23 39  1  0
 24 40  1  0
 25 41  1  0
M  END
>  <smiles>  (55) 
O=C(Nc1ccccc1)Nc1ccc(Cc2cc(=O)c(=O)[nH][nH]2)cc1

>  <score_type>  (55) 
oracle

>  <origin>  (55) 
adg

>  <m_score__min__energy>  (55) 
-7.9000000000000004

>  <m_primary>  (55) 
energy

$$$$
55:0
     RDKit          3D

 37 39  0  0  0  0  0  0  0  0999 V2000
   54.7790   26.3400   46.0220 N   0  0  0  0  0  0  0  0  0  0  0  0
   56.0850   25.8020   45.8140 C   0  0  0  0  0  0  0  0  0  0  0  0
   56.2020   24.6670   45.2770 O   0  0  0  0  0  0  0  0  0  0  0  0
   57.2880   26.5650   46.2200 C   0  0  0  0  0  0  0  0  0  0  0  0
   58.1210   26.0940   47.2480 C   0  0  0  0  0  0  0  0  0  0  0  0
   59.2590   26.8110   47.6240 C   0  0  0  0  0  0  0  0  0  0  0  0
   59.5760   28.0210   47.0000 C   0  0  0  0  0  0  0  0  0  0  0  0
   60.7270   28.7060   47.4180 O   0  0  0  0  0  0  0  0  0  0  0  0
   60.7480   30.0470   47.8260 C   0  0  0  0  0  0  0  0  0  0  0  0
   59.6950   30.5350   48.6030 C   0  0  0  0  0  0  0  0  0  0  0  0
   59.7000   31.8590   49.0540 C   0  0  0  0  0  0  0  0  0  0  0  0
   60.7590   32.7200   48.7200 C   0  0  0  0  0  0  0  0  0  0  0  0
   60.7690   34.1160   49.2100 C   0  0  0  0  0  0  0  0  0  0  0  0
   61.8030   34.5990   49.7440 O   0  0  0  0  0  0  0  0  0  0  0  0
   59.6370   34.9140   49.0900 O   0  0  0  0  0  0  0  0  0  0  0  0
   61.8040   32.2360   47.9130 C   0  0  0  0  0  0  0  0  0  0  0  0
   61.7930   30.9140   47.4610 C   0  0  0  0  0  0  0  0  0  0  0  0
   58.7530   28.5050   45.9590 C   0  0  0  0  0  0  0  0  0  0  0  0
   59.1490   29.6960   45.1810 C   0  0  0  0  0  0  0  0  0  0  0  0
   58.4880   30.8630   45.1830 C   0  0  0  0  0  0  0  0  0  0  0  0
   59.2840   32.3720   45.7540 S   0  0  0  0  0  0  0  0  0  0  0  0
   57.7010   33.1990   45.5770 C   0  0  0  0  0  0  0  0  0  0  0  0
   57.5400   34.4130   45.8710 O   0  0  0  0  0  0  0  0  0  0  0  0
   56.6320   32.4010   45.0920 N   0  0  0  0  0  0  0  0  0  0  0  0
   57.0660   31.0720   44.8770 C   0  0  0  0  0  0  0  0  0  0  0  0
   56.2710   30.1690   44.5070 O   0  0  0  0  0  0  0  0  0  0  0  0
   57.6230   27.7660   45.5700 C   0  0  0  0  0  0  0  0  0  0  0  0
   54.6110   27.0820   46.7370 H   0  0  0  0  0  0  0  0  0  0  0  0
   57.8751   25.1527   47.7612 H   0  0  0  0  0  0  0  0  0  0  0  0
   59.9118   26.4200   48.4184 H   0  0  0  0  0  0  0  0  0  0  0  0
   58.8555   29.8732   48.8622 H   0  0  0  0  0  0  0  0  0  0  0  0
   58.8698   32.2285   49.6739 H   0  0  0  0  0  0  0  0  0  0  0  0
   62.6346   32.9019   47.6361 H   0  0  0  0  0  0  0  0  0  0  0  0
   62.6062   30.5495   46.8161 H   0  0  0  0  0  0  0  0  0  0  0  0
   60.0505   29.6207   44.5551 H   0  0  0  0  0  0  0  0  0  0  0  0
   55.6540   32.7380   44.9500 H   0  0  0  0  0  0  0  0  0  0  0  0
   56.9923   28.1317   44.7463 H   0  0  0  0  0  0  0  0  0  0  0  0
  1  2  1  0
  2  3  2  0
  2  4  1  0
  4  5  2  0
  5  6  1  0
  6  7  2  0
  7  8  1  0
  8  9  1  0
  9 10  2  0
 10 11  1  0
 11 12  2  0
 12 13  1  0
 13 14  2  0
 13 15  1  0
 12 16  1  0
 16 17  2  0
  7 18  1  0
 18 19  1  0
 19 20  2  3
 20 21  1  0
 21 22  1  0
 22 23  2  0
 22 24  1  0
 24 25  1  0
 25 26  2  0
 18 27  2  0
 27  4  1  0
 17  9  1  0
 25 20  1  0
  1 28  1  0
  5 29  1  0
  6 30  1  0
 10 31  1  0
 11 32  1  0
 16 33  1  0
 17 34  1  0
 19 35  1  0
 24 36  1  0
 27 37  1  0
M  CHG  2   1  -1  15  -1
M  END
>  <UniqueID>  (56) 
48

>  <SMILES>  (56) 
[NH-]C(=O)c1ccc(Oc2ccc(C(=O)[O-])cc2)c(C=C2SC(=O)NC2=O)c1

>  <Energy>  (56) 
73.19715355875522

>  <Genealogy>  (56) 
[NH-]C(=O)c1ccc(Oc2ccc(C(=O)[O-])cc2)c(C=C2SC(=O)NC2=O)c1 (protonated)
[NH-]C(=O)c1ccc(Oc2ccc(C(=O)[O-])cc2)c(C=C2SC(=O)NC2=O)c1 (3D coordinates assigned)
[NH-]C(=O)c1ccc(Oc2ccc(C(=O)[O-])cc2)c(C=C2SC(=O)NC2=O)c1 (nonaromatic ring conformer: 73.19715355875522 kcal/mol)

>  <smiles>  (56) 
NC(=O)c1ccc(Oc2ccc(C(=O)O)cc2)c(C=C2SC(=O)NC2=O)c1

>  <score_type>  (56) 
oracle

>  <origin>  (56) 
adg

>  <m_score__min__energy>  (56) 
-11.779999999999999

>  <m_primary>  (56) 
energy

$$$$
56:0
     RDKit          3D

 48 51  0  0  0  0  0  0  0  0999 V2000
   62.0440   31.8020   49.4830 N   0  0  0  0  0  0  0  0  0  0  0  0
   61.5440   33.4450   49.2880 S   0  0  0  0  0  0  0  0  0  0  0  0
   62.6910   34.2680   48.7730 O   0  0  0  0  0  0  0  0  0  0  0  0
   61.1260   33.9910   50.6240 O   0  0  0  0  0  0  0  0  0  0  0  0
   60.1940   33.5270   48.1440 C   0  0  0  0  0  0  0  0  0  0  0  0
   60.3490   34.2560   46.9530 C   0  0  0  0  0  0  0  0  0  0  0  0
   59.3140   34.3120   46.0160 C   0  0  0  0  0  0  0  0  0  0  0  0
   58.1150   33.6390   46.2550 C   0  0  0  0  0  0  0  0  0  0  0  0
   57.9440   32.9150   47.4350 C   0  0  0  0  0  0  0  0  0  0  0  0
   58.9720   32.8580   48.3900 C   0  0  0  0  0  0  0  0  0  0  0  0
   58.7390   32.1010   49.6330 C   0  0  0  0  0  0  0  0  0  0  0  0
   58.8090   30.7020   49.6300 C   0  0  0  0  0  0  0  0  0  0  0  0
   58.6200   29.9880   50.8160 C   0  0  0  0  0  0  0  0  0  0  0  0
   58.3680   30.6620   52.0170 C   0  0  0  0  0  0  0  0  0  0  0  0
   58.2120   29.8950   53.2200 N   0  0  0  0  0  0  0  0  0  0  0  0
   57.4360   28.6970   53.3620 C   0  0  0  0  0  0  0  0  0  0  0  0
   58.0370   27.6180   53.6080 O   0  0  0  0  0  0  0  0  0  0  0  0
   55.9540   28.7090   53.2920 C   0  0  0  0  0  0  0  0  0  0  0  0
   55.2700   29.9030   53.0010 C   0  0  0  0  0  0  0  0  0  0  0  0
   53.8690   29.9280   52.9220 C   0  0  0  0  0  0  0  0  0  0  0  0
   53.1480   31.2180   52.6420 C   0  0  0  0  0  0  0  0  0  0  0  0
   52.4060   31.1230   51.3450 C   0  0  0  0  0  0  0  0  0  0  0  0
   52.5930   29.8940   50.2080 S   0  0  0  0  0  0  0  0  0  0  0  0
   51.3830   30.5130   49.2190 C   0  0  0  0  0  0  0  0  0  0  0  0
   51.0300   30.0000   48.1260 O   0  0  0  0  0  0  0  0  0  0  0  0
   50.8180   31.6300   49.7250 N   0  0  0  0  0  0  0  0  0  0  0  0
   51.3840   31.9660   50.9140 C   0  0  0  0  0  0  0  0  0  0  0  0
   50.9580   33.0730   51.6370 O   0  0  0  0  0  0  0  0  0  0  0  0
   53.1440   28.7540   53.1700 C   0  0  0  0  0  0  0  0  0  0  0  0
   53.8120   27.5670   53.4730 C   0  0  0  0  0  0  0  0  0  0  0  0
   55.2080   27.5370   53.5350 C   0  0  0  0  0  0  0  0  0  0  0  0
   55.8440   26.3330   53.8220 O   0  0  0  0  0  0  0  0  0  0  0  0
   58.2420   32.0650   52.0090 C   0  0  0  0  0  0  0  0  0  0  0  0
   57.8980   32.7420   53.1320 F   0  0  0  0  0  0  0  0  0  0  0  0
   58.4350   32.7770   50.8220 C   0  0  0  0  0  0  0  0  0  0  0  0
   61.7820   31.5150   50.4530 H   0  0  0  0  0  0  0  0  0  0  0  0
   61.2923   34.7867   46.7567 H   0  0  0  0  0  0  0  0  0  0  0  0
   59.4445   34.8878   45.0879 H   0  0  0  0  0  0  0  0  0  0  0  0
   57.3044   33.6795   45.5125 H   0  0  0  0  0  0  0  0  0  0  0  0
   56.9976   32.3852   47.6187 H   0  0  0  0  0  0  0  0  0  0  0  0
   59.0131   30.1645   48.6922 H   0  0  0  0  0  0  0  0  0  0  0  0
   58.6695   28.8892   50.8061 H   0  0  0  0  0  0  0  0  0  0  0  0
   55.8402   30.8286   52.8333 H   0  0  0  0  0  0  0  0  0  0  0  0
   52.4349   31.4199   53.4549 H   0  0  0  0  0  0  0  0  0  0  0  0
   53.8829   32.0338   52.5768 H   0  0  0  0  0  0  0  0  0  0  0  0
   52.0450   28.7686   53.1256 H   0  0  0  0  0  0  0  0  0  0  0  0
   53.2365   26.6493   53.6642 H   0  0  0  0  0  0  0  0  0  0  0  0
   58.3478   33.8735   50.8212 H   0  0  0  0  0  0  0  0  0  0  0  0
  1  2  1  0
  2  3  2  0
  2  4  2  0
  2  5  1  0
  5  6  2  0
  6  7  1  0
  7  8  2  0
  8  9  1  0
  9 10  2  0
 10 11  1  0
 11 12  2  0
 12 13  1  0
 13 14  2  0
 14 15  1  0
 15 16  1  0
 16 17  2  0
 16 18  1  0
 18 19  2  0
 19 20  1  0
 20 21  1  0
 21 22  1  0
 22 23  1  0
 23 24  1  0
 24 25  2  0
 24 26  1  0
 26 27  1  0
 27 28  1  0
 20 29  2  0
 29 30  1  0
 30 31  2  0
 31 32  1  0
 14 33  1  0
 33 34  1  0
 33 35  2  0
 10  5  1  0
 35 11  1  0
 31 18  1  0
 27 22  2  0
  1 36  1  0
  6 37  1  0
  7 38  1  0
  8 39  1  0
  9 40  1  0
 12 41  1  0
 13 42  1  0
 19 43  1  0
 21 44  1  0
 21 45  1  0
 29 46  1  0
 30 47  1  0
 35 48  1  0
M  CHG  5   1  -1  15  -1  26  -1  28  -1  32  -1
M  END
>  <UniqueID>  (57) 
49

>  <SMILES>  (57) 
[NH-]S(=O)(=O)c1ccccc1-c1ccc([N-]C(=O)c2cc(Cc3sc(=O)[n-]c3[O-])ccc2[O-])c(F)c1

>  <Energy>  (57) 
97.54045822146195

>  <Genealogy>  (57) 
[NH-]S(=O)(=O)c1ccccc1-c1ccc([N-]C(=O)c2cc(Cc3sc(=O)[n-]c3[O-])ccc2[O-])c(F)c1 (protonated)
[NH-]S(=O)(=O)c1ccccc1-c1ccc([N-]C(=O)c2cc(Cc3sc(=O)[n-]c3[O-])ccc2[O-])c(F)c1 (3D coordinates assigned)
[NH-]S(=O)(=O)c1ccccc1-c1ccc([N-]C(=O)c2cc(Cc3sc(=O)[n-]c3[O-])ccc2[O-])c(F)c1 (optimized conformer: 97.54045822146195 kcal/mol)

>  <smiles>  (57) 
NS(=O)(=O)c1ccccc1-c1ccc(NC(=O)c2cc(Cc3sc(=O)[nH]c3O)ccc2O)c(F)c1

>  <score_type>  (57) 
oracle

>  <origin>  (57) 
adg

>  <m_score__min__energy>  (57) 
-19.640000000000001

>  <m_primary>  (57) 
energy

$$$$
57:0
     RDKit          3D

 70 72  0  0  0  0  0  0  0  0999 V2000
   59.2630   35.0350   54.4760 C   0  0  0  0  0  0  0  0  0  0  0  0
   58.5970   34.7070   53.1430 C   0  0  0  0  0  0  0  0  0  0  0  0
   59.2230   33.4890   52.5190 C   0  0  0  0  0  0  0  0  0  0  0  0
   60.5610   33.1600   52.7920 C   0  0  0  0  0  0  0  0  0  0  0  0
   61.1490   32.0410   52.1930 C   0  0  0  0  0  0  0  0  0  0  0  0
   60.4090   31.2400   51.3090 C   0  0  0  0  0  0  0  0  0  0  0  0
   61.0400   30.0450   50.6440 C   0  0  0  0  0  0  0  0  0  0  0  0
   60.3520   29.7300   49.3750 N   0  0  0  0  0  0  0  0  0  0  0  0
   60.9290   30.5100   48.2490 C   0  0  0  0  0  0  0  0  0  0  0  0
   60.5250   29.9580   46.8650 C   0  0  0  0  0  0  0  0  0  0  0  0
   59.2580   29.0910   46.9580 C   0  0  0  0  0  0  0  0  0  0  0  0
   58.7870   28.6190   45.5700 C   0  0  0  0  0  0  0  0  0  0  0  0
   57.3270   28.4760   45.5350 N   0  0  0  0  0  0  0  0  0  0  0  0
   56.6150   29.5730   44.3910 S   0  0  0  0  0  0  0  0  0  0  0  0
   56.7880   29.0240   43.0030 O   0  0  0  0  0  0  0  0  0  0  0  0
   55.1430   29.7190   44.6710 O   0  0  0  0  0  0  0  0  0  0  0  0
   57.4240   31.1330   44.4990 C   0  0  0  0  0  0  0  0  0  0  0  0
   57.7150   31.8430   43.3280 C   0  0  0  0  0  0  0  0  0  0  0  0
   58.3880   33.0660   43.3940 C   0  0  0  0  0  0  0  0  0  0  0  0
   58.7750   33.5840   44.6320 C   0  0  0  0  0  0  0  0  0  0  0  0
   58.4940   32.8780   45.8110 C   0  0  0  0  0  0  0  0  0  0  0  0
   58.9510   33.5410   47.3790 S   0  0  0  0  0  0  0  0  0  0  0  0
   58.2370   32.7890   48.4680 O   0  0  0  0  0  0  0  0  0  0  0  0
   58.5210   34.9810   47.4330 O   0  0  0  0  0  0  0  0  0  0  0  0
   60.6870   33.4420   47.5870 N   0  0  0  0  0  0  0  0  0  0  0  0
   61.2210   34.2010   48.7360 C   0  0  0  0  0  0  0  0  0  0  0  0
   62.2930   33.4600   49.5340 C   0  0  0  0  0  0  0  0  0  0  0  0
   61.4950   33.4720   46.3480 C   0  0  0  0  0  0  0  0  0  0  0  0
   62.9710   33.8410   46.5490 C   0  0  0  0  0  0  0  0  0  0  0  0
   57.8170   31.6540   45.7420 C   0  0  0  0  0  0  0  0  0  0  0  0
   59.4770   27.9110   47.9340 C   0  0  0  0  0  0  0  0  0  0  0  0
   60.4160   28.2820   49.0970 C   0  0  0  0  0  0  0  0  0  0  0  0
   59.0800   31.5830   51.0170 C   0  0  0  0  0  0  0  0  0  0  0  0
   58.4910   32.7000   51.6180 C   0  0  0  0  0  0  0  0  0  0  0  0
   58.6102   34.7135   55.3009 H   0  0  0  0  0  0  0  0  0  0  0  0
   60.2263   34.5082   54.5440 H   0  0  0  0  0  0  0  0  0  0  0  0
   59.4326   36.1197   54.5440 H   0  0  0  0  0  0  0  0  0  0  0  0
   57.5269   34.5163   53.3117 H   0  0  0  0  0  0  0  0  0  0  0  0
   58.7309   35.5606   52.4622 H   0  0  0  0  0  0  0  0  0  0  0  0
   61.1491   33.7852   53.4800 H   0  0  0  0  0  0  0  0  0  0  0  0
   62.1960   31.7875   52.4157 H   0  0  0  0  0  0  0  0  0  0  0  0
   62.0979   30.2638   50.4366 H   0  0  0  0  0  0  0  0  0  0  0  0
   60.9544   29.1793   51.3172 H   0  0  0  0  0  0  0  0  0  0  0  0
   60.5796   31.5501   48.3274 H   0  0  0  0  0  0  0  0  0  0  0  0
   62.0240   30.4385   48.3255 H   0  0  0  0  0  0  0  0  0  0  0  0
   60.3333   30.8010   46.1849 H   0  0  0  0  0  0  0  0  0  0  0  0
   61.3471   29.3325   46.4869 H   0  0  0  0  0  0  0  0  0  0  0  0
   58.4470   29.7128   47.3650 H   0  0  0  0  0  0  0  0  0  0  0  0
   59.0951   29.3569   44.8146 H   0  0  0  0  0  0  0  0  0  0  0  0
   59.2419   27.6402   45.3577 H   0  0  0  0  0  0  0  0  0  0  0  0
   57.4126   31.4364   42.3517 H   0  0  0  0  0  0  0  0  0  0  0  0
   58.6129   33.6206   42.4711 H   0  0  0  0  0  0  0  0  0  0  0  0
   59.3017   34.5484   44.6826 H   0  0  0  0  0  0  0  0  0  0  0  0
   61.6581   35.1369   48.3578 H   0  0  0  0  0  0  0  0  0  0  0  0
   60.3777   34.3703   49.4217 H   0  0  0  0  0  0  0  0  0  0  0  0
   62.1047   33.5902   50.6099 H   0  0  0  0  0  0  0  0  0  0  0  0
   62.2623   32.3894   49.2833 H   0  0  0  0  0  0  0  0  0  0  0  0
   63.2837   33.8670   49.2833 H   0  0  0  0  0  0  0  0  0  0  0  0
   61.4518   32.4740   45.8874 H   0  0  0  0  0  0  0  0  0  0  0  0
   61.0624   34.2617   45.7162 H   0  0  0  0  0  0  0  0  0  0  0  0
   63.1919   33.8962   47.6252 H   0  0  0  0  0  0  0  0  0  0  0  0
   63.6074   33.0743   46.0829 H   0  0  0  0  0  0  0  0  0  0  0  0
   63.1717   34.8170   46.0829 H   0  0  0  0  0  0  0  0  0  0  0  0
   57.5924   31.0990   46.6648 H   0  0  0  0  0  0  0  0  0  0  0  0
   58.5037   27.6086   48.3477 H   0  0  0  0  0  0  0  0  0  0  0  0
   59.9461   27.0907   47.3709 H   0  0  0  0  0  0  0  0  0  0  0  0
   60.1129   27.7274   49.9973 H   0  0  0  0  0  0  0  0  0  0  0  0
   61.4471   28.0199   48.8175 H   0  0  0  0  0  0  0  0  0  0  0  0
   58.4988   30.9704   50.3121 H   0  0  0  0  0  0  0  0  0  0  0  0
   57.4486   32.9616   51.3834 H   0  0  0  0  0  0  0  0  0  0  0  0
  1  2  1  0
  2  3  1  0
  3  4  2  0
  4  5  1  0
  5  6  2  0
  6  7  1  0
  7  8  1  0
  8  9  1  0
  9 10  1  0
 10 11  1  0
 11 12  1  0
 12 13  1  0
 13 14  1  0
 14 15  2  0
 14 16  2  0
 14 17  1  0
 17 18  2  0
 18 19  1  0
 19 20  2  0
 20 21  1  0
 21 22  1  0
 22 23  2  0
 22 24  2  0
 22 25  1  0
 25 26  1  0
 26 27  1  0
 25 28  1  0
 28 29  1  0
 21 30  2  0
 11 31  1  0
 31 32  1  0
  6 33  1  0
 33 34  2  0
 34  3  1  0
 32  8  1  0
 30 17  1  0
  1 35  1  0
  1 36  1  0
  1 37  1  0
  2 38  1  0
  2 39  1  0
  4 40  1  0
  5 41  1  0
  7 42  1  0
  7 43  1  0
  9 44  1  0
  9 45  1  0
 10 46  1  0
 10 47  1  0
 11 48  1  0
 12 49  1  0
 12 50  1  0
 18 51  1  0
 19 52  1  0
 20 53  1  0
 26 54  1  0
 26 55  1  0
 27 56  1  0
 27 57  1  0
 27 58  1  0
 28 59  1  0
 28 60  1  0
 29 61  1  0
 29 62  1  0
 29 63  1  0
 30 64  1  0
 31 65  1  0
 31 66  1  0
 32 67  1  0
 32 68  1  0
 33 69  1  0
 34 70  1  0
M  CHG  1  13  -1
M  END
>  <UniqueID>  (58) 
50

>  <SMILES>  (58) 
CCc1ccc(CN2CCC(C[N-]S(=O)(=O)c3cccc(S(=O)(=O)N(CC)CC)c3)CC2)cc1

>  <Energy>  (58) 
74.95639719593144

>  <Genealogy>  (58) 
CCc1ccc(CN2CCC(C[N-]S(=O)(=O)c3cccc(S(=O)(=O)N(CC)CC)c3)CC2)cc1 (protonated)
CCc1ccc(CN2CCC(C[N-]S(=O)(=O)c3cccc(S(=O)(=O)N(CC)CC)c3)CC2)cc1 (3D coordinates assigned)
CCc1ccc(CN2CCC(C[N-]S(=O)(=O)c3cccc(S(=O)(=O)N(CC)CC)c3)CC2)cc1 (nonaromatic ring conformer: 74.95639719593144 kcal/mol)

>  <smiles>  (58) 
CCc1ccc(CN2CCC(CNS(=O)(=O)c3cccc(S(=O)(=O)N(CC)CC)c3)CC2)cc1

>  <score_type>  (58) 
oracle

>  <origin>  (58) 
adg

>  <m_score__min__energy>  (58) 
-11.359999999999999

>  <m_primary>  (58) 
energy

$$$$
58:0
     RDKit          3D

 75 78  0  0  0  0  0  0  0  0999 V2000
   56.2890   23.0100   43.0320 C   0  0  0  0  0  0  0  0  0  0  0  0
   57.1240   22.2770   44.0740 C   0  0  0  0  0  0  0  0  0  0  0  0
   58.4610   22.7730   44.0890 O   0  0  0  0  0  0  0  0  0  0  0  0
   59.1380   23.1300   45.2600 C   0  0  0  0  0  0  0  0  0  0  0  0
   60.2880   22.6760   45.5060 O   0  0  0  0  0  0  0  0  0  0  0  0
   58.4670   24.0220   46.2540 C   0  0  0  0  0  0  0  0  0  0  0  0
   58.4610   25.4020   45.7700 N   0  0  0  0  0  0  0  0  0  0  0  0
   59.5660   26.1160   45.6210 N   0  0  0  0  0  0  0  0  0  0  0  0
   59.2160   27.3490   45.2050 C   0  0  0  0  0  0  0  0  0  0  0  0
   60.1990   28.4300   45.0100 C   0  0  0  0  0  0  0  0  0  0  0  0
   61.1070   28.3190   44.1430 O   0  0  0  0  0  0  0  0  0  0  0  0
   60.0640   29.6400   45.7640 N   0  0  0  0  0  0  0  0  0  0  0  0
   60.1430   29.7610   47.1910 C   0  0  0  0  0  0  0  0  0  0  0  0
   61.1830   30.5170   47.7470 C   0  0  0  0  0  0  0  0  0  0  0  0
   61.2870   30.6660   49.1340 C   0  0  0  0  0  0  0  0  0  0  0  0
   60.3400   30.0760   49.9750 C   0  0  0  0  0  0  0  0  0  0  0  0
   60.4390   30.2250   51.3180 F   0  0  0  0  0  0  0  0  0  0  0  0
   59.2820   29.3430   49.4280 C   0  0  0  0  0  0  0  0  0  0  0  0
   59.1780   29.1890   48.0410 C   0  0  0  0  0  0  0  0  0  0  0  0
   57.8310   27.4220   45.0990 C   0  0  0  0  0  0  0  0  0  0  0  0
   57.0010   28.5790   44.7210 C   0  0  0  0  0  0  0  0  0  0  0  0
   55.8680   28.7330   45.2510 O   0  0  0  0  0  0  0  0  0  0  0  0
   57.4840   29.5280   43.7640 N   0  0  0  0  0  0  0  0  0  0  0  0
   56.7490   30.7590   43.4680 C   0  0  0  0  0  0  0  0  0  0  0  0
   57.2590   31.9410   44.3170 C   0  0  0  0  0  0  0  0  0  0  0  0
   58.3500   32.7460   43.5830 C   0  0  0  0  0  0  0  0  0  0  0  0
   58.8610   33.9310   44.4350 C   0  0  0  0  0  0  0  0  0  0  0  0
   58.4200   33.8290   45.8440 N   0  0  0  0  0  0  0  0  0  0  0  0
   58.9350   34.9220   46.6990 C   0  0  0  0  0  0  0  0  0  0  0  0
   60.1760   34.5570   47.4860 C   0  0  0  0  0  0  0  0  0  0  0  0
   60.1500   34.5590   48.8910 C   0  0  0  0  0  0  0  0  0  0  0  0
   61.2900   34.2140   49.6210 C   0  0  0  0  0  0  0  0  0  0  0  0
   62.4700   33.8460   48.9580 C   0  0  0  0  0  0  0  0  0  0  0  0
   63.7030   33.5140   49.7450 C   0  0  0  0  0  0  0  0  0  0  0  0
   62.5030   33.8530   47.5550 C   0  0  0  0  0  0  0  0  0  0  0  0
   61.3610   34.1940   46.8240 C   0  0  0  0  0  0  0  0  0  0  0  0
   58.6730   32.4850   46.3920 C   0  0  0  0  0  0  0  0  0  0  0  0
   57.7950   31.4390   45.6780 C   0  0  0  0  0  0  0  0  0  0  0  0
   57.3860   26.1590   45.4600 C   0  0  0  0  0  0  0  0  0  0  0  0
   55.9540   25.7160   45.5590 C   0  0  0  0  0  0  0  0  0  0  0  0
   55.5549   23.6545   43.5377 H   0  0  0  0  0  0  0  0  0  0  0  0
   56.9471   23.6274   42.4029 H   0  0  0  0  0  0  0  0  0  0  0  0
   55.7621   22.2775   42.4029 H   0  0  0  0  0  0  0  0  0  0  0  0
   56.6732   22.4242   45.0665 H   0  0  0  0  0  0  0  0  0  0  0  0
   57.1468   21.2070   43.8198 H   0  0  0  0  0  0  0  0  0  0  0  0
   57.4307   23.6848   46.4036 H   0  0  0  0  0  0  0  0  0  0  0  0
   59.0172   23.9774   47.2055 H   0  0  0  0  0  0  0  0  0  0  0  0
   61.9225   30.9965   47.0888 H   0  0  0  0  0  0  0  0  0  0  0  0
   62.1155   31.2485   49.5632 H   0  0  0  0  0  0  0  0  0  0  0  0
   58.5304   28.8868   50.0891 H   0  0  0  0  0  0  0  0  0  0  0  0
   58.3396   28.6192   47.6138 H   0  0  0  0  0  0  0  0  0  0  0  0
   58.3570   29.3010   43.2360 H   0  0  0  0  0  0  0  0  0  0  0  0
   56.8755   31.0033   42.4030 H   0  0  0  0  0  0  0  0  0  0  0  0
   55.6885   30.5937   43.7091 H   0  0  0  0  0  0  0  0  0  0  0  0
   56.4051   32.6125   44.4900 H   0  0  0  0  0  0  0  0  0  0  0  0
   59.1949   32.0783   43.3588 H   0  0  0  0  0  0  0  0  0  0  0  0
   57.9116   33.1529   42.6598 H   0  0  0  0  0  0  0  0  0  0  0  0
   59.9606   33.9413   44.4065 H   0  0  0  0  0  0  0  0  0  0  0  0
   58.4444   34.8579   44.0139 H   0  0  0  0  0  0  0  0  0  0  0  0
   59.1743   35.7811   46.0551 H   0  0  0  0  0  0  0  0  0  0  0  0
   58.1481   35.1486   47.4335 H   0  0  0  0  0  0  0  0  0  0  0  0
   59.2255   34.8342   49.4197 H   0  0  0  0  0  0  0  0  0  0  0  0
   61.2621   34.2310   50.7205 H   0  0  0  0  0  0  0  0  0  0  0  0
   63.4790   33.5743   50.8203 H   0  0  0  0  0  0  0  0  0  0  0  0
   64.0336   32.4948   49.4959 H   0  0  0  0  0  0  0  0  0  0  0  0
   64.5006   34.2294   49.4959 H   0  0  0  0  0  0  0  0  0  0  0  0
   63.4317   33.5890   47.0280 H   0  0  0  0  0  0  0  0  0  0  0  0
   61.3904   34.1780   45.7245 H   0  0  0  0  0  0  0  0  0  0  0  0
   59.7327   32.2282   46.2471 H   0  0  0  0  0  0  0  0  0  0  0  0
   58.4270   32.4850   47.4641 H   0  0  0  0  0  0  0  0  0  0  0  0
   58.3949   30.5328   45.5077 H   0  0  0  0  0  0  0  0  0  0  0  0
   56.9275   31.2363   46.3232 H   0  0  0  0  0  0  0  0  0  0  0  0
   55.6698   25.6281   46.6180 H   0  0  0  0  0  0  0  0  0  0  0  0
   55.3064   26.4558   45.0657 H   0  0  0  0  0  0  0  0  0  0  0  0
   55.8373   24.7397   45.0657 H   0  0  0  0  0  0  0  0  0  0  0  0
  1  2  1  0
  2  3  1  0
  3  4  1  0
  4  5  2  0
  4  6  1  0
  6  7  1  0
  7  8  1  0
  8  9  2  0
  9 10  1  0
 10 11  2  0
 10 12  1  0
 12 13  1  0
 13 14  2  0
 14 15  1  0
 15 16  2  0
 16 17  1  0
 16 18  1  0
 18 19  2  0
  9 20  1  0
 20 21  1  0
 21 22  2  0
 21 23  1  0
 23 24  1  0
 24 25  1  0
 25 26  1  0
 26 27  1  0
 27 28  1  0
 28 29  1  0
 29 30  1  0
 30 31  2  0
 31 32  1  0
 32 33  2  0
 33 34  1  0
 33 35  1  0
 35 36  2  0
 28 37  1  0
 37 38  1  0
 20 39  2  0
 39 40  1  0
 39  7  1  0
 19 13  1  0
 38 25  1  0
 36 30  1  0
  1 41  1  0
  1 42  1  0
  1 43  1  0
  2 44  1  0
  2 45  1  0
  6 46  1  0
  6 47  1  0
 14 48  1  0
 15 49  1  0
 18 50  1  0
 19 51  1  0
 23 52  1  0
 24 53  1  0
 24 54  1  0
 25 55  1  0
 26 56  1  0
 26 57  1  0
 27 58  1  0
 27 59  1  0
 29 60  1  0
 29 61  1  0
 31 62  1  0
 32 63  1  0
 34 64  1  0
 34 65  1  0
 34 66  1  0
 35 67  1  0
 36 68  1  0
 37 69  1  0
 37 70  1  0
 38 71  1  0
 38 72  1  0
 40 73  1  0
 40 74  1  0
 40 75  1  0
M  CHG  1  12  -1
M  END
>  <UniqueID>  (59) 
51

>  <SMILES>  (59) 
CCOC(=O)Cn1nc(C(=O)[N-]c2ccc(F)cc2)c(C(=O)NCC2CCN(Cc3ccc(C)cc3)CC2)c1C

>  <Energy>  (59) 
112.60075709011761

>  <Genealogy>  (59) 
CCOC(=O)Cn1nc(C(=O)[N-]c2ccc(F)cc2)c(C(=O)NCC2CCN(Cc3ccc(C)cc3)CC2)c1C (protonated)
CCOC(=O)Cn1nc(C(=O)[N-]c2ccc(F)cc2)c(C(=O)NCC2CCN(Cc3ccc(C)cc3)CC2)c1C (3D coordinates assigned)
CCOC(=O)Cn1nc(C(=O)[N-]c2ccc(F)cc2)c(C(=O)NCC2CCN(Cc3ccc(C)cc3)CC2)c1C (nonaromatic ring conformer: 112.60075709011761 kcal/mol)

>  <smiles>  (59) 
CCOC(=O)Cn1nc(C(=O)Nc2ccc(F)cc2)c(C(=O)NCC2CCN(Cc3ccc(C)cc3)CC2)c1C

>  <score_type>  (59) 
oracle

>  <origin>  (59) 
adg

>  <m_score__min__energy>  (59) 
-10.18

>  <m_primary>  (59) 
energy

$$$$
59:0
     RDKit          3D

 33 35  0  0  0  0  0  0  0  0999 V2000
   55.0604   30.2193   43.2061 H   0  0  0  0  0  0  0  0  0  0  0  0
   55.8710   30.1560   43.9470 C   0  0  0  0  0  0  0  0  0  0  0  0
   56.3490   28.9930   44.4360 N   0  0  0  0  0  0  0  0  0  0  0  0
   57.3140   29.3780   45.2950 C   0  0  0  0  0  0  0  0  0  0  0  0
   58.0420   28.4290   46.1540 C   0  0  0  0  0  0  0  0  0  0  0  0
   59.2890   28.5630   46.2920 O   0  0  0  0  0  0  0  0  0  0  0  0
   57.3430   27.3380   46.7740 N   0  0  0  0  0  0  0  0  0  0  0  0
   57.1280   26.1540   46.2770 C   0  0  0  0  0  0  0  0  0  0  0  0
   58.1390   25.2460   46.1470 N   0  0  0  0  0  0  0  0  0  0  0  0
   57.9310   24.0050   45.6350 C   0  0  0  0  0  0  0  0  0  0  0  0
   58.7707   23.3003   45.5440 H   0  0  0  0  0  0  0  0  0  0  0  0
   56.6520   23.6230   45.2240 C   0  0  0  0  0  0  0  0  0  0  0  0
   56.4776   22.6196   44.8082 H   0  0  0  0  0  0  0  0  0  0  0  0
   55.5980   24.5290   45.3470 C   0  0  0  0  0  0  0  0  0  0  0  0
   54.5850   24.2418   45.0288 H   0  0  0  0  0  0  0  0  0  0  0  0
   55.8310   25.8020   45.8750 C   0  0  0  0  0  0  0  0  0  0  0  0
   54.7780   26.7030   45.9990 O   0  0  0  0  0  0  0  0  0  0  0  0
   57.3920   30.7630   45.2850 C   0  0  0  0  0  0  0  0  0  0  0  0
   58.3130   31.6460   46.0240 C   0  0  0  0  0  0  0  0  0  0  0  0
   58.7170   32.8620   45.4550 C   0  0  0  0  0  0  0  0  0  0  0  0
   58.3362   33.1569   44.4660 H   0  0  0  0  0  0  0  0  0  0  0  0
   59.6020   33.7020   46.1390 C   0  0  0  0  0  0  0  0  0  0  0  0
   59.9097   34.6569   45.6879 H   0  0  0  0  0  0  0  0  0  0  0  0
   60.0990   33.3320   47.3980 C   0  0  0  0  0  0  0  0  0  0  0  0
   61.0740   34.2170   48.1150 C   0  0  0  0  0  0  0  0  0  0  0  0
   60.9452   34.1001   49.2012 H   0  0  0  0  0  0  0  0  0  0  0  0
   62.0997   33.9351   47.8349 H   0  0  0  0  0  0  0  0  0  0  0  0
   60.8924   35.2651   47.8349 H   0  0  0  0  0  0  0  0  0  0  0  0
   59.7340   32.0930   47.9440 C   0  0  0  0  0  0  0  0  0  0  0  0
   60.1456   31.7805   48.9150 H   0  0  0  0  0  0  0  0  0  0  0  0
   58.8500   31.2530   47.2610 C   0  0  0  0  0  0  0  0  0  0  0  0
   58.5737   30.2803   47.6939 H   0  0  0  0  0  0  0  0  0  0  0  0
   56.4800   31.2050   44.4530 O   0  0  0  0  0  0  0  0  0  0  0  0
  1  2  1  0
  2  3  2  0
  3  4  1  0
  4  5  1  0
  5  6  2  0
  5  7  1  0
  7  8  2  0
  8  9  1  0
  9 10  1  0
 10 11  1  0
 10 12  2  0
 12 13  1  0
 12 14  1  0
 14 15  1  0
 14 16  2  0
 16 17  1  0
  4 18  2  0
 18 19  1  0
 19 20  2  0
 20 21  1  0
 20 22  1  0
 22 23  1  0
 22 24  2  0
 24 25  1  0
 25 26  1  0
 25 27  1  0
 25 28  1  0
 24 29  1  0
 29 30  1  0
 29 31  2  0
 31 32  1  0
 18 33  1  0
 33  2  1  0
 16  8  1  0
 31 19  1  0
M  CHG  2   9  -1  17  -1
M  END
>  <UniqueID>  (60) 
52

>  <SMILES>  (60) 
Cc1ccc(-c2ocnc2C(=O)/N=c2\[n-]cccc2[O-])cc1

>  <Energy>  (60) 
72.96168220108885

>  <Genealogy>  (60) 
Cc1ccc(-c2ocnc2C(=O)N=c2[n-]cccc2[O-])cc1 (protonated)
Cc1ccc(-c2ocnc2C(=O)/N=c2\[n-]cccc2[O-])cc1 (cis-trans isomerization)
Cc1ccc(-c2ocnc2C(=O)/N=c2\[n-]cccc2[O-])cc1 (3D coordinates assigned)
Cc1ccc(-c2ocnc2C(=O)/N=c2\[n-]cccc2[O-])cc1 (optimized conformer: 72.96168220108885 kcal/mol)

>  <smiles>  (60) 
Cc1ccc(-c2ocnc2C(=O)N=c2[nH]cccc2O)cc1

>  <score_type>  (60) 
oracle

>  <origin>  (60) 
adg

>  <m_score__min__energy>  (60) 
-12.789999999999999

>  <m_primary>  (60) 
energy

$$$$
60:0
     RDKit          3D

 49 51  0  0  0  0  0  0  0  0999 V2000
   60.9480   33.8790   50.1080 C   0  0  0  0  0  0  0  0  0  0  0  0
   59.8620   34.4910   49.4200 O   0  0  0  0  0  0  0  0  0  0  0  0
   59.2800   33.9880   48.2460 C   0  0  0  0  0  0  0  0  0  0  0  0
   59.2080   34.7450   47.0630 C   0  0  0  0  0  0  0  0  0  0  0  0
   58.6220   34.2100   45.9140 C   0  0  0  0  0  0  0  0  0  0  0  0
   58.0950   32.9080   45.9200 C   0  0  0  0  0  0  0  0  0  0  0  0
   57.4770   32.3440   44.6980 C   0  0  0  0  0  0  0  0  0  0  0  0
   57.8730   32.7170   43.5600 O   0  0  0  0  0  0  0  0  0  0  0  0
   56.4270   31.3740   44.8020 N   0  0  0  0  0  0  0  0  0  0  0  0
   56.3520   30.1710   43.9800 C   0  0  0  0  0  0  0  0  0  0  0  0
   57.2120   29.0850   44.5650 C   0  0  0  0  0  0  0  0  0  0  0  0
   57.7350   28.0830   43.7360 C   0  0  0  0  0  0  0  0  0  0  0  0
   58.5270   27.0660   44.2750 C   0  0  0  0  0  0  0  0  0  0  0  0
   58.7900   27.0330   45.6470 C   0  0  0  0  0  0  0  0  0  0  0  0
   58.2470   28.0150   46.4950 C   0  0  0  0  0  0  0  0  0  0  0  0
   58.5050   28.0290   47.9060 N   0  0  0  0  0  0  0  0  0  0  0  0
   59.7840   28.1740   48.5420 C   0  0  0  0  0  0  0  0  0  0  0  0
   60.1860   27.2990   49.3570 O   0  0  0  0  0  0  0  0  0  0  0  0
   60.6080   29.3770   48.2840 C   0  0  0  0  0  0  0  0  0  0  0  0
   61.3250   29.9930   49.3280 C   0  0  0  0  0  0  0  0  0  0  0  0
   62.1010   31.1300   49.0800 C   0  0  0  0  0  0  0  0  0  0  0  0
   62.1710   31.6650   47.7920 C   0  0  0  0  0  0  0  0  0  0  0  0
   63.2320   33.2180   47.4570 Br  0  0  0  0  0  0  0  0  0  0  0  0
   61.4640   31.0630   46.7470 C   0  0  0  0  0  0  0  0  0  0  0  0
   60.6860   29.9260   46.9900 C   0  0  0  0  0  0  0  0  0  0  0  0
   57.4760   29.0460   45.9440 C   0  0  0  0  0  0  0  0  0  0  0  0
   58.1690   32.1510   47.1030 C   0  0  0  0  0  0  0  0  0  0  0  0
   58.7590   32.6850   48.2660 C   0  0  0  0  0  0  0  0  0  0  0  0
   58.8460   31.9530   49.4620 O   0  0  0  0  0  0  0  0  0  0  0  0
   57.8640   31.9700   50.4930 C   0  0  0  0  0  0  0  0  0  0  0  0
   60.7911   33.9674   51.1932 H   0  0  0  0  0  0  0  0  0  0  0  0
   61.0050   32.8159   49.8312 H   0  0  0  0  0  0  0  0  0  0  0  0
   61.8869   34.3808   49.8312 H   0  0  0  0  0  0  0  0  0  0  0  0
   59.6164   35.7662   47.0427 H   0  0  0  0  0  0  0  0  0  0  0  0
   58.5726   34.8137   44.9958 H   0  0  0  0  0  0  0  0  0  0  0  0
   55.3088   29.8247   43.9379 H   0  0  0  0  0  0  0  0  0  0  0  0
   56.7120   30.4063   42.9676 H   0  0  0  0  0  0  0  0  0  0  0  0
   57.5211   28.0974   42.6571 H   0  0  0  0  0  0  0  0  0  0  0  0
   58.9446   26.2892   43.6176 H   0  0  0  0  0  0  0  0  0  0  0  0
   59.4235   26.2368   46.0650 H   0  0  0  0  0  0  0  0  0  0  0  0
   61.2744   29.5772   50.3451 H   0  0  0  0  0  0  0  0  0  0  0  0
   62.6577   31.6041   49.9018 H   0  0  0  0  0  0  0  0  0  0  0  0
   61.5195   31.4839   45.7322 H   0  0  0  0  0  0  0  0  0  0  0  0
   60.1311   29.4575   46.1638 H   0  0  0  0  0  0  0  0  0  0  0  0
   57.0730   29.8334   46.5979 H   0  0  0  0  0  0  0  0  0  0  0  0
   57.7613   31.1295   47.1207 H   0  0  0  0  0  0  0  0  0  0  0  0
   58.3619   31.9614   51.4738 H   0  0  0  0  0  0  0  0  0  0  0  0
   57.2513   32.8789   50.4008 H   0  0  0  0  0  0  0  0  0  0  0  0
   57.2202   31.0829   50.4008 H   0  0  0  0  0  0  0  0  0  0  0  0
  1  2  1  0
  2  3  1  0
  3  4  2  0
  4  5  1  0
  5  6  2  0
  6  7  1  0
  7  8  2  0
  7  9  1  0
  9 10  1  0
 10 11  1  0
 11 12  2  0
 12 13  1  0
 13 14  2  0
 14 15  1  0
 15 16  1  0
 16 17  1  0
 17 18  2  0
 17 19  1  0
 19 20  2  0
 20 21  1  0
 21 22  2  0
 22 23  1  0
 22 24  1  0
 24 25  2  0
 15 26  2  0
  6 27  1  0
 27 28  2  0
 28 29  1  0
 29 30  1  0
 28  3  1  0
 26 11  1  0
 25 19  1  0
  1 31  1  0
  1 32  1  0
  1 33  1  0
  4 34  1  0
  5 35  1  0
 10 36  1  0
 10 37  1  0
 12 38  1  0
 13 39  1  0
 14 40  1  0
 20 41  1  0
 21 42  1  0
 24 43  1  0
 25 44  1  0
 26 45  1  0
 27 46  1  0
 30 47  1  0
 30 48  1  0
 30 49  1  0
M  CHG  2   9  -1  16  -1
M  END
>  <UniqueID>  (61) 
53

>  <SMILES>  (61) 
COc1ccc(C(=O)[N-]Cc2cccc([N-]C(=O)c3ccc(Br)cc3)c2)cc1OC

>  <Energy>  (61) 
53.229396039599344

>  <Genealogy>  (61) 
COc1ccc(C(=O)[N-]Cc2cccc([N-]C(=O)c3ccc(Br)cc3)c2)cc1OC (protonated)
COc1ccc(C(=O)[N-]Cc2cccc([N-]C(=O)c3ccc(Br)cc3)c2)cc1OC (3D coordinates assigned)
COc1ccc(C(=O)[N-]Cc2cccc([N-]C(=O)c3ccc(Br)cc3)c2)cc1OC (optimized conformer: 53.229396039599344 kcal/mol)

>  <smiles>  (61) 
COc1ccc(C(=O)NCc2cccc(NC(=O)c3ccc(Br)cc3)c2)cc1OC

>  <score_type>  (61) 
oracle

>  <origin>  (61) 
adg

>  <m_score__min__energy>  (61) 
-11.74

>  <m_primary>  (61) 
energy

$$$$
61:0
     RDKit          3D

 46 49  0  0  0  0  0  0  0  0999 V2000
   60.2120   26.0140   47.8850 O   0  0  0  0  0  0  0  0  0  0  0  0
   59.6570   25.5890   46.8370 C   0  0  0  0  0  0  0  0  0  0  0  0
   60.3580   24.7430   45.9850 O   0  0  0  0  0  0  0  0  0  0  0  0
   58.2930   26.0320   46.4830 C   0  0  0  0  0  0  0  0  0  0  0  0
   57.2550   25.0710   46.5120 C   0  0  0  0  0  0  0  0  0  0  0  0
   57.5120   23.7000   46.8610 N   0  0  0  0  0  0  0  0  0  0  0  0
   58.3100   22.8390   45.9880 C   0  0  0  0  0  0  0  0  0  0  0  0
   57.6580   21.4550   45.9170 C   0  0  0  0  0  0  0  0  0  0  0  0
   57.4320   20.9390   47.2170 O   0  0  0  0  0  0  0  0  0  0  0  0
   56.4830   21.7420   47.8970 C   0  0  0  0  0  0  0  0  0  0  0  0
   57.0310   23.1540   48.1300 C   0  0  0  0  0  0  0  0  0  0  0  0
   55.9600   25.4290   46.1450 C   0  0  0  0  0  0  0  0  0  0  0  0
   55.6740   26.7210   45.7250 C   0  0  0  0  0  0  0  0  0  0  0  0
   56.6770   27.7030   45.6900 C   0  0  0  0  0  0  0  0  0  0  0  0
   57.9960   27.3790   46.0970 C   0  0  0  0  0  0  0  0  0  0  0  0
   58.9420   28.4370   46.1270 C   0  0  0  0  0  0  0  0  0  0  0  0
   60.1050   28.2370   46.5730 O   0  0  0  0  0  0  0  0  0  0  0  0
   58.5990   29.6940   45.6940 N   0  0  0  0  0  0  0  0  0  0  0  0
   59.5940   30.7890   45.7380 C   0  0  0  0  0  0  0  0  0  0  0  0
   59.5070   31.5310   47.0480 C   0  0  0  0  0  0  0  0  0  0  0  0
   59.6730   32.9250   47.0900 C   0  0  0  0  0  0  0  0  0  0  0  0
   59.6290   33.6050   48.3100 C   0  0  0  0  0  0  0  0  0  0  0  0
   59.4210   32.9000   49.5000 C   0  0  0  0  0  0  0  0  0  0  0  0
   59.3690   33.7560   51.0300 Cl  0  0  0  0  0  0  0  0  0  0  0  0
   59.2550   31.5120   49.4670 C   0  0  0  0  0  0  0  0  0  0  0  0
   59.2990   30.8290   48.2480 C   0  0  0  0  0  0  0  0  0  0  0  0
   57.3230   29.9480   45.2640 C   0  0  0  0  0  0  0  0  0  0  0  0
   57.0050   31.1000   44.8560 O   0  0  0  0  0  0  0  0  0  0  0  0
   56.3790   28.9700   45.2760 N   0  0  0  0  0  0  0  0  0  0  0  0
   55.1030   29.2810   44.8560 O   0  0  0  0  0  0  0  0  0  0  0  0
   58.3551   23.2770   44.9800 H   0  0  0  0  0  0  0  0  0  0  0  0
   59.3301   22.7479   46.3894 H   0  0  0  0  0  0  0  0  0  0  0  0
   56.6966   21.5358   45.3887 H   0  0  0  0  0  0  0  0  0  0  0  0
   58.3337   20.7736   45.3793 H   0  0  0  0  0  0  0  0  0  0  0  0
   55.5661   21.8063   47.2926 H   0  0  0  0  0  0  0  0  0  0  0  0
   56.2674   21.2824   48.8728 H   0  0  0  0  0  0  0  0  0  0  0  0
   56.2324   23.7973   48.5279 H   0  0  0  0  0  0  0  0  0  0  0  0
   57.8597   23.1137   48.8522 H   0  0  0  0  0  0  0  0  0  0  0  0
   55.1554   24.6802   46.1884 H   0  0  0  0  0  0  0  0  0  0  0  0
   54.6501   26.9783   45.4162 H   0  0  0  0  0  0  0  0  0  0  0  0
   60.6032   30.3654   45.6285 H   0  0  0  0  0  0  0  0  0  0  0  0
   59.3858   31.4913   44.9174 H   0  0  0  0  0  0  0  0  0  0  0  0
   59.8385   33.4845   46.1575 H   0  0  0  0  0  0  0  0  0  0  0  0
   59.7582   34.6971   48.3345 H   0  0  0  0  0  0  0  0  0  0  0  0
   59.0895   30.9565   50.4019 H   0  0  0  0  0  0  0  0  0  0  0  0
   59.1702   29.7368   48.2278 H   0  0  0  0  0  0  0  0  0  0  0  0
  1  2  2  0
  2  3  1  0
  2  4  1  0
  4  5  2  0
  5  6  1  0
  6  7  1  0
  7  8  1  0
  8  9  1  0
  9 10  1  0
 10 11  1  0
  5 12  1  0
 12 13  2  0
 13 14  1  0
 14 15  2  0
 15 16  1  0
 16 17  2  0
 16 18  1  0
 18 19  1  0
 19 20  1  0
 20 21  2  0
 21 22  1  0
 22 23  2  0
 23 24  1  0
 23 25  1  0
 25 26  2  0
 18 27  1  0
 27 28  2  0
 27 29  1  0
 29 30  1  0
 15  4  1  0
 26 20  1  0
 11  6  1  0
 29 14  1  0
  7 31  1  0
  7 32  1  0
  8 33  1  0
  8 34  1  0
 10 35  1  0
 10 36  1  0
 11 37  1  0
 11 38  1  0
 12 39  1  0
 13 40  1  0
 19 41  1  0
 19 42  1  0
 21 43  1  0
 22 44  1  0
 25 45  1  0
 26 46  1  0
M  CHG  2   3  -1  30  -1
M  END
>  <UniqueID>  (62) 
54

>  <SMILES>  (62) 
O=C([O-])c1c(N2CCOCC2)ccc2c1c(=O)n(Cc1ccc(Cl)cc1)c(=O)n2[O-]

>  <Energy>  (62) 
78.51460498189415

>  <Genealogy>  (62) 
O=C([O-])c1c(N2CCOCC2)ccc2c1c(=O)n(Cc1ccc(Cl)cc1)c(=O)n2[O-] (protonated)
O=C([O-])c1c(N2CCOCC2)ccc2c1c(=O)n(Cc1ccc(Cl)cc1)c(=O)n2[O-] (3D coordinates assigned)
O=C([O-])c1c(N2CCOCC2)ccc2c1c(=O)n(Cc1ccc(Cl)cc1)c(=O)n2[O-] (nonaromatic ring conformer: 78.51460498189415 kcal/mol)

>  <smiles>  (62) 
O=C(O)c1c(N2CCOCC2)ccc2c1c(=O)n(Cc1ccc(Cl)cc1)c(=O)n2O

>  <score_type>  (62) 
oracle

>  <origin>  (62) 
adg

>  <m_score__min__energy>  (62) 
-10.66

>  <m_primary>  (62) 
energy

$$$$
62:0
     RDKit          3D

 40 44  0  0  0  0  0  0  0  0999 V2000
   58.2648   26.8309   44.1631 H   0  0  0  0  0  0  0  0  0  0  0  0
   57.7070   27.1660   45.0500 C   0  0  0  0  0  0  0  0  0  0  0  0
   57.1950   26.1350   45.9680 C   0  0  0  0  0  0  0  0  0  0  0  0
   57.9480   25.1310   46.4480 N   0  0  0  0  0  0  0  0  0  0  0  0
   57.0670   24.3820   47.1450 C   0  0  0  0  0  0  0  0  0  0  0  0
   57.4030   23.3430   47.7680 O   0  0  0  0  0  0  0  0  0  0  0  0
   55.7930   24.8310   47.1150 N   0  0  0  0  0  0  0  0  0  0  0  0
   55.8890   25.9330   46.3540 C   0  0  0  0  0  0  0  0  0  0  0  0
   54.7970   26.7080   45.9830 O   0  0  0  0  0  0  0  0  0  0  0  0
   57.5400   28.4850   45.2210 C   0  0  0  0  0  0  0  0  0  0  0  0
   56.6610   29.2970   44.5060 C   0  0  0  0  0  0  0  0  0  0  0  0
   55.9847   28.9467   43.7123 H   0  0  0  0  0  0  0  0  0  0  0  0
   56.7600   30.5800   44.9300 N   0  0  0  0  0  0  0  0  0  0  0  0
   57.6820   30.5950   45.8780 N   0  0  0  0  0  0  0  0  0  0  0  0
   58.1400   31.6620   46.5740 C   0  0  0  0  0  0  0  0  0  0  0  0
   57.6400   32.8450   46.3760 N   0  0  0  0  0  0  0  0  0  0  0  0
   58.4280   34.0710   46.4450 C   0  0  0  0  0  0  0  0  0  0  0  0
   57.9756   34.4878   47.3569 H   0  0  0  0  0  0  0  0  0  0  0  0
   59.8410   33.8930   45.9220 C   0  0  0  0  0  0  0  0  0  0  0  0
   60.6721   34.4473   46.3825 H   0  0  0  0  0  0  0  0  0  0  0  0
   60.5069   33.0334   45.7557 H   0  0  0  0  0  0  0  0  0  0  0  0
   58.8040   34.6310   45.0850 C   0  0  0  0  0  0  0  0  0  0  0  0
   58.8856   35.7185   44.9409 H   0  0  0  0  0  0  0  0  0  0  0  0
   58.4098   34.5259   44.0635 H   0  0  0  0  0  0  0  0  0  0  0  0
   59.1400   31.4560   47.4820 N   0  0  0  0  0  0  0  0  0  0  0  0
   59.6670   30.2080   47.6660 C   0  0  0  0  0  0  0  0  0  0  0  0
   60.6260   30.0480   48.5300 N   0  0  0  0  0  0  0  0  0  0  0  0
   60.9130   30.9550   49.6400 C   0  0  0  0  0  0  0  0  0  0  0  0
   61.6426   30.4842   50.3153 H   0  0  0  0  0  0  0  0  0  0  0  0
   61.3243   31.8939   49.2409 H   0  0  0  0  0  0  0  0  0  0  0  0
   59.6570   31.2530   50.3980 C   0  0  0  0  0  0  0  0  0  0  0  0
   58.5040   30.1110   50.8410 S   0  0  0  0  0  0  0  0  0  0  0  0
   57.4340   31.2130   51.5210 C   0  0  0  0  0  0  0  0  0  0  0  0
   55.8950   30.8050   52.2490 Cl  0  0  0  0  0  0  0  0  0  0  0  0
   57.9570   32.4920   51.3970 C   0  0  0  0  0  0  0  0  0  0  0  0
   57.4454   33.3945   51.7627 H   0  0  0  0  0  0  0  0  0  0  0  0
   59.2020   32.5160   50.7590 C   0  0  0  0  0  0  0  0  0  0  0  0
   59.7641   33.4410   50.5628 H   0  0  0  0  0  0  0  0  0  0  0  0
   59.1840   29.1490   46.9480 N   0  0  0  0  0  0  0  0  0  0  0  0
   58.1740   29.3690   46.0740 C   0  0  0  0  0  0  0  0  0  0  0  0
  1  2  1  0
  2  3  1  0
  3  4  1  0
  4  5  1  0
  5  6  2  0
  5  7  1  0
  7  8  1  0
  8  9  1  0
  2 10  2  3
 10 11  1  0
 11 12  1  0
 11 13  2  0
 13 14  1  0
 14 15  1  0
 15 16  2  0
 16 17  1  0
 17 18  1  0
 17 19  1  0
 19 20  1  0
 19 21  1  0
 19 22  1  0
 22 23  1  0
 22 24  1  0
 15 25  1  0
 25 26  1  0
 26 27  2  0
 27 28  1  0
 28 29  1  0
 28 30  1  0
 28 31  1  0
 31 32  1  0
 32 33  1  0
 33 34  1  0
 33 35  2  0
 35 36  1  0
 35 37  1  0
 37 38  1  0
 26 39  1  0
 39 40  2  0
  8  3  2  0
 40 10  1  0
 40 14  1  0
 22 17  1  0
 37 31  2  0
M  CHG  4   4  -1   7  -1   9  -1  25  -1
M  END
>  <UniqueID>  (63) 
55

>  <SMILES>  (63) 
O=c1[n-]c([O-])c(C=c2cnn3/c(=N/C4CC4)[n-]/c(=N/Cc4ccc(Cl)s4)nc23)[n-]1

>  <Energy>  (63) 
407.63898688582736

>  <Genealogy>  (63) 
O=c1[n-]c([O-])c(C=c2cnn3c(=NC4CC4)[n-]c(=NCc4ccc(Cl)s4)nc23)[n-]1 (protonated)
O=c1[n-]c([O-])c(C=c2cnn3/c(=N/C4CC4)[n-]/c(=N/Cc4ccc(Cl)s4)nc23)[n-]1 (cis-trans isomerization)
O=c1[n-]c([O-])c(C=c2cnn3/c(=N/C4CC4)[n-]/c(=N/Cc4ccc(Cl)s4)nc23)[n-]1 (3D coordinates assigned)
O=c1[n-]c([O-])c(C=c2cnn3/c(=N/C4CC4)[n-]/c(=N/Cc4ccc(Cl)s4)nc23)[n-]1 (nonaromatic ring conformer: 407.63898688582736 kcal/mol)

>  <smiles>  (63) 
O=c1[nH]c(O)c(C=c2cnn3c(=NC4CC4)[nH]c(=NCc4ccc(Cl)s4)nc23)[nH]1

>  <score_type>  (63) 
oracle

>  <origin>  (63) 
adg

>  <m_score__min__energy>  (63) 
-18.09

>  <m_primary>  (63) 
energy

$$$$
63:0
     RDKit          3D

 46 49  0  0  0  0  0  0  0  0999 V2000
   59.1640   34.3950   44.9480 C   0  0  0  0  0  0  0  0  0  0  0  0
   59.2930   33.9800   46.3880 C   0  0  0  0  0  0  0  0  0  0  0  0
   59.5730   34.9500   47.3660 C   0  0  0  0  0  0  0  0  0  0  0  0
   59.7010   34.5850   48.7090 C   0  0  0  0  0  0  0  0  0  0  0  0
   59.5390   33.2540   49.0910 C   0  0  0  0  0  0  0  0  0  0  0  0
   59.6500   32.9060   50.3970 F   0  0  0  0  0  0  0  0  0  0  0  0
   59.2480   32.2800   48.1330 C   0  0  0  0  0  0  0  0  0  0  0  0
   59.1290   32.6290   46.7760 C   0  0  0  0  0  0  0  0  0  0  0  0
   58.7960   31.6270   45.7990 N   0  0  0  0  0  0  0  0  0  0  0  0
   57.5390   31.5870   45.1060 C   0  0  0  0  0  0  0  0  0  0  0  0
   56.6370   32.4280   45.3630 O   0  0  0  0  0  0  0  0  0  0  0  0
   57.2560   30.4790   44.1390 C   0  0  0  0  0  0  0  0  0  0  0  0
   57.6910   29.2040   44.7050 N   0  0  0  0  0  0  0  0  0  0  0  0
   56.9210   28.2020   45.1620 C   0  0  0  0  0  0  0  0  0  0  0  0
   55.5340   28.2470   45.2470 O   0  0  0  0  0  0  0  0  0  0  0  0
   57.7270   27.1440   45.5180 C   0  0  0  0  0  0  0  0  0  0  0  0
   57.2870   25.8500   46.1280 C   0  0  0  0  0  0  0  0  0  0  0  0
   57.0930   24.8190   45.0590 C   0  0  0  0  0  0  0  0  0  0  0  0
   57.0850   25.0470   43.6860 C   0  0  0  0  0  0  0  0  0  0  0  0
   56.9740   23.8790   43.0130 N   0  0  0  0  0  0  0  0  0  0  0  0
   56.9250   22.9140   43.9490 C   0  0  0  0  0  0  0  0  0  0  0  0
   56.8310   21.5400   43.7410 C   0  0  0  0  0  0  0  0  0  0  0  0
   56.8150   20.7030   44.8720 C   0  0  0  0  0  0  0  0  0  0  0  0
   56.8930   21.2520   46.1710 C   0  0  0  0  0  0  0  0  0  0  0  0
   56.9900   22.6430   46.3510 C   0  0  0  0  0  0  0  0  0  0  0  0
   57.0010   23.4490   45.2110 C   0  0  0  0  0  0  0  0  0  0  0  0
   59.0190   27.4690   45.2910 N   0  0  0  0  0  0  0  0  0  0  0  0
   58.9490   28.7210   44.7880 C   0  0  0  0  0  0  0  0  0  0  0  0
   59.9670   29.3690   44.4270 O   0  0  0  0  0  0  0  0  0  0  0  0
   58.8378   35.4443   44.8966 H   0  0  0  0  0  0  0  0  0  0  0  0
   60.1376   34.2887   44.4471 H   0  0  0  0  0  0  0  0  0  0  0  0
   58.4222   33.7555   44.4471 H   0  0  0  0  0  0  0  0  0  0  0  0
   59.6922   36.0034   47.0724 H   0  0  0  0  0  0  0  0  0  0  0  0
   59.9300   35.3494   49.4661 H   0  0  0  0  0  0  0  0  0  0  0  0
   59.1110   31.2332   48.4421 H   0  0  0  0  0  0  0  0  0  0  0  0
   59.4550   30.8280   45.6610 H   0  0  0  0  0  0  0  0  0  0  0  0
   56.1756   30.4387   43.9360 H   0  0  0  0  0  0  0  0  0  0  0  0
   57.8026   30.6658   43.2029 H   0  0  0  0  0  0  0  0  0  0  0  0
   58.0539   25.5014   46.8353 H   0  0  0  0  0  0  0  0  0  0  0  0
   56.3349   26.0055   46.6565 H   0  0  0  0  0  0  0  0  0  0  0  0
   57.1586   26.0380   43.2144 H   0  0  0  0  0  0  0  0  0  0  0  0
   56.9480   23.7540   41.9780 H   0  0  0  0  0  0  0  0  0  0  0  0
   56.7712   21.1225   42.7251 H   0  0  0  0  0  0  0  0  0  0  0  0
   56.7412   19.6130   44.7435 H   0  0  0  0  0  0  0  0  0  0  0  0
   56.8778   20.5872   47.0472 H   0  0  0  0  0  0  0  0  0  0  0  0
   57.0551   23.0821   47.3575 H   0  0  0  0  0  0  0  0  0  0  0  0
  1  2  1  0
  2  3  2  0
  3  4  1  0
  4  5  2  0
  5  6  1  0
  5  7  1  0
  7  8  2  0
  8  9  1  0
  9 10  1  0
 10 11  2  0
 10 12  1  0
 12 13  1  0
 13 14  1  0
 14 15  1  0
 14 16  2  0
 16 17  1  0
 17 18  1  0
 18 19  2  0
 19 20  1  0
 20 21  1  0
 21 22  2  0
 22 23  1  0
 23 24  2  0
 24 25  1  0
 25 26  2  0
 16 27  1  0
 27 28  1  0
 28 29  2  0
  8  2  1  0
 28 13  1  0
 26 18  1  0
 26 21  1  0
  1 30  1  0
  1 31  1  0
  1 32  1  0
  3 33  1  0
  4 34  1  0
  7 35  1  0
  9 36  1  0
 12 37  1  0
 12 38  1  0
 17 39  1  0
 17 40  1  0
 19 41  1  0
 20 42  1  0
 22 43  1  0
 23 44  1  0
 24 45  1  0
 25 46  1  0
M  CHG  2  15  -1  27  -1
M  END
>  <UniqueID>  (64) 
56

>  <SMILES>  (64) 
Cc1ccc(F)cc1NC(=O)Cn1c([O-])c(Cc2c[nH]c3ccccc23)[n-]c1=O

>  <Energy>  (64) 
114.77243085886428

>  <Genealogy>  (64) 
Cc1ccc(F)cc1NC(=O)Cn1c([O-])c(Cc2c[nH]c3ccccc23)[n-]c1=O (protonated)
Cc1ccc(F)cc1NC(=O)Cn1c([O-])c(Cc2c[nH]c3ccccc23)[n-]c1=O (3D coordinates assigned)
Cc1ccc(F)cc1NC(=O)Cn1c([O-])c(Cc2c[nH]c3ccccc23)[n-]c1=O (optimized conformer: 114.77243085886428 kcal/mol)

>  <smiles>  (64) 
Cc1ccc(F)cc1NC(=O)Cn1c(O)c(Cc2c[nH]c3ccccc23)[nH]c1=O

>  <score_type>  (64) 
oracle

>  <origin>  (64) 
adg

>  <m_score__min__energy>  (64) 
-12.98

>  <m_primary>  (64) 
energy

$$$$
64:0
     RDKit          3D

 41 43  0  0  0  0  0  0  0  0999 V2000
   63.3855   32.1330   51.1920 H   0  0  0  0  0  0  0  0  0  0  0  0
   63.2290   32.4210   50.1420 C   0  0  0  0  0  0  0  0  0  0  0  0
   61.9530   32.3380   49.5780 C   0  0  0  0  0  0  0  0  0  0  0  0
   61.1082   31.9923   50.1918 H   0  0  0  0  0  0  0  0  0  0  0  0
   61.7380   32.6910   48.2370 C   0  0  0  0  0  0  0  0  0  0  0  0
   60.3950   32.5890   47.7330 N   0  0  0  0  0  0  0  0  0  0  0  0
   59.5350   33.7160   46.7330 S   0  0  0  0  0  0  0  0  0  0  0  0
   60.4810   34.7450   46.1800 O   0  0  0  0  0  0  0  0  0  0  0  0
   58.5180   34.4280   47.5790 O   0  0  0  0  0  0  0  0  0  0  0  0
   58.6820   32.8600   45.4500 C   0  0  0  0  0  0  0  0  0  0  0  0
   58.6840   33.3850   44.1550 C   0  0  0  0  0  0  0  0  0  0  0  0
   59.1999   34.3348   43.9508 H   0  0  0  0  0  0  0  0  0  0  0  0
   58.0350   32.7110   43.1190 C   0  0  0  0  0  0  0  0  0  0  0  0
   58.0533   33.1281   42.1013 H   0  0  0  0  0  0  0  0  0  0  0  0
   57.3590   31.5050   43.3650 C   0  0  0  0  0  0  0  0  0  0  0  0
   56.6560   30.8060   42.2310 C   0  0  0  0  0  0  0  0  0  0  0  0
   55.9312   30.0853   42.6375 H   0  0  0  0  0  0  0  0  0  0  0  0
   56.1284   31.5480   41.6137 H   0  0  0  0  0  0  0  0  0  0  0  0
   57.3950   30.2742   41.6137 H   0  0  0  0  0  0  0  0  0  0  0  0
   57.3520   30.9720   44.6740 C   0  0  0  0  0  0  0  0  0  0  0  0
   56.6470   29.7140   45.0000 C   0  0  0  0  0  0  0  0  0  0  0  0
   55.3950   29.6600   44.8720 O   0  0  0  0  0  0  0  0  0  0  0  0
   57.3540   28.5330   45.4060 N   0  0  0  0  0  0  0  0  0  0  0  0
   56.7990   27.4140   45.7620 C   0  0  0  0  0  0  0  0  0  0  0  0
   55.5240   27.1260   45.6340 O   0  0  0  0  0  0  0  0  0  0  0  0
   55.2820   25.9190   46.0510 N   0  0  0  0  0  0  0  0  0  0  0  0
   56.4570   25.4120   46.4760 C   0  0  0  0  0  0  0  0  0  0  0  0
   56.6300   24.0210   46.9880 C   0  0  0  0  0  0  0  0  0  0  0  0
   56.6286   24.0323   48.0879 H   0  0  0  0  0  0  0  0  0  0  0  0
   55.8032   23.3918   46.6267 H   0  0  0  0  0  0  0  0  0  0  0  0
   57.5857   23.6135   46.6267 H   0  0  0  0  0  0  0  0  0  0  0  0
   57.4670   26.3380   46.3000 C   0  0  0  0  0  0  0  0  0  0  0  0
   58.5378   26.2397   46.5320 H   0  0  0  0  0  0  0  0  0  0  0  0
   58.0200   31.6520   45.7060 C   0  0  0  0  0  0  0  0  0  0  0  0
   58.0233   31.2328   46.7230 H   0  0  0  0  0  0  0  0  0  0  0  0
   62.8320   33.1410   47.4650 C   0  0  0  0  0  0  0  0  0  0  0  0
   62.6950   33.5090   46.1720 F   0  0  0  0  0  0  0  0  0  0  0  0
   64.1030   33.2340   48.0410 C   0  0  0  0  0  0  0  0  0  0  0  0
   64.9497   33.5972   47.4400 H   0  0  0  0  0  0  0  0  0  0  0  0
   64.3050   32.8690   49.3740 C   0  0  0  0  0  0  0  0  0  0  0  0
   66.0480   32.9900   50.1440 Br  0  0  0  0  0  0  0  0  0  0  0  0
  1  2  1  0
  2  3  2  0
  3  4  1  0
  3  5  1  0
  5  6  1  0
  6  7  1  0
  7  8  2  0
  7  9  2  0
  7 10  1  0
 10 11  2  0
 11 12  1  0
 11 13  1  0
 13 14  1  0
 13 15  2  0
 15 16  1  0
 16 17  1  0
 16 18  1  0
 16 19  1  0
 15 20  1  0
 20 21  1  0
 21 22  2  0
 21 23  1  0
 23 24  2  0
 24 25  1  0
 25 26  1  0
 26 27  1  0
 27 28  1  0
 28 29  1  0
 28 30  1  0
 28 31  1  0
 27 32  2  0
 32 33  1  0
 20 34  2  0
 34 35  1  0
  5 36  2  0
 36 37  1  0
 36 38  1  0
 38 39  1  0
 38 40  2  0
 40 41  1  0
 40  2  1  0
 34 10  1  0
 32 24  1  0
M  CHG  2   6  -1  26  -1
M  END
>  <UniqueID>  (65) 
57

>  <SMILES>  (65) 
Cc1c/c(=N/C(=O)c2cc(S(=O)(=O)[N-]c3ccc(Br)cc3F)ccc2C)o[n-]1

>  <Energy>  (65) 
85.68847013080862

>  <Genealogy>  (65) 
Cc1cc(=NC(=O)c2cc(S(=O)(=O)[N-]c3ccc(Br)cc3F)ccc2C)o[n-]1 (protonated)
Cc1c/c(=N/C(=O)c2cc(S(=O)(=O)[N-]c3ccc(Br)cc3F)ccc2C)o[n-]1 (cis-trans isomerization)
Cc1c/c(=N/C(=O)c2cc(S(=O)(=O)[N-]c3ccc(Br)cc3F)ccc2C)o[n-]1 (3D coordinates assigned)
Cc1c/c(=N/C(=O)c2cc(S(=O)(=O)[N-]c3ccc(Br)cc3F)ccc2C)o[n-]1 (optimized conformer: 85.68847013080862 kcal/mol)

>  <smiles>  (65) 
Cc1cc(=NC(=O)c2cc(S(=O)(=O)Nc3ccc(Br)cc3F)ccc2C)o[nH]1

>  <score_type>  (65) 
oracle

>  <origin>  (65) 
adg

>  <m_score__min__energy>  (65) 
-14.09

>  <m_primary>  (65) 
energy

$$$$
65:0
     RDKit          3D

 40 42  0  0  0  0  0  0  0  0999 V2000
   58.3020   31.3090   47.1070 C   0  0  0  0  0  0  0  0  0  0  0  0
   58.8030   32.6090   46.6350 N   0  0  0  0  0  0  0  0  0  0  0  0
   59.8490   33.2610   47.4070 C   0  0  0  0  0  0  0  0  0  0  0  0
   60.5370   32.5410   48.4480 N   0  0  0  0  0  0  0  0  0  0  0  0
   61.9560   32.6210   48.6650 C   0  0  0  0  0  0  0  0  0  0  0  0
   62.8030   33.2760   47.7490 C   0  0  0  0  0  0  0  0  0  0  0  0
   64.1830   33.3230   47.9720 C   0  0  0  0  0  0  0  0  0  0  0  0
   64.7310   32.7090   49.1020 C   0  0  0  0  0  0  0  0  0  0  0  0
   63.9010   32.0440   50.0060 C   0  0  0  0  0  0  0  0  0  0  0  0
   62.5210   31.9940   49.7870 C   0  0  0  0  0  0  0  0  0  0  0  0
   60.1360   34.5170   47.2070 N   0  0  0  0  0  0  0  0  0  0  0  0
   59.5570   35.2550   46.1330 C   0  0  0  0  0  0  0  0  0  0  0  0
   59.6930   36.5060   46.0760 O   0  0  0  0  0  0  0  0  0  0  0  0
   58.8870   34.5200   45.0270 C   0  0  0  0  0  0  0  0  0  0  0  0
   58.0370   33.3540   45.6020 C   0  0  2  0  0  0  0  0  0  0  0  0
   56.8770   33.8600   46.2280 O   0  0  0  0  0  0  0  0  0  0  0  0
   57.6740   32.4280   44.4330 C   0  0  0  0  0  0  0  0  0  0  0  0
   56.8590   31.2880   44.6060 C   0  0  0  0  0  0  0  0  0  0  0  0
   56.5360   30.4740   43.5150 C   0  0  0  0  0  0  0  0  0  0  0  0
   57.0120   30.7840   42.2410 C   0  0  0  0  0  0  0  0  0  0  0  0
   57.8140   31.9110   42.0510 C   0  0  0  0  0  0  0  0  0  0  0  0
   58.1410   32.7290   43.1360 C   0  0  0  0  0  0  0  0  0  0  0  0
   58.2968   31.2955   48.2069 H   0  0  0  0  0  0  0  0  0  0  0  0
   57.2792   31.1527   46.7335 H   0  0  0  0  0  0  0  0  0  0  0  0
   58.9553   30.5067   46.7335 H   0  0  0  0  0  0  0  0  0  0  0  0
   59.9760   31.9500   49.1020 H   0  0  0  0  0  0  0  0  0  0  0  0
   62.3768   33.7528   46.8540 H   0  0  0  0  0  0  0  0  0  0  0  0
   64.8377   33.8436   47.2576 H   0  0  0  0  0  0  0  0  0  0  0  0
   65.8159   32.7499   49.2787 H   0  0  0  0  0  0  0  0  0  0  0  0
   64.3337   31.5581   50.8929 H   0  0  0  0  0  0  0  0  0  0  0  0
   61.8738   31.4600   50.4983 H   0  0  0  0  0  0  0  0  0  0  0  0
   60.8130   35.0070   47.8350 H   0  0  0  0  0  0  0  0  0  0  0  0
   58.2322   35.2104   44.4751 H   0  0  0  0  0  0  0  0  0  0  0  0
   59.6516   34.1100   44.3508 H   0  0  0  0  0  0  0  0  0  0  0  0
   56.4870   34.5770   45.6620 H   0  0  0  0  0  0  0  0  0  0  0  0
   56.4752   31.0381   45.6061 H   0  0  0  0  0  0  0  0  0  0  0  0
   55.9040   29.5858   43.6624 H   0  0  0  0  0  0  0  0  0  0  0  0
   56.7556   30.1408   41.3863 H   0  0  0  0  0  0  0  0  0  0  0  0
   58.1889   32.1554   41.0462 H   0  0  0  0  0  0  0  0  0  0  0  0
   58.7696   33.6176   42.9770 H   0  0  0  0  0  0  0  0  0  0  0  0
  1  2  1  0
  2  3  1  0
  3  4  1  0
  4  5  1  0
  5  6  2  0
  6  7  1  0
  7  8  2  0
  8  9  1  0
  9 10  2  0
  3 11  2  0
 11 12  1  0
 12 13  2  0
 12 14  1  0
 14 15  1  0
 15 16  1  1
 15 17  1  0
 17 18  2  0
 18 19  1  0
 19 20  2  0
 20 21  1  0
 21 22  2  0
 15  2  1  0
 22 17  1  0
 10  5  1  0
  1 23  1  0
  1 24  1  0
  1 25  1  0
  4 26  1  0
  6 27  1  0
  7 28  1  0
  8 29  1  0
  9 30  1  0
 10 31  1  0
 11 32  1  0
 14 33  1  0
 14 34  1  0
 16 35  1  0
 18 36  1  0
 19 37  1  0
 20 38  1  0
 21 39  1  0
 22 40  1  0
M  CHG  1  11   1
M  END
>  <UniqueID>  (66) 
58

>  <SMILES>  (66) 
CN1C(Nc2ccccc2)=[NH+]C(=O)C[C@@]1(O)c1ccccc1

>  <Energy>  (66) 
54.172574588466304

>  <Genealogy>  (66) 
CN1C(Nc2ccccc2)=[NH+]C(=O)CC1(O)c1ccccc1 (protonated)
CN1C(Nc2ccccc2)=[NH+]C(=O)C[C@@]1(O)c1ccccc1 (chirality)
CN1C(Nc2ccccc2)=[NH+]C(=O)C[C@@]1(O)c1ccccc1 (3D coordinates assigned)
CN1C(Nc2ccccc2)=[NH+]C(=O)C[C@@]1(O)c1ccccc1 (nonaromatic ring conformer: 54.172574588466304 kcal/mol)

>  <smiles>  (66) 
CN1C(Nc2ccccc2)=NC(=O)CC1(O)c1ccccc1

>  <score_type>  (66) 
oracle

>  <origin>  (66) 
adg

>  <m_score__min__energy>  (66) 
-5.8600000000000003

>  <m_primary>  (66) 
energy

$$$$
66:0
     RDKit          3D

 30 32  0  0  0  0  0  0  0  0999 V2000
   56.6120   23.3950   42.4490 N   0  0  0  0  0  0  0  0  0  0  0  0
   56.7900   23.2100   43.8560 C   0  0  0  0  0  0  0  0  0  0  0  0
   56.6520   21.9360   44.4230 C   0  0  0  0  0  0  0  0  0  0  0  0
   56.8280   21.7560   45.7950 C   0  0  0  0  0  0  0  0  0  0  0  0
   57.1410   22.8440   46.6160 C   0  0  0  0  0  0  0  0  0  0  0  0
   57.3170   22.6350   47.9800 O   0  0  0  0  0  0  0  0  0  0  0  0
   57.2790   24.1320   46.0610 C   0  0  0  0  0  0  0  0  0  0  0  0
   57.5890   25.3230   46.9350 C   0  0  0  0  0  0  0  0  0  0  0  0
   57.2180   26.6050   46.2450 C   0  0  0  0  0  0  0  0  0  0  0  0
   55.9430   27.0340   45.8930 C   0  0  0  0  0  0  0  0  0  0  0  0
   54.7700   26.3460   46.1740 O   0  0  0  0  0  0  0  0  0  0  0  0
   55.9610   28.2190   45.2400 N   0  0  0  0  0  0  0  0  0  0  0  0
   57.2670   28.5390   45.1780 C   0  0  0  0  0  0  0  0  0  0  0  0
   57.8140   29.6800   44.5930 C   0  0  0  0  0  0  0  0  0  0  0  0
   59.2110   29.8380   44.6320 C   0  0  0  0  0  0  0  0  0  0  0  0
   60.0250   28.8640   45.2500 C   0  0  0  0  0  0  0  0  0  0  0  0
   61.4040   29.0340   45.2830 O   0  0  0  0  0  0  0  0  0  0  0  0
   59.4480   27.7210   45.8330 C   0  0  0  0  0  0  0  0  0  0  0  0
   58.0600   27.5890   45.7750 C   0  0  0  0  0  0  0  0  0  0  0  0
   57.1050   24.3020   44.6770 C   0  0  0  0  0  0  0  0  0  0  0  0
   56.0960   22.6880   41.8780 H   0  0  0  0  0  0  0  0  0  0  0  0
   56.9930   24.2400   41.9680 H   0  0  0  0  0  0  0  0  0  0  0  0
   56.4042   21.0754   43.7843 H   0  0  0  0  0  0  0  0  0  0  0  0
   56.7200   20.7530   46.2335 H   0  0  0  0  0  0  0  0  0  0  0  0
   57.0189   25.2402   47.8721 H   0  0  0  0  0  0  0  0  0  0  0  0
   58.6692   25.3352   47.1424 H   0  0  0  0  0  0  0  0  0  0  0  0
   57.1720   30.4345   44.1150 H   0  0  0  0  0  0  0  0  0  0  0  0
   59.6728   30.7270   44.1776 H   0  0  0  0  0  0  0  0  0  0  0  0
   60.0711   26.9558   46.3190 H   0  0  0  0  0  0  0  0  0  0  0  0
   57.2171   25.3022   44.2331 H   0  0  0  0  0  0  0  0  0  0  0  0
  1  2  1  0
  2  3  2  0
  3  4  1  0
  4  5  2  0
  5  6  1  0
  5  7  1  0
  7  8  1  0
  8  9  1  0
  9 10  2  0
 10 11  1  0
 10 12  1  0
 12 13  1  0
 13 14  2  0
 14 15  1  0
 15 16  2  0
 16 17  1  0
 16 18  1  0
 18 19  2  0
  7 20  2  0
 20  2  1  0
 19  9  1  0
 19 13  1  0
  1 21  1  0
  1 22  1  0
  3 23  1  0
  4 24  1  0
  8 25  1  0
  8 26  1  0
 14 27  1  0
 15 28  1  0
 18 29  1  0
 20 30  1  0
M  CHG  4   6  -1  11  -1  12  -1  17  -1
M  END
>  <UniqueID>  (67) 
59

>  <SMILES>  (67) 
Nc1ccc([O-])c(Cc2c([O-])[n-]c3ccc([O-])cc23)c1

>  <Energy>  (67) 
63.86104649715959

>  <Genealogy>  (67) 
Nc1ccc([O-])c(Cc2c([O-])[n-]c3ccc([O-])cc23)c1 (protonated)
Nc1ccc([O-])c(Cc2c([O-])[n-]c3ccc([O-])cc23)c1 (3D coordinates assigned)
Nc1ccc([O-])c(Cc2c([O-])[n-]c3ccc([O-])cc23)c1 (optimized conformer: 63.86104649715959 kcal/mol)

>  <smiles>  (67) 
Nc1ccc(O)c(Cc2c(O)[nH]c3ccc(O)cc23)c1

>  <score_type>  (67) 
oracle

>  <origin>  (67) 
adg

>  <m_score__min__energy>  (67) 
-16.66

>  <m_primary>  (67) 
energy

$$$$
67:0
     RDKit          3D

 45 47  0  0  0  0  0  0  0  0999 V2000
   52.4240   24.5420   52.4180 C   0  0  0  0  0  0  0  0  0  0  0  0
   52.9460   23.3110   51.9280 O   0  0  0  0  0  0  0  0  0  0  0  0
   52.7370   22.8230   50.6290 C   0  0  0  0  0  0  0  0  0  0  0  0
   53.8560   22.5270   49.8420 C   0  0  0  0  0  0  0  0  0  0  0  0
   53.6980   22.0570   48.5340 C   0  0  0  0  0  0  0  0  0  0  0  0
   52.4170   21.8750   48.0000 C   0  0  0  0  0  0  0  0  0  0  0  0
   52.2310   21.3550   46.3270 S   0  0  0  0  0  0  0  0  0  0  0  0
   53.0240   20.0950   46.1200 O   0  0  0  0  0  0  0  0  0  0  0  0
   50.7870   21.0820   46.0130 O   0  0  0  0  0  0  0  0  0  0  0  0
   52.8190   22.5810   45.2490 N   0  0  0  0  0  0  0  0  0  0  0  0
   54.0740   23.2670   45.3780 C   0  0  0  0  0  0  0  0  0  0  0  0
   54.1420   24.6550   45.5930 C   0  0  0  0  0  0  0  0  0  0  0  0
   55.3730   25.2960   45.7670 C   0  0  0  0  0  0  0  0  0  0  0  0
   55.3640   26.7060   46.0390 N   0  0  0  0  0  0  0  0  0  0  0  0
   56.2650   27.7160   45.5620 C   0  0  0  0  0  0  0  0  0  0  0  0
   57.5120   27.5790   45.6720 O   0  0  0  0  0  0  0  0  0  0  0  0
   55.7520   28.9010   44.9460 N   0  0  0  0  0  0  0  0  0  0  0  0
   56.5430   29.9820   44.4310 C   0  0  0  0  0  0  0  0  0  0  0  0
   57.4800   30.6620   45.2330 C   0  0  0  0  0  0  0  0  0  0  0  0
   58.2520   31.6950   44.6890 C   0  0  0  0  0  0  0  0  0  0  0  0
   58.1060   32.0460   43.3440 C   0  0  0  0  0  0  0  0  0  0  0  0
   57.1940   31.3570   42.5370 C   0  0  0  0  0  0  0  0  0  0  0  0
   57.0600   31.6920   41.2290 F   0  0  0  0  0  0  0  0  0  0  0  0
   56.4230   30.3230   43.0770 C   0  0  0  0  0  0  0  0  0  0  0  0
   56.5590   24.5510   45.6430 C   0  0  0  0  0  0  0  0  0  0  0  0
   56.5000   23.1750   45.4050 C   0  0  0  0  0  0  0  0  0  0  0  0
   55.2630   22.5290   45.2840 C   0  0  0  0  0  0  0  0  0  0  0  0
   55.2090   21.1540   45.0590 O   0  0  0  0  0  0  0  0  0  0  0  0
   51.2940   22.1550   48.7880 C   0  0  0  0  0  0  0  0  0  0  0  0
   51.4480   22.6260   50.0950 C   0  0  0  0  0  0  0  0  0  0  0  0
   52.4289   24.5304   53.5179 H   0  0  0  0  0  0  0  0  0  0  0  0
   53.0468   25.3739   52.0573 H   0  0  0  0  0  0  0  0  0  0  0  0
   51.3931   24.6726   52.0573 H   0  0  0  0  0  0  0  0  0  0  0  0
   54.8662   22.6649   50.2548 H   0  0  0  0  0  0  0  0  0  0  0  0
   54.5838   21.8296   47.9228 H   0  0  0  0  0  0  0  0  0  0  0  0
   53.2141   25.2449   45.6248 H   0  0  0  0  0  0  0  0  0  0  0  0
   57.6053   30.3807   46.2890 H   0  0  0  0  0  0  0  0  0  0  0  0
   58.9749   32.2315   45.3211 H   0  0  0  0  0  0  0  0  0  0  0  0
   58.7077   32.8635   42.9201 H   0  0  0  0  0  0  0  0  0  0  0  0
   55.7182   29.7740   42.4353 H   0  0  0  0  0  0  0  0  0  0  0  0
   57.5343   25.0516   45.7334 H   0  0  0  0  0  0  0  0  0  0  0  0
   57.4306   22.5959   45.3121 H   0  0  0  0  0  0  0  0  0  0  0  0
   54.3900   20.6080   45.3030 H   0  0  0  0  0  0  0  0  0  0  0  0
   50.2852   22.0035   48.3763 H   0  0  0  0  0  0  0  0  0  0  0  0
   50.5609   22.8434   50.7081 H   0  0  0  0  0  0  0  0  0  0  0  0
  1  2  1  0
  2  3  1  0
  3  4  2  0
  4  5  1  0
  5  6  2  0
  6  7  1  0
  7  8  2  0
  7  9  2  0
  7 10  1  0
 10 11  1  0
 11 12  2  0
 12 13  1  0
 13 14  1  0
 14 15  1  0
 15 16  2  0
 15 17  1  0
 17 18  1  0
 18 19  2  0
 19 20  1  0
 20 21  2  0
 21 22  1  0
 22 23  1  0
 22 24  2  0
 13 25  2  0
 25 26  1  0
 26 27  2  0
 27 28  1  0
  6 29  1  0
 29 30  2  0
 30  3  1  0
 27 11  1  0
 24 18  1  0
  1 31  1  0
  1 32  1  0
  1 33  1  0
  4 34  1  0
  5 35  1  0
 12 36  1  0
 19 37  1  0
 20 38  1  0
 21 39  1  0
 24 40  1  0
 25 41  1  0
 26 42  1  0
 28 43  1  0
 29 44  1  0
 30 45  1  0
M  CHG  3  10  -1  14  -1  17  -1
M  END
>  <UniqueID>  (68) 
60

>  <SMILES>  (68) 
COc1ccc(S(=O)(=O)[N-]c2cc([N-]C(=O)[N-]c3cccc(F)c3)ccc2O)cc1

>  <Energy>  (68) 
55.62181852940482

>  <Genealogy>  (68) 
COc1ccc(S(=O)(=O)[N-]c2cc([N-]C(=O)[N-]c3cccc(F)c3)ccc2O)cc1 (protonated)
COc1ccc(S(=O)(=O)[N-]c2cc([N-]C(=O)[N-]c3cccc(F)c3)ccc2O)cc1 (3D coordinates assigned)
COc1ccc(S(=O)(=O)[N-]c2cc([N-]C(=O)[N-]c3cccc(F)c3)ccc2O)cc1 (optimized conformer: 55.62181852940482 kcal/mol)

>  <smiles>  (68) 
COc1ccc(S(=O)(=O)Nc2cc(NC(=O)Nc3cccc(F)c3)ccc2O)cc1

>  <score_type>  (68) 
oracle

>  <origin>  (68) 
adg

>  <m_score__min__energy>  (68) 
-12.359999999999999

>  <m_primary>  (68) 
energy

$$$$
68:0
     RDKit          3D

 46 48  0  0  0  0  0  0  0  0999 V2000
   55.9070   28.3640   45.2500 O   0  0  0  0  0  0  0  0  0  0  0  0
   56.7970   27.4710   45.2780 C   0  0  0  0  0  0  0  0  0  0  0  0
   57.8060   27.3920   44.1760 C   0  0  0  0  0  0  0  0  0  0  0  0
   58.9390   28.4040   44.4060 C   0  0  0  0  0  0  0  0  0  0  0  0
   59.1550   28.6640   45.8800 C   0  0  0  0  0  0  0  0  0  0  0  0
   59.7990   27.6750   46.6450 C   0  0  0  0  0  0  0  0  0  0  0  0
   59.9890   27.8470   48.0180 C   0  0  0  0  0  0  0  0  0  0  0  0
   59.5330   29.0040   48.6470 C   0  0  0  0  0  0  0  0  0  0  0  0
   58.8920   29.9980   47.9070 C   0  0  0  0  0  0  0  0  0  0  0  0
   58.7090   29.8510   46.5220 C   0  0  0  0  0  0  0  0  0  0  0  0
   58.0200   30.9370   45.7910 C   0  0  0  0  0  0  0  0  0  0  0  0
   56.9450   30.6720   45.1890 O   0  0  0  0  0  0  0  0  0  0  0  0
   58.5510   32.3210   45.7620 C   0  0  0  0  0  0  0  0  0  0  0  0
   59.7050   32.6660   46.4900 C   0  0  0  0  0  0  0  0  0  0  0  0
   60.2060   33.9690   46.4430 C   0  0  0  0  0  0  0  0  0  0  0  0
   59.5600   34.9410   45.6770 C   0  0  0  0  0  0  0  0  0  0  0  0
   58.4060   34.6150   44.9620 C   0  0  0  0  0  0  0  0  0  0  0  0
   57.8980   33.3120   45.0080 C   0  0  0  0  0  0  0  0  0  0  0  0
   56.8800   26.5700   46.3830 N   0  0  0  0  0  0  0  0  0  0  0  0
   55.9820   25.0910   46.4180 S   0  0  0  0  0  0  0  0  0  0  0  0
   55.8880   24.6060   47.8380 O   0  0  0  0  0  0  0  0  0  0  0  0
   54.5980   25.3330   45.8860 O   0  0  0  0  0  0  0  0  0  0  0  0
   56.7940   23.9030   45.4030 C   0  0  0  0  0  0  0  0  0  0  0  0
   56.1290   23.3730   44.2880 C   0  0  0  0  0  0  0  0  0  0  0  0
   56.7670   22.4390   43.4680 C   0  0  0  0  0  0  0  0  0  0  0  0
   58.0730   22.0320   43.7550 C   0  0  0  0  0  0  0  0  0  0  0  0
   58.7400   22.5580   44.8650 C   0  0  0  0  0  0  0  0  0  0  0  0
   58.1030   23.4910   45.6890 C   0  0  0  0  0  0  0  0  0  0  0  0
   58.2288   26.3770   44.1451 H   0  0  0  0  0  0  0  0  0  0  0  0
   57.3092   27.6267   43.2230 H   0  0  0  0  0  0  0  0  0  0  0  0
   59.8683   28.0056   43.9728 H   0  0  0  0  0  0  0  0  0  0  0  0
   58.6594   29.3525   43.9242 H   0  0  0  0  0  0  0  0  0  0  0  0
   60.1568   26.7564   46.1569 H   0  0  0  0  0  0  0  0  0  0  0  0
   60.4993   27.0681   48.6037 H   0  0  0  0  0  0  0  0  0  0  0  0
   59.6788   29.1338   49.7295 H   0  0  0  0  0  0  0  0  0  0  0  0
   58.5269   30.9043   48.4123 H   0  0  0  0  0  0  0  0  0  0  0  0
   60.2152   31.9054   47.0993 H   0  0  0  0  0  0  0  0  0  0  0  0
   61.1114   34.2298   47.0107 H   0  0  0  0  0  0  0  0  0  0  0  0
   59.9606   35.9647   45.6367 H   0  0  0  0  0  0  0  0  0  0  0  0
   57.8958   35.3830   44.3621 H   0  0  0  0  0  0  0  0  0  0  0  0
   56.9829   33.0616   44.4513 H   0  0  0  0  0  0  0  0  0  0  0  0
   55.1021   23.6935   44.0583 H   0  0  0  0  0  0  0  0  0  0  0  0
   56.2411   22.0236   42.5958 H   0  0  0  0  0  0  0  0  0  0  0  0
   58.5756   21.2982   43.1077 H   0  0  0  0  0  0  0  0  0  0  0  0
   59.7678   22.2375   45.0907 H   0  0  0  0  0  0  0  0  0  0  0  0
   58.6297   23.9022   46.5628 H   0  0  0  0  0  0  0  0  0  0  0  0
  1  2  2  0
  2  3  1  0
  3  4  1  0
  4  5  1  0
  5  6  2  0
  6  7  1  0
  7  8  2  0
  8  9  1  0
  9 10  2  0
 10 11  1  0
 11 12  2  0
 11 13  1  0
 13 14  2  0
 14 15  1  0
 15 16  2  0
 16 17  1  0
 17 18  2  0
  2 19  1  0
 19 20  1  0
 20 21  2  0
 20 22  2  0
 20 23  1  0
 23 24  2  0
 24 25  1  0
 25 26  2  0
 26 27  1  0
 27 28  2  0
 10  5  1  0
 18 13  1  0
 28 23  1  0
  3 29  1  0
  3 30  1  0
  4 31  1  0
  4 32  1  0
  6 33  1  0
  7 34  1  0
  8 35  1  0
  9 36  1  0
 14 37  1  0
 15 38  1  0
 16 39  1  0
 17 40  1  0
 18 41  1  0
 24 42  1  0
 25 43  1  0
 26 44  1  0
 27 45  1  0
 28 46  1  0
M  CHG  1  19  -1
M  END
>  <UniqueID>  (69) 
61

>  <SMILES>  (69) 
O=C(CCc1ccccc1C(=O)c1ccccc1)[N-]S(=O)(=O)c1ccccc1

>  <Energy>  (69) 
53.32201186081044

>  <Genealogy>  (69) 
O=C(CCc1ccccc1C(=O)c1ccccc1)[N-]S(=O)(=O)c1ccccc1 (protonated)
O=C(CCc1ccccc1C(=O)c1ccccc1)[N-]S(=O)(=O)c1ccccc1 (3D coordinates assigned)
O=C(CCc1ccccc1C(=O)c1ccccc1)[N-]S(=O)(=O)c1ccccc1 (optimized conformer: 53.32201186081044 kcal/mol)

>  <smiles>  (69) 
O=C(CCc1ccccc1C(=O)c1ccccc1)NS(=O)(=O)c1ccccc1

>  <score_type>  (69) 
oracle

>  <origin>  (69) 
adg

>  <m_score__min__energy>  (69) 
-11.98

>  <m_primary>  (69) 
energy

$$$$
69:0
     RDKit          3D

 37 39  0  0  0  0  0  0  0  0999 V2000
   53.2660   24.9560   45.5960 N   0  0  0  0  0  0  0  0  0  0  0  0
   54.4720   23.7820   45.9890 S   0  0  0  0  0  0  0  0  0  0  0  0
   54.3410   22.6150   45.0490 O   0  0  0  0  0  0  0  0  0  0  0  0
   54.2650   23.2920   47.3940 O   0  0  0  0  0  0  0  0  0  0  0  0
   56.0750   24.5090   45.8410 C   0  0  0  0  0  0  0  0  0  0  0  0
   57.2010   23.6850   45.7060 C   0  0  0  0  0  0  0  0  0  0  0  0
   58.4740   24.2420   45.6040 C   0  0  0  0  0  0  0  0  0  0  0  0
   58.6340   25.6270   45.6070 C   0  0  0  0  0  0  0  0  0  0  0  0
   57.5200   26.4760   45.7130 C   0  0  0  0  0  0  0  0  0  0  0  0
   57.7350   27.9360   45.6170 C   0  0  0  0  0  0  0  0  0  0  0  0
   58.7850   28.6640   46.1470 C   0  0  0  0  0  0  0  0  0  0  0  0
   58.6700   29.9510   45.7680 N   0  0  0  0  0  0  0  0  0  0  0  0
   57.5980   30.0510   44.9960 N   0  0  0  0  0  0  0  0  0  0  0  0
   57.1550   31.2870   44.4180 C   0  0  0  0  0  0  0  0  0  0  0  0
   57.0320   31.3770   43.1680 O   0  0  0  0  0  0  0  0  0  0  0  0
   56.8890   32.4440   45.2230 N   0  0  0  0  0  0  0  0  0  0  0  0
   57.8660   33.3780   45.7030 C   0  0  0  0  0  0  0  0  0  0  0  0
   58.3860   34.3250   44.8100 C   0  0  0  0  0  0  0  0  0  0  0  0
   59.3410   35.2510   45.2380 C   0  0  0  0  0  0  0  0  0  0  0  0
   59.7700   35.2500   46.5680 C   0  0  0  0  0  0  0  0  0  0  0  0
   59.2370   34.3300   47.4740 C   0  0  0  0  0  0  0  0  0  0  0  0
   58.2810   33.4000   47.0500 C   0  0  0  0  0  0  0  0  0  0  0  0
   57.7400   32.5540   47.9620 F   0  0  0  0  0  0  0  0  0  0  0  0
   57.0020   28.8470   44.8840 C   0  0  0  0  0  0  0  0  0  0  0  0
   56.2300   25.9090   45.8640 C   0  0  0  0  0  0  0  0  0  0  0  0
   55.1000   26.7050   46.0710 O   0  0  0  0  0  0  0  0  0  0  0  0
   53.7660   25.8150   45.2750 H   0  0  0  0  0  0  0  0  0  0  0  0
   57.0788   22.5921   45.6804 H   0  0  0  0  0  0  0  0  0  0  0  0
   59.3544   23.5878   45.5210 H   0  0  0  0  0  0  0  0  0  0  0  0
   59.6423   26.0590   45.5256 H   0  0  0  0  0  0  0  0  0  0  0  0
   59.5877   28.2558   46.7787 H   0  0  0  0  0  0  0  0  0  0  0  0
   58.0402   34.3393   43.7659 H   0  0  0  0  0  0  0  0  0  0  0  0
   59.7554   35.9813   44.5274 H   0  0  0  0  0  0  0  0  0  0  0  0
   60.5279   35.9741   46.9017 H   0  0  0  0  0  0  0  0  0  0  0  0
   59.5693   34.3365   48.5226 H   0  0  0  0  0  0  0  0  0  0  0  0
   56.0903   28.6287   44.3086 H   0  0  0  0  0  0  0  0  0  0  0  0
   54.2110   26.3370   46.3830 H   0  0  0  0  0  0  0  0  0  0  0  0
  1  2  1  0
  2  3  2  0
  2  4  2  0
  2  5  1  0
  5  6  2  0
  6  7  1  0
  7  8  2  0
  8  9  1  0
  9 10  1  0
 10 11  1  0
 11 12  2  0
 12 13  1  0
 13 14  1  0
 14 15  2  0
 14 16  1  0
 16 17  1  0
 17 18  2  0
 18 19  1  0
 19 20  2  0
 20 21  1  0
 21 22  2  0
 22 23  1  0
 13 24  1  0
  9 25  2  0
 25 26  1  0
 25  5  1  0
 24 10  2  0
 22 17  1  0
  1 27  1  0
  6 28  1  0
  7 29  1  0
  8 30  1  0
 11 31  1  0
 18 32  1  0
 19 33  1  0
 20 34  1  0
 21 35  1  0
 24 36  1  0
 26 37  1  0
M  CHG  2   1  -1  16  -1
M  END
>  <UniqueID>  (70) 
62

>  <SMILES>  (70) 
[NH-]S(=O)(=O)c1cccc(-c2cnn(C(=O)[N-]c3ccccc3F)c2)c1O

>  <Energy>  (70) 
83.18889112934532

>  <Genealogy>  (70) 
[NH-]S(=O)(=O)c1cccc(-c2cnn(C(=O)[N-]c3ccccc3F)c2)c1O (protonated)
[NH-]S(=O)(=O)c1cccc(-c2cnn(C(=O)[N-]c3ccccc3F)c2)c1O (3D coordinates assigned)
[NH-]S(=O)(=O)c1cccc(-c2cnn(C(=O)[N-]c3ccccc3F)c2)c1O (optimized conformer: 83.18889112934532 kcal/mol)

>  <smiles>  (70) 
NS(=O)(=O)c1cccc(-c2cnn(C(=O)Nc3ccccc3F)c2)c1O

>  <score_type>  (70) 
oracle

>  <origin>  (70) 
adg

>  <m_score__min__energy>  (70) 
-13.960000000000001

>  <m_primary>  (70) 
energy

$$$$
70:0
     RDKit          3D

 35 36  0  0  0  0  0  0  0  0999 V2000
   62.1520   34.1090   46.7110 O   0  0  0  0  0  0  0  0  0  0  0  0
   61.1870   33.4870   47.2340 C   0  0  0  0  0  0  0  0  0  0  0  0
   61.4160   32.6500   48.3740 N   0  0  0  0  0  0  0  0  0  0  0  0
   61.5460   31.1990   48.3010 C   0  0  0  0  0  0  0  0  0  0  0  0
   61.4040   30.7190   46.8560 C   0  0  0  0  0  0  0  0  0  0  0  0
   61.0230   29.3120   46.8220 N   0  0  0  0  0  0  0  0  0  0  0  0
   60.4350   28.6740   45.6810 C   0  0  0  0  0  0  0  0  0  0  0  0
   61.0990   28.5630   44.6150 O   0  0  0  0  0  0  0  0  0  0  0  0
   59.0520   28.1450   45.7520 C   0  0  0  0  0  0  0  0  0  0  0  0
   58.8120   26.8240   46.1700 C   0  0  0  0  0  0  0  0  0  0  0  0
   57.5070   26.3300   46.2450 C   0  0  0  0  0  0  0  0  0  0  0  0
   56.4260   27.1490   45.9100 C   0  0  0  0  0  0  0  0  0  0  0  0
   55.1310   26.6510   45.9920 O   0  0  0  0  0  0  0  0  0  0  0  0
   56.6470   28.4680   45.4950 C   0  0  0  0  0  0  0  0  0  0  0  0
   55.5640   29.2810   45.1690 O   0  0  0  0  0  0  0  0  0  0  0  0
   57.9580   28.9610   45.4100 C   0  0  0  0  0  0  0  0  0  0  0  0
   59.8250   33.6150   46.6640 C   0  0  0  0  0  0  0  0  0  0  0  0
   58.7150   33.0510   47.3220 C   0  0  0  0  0  0  0  0  0  0  0  0
   57.4330   33.1660   46.7750 C   0  0  0  0  0  0  0  0  0  0  0  0
   57.2440   33.8480   45.5720 C   0  0  0  0  0  0  0  0  0  0  0  0
   58.3350   34.4140   44.9100 C   0  0  0  0  0  0  0  0  0  0  0  0
   59.6200   34.2990   45.4490 C   0  0  0  0  0  0  0  0  0  0  0  0
   62.5341   30.9046   48.6845 H   0  0  0  0  0  0  0  0  0  0  0  0
   60.7510   30.7403   48.9073 H   0  0  0  0  0  0  0  0  0  0  0  0
   60.6308   31.3160   46.3503 H   0  0  0  0  0  0  0  0  0  0  0  0
   62.3701   30.8391   46.3439 H   0  0  0  0  0  0  0  0  0  0  0  0
   59.6579   26.1747   46.4400 H   0  0  0  0  0  0  0  0  0  0  0  0
   57.3305   25.2936   46.5686 H   0  0  0  0  0  0  0  0  0  0  0  0
   54.6080   28.9680   45.2940 H   0  0  0  0  0  0  0  0  0  0  0  0
   58.1318   29.9937   45.0733 H   0  0  0  0  0  0  0  0  0  0  0  0
   58.8573   32.5163   48.2727 H   0  0  0  0  0  0  0  0  0  0  0  0
   56.5724   32.7183   47.2936 H   0  0  0  0  0  0  0  0  0  0  0  0
   56.2344   33.9396   45.1451 H   0  0  0  0  0  0  0  0  0  0  0  0
   58.1834   34.9516   43.9624 H   0  0  0  0  0  0  0  0  0  0  0  0
   60.4760   34.7451   44.9215 H   0  0  0  0  0  0  0  0  0  0  0  0
  1  2  2  0
  2  3  1  0
  3  4  1  0
  4  5  1  0
  5  6  1  0
  6  7  1  0
  7  8  2  0
  7  9  1  0
  9 10  2  0
 10 11  1  0
 11 12  2  0
 12 13  1  0
 12 14  1  0
 14 15  1  0
 14 16  2  0
  2 17  1  0
 17 18  2  0
 18 19  1  0
 19 20  2  0
 20 21  1  0
 21 22  2  0
 16  9  1  0
 22 17  1  0
  4 23  1  0
  4 24  1  0
  5 25  1  0
  5 26  1  0
 10 27  1  0
 11 28  1  0
 15 29  1  0
 16 30  1  0
 18 31  1  0
 19 32  1  0
 20 33  1  0
 21 34  1  0
 22 35  1  0
M  CHG  3   3  -1   6  -1  13  -1
M  END
>  <UniqueID>  (71) 
63

>  <SMILES>  (71) 
O=C([N-]CC[N-]C(=O)c1ccc([O-])c(O)c1)c1ccccc1

>  <Energy>  (71) 
31.672446634156017

>  <Genealogy>  (71) 
O=C([N-]CC[N-]C(=O)c1ccc([O-])c(O)c1)c1ccccc1 (protonated)
O=C([N-]CC[N-]C(=O)c1ccc([O-])c(O)c1)c1ccccc1 (3D coordinates assigned)
O=C([N-]CC[N-]C(=O)c1ccc([O-])c(O)c1)c1ccccc1 (optimized conformer: 31.672446634156017 kcal/mol)

>  <smiles>  (71) 
O=C(NCCNC(=O)c1ccc(O)c(O)c1)c1ccccc1

>  <score_type>  (71) 
oracle

>  <origin>  (71) 
adg

>  <m_score__min__energy>  (71) 
-13.460000000000001

>  <m_primary>  (71) 
energy

$$$$
71:0
     RDKit          3D

 50 52  0  0  0  0  0  0  0  0999 V2000
   57.6790   23.1410   44.2590 C   0  0  0  0  0  0  0  0  0  0  0  0
   58.8480   23.0160   45.2210 C   0  0  0  0  0  0  0  0  0  0  0  0
   59.1520   24.2950   45.7670 O   0  0  0  0  0  0  0  0  0  0  0  0
   58.3100   25.4140   45.6820 C   0  0  0  0  0  0  0  0  0  0  0  0
   58.6160   26.4080   44.7450 C   0  0  0  0  0  0  0  0  0  0  0  0
   57.7970   27.5330   44.6130 C   0  0  0  0  0  0  0  0  0  0  0  0
   56.6490   27.6740   45.4010 C   0  0  0  0  0  0  0  0  0  0  0  0
   55.8180   28.8320   45.2280 N   0  0  0  0  0  0  0  0  0  0  0  0
   55.8650   29.7010   44.0890 C   0  0  0  0  0  0  0  0  0  0  0  0
   55.1510   29.4560   43.0760 O   0  0  0  0  0  0  0  0  0  0  0  0
   56.7720   30.8610   44.0860 C   0  0  0  0  0  0  0  0  0  0  0  0
   57.3470   31.3250   42.8980 C   0  0  0  0  0  0  0  0  0  0  0  0
   58.1800   32.4370   42.9350 C   0  0  0  0  0  0  0  0  0  0  0  0
   58.4200   33.0710   44.1520 C   0  0  0  0  0  0  0  0  0  0  0  0
   59.1770   34.0800   44.1850 O   0  0  0  0  0  0  0  0  0  0  0  0
   57.8320   32.5940   45.2920 N   0  0  0  0  0  0  0  0  0  0  0  0
   58.0770   33.2280   46.5920 C   0  0  0  0  0  0  0  0  0  0  0  0
   59.4970   32.9840   47.0250 C   0  0  0  0  0  0  0  0  0  0  0  0
   60.1370   33.9110   47.5840 O   0  0  0  0  0  0  0  0  0  0  0  0
   60.1780   31.7680   46.6980 N   0  0  0  0  0  0  0  0  0  0  0  0
   59.9640   30.5050   47.3420 C   0  0  0  0  0  0  0  0  0  0  0  0
   59.6380   30.4530   48.7080 C   0  0  0  0  0  0  0  0  0  0  0  0
   59.4750   29.2230   49.3480 C   0  0  0  0  0  0  0  0  0  0  0  0
   59.6450   28.0360   48.6320 C   0  0  0  0  0  0  0  0  0  0  0  0
   59.9700   28.0750   47.2740 C   0  0  0  0  0  0  0  0  0  0  0  0
   60.1410   29.3070   46.6190 C   0  0  0  0  0  0  0  0  0  0  0  0
   60.4640   29.3420   45.1520 C   0  0  0  0  0  0  0  0  0  0  0  0
   57.0390   31.5180   45.2470 N   0  0  0  0  0  0  0  0  0  0  0  0
   56.3550   26.6930   46.3630 C   0  0  0  0  0  0  0  0  0  0  0  0
   57.1740   25.5680   46.5020 C   0  0  0  0  0  0  0  0  0  0  0  0
   56.7438   23.2410   44.8294 H   0  0  0  0  0  0  0  0  0  0  0  0
   57.8188   24.0293   43.6255 H   0  0  0  0  0  0  0  0  0  0  0  0
   57.6279   22.2432   43.6255 H   0  0  0  0  0  0  0  0  0  0  0  0
   58.5817   22.3242   46.0337 H   0  0  0  0  0  0  0  0  0  0  0  0
   59.7259   22.6289   44.6830 H   0  0  0  0  0  0  0  0  0  0  0  0
   59.5069   26.3030   44.1084 H   0  0  0  0  0  0  0  0  0  0  0  0
   58.0570   28.3142   43.8835 H   0  0  0  0  0  0  0  0  0  0  0  0
   57.1421   30.8153   41.9450 H   0  0  0  0  0  0  0  0  0  0  0  0
   58.6454   32.8129   42.0119 H   0  0  0  0  0  0  0  0  0  0  0  0
   57.9030   34.3109   46.5076 H   0  0  0  0  0  0  0  0  0  0  0  0
   57.3933   32.7969   47.3381 H   0  0  0  0  0  0  0  0  0  0  0  0
   59.5106   31.3864   49.2760 H   0  0  0  0  0  0  0  0  0  0  0  0
   59.2128   29.1888   50.4157 H   0  0  0  0  0  0  0  0  0  0  0  0
   59.5226   27.0675   49.1390 H   0  0  0  0  0  0  0  0  0  0  0  0
   60.0928   27.1363   46.7139 H   0  0  0  0  0  0  0  0  0  0  0  0
   61.5495   29.4596   45.0183 H   0  0  0  0  0  0  0  0  0  0  0  0
   60.1362   28.4031   44.6819 H   0  0  0  0  0  0  0  0  0  0  0  0
   59.9427   30.1889   44.6819 H   0  0  0  0  0  0  0  0  0  0  0  0
   55.4743   26.8107   47.0115 H   0  0  0  0  0  0  0  0  0  0  0  0
   56.9311   24.8017   47.2529 H   0  0  0  0  0  0  0  0  0  0  0  0
  1  2  1  0
  2  3  1  0
  3  4  1  0
  4  5  2  0
  5  6  1  0
  6  7  2  0
  7  8  1  0
  8  9  1  0
  9 10  2  0
  9 11  1  0
 11 12  1  0
 12 13  2  0
 13 14  1  0
 14 15  2  0
 14 16  1  0
 16 17  1  0
 17 18  1  0
 18 19  2  0
 18 20  1  0
 20 21  1  0
 21 22  2  0
 22 23  1  0
 23 24  2  0
 24 25  1  0
 25 26  2  0
 26 27  1  0
 16 28  1  0
  7 29  1  0
 29 30  2  0
 30  4  1  0
 28 11  2  0
 26 21  1  0
  1 31  1  0
  1 32  1  0
  1 33  1  0
  2 34  1  0
  2 35  1  0
  5 36  1  0
  6 37  1  0
 12 38  1  0
 13 39  1  0
 17 40  1  0
 17 41  1  0
 22 42  1  0
 23 43  1  0
 24 44  1  0
 25 45  1  0
 27 46  1  0
 27 47  1  0
 27 48  1  0
 29 49  1  0
 30 50  1  0
M  CHG  2   8  -1  20  -1
M  END
>  <UniqueID>  (72) 
64

>  <SMILES>  (72) 
CCOc1ccc([N-]C(=O)c2ccc(=O)n(CC(=O)[N-]c3ccccc3C)n2)cc1

>  <Energy>  (72) 
55.485449107242644

>  <Genealogy>  (72) 
CCOc1ccc([N-]C(=O)c2ccc(=O)n(CC(=O)[N-]c3ccccc3C)n2)cc1 (protonated)
CCOc1ccc([N-]C(=O)c2ccc(=O)n(CC(=O)[N-]c3ccccc3C)n2)cc1 (3D coordinates assigned)
CCOc1ccc([N-]C(=O)c2ccc(=O)n(CC(=O)[N-]c3ccccc3C)n2)cc1 (optimized conformer: 55.485449107242644 kcal/mol)

>  <smiles>  (72) 
CCOc1ccc(NC(=O)c2ccc(=O)n(CC(=O)Nc3ccccc3C)n2)cc1

>  <score_type>  (72) 
oracle

>  <origin>  (72) 
adg

>  <m_score__min__energy>  (72) 
-11.68

>  <m_primary>  (72) 
energy

$$$$
72:0
     RDKit          3D

 59 62  0  0  0  0  0  0  0  0999 V2000
   56.1560   25.4140   46.7620 O   0  0  0  0  0  0  0  0  0  0  0  0
   56.6480   26.5300   46.4450 C   0  0  0  0  0  0  0  0  0  0  0  0
   55.8870   27.4030   45.5980 N   0  0  0  0  0  0  0  0  0  0  0  0
   56.3910   28.6240   45.0370 C   0  0  0  0  0  0  0  0  0  0  0  0
   55.5250   29.6810   44.7110 C   0  0  0  0  0  0  0  0  0  0  0  0
   56.0370   30.8810   44.2100 C   0  0  0  0  0  0  0  0  0  0  0  0
   57.4220   31.0470   44.0490 C   0  0  0  0  0  0  0  0  0  0  0  0
   57.9820   32.3610   43.5760 C   0  0  0  0  0  0  0  0  0  0  0  0
   58.8810   32.9320   44.5810 N   0  0  0  0  0  0  0  0  0  0  0  0
   58.0850   33.1180   46.1170 S   0  0  0  0  0  0  0  0  0  0  0  0
   57.7990   31.7690   46.7140 O   0  0  0  0  0  0  0  0  0  0  0  0
   56.7960   33.8760   45.9510 O   0  0  0  0  0  0  0  0  0  0  0  0
   59.1520   34.0290   47.2170 C   0  0  0  0  0  0  0  0  0  0  0  0
   60.4710   33.3250   47.3650 C   0  0  0  0  0  0  0  0  0  0  0  0
   61.6300   34.0530   47.6880 C   0  0  0  0  0  0  0  0  0  0  0  0
   62.8630   33.4050   47.7840 C   0  0  0  0  0  0  0  0  0  0  0  0
   62.9530   32.0280   47.5490 C   0  0  0  0  0  0  0  0  0  0  0  0
   61.8090   31.2990   47.2130 C   0  0  0  0  0  0  0  0  0  0  0  0
   60.5710   31.9440   47.1170 C   0  0  0  0  0  0  0  0  0  0  0  0
   58.2840   29.9840   44.3650 C   0  0  0  0  0  0  0  0  0  0  0  0
   57.7680   28.7720   44.8350 C   0  0  0  0  0  0  0  0  0  0  0  0
   58.0100   26.8910   46.9120 C   0  0  0  0  0  0  0  0  0  0  0  0
   59.1390   26.2460   46.3820 C   0  0  0  0  0  0  0  0  0  0  0  0
   60.4210   26.5930   46.8200 C   0  0  0  0  0  0  0  0  0  0  0  0
   60.5890   27.5800   47.7950 C   0  0  0  0  0  0  0  0  0  0  0  0
   59.4720   28.2310   48.3400 C   0  0  0  0  0  0  0  0  0  0  0  0
   59.6410   29.2580   49.3900 C   0  0  0  0  0  0  0  0  0  0  0  0
   60.4690   29.0540   50.3160 O   0  0  0  0  0  0  0  0  0  0  0  0
   58.8830   30.4820   49.3350 N   0  0  0  0  0  0  0  0  0  0  0  0
   58.9820   31.5800   50.2600 C   0  0  0  0  0  0  0  0  0  0  0  0
   60.1720   32.3270   50.2960 C   0  0  0  0  0  0  0  0  0  0  0  0
   60.2890   33.4370   51.1370 C   0  0  0  0  0  0  0  0  0  0  0  0
   59.2160   33.8210   51.9440 C   0  0  0  0  0  0  0  0  0  0  0  0
   58.0210   33.0990   51.9050 C   0  0  0  0  0  0  0  0  0  0  0  0
   57.8980   31.9880   51.0660 C   0  0  0  0  0  0  0  0  0  0  0  0
   58.1900   27.9030   47.8710 C   0  0  0  0  0  0  0  0  0  0  0  0
   54.4402   29.5637   44.8505 H   0  0  0  0  0  0  0  0  0  0  0  0
   55.3523   31.6987   43.9407 H   0  0  0  0  0  0  0  0  0  0  0  0
   58.5401   32.2004   42.6418 H   0  0  0  0  0  0  0  0  0  0  0  0
   57.1497   33.0603   43.4078 H   0  0  0  0  0  0  0  0  0  0  0  0
   59.3218   35.0355   46.8070 H   0  0  0  0  0  0  0  0  0  0  0  0
   58.6716   34.1005   48.2040 H   0  0  0  0  0  0  0  0  0  0  0  0
   61.5650   35.1366   47.8656 H   0  0  0  0  0  0  0  0  0  0  0  0
   63.7653   33.9776   48.0448 H   0  0  0  0  0  0  0  0  0  0  0  0
   63.9250   31.5193   47.6289 H   0  0  0  0  0  0  0  0  0  0  0  0
   61.8818   30.2178   47.0239 H   0  0  0  0  0  0  0  0  0  0  0  0
   59.6729   31.3692   46.8467 H   0  0  0  0  0  0  0  0  0  0  0  0
   59.3704   30.1054   44.2422 H   0  0  0  0  0  0  0  0  0  0  0  0
   58.4465   27.9325   45.0466 H   0  0  0  0  0  0  0  0  0  0  0  0
   59.0145   25.4639   45.6185 H   0  0  0  0  0  0  0  0  0  0  0  0
   61.3006   26.0871   46.3954 H   0  0  0  0  0  0  0  0  0  0  0  0
   61.6000   27.8473   48.1362 H   0  0  0  0  0  0  0  0  0  0  0  0
   58.2380   30.6150   48.5240 H   0  0  0  0  0  0  0  0  0  0  0  0
   61.0184   32.0355   49.6568 H   0  0  0  0  0  0  0  0  0  0  0  0
   61.2281   34.0093   51.1633 H   0  0  0  0  0  0  0  0  0  0  0  0
   59.3118   34.6913   52.6098 H   0  0  0  0  0  0  0  0  0  0  0  0
   57.1742   33.4057   52.5365 H   0  0  0  0  0  0  0  0  0  0  0  0
   56.9513   31.4288   51.0338 H   0  0  0  0  0  0  0  0  0  0  0  0
   57.3149   28.4450   48.2590 H   0  0  0  0  0  0  0  0  0  0  0  0
  1  2  2  0
  2  3  1  0
  3  4  1  0
  4  5  2  0
  5  6  1  0
  6  7  2  0
  7  8  1  0
  8  9  1  0
  9 10  1  0
 10 11  2  0
 10 12  2  0
 10 13  1  0
 13 14  1  0
 14 15  2  0
 15 16  1  0
 16 17  2  0
 17 18  1  0
 18 19  2  0
  7 20  1  0
 20 21  2  0
  2 22  1  0
 22 23  2  0
 23 24  1  0
 24 25  2  0
 25 26  1  0
 26 27  1  0
 27 28  2  0
 27 29  1  0
 29 30  1  0
 30 31  2  0
 31 32  1  0
 32 33  2  0
 33 34  1  0
 34 35  2  0
 26 36  2  0
 21  4  1  0
 36 22  1  0
 19 14  1  0
 35 30  1  0
  5 37  1  0
  6 38  1  0
  8 39  1  0
  8 40  1  0
 13 41  1  0
 13 42  1  0
 15 43  1  0
 16 44  1  0
 17 45  1  0
 18 46  1  0
 19 47  1  0
 20 48  1  0
 21 49  1  0
 23 50  1  0
 24 51  1  0
 25 52  1  0
 29 53  1  0
 31 54  1  0
 32 55  1  0
 33 56  1  0
 34 57  1  0
 35 58  1  0
 36 59  1  0
M  CHG  2   3  -1   9  -1
M  END
>  <UniqueID>  (73) 
65

>  <SMILES>  (73) 
O=C([N-]c1ccc(C[N-]S(=O)(=O)Cc2ccccc2)cc1)c1cccc(C(=O)Nc2ccccc2)c1

>  <Energy>  (73) 
66.09630614718503

>  <Genealogy>  (73) 
O=C([N-]c1ccc(C[N-]S(=O)(=O)Cc2ccccc2)cc1)c1cccc(C(=O)Nc2ccccc2)c1 (protonated)
O=C([N-]c1ccc(C[N-]S(=O)(=O)Cc2ccccc2)cc1)c1cccc(C(=O)Nc2ccccc2)c1 (3D coordinates assigned)
O=C([N-]c1ccc(C[N-]S(=O)(=O)Cc2ccccc2)cc1)c1cccc(C(=O)Nc2ccccc2)c1 (optimized conformer: 66.09630614718503 kcal/mol)

>  <smiles>  (73) 
O=C(Nc1ccccc1)c1cccc(C(=O)Nc2ccc(CNS(=O)(=O)Cc3ccccc3)cc2)c1

>  <score_type>  (73) 
oracle

>  <origin>  (73) 
adg

>  <m_score__min__energy>  (73) 
-13.41

>  <m_primary>  (73) 
energy

$$$$
73:0
     RDKit          3D

 27 29  0  0  0  0  0  0  0  0999 V2000
   60.6484   29.8525   44.9670 H   0  0  0  0  0  0  0  0  0  0  0  0
   59.6590   29.3860   45.0830 C   0  0  0  0  0  0  0  0  0  0  0  0
   58.5390   29.9680   44.4850 C   0  0  0  0  0  0  0  0  0  0  0  0
   58.6453   30.8978   43.9068 H   0  0  0  0  0  0  0  0  0  0  0  0
   57.2820   29.3690   44.6210 C   0  0  0  0  0  0  0  0  0  0  0  0
   55.8790   30.0880   43.8520 Cl  0  0  0  0  0  0  0  0  0  0  0  0
   57.1450   28.1920   45.3660 C   0  0  0  0  0  0  0  0  0  0  0  0
   56.1594   27.7119   45.4558 H   0  0  0  0  0  0  0  0  0  0  0  0
   58.2590   27.6230   45.9980 C   0  0  0  0  0  0  0  0  0  0  0  0
   58.1060   26.3870   46.7090 N   0  0  0  0  0  0  0  0  0  0  0  0
   57.8350   25.2220   46.1920 C   0  0  0  0  0  0  0  0  0  0  0  0
   56.5860   24.6860   45.8670 C   0  0  0  0  0  0  0  0  0  0  0  0
   55.4640   25.2420   46.0030 O   0  0  0  0  0  0  0  0  0  0  0  0
   56.7950   23.4390   45.3090 C   0  0  0  0  0  0  0  0  0  0  0  0
   55.8860   22.5060   44.8160 C   0  0  0  0  0  0  0  0  0  0  0  0
   54.8026   22.6949   44.8396 H   0  0  0  0  0  0  0  0  0  0  0  0
   56.4090   21.3130   44.2870 C   0  0  0  0  0  0  0  0  0  0  0  0
   55.7261   20.5468   43.8912 H   0  0  0  0  0  0  0  0  0  0  0  0
   57.7620   21.0960   44.2600 N   0  0  0  0  0  0  0  0  0  0  0  0
   58.1260   20.2030   43.8590 H   0  0  0  0  0  0  0  0  0  0  0  0
   58.6510   22.0190   44.7390 C   0  0  0  0  0  0  0  0  0  0  0  0
   59.7341   21.8296   44.7061 H   0  0  0  0  0  0  0  0  0  0  0  0
   58.1490   23.2040   45.2690 C   0  0  0  0  0  0  0  0  0  0  0  0
   58.7970   24.3000   45.8030 C   0  0  0  0  0  0  0  0  0  0  0  0
   60.0440   24.4380   45.9180 O   0  0  0  0  0  0  0  0  0  0  0  0
   59.5240   28.2110   45.8290 C   0  0  0  0  0  0  0  0  0  0  0  0
   60.4105   27.7457   46.2848 H   0  0  0  0  0  0  0  0  0  0  0  0
  1  2  1  0
  2  3  2  0
  3  4  1  0
  3  5  1  0
  5  6  1  0
  5  7  2  0
  7  8  1  0
  7  9  1  0
  9 10  1  0
 10 11  2  0
 11 12  1  0
 12 13  2  0
 12 14  1  0
 14 15  2  0
 15 16  1  0
 15 17  1  0
 17 18  1  0
 17 19  2  0
 19 20  1  0
 19 21  1  0
 21 22  1  0
 21 23  2  0
 23 24  1  0
 24 25  2  0
  9 26  2  0
 26 27  1  0
 26  2  1  0
 24 11  1  0
 23 14  1  0
M  CHG  1  19   1
M  END
>  <UniqueID>  (74) 
66

>  <SMILES>  (74) 
O=c1/c(=N\c2cccc(Cl)c2)c(=O)c2c[nH+]ccc12

>  <Energy>  (74) 
74.55121586811804

>  <Genealogy>  (74) 
O=c1c(=Nc2cccc(Cl)c2)c(=O)c2c[nH+]ccc12 (protonated)
O=c1/c(=N\c2cccc(Cl)c2)c(=O)c2c[nH+]ccc12 (cis-trans isomerization)
O=c1/c(=N\c2cccc(Cl)c2)c(=O)c2c[nH+]ccc12 (3D coordinates assigned)
O=c1/c(=N\c2cccc(Cl)c2)c(=O)c2c[nH+]ccc12 (optimized conformer: 74.55121586811804 kcal/mol)

>  <smiles>  (74) 
O=c1c(=Nc2cccc(Cl)c2)c(=O)c2cnccc12

>  <score_type>  (74) 
oracle

>  <origin>  (74) 
adg

>  <m_score__min__energy>  (74) 
-5.6900000000000004

>  <m_primary>  (74) 
energy

$$$$
74:0
     RDKit          3D

 55 58  0  0  1  0  0  0  0  0999 V2000
   60.6140   33.5840   46.1760 C   0  0  0  0  0  0  0  0  0  0  0  0
   59.3070   34.7950   46.2110 S   0  0  0  0  0  0  0  0  0  0  0  0
   59.1790   35.2740   47.6470 O   0  0  0  0  0  0  0  0  0  0  0  0
   59.6440   35.9900   45.3930 O   0  0  0  0  0  0  0  0  0  0  0  0
   57.8190   34.0800   45.7410 N   0  0  0  0  0  0  0  0  0  0  0  0
   57.6800   33.0530   44.7920 C   0  0  0  0  0  0  0  0  0  0  0  0
   58.1220   33.0860   43.5010 C   0  0  0  0  0  0  0  0  0  0  0  0
   57.9410   32.0190   42.6410 C   0  0  0  0  0  0  0  0  0  0  0  0
   57.2940   30.8480   43.0450 C   0  0  0  0  0  0  0  0  0  0  0  0
   56.8500   30.8190   44.3450 C   0  0  0  0  0  0  0  0  0  0  0  0
   56.1830   29.7170   44.8980 O   0  0  0  0  0  0  0  0  0  0  0  0
   56.8780   28.7250   45.5750 C   0  0  0  0  0  0  0  0  0  0  0  0
   58.0850   28.9330   46.2040 C   0  0  0  0  0  0  0  0  0  0  0  0
   58.7050   27.8800   46.8570 C   0  0  0  0  0  0  0  0  0  0  0  0
   59.8320   28.0480   47.4570 N   0  0  0  0  0  0  0  0  0  0  0  0
   60.0490   28.9770   48.5100 C   0  0  0  0  0  0  0  0  0  0  0  0
   60.8230   28.6850   49.5840 C   0  0  0  0  0  0  0  0  0  0  0  0
   61.0060   29.6260   50.5760 C   0  0  0  0  0  0  0  0  0  0  0  0
   60.4490   30.8800   50.5720 C   0  0  0  0  0  0  0  0  0  0  0  0
   60.5380   31.8630   51.4440 O   0  0  0  0  0  0  0  0  0  0  0  0
   61.2990   32.9850   51.5530 C   0  0  0  0  0  0  0  0  0  0  0  0
   62.2570   33.1250   50.4430 C   0  0  0  0  0  0  0  0  0  0  0  0
   62.0780   33.7910   49.2710 C   0  0  0  0  0  0  0  0  0  0  0  0
   63.0160   33.8710   48.2630 C   0  0  0  0  0  0  0  0  0  0  0  0
   64.2140   33.2380   48.4510 C   0  0  0  0  0  0  0  0  0  0  0  0
   64.4480   32.5500   49.6200 C   0  0  0  0  0  0  0  0  0  0  0  0
   65.6570   31.9350   49.7590 F   0  0  0  0  0  0  0  0  0  0  0  0
   63.4930   32.4850   50.6110 C   0  0  0  0  0  0  0  0  0  0  0  0
   59.6430   31.1380   49.4220 C   0  0  0  0  0  0  0  0  0  0  0  0
   58.8500   32.6960   49.2460 Cl  0  0  0  0  0  0  0  0  0  0  0  0
   59.4610   30.2160   48.4430 C   0  0  0  0  0  0  0  0  0  0  0  0
   58.1210   26.6890   46.8640 N   0  0  0  0  0  0  0  0  0  0  0  0
   56.9390   26.4790   46.2510 C   0  0  0  0  0  0  0  0  0  0  0  0
   56.3160   27.4860   45.6090 N   0  0  0  0  0  0  0  0  0  0  0  0
   57.0350   31.8920   45.2030 C   0  0  0  0  0  0  0  0  0  0  0  0
   60.8978   33.3210   47.2057 H   0  0  0  0  0  0  0  0  0  0  0  0
   60.2650   32.6829   45.6504 H   0  0  0  0  0  0  0  0  0  0  0  0
   61.4859   34.0006   45.6504 H   0  0  0  0  0  0  0  0  0  0  0  0
   56.9420   34.4340   46.1980 H   0  0  0  0  0  0  0  0  0  0  0  0
   58.6365   33.9867   43.1348 H   0  0  0  0  0  0  0  0  0  0  0  0
   58.3167   32.0937   41.6099 H   0  0  0  0  0  0  0  0  0  0  0  0
   57.1486   29.9984   42.3616 H   0  0  0  0  0  0  0  0  0  0  0  0
   58.5537   29.9280   46.1882 H   0  0  0  0  0  0  0  0  0  0  0  0
   61.3044   27.6992   49.6643 H   0  0  0  0  0  0  0  0  0  0  0  0
   61.6430   29.3519   51.4299 H   0  0  0  0  0  0  0  0  0  0  0  0
   60.6355   33.8624   51.5595 H   0  0  0  0  0  0  0  0  0  0  0  0
   61.8764   32.9087   52.4861 H   0  0  0  0  0  0  0  0  0  0  0  0
   61.1166   34.3024   49.1158 H   0  0  0  0  0  0  0  0  0  0  0  0
   62.8073   34.4265   47.3368 H   0  0  0  0  0  0  0  0  0  0  0  0
   64.9879   33.2787   47.6704 H   0  0  0  0  0  0  0  0  0  0  0  0
   63.7010   31.9291   51.5371 H   0  0  0  0  0  0  0  0  0  0  0  0
   58.8294   30.4664   47.5779 H   0  0  0  0  0  0  0  0  0  0  0  0
   58.5560   25.8910   47.3340 H   0  0  0  0  0  0  0  0  0  0  0  0
   56.4805   25.4794   46.2752 H   0  0  0  0  0  0  0  0  0  0  0  0
   56.6619   31.8231   46.2355 H   0  0  0  0  0  0  0  0  0  0  0  0
  1  2  1  0
  2  3  2  0
  2  4  2  0
  2  5  1  0
  5  6  1  0
  6  7  2  0
  7  8  1  0
  8  9  2  0
  9 10  1  0
 10 11  1  0
 11 12  1  0
 12 13  2  0
 13 14  1  0
 14 15  2  0
 15 16  1  0
 16 17  2  0
 17 18  1  0
 18 19  2  0
 19 20  1  0
 20 21  1  0
 21 22  1  0
 22 23  2  0
 23 24  1  0
 24 25  2  0
 25 26  1  0
 26 27  1  0
 26 28  2  0
 19 29  1  0
 29 30  1  0
 29 31  2  0
 14 32  1  0
 32 33  1  0
 33 34  2  0
 10 35  2  0
 35  6  1  0
 34 12  1  0
 31 16  1  0
 28 22  1  0
  1 36  1  0
  1 37  1  0
  1 38  1  0
  5 39  1  0
  7 40  1  0
  8 41  1  0
  9 42  1  0
 13 43  1  0
 17 44  1  0
 18 45  1  0
 21 46  1  0
 21 47  1  0
 23 48  1  0
 24 49  1  0
 25 50  1  0
 28 51  1  0
 31 52  1  0
 32 53  1  0
 33 54  1  0
 35 55  1  0
M  END
>  <smiles>  (75) 
CS(=O)(=O)Nc1cccc(Oc2cc(=Nc3ccc(OCc4cccc(F)c4)c(Cl)c3)[nH]cn2)c1

>  <score_type>  (75) 
oracle

>  <origin>  (75) 
adg

>  <m_score__min__energy>  (75) 
-10.130000000000001

>  <m_primary>  (75) 
energy

$$$$
75:0
     RDKit          3D

 48 51  0  0  0  0  0  0  0  0999 V2000
   54.3245   29.9342   43.7246 H   0  0  0  0  0  0  0  0  0  0  0  0
   55.2950   29.8170   44.2290 C   0  0  0  0  0  0  0  0  0  0  0  0
   55.5900   28.6600   44.8680 N   0  0  0  0  0  0  0  0  0  0  0  0
   56.7830   28.4560   45.4860 C   0  0  0  0  0  0  0  0  0  0  0  0
   57.0180   27.1320   46.0880 C   0  0  0  0  0  0  0  0  0  0  0  0
   56.2940   26.0160   45.6420 C   0  0  0  0  0  0  0  0  0  0  0  0
   55.5365   26.1251   44.8519 H   0  0  0  0  0  0  0  0  0  0  0  0
   56.5440   24.7670   46.2100 C   0  0  0  0  0  0  0  0  0  0  0  0
   55.9772   23.8857   45.8753 H   0  0  0  0  0  0  0  0  0  0  0  0
   57.5150   24.6380   47.2040 C   0  0  0  0  0  0  0  0  0  0  0  0
   57.7165   23.6574   47.6598 H   0  0  0  0  0  0  0  0  0  0  0  0
   58.2280   25.7660   47.6140 C   0  0  0  0  0  0  0  0  0  0  0  0
   58.9972   25.6746   48.3950 H   0  0  0  0  0  0  0  0  0  0  0  0
   57.9740   26.9790   47.0500 N   0  0  0  0  0  0  0  0  0  0  0  0
   58.5220   27.8090   47.3730 H   0  0  0  0  0  0  0  0  0  0  0  0
   57.7770   29.4690   45.4650 C   0  0  0  0  0  0  0  0  0  0  0  0
   59.1630   29.1220   45.8590 C   0  0  0  0  0  0  0  0  0  0  0  0
   60.0350   28.9160   44.9730 O   0  0  0  0  0  0  0  0  0  0  0  0
   59.5120   29.1060   47.2490 N   0  0  0  0  0  0  0  0  0  0  0  0
   60.5820   29.8100   47.8980 C   0  0  0  0  0  0  0  0  0  0  0  0
   60.8290   29.7090   49.2820 C   0  0  0  0  0  0  0  0  0  0  0  0
   60.2173   29.0355   49.9002 H   0  0  0  0  0  0  0  0  0  0  0  0
   61.8490   30.4620   49.8720 C   0  0  0  0  0  0  0  0  0  0  0  0
   62.0402   30.3754   50.9518 H   0  0  0  0  0  0  0  0  0  0  0  0
   62.6250   31.3230   49.0950 C   0  0  0  0  0  0  0  0  0  0  0  0
   63.4293   31.9108   49.5614 H   0  0  0  0  0  0  0  0  0  0  0  0
   62.3800   31.4380   47.7250 C   0  0  0  0  0  0  0  0  0  0  0  0
   63.1280   32.2820   46.9710 F   0  0  0  0  0  0  0  0  0  0  0  0
   61.3590   30.6900   47.1310 C   0  0  0  0  0  0  0  0  0  0  0  0
   61.1637   30.7926   46.0534 H   0  0  0  0  0  0  0  0  0  0  0  0
   57.4490   30.7230   44.8630 C   0  0  0  0  0  0  0  0  0  0  0  0
   58.2170   31.7830   44.8830 N   0  0  0  0  0  0  0  0  0  0  0  0
   58.8380   32.4430   45.9940 C   0  0  0  0  0  0  0  0  0  0  0  0
   58.4150   32.1920   47.3090 C   0  0  0  0  0  0  0  0  0  0  0  0
   57.6270   31.4484   47.4988 H   0  0  0  0  0  0  0  0  0  0  0  0
   58.9920   32.8840   48.3780 C   0  0  0  0  0  0  0  0  0  0  0  0
   58.6605   32.6794   49.4067 H   0  0  0  0  0  0  0  0  0  0  0  0
   59.9940   33.8400   48.1420 C   0  0  0  0  0  0  0  0  0  0  0  0
   60.6110   34.5860   49.2880 C   0  0  0  0  0  0  0  0  0  0  0  0
   60.2569   34.1578   50.2374 H   0  0  0  0  0  0  0  0  0  0  0  0
   61.7064   34.5012   49.2335 H   0  0  0  0  0  0  0  0  0  0  0  0
   60.3222   35.6460   49.2335 H   0  0  0  0  0  0  0  0  0  0  0  0
   60.3710   34.1320   46.8230 C   0  0  0  0  0  0  0  0  0  0  0  0
   61.1289   34.9051   46.6280 H   0  0  0  0  0  0  0  0  0  0  0  0
   59.7870   33.4440   45.7550 C   0  0  0  0  0  0  0  0  0  0  0  0
   60.0746   33.6904   44.7223 H   0  0  0  0  0  0  0  0  0  0  0  0
   56.2180   30.8570   44.2100 C   0  0  0  0  0  0  0  0  0  0  0  0
   55.9795   31.7903   43.6788 H   0  0  0  0  0  0  0  0  0  0  0  0
  1  2  1  0
  2  3  1  0
  3  4  1  0
  4  5  1  0
  5  6  2  0
  6  7  1  0
  6  8  1  0
  8  9  1  0
  8 10  2  0
 10 11  1  0
 10 12  1  0
 12 13  1  0
 12 14  2  0
 14 15  1  0
  4 16  2  0
 16 17  1  0
 17 18  2  0
 17 19  1  0
 19 20  1  0
 20 21  2  0
 21 22  1  0
 21 23  1  0
 23 24  1  0
 23 25  2  0
 25 26  1  0
 25 27  1  0
 27 28  1  0
 27 29  2  0
 29 30  1  0
 16 31  1  0
 31 32  2  0
 32 33  1  0
 33 34  2  0
 34 35  1  0
 34 36  1  0
 36 37  1  0
 36 38  2  0
 38 39  1  0
 39 40  1  0
 39 41  1  0
 39 42  1  0
 38 43  1  0
 43 44  1  0
 43 45  2  0
 45 46  1  0
 31 47  1  0
 47 48  1  0
 47  2  2  0
 14  5  1  0
 29 20  1  0
 45 33  1  0
M  CHG  3   3  -1  14   1  19  -1
M  END
>  <UniqueID>  (76) 
67

>  <SMILES>  (76) 
Cc1ccc(/N=c2/cc[n-]c(-c3cccc[nH+]3)c2C(=O)[N-]c2cccc(F)c2)cc1

>  <Energy>  (76) 
83.25024803586459

>  <Genealogy>  (76) 
Cc1ccc(N=c2cc[n-]c(-c3cccc[nH+]3)c2C(=O)[N-]c2cccc(F)c2)cc1 (protonated)
Cc1ccc(/N=c2/cc[n-]c(-c3cccc[nH+]3)c2C(=O)[N-]c2cccc(F)c2)cc1 (cis-trans isomerization)
Cc1ccc(/N=c2/cc[n-]c(-c3cccc[nH+]3)c2C(=O)[N-]c2cccc(F)c2)cc1 (3D coordinates assigned)
Cc1ccc(/N=c2/cc[n-]c(-c3cccc[nH+]3)c2C(=O)[N-]c2cccc(F)c2)cc1 (optimized conformer: 83.25024803586459 kcal/mol)

>  <smiles>  (76) 
Cc1ccc(N=c2cc[nH]c(-c3ccccn3)c2C(=O)Nc2cccc(F)c2)cc1

>  <score_type>  (76) 
oracle

>  <origin>  (76) 
adg

>  <m_score__min__energy>  (76) 
-9.4700000000000006

>  <m_primary>  (76) 
energy

$$$$
76:0
     RDKit          3D

 74 77  0  0  0  0  0  0  0  0999 V2000
   57.7180   32.3070   44.3370 C   0  0  0  0  0  0  0  0  0  0  0  0
   57.6510   33.7960   44.6580 C   0  0  0  0  0  0  0  0  0  0  0  0
   58.2770   34.0990   46.0250 C   0  0  0  0  0  0  0  0  0  0  0  0
   57.9390   32.9880   47.0420 C   0  0  0  0  0  0  0  0  0  0  0  0
   59.0320   32.7530   48.0260 N   0  0  2  0  0  0  0  0  0  0  0  0
   58.4990   32.2290   49.3130 C   0  0  0  0  0  0  0  0  0  0  0  0
   59.5360   31.3930   50.0930 C   0  0  0  0  0  0  0  0  0  0  0  0
   59.9550   30.1570   49.2980 C   0  0  0  0  0  0  0  0  0  0  0  0
   60.4510   30.5600   47.9860 N   0  0  0  0  0  0  0  0  0  0  0  0
   59.9440   30.0950   46.7280 C   0  0  0  0  0  0  0  0  0  0  0  0
   59.9340   30.8910   45.7530 O   0  0  0  0  0  0  0  0  0  0  0  0
   59.3740   28.7420   46.5540 C   0  0  0  0  0  0  0  0  0  0  0  0
   60.2230   27.6230   46.5630 C   0  0  0  0  0  0  0  0  0  0  0  0
   59.7070   26.3360   46.3830 C   0  0  0  0  0  0  0  0  0  0  0  0
   58.3250   26.1480   46.1980 C   0  0  0  0  0  0  0  0  0  0  0  0
   57.7580   24.8770   46.0010 C   0  0  0  0  0  0  0  0  0  0  0  0
   58.5020   23.8560   46.0060 O   0  0  0  0  0  0  0  0  0  0  0  0
   56.4020   24.7450   45.8080 N   0  0  0  0  0  0  0  0  0  0  0  0
   55.8230   23.4050   45.5660 C   0  0  0  0  0  0  0  0  0  0  0  0
   54.9480   22.9760   46.7230 C   0  0  0  0  0  0  0  0  0  0  0  0
   55.5000   22.8780   48.0140 C   0  0  0  0  0  0  0  0  0  0  0  0
   54.7150   22.4710   49.0930 C   0  0  0  0  0  0  0  0  0  0  0  0
   53.3700   22.1540   48.8990 C   0  0  0  0  0  0  0  0  0  0  0  0
   52.8060   22.2470   47.6240 C   0  0  0  0  0  0  0  0  0  0  0  0
   53.5870   22.6600   46.5240 C   0  0  0  0  0  0  0  0  0  0  0  0
   53.0420   22.7720   45.2350 O   0  0  0  0  0  0  0  0  0  0  0  0
   52.1800   23.8220   44.8080 C   0  0  0  0  0  0  0  0  0  0  0  0
   55.6000   25.8620   45.8450 C   0  0  0  0  0  0  0  0  0  0  0  0
   54.3510   25.7690   45.6990 O   0  0  0  0  0  0  0  0  0  0  0  0
   56.1400   27.0910   46.0440 N   0  0  0  0  0  0  0  0  0  0  0  0
   57.4720   27.2630   46.2140 C   0  0  0  0  0  0  0  0  0  0  0  0
   57.9900   28.5500   46.4060 C   0  0  0  0  0  0  0  0  0  0  0  0
   59.8710   33.9740   48.1990 C   0  0  0  0  0  0  0  0  0  0  0  0
   61.3660   33.7260   48.0930 C   0  0  0  0  0  0  0  0  0  0  0  0
   61.9960   33.6690   46.8360 C   0  0  0  0  0  0  0  0  0  0  0  0
   63.3750   33.4520   46.7450 C   0  0  0  0  0  0  0  0  0  0  0  0
   64.1390   33.3090   47.9050 C   0  0  0  0  0  0  0  0  0  0  0  0
   63.5290   33.3860   49.1590 C   0  0  0  0  0  0  0  0  0  0  0  0
   62.1500   33.6000   49.2550 C   0  0  0  0  0  0  0  0  0  0  0  0
   57.7439   31.7308   45.2737 H   0  0  0  0  0  0  0  0  0  0  0  0
   56.8320   32.0176   43.7529 H   0  0  0  0  0  0  0  0  0  0  0  0
   58.6264   32.0983   43.7529 H   0  0  0  0  0  0  0  0  0  0  0  0
   58.1955   34.3548   43.8826 H   0  0  0  0  0  0  0  0  0  0  0  0
   56.5938   34.0986   44.6850 H   0  0  0  0  0  0  0  0  0  0  0  0
   59.3694   34.1662   45.9143 H   0  0  0  0  0  0  0  0  0  0  0  0
   57.8699   35.0514   46.3955 H   0  0  0  0  0  0  0  0  0  0  0  0
   57.0298   33.2776   47.5894 H   0  0  0  0  0  0  0  0  0  0  0  0
   57.7961   32.0549   46.4772 H   0  0  0  0  0  0  0  0  0  0  0  0
   59.6640   32.0220   47.6220 H   0  0  0  0  0  0  0  0  0  0  0  0
   58.1911   33.0799   49.9385 H   0  0  0  0  0  0  0  0  0  0  0  0
   57.6513   31.5690   49.0766 H   0  0  0  0  0  0  0  0  0  0  0  0
   60.4236   32.0126   50.2884 H   0  0  0  0  0  0  0  0  0  0  0  0
   59.0798   31.0630   51.0380 H   0  0  0  0  0  0  0  0  0  0  0  0
   60.7496   29.6249   49.8415 H   0  0  0  0  0  0  0  0  0  0  0  0
   59.0863   29.4943   49.1709 H   0  0  0  0  0  0  0  0  0  0  0  0
   61.3040   27.7605   46.7131 H   0  0  0  0  0  0  0  0  0  0  0  0
   60.3832   25.4684   46.3860 H   0  0  0  0  0  0  0  0  0  0  0  0
   55.2170   23.4353   44.6485 H   0  0  0  0  0  0  0  0  0  0  0  0
   56.6450   22.6816   45.4610 H   0  0  0  0  0  0  0  0  0  0  0  0
   56.5601   23.1246   48.1736 H   0  0  0  0  0  0  0  0  0  0  0  0
   55.1568   22.3999   50.0979 H   0  0  0  0  0  0  0  0  0  0  0  0
   52.7532   21.8306   49.7505 H   0  0  0  0  0  0  0  0  0  0  0  0
   51.7451   21.9963   47.4768 H   0  0  0  0  0  0  0  0  0  0  0  0
   51.7607   24.3327   45.6874 H   0  0  0  0  0  0  0  0  0  0  0  0
   52.7509   24.5421   44.2034 H   0  0  0  0  0  0  0  0  0  0  0  0
   51.3625   23.4023   44.2034 H   0  0  0  0  0  0  0  0  0  0  0  0
   57.3104   29.4142   46.4411 H   0  0  0  0  0  0  0  0  0  0  0  0
   59.5865   34.7001   47.4232 H   0  0  0  0  0  0  0  0  0  0  0  0
   59.6845   34.3422   49.2186 H   0  0  0  0  0  0  0  0  0  0  0  0
   61.4007   33.7958   45.9197 H   0  0  0  0  0  0  0  0  0  0  0  0
   63.8580   33.3940   45.7584 H   0  0  0  0  0  0  0  0  0  0  0  0
   65.2227   33.1355   47.8311 H   0  0  0  0  0  0  0  0  0  0  0  0
   64.1334   33.2783   50.0718 H   0  0  0  0  0  0  0  0  0  0  0  0
   61.6754   33.6702   50.2449 H   0  0  0  0  0  0  0  0  0  0  0  0
  1  2  1  0
  2  3  1  0
  3  4  1  0
  4  5  1  0
  5  6  1  0
  6  7  1  0
  7  8  1  0
  8  9  1  0
  9 10  1  0
 10 11  2  0
 10 12  1  0
 12 13  2  0
 13 14  1  0
 14 15  2  0
 15 16  1  0
 16 17  2  0
 16 18  1  0
 18 19  1  0
 19 20  1  0
 20 21  2  0
 21 22  1  0
 22 23  2  0
 23 24  1  0
 24 25  2  0
 25 26  1  0
 26 27  1  0
 18 28  1  0
 28 29  2  0
 28 30  1  0
 30 31  1  0
 31 32  2  0
  5 33  1  0
 33 34  1  0
 34 35  2  0
 35 36  1  0
 36 37  2  0
 37 38  1  0
 38 39  2  0
 32 12  1  0
 39 34  1  0
 31 15  1  0
 25 20  1  0
  1 40  1  0
  1 41  1  0
  1 42  1  0
  2 43  1  0
  2 44  1  0
  3 45  1  0
  3 46  1  0
  4 47  1  0
  4 48  1  0
  5 49  1  6
  6 50  1  0
  6 51  1  0
  7 52  1  0
  7 53  1  0
  8 54  1  0
  8 55  1  0
 13 56  1  0
 14 57  1  0
 19 58  1  0
 19 59  1  0
 21 60  1  0
 22 61  1  0
 23 62  1  0
 24 63  1  0
 27 64  1  0
 27 65  1  0
 27 66  1  0
 32 67  1  0
 33 68  1  0
 33 69  1  0
 35 70  1  0
 36 71  1  0
 37 72  1  0
 38 73  1  0
 39 74  1  0
M  CHG  3   5   1   9  -1  30  -1
M  END
>  <UniqueID>  (77) 
68

>  <SMILES>  (77) 
CCCC[N@H+](CCC[N-]C(=O)c1ccc2c(=O)n(Cc3ccccc3OC)c(=O)[n-]c2c1)Cc1ccccc1

>  <Energy>  (77) 
86.81298501292319

>  <Genealogy>  (77) 
CCCC[NH+](CCC[N-]C(=O)c1ccc2c(=O)n(Cc3ccccc3OC)c(=O)[n-]c2c1)Cc1ccccc1 (protonated)
CCCC[N@H+](CCC[N-]C(=O)c1ccc2c(=O)n(Cc3ccccc3OC)c(=O)[n-]c2c1)Cc1ccccc1 (chirality)
CCCC[N@H+](CCC[N-]C(=O)c1ccc2c(=O)n(Cc3ccccc3OC)c(=O)[n-]c2c1)Cc1ccccc1 (3D coordinates assigned)
CCCC[N@H+](CCC[N-]C(=O)c1ccc2c(=O)n(Cc3ccccc3OC)c(=O)[n-]c2c1)Cc1ccccc1 (optimized conformer: 86.81298501292319 kcal/mol)

>  <smiles>  (77) 
CCCCN(CCCNC(=O)c1ccc2c(=O)n(Cc3ccccc3OC)c(=O)[nH]c2c1)Cc1ccccc1

>  <score_type>  (77) 
oracle

>  <origin>  (77) 
adg

>  <m_score__min__energy>  (77) 
-11.66

>  <m_primary>  (77) 
energy

$$$$
77:0
     RDKit          3D

 51 54  0  0  1  0  0  0  0  0999 V2000
   58.1630   30.5200   43.5420 N   0  0  0  0  0  0  0  0  0  0  0  0
   57.4920   31.4300   44.4160 C   0  0  0  0  0  0  0  0  0  0  0  0
   56.2840   31.1850   44.6500 O   0  0  0  0  0  0  0  0  0  0  0  0
   58.2230   32.5550   44.9690 C   0  0  0  0  0  0  0  0  0  0  0  0
   57.9060   33.8550   44.5770 C   0  0  0  0  0  0  0  0  0  0  0  0
   58.5550   34.9620   45.0520 C   0  0  0  0  0  0  0  0  0  0  0  0
   59.5760   34.8000   45.9630 C   0  0  0  0  0  0  0  0  0  0  0  0
   59.8930   33.5360   46.3530 C   0  0  0  0  0  0  0  0  0  0  0  0
   59.2430   32.3920   45.8800 C   0  0  0  0  0  0  0  0  0  0  0  0
   59.6370   31.0930   46.3920 C   0  0  0  0  0  0  0  0  0  0  0  0
   58.9520   29.9600   46.0900 N   0  0  0  0  0  0  0  0  0  0  0  0
   59.5340   28.9120   46.6950 C   0  0  0  0  0  0  0  0  0  0  0  0
   59.1860   27.5300   46.6650 N   0  0  0  0  0  0  0  0  0  0  0  0
   58.5500   26.8900   47.7990 C   0  0  0  0  0  0  0  0  0  0  0  0
   57.9850   25.5420   47.5080 C   0  0  0  0  0  0  0  0  0  0  0  0
   58.6040   24.8130   46.5350 O   0  0  0  0  0  0  0  0  0  0  0  0
   59.7610   25.3330   46.0220 C   0  0  0  0  0  0  0  0  0  0  0  0
   59.4880   26.7280   45.4730 C   0  0  0  0  0  0  0  0  0  0  0  0
   60.5690   29.3950   47.3620 N   0  0  0  0  0  0  0  0  0  0  0  0
   60.6710   30.7470   47.2010 C   0  0  0  0  0  0  0  0  0  0  0  0
   61.7310   31.5540   47.7780 C   0  0  2  0  0  0  0  0  0  0  0  0
   63.0690   31.5270   47.1360 C   0  0  0  0  0  0  0  0  0  0  0  0
   63.7720   32.7360   47.5270 N   0  0  0  0  0  0  0  0  0  0  0  0
   63.8610   32.9280   48.9440 C   0  0  0  0  0  0  0  0  0  0  0  0
   62.6910   32.5310   49.7630 C   0  0  0  0  0  0  0  0  0  0  0  0
   61.9670   31.3090   49.2710 C   0  0  1  0  0  0  0  0  0  0  0  0
   60.7850   31.1870   49.9560 F   0  0  0  0  0  0  0  0  0  0  0  0
   59.0080   30.0480   43.9330 H   0  0  0  0  0  0  0  0  0  0  0  0
   57.8130   30.3420   42.5580 H   0  0  0  0  0  0  0  0  0  0  0  0
   57.0934   33.9978   43.8494 H   0  0  0  0  0  0  0  0  0  0  0  0
   58.2657   35.9671   44.7114 H   0  0  0  0  0  0  0  0  0  0  0  0
   60.1195   35.6684   46.3636 H   0  0  0  0  0  0  0  0  0  0  0  0
   60.7068   33.4065   47.0817 H   0  0  0  0  0  0  0  0  0  0  0  0
   59.2981   26.7842   48.5985 H   0  0  0  0  0  0  0  0  0  0  0  0
   57.7029   27.5301   48.0864 H   0  0  0  0  0  0  0  0  0  0  0  0
   58.0245   24.9566   48.4384 H   0  0  0  0  0  0  0  0  0  0  0  0
   56.9712   25.7311   47.1253 H   0  0  0  0  0  0  0  0  0  0  0  0
   60.5202   25.3929   46.8157 H   0  0  0  0  0  0  0  0  0  0  0  0
   60.1286   24.6847   45.2129 H   0  0  0  0  0  0  0  0  0  0  0  0
   60.3725   27.1221   44.9512 H   0  0  0  0  0  0  0  0  0  0  0  0
   58.6694   26.7395   44.7383 H   0  0  0  0  0  0  0  0  0  0  0  0
   61.2340   28.8310   47.9420 H   0  0  0  0  0  0  0  0  0  0  0  0
   61.2923   32.5436   47.5825 H   0  0  0  0  0  0  0  0  0  0  0  0
   63.6287   30.6425   47.4741 H   0  0  0  0  0  0  0  0  0  0  0  0
   62.9698   31.4764   46.0417 H   0  0  0  0  0  0  0  0  0  0  0  0
   64.7520   32.5880   47.1860 H   0  0  0  0  0  0  0  0  0  0  0  0
   64.7252   32.3488   49.3014 H   0  0  0  0  0  0  0  0  0  0  0  0
   63.9382   34.0174   49.0750 H   0  0  0  0  0  0  0  0  0  0  0  0
   63.0405   32.3334   50.7871 H   0  0  0  0  0  0  0  0  0  0  0  0
   61.9734   33.3626   49.7043 H   0  0  0  0  0  0  0  0  0  0  0  0
   62.5302   30.3771   49.4273 H   0  0  0  0  0  0  0  0  0  0  0  0
  1  2  1  0
  2  3  2  0
  2  4  1  0
  4  5  2  0
  5  6  1  0
  6  7  2  0
  7  8  1  0
  8  9  2  0
  9 10  1  0
 10 11  1  0
 11 12  2  0
 12 13  1  0
 13 14  1  0
 14 15  1  0
 15 16  1  0
 16 17  1  0
 17 18  1  0
 12 19  1  0
 19 20  1  0
 20 21  1  0
 21 22  1  0
 22 23  1  0
 23 24  1  0
 24 25  1  0
 25 26  1  0
 26 27  1  0
  9  4  1  0
 20 10  2  0
 26 21  1  0
 18 13  1  0
  1 28  1  0
  1 29  1  0
  5 30  1  0
  6 31  1  0
  7 32  1  0
  8 33  1  0
 14 34  1  0
 14 35  1  0
 15 36  1  0
 15 37  1  0
 17 38  1  0
 17 39  1  0
 18 40  1  0
 18 41  1  0
 19 42  1  0
 21 43  1  1
 22 44  1  0
 22 45  1  0
 23 46  1  0
 24 47  1  0
 24 48  1  0
 25 49  1  0
 25 50  1  0
 26 51  1  6
M  END
>  <smiles>  (78) 
NC(=O)c1ccccc1-c1nc(N2CCOCC2)[nH]c1C1CNCCC1F

>  <score_type>  (78) 
oracle

>  <origin>  (78) 
adg

>  <m_score__min__energy>  (78) 
-8.1699999999999999

>  <m_primary>  (78) 
energy

$$$$
78:0
     RDKit          3D

 54 57  0  0  0  0  0  0  0  0999 V2000
   57.3670   25.6980   44.5790 O   0  0  0  0  0  0  0  0  0  0  0  0
   57.4250   26.5300   45.5240 C   0  0  0  0  0  0  0  0  0  0  0  0
   58.5760   26.4680   46.5000 C   0  0  0  0  0  0  0  0  0  0  0  0
   59.1130   27.8390   46.8260 C   0  0  0  0  0  0  0  0  0  0  0  0
   58.7570   28.4750   48.0270 C   0  0  0  0  0  0  0  0  0  0  0  0
   59.2890   29.7280   48.3450 C   0  0  0  0  0  0  0  0  0  0  0  0
   60.1860   30.3560   47.4700 C   0  0  0  0  0  0  0  0  0  0  0  0
   60.8850   31.9230   47.8770 S   0  0  0  0  0  0  0  0  0  0  0  0
   61.0020   32.7290   46.6120 O   0  0  0  0  0  0  0  0  0  0  0  0
   59.9700   32.6560   48.8180 O   0  0  0  0  0  0  0  0  0  0  0  0
   62.4760   31.7210   48.5850 N   0  0  0  0  0  0  0  0  0  0  0  0
   63.5510   32.0310   47.6110 C   0  0  0  0  0  0  0  0  0  0  0  0
   64.1100   33.4570   47.7750 C   0  0  0  0  0  0  0  0  0  0  0  0
   63.1060   34.3320   48.2350 O   0  0  0  0  0  0  0  0  0  0  0  0
   62.7530   34.0160   49.5710 C   0  0  0  0  0  0  0  0  0  0  0  0
   62.6250   32.4950   49.8350 C   0  0  0  0  0  0  0  0  0  0  0  0
   60.5560   29.7160   46.2800 C   0  0  0  0  0  0  0  0  0  0  0  0
   60.0240   28.4640   45.9600 C   0  0  0  0  0  0  0  0  0  0  0  0
   56.3770   27.5090   45.6300 N   0  0  0  0  0  0  0  0  0  0  0  0
   56.3260   28.6850   45.0760 C   0  0  0  0  0  0  0  0  0  0  0  0
   55.1830   29.3390   44.7710 N   0  0  0  0  0  0  0  0  0  0  0  0
   55.6230   30.4810   44.2080 C   0  0  0  0  0  0  0  0  0  0  0  0
   57.0000   30.4670   44.1920 C   0  0  0  0  0  0  0  0  0  0  0  0
   57.9020   31.5410   43.6750 C   0  0  0  0  0  0  0  0  0  0  0  0
   58.1040   32.6000   44.7230 C   0  0  0  0  0  0  0  0  0  0  0  0
   57.5700   32.4360   46.0130 C   0  0  0  0  0  0  0  0  0  0  0  0
   57.7870   33.4090   46.9940 C   0  0  0  0  0  0  0  0  0  0  0  0
   58.5450   34.5460   46.6980 C   0  0  0  0  0  0  0  0  0  0  0  0
   59.0900   34.7100   45.4220 C   0  0  0  0  0  0  0  0  0  0  0  0
   58.8750   33.7410   44.4380 C   0  0  0  0  0  0  0  0  0  0  0  0
   57.4070   29.3470   44.7350 O   0  0  0  0  0  0  0  0  0  0  0  0
   58.2289   25.9921   47.4290 H   0  0  0  0  0  0  0  0  0  0  0  0
   59.3859   25.8870   46.0347 H   0  0  0  0  0  0  0  0  0  0  0  0
   58.0570   27.9851   48.7198 H   0  0  0  0  0  0  0  0  0  0  0  0
   59.0028   30.2227   49.2849 H   0  0  0  0  0  0  0  0  0  0  0  0
   62.5510   30.7060   48.8370 H   0  0  0  0  0  0  0  0  0  0  0  0
   64.3721   31.3129   47.7530 H   0  0  0  0  0  0  0  0  0  0  0  0
   63.1165   31.9588   46.6030 H   0  0  0  0  0  0  0  0  0  0  0  0
   64.9360   33.4405   48.5013 H   0  0  0  0  0  0  0  0  0  0  0  0
   64.4702   33.8119   46.7981 H   0  0  0  0  0  0  0  0  0  0  0  0
   63.5262   34.4213   50.2402 H   0  0  0  0  0  0  0  0  0  0  0  0
   61.7641   34.4602   49.7572 H   0  0  0  0  0  0  0  0  0  0  0  0
   63.5279   32.1495   50.3598 H   0  0  0  0  0  0  0  0  0  0  0  0
   61.7219   32.3329   50.4417 H   0  0  0  0  0  0  0  0  0  0  0  0
   61.2676   30.2005   45.5953 H   0  0  0  0  0  0  0  0  0  0  0  0
   60.3205   27.9659   45.0251 H   0  0  0  0  0  0  0  0  0  0  0  0
   54.9866   31.2919   43.8240 H   0  0  0  0  0  0  0  0  0  0  0  0
   58.8751   31.1017   43.4103 H   0  0  0  0  0  0  0  0  0  0  0  0
   57.4419   31.9988   42.7869 H   0  0  0  0  0  0  0  0  0  0  0  0
   56.9794   31.5392   46.2517 H   0  0  0  0  0  0  0  0  0  0  0  0
   57.3608   33.2796   47.9998 H   0  0  0  0  0  0  0  0  0  0  0  0
   58.7123   35.3116   47.4699 H   0  0  0  0  0  0  0  0  0  0  0  0
   59.6892   35.6032   45.1915 H   0  0  0  0  0  0  0  0  0  0  0  0
   59.3107   33.8714   43.4364 H   0  0  0  0  0  0  0  0  0  0  0  0
  1  2  2  0
  2  3  1  0
  3  4  1  0
  4  5  2  0
  5  6  1  0
  6  7  2  0
  7  8  1  0
  8  9  2  0
  8 10  2  0
  8 11  1  0
 11 12  1  0
 12 13  1  0
 13 14  1  0
 14 15  1  0
 15 16  1  0
  7 17  1  0
 17 18  2  0
  2 19  1  0
 19 20  2  3
 20 21  1  0
 21 22  1  0
 22 23  2  0
 23 24  1  0
 24 25  1  0
 25 26  2  0
 26 27  1  0
 27 28  2  0
 28 29  1  0
 29 30  2  0
 23 31  1  0
 18  4  1  0
 31 20  1  0
 16 11  1  0
 30 25  1  0
  3 32  1  0
  3 33  1  0
  5 34  1  0
  6 35  1  0
 11 36  1  0
 12 37  1  0
 12 38  1  0
 13 39  1  0
 13 40  1  0
 15 41  1  0
 15 42  1  0
 16 43  1  0
 16 44  1  0
 17 45  1  0
 18 46  1  0
 22 47  1  0
 24 48  1  0
 24 49  1  0
 26 50  1  0
 27 51  1  0
 28 52  1  0
 29 53  1  0
 30 54  1  0
M  CHG  2  11   1  21  -1
M  END
>  <UniqueID>  (79) 
69

>  <SMILES>  (79) 
O=C(Cc1ccc(S(=O)(=O)[NH+]2CCOCC2)cc1)N=c1[n-]cc(Cc2ccccc2)o1

>  <Energy>  (79) 
99.61607092639912

>  <Genealogy>  (79) 
O=C(Cc1ccc(S(=O)(=O)[NH+]2CCOCC2)cc1)N=c1[n-]cc(Cc2ccccc2)o1 (protonated)
O=C(Cc1ccc(S(=O)(=O)[NH+]2CCOCC2)cc1)N=c1[n-]cc(Cc2ccccc2)o1 (3D coordinates assigned)
O=C(Cc1ccc(S(=O)(=O)[NH+]2CCOCC2)cc1)N=c1[n-]cc(Cc2ccccc2)o1 (nonaromatic ring conformer: 99.61607092639912 kcal/mol)

>  <smiles>  (79) 
O=C(Cc1ccc(S(=O)(=O)N2CCOCC2)cc1)N=c1[nH]cc(Cc2ccccc2)o1

>  <score_type>  (79) 
oracle

>  <origin>  (79) 
adg

>  <m_score__min__energy>  (79) 
-9.8499999999999996

>  <m_primary>  (79) 
energy

$$$$
79:0
     RDKit          3D

 25 26  0  0  0  0  0  0  0  0999 V2000
   57.3206   31.6427   43.5183 H   0  0  0  0  0  0  0  0  0  0  0  0
   57.1100   30.7370   44.1060 C   0  0  0  0  0  0  0  0  0  0  0  0
   58.0970   30.0820   45.3030 S   0  0  0  0  0  0  0  0  0  0  0  0
   57.0600   28.8000   45.6120 C   0  0  0  0  0  0  0  0  0  0  0  0
   57.2960   27.9020   46.5250 N   0  0  0  0  0  0  0  0  0  0  0  0
   57.8750   26.5970   46.3640 C   0  0  0  0  0  0  0  0  0  0  0  0
   59.0470   26.3680   46.7690 O   0  0  0  0  0  0  0  0  0  0  0  0
   57.0710   25.4830   45.7920 C   0  0  0  0  0  0  0  0  0  0  0  0
   57.7210   24.3070   45.3630 C   0  0  0  0  0  0  0  0  0  0  0  0
   58.8154   24.2326   45.4454 H   0  0  0  0  0  0  0  0  0  0  0  0
   56.9940   23.2310   44.8330 C   0  0  0  0  0  0  0  0  0  0  0  0
   57.7060   22.0030   44.3500 C   0  0  0  0  0  0  0  0  0  0  0  0
   58.0477   21.4137   45.2137 H   0  0  0  0  0  0  0  0  0  0  0  0
   57.0193   21.3967   43.7410 H   0  0  0  0  0  0  0  0  0  0  0  0
   58.5733   22.2977   43.7410 H   0  0  0  0  0  0  0  0  0  0  0  0
   55.6040   23.3390   44.6960 C   0  0  0  0  0  0  0  0  0  0  0  0
   55.0299   22.5080   44.2603 H   0  0  0  0  0  0  0  0  0  0  0  0
   54.9460   24.4960   45.1100 C   0  0  0  0  0  0  0  0  0  0  0  0
   53.8532   24.5684   45.0074 H   0  0  0  0  0  0  0  0  0  0  0  0
   55.6640   25.5660   45.6550 C   0  0  0  0  0  0  0  0  0  0  0  0
   54.9650   26.7040   46.0400 O   0  0  0  0  0  0  0  0  0  0  0  0
   55.9540   28.8610   44.8280 N   0  0  0  0  0  0  0  0  0  0  0  0
   55.1420   28.2100   44.8600 H   0  0  0  0  0  0  0  0  0  0  0  0
   55.9820   29.9320   43.9910 C   0  0  0  0  0  0  0  0  0  0  0  0
   55.1733   30.1456   43.2766 H   0  0  0  0  0  0  0  0  0  0  0  0
  1  2  1  0
  2  3  1  0
  3  4  1  0
  4  5  2  0
  5  6  1  0
  6  7  2  0
  6  8  1  0
  8  9  2  0
  9 10  1  0
  9 11  1  0
 11 12  1  0
 12 13  1  0
 12 14  1  0
 12 15  1  0
 11 16  2  0
 16 17  1  0
 16 18  1  0
 18 19  1  0
 18 20  2  0
 20 21  1  0
  4 22  1  0
 22 23  1  0
 22 24  1  0
 24 25  1  0
 24  2  2  0
 20  8  1  0
M  CHG  1  21  -1
M  END
>  <UniqueID>  (80) 
70

>  <SMILES>  (80) 
Cc1ccc([O-])c(C(=O)/N=c2\[nH]ccs2)c1

>  <Energy>  (80) 
62.62355220173382

>  <Genealogy>  (80) 
Cc1ccc([O-])c(C(=O)N=c2[nH]ccs2)c1 (protonated)
Cc1ccc([O-])c(C(=O)/N=c2\[nH]ccs2)c1 (cis-trans isomerization)
Cc1ccc([O-])c(C(=O)/N=c2\[nH]ccs2)c1 (3D coordinates assigned)
Cc1ccc([O-])c(C(=O)/N=c2\[nH]ccs2)c1 (optimized conformer: 62.62355220173382 kcal/mol)

>  <smiles>  (80) 
Cc1ccc(O)c(C(=O)N=c2[nH]ccs2)c1

>  <score_type>  (80) 
oracle

>  <origin>  (80) 
adg

>  <m_score__min__energy>  (80) 
-10.48

>  <m_primary>  (80) 
energy

$$$$
80:0
     RDKit          3D

 58 61  0  0  0  0  0  0  0  0999 V2000
   58.4890   33.6780   46.3870 C   0  0  0  0  0  0  0  0  0  0  0  0
   58.5120   32.2490   45.9100 C   0  0  0  0  0  0  0  0  0  0  0  0
   57.3850   31.7350   45.2460 C   0  0  0  0  0  0  0  0  0  0  0  0
   57.3550   30.4040   44.7970 C   0  0  0  0  0  0  0  0  0  0  0  0
   56.1650   29.8700   44.0970 C   0  0  0  0  0  0  0  0  0  0  0  0
   56.0700   29.9470   42.8430 O   0  0  0  0  0  0  0  0  0  0  0  0
   55.1380   29.2670   44.8150 O   0  0  0  0  0  0  0  0  0  0  0  0
   58.4720   29.5850   45.0170 C   0  0  0  0  0  0  0  0  0  0  0  0
   59.6040   30.0880   45.6590 C   0  0  0  0  0  0  0  0  0  0  0  0
   59.6480   31.4220   46.0930 C   0  0  0  0  0  0  0  0  0  0  0  0
   60.8870   31.9200   46.7280 C   0  0  0  0  0  0  0  0  0  0  0  0
   61.3180   33.2370   46.5100 C   0  0  0  0  0  0  0  0  0  0  0  0
   62.4940   33.7010   47.1030 C   0  0  0  0  0  0  0  0  0  0  0  0
   63.2570   32.8570   47.9240 C   0  0  0  0  0  0  0  0  0  0  0  0
   64.5140   33.3680   48.5770 C   0  0  0  0  0  0  0  0  0  0  0  0
   64.3330   33.4640   50.0300 N   0  0  0  0  0  0  0  0  0  0  0  0
   65.2970   33.4690   50.9920 C   0  0  0  0  0  0  0  0  0  0  0  0
   66.7650   33.3970   50.7120 C   0  0  0  0  0  0  0  0  0  0  0  0
   64.7980   33.4710   52.2550 N   0  0  0  0  0  0  0  0  0  0  0  0
   63.4670   33.4760   52.0560 C   0  0  0  0  0  0  0  0  0  0  0  0
   62.4680   33.4670   53.0260 C   0  0  0  0  0  0  0  0  0  0  0  0
   61.1250   33.4530   52.5990 C   0  0  0  0  0  0  0  0  0  0  0  0
   60.0940   33.4370   53.5940 N   0  0  0  0  0  0  0  0  0  0  0  0
   58.5040   32.7770   53.3740 S   0  0  0  0  0  0  0  0  0  0  0  0
   57.9430   32.3650   54.7070 O   0  0  0  0  0  0  0  0  0  0  0  0
   57.6080   33.8130   52.7560 O   0  0  0  0  0  0  0  0  0  0  0  0
   58.5800   31.3840   52.3270 N   0  0  0  0  0  0  0  0  0  0  0  0
   58.0330   31.7350   51.0110 C   0  0  0  0  0  0  0  0  0  0  0  0
   57.8020   30.2880   52.9200 C   0  0  0  0  0  0  0  0  0  0  0  0
   60.8300   33.4460   51.2070 C   0  0  0  0  0  0  0  0  0  0  0  0
   61.8640   33.4510   50.2550 C   0  0  0  0  0  0  0  0  0  0  0  0
   63.1800   33.4680   50.7230 C   0  0  0  0  0  0  0  0  0  0  0  0
   62.8300   31.5360   48.1350 C   0  0  0  0  0  0  0  0  0  0  0  0
   61.6560   31.0690   47.5360 C   0  0  0  0  0  0  0  0  0  0  0  0
   58.4887   33.6975   47.4868 H   0  0  0  0  0  0  0  0  0  0  0  0
   59.3788   34.2044   46.0112 H   0  0  0  0  0  0  0  0  0  0  0  0
   57.5827   34.1755   46.0112 H   0  0  0  0  0  0  0  0  0  0  0  0
   56.5136   32.3843   45.0753 H   0  0  0  0  0  0  0  0  0  0  0  0
   58.4555   28.5378   44.6807 H   0  0  0  0  0  0  0  0  0  0  0  0
   60.4711   29.4322   45.8268 H   0  0  0  0  0  0  0  0  0  0  0  0
   60.7268   33.9074   45.8689 H   0  0  0  0  0  0  0  0  0  0  0  0
   62.8244   34.7351   46.9253 H   0  0  0  0  0  0  0  0  0  0  0  0
   65.3419   32.6771   48.3598 H   0  0  0  0  0  0  0  0  0  0  0  0
   64.7417   34.3679   48.1790 H   0  0  0  0  0  0  0  0  0  0  0  0
   67.3186   33.3698   51.6622 H   0  0  0  0  0  0  0  0  0  0  0  0
   66.9838   32.4870   50.1340 H   0  0  0  0  0  0  0  0  0  0  0  0
   67.0718   34.2812   50.1340 H   0  0  0  0  0  0  0  0  0  0  0  0
   62.7203   33.4707   54.0967 H   0  0  0  0  0  0  0  0  0  0  0  0
   57.1137   32.3249   51.1415 H   0  0  0  0  0  0  0  0  0  0  0  0
   58.7727   32.3275   50.4526 H   0  0  0  0  0  0  0  0  0  0  0  0
   57.8026   30.8157   50.4526 H   0  0  0  0  0  0  0  0  0  0  0  0
   57.8501   30.3558   54.0168 H   0  0  0  0  0  0  0  0  0  0  0  0
   56.7543   30.3636   52.5936 H   0  0  0  0  0  0  0  0  0  0  0  0
   58.2190   29.3239   52.5936 H   0  0  0  0  0  0  0  0  0  0  0  0
   59.7821   33.4366   50.8726 H   0  0  0  0  0  0  0  0  0  0  0  0
   61.6442   33.4418   49.1772 H   0  0  0  0  0  0  0  0  0  0  0  0
   63.4221   30.8651   48.7748 H   0  0  0  0  0  0  0  0  0  0  0  0
   61.3340   30.0299   47.6990 H   0  0  0  0  0  0  0  0  0  0  0  0
  1  2  1  0
  2  3  2  0
  3  4  1  0
  4  5  1  0
  5  6  2  0
  5  7  1  0
  4  8  2  0
  8  9  1  0
  9 10  2  0
 10 11  1  0
 11 12  2  0
 12 13  1  0
 13 14  2  0
 14 15  1  0
 15 16  1  0
 16 17  1  0
 17 18  1  0
 17 19  2  0
 19 20  1  0
 20 21  2  0
 21 22  1  0
 22 23  1  0
 23 24  1  0
 24 25  2  0
 24 26  2  0
 24 27  1  0
 27 28  1  0
 27 29  1  0
 22 30  2  0
 30 31  1  0
 31 32  2  0
 14 33  1  0
 33 34  2  0
 10  2  1  0
 34 11  1  0
 32 16  1  0
 32 20  1  0
  1 35  1  0
  1 36  1  0
  1 37  1  0
  3 38  1  0
  8 39  1  0
  9 40  1  0
 12 41  1  0
 13 42  1  0
 15 43  1  0
 15 44  1  0
 18 45  1  0
 18 46  1  0
 18 47  1  0
 21 48  1  0
 28 49  1  0
 28 50  1  0
 28 51  1  0
 29 52  1  0
 29 53  1  0
 29 54  1  0
 30 55  1  0
 31 56  1  0
 33 57  1  0
 34 58  1  0
M  CHG  2   7  -1  23  -1
M  END
>  <UniqueID>  (81) 
71

>  <SMILES>  (81) 
Cc1cc(C(=O)[O-])ccc1-c1ccc(Cn2c(C)nc3cc([N-]S(=O)(=O)N(C)C)ccc32)cc1

>  <Energy>  (81) 
103.98524212475932

>  <Genealogy>  (81) 
Cc1cc(C(=O)[O-])ccc1-c1ccc(Cn2c(C)nc3cc([N-]S(=O)(=O)N(C)C)ccc32)cc1 (protonated)
Cc1cc(C(=O)[O-])ccc1-c1ccc(Cn2c(C)nc3cc([N-]S(=O)(=O)N(C)C)ccc32)cc1 (3D coordinates assigned)
Cc1cc(C(=O)[O-])ccc1-c1ccc(Cn2c(C)nc3cc([N-]S(=O)(=O)N(C)C)ccc32)cc1 (optimized conformer: 103.98524212475932 kcal/mol)

>  <smiles>  (81) 
Cc1cc(C(=O)O)ccc1-c1ccc(Cn2c(C)nc3cc(NS(=O)(=O)N(C)C)ccc32)cc1

>  <score_type>  (81) 
oracle

>  <origin>  (81) 
adg

>  <m_score__min__energy>  (81) 
-11.16

>  <m_primary>  (81) 
energy

$$$$
81:0
     RDKit          3D

 40 42  0  0  0  0  0  0  0  0999 V2000
   54.9650   24.6640   45.9410 O   0  0  0  0  0  0  0  0  0  0  0  0
   56.0260   25.3280   45.8070 C   0  0  0  0  0  0  0  0  0  0  0  0
   57.2320   24.6650   45.1870 C   0  0  0  0  0  0  0  0  0  0  0  0
   57.5390   23.2920   45.8080 C   0  0  0  0  0  0  0  0  0  0  0  0
   57.0170   22.1610   44.9620 C   0  0  0  0  0  0  0  0  0  0  0  0
   56.4830   21.0120   45.5660 C   0  0  0  0  0  0  0  0  0  0  0  0
   56.0400   19.9560   44.7660 C   0  0  0  0  0  0  0  0  0  0  0  0
   56.1320   20.0410   43.4120 N   0  0  0  0  0  0  0  0  0  0  0  0
   56.6490   21.1400   42.8000 C   0  0  0  0  0  0  0  0  0  0  0  0
   57.1030   22.2180   43.5630 C   0  0  0  0  0  0  0  0  0  0  0  0
   56.0970   26.6280   46.4080 N   0  0  0  0  0  0  0  0  0  0  0  0
   56.9130   27.7240   45.9820 C   0  0  0  0  0  0  0  0  0  0  0  0
   58.2860   27.8410   46.0940 C   0  0  0  0  0  0  0  0  0  0  0  0
   58.6070   29.0140   45.4370 C   0  0  0  0  0  0  0  0  0  0  0  0
   59.8900   29.5410   45.3510 O   0  0  0  0  0  0  0  0  0  0  0  0
   57.5070   29.5930   44.9030 N   0  0  0  0  0  0  0  0  0  0  0  0
   57.4320   30.8310   44.1760 C   0  0  0  0  0  0  0  0  0  0  0  0
   56.9660   30.8280   43.0040 O   0  0  0  0  0  0  0  0  0  0  0  0
   57.9030   32.1060   44.7630 C   0  0  0  0  0  0  0  0  0  0  0  0
   57.7700   32.3410   46.1430 C   0  0  0  0  0  0  0  0  0  0  0  0
   58.1990   33.5510   46.6990 C   0  0  0  0  0  0  0  0  0  0  0  0
   58.7530   34.5390   45.8820 C   0  0  0  0  0  0  0  0  0  0  0  0
   58.8750   34.3220   44.5060 C   0  0  0  0  0  0  0  0  0  0  0  0
   58.4480   33.1130   43.9470 C   0  0  0  0  0  0  0  0  0  0  0  0
   56.4730   28.7980   45.2400 C   0  0  0  0  0  0  0  0  0  0  0  0
   55.1530   29.0310   44.8710 O   0  0  0  0  0  0  0  0  0  0  0  0
   57.0458   24.5310   44.1112 H   0  0  0  0  0  0  0  0  0  0  0  0
   58.1001   25.3148   45.3716 H   0  0  0  0  0  0  0  0  0  0  0  0
   58.6289   23.1846   45.9113 H   0  0  0  0  0  0  0  0  0  0  0  0
   57.0398   23.2425   46.7870 H   0  0  0  0  0  0  0  0  0  0  0  0
   56.4138   20.9436   46.6617 H   0  0  0  0  0  0  0  0  0  0  0  0
   55.6161   19.0543   45.2321 H   0  0  0  0  0  0  0  0  0  0  0  0
   56.7097   21.1799   41.7024 H   0  0  0  0  0  0  0  0  0  0  0  0
   57.5253   23.1061   43.0701 H   0  0  0  0  0  0  0  0  0  0  0  0
   58.9758   27.1484   46.5984 H   0  0  0  0  0  0  0  0  0  0  0  0
   57.3262   31.5692   46.7890 H   0  0  0  0  0  0  0  0  0  0  0  0
   58.0999   33.7244   47.7807 H   0  0  0  0  0  0  0  0  0  0  0  0
   59.0935   35.4883   46.3211 H   0  0  0  0  0  0  0  0  0  0  0  0
   59.3071   35.1027   43.8627 H   0  0  0  0  0  0  0  0  0  0  0  0
   58.5391   32.9491   42.8631 H   0  0  0  0  0  0  0  0  0  0  0  0
  1  2  2  0
  2  3  1  0
  3  4  1  0
  4  5  1  0
  5  6  2  0
  6  7  1  0
  7  8  2  0
  8  9  1  0
  9 10  2  0
  2 11  1  0
 11 12  1  0
 12 13  1  0
 13 14  2  0
 14 15  1  0
 14 16  1  0
 16 17  1  0
 17 18  2  0
 17 19  1  0
 19 20  2  0
 20 21  1  0
 21 22  2  0
 22 23  1  0
 23 24  2  0
 16 25  1  0
 25 26  1  0
 10  5  1  0
 25 12  2  0
 24 19  1  0
  3 27  1  0
  3 28  1  0
  4 29  1  0
  4 30  1  0
  6 31  1  0
  7 32  1  0
  9 33  1  0
 10 34  1  0
 13 35  1  0
 20 36  1  0
 21 37  1  0
 22 38  1  0
 23 39  1  0
 24 40  1  0
M  CHG  3  11  -1  15  -1  26  -1
M  END
>  <UniqueID>  (82) 
72

>  <SMILES>  (82) 
O=C(CCc1ccncc1)[N-]c1cc([O-])n(C(=O)c2ccccc2)c1[O-]

>  <Energy>  (82) 
80.30433924102738

>  <Genealogy>  (82) 
O=C(CCc1ccncc1)[N-]c1cc([O-])n(C(=O)c2ccccc2)c1[O-] (protonated)
O=C(CCc1ccncc1)[N-]c1cc([O-])n(C(=O)c2ccccc2)c1[O-] (3D coordinates assigned)
O=C(CCc1ccncc1)[N-]c1cc([O-])n(C(=O)c2ccccc2)c1[O-] (optimized conformer: 80.30433924102738 kcal/mol)

>  <smiles>  (82) 
O=C(CCc1ccncc1)Nc1cc(O)n(C(=O)c2ccccc2)c1O

>  <score_type>  (82) 
oracle

>  <origin>  (82) 
adg

>  <m_score__min__energy>  (82) 
-15.300000000000001

>  <m_primary>  (82) 
energy

$$$$
82:0
     RDKit          3D

 41 43  0  0  0  0  0  0  0  0999 V2000
   59.5301   32.3051   51.0994 H   0  0  0  0  0  0  0  0  0  0  0  0
   59.3620   31.8990   50.0910 C   0  0  0  0  0  0  0  0  0  0  0  0
   58.6690   32.6240   49.1750 N   0  0  0  0  0  0  0  0  0  0  0  0
   58.4500   32.1760   47.9080 C   0  0  0  0  0  0  0  0  0  0  0  0
   57.7560   32.9240   47.0960 N   0  0  0  0  0  0  0  0  0  0  0  0
   58.2160   33.5420   45.8480 C   0  0  0  0  0  0  0  0  0  0  0  0
   57.7823   34.5498   45.7684 H   0  0  0  0  0  0  0  0  0  0  0  0
   59.3148   33.5861   45.8722 H   0  0  0  0  0  0  0  0  0  0  0  0
   57.8040   32.7350   44.6390 C   0  0  0  0  0  0  0  0  0  0  0  0
   57.0090   31.5860   44.7990 C   0  0  0  0  0  0  0  0  0  0  0  0
   56.6821   31.2819   45.8043 H   0  0  0  0  0  0  0  0  0  0  0  0
   56.6320   30.8280   43.6850 C   0  0  0  0  0  0  0  0  0  0  0  0
   56.0065   29.9326   43.8158 H   0  0  0  0  0  0  0  0  0  0  0  0
   57.0490   31.2070   42.4070 C   0  0  0  0  0  0  0  0  0  0  0  0
   56.7398   30.6183   41.5307 H   0  0  0  0  0  0  0  0  0  0  0  0
   57.8590   32.3340   42.2410 C   0  0  0  0  0  0  0  0  0  0  0  0
   58.1931   32.6273   41.2348 H   0  0  0  0  0  0  0  0  0  0  0  0
   58.2450   33.0890   43.3530 C   0  0  0  0  0  0  0  0  0  0  0  0
   58.8973   33.9647   43.2201 H   0  0  0  0  0  0  0  0  0  0  0  0
   58.9670   30.9220   47.5270 C   0  0  0  0  0  0  0  0  0  0  0  0
   58.8422   30.5637   46.4945 H   0  0  0  0  0  0  0  0  0  0  0  0
   59.6410   30.1330   48.4690 C   0  0  0  0  0  0  0  0  0  0  0  0
   60.1390   28.7910   48.1090 C   0  0  0  0  0  0  0  0  0  0  0  0
   60.3850   27.9620   49.0230 O   0  0  0  0  0  0  0  0  0  0  0  0
   60.3210   28.3900   46.7440 N   0  0  0  0  0  0  0  0  0  0  0  0
   60.0290   27.0570   46.2260 C   0  0  0  0  0  0  0  0  0  0  0  0
   60.4710   26.9481   45.2246 H   0  0  0  0  0  0  0  0  0  0  0  0
   60.4565   26.3004   46.9004 H   0  0  0  0  0  0  0  0  0  0  0  0
   58.5440   26.8670   46.1400 C   0  0  0  0  0  0  0  0  0  0  0  0
   57.9660   25.6560   46.5530 C   0  0  0  0  0  0  0  0  0  0  0  0
   58.6052   24.8443   46.9307 H   0  0  0  0  0  0  0  0  0  0  0  0
   56.5810   25.4780   46.4860 C   0  0  0  0  0  0  0  0  0  0  0  0
   56.1346   24.5240   46.8032 H   0  0  0  0  0  0  0  0  0  0  0  0
   55.7620   26.5090   46.0170 C   0  0  0  0  0  0  0  0  0  0  0  0
   54.3860   26.3240   45.9520 O   0  0  0  0  0  0  0  0  0  0  0  0
   56.3300   27.7250   45.6170 C   0  0  0  0  0  0  0  0  0  0  0  0
   55.5190   28.7560   45.1550 O   0  0  0  0  0  0  0  0  0  0  0  0
   57.7160   27.9060   45.6830 C   0  0  0  0  0  0  0  0  0  0  0  0
   58.1588   28.8650   45.3760 H   0  0  0  0  0  0  0  0  0  0  0  0
   59.8610   30.6400   49.7550 C   0  0  0  0  0  0  0  0  0  0  0  0
   60.4227   30.0507   50.4947 H   0  0  0  0  0  0  0  0  0  0  0  0
  1  2  1  0
  2  3  1  0
  3  4  1  0
  4  5  2  0
  5  6  1  0
  6  7  1  0
  6  8  1  0
  6  9  1  0
  9 10  2  0
 10 11  1  0
 10 12  1  0
 12 13  1  0
 12 14  2  0
 14 15  1  0
 14 16  1  0
 16 17  1  0
 16 18  2  0
 18 19  1  0
  4 20  1  0
 20 21  1  0
 20 22  2  0
 22 23  1  0
 23 24  2  0
 23 25  1  0
 25 26  1  0
 26 27  1  0
 26 28  1  0
 26 29  1  0
 29 30  2  0
 30 31  1  0
 30 32  1  0
 32 33  1  0
 32 34  2  0
 34 35  1  0
 34 36  1  0
 36 37  1  0
 36 38  2  0
 38 39  1  0
 22 40  1  0
 40 41  1  0
 40  2  2  0
 18  9  1  0
 38 29  1  0
M  CHG  4   3  -1  25  -1  35  -1  37  -1
M  END
>  <UniqueID>  (83) 
73

>  <SMILES>  (83) 
O=C([N-]Cc1ccc([O-])c([O-])c1)c1cc[n-]/c(=N/Cc2ccccc2)c1

>  <Energy>  (83) 
46.950640207102346

>  <Genealogy>  (83) 
O=C([N-]Cc1ccc([O-])c([O-])c1)c1cc[n-]c(=NCc2ccccc2)c1 (protonated)
O=C([N-]Cc1ccc([O-])c([O-])c1)c1cc[n-]/c(=N/Cc2ccccc2)c1 (cis-trans isomerization)
O=C([N-]Cc1ccc([O-])c([O-])c1)c1cc[n-]/c(=N/Cc2ccccc2)c1 (3D coordinates assigned)
O=C([N-]Cc1ccc([O-])c([O-])c1)c1cc[n-]/c(=N/Cc2ccccc2)c1 (optimized conformer: 46.950640207102346 kcal/mol)

>  <smiles>  (83) 
O=C(NCc1ccc(O)c(O)c1)c1cc[nH]c(=NCc2ccccc2)c1

>  <score_type>  (83) 
oracle

>  <origin>  (83) 
adg

>  <m_score__min__energy>  (83) 
-18.899999999999999

>  <m_primary>  (83) 
energy

$$$$
83:0
     RDKit          3D

 63 67  0  0  0  0  0  0  0  0999 V2000
   58.6220   32.3748   50.9284 H   0  0  0  0  0  0  0  0  0  0  0  0
   58.9830   31.4790   50.4020 C   0  0  0  0  0  0  0  0  0  0  0  0
   59.5510   30.4280   51.1280 C   0  0  0  0  0  0  0  0  0  0  0  0
   59.6051   30.4895   52.2249 H   0  0  0  0  0  0  0  0  0  0  0  0
   60.0520   29.2970   50.4700 C   0  0  0  0  0  0  0  0  0  0  0  0
   60.6150   28.2700   51.2430 O   0  0  0  0  0  0  0  0  0  0  0  0
   61.9600   28.2590   51.7090 C   0  0  0  0  0  0  0  0  0  0  0  0
   61.9669   28.2589   52.8090 H   0  0  0  0  0  0  0  0  0  0  0  0
   62.4689   27.3567   51.3391 H   0  0  0  0  0  0  0  0  0  0  0  0
   62.4835   29.1529   51.3391 H   0  0  0  0  0  0  0  0  0  0  0  0
   59.9820   29.2340   49.0640 C   0  0  0  0  0  0  0  0  0  0  0  0
   60.3726   28.3522   48.5349 H   0  0  0  0  0  0  0  0  0  0  0  0
   59.4180   30.2880   48.3390 C   0  0  0  0  0  0  0  0  0  0  0  0
   59.4018   30.2494   47.2398 H   0  0  0  0  0  0  0  0  0  0  0  0
   58.8710   31.3980   49.0090 C   0  0  0  0  0  0  0  0  0  0  0  0
   58.3960   32.5320   48.2770 N   0  0  0  0  0  0  0  0  0  0  0  0
   58.5800   32.8810   47.0300 C   0  0  0  0  0  0  0  0  0  0  0  0
   58.2660   31.9470   46.0930 N   0  0  0  0  0  0  0  0  0  0  0  0
   58.2470   32.2230   44.7700 C   0  0  0  0  0  0  0  0  0  0  0  0
   57.8770   31.1460   43.7910 C   0  0  0  0  0  0  0  0  0  0  0  0
   56.9391   31.4255   43.2887 H   0  0  0  0  0  0  0  0  0  0  0  0
   58.6944   31.0445   43.0619 H   0  0  0  0  0  0  0  0  0  0  0  0
   57.6880   29.8200   44.4800 C   0  0  0  0  0  0  0  0  0  0  0  0
   58.7910   29.1750   44.9520 N   0  0  0  0  0  0  0  0  0  0  0  0
   58.7050   27.9690   45.5680 C   0  0  0  0  0  0  0  0  0  0  0  0
   59.8530   27.3270   46.0470 C   0  0  0  0  0  0  0  0  0  0  0  0
   60.8389   27.8001   45.9285 H   0  0  0  0  0  0  0  0  0  0  0  0
   59.7440   26.0820   46.6770 C   0  0  0  0  0  0  0  0  0  0  0  0
   60.6454   25.5762   47.0534 H   0  0  0  0  0  0  0  0  0  0  0  0
   58.4890   25.4790   46.8290 C   0  0  0  0  0  0  0  0  0  0  0  0
   58.4074   24.5011   47.3260 H   0  0  0  0  0  0  0  0  0  0  0  0
   57.3390   26.1160   46.3510 C   0  0  0  0  0  0  0  0  0  0  0  0
   56.3546   25.6395   46.4693 H   0  0  0  0  0  0  0  0  0  0  0  0
   57.4450   27.3610   45.7220 C   0  0  0  0  0  0  0  0  0  0  0  0
   56.3420   27.9950   45.2490 N   0  0  0  0  0  0  0  0  0  0  0  0
   56.4210   29.2070   44.6340 C   0  0  0  0  0  0  0  0  0  0  0  0
   55.1570   29.8370   44.1250 C   0  0  0  0  0  0  0  0  0  0  0  0
   54.5336   30.1477   44.9763 H   0  0  0  0  0  0  0  0  0  0  0  0
   55.4063   30.7163   43.5128 H   0  0  0  0  0  0  0  0  0  0  0  0
   54.6050   29.1086   43.5128 H   0  0  0  0  0  0  0  0  0  0  0  0
   58.5350   33.5130   44.3460 C   0  0  0  0  0  0  0  0  0  0  0  0
   58.4375   33.7877   43.2853 H   0  0  0  0  0  0  0  0  0  0  0  0
   58.9500   34.4550   45.2870 C   0  0  0  0  0  0  0  0  0  0  0  0
   59.2740   35.6030   44.8740 O   0  0  0  0  0  0  0  0  0  0  0  0
   59.0420   34.1270   46.6240 N   0  0  0  0  0  0  0  0  0  0  0  0
   59.9240   34.9660   47.4790 C   0  0  0  0  0  0  0  0  0  0  0  0
   59.3532   35.3141   48.3526 H   0  0  0  0  0  0  0  0  0  0  0  0
   60.2780   35.8215   46.8851 H   0  0  0  0  0  0  0  0  0  0  0  0
   61.1220   34.1800   47.9530 C   0  0  0  0  0  0  0  0  0  0  0  0
   61.4020   34.0580   49.3230 C   0  0  0  0  0  0  0  0  0  0  0  0
   60.7436   34.5394   50.0611 H   0  0  0  0  0  0  0  0  0  0  0  0
   62.5130   33.3280   49.7540 C   0  0  0  0  0  0  0  0  0  0  0  0
   62.7135   33.2263   50.8308 H   0  0  0  0  0  0  0  0  0  0  0  0
   63.3730   32.7250   48.8290 C   0  0  0  0  0  0  0  0  0  0  0  0
   64.4730   32.0000   49.3130 O   0  0  0  0  0  0  0  0  0  0  0  0
   65.5030   32.5490   50.1280 C   0  0  0  0  0  0  0  0  0  0  0  0
   65.2443   32.4111   51.1882 H   0  0  0  0  0  0  0  0  0  0  0  0
   66.4527   32.0375   49.9128 H   0  0  0  0  0  0  0  0  0  0  0  0
   65.6078   33.6226   49.9128 H   0  0  0  0  0  0  0  0  0  0  0  0
   63.1080   32.8670   47.4530 C   0  0  0  0  0  0  0  0  0  0  0  0
   63.7809   32.4060   46.7150 H   0  0  0  0  0  0  0  0  0  0  0  0
   61.9940   33.5910   47.0220 C   0  0  0  0  0  0  0  0  0  0  0  0
   61.7978   33.7009   45.9452 H   0  0  0  0  0  0  0  0  0  0  0  0
  1  2  1  0
  2  3  2  0
  3  4  1  0
  3  5  1  0
  5  6  1  0
  6  7  1  0
  7  8  1  0
  7  9  1  0
  7 10  1  0
  5 11  2  0
 11 12  1  0
 11 13  1  0
 13 14  1  0
 13 15  2  0
 15 16  1  0
 16 17  2  0
 17 18  1  0
 18 19  1  0
 19 20  1  0
 20 21  1  0
 20 22  1  0
 20 23  1  0
 23 24  2  0
 24 25  1  0
 25 26  2  0
 26 27  1  0
 26 28  1  0
 28 29  1  0
 28 30  2  0
 30 31  1  0
 30 32  1  0
 32 33  1  0
 32 34  2  0
 34 35  1  0
 35 36  2  0
 36 37  1  0
 37 38  1  0
 37 39  1  0
 37 40  1  0
 19 41  2  0
 41 42  1  0
 41 43  1  0
 43 44  2  0
 43 45  1  0
 45 46  1  0
 46 47  1  0
 46 48  1  0
 46 49  1  0
 49 50  2  0
 50 51  1  0
 50 52  1  0
 52 53  1  0
 52 54  2  0
 54 55  1  0
 55 56  1  0
 56 57  1  0
 56 58  1  0
 56 59  1  0
 54 60  1  0
 60 61  1  0
 60 62  2  0
 62 63  1  0
 15  2  1  0
 45 17  1  0
 62 49  1  0
 36 23  1  0
 34 25  1  0
M  CHG  1  18  -1
M  END
>  <UniqueID>  (84) 
74

>  <SMILES>  (84) 
COc1ccc(Cn2c(=O)cc(Cc3nc4ccccc4nc3C)[n-]/c2=N/c2ccc(OC)cc2)cc1

>  <Energy>  (84) 
97.07528379910626

>  <Genealogy>  (84) 
COc1ccc(Cn2c(=O)cc(Cc3nc4ccccc4nc3C)[n-]c2=Nc2ccc(OC)cc2)cc1 (protonated)
COc1ccc(Cn2c(=O)cc(Cc3nc4ccccc4nc3C)[n-]/c2=N/c2ccc(OC)cc2)cc1 (cis-trans isomerization)
COc1ccc(Cn2c(=O)cc(Cc3nc4ccccc4nc3C)[n-]/c2=N/c2ccc(OC)cc2)cc1 (3D coordinates assigned)
COc1ccc(Cn2c(=O)cc(Cc3nc4ccccc4nc3C)[n-]/c2=N/c2ccc(OC)cc2)cc1 (optimized conformer: 97.07528379910626 kcal/mol)

>  <smiles>  (84) 
COc1ccc(Cn2c(=O)cc(Cc3nc4ccccc4nc3C)[nH]c2=Nc2ccc(OC)cc2)cc1

>  <score_type>  (84) 
oracle

>  <origin>  (84) 
adg

>  <m_score__min__energy>  (84) 
-12.140000000000001

>  <m_primary>  (84) 
energy

$$$$
84:0
     RDKit          3D

 57 60  0  0  0  0  0  0  0  0999 V2000
   54.6730   23.2290   43.4430 N   0  0  0  0  0  0  0  0  0  0  0  0
   56.2050   22.4230   43.4420 S   0  0  0  0  0  0  0  0  0  0  0  0
   56.2570   21.4660   42.2820 O   0  0  0  0  0  0  0  0  0  0  0  0
   57.2770   23.4630   43.2820 O   0  0  0  0  0  0  0  0  0  0  0  0
   56.4450   21.5360   44.9590 C   0  0  0  0  0  0  0  0  0  0  0  0
   56.3360   20.1360   44.9500 C   0  0  0  0  0  0  0  0  0  0  0  0
   56.4680   19.4030   46.1320 C   0  0  0  0  0  0  0  0  0  0  0  0
   56.7120   20.0590   47.3380 C   0  0  0  0  0  0  0  0  0  0  0  0
   56.8350   21.4490   47.3650 C   0  0  0  0  0  0  0  0  0  0  0  0
   56.7130   22.1990   46.1840 C   0  0  0  0  0  0  0  0  0  0  0  0
   56.8690   23.6670   46.2690 C   0  0  0  0  0  0  0  0  0  0  0  0
   58.1480   24.2320   46.3730 C   0  0  0  0  0  0  0  0  0  0  0  0
   58.3030   25.6180   46.4560 C   0  0  0  0  0  0  0  0  0  0  0  0
   57.1780   26.4620   46.4120 C   0  0  0  0  0  0  0  0  0  0  0  0
   57.3000   27.8880   46.5220 N   0  0  0  0  0  0  0  0  0  0  0  0
   58.2740   28.7100   45.8650 C   0  0  0  0  0  0  0  0  0  0  0  0
   59.3590   28.2010   45.4710 O   0  0  0  0  0  0  0  0  0  0  0  0
   57.9890   30.1410   45.5830 C   0  0  0  0  0  0  0  0  0  0  0  0
   58.8230   31.1350   46.1340 C   0  0  0  0  0  0  0  0  0  0  0  0
   58.5780   32.4960   45.8990 C   0  0  0  0  0  0  0  0  0  0  0  0
   59.4970   33.5350   46.4790 C   0  0  0  0  0  0  0  0  0  0  0  0
   60.8540   33.2080   46.1940 O   0  0  0  0  0  0  0  0  0  0  0  0
   61.7250   32.6500   47.1390 C   0  0  0  0  0  0  0  0  0  0  0  0
   62.9710   32.8340   47.0470 O   0  0  0  0  0  0  0  0  0  0  0  0
   61.1770   31.7940   48.2130 C   0  0  0  0  0  0  0  0  0  0  0  0
   61.1600   30.4030   47.9960 C   0  0  0  0  0  0  0  0  0  0  0  0
   60.7550   29.5290   49.0060 C   0  0  0  0  0  0  0  0  0  0  0  0
   60.3590   30.0280   50.2440 C   0  0  0  0  0  0  0  0  0  0  0  0
   60.3470   31.4040   50.4730 C   0  0  0  0  0  0  0  0  0  0  0  0
   60.7330   32.3070   49.4640 C   0  0  0  0  0  0  0  0  0  0  0  0
   60.6000   33.7570   49.7410 C   0  0  0  0  0  0  0  0  0  0  0  0
   59.5480   34.2270   50.2480 O   0  0  0  0  0  0  0  0  0  0  0  0
   61.6660   34.6150   49.4890 O   0  0  0  0  0  0  0  0  0  0  0  0
   57.4960   32.8710   45.0920 C   0  0  0  0  0  0  0  0  0  0  0  0
   56.6610   31.8980   44.5390 C   0  0  0  0  0  0  0  0  0  0  0  0
   56.8940   30.5420   44.7820 C   0  0  0  0  0  0  0  0  0  0  0  0
   56.0230   29.6100   44.2290 O   0  0  0  0  0  0  0  0  0  0  0  0
   55.8990   25.8950   46.3100 C   0  0  0  0  0  0  0  0  0  0  0  0
   54.7710   26.7100   46.2790 O   0  0  0  0  0  0  0  0  0  0  0  0
   55.7460   24.5060   46.2260 C   0  0  0  0  0  0  0  0  0  0  0  0
   54.1760   22.9460   42.5670 H   0  0  0  0  0  0  0  0  0  0  0  0
   56.1447   19.6110   44.0025 H   0  0  0  0  0  0  0  0  0  0  0  0
   56.3793   18.3068   46.1112 H   0  0  0  0  0  0  0  0  0  0  0  0
   56.8076   19.4806   48.2688 H   0  0  0  0  0  0  0  0  0  0  0  0
   57.0290   21.9611   48.3190 H   0  0  0  0  0  0  0  0  0  0  0  0
   59.0342   23.5805   46.3893 H   0  0  0  0  0  0  0  0  0  0  0  0
   59.3090   26.0514   46.5562 H   0  0  0  0  0  0  0  0  0  0  0  0
   59.6792   30.8388   46.7579 H   0  0  0  0  0  0  0  0  0  0  0  0
   59.2598   34.5153   46.0399 H   0  0  0  0  0  0  0  0  0  0  0  0
   59.3578   33.5676   47.5697 H   0  0  0  0  0  0  0  0  0  0  0  0
   61.4692   30.0007   47.0200 H   0  0  0  0  0  0  0  0  0  0  0  0
   60.7487   28.4442   48.8236 H   0  0  0  0  0  0  0  0  0  0  0  0
   60.0550   29.3359   51.0431 H   0  0  0  0  0  0  0  0  0  0  0  0
   60.0320   31.7884   51.4543 H   0  0  0  0  0  0  0  0  0  0  0  0
   57.3035   33.9356   44.8933 H   0  0  0  0  0  0  0  0  0  0  0  0
   55.8132   32.2014   43.9072 H   0  0  0  0  0  0  0  0  0  0  0  0
   54.7407   24.0708   46.1258 H   0  0  0  0  0  0  0  0  0  0  0  0
  1  2  1  0
  2  3  2  0
  2  4  2  0
  2  5  1  0
  5  6  2  0
  6  7  1  0
  7  8  2  0
  8  9  1  0
  9 10  2  0
 10 11  1  0
 11 12  2  0
 12 13  1  0
 13 14  2  0
 14 15  1  0
 15 16  1  0
 16 17  2  0
 16 18  1  0
 18 19  2  0
 19 20  1  0
 20 21  1  0
 21 22  1  0
 22 23  1  0
 23 24  2  0
 23 25  1  0
 25 26  2  0
 26 27  1  0
 27 28  2  0
 28 29  1  0
 29 30  2  0
 30 31  1  0
 31 32  2  0
 31 33  1  0
 20 34  2  0
 34 35  1  0
 35 36  2  0
 36 37  1  0
 14 38  1  0
 38 39  1  0
 38 40  2  0
 10  5  1  0
 40 11  1  0
 36 18  1  0
 30 25  1  0
  1 41  1  0
  6 42  1  0
  7 43  1  0
  8 44  1  0
  9 45  1  0
 12 46  1  0
 13 47  1  0
 19 48  1  0
 21 49  1  0
 21 50  1  0
 26 51  1  0
 27 52  1  0
 28 53  1  0
 29 54  1  0
 34 55  1  0
 35 56  1  0
 40 57  1  0
M  CHG  5   1  -1  15  -1  33  -1  37  -1  39  -1
M  END
>  <UniqueID>  (85) 
75

>  <SMILES>  (85) 
[NH-]S(=O)(=O)c1ccccc1-c1ccc([N-]C(=O)c2cc(COC(=O)c3ccccc3C(=O)[O-])ccc2[O-])c([O-])c1

>  <Energy>  (85) 
84.65203588926131

>  <Genealogy>  (85) 
[NH-]S(=O)(=O)c1ccccc1-c1ccc([N-]C(=O)c2cc(COC(=O)c3ccccc3C(=O)[O-])ccc2[O-])c([O-])c1 (protonated)
[NH-]S(=O)(=O)c1ccccc1-c1ccc([N-]C(=O)c2cc(COC(=O)c3ccccc3C(=O)[O-])ccc2[O-])c([O-])c1 (3D coordinates assigned)
[NH-]S(=O)(=O)c1ccccc1-c1ccc([N-]C(=O)c2cc(COC(=O)c3ccccc3C(=O)[O-])ccc2[O-])c([O-])c1 (optimized conformer: 84.65203588926131 kcal/mol)

>  <smiles>  (85) 
NS(=O)(=O)c1ccccc1-c1ccc(NC(=O)c2cc(COC(=O)c3ccccc3C(=O)O)ccc2O)c(O)c1

>  <score_type>  (85) 
oracle

>  <origin>  (85) 
adg

>  <m_score__min__energy>  (85) 
-17.379999999999999

>  <m_primary>  (85) 
energy

$$$$
85:0
     RDKit          3D

 28 30  0  0  0  0  0  0  0  0999 V2000
   59.2670   35.8190   44.6980 O   0  0  0  0  0  0  0  0  0  0  0  0
   59.2340   34.9360   45.5980 C   0  0  0  0  0  0  0  0  0  0  0  0
   59.6700   35.2540   46.9220 N   0  0  0  0  0  0  0  0  0  0  0  0
   59.8520   34.2190   47.9450 C   0  0  2  0  0  0  0  0  0  0  0  0
   61.3150   33.8680   48.0700 C   0  0  0  0  0  0  0  0  0  0  0  0
   62.0500   33.4770   46.9360 C   0  0  0  0  0  0  0  0  0  0  0  0
   63.4030   33.1440   47.0500 C   0  0  0  0  0  0  0  0  0  0  0  0
   64.0350   33.1960   48.2960 C   0  0  0  0  0  0  0  0  0  0  0  0
   63.3140   33.5790   49.4290 C   0  0  0  0  0  0  0  0  0  0  0  0
   61.9600   33.9120   49.3200 C   0  0  0  0  0  0  0  0  0  0  0  0
   59.0870   33.0390   47.6570 O   0  0  0  0  0  0  0  0  0  0  0  0
   58.6660   32.6710   46.3730 C   0  0  0  0  0  0  0  0  0  0  0  0
   58.1600   31.3850   46.1540 C   0  0  0  0  0  0  0  0  0  0  0  0
   57.7420   31.0040   44.8770 C   0  0  0  0  0  0  0  0  0  0  0  0
   57.8220   31.9100   43.8140 C   0  0  0  0  0  0  0  0  0  0  0  0
   58.3150   33.2000   44.0290 C   0  0  0  0  0  0  0  0  0  0  0  0
   58.7380   33.5850   45.3120 C   0  0  0  0  0  0  0  0  0  0  0  0
   59.9990   36.2250   47.1290 H   0  0  0  0  0  0  0  0  0  0  0  0
   59.4869   34.6271   48.8990 H   0  0  0  0  0  0  0  0  0  0  0  0
   61.5571   33.4330   45.9536 H   0  0  0  0  0  0  0  0  0  0  0  0
   63.9711   32.8407   46.1582 H   0  0  0  0  0  0  0  0  0  0  0  0
   65.1000   32.9353   48.3839 H   0  0  0  0  0  0  0  0  0  0  0  0
   63.8119   33.6189   50.4090 H   0  0  0  0  0  0  0  0  0  0  0  0
   61.3961   34.2099   50.2163 H   0  0  0  0  0  0  0  0  0  0  0  0
   58.0913   30.6726   46.9893 H   0  0  0  0  0  0  0  0  0  0  0  0
   57.3495   29.9906   44.7069 H   0  0  0  0  0  0  0  0  0  0  0  0
   57.4966   31.6068   42.8079 H   0  0  0  0  0  0  0  0  0  0  0  0
   58.3718   33.9136   43.1938 H   0  0  0  0  0  0  0  0  0  0  0  0
  1  2  2  0
  2  3  1  0
  3  4  1  0
  4  5  1  0
  5  6  2  0
  6  7  1  0
  7  8  2  0
  8  9  1  0
  9 10  2  0
  4 11  1  0
 11 12  1  0
 12 13  2  0
 13 14  1  0
 14 15  2  0
 15 16  1  0
 16 17  2  0
 17  2  1  0
 10  5  1  0
 17 12  1  0
  3 18  1  0
  4 19  1  1
  6 20  1  0
  7 21  1  0
  8 22  1  0
  9 23  1  0
 10 24  1  0
 13 25  1  0
 14 26  1  0
 15 27  1  0
 16 28  1  0
M  END
>  <UniqueID>  (86) 
76

>  <SMILES>  (86) 
O=C1N[C@H](c2ccccc2)Oc2ccccc21

>  <Energy>  (86) 
32.39323766922772

>  <Genealogy>  (86) 
O=C1N[C@H](c2ccccc2)Oc2ccccc21 (chirality)
O=C1N[C@H](c2ccccc2)Oc2ccccc21 (3D coordinates assigned)
O=C1N[C@H](c2ccccc2)Oc2ccccc21 (nonaromatic ring conformer: 32.39323766922772 kcal/mol)

>  <smiles>  (86) 
O=C1NC(c2ccccc2)Oc2ccccc21

>  <score_type>  (86) 
oracle

>  <origin>  (86) 
adg

>  <m_score__min__energy>  (86) 
-6.5700000000000003

>  <m_primary>  (86) 
energy

$$$$
86:0
     RDKit          3D

 51 54  0  0  0  0  0  0  0  0999 V2000
   65.3170   32.6960   49.7900 C   0  0  0  0  0  0  0  0  0  0  0  0
   64.4300   31.5880   49.7060 O   0  0  0  0  0  0  0  0  0  0  0  0
   63.0960   31.6690   49.2800 C   0  0  0  0  0  0  0  0  0  0  0  0
   62.0670   30.9190   49.8810 C   0  0  0  0  0  0  0  0  0  0  0  0
   60.7500   31.0350   49.4290 C   0  0  0  0  0  0  0  0  0  0  0  0
   60.4450   31.8930   48.3690 C   0  0  0  0  0  0  0  0  0  0  0  0
   59.1610   31.9970   47.9300 N   0  0  0  0  0  0  0  0  0  0  0  0
   58.8140   32.8110   46.8980 C   0  0  0  0  0  0  0  0  0  0  0  0
   57.3940   32.8330   46.4240 C   0  0  0  0  0  0  0  0  0  0  0  0
   57.3660   32.7690   44.5980 S   0  0  0  0  0  0  0  0  0  0  0  0
   56.9320   31.0290   44.5050 C   0  0  0  0  0  0  0  0  0  0  0  0
   55.6780   30.5720   44.6770 N   0  0  0  0  0  0  0  0  0  0  0  0
   55.7390   29.2500   44.6270 N   0  0  0  0  0  0  0  0  0  0  0  0
   57.0300   28.9200   44.4260 C   0  0  0  0  0  0  0  0  0  0  0  0
   57.5200   27.5000   44.3990 C   0  0  0  0  0  0  0  0  0  0  0  0
   58.1780   27.1460   45.7140 C   0  0  0  0  0  0  0  0  0  0  0  0
   59.3720   27.8140   46.0490 C   0  0  0  0  0  0  0  0  0  0  0  0
   60.0220   27.5560   47.2550 C   0  0  0  0  0  0  0  0  0  0  0  0
   59.4910   26.6280   48.1470 C   0  0  0  0  0  0  0  0  0  0  0  0
   58.3120   25.9520   47.8340 C   0  0  0  0  0  0  0  0  0  0  0  0
   57.6400   26.1970   46.6250 C   0  0  0  0  0  0  0  0  0  0  0  0
   56.1670   25.2740   46.2800 S   0  0  0  0  0  0  0  0  0  0  0  0
   54.8430   26.3480   46.0050 N   0  0  0  0  0  0  0  0  0  0  0  0
   55.8270   24.3800   47.4410 O   0  0  0  0  0  0  0  0  0  0  0  0
   56.3850   24.4190   45.0650 O   0  0  0  0  0  0  0  0  0  0  0  0
   57.8070   30.0190   44.3280 N   0  0  0  0  0  0  0  0  0  0  0  0
   59.2630   30.0910   44.2040 C   0  0  0  0  0  0  0  0  0  0  0  0
   59.7980   33.5710   46.2510 C   0  0  0  0  0  0  0  0  0  0  0  0
   61.1250   33.4980   46.6830 C   0  0  0  0  0  0  0  0  0  0  0  0
   62.0010   34.1980   46.1070 O   0  0  0  0  0  0  0  0  0  0  0  0
   61.4660   32.6490   47.7530 C   0  0  0  0  0  0  0  0  0  0  0  0
   62.7880   32.5310   48.2200 C   0  0  0  0  0  0  0  0  0  0  0  0
   65.5075   32.9339   50.8469 H   0  0  0  0  0  0  0  0  0  0  0  0
   66.2660   32.4444   49.2940 H   0  0  0  0  0  0  0  0  0  0  0  0
   64.8637   33.5670   49.2940 H   0  0  0  0  0  0  0  0  0  0  0  0
   62.3015   30.2373   50.7118 H   0  0  0  0  0  0  0  0  0  0  0  0
   59.9516   30.4497   49.9085 H   0  0  0  0  0  0  0  0  0  0  0  0
   56.8574   31.9630   46.8305 H   0  0  0  0  0  0  0  0  0  0  0  0
   56.9049   33.7563   46.7680 H   0  0  0  0  0  0  0  0  0  0  0  0
   56.6683   26.8256   44.2264 H   0  0  0  0  0  0  0  0  0  0  0  0
   58.2571   27.3914   43.5897 H   0  0  0  0  0  0  0  0  0  0  0  0
   59.7972   28.5490   45.3497 H   0  0  0  0  0  0  0  0  0  0  0  0
   60.9541   28.0854   47.5018 H   0  0  0  0  0  0  0  0  0  0  0  0
   60.0023   26.4277   49.1001 H   0  0  0  0  0  0  0  0  0  0  0  0
   57.9029   25.2173   48.5432 H   0  0  0  0  0  0  0  0  0  0  0  0
   55.1660   27.0890   45.3470 H   0  0  0  0  0  0  0  0  0  0  0  0
   59.7157   30.1134   45.2063 H   0  0  0  0  0  0  0  0  0  0  0  0
   59.6284   29.2098   43.6562 H   0  0  0  0  0  0  0  0  0  0  0  0
   59.5396   31.0039   43.6562 H   0  0  0  0  0  0  0  0  0  0  0  0
   59.5269   34.2221   45.4068 H   0  0  0  0  0  0  0  0  0  0  0  0
   63.5872   33.1214   47.7481 H   0  0  0  0  0  0  0  0  0  0  0  0
  1  2  1  0
  2  3  1  0
  3  4  2  0
  4  5  1  0
  5  6  2  0
  6  7  1  0
  7  8  1  0
  8  9  1  0
  9 10  1  0
 10 11  1  0
 11 12  2  0
 12 13  1  0
 13 14  2  0
 14 15  1  0
 15 16  1  0
 16 17  2  0
 17 18  1  0
 18 19  2  0
 19 20  1  0
 20 21  2  0
 21 22  1  0
 22 23  1  0
 22 24  2  0
 22 25  2  0
 14 26  1  0
 26 27  1  0
  8 28  2  0
 28 29  1  0
 29 30  2  0
 29 31  1  0
 31 32  2  0
 32  3  1  0
 31  6  1  0
 26 11  1  0
 21 16  1  0
  1 33  1  0
  1 34  1  0
  1 35  1  0
  4 36  1  0
  5 37  1  0
  9 38  1  0
  9 39  1  0
 15 40  1  0
 15 41  1  0
 17 42  1  0
 18 43  1  0
 19 44  1  0
 20 45  1  0
 23 46  1  0
 27 47  1  0
 27 48  1  0
 27 49  1  0
 28 50  1  0
 32 51  1  0
M  CHG  2   7  -1  23  -1
M  END
>  <UniqueID>  (87) 
77

>  <SMILES>  (87) 
COc1ccc2[n-]c(CSc3nnc(Cc4ccccc4S([NH-])(=O)=O)n3C)cc(=O)c2c1

>  <Energy>  (87) 
91.0443267702047

>  <Genealogy>  (87) 
COc1ccc2[n-]c(CSc3nnc(Cc4ccccc4S([NH-])(=O)=O)n3C)cc(=O)c2c1 (protonated)
COc1ccc2[n-]c(CSc3nnc(Cc4ccccc4S([NH-])(=O)=O)n3C)cc(=O)c2c1 (3D coordinates assigned)
COc1ccc2[n-]c(CSc3nnc(Cc4ccccc4S([NH-])(=O)=O)n3C)cc(=O)c2c1 (optimized conformer: 91.0443267702047 kcal/mol)

>  <smiles>  (87) 
COc1ccc2[nH]c(CSc3nnc(Cc4ccccc4S(N)(=O)=O)n3C)cc(=O)c2c1

>  <score_type>  (87) 
oracle

>  <origin>  (87) 
adg

>  <m_score__min__energy>  (87) 
-13.24

>  <m_primary>  (87) 
energy

$$$$
87:0
     RDKit          3D

 42 44  0  0  0  0  0  0  0  0999 V2000
   66.0980   32.0200   50.4630 C   0  0  0  0  0  0  0  0  0  0  0  0
   65.3780   32.6800   49.4270 O   0  0  0  0  0  0  0  0  0  0  0  0
   64.1050   32.2940   48.9780 C   0  0  0  0  0  0  0  0  0  0  0  0
   63.2370   31.5040   49.7570 C   0  0  0  0  0  0  0  0  0  0  0  0
   61.9780   31.1470   49.2640 C   0  0  0  0  0  0  0  0  0  0  0  0
   61.5740   31.5640   47.9900 C   0  0  0  0  0  0  0  0  0  0  0  0
   60.2680   31.2140   47.5070 N   0  0  0  0  0  0  0  0  0  0  0  0
   59.1200   32.0020   47.9710 C   0  0  0  0  0  0  0  0  0  0  0  0
   58.6990   32.9720   46.9020 C   0  0  0  0  0  0  0  0  0  0  0  0
   57.3560   33.0330   46.4920 C   0  0  0  0  0  0  0  0  0  0  0  0
   56.9720   33.9010   45.4650 C   0  0  0  0  0  0  0  0  0  0  0  0
   57.9260   34.7040   44.8340 C   0  0  0  0  0  0  0  0  0  0  0  0
   59.2650   34.6380   45.2260 C   0  0  0  0  0  0  0  0  0  0  0  0
   59.6530   33.7730   46.2540 C   0  0  0  0  0  0  0  0  0  0  0  0
   60.1400   30.3210   46.3810 C   0  0  0  0  0  0  0  0  0  0  0  0
   61.1430   29.6690   45.9840 O   0  0  0  0  0  0  0  0  0  0  0  0
   58.8460   30.1390   45.6890 C   0  0  0  0  0  0  0  0  0  0  0  0
   57.8290   29.3690   46.2740 C   0  0  0  0  0  0  0  0  0  0  0  0
   56.6340   29.2160   45.6410 N   0  0  0  0  0  0  0  0  0  0  0  0
   56.3780   29.8020   44.4410 C   0  0  0  0  0  0  0  0  0  0  0  0
   55.2570   29.6300   43.8930 O   0  0  0  0  0  0  0  0  0  0  0  0
   57.3570   30.5920   43.8260 C   0  0  0  0  0  0  0  0  0  0  0  0
   57.0540   31.3730   42.2810 Cl  0  0  0  0  0  0  0  0  0  0  0  0
   58.5910   30.7620   44.4590 C   0  0  0  0  0  0  0  0  0  0  0  0
   62.4340   32.3560   47.2160 C   0  0  0  0  0  0  0  0  0  0  0  0
   63.6910   32.7160   47.7090 C   0  0  0  0  0  0  0  0  0  0  0  0
   65.7272   32.3599   51.4412 H   0  0  0  0  0  0  0  0  0  0  0  0
   65.9546   30.9330   50.3741 H   0  0  0  0  0  0  0  0  0  0  0  0
   67.1684   32.2572   50.3741 H   0  0  0  0  0  0  0  0  0  0  0  0
   63.5505   31.1669   50.7561 H   0  0  0  0  0  0  0  0  0  0  0  0
   61.3020   30.5358   49.8800 H   0  0  0  0  0  0  0  0  0  0  0  0
   58.2828   31.3264   48.2006 H   0  0  0  0  0  0  0  0  0  0  0  0
   59.4058   32.5606   48.8745 H   0  0  0  0  0  0  0  0  0  0  0  0
   56.6043   32.3957   46.9807 H   0  0  0  0  0  0  0  0  0  0  0  0
   55.9182   33.9518   45.1536 H   0  0  0  0  0  0  0  0  0  0  0  0
   57.6222   35.3884   44.0282 H   0  0  0  0  0  0  0  0  0  0  0  0
   60.0155   35.2674   44.7253 H   0  0  0  0  0  0  0  0  0  0  0  0
   60.7094   33.7199   46.5561 H   0  0  0  0  0  0  0  0  0  0  0  0
   57.9984   28.8871   47.2482 H   0  0  0  0  0  0  0  0  0  0  0  0
   59.3655   31.3871   43.9905 H   0  0  0  0  0  0  0  0  0  0  0  0
   62.1184   32.6948   46.2182 H   0  0  0  0  0  0  0  0  0  0  0  0
   64.3607   33.3360   47.0949 H   0  0  0  0  0  0  0  0  0  0  0  0
  1  2  1  0
  2  3  1  0
  3  4  2  0
  4  5  1  0
  5  6  2  0
  6  7  1  0
  7  8  1  0
  8  9  1  0
  9 10  2  0
 10 11  1  0
 11 12  2  0
 12 13  1  0
 13 14  2  0
  7 15  1  0
 15 16  2  0
 15 17  1  0
 17 18  2  0
 18 19  1  0
 19 20  1  0
 20 21  2  0
 20 22  1  0
 22 23  1  0
 22 24  2  0
  6 25  1  0
 25 26  2  0
 26  3  1  0
 14  9  1  0
 24 17  1  0
  1 27  1  0
  1 28  1  0
  1 29  1  0
  4 30  1  0
  5 31  1  0
  8 32  1  0
  8 33  1  0
 10 34  1  0
 11 35  1  0
 12 36  1  0
 13 37  1  0
 14 38  1  0
 18 39  1  0
 24 40  1  0
 25 41  1  0
 26 42  1  0
M  CHG  1  19  -1
M  END
>  <UniqueID>  (88) 
78

>  <SMILES>  (88) 
COc1ccc(N(Cc2ccccc2)C(=O)c2c[n-]c(=O)c(Cl)c2)cc1

>  <Energy>  (88) 
55.398780059629544

>  <Genealogy>  (88) 
COc1ccc(N(Cc2ccccc2)C(=O)c2c[n-]c(=O)c(Cl)c2)cc1 (protonated)
COc1ccc(N(Cc2ccccc2)C(=O)c2c[n-]c(=O)c(Cl)c2)cc1 (3D coordinates assigned)
COc1ccc(N(Cc2ccccc2)C(=O)c2c[n-]c(=O)c(Cl)c2)cc1 (optimized conformer: 55.398780059629544 kcal/mol)

>  <smiles>  (88) 
COc1ccc(N(Cc2ccccc2)C(=O)c2c[nH]c(=O)c(Cl)c2)cc1

>  <score_type>  (88) 
oracle

>  <origin>  (88) 
adg

>  <m_score__min__energy>  (88) 
-9.5

>  <m_primary>  (88) 
energy

$$$$
88:0
     RDKit          3D

 44 46  0  0  0  0  0  0  0  0999 V2000
   62.9790   33.8150   46.3770 C   0  0  0  0  0  0  0  0  0  0  0  0
   62.3610   33.8330   47.7510 C   0  0  0  0  0  0  0  0  0  0  0  0
   63.2090   33.9130   48.8700 C   0  0  0  0  0  0  0  0  0  0  0  0
   62.6820   33.9590   50.1610 C   0  0  0  0  0  0  0  0  0  0  0  0
   61.3030   33.9190   50.3540 C   0  0  0  0  0  0  0  0  0  0  0  0
   60.4450   33.8240   49.2580 C   0  0  0  0  0  0  0  0  0  0  0  0
   60.9540   33.7710   47.9460 C   0  0  0  0  0  0  0  0  0  0  0  0
   59.9970   33.6420   46.8190 C   0  0  0  0  0  0  0  0  0  0  0  0
   59.9080   34.5620   45.9620 O   0  0  0  0  0  0  0  0  0  0  0  0
   59.1610   32.4770   46.7110 N   0  0  0  0  0  0  0  0  0  0  0  0
   58.4390   32.1130   45.5230 C   0  0  0  0  0  0  0  0  0  0  0  0
   58.6440   32.8420   44.3430 C   0  0  0  0  0  0  0  0  0  0  0  0
   57.9440   32.5170   43.1810 C   0  0  0  0  0  0  0  0  0  0  0  0
   57.0200   31.4700   43.1860 C   0  0  0  0  0  0  0  0  0  0  0  0
   56.7790   30.7390   44.3630 C   0  0  0  0  0  0  0  0  0  0  0  0
   55.7930   29.6330   44.3720 C   0  0  0  0  0  0  0  0  0  0  0  0
   54.8260   29.6450   43.5630 O   0  0  0  0  0  0  0  0  0  0  0  0
   55.9730   28.5200   45.2600 N   0  0  0  0  0  0  0  0  0  0  0  0
   57.1920   27.8050   45.5140 C   0  0  0  0  0  0  0  0  0  0  0  0
   58.4370   28.3810   45.1910 C   0  0  0  0  0  0  0  0  0  0  0  0
   59.6220   27.6790   45.4080 C   0  0  0  0  0  0  0  0  0  0  0  0
   59.5850   26.3910   45.9360 C   0  0  0  0  0  0  0  0  0  0  0  0
   58.3610   25.7950   46.2380 C   0  0  0  0  0  0  0  0  0  0  0  0
   57.1490   26.4830   46.0280 C   0  0  0  0  0  0  0  0  0  0  0  0
   55.8660   25.8030   46.3620 C   0  0  0  0  0  0  0  0  0  0  0  0
   55.8710   24.7230   47.0110 O   0  0  0  0  0  0  0  0  0  0  0  0
   54.6430   26.3370   45.9750 O   0  0  0  0  0  0  0  0  0  0  0  0
   57.4870   31.0770   45.5320 C   0  0  0  0  0  0  0  0  0  0  0  0
   64.0747   33.7831   46.4682 H   0  0  0  0  0  0  0  0  0  0  0  0
   62.6306   32.9266   45.8298 H   0  0  0  0  0  0  0  0  0  0  0  0
   62.6829   34.7222   45.8298 H   0  0  0  0  0  0  0  0  0  0  0  0
   64.2992   33.9396   48.7259 H   0  0  0  0  0  0  0  0  0  0  0  0
   63.3562   34.0269   51.0275 H   0  0  0  0  0  0  0  0  0  0  0  0
   60.8898   33.9624   51.3725 H   0  0  0  0  0  0  0  0  0  0  0  0
   59.3576   33.7901   49.4206 H   0  0  0  0  0  0  0  0  0  0  0  0
   58.9860   31.9220   47.5790 H   0  0  0  0  0  0  0  0  0  0  0  0
   59.3615   33.6757   44.3335 H   0  0  0  0  0  0  0  0  0  0  0  0
   58.1205   33.0876   42.2573 H   0  0  0  0  0  0  0  0  0  0  0  0
   56.4773   31.2155   42.2637 H   0  0  0  0  0  0  0  0  0  0  0  0
   58.4742   29.3939   44.7637 H   0  0  0  0  0  0  0  0  0  0  0  0
   60.5881   28.1436   45.1616 H   0  0  0  0  0  0  0  0  0  0  0  0
   60.5220   25.8433   46.1150 H   0  0  0  0  0  0  0  0  0  0  0  0
   58.3411   24.7736   46.6458 H   0  0  0  0  0  0  0  0  0  0  0  0
   57.2936   30.5246   46.4634 H   0  0  0  0  0  0  0  0  0  0  0  0
  1  2  1  0
  2  3  2  0
  3  4  1  0
  4  5  2  0
  5  6  1  0
  6  7  2  0
  7  8  1  0
  8  9  2  0
  8 10  1  0
 10 11  1  0
 11 12  2  0
 12 13  1  0
 13 14  2  0
 14 15  1  0
 15 16  1  0
 16 17  2  0
 16 18  1  0
 18 19  1  0
 19 20  2  0
 20 21  1  0
 21 22  2  0
 22 23  1  0
 23 24  2  0
 24 25  1  0
 25 26  2  0
 25 27  1  0
 15 28  2  0
  7  2  1  0
 28 11  1  0
 24 19  1  0
  1 29  1  0
  1 30  1  0
  1 31  1  0
  3 32  1  0
  4 33  1  0
  5 34  1  0
  6 35  1  0
 10 36  1  0
 12 37  1  0
 13 38  1  0
 14 39  1  0
 20 40  1  0
 21 41  1  0
 22 42  1  0
 23 43  1  0
 28 44  1  0
M  CHG  2  18  -1  27  -1
M  END
>  <UniqueID>  (89) 
79

>  <SMILES>  (89) 
Cc1ccccc1C(=O)Nc1cccc(C(=O)[N-]c2ccccc2C(=O)[O-])c1

>  <Energy>  (89) 
62.47425444466889

>  <Genealogy>  (89) 
Cc1ccccc1C(=O)Nc1cccc(C(=O)[N-]c2ccccc2C(=O)[O-])c1 (protonated)
Cc1ccccc1C(=O)Nc1cccc(C(=O)[N-]c2ccccc2C(=O)[O-])c1 (3D coordinates assigned)
Cc1ccccc1C(=O)Nc1cccc(C(=O)[N-]c2ccccc2C(=O)[O-])c1 (optimized conformer: 62.47425444466889 kcal/mol)

>  <smiles>  (89) 
Cc1ccccc1C(=O)Nc1cccc(C(=O)Nc2ccccc2C(=O)O)c1

>  <score_type>  (89) 
oracle

>  <origin>  (89) 
adg

>  <m_score__min__energy>  (89) 
-14.56

>  <m_primary>  (89) 
energy

$$$$
89:0
     RDKit          3D

 40 42  0  0  0  0  0  0  0  0999 V2000
   58.8910   32.2060   49.1690 C   0  0  0  0  0  0  0  0  0  0  0  0
   58.8180   33.4230   48.4330 O   0  0  0  0  0  0  0  0  0  0  0  0
   58.6970   33.4980   47.0370 C   0  0  0  0  0  0  0  0  0  0  0  0
   59.1510   34.6080   46.2980 C   0  0  0  0  0  0  0  0  0  0  0  0
   59.0070   34.6330   44.9090 C   0  0  0  0  0  0  0  0  0  0  0  0
   58.4150   33.5580   44.2440 C   0  0  0  0  0  0  0  0  0  0  0  0
   57.9620   32.4480   44.9680 C   0  0  0  0  0  0  0  0  0  0  0  0
   57.2330   31.0890   44.1170 S   0  0  0  0  0  0  0  0  0  0  0  0
   55.9050   30.7290   44.7240 O   0  0  0  0  0  0  0  0  0  0  0  0
   57.0240   31.4700   42.6780 O   0  0  0  0  0  0  0  0  0  0  0  0
   58.2830   29.7130   44.1960 N   0  0  0  0  0  0  0  0  0  0  0  0
   58.2110   28.6740   45.1810 C   0  0  0  0  0  0  0  0  0  0  0  0
   59.2840   28.5130   46.0640 C   0  0  0  0  0  0  0  0  0  0  0  0
   59.2510   27.5180   47.0450 C   0  0  0  0  0  0  0  0  0  0  0  0
   58.1480   26.6680   47.1450 C   0  0  0  0  0  0  0  0  0  0  0  0
   57.0690   26.8030   46.2570 C   0  0  0  0  0  0  0  0  0  0  0  0
   55.8890   25.9170   46.3590 C   0  0  0  0  0  0  0  0  0  0  0  0
   54.7690   26.3420   45.9700 O   0  0  0  0  0  0  0  0  0  0  0  0
   55.9850   24.5720   46.8420 N   0  0  0  0  0  0  0  0  0  0  0  0
   56.3940   23.4300   46.0290 C   0  0  0  0  0  0  0  0  0  0  0  0
   56.4350   23.7510   44.5470 C   0  0  0  0  0  0  0  0  0  0  0  0
   57.7300   23.6170   45.3340 C   0  0  0  0  0  0  0  0  0  0  0  0
   57.0980   27.8180   45.2880 C   0  0  0  0  0  0  0  0  0  0  0  0
   58.1020   32.4240   46.3630 C   0  0  0  0  0  0  0  0  0  0  0  0
   58.8777   32.4277   50.2463 H   0  0  0  0  0  0  0  0  0  0  0  0
   58.0293   31.5714   48.9146 H   0  0  0  0  0  0  0  0  0  0  0  0
   59.8224   31.6789   48.9146 H   0  0  0  0  0  0  0  0  0  0  0  0
   59.6202   35.4573   46.8162 H   0  0  0  0  0  0  0  0  0  0  0  0
   59.3615   35.5031   44.3370 H   0  0  0  0  0  0  0  0  0  0  0  0
   58.3041   33.5827   43.1499 H   0  0  0  0  0  0  0  0  0  0  0  0
   60.1597   29.1740   45.9857 H   0  0  0  0  0  0  0  0  0  0  0  0
   60.0961   27.4044   47.7399 H   0  0  0  0  0  0  0  0  0  0  0  0
   58.1243   25.8899   47.9222 H   0  0  0  0  0  0  0  0  0  0  0  0
   55.9497   22.6390   46.6510 H   0  0  0  0  0  0  0  0  0  0  0  0
   56.1572   22.9832   43.8099 H   0  0  0  0  0  0  0  0  0  0  0  0
   55.9905   24.5267   43.9062 H   0  0  0  0  0  0  0  0  0  0  0  0
   58.3889   22.7523   45.1663 H   0  0  0  0  0  0  0  0  0  0  0  0
   58.6105   24.2554   45.4986 H   0  0  0  0  0  0  0  0  0  0  0  0
   56.2441   27.9459   44.6064 H   0  0  0  0  0  0  0  0  0  0  0  0
   57.7416   31.5547   46.9326 H   0  0  0  0  0  0  0  0  0  0  0  0
  1  2  1  0
  2  3  1  0
  3  4  2  0
  4  5  1  0
  5  6  2  0
  6  7  1  0
  7  8  1  0
  8  9  2  0
  8 10  2  0
  8 11  1  0
 11 12  1  0
 12 13  2  0
 13 14  1  0
 14 15  2  0
 15 16  1  0
 16 17  1  0
 17 18  2  0
 17 19  1  0
 19 20  1  0
 20 21  1  0
 21 22  1  0
 16 23  2  0
  7 24  2  0
 24  3  1  0
 23 12  1  0
 22 20  1  0
  1 25  1  0
  1 26  1  0
  1 27  1  0
  4 28  1  0
  5 29  1  0
  6 30  1  0
 13 31  1  0
 14 32  1  0
 15 33  1  0
 20 34  1  0
 21 35  1  0
 21 36  1  0
 22 37  1  0
 22 38  1  0
 23 39  1  0
 24 40  1  0
M  CHG  2  11  -1  19  -1
M  END
>  <UniqueID>  (90) 
80

>  <SMILES>  (90) 
COc1cccc(S(=O)(=O)[N-]c2cccc(C(=O)[N-]C3CC3)c2)c1

>  <Energy>  (90) 
311.47235801556445

>  <Genealogy>  (90) 
COc1cccc(S(=O)(=O)[N-]c2cccc(C(=O)[N-]C3CC3)c2)c1 (protonated)
COc1cccc(S(=O)(=O)[N-]c2cccc(C(=O)[N-]C3CC3)c2)c1 (3D coordinates assigned)
COc1cccc(S(=O)(=O)[N-]c2cccc(C(=O)[N-]C3CC3)c2)c1 (nonaromatic ring conformer: 311.47235801556445 kcal/mol)

>  <smiles>  (90) 
COc1cccc(S(=O)(=O)Nc2cccc(C(=O)NC3CC3)c2)c1

>  <score_type>  (90) 
oracle

>  <origin>  (90) 
adg

>  <m_score__min__energy>  (90) 
-11.289999999999999

>  <m_primary>  (90) 
energy

$$$$
90:0
     RDKit          3D

 34 35  0  0  0  0  0  0  0  0999 V2000
   55.4709   28.2178   52.5048 H   0  0  0  0  0  0  0  0  0  0  0  0
   55.0480   29.2320   52.5560 C   0  0  0  0  0  0  0  0  0  0  0  0
   55.9500   30.3850   52.4150 C   0  0  0  0  0  0  0  0  0  0  0  0
   55.5200   31.5630   52.5600 O   0  0  0  0  0  0  0  0  0  0  0  0
   57.2980   30.1550   52.1190 O   0  0  0  0  0  0  0  0  0  0  0  0
   57.8520   30.3290   50.8160 C   0  0  0  0  0  0  0  0  0  0  0  0
   57.1693   29.8935   50.0715 H   0  0  0  0  0  0  0  0  0  0  0  0
   58.8293   29.8257   50.7753 H   0  0  0  0  0  0  0  0  0  0  0  0
   58.0440   31.7820   50.5170 C   0  0  0  0  0  0  0  0  0  0  0  0
   58.2140   32.5950   51.4660 O   0  0  0  0  0  0  0  0  0  0  0  0
   58.2340   32.2050   49.1610 N   0  0  0  0  0  0  0  0  0  0  0  0
   59.3200   32.5900   48.5470 C   0  0  0  0  0  0  0  0  0  0  0  0
   60.5060   32.1770   49.0730 N   0  0  0  0  0  0  0  0  0  0  0  0
   61.7080   32.5300   48.5520 C   0  0  0  0  0  0  0  0  0  0  0  0
   62.6366   32.1710   49.0198 H   0  0  0  0  0  0  0  0  0  0  0  0
   61.7670   33.3460   47.4260 C   0  0  0  0  0  0  0  0  0  0  0  0
   63.3150   33.8100   46.7440 Cl  0  0  0  0  0  0  0  0  0  0  0  0
   60.5790   33.7630   46.8290 C   0  0  0  0  0  0  0  0  0  0  0  0
   60.6138   34.3958   45.9299 H   0  0  0  0  0  0  0  0  0  0  0  0
   59.3410   33.3840   47.3630 C   0  0  0  0  0  0  0  0  0  0  0  0
   57.9280   33.7860   46.3890 Cl  0  0  0  0  0  0  0  0  0  0  0  0
   53.7270   29.3740   52.7450 C   0  0  0  0  0  0  0  0  0  0  0  0
   53.2758   28.9035   53.6310 H   0  0  0  0  0  0  0  0  0  0  0  0
   52.8410   30.1300   51.8260 C   0  0  0  0  0  0  0  0  0  0  0  0
   52.6240   29.7400   50.4890 C   0  0  0  0  0  0  0  0  0  0  0  0
   53.1283   28.8470   50.0912 H   0  0  0  0  0  0  0  0  0  0  0  0
   51.7710   30.4820   49.6650 C   0  0  0  0  0  0  0  0  0  0  0  0
   51.6150   30.1755   48.6201 H   0  0  0  0  0  0  0  0  0  0  0  0
   51.1170   31.6100   50.1640 C   0  0  0  0  0  0  0  0  0  0  0  0
   50.2710   32.3420   49.3390 O   0  0  0  0  0  0  0  0  0  0  0  0
   51.3130   31.9990   51.4940 C   0  0  0  0  0  0  0  0  0  0  0  0
   50.6610   33.1180   51.9980 O   0  0  0  0  0  0  0  0  0  0  0  0
   52.1660   31.2590   52.3220 C   0  0  0  0  0  0  0  0  0  0  0  0
   52.3091   31.5636   53.3692 H   0  0  0  0  0  0  0  0  0  0  0  0
  1  2  1  0
  2  3  1  0
  3  4  2  0
  3  5  1  0
  5  6  1  0
  6  7  1  0
  6  8  1  0
  6  9  1  0
  9 10  2  0
  9 11  1  0
 11 12  2  3
 12 13  1  0
 13 14  1  0
 14 15  1  0
 14 16  2  0
 16 17  1  0
 16 18  1  0
 18 19  1  0
 18 20  2  0
 20 21  1  0
  2 22  2  0
 22 23  1  0
 22 24  1  0
 24 25  2  0
 25 26  1  0
 25 27  1  0
 27 28  1  0
 27 29  2  0
 29 30  1  0
 29 31  1  0
 31 32  1  0
 31 33  2  0
 33 34  1  0
 20 12  1  0
 33 24  1  0
M  CHG  3  13  -1  30  -1  32  -1
M  END
>  <UniqueID>  (91) 
81

>  <SMILES>  (91) 
O=C(COC(=O)/C=C/c1ccc([O-])c([O-])c1)N=c1[n-]cc(Cl)cc1Cl

>  <Energy>  (91) 
49.65096576077316

>  <Genealogy>  (91) 
O=C(COC(=O)C=Cc1ccc([O-])c([O-])c1)N=c1[n-]cc(Cl)cc1Cl (protonated)
O=C(COC(=O)/C=C/c1ccc([O-])c([O-])c1)N=c1[n-]cc(Cl)cc1Cl (cis-trans isomerization)
O=C(COC(=O)/C=C/c1ccc([O-])c([O-])c1)N=c1[n-]cc(Cl)cc1Cl (3D coordinates assigned)
O=C(COC(=O)/C=C/c1ccc([O-])c([O-])c1)N=c1[n-]cc(Cl)cc1Cl (optimized conformer: 49.65096576077316 kcal/mol)

>  <smiles>  (91) 
O=C(COC(=O)C=Cc1ccc(O)c(O)c1)N=c1[nH]cc(Cl)cc1Cl

>  <score_type>  (91) 
oracle

>  <origin>  (91) 
adg

>  <m_score__min__energy>  (91) 
-17.510000000000002

>  <m_primary>  (91) 
energy

$$$$
91:0
     RDKit          3D

 53 57  0  0  0  0  0  0  0  0999 V2000
   56.7640   29.1240   45.7550 H   0  0  0  0  0  0  0  0  0  0  0  0
   56.1320   28.4170   45.4020 O   0  0  0  0  0  0  0  0  0  0  0  0
   56.2470   27.0810   45.7770 C   0  0  0  0  0  0  0  0  0  0  0  0
   55.1900   26.2740   45.9630 N   0  0  0  0  0  0  0  0  0  0  0  0
   55.7650   25.1070   46.3210 C   0  0  0  0  0  0  0  0  0  0  0  0
   55.0960   24.0750   46.5900 O   0  0  0  0  0  0  0  0  0  0  0  0
   57.1130   25.1330   46.3740 N   0  0  0  0  0  0  0  0  0  0  0  0
   57.4190   26.3910   46.0070 C   0  0  0  0  0  0  0  0  0  0  0  0
   58.7790   26.9630   46.0060 C   0  0  0  0  0  0  0  0  0  0  0  0
   59.3970   26.7951   45.1116 H   0  0  0  0  0  0  0  0  0  0  0  0
   58.5230   31.2400   47.2640 C   0  0  0  0  0  0  0  0  0  0  0  0
   60.1370   27.1550   48.0120 C   0  0  0  0  0  0  0  0  0  0  0  0
   60.4430   26.1018   48.0959 H   0  0  0  0  0  0  0  0  0  0  0  0
   60.4960   28.1380   48.8700 N   0  0  0  0  0  0  0  0  0  0  0  0
   59.9260   29.2560   48.4490 N   0  0  0  0  0  0  0  0  0  0  0  0
   59.9690   30.5050   49.0020 C   0  0  0  0  0  0  0  0  0  0  0  0
   60.6480   30.8010   50.0770 N   0  0  0  0  0  0  0  0  0  0  0  0
   62.0830   30.6700   50.3240 C   0  0  0  0  0  0  0  0  0  0  0  0
   62.5261   30.0294   49.5473 H   0  0  0  0  0  0  0  0  0  0  0  0
   62.2315   30.2228   51.3180 H   0  0  0  0  0  0  0  0  0  0  0  0
   62.7650   32.0420   50.2940 C   0  0  0  0  0  0  0  0  0  0  0  0
   63.8151   31.9309   50.6022 H   0  0  0  0  0  0  0  0  0  0  0  0
   62.2364   32.7168   50.9833 H   0  0  0  0  0  0  0  0  0  0  0  0
   62.7150   32.6260   48.9080 C   0  0  0  0  0  0  0  0  0  0  0  0
   63.8050   32.4820   48.0380 C   0  0  0  0  0  0  0  0  0  0  0  0
   64.6951   31.9180   48.3535 H   0  0  0  0  0  0  0  0  0  0  0  0
   63.7520   33.0600   46.7680 C   0  0  0  0  0  0  0  0  0  0  0  0
   64.5987   32.9429   46.0756 H   0  0  0  0  0  0  0  0  0  0  0  0
   62.6560   33.7670   46.3860 N   0  0  0  0  0  0  0  0  0  0  0  0
   61.5860   33.9350   47.2130 C   0  0  0  0  0  0  0  0  0  0  0  0
   60.4700   34.6690   46.8010 O   0  0  0  0  0  0  0  0  0  0  0  0
   59.2990   34.8020   47.5970 C   0  0  0  0  0  0  0  0  0  0  0  0
   59.5739   34.7708   48.6617 H   0  0  0  0  0  0  0  0  0  0  0  0
   58.8101   35.7614   47.3725 H   0  0  0  0  0  0  0  0  0  0  0  0
   58.6073   33.9766   47.3725 H   0  0  0  0  0  0  0  0  0  0  0  0
   61.6010   33.3690   48.4920 C   0  0  0  0  0  0  0  0  0  0  0  0
   60.7438   33.5060   49.1676 H   0  0  0  0  0  0  0  0  0  0  0  0
   59.2600   31.4920   48.3880 N   0  0  0  0  0  0  0  0  0  0  0  0
   59.3240   27.6720   47.0080 C   0  0  0  0  0  0  0  0  0  0  0  0
   57.8440   32.1850   46.6860 N   0  0  0  0  0  0  0  0  0  0  0  0
   58.1230   32.7180   45.3530 C   0  0  0  0  0  0  0  0  0  0  0  0
   57.7054   33.7326   45.2736 H   0  0  0  0  0  0  0  0  0  0  0  0
   59.2120   32.7444   45.2000 H   0  0  0  0  0  0  0  0  0  0  0  0
   57.5060   31.8470   44.3030 C   0  0  0  0  0  0  0  0  0  0  0  0
   56.6080   30.9230   44.5530 O   0  0  0  0  0  0  0  0  0  0  0  0
   56.2930   30.3310   43.4230 C   0  0  0  0  0  0  0  0  0  0  0  0
   55.5632   29.5148   43.3173 H   0  0  0  0  0  0  0  0  0  0  0  0
   57.0170   30.8890   42.3890 C   0  0  0  0  0  0  0  0  0  0  0  0
   56.9749   30.6085   41.3262 H   0  0  0  0  0  0  0  0  0  0  0  0
   57.8030   31.8680   42.9560 C   0  0  0  0  0  0  0  0  0  0  0  0
   58.5176   32.5280   42.4424 H   0  0  0  0  0  0  0  0  0  0  0  0
   58.4940   29.9850   46.7380 N   0  0  0  0  0  0  0  0  0  0  0  0
   59.2180   29.0120   47.3390 C   0  0  0  0  0  0  0  0  0  0  0  0
  1  2  1  0
  2  3  1  0
  3  4  1  0
  4  5  1  0
  5  6  2  0
  5  7  1  0
  7  8  1  0
  8  9  1  0
  9 10  1  0
  9 11  2  0
 11 12  1  0
 12 13  1  0
 12 14  2  0
 14 15  1  0
 15 16  1  0
 16 17  2  3
 17 18  1  0
 18 19  1  0
 18 20  1  0
 18 21  1  0
 21 22  1  0
 21 23  1  0
 21 24  1  0
 24 25  2  0
 25 26  1  0
 25 27  1  0
 27 28  1  0
 27 29  2  0
 29 30  1  0
 30 31  1  0
 31 32  1  0
 32 33  1  0
 32 34  1  0
 32 35  1  0
 30 36  2  0
 36 37  1  0
 16 38  1  0
 38 39  1  0
 39 40  2  0
 40 41  1  0
 41 42  1  0
 41 43  1  0
 41 44  1  0
 44 45  1  0
 45 46  1  0
 46 47  1  0
 46 48  2  0
 48 49  1  0
 48 50  1  0
 50 51  1  0
 39 52  1  0
 52 53  2  0
  8  3  2  0
 53 11  1  0
 53 15  1  0
 36 24  1  0
 50 44  2  0
M  CHG  3   4  -1   7  -1  38  -1
M  END
>  <UniqueID>  (92) 
82

>  <SMILES>  (92) 
COc1cc(CCN=c2[n-]/c(=N\Cc3ccco3)nc3/c(=C\c4[n-]c(=O)[n-]c4O)cnn23)ccn1

>  <Energy>  (92) 
155.97411245344153

>  <Genealogy>  (92) 
COc1cc(CCN=c2[n-]c(=NCc3ccco3)nc3c(=Cc4[n-]c(=O)[n-]c4O)cnn23)ccn1 (protonated)
COc1cc(CCN=c2[n-]/c(=N\Cc3ccco3)nc3/c(=C\c4[n-]c(=O)[n-]c4O)cnn23)ccn1 (cis-trans isomerization)
COc1cc(CCN=c2[n-]/c(=N\Cc3ccco3)nc3/c(=C\c4[n-]c(=O)[n-]c4O)cnn23)ccn1 (3D coordinates assigned)
COc1cc(CCN=c2[n-]/c(=N\Cc3ccco3)nc3/c(=C\c4[n-]c(=O)[n-]c4O)cnn23)ccn1 (optimized conformer: 155.97411245344153 kcal/mol)

>  <smiles>  (92) 
COc1cc(CCN=c2[nH]c(=NCc3ccco3)nc3c(=Cc4[nH]c(=O)[nH]c4O)cnn23)ccn1

>  <score_type>  (92) 
oracle

>  <origin>  (92) 
adg

>  <m_score__min__energy>  (92) 
-14.66

>  <m_primary>  (92) 
energy

$$$$
92:0
     RDKit          3D

 36 37  0  0  0  0  0  0  0  0999 V2000
   60.2720   26.9240   46.5410 C   0  0  0  0  0  0  0  0  0  0  0  0
   60.3340   28.3560   45.9840 C   0  0  1  0  0  0  0  0  0  0  0  0
   59.7830   28.4200   44.5440 C   0  0  0  0  0  0  0  0  0  0  0  0
   58.2540   28.2290   44.4720 C   0  0  0  0  0  0  0  0  0  0  0  0
   57.4940   28.8070   45.6890 C   0  0  2  0  0  0  0  0  0  0  0  0
   56.1990   29.3260   45.2510 N   0  0  0  0  0  0  0  0  0  0  0  0
   55.9160   29.9120   43.9730 C   0  0  0  0  0  0  0  0  0  0  0  0
   54.7880   29.7080   43.4510 O   0  0  0  0  0  0  0  0  0  0  0  0
   56.8840   30.8230   43.2730 C   0  0  0  0  0  0  0  0  0  0  0  0
   57.3100   31.8900   44.1730 N   0  0  0  0  0  0  0  0  0  0  0  0
   58.4270   32.6310   44.0460 C   0  0  0  0  0  0  0  0  0  0  0  0
   58.4380   33.5400   45.0800 C   0  0  0  0  0  0  0  0  0  0  0  0
   59.4340   34.5320   45.3380 N   0  0  0  0  0  0  0  0  0  0  0  0
   59.2930   35.6940   44.9060 O   0  0  0  0  0  0  0  0  0  0  0  0
   60.5570   34.2130   46.0650 O   0  0  0  0  0  0  0  0  0  0  0  0
   57.2890   33.3030   45.8090 C   0  0  0  0  0  0  0  0  0  0  0  0
   56.6160   32.2880   45.2310 N   0  0  0  0  0  0  0  0  0  0  0  0
   58.3020   29.9200   46.3720 C   0  0  0  0  0  0  0  0  0  0  0  0
   59.6310   29.3750   46.9250 C   0  0  0  0  0  0  0  0  0  0  0  0
   60.2735   26.9579   47.6405 H   0  0  0  0  0  0  0  0  0  0  0  0
   59.3518   26.4338   46.1905 H   0  0  0  0  0  0  0  0  0  0  0  0
   61.1464   26.3561   46.1905 H   0  0  0  0  0  0  0  0  0  0  0  0
   61.3936   28.6484   45.9413 H   0  0  0  0  0  0  0  0  0  0  0  0
   60.2630   27.6283   43.9500 H   0  0  0  0  0  0  0  0  0  0  0  0
   60.0071   29.4228   44.1514 H   0  0  0  0  0  0  0  0  0  0  0  0
   58.0417   27.1514   44.4106 H   0  0  0  0  0  0  0  0  0  0  0  0
   57.9042   28.7786   43.5857 H   0  0  0  0  0  0  0  0  0  0  0  0
   57.3434   28.0005   46.4217 H   0  0  0  0  0  0  0  0  0  0  0  0
   57.7630   30.2437   42.9540 H   0  0  0  0  0  0  0  0  0  0  0  0
   56.3901   31.2675   42.3964 H   0  0  0  0  0  0  0  0  0  0  0  0
   59.1904   32.5289   43.2606 H   0  0  0  0  0  0  0  0  0  0  0  0
   56.9757   33.8506   46.7101 H   0  0  0  0  0  0  0  0  0  0  0  0
   57.7112   30.3369   47.2009 H   0  0  0  0  0  0  0  0  0  0  0  0
   58.5245   30.6992   45.6282 H   0  0  0  0  0  0  0  0  0  0  0  0
   59.4287   28.8775   47.8850 H   0  0  0  0  0  0  0  0  0  0  0  0
   60.3098   30.2342   47.0296 H   0  0  0  0  0  0  0  0  0  0  0  0
  1  2  1  0
  2  3  1  0
  3  4  1  0
  4  5  1  0
  5  6  1  0
  6  7  1  0
  7  8  2  0
  7  9  1  0
  9 10  1  0
 10 11  1  0
 11 12  2  0
 12 13  1  0
 13 14  2  0
 13 15  1  0
 12 16  1  0
 16 17  2  0
  5 18  1  0
 18 19  1  0
 19  2  1  0
 17 10  1  0
  1 20  1  0
  1 21  1  0
  1 22  1  0
  2 23  1  6
  3 24  1  0
  3 25  1  0
  4 26  1  0
  4 27  1  0
  5 28  1  1
  9 29  1  0
  9 30  1  0
 11 31  1  0
 16 32  1  0
 18 33  1  0
 18 34  1  0
 19 35  1  0
 19 36  1  0
M  CHG  3   6  -1  13   1  15  -1
M  END
>  <UniqueID>  (93) 
83

>  <SMILES>  (93) 
CC1CCC([N-]C(=O)Cn2cc([N+](=O)[O-])cn2)CC1

>  <Energy>  (93) 
64.44799544644951

>  <Genealogy>  (93) 
CC1CCC([N-]C(=O)Cn2cc([N+](=O)[O-])cn2)CC1 (protonated)
CC1CCC([N-]C(=O)Cn2cc([N+](=O)[O-])cn2)CC1 (3D coordinates assigned)
CC1CCC([N-]C(=O)Cn2cc([N+](=O)[O-])cn2)CC1 (nonaromatic ring conformer: 64.44799544644951 kcal/mol)

>  <smiles>  (93) 
CC1CCC(NC(=O)Cn2cc([N+](=O)[O-])cn2)CC1

>  <score_type>  (93) 
oracle

>  <origin>  (93) 
adg

>  <m_score__min__energy>  (93) 
-9.3399999999999999

>  <m_primary>  (93) 
energy

$$$$
93:0
     RDKit          3D

 42 44  0  0  0  0  0  0  0  0999 V2000
   59.2640   34.3250   48.5990 N   0  0  0  0  0  0  0  0  0  0  0  0
   59.7620   34.1390   46.9560 S   0  0  0  0  0  0  0  0  0  0  0  0
   59.2230   35.2790   46.1390 O   0  0  0  0  0  0  0  0  0  0  0  0
   61.2630   34.1610   46.8800 O   0  0  0  0  0  0  0  0  0  0  0  0
   59.1550   32.6120   46.3260 C   0  0  0  0  0  0  0  0  0  0  0  0
   58.0190   32.5870   45.5070 C   0  0  0  0  0  0  0  0  0  0  0  0
   57.5280   31.3740   45.0160 C   0  0  0  0  0  0  0  0  0  0  0  0
   58.1620   30.1620   45.3480 C   0  0  0  0  0  0  0  0  0  0  0  0
   57.6590   28.8680   44.8290 C   0  0  0  0  0  0  0  0  0  0  0  0
   57.2020   28.8080   43.6550 O   0  0  0  0  0  0  0  0  0  0  0  0
   57.6990   27.6780   45.6350 N   0  0  0  0  0  0  0  0  0  0  0  0
   57.0360   26.4380   45.2190 C   0  0  1  0  0  0  0  0  0  0  0  0
   58.0650   25.3000   45.0770 C   0  0  0  0  0  0  0  0  0  0  0  0
   57.4950   24.1250   44.3340 C   0  0  0  0  0  0  0  0  0  0  0  0
   56.9490   24.1450   43.0540 C   0  0  0  0  0  0  0  0  0  0  0  0
   56.4640   22.9260   42.7280 N   0  0  0  0  0  0  0  0  0  0  0  0
   56.6880   22.1380   43.7950 C   0  0  0  0  0  0  0  0  0  0  0  0
   56.3430   20.7960   43.9410 C   0  0  0  0  0  0  0  0  0  0  0  0
   56.6570   20.1640   45.1590 C   0  0  0  0  0  0  0  0  0  0  0  0
   57.2980   20.8820   46.1920 C   0  0  0  0  0  0  0  0  0  0  0  0
   57.6330   22.2380   46.0180 C   0  0  0  0  0  0  0  0  0  0  0  0
   57.3120   22.8360   44.7980 C   0  0  0  0  0  0  0  0  0  0  0  0
   55.9700   26.0730   46.2170 C   0  0  0  0  0  0  0  0  0  0  0  0
   54.7620   26.3430   45.9860 O   0  0  0  0  0  0  0  0  0  0  0  0
   56.3210   25.4680   47.4170 O   0  0  0  0  0  0  0  0  0  0  0  0
   59.3050   30.1970   46.1670 C   0  0  0  0  0  0  0  0  0  0  0  0
   59.7930   31.4110   46.6570 C   0  0  0  0  0  0  0  0  0  0  0  0
   59.2070   35.3520   48.7870 H   0  0  0  0  0  0  0  0  0  0  0  0
   57.5103   33.5275   45.2487 H   0  0  0  0  0  0  0  0  0  0  0  0
   56.6406   31.3665   44.3661 H   0  0  0  0  0  0  0  0  0  0  0  0
   58.2580   27.6830   46.5190 H   0  0  0  0  0  0  0  0  0  0  0  0
   56.5633   26.5935   44.2380 H   0  0  0  0  0  0  0  0  0  0  0  0
   58.9408   25.6776   44.5289 H   0  0  0  0  0  0  0  0  0  0  0  0
   58.3462   24.9641   46.0860 H   0  0  0  0  0  0  0  0  0  0  0  0
   56.9166   25.0285   42.3996 H   0  0  0  0  0  0  0  0  0  0  0  0
   55.9960   22.6580   41.8330 H   0  0  0  0  0  0  0  0  0  0  0  0
   55.8411   20.2477   43.1301 H   0  0  0  0  0  0  0  0  0  0  0  0
   56.4014   19.1044   45.3069 H   0  0  0  0  0  0  0  0  0  0  0  0
   57.5374   20.3779   47.1399 H   0  0  0  0  0  0  0  0  0  0  0  0
   58.1310   22.8075   46.8165 H   0  0  0  0  0  0  0  0  0  0  0  0
   59.8197   29.2595   46.4242 H   0  0  0  0  0  0  0  0  0  0  0  0
   60.6817   31.4230   47.3052 H   0  0  0  0  0  0  0  0  0  0  0  0
  1  2  1  0
  2  3  2  0
  2  4  2  0
  2  5  1  0
  5  6  2  0
  6  7  1  0
  7  8  2  0
  8  9  1  0
  9 10  2  0
  9 11  1  0
 11 12  1  0
 12 13  1  0
 13 14  1  0
 14 15  2  0
 15 16  1  0
 16 17  1  0
 17 18  2  0
 18 19  1  0
 19 20  2  0
 20 21  1  0
 21 22  2  0
 12 23  1  0
 23 24  2  0
 23 25  1  0
  8 26  1  0
 26 27  2  0
 27  5  1  0
 22 14  1  0
 22 17  1  0
  1 28  1  0
  6 29  1  0
  7 30  1  0
 11 31  1  0
 12 32  1  6
 13 33  1  0
 13 34  1  0
 15 35  1  0
 16 36  1  0
 18 37  1  0
 19 38  1  0
 20 39  1  0
 21 40  1  0
 26 41  1  0
 27 42  1  0
M  CHG  2   1  -1  25  -1
M  END
>  <UniqueID>  (94) 
84

>  <SMILES>  (94) 
[NH-]S(=O)(=O)c1ccc(C(=O)N[C@@H](Cc2c[nH]c3ccccc23)C(=O)[O-])cc1

>  <Energy>  (94) 
75.37757368840614

>  <Genealogy>  (94) 
[NH-]S(=O)(=O)c1ccc(C(=O)NC(Cc2c[nH]c3ccccc23)C(=O)[O-])cc1 (protonated)
[NH-]S(=O)(=O)c1ccc(C(=O)N[C@@H](Cc2c[nH]c3ccccc23)C(=O)[O-])cc1 (chirality)
[NH-]S(=O)(=O)c1ccc(C(=O)N[C@@H](Cc2c[nH]c3ccccc23)C(=O)[O-])cc1 (3D coordinates assigned)
[NH-]S(=O)(=O)c1ccc(C(=O)N[C@@H](Cc2c[nH]c3ccccc23)C(=O)[O-])cc1 (optimized conformer: 75.37757368840614 kcal/mol)

>  <smiles>  (94) 
NS(=O)(=O)c1ccc(C(=O)NC(Cc2c[nH]c3ccccc23)C(=O)O)cc1

>  <score_type>  (94) 
oracle

>  <origin>  (94) 
adg

>  <m_score__min__energy>  (94) 
-11.75

>  <m_primary>  (94) 
energy

$$$$
94:0
     RDKit          3D

 47 49  0  0  0  0  0  0  0  0999 V2000
   54.5540   19.4740   48.3740 C   0  0  0  0  0  0  0  0  0  0  0  0
   55.6040   20.2770   47.6670 C   0  0  0  0  0  0  0  0  0  0  0  0
   55.4090   21.6520   47.4440 C   0  0  0  0  0  0  0  0  0  0  0  0
   56.3550   22.3910   46.7300 C   0  0  0  0  0  0  0  0  0  0  0  0
   57.5000   21.7610   46.2180 C   0  0  0  0  0  0  0  0  0  0  0  0
   58.6890   22.6860   45.3100 S   0  0  0  0  0  0  0  0  0  0  0  0
   58.2010   22.9390   43.9120 O   0  0  0  0  0  0  0  0  0  0  0  0
   59.9740   21.9150   45.2440 O   0  0  0  0  0  0  0  0  0  0  0  0
   58.9820   24.2080   46.0880 N   0  0  0  0  0  0  0  0  0  0  0  0
   58.2050   25.3980   45.8880 C   0  0  0  0  0  0  0  0  0  0  0  0
   58.7980   26.6480   45.6370 C   0  0  0  0  0  0  0  0  0  0  0  0
   58.0020   27.7800   45.4490 C   0  0  0  0  0  0  0  0  0  0  0  0
   56.6070   27.6780   45.4850 C   0  0  0  0  0  0  0  0  0  0  0  0
   55.8230   28.8510   45.2480 N   0  0  0  0  0  0  0  0  0  0  0  0
   55.9310   29.7190   44.1110 C   0  0  0  0  0  0  0  0  0  0  0  0
   55.0600   29.6420   43.2080 O   0  0  0  0  0  0  0  0  0  0  0  0
   57.0400   30.7230   43.9640 C   0  0  0  0  0  0  0  0  0  0  0  0
   56.9720   31.6930   45.0060 O   0  0  0  0  0  0  0  0  0  0  0  0
   58.0880   32.3030   45.6020 C   0  0  0  0  0  0  0  0  0  0  0  0
   59.1290   31.5470   46.1790 C   0  0  0  0  0  0  0  0  0  0  0  0
   60.2290   32.1860   46.7620 C   0  0  0  0  0  0  0  0  0  0  0  0
   60.3030   33.5810   46.7770 C   0  0  0  0  0  0  0  0  0  0  0  0
   59.2770   34.3410   46.2080 C   0  0  0  0  0  0  0  0  0  0  0  0
   58.1710   33.7080   45.6220 C   0  0  0  0  0  0  0  0  0  0  0  0
   57.1340   34.5090   45.0220 C   0  0  0  0  0  0  0  0  0  0  0  0
   56.3030   35.1480   44.5330 N   0  0  0  0  0  0  0  0  0  0  0  0
   56.0120   26.4410   45.7860 C   0  0  0  0  0  0  0  0  0  0  0  0
   54.6360   26.3370   45.9510 O   0  0  0  0  0  0  0  0  0  0  0  0
   56.8110   25.3060   45.9610 C   0  0  0  0  0  0  0  0  0  0  0  0
   57.6920   20.3860   46.4280 C   0  0  0  0  0  0  0  0  0  0  0  0
   56.7440   19.6440   47.1410 C   0  0  0  0  0  0  0  0  0  0  0  0
   54.6857   19.5747   49.4614 H   0  0  0  0  0  0  0  0  0  0  0  0
   53.5573   19.8424   48.0897 H   0  0  0  0  0  0  0  0  0  0  0  0
   54.6485   18.4156   48.0897 H   0  0  0  0  0  0  0  0  0  0  0  0
   54.5075   22.1475   47.8336 H   0  0  0  0  0  0  0  0  0  0  0  0
   56.2025   23.4684   46.5687 H   0  0  0  0  0  0  0  0  0  0  0  0
   59.8935   26.7346   45.5885 H   0  0  0  0  0  0  0  0  0  0  0  0
   58.4744   28.7574   45.2716 H   0  0  0  0  0  0  0  0  0  0  0  0
   58.0084   30.2037   44.0146 H   0  0  0  0  0  0  0  0  0  0  0  0
   56.9349   31.2321   42.9946 H   0  0  0  0  0  0  0  0  0  0  0  0
   59.0761   30.4483   46.1708 H   0  0  0  0  0  0  0  0  0  0  0  0
   61.0371   31.5887   47.2094 H   0  0  0  0  0  0  0  0  0  0  0  0
   61.1683   34.0812   47.2364 H   0  0  0  0  0  0  0  0  0  0  0  0
   59.3372   35.4393   46.2199 H   0  0  0  0  0  0  0  0  0  0  0  0
   56.3387   24.3322   46.1578 H   0  0  0  0  0  0  0  0  0  0  0  0
   58.5903   19.8907   46.0308 H   0  0  0  0  0  0  0  0  0  0  0  0
   56.8907   18.5641   47.2902 H   0  0  0  0  0  0  0  0  0  0  0  0
  1  2  1  0
  2  3  2  0
  3  4  1  0
  4  5  2  0
  5  6  1  0
  6  7  2  0
  6  8  2  0
  6  9  1  0
  9 10  1  0
 10 11  2  0
 11 12  1  0
 12 13  2  0
 13 14  1  0
 14 15  1  0
 15 16  2  0
 15 17  1  0
 17 18  1  0
 18 19  1  0
 19 20  2  0
 20 21  1  0
 21 22  2  0
 22 23  1  0
 23 24  2  0
 24 25  1  0
 25 26  3  0
 13 27  1  0
 27 28  1  0
 27 29  2  0
  5 30  1  0
 30 31  2  0
 31  2  1  0
 29 10  1  0
 24 19  1  0
  1 32  1  0
  1 33  1  0
  1 34  1  0
  3 35  1  0
  4 36  1  0
 11 37  1  0
 12 38  1  0
 17 39  1  0
 17 40  1  0
 20 41  1  0
 21 42  1  0
 22 43  1  0
 23 44  1  0
 29 45  1  0
 30 46  1  0
 31 47  1  0
M  CHG  3   9  -1  14  -1  28  -1
M  END
>  <UniqueID>  (95) 
85

>  <SMILES>  (95) 
Cc1ccc(S(=O)(=O)[N-]c2ccc([N-]C(=O)COc3ccccc3C#N)c([O-])c2)cc1

>  <Energy>  (95) 
53.70448111963323

>  <Genealogy>  (95) 
Cc1ccc(S(=O)(=O)[N-]c2ccc([N-]C(=O)COc3ccccc3C#N)c([O-])c2)cc1 (protonated)
Cc1ccc(S(=O)(=O)[N-]c2ccc([N-]C(=O)COc3ccccc3C#N)c([O-])c2)cc1 (3D coordinates assigned)
Cc1ccc(S(=O)(=O)[N-]c2ccc([N-]C(=O)COc3ccccc3C#N)c([O-])c2)cc1 (optimized conformer: 53.70448111963323 kcal/mol)

>  <smiles>  (95) 
Cc1ccc(S(=O)(=O)Nc2ccc(NC(=O)COc3ccccc3C#N)c(O)c2)cc1

>  <score_type>  (95) 
oracle

>  <origin>  (95) 
adg

>  <m_score__min__energy>  (95) 
-15.15

>  <m_primary>  (95) 
energy

$$$$
