0:0
     RDKit          3D

 31 33  0  0  0  0  0  0  0  0999 V2000
   60.6514   25.9726   48.6707 H   0  0  0  0  0  0  0  0  0  0  0  0
   59.9190   26.5210   48.0600 C   0  0  0  0  0  0  0  0  0  0  0  0
   58.7150   25.9610   47.7790 N   0  0  0  0  0  0  0  0  0  0  0  0
   57.7670   26.5980   47.0320 C   0  0  0  0  0  0  0  0  0  0  0  0
   56.6340   26.0090   46.7660 N   0  0  0  0  0  0  0  0  0  0  0  0
   56.3690   25.0720   45.7090 C   0  0  0  0  0  0  0  0  0  0  0  0
   57.3750   24.6380   44.8280 C   0  0  0  0  0  0  0  0  0  0  0  0
   58.3943   25.0413   44.9195 H   0  0  0  0  0  0  0  0  0  0  0  0
   57.0860   23.6970   43.8370 C   0  0  0  0  0  0  0  0  0  0  0  0
   57.8735   23.3746   43.1400 H   0  0  0  0  0  0  0  0  0  0  0  0
   55.7980   23.1640   43.7290 C   0  0  0  0  0  0  0  0  0  0  0  0
   55.5230   22.2300   42.7360 O   0  0  0  0  0  0  0  0  0  0  0  0
   54.7900   23.5610   44.6190 C   0  0  0  0  0  0  0  0  0  0  0  0
   53.5140   22.9920   44.4840 O   0  0  0  0  0  0  0  0  0  0  0  0
   52.2970   23.7300   44.5080 C   0  0  0  0  0  0  0  0  0  0  0  0
   51.9985   23.9110   45.5511 H   0  0  0  0  0  0  0  0  0  0  0  0
   52.4418   24.6926   43.9957 H   0  0  0  0  0  0  0  0  0  0  0  0
   51.5103   23.1567   43.9957 H   0  0  0  0  0  0  0  0  0  0  0  0
   55.0890   24.5110   45.6160 C   0  0  0  0  0  0  0  0  0  0  0  0
   54.3086   24.8153   46.3290 H   0  0  0  0  0  0  0  0  0  0  0  0
   58.0430   27.8860   46.5080 C   0  0  0  0  0  0  0  0  0  0  0  0
   57.0690   28.6400   45.6710 C   0  0  0  0  0  0  0  0  0  0  0  0
   55.8940   28.1250   45.2500 N   0  0  0  0  0  0  0  0  0  0  0  0
   55.2930   29.0620   44.5380 N   0  0  0  0  0  0  0  0  0  0  0  0
   56.1200   30.1200   44.5480 C   0  0  0  0  0  0  0  0  0  0  0  0
   55.8630   31.2030   43.9610 O   0  0  0  0  0  0  0  0  0  0  0  0
   57.2500   29.9080   45.2440 N   0  0  0  0  0  0  0  0  0  0  0  0
   59.2900   28.4680   46.7990 C   0  0  0  0  0  0  0  0  0  0  0  0
   59.5282   29.4689   46.4100 H   0  0  0  0  0  0  0  0  0  0  0  0
   60.2270   27.7880   47.5760 C   0  0  0  0  0  0  0  0  0  0  0  0
   61.1995   28.2487   47.8038 H   0  0  0  0  0  0  0  0  0  0  0  0
  1  2  1  0
  2  3  1  0
  3  4  1  0
  4  5  2  0
  5  6  1  0
  6  7  2  0
  7  8  1  0
  7  9  1  0
  9 10  1  0
  9 11  2  0
 11 12  1  0
 11 13  1  0
 13 14  1  0
 14 15  1  0
 15 16  1  0
 15 17  1  0
 15 18  1  0
 13 19  2  0
 19 20  1  0
  4 21  1  0
 21 22  1  0
 22 23  2  0
 23 24  1  0
 24 25  1  0
 25 26  2  0
 25 27  1  0
 21 28  2  0
 28 29  1  0
 28 30  1  0
 30 31  1  0
 30  2  2  0
 19  6  1  0
 27 22  1  0
M  CHG  4   3  -1  12  -1  24  -1  27  -1
M  END
>  <UniqueID>  (1) 
1

>  <SMILES>  (1) 
COc1cc(/N=c2\[n-]cccc2-c2n[n-]c(=O)[n-]2)ccc1[O-]

>  <Energy>  (1) 
76.03451736649606

>  <Genealogy>  (1) 
COc1cc(N=c2[n-]cccc2-c2n[n-]c(=O)[n-]2)ccc1[O-] (protonated)
COc1cc(/N=c2\[n-]cccc2-c2n[n-]c(=O)[n-]2)ccc1[O-] (cis-trans isomerization)
COc1cc(/N=c2\[n-]cccc2-c2n[n-]c(=O)[n-]2)ccc1[O-] (3D coordinates assigned)
COc1cc(/N=c2\[n-]cccc2-c2n[n-]c(=O)[n-]2)ccc1[O-] (optimized conformer: 76.03451736649606 kcal/mol)

>  <smiles>  (1) 
COc1cc(N=c2[nH]cccc2-c2n[nH]c(=O)[nH]2)ccc1O

>  <score_type>  (1) 
oracle

>  <origin>  (1) 
adg

>  <m_score__min__energy>  (1) 
-13.869999999999999

>  <m_primary>  (1) 
energy

$$$$
1:0
     RDKit          3D

 48 51  0  0  0  0  0  0  0  0999 V2000
   61.0760   26.3610   49.5800 O   0  0  0  0  0  0  0  0  0  0  0  0
   60.4310   27.0810   48.7730 C   0  0  0  0  0  0  0  0  0  0  0  0
   60.6030   28.5720   48.7820 C   0  0  0  0  0  0  0  0  0  0  0  0
   60.4260   29.1520   47.3710 C   0  0  0  0  0  0  0  0  0  0  0  0
   59.1990   28.6050   46.6800 C   0  0  0  0  0  0  0  0  0  0  0  0
   58.5290   29.3700   45.7140 C   0  0  0  0  0  0  0  0  0  0  0  0
   57.4390   28.8320   45.0170 C   0  0  0  0  0  0  0  0  0  0  0  0
   56.5740   29.8250   43.8480 S   0  0  0  0  0  0  0  0  0  0  0  0
   55.2520   30.2760   44.4050 O   0  0  0  0  0  0  0  0  0  0  0  0
   56.3310   29.0110   42.6080 O   0  0  0  0  0  0  0  0  0  0  0  0
   57.5230   31.2190   43.4420 N   0  0  0  0  0  0  0  0  0  0  0  0
   57.8940   32.2340   44.3940 C   0  0  0  0  0  0  0  0  0  0  0  0
   57.5490   32.1360   45.7540 C   0  0  0  0  0  0  0  0  0  0  0  0
   57.9420   33.1280   46.6570 C   0  0  0  0  0  0  0  0  0  0  0  0
   58.6780   34.2340   46.2220 C   0  0  0  0  0  0  0  0  0  0  0  0
   59.0550   35.1970   47.1700 O   0  0  0  0  0  0  0  0  0  0  0  0
   59.6870   34.9020   48.4120 C   0  0  0  0  0  0  0  0  0  0  0  0
   60.8400   33.9730   48.1670 C   0  0  0  0  0  0  0  0  0  0  0  0
   61.6930   34.1750   47.0700 C   0  0  0  0  0  0  0  0  0  0  0  0
   62.7410   33.2840   46.8200 C   0  0  0  0  0  0  0  0  0  0  0  0
   62.9360   32.1800   47.6560 C   0  0  0  0  0  0  0  0  0  0  0  0
   62.0800   31.9630   48.7400 C   0  0  0  0  0  0  0  0  0  0  0  0
   62.2640   30.8860   49.5420 F   0  0  0  0  0  0  0  0  0  0  0  0
   61.0310   32.8530   48.9920 C   0  0  0  0  0  0  0  0  0  0  0  0
   59.0110   34.3430   44.8600 C   0  0  0  0  0  0  0  0  0  0  0  0
   58.6190   33.3510   43.9570 C   0  0  0  0  0  0  0  0  0  0  0  0
   57.0380   27.5120   45.2650 C   0  0  0  0  0  0  0  0  0  0  0  0
   57.7140   26.7380   46.2100 C   0  0  0  0  0  0  0  0  0  0  0  0
   58.7920   27.2780   46.9190 C   0  0  0  0  0  0  0  0  0  0  0  0
   59.4710   26.4860   47.8980 N   0  0  0  0  0  0  0  0  0  0  0  0
   59.8521   29.0172   49.4513 H   0  0  0  0  0  0  0  0  0  0  0  0
   61.6184   28.8068   49.1340 H   0  0  0  0  0  0  0  0  0  0  0  0
   60.3325   30.2454   47.4464 H   0  0  0  0  0  0  0  0  0  0  0  0
   61.3053   28.8661   46.7751 H   0  0  0  0  0  0  0  0  0  0  0  0
   58.8608   30.3972   45.5026 H   0  0  0  0  0  0  0  0  0  0  0  0
   57.9430   31.2450   42.4850 H   0  0  0  0  0  0  0  0  0  0  0  0
   56.9663   31.2733   46.1093 H   0  0  0  0  0  0  0  0  0  0  0  0
   57.6698   33.0376   47.7189 H   0  0  0  0  0  0  0  0  0  0  0  0
   60.0544   35.8328   48.8687 H   0  0  0  0  0  0  0  0  0  0  0  0
   58.9650   34.4258   49.0917 H   0  0  0  0  0  0  0  0  0  0  0  0
   61.5361   35.0372   46.4051 H   0  0  0  0  0  0  0  0  0  0  0  0
   63.4127   33.4515   45.9651 H   0  0  0  0  0  0  0  0  0  0  0  0
   63.7633   31.4819   47.4606 H   0  0  0  0  0  0  0  0  0  0  0  0
   60.3530   32.6749   49.8397 H   0  0  0  0  0  0  0  0  0  0  0  0
   59.5825   35.2128   44.5039 H   0  0  0  0  0  0  0  0  0  0  0  0
   58.8819   33.4478   42.8933 H   0  0  0  0  0  0  0  0  0  0  0  0
   56.1878   27.0845   44.7132 H   0  0  0  0  0  0  0  0  0  0  0  0
   57.3981   25.7011   46.3974 H   0  0  0  0  0  0  0  0  0  0  0  0
  1  2  2  0
  2  3  1  0
  3  4  1  0
  4  5  1  0
  5  6  2  0
  6  7  1  0
  7  8  1  0
  8  9  2  0
  8 10  2  0
  8 11  1  0
 11 12  1  0
 12 13  2  0
 13 14  1  0
 14 15  2  0
 15 16  1  0
 16 17  1  0
 17 18  1  0
 18 19  2  0
 19 20  1  0
 20 21  2  0
 21 22  1  0
 22 23  1  0
 22 24  2  0
 15 25  1  0
 25 26  2  0
  7 27  2  0
 27 28  1  0
 28 29  2  0
 29 30  1  0
 30  2  1  0
 29  5  1  0
 26 12  1  0
 24 18  1  0
  3 31  1  0
  3 32  1  0
  4 33  1  0
  4 34  1  0
  6 35  1  0
 11 36  1  0
 13 37  1  0
 14 38  1  0
 17 39  1  0
 17 40  1  0
 19 41  1  0
 20 42  1  0
 21 43  1  0
 24 44  1  0
 25 45  1  0
 26 46  1  0
 27 47  1  0
 28 48  1  0
M  CHG  1  30  -1
M  END
>  <UniqueID>  (2) 
2

>  <SMILES>  (2) 
O=C1CCc2cc(S(=O)(=O)Nc3ccc(OCc4cccc(F)c4)cc3)ccc2[N-]1

>  <Energy>  (2) 
53.85491353062969

>  <Genealogy>  (2) 
O=C1CCc2cc(S(=O)(=O)Nc3ccc(OCc4cccc(F)c4)cc3)ccc2[N-]1 (protonated)
O=C1CCc2cc(S(=O)(=O)Nc3ccc(OCc4cccc(F)c4)cc3)ccc2[N-]1 (3D coordinates assigned)
O=C1CCc2cc(S(=O)(=O)Nc3ccc(OCc4cccc(F)c4)cc3)ccc2[N-]1 (nonaromatic ring conformer: 53.85491353062969 kcal/mol)

>  <smiles>  (2) 
O=C1CCc2cc(S(=O)(=O)Nc3ccc(OCc4cccc(F)c4)cc3)ccc2N1

>  <score_type>  (2) 
oracle

>  <origin>  (2) 
adg

>  <m_score__min__energy>  (2) 
-10.42

>  <m_primary>  (2) 
energy

$$$$
2:0
     RDKit          3D

 51 53  0  0  0  0  0  0  0  0999 V2000
   55.6100   24.5900   45.5360 C   0  0  0  0  0  0  0  0  0  0  0  0
   55.6970   25.7540   46.3530 O   0  0  0  0  0  0  0  0  0  0  0  0
   56.7630   26.6650   46.3240 C   0  0  0  0  0  0  0  0  0  0  0  0
   57.9360   26.4760   47.0740 C   0  0  0  0  0  0  0  0  0  0  0  0
   58.9730   27.4080   47.0080 C   0  0  0  0  0  0  0  0  0  0  0  0
   58.8600   28.5500   46.1930 C   0  0  0  0  0  0  0  0  0  0  0  0
   59.8940   29.4960   46.0950 O   0  0  0  0  0  0  0  0  0  0  0  0
   61.0680   29.3250   45.3070 C   0  0  0  0  0  0  0  0  0  0  0  0
   57.6780   28.7500   45.4500 C   0  0  0  0  0  0  0  0  0  0  0  0
   57.5350   29.9450   44.5470 C   0  0  0  0  0  0  0  0  0  0  0  0
   57.0240   31.0720   45.3130 N   0  0  0  0  0  0  0  0  0  0  0  0
   57.0950   32.4230   44.8490 C   0  0  0  0  0  0  0  0  0  0  0  0
   56.3720   33.3150   45.3700 O   0  0  0  0  0  0  0  0  0  0  0  0
   58.0490   32.7790   43.7500 C   0  0  0  0  0  0  0  0  0  0  0  0
   59.0750   33.8260   44.2020 C   0  0  0  0  0  0  0  0  0  0  0  0
   59.5470   33.5730   45.6010 C   0  0  0  0  0  0  0  0  0  0  0  0
   59.4700   32.3910   46.2380 N   0  0  0  0  0  0  0  0  0  0  0  0
   59.9660   32.5600   47.4510 N   0  0  0  0  0  0  0  0  0  0  0  0
   60.3270   33.8590   47.5110 C   0  0  0  0  0  0  0  0  0  0  0  0
   60.9750   34.4980   48.6970 C   0  0  0  0  0  0  0  0  0  0  0  0
   62.0590   33.5970   49.2440 C   0  0  0  0  0  0  0  0  0  0  0  0
   63.1740   33.2450   48.4440 C   0  0  0  0  0  0  0  0  0  0  0  0
   63.3700   33.8410   46.7980 Cl  0  0  0  0  0  0  0  0  0  0  0  0
   64.1580   32.3900   48.9500 C   0  0  0  0  0  0  0  0  0  0  0  0
   64.0450   31.8670   50.2380 C   0  0  0  0  0  0  0  0  0  0  0  0
   62.9420   32.1880   51.0270 C   0  0  0  0  0  0  0  0  0  0  0  0
   61.9460   33.0410   50.5410 C   0  0  0  0  0  0  0  0  0  0  0  0
   60.5680   33.3710   51.5880 Cl  0  0  0  0  0  0  0  0  0  0  0  0
   60.0750   34.4840   46.3830 O   0  0  0  0  0  0  0  0  0  0  0  0
   56.6450   27.7990   45.5150 C   0  0  0  0  0  0  0  0  0  0  0  0
   55.5433   23.6974   46.1754 H   0  0  0  0  0  0  0  0  0  0  0  0
   54.7141   24.6539   44.9009 H   0  0  0  0  0  0  0  0  0  0  0  0
   56.5054   24.5200   44.9009 H   0  0  0  0  0  0  0  0  0  0  0  0
   58.0376   25.5890   47.7165 H   0  0  0  0  0  0  0  0  0  0  0  0
   59.8872   27.2485   47.5985 H   0  0  0  0  0  0  0  0  0  0  0  0
   61.9380   29.1983   45.9680 H   0  0  0  0  0  0  0  0  0  0  0  0
   60.9569   28.4336   44.6722 H   0  0  0  0  0  0  0  0  0  0  0  0
   61.2158   30.2111   44.6722 H   0  0  0  0  0  0  0  0  0  0  0  0
   58.5165   30.2042   44.1233 H   0  0  0  0  0  0  0  0  0  0  0  0
   56.8355   29.7077   43.7319 H   0  0  0  0  0  0  0  0  0  0  0  0
   58.5830   31.8707   43.4341 H   0  0  0  0  0  0  0  0  0  0  0  0
   57.4686   33.2061   42.9189 H   0  0  0  0  0  0  0  0  0  0  0  0
   59.9398   33.7937   43.5229 H   0  0  0  0  0  0  0  0  0  0  0  0
   58.5904   34.8132   44.1774 H   0  0  0  0  0  0  0  0  0  0  0  0
   59.0920   31.4920   45.8650 H   0  0  0  0  0  0  0  0  0  0  0  0
   61.4178   35.4589   48.3961 H   0  0  0  0  0  0  0  0  0  0  0  0
   60.2166   34.6636   49.4764 H   0  0  0  0  0  0  0  0  0  0  0  0
   65.0268   32.1282   48.3282 H   0  0  0  0  0  0  0  0  0  0  0  0
   64.8269   31.2008   50.6313 H   0  0  0  0  0  0  0  0  0  0  0  0
   62.8541   31.7673   52.0396 H   0  0  0  0  0  0  0  0  0  0  0  0
   55.7313   27.9491   44.9212 H   0  0  0  0  0  0  0  0  0  0  0  0
  1  2  1  0
  2  3  1  0
  3  4  2  0
  4  5  1  0
  5  6  2  0
  6  7  1  0
  7  8  1  0
  6  9  1  0
  9 10  1  0
 10 11  1  0
 11 12  1  0
 12 13  2  0
 12 14  1  0
 14 15  1  0
 15 16  1  0
 16 17  2  0
 17 18  1  0
 18 19  2  0
 19 20  1  0
 20 21  1  0
 21 22  2  0
 22 23  1  0
 22 24  1  0
 24 25  2  0
 25 26  1  0
 26 27  2  0
 27 28  1  0
 19 29  1  0
  9 30  2  0
 30  3  1  0
 29 16  1  0
 27 21  1  0
  1 31  1  0
  1 32  1  0
  1 33  1  0
  4 34  1  0
  5 35  1  0
  8 36  1  0
  8 37  1  0
  8 38  1  0
 10 39  1  0
 10 40  1  0
 14 41  1  0
 14 42  1  0
 15 43  1  0
 15 44  1  0
 17 45  1  0
 20 46  1  0
 20 47  1  0
 24 48  1  0
 25 49  1  0
 26 50  1  0
 30 51  1  0
M  CHG  2  11  -1  17   1
M  END
>  <UniqueID>  (3) 
3

>  <SMILES>  (3) 
COc1ccc(OC)c(C[N-]C(=O)CCc2[nH+]nc(Cc3c(Cl)cccc3Cl)o2)c1

>  <Energy>  (3) 
79.82404964293556

>  <Genealogy>  (3) 
COc1ccc(OC)c(C[N-]C(=O)CCc2[nH+]nc(Cc3c(Cl)cccc3Cl)o2)c1 (protonated)
COc1ccc(OC)c(C[N-]C(=O)CCc2[nH+]nc(Cc3c(Cl)cccc3Cl)o2)c1 (3D coordinates assigned)
COc1ccc(OC)c(C[N-]C(=O)CCc2[nH+]nc(Cc3c(Cl)cccc3Cl)o2)c1 (optimized conformer: 79.82404964293556 kcal/mol)

>  <smiles>  (3) 
COc1ccc(OC)c(CNC(=O)CCc2nnc(Cc3c(Cl)cccc3Cl)o2)c1

>  <score_type>  (3) 
oracle

>  <origin>  (3) 
adg

>  <m_score__min__energy>  (3) 
-8.4700000000000006

>  <m_primary>  (3) 
energy

$$$$
3:0
     RDKit          3D

 61 64  0  0  0  0  0  0  0  0999 V2000
   57.8570   27.1050   42.6300 C   0  0  0  0  0  0  0  0  0  0  0  0
   58.1130   26.8390   44.0800 C   0  0  0  0  0  0  0  0  0  0  0  0
   57.5680   25.4760   44.8950 S   0  0  0  0  0  0  0  0  0  0  0  0
   58.2020   25.8810   46.3940 C   0  0  0  0  0  0  0  0  0  0  0  0
   58.8370   27.1140   46.2870 C   0  0  0  0  0  0  0  0  0  0  0  0
   59.5000   27.7280   47.4520 C   0  0  0  0  0  0  0  0  0  0  0  0
   60.3490   27.0550   48.0930 O   0  0  0  0  0  0  0  0  0  0  0  0
   59.1660   29.0660   47.8580 N   0  0  0  0  0  0  0  0  0  0  0  0
   59.7040   29.7220   49.0180 C   0  0  0  0  0  0  0  0  0  0  0  0
   60.0390   28.9570   50.1430 C   0  0  0  0  0  0  0  0  0  0  0  0
   60.5910   29.5640   51.2740 C   0  0  0  0  0  0  0  0  0  0  0  0
   60.8320   30.9380   51.2830 C   0  0  0  0  0  0  0  0  0  0  0  0
   60.5340   31.7140   50.1550 C   0  0  0  0  0  0  0  0  0  0  0  0
   60.8750   33.4480   50.1510 S   0  0  0  0  0  0  0  0  0  0  0  0
   61.2670   33.8780   51.5370 O   0  0  0  0  0  0  0  0  0  0  0  0
   59.6290   34.1960   49.7660 O   0  0  0  0  0  0  0  0  0  0  0  0
   62.1620   33.8510   49.0370 N   0  0  0  0  0  0  0  0  0  0  0  0
   61.7270   33.6310   47.6460 C   0  0  0  0  0  0  0  0  0  0  0  0
   62.9420   33.5090   46.7120 C   0  0  0  0  0  0  0  0  0  0  0  0
   63.8230   32.4400   47.0390 O   0  0  0  0  0  0  0  0  0  0  0  0
   63.7170   32.0000   48.3860 C   0  0  0  0  0  0  0  0  0  0  0  0
   63.4180   33.1420   49.3720 C   0  0  0  0  0  0  0  0  0  0  0  0
   59.9720   31.1040   49.0240 C   0  0  0  0  0  0  0  0  0  0  0  0
   58.7960   27.6640   44.9820 C   0  0  0  0  0  0  0  0  0  0  0  0
   59.5050   28.9320   44.5630 C   0  0  0  0  0  0  0  0  0  0  0  0
   58.9980   30.1180   45.3240 C   0  0  0  0  0  0  0  0  0  0  0  0
   59.8060   30.8710   45.9350 O   0  0  0  0  0  0  0  0  0  0  0  0
   57.5950   30.3850   45.3630 N   0  0  0  0  0  0  0  0  0  0  0  0
   57.0020   31.5880   44.7970 C   0  0  0  0  0  0  0  0  0  0  0  0
   57.7570   32.7900   45.2850 C   0  0  0  0  0  0  0  0  0  0  0  0
   58.5190   33.5620   44.3900 C   0  0  0  0  0  0  0  0  0  0  0  0
   59.2490   34.6610   44.8540 C   0  0  0  0  0  0  0  0  0  0  0  0
   59.2340   34.9870   46.2130 C   0  0  0  0  0  0  0  0  0  0  0  0
   58.4920   34.2140   47.1110 C   0  0  0  0  0  0  0  0  0  0  0  0
   57.7600   33.1160   46.6500 C   0  0  0  0  0  0  0  0  0  0  0  0
   57.0973   27.8943   42.5306 H   0  0  0  0  0  0  0  0  0  0  0  0
   58.7899   27.4309   42.1467 H   0  0  0  0  0  0  0  0  0  0  0  0
   57.4956   26.1853   42.1467 H   0  0  0  0  0  0  0  0  0  0  0  0
   58.1281   25.2736   47.3081 H   0  0  0  0  0  0  0  0  0  0  0  0
   58.5330   29.6210   47.2420 H   0  0  0  0  0  0  0  0  0  0  0  0
   59.8662   27.8707   50.1358 H   0  0  0  0  0  0  0  0  0  0  0  0
   60.8359   28.9576   52.1585 H   0  0  0  0  0  0  0  0  0  0  0  0
   61.2575   31.4139   52.1788 H   0  0  0  0  0  0  0  0  0  0  0  0
   61.1366   32.7043   47.5941 H   0  0  0  0  0  0  0  0  0  0  0  0
   61.1177   34.4888   47.3251 H   0  0  0  0  0  0  0  0  0  0  0  0
   62.5750   33.3526   45.6869 H   0  0  0  0  0  0  0  0  0  0  0  0
   63.5191   34.4392   46.8202 H   0  0  0  0  0  0  0  0  0  0  0  0
   62.9050   31.2607   48.4499 H   0  0  0  0  0  0  0  0  0  0  0  0
   64.6892   31.5694   48.6679 H   0  0  0  0  0  0  0  0  0  0  0  0
   63.3293   32.7223   50.3849 H   0  0  0  0  0  0  0  0  0  0  0  0
   64.2432   33.8669   49.3119 H   0  0  0  0  0  0  0  0  0  0  0  0
   59.7391   31.7095   48.1357 H   0  0  0  0  0  0  0  0  0  0  0  0
   60.5826   28.8190   44.7526 H   0  0  0  0  0  0  0  0  0  0  0  0
   59.3126   29.0990   43.4929 H   0  0  0  0  0  0  0  0  0  0  0  0
   57.0543   31.5420   43.6992 H   0  0  0  0  0  0  0  0  0  0  0  0
   55.9498   31.6621   45.1090 H   0  0  0  0  0  0  0  0  0  0  0  0
   58.5409   33.3007   43.3217 H   0  0  0  0  0  0  0  0  0  0  0  0
   59.8351   35.2690   44.1492 H   0  0  0  0  0  0  0  0  0  0  0  0
   59.8068   35.8529   46.5765 H   0  0  0  0  0  0  0  0  0  0  0  0
   58.4842   34.4699   48.1808 H   0  0  0  0  0  0  0  0  0  0  0  0
   57.1838   32.5048   47.3602 H   0  0  0  0  0  0  0  0  0  0  0  0
  1  2  1  0
  2  3  1  0
  3  4  1  0
  4  5  2  0
  5  6  1  0
  6  7  2  0
  6  8  1  0
  8  9  1  0
  9 10  2  0
 10 11  1  0
 11 12  2  0
 12 13  1  0
 13 14  1  0
 14 15  2  0
 14 16  2  0
 14 17  1  0
 17 18  1  0
 18 19  1  0
 19 20  1  0
 20 21  1  0
 21 22  1  0
 13 23  2  0
  5 24  1  0
 24 25  1  0
 25 26  1  0
 26 27  2  0
 26 28  1  0
 28 29  1  0
 29 30  1  0
 30 31  2  0
 31 32  1  0
 32 33  2  0
 33 34  1  0
 34 35  2  0
 24  2  2  0
 35 30  1  0
 23  9  1  0
 22 17  1  0
  1 36  1  0
  1 37  1  0
  1 38  1  0
  4 39  1  0
  8 40  1  0
 10 41  1  0
 11 42  1  0
 12 43  1  0
 18 44  1  0
 18 45  1  0
 19 46  1  0
 19 47  1  0
 21 48  1  0
 21 49  1  0
 22 50  1  0
 22 51  1  0
 23 52  1  0
 25 53  1  0
 25 54  1  0
 29 55  1  0
 29 56  1  0
 31 57  1  0
 32 58  1  0
 33 59  1  0
 34 60  1  0
 35 61  1  0
M  CHG  1  28  -1
M  END
>  <UniqueID>  (4) 
4

>  <SMILES>  (4) 
Cc1scc(C(=O)Nc2cccc(S(=O)(=O)N3CCOCC3)c2)c1CC(=O)[N-]Cc1ccccc1

>  <Energy>  (4) 
104.67434238115501

>  <Genealogy>  (4) 
Cc1scc(C(=O)Nc2cccc(S(=O)(=O)N3CCOCC3)c2)c1CC(=O)[N-]Cc1ccccc1 (protonated)
Cc1scc(C(=O)Nc2cccc(S(=O)(=O)N3CCOCC3)c2)c1CC(=O)[N-]Cc1ccccc1 (3D coordinates assigned)
Cc1scc(C(=O)Nc2cccc(S(=O)(=O)N3CCOCC3)c2)c1CC(=O)[N-]Cc1ccccc1 (nonaromatic ring conformer: 104.67434238115501 kcal/mol)

>  <smiles>  (4) 
Cc1scc(C(=O)Nc2cccc(S(=O)(=O)N3CCOCC3)c2)c1CC(=O)NCc1ccccc1

>  <score_type>  (4) 
oracle

>  <origin>  (4) 
adg

>  <m_score__min__energy>  (4) 
-11.41

>  <m_primary>  (4) 
energy

$$$$
4:0
     RDKit          3D

 43 45  0  0  0  0  0  0  0  0999 V2000
   58.7076   34.1304   51.9888 H   0  0  0  0  0  0  0  0  0  0  0  0
   58.7580   33.1750   51.4460 C   0  0  0  0  0  0  0  0  0  0  0  0
   57.8020   32.2330   51.6420 N   0  0  0  0  0  0  0  0  0  0  0  0
   57.8090   31.0300   51.0030 C   0  0  0  0  0  0  0  0  0  0  0  0
   56.8210   30.2130   51.2510 N   0  0  0  0  0  0  0  0  0  0  0  0
   56.3700   29.6950   52.5100 C   0  0  0  0  0  0  0  0  0  0  0  0
   57.1980   29.5660   53.4490 O   0  0  0  0  0  0  0  0  0  0  0  0
   54.9940   29.3640   52.7450 N   0  0  0  0  0  0  0  0  0  0  0  0
   53.8650   30.2090   52.4850 C   0  0  0  0  0  0  0  0  0  0  0  0
   52.8840   30.4550   53.4620 C   0  0  0  0  0  0  0  0  0  0  0  0
   52.9710   29.9910   54.4556 H   0  0  0  0  0  0  0  0  0  0  0  0
   51.7980   31.2880   53.1740 C   0  0  0  0  0  0  0  0  0  0  0  0
   51.0406   31.4898   53.9457 H   0  0  0  0  0  0  0  0  0  0  0  0
   51.6740   31.8650   51.9050 C   0  0  0  0  0  0  0  0  0  0  0  0
   50.5960   32.6940   51.6210 O   0  0  0  0  0  0  0  0  0  0  0  0
   52.6340   31.6030   50.9230 C   0  0  0  0  0  0  0  0  0  0  0  0
   52.5343   32.0517   49.9236 H   0  0  0  0  0  0  0  0  0  0  0  0
   53.7210   30.7710   51.2100 C   0  0  0  0  0  0  0  0  0  0  0  0
   54.4668   30.5568   50.4303 H   0  0  0  0  0  0  0  0  0  0  0  0
   58.8900   30.7200   50.1310 C   0  0  0  0  0  0  0  0  0  0  0  0
   58.9890   29.4470   49.5450 O   0  0  0  0  0  0  0  0  0  0  0  0
   60.0270   29.0060   48.6700 C   0  0  0  0  0  0  0  0  0  0  0  0
   60.3022   27.9731   48.9294 H   0  0  0  0  0  0  0  0  0  0  0  0
   60.8927   29.6747   48.7862 H   0  0  0  0  0  0  0  0  0  0  0  0
   59.5740   29.0500   47.2350 C   0  0  0  0  0  0  0  0  0  0  0  0
   60.4300   28.6320   46.2050 C   0  0  0  0  0  0  0  0  0  0  0  0
   61.4372   28.2612   46.4460 H   0  0  0  0  0  0  0  0  0  0  0  0
   60.0080   28.6850   44.8750 C   0  0  0  0  0  0  0  0  0  0  0  0
   60.6818   28.3520   44.0718 H   0  0  0  0  0  0  0  0  0  0  0  0
   58.7320   29.1600   44.5620 C   0  0  0  0  0  0  0  0  0  0  0  0
   58.4041   29.1935   43.5125 H   0  0  0  0  0  0  0  0  0  0  0  0
   57.8670   29.5940   45.5750 C   0  0  0  0  0  0  0  0  0  0  0  0
   56.5980   30.0660   45.2100 O   0  0  0  0  0  0  0  0  0  0  0  0
   56.1570   30.2290   43.8660 C   0  0  0  0  0  0  0  0  0  0  0  0
   55.1252   30.6104   43.8624 H   0  0  0  0  0  0  0  0  0  0  0  0
   56.8139   30.9437   43.3487 H   0  0  0  0  0  0  0  0  0  0  0  0
   56.1912   29.2588   43.3487 H   0  0  0  0  0  0  0  0  0  0  0  0
   58.2980   29.5420   46.9150 C   0  0  0  0  0  0  0  0  0  0  0  0
   57.6301   29.8894   47.7170 H   0  0  0  0  0  0  0  0  0  0  0  0
   59.8680   31.7080   49.9030 C   0  0  0  0  0  0  0  0  0  0  0  0
   60.6909   31.5095   49.2006 H   0  0  0  0  0  0  0  0  0  0  0  0
   59.8010   32.9340   50.5600 C   0  0  0  0  0  0  0  0  0  0  0  0
   60.5658   33.7037   50.3795 H   0  0  0  0  0  0  0  0  0  0  0  0
  1  2  1  0
  2  3  1  0
  3  4  1  0
  4  5  2  0
  5  6  1  0
  6  7  2  0
  6  8  1  0
  8  9  1  0
  9 10  2  0
 10 11  1  0
 10 12  1  0
 12 13  1  0
 12 14  2  0
 14 15  1  0
 14 16  1  0
 16 17  1  0
 16 18  2  0
 18 19  1  0
  4 20  1  0
 20 21  1  0
 21 22  1  0
 22 23  1  0
 22 24  1  0
 22 25  1  0
 25 26  2  0
 26 27  1  0
 26 28  1  0
 28 29  1  0
 28 30  2  0
 30 31  1  0
 30 32  1  0
 32 33  1  0
 33 34  1  0
 34 35  1  0
 34 36  1  0
 34 37  1  0
 32 38  2  0
 38 39  1  0
 20 40  2  0
 40 41  1  0
 40 42  1  0
 42 43  1  0
 42  2  2  0
 18  9  1  0
 38 25  1  0
M  CHG  3   3  -1   8  -1  15  -1
M  END
>  <UniqueID>  (5) 
5

>  <SMILES>  (5) 
COc1cccc(COc2ccc[n-]/c2=N/C(=O)[N-]c2ccc([O-])cc2)c1

>  <Energy>  (5) 
59.441338095190176

>  <Genealogy>  (5) 
COc1cccc(COc2ccc[n-]c2=NC(=O)[N-]c2ccc([O-])cc2)c1 (protonated)
COc1cccc(COc2ccc[n-]/c2=N/C(=O)[N-]c2ccc([O-])cc2)c1 (cis-trans isomerization)
COc1cccc(COc2ccc[n-]/c2=N/C(=O)[N-]c2ccc([O-])cc2)c1 (3D coordinates assigned)
COc1cccc(COc2ccc[n-]/c2=N/C(=O)[N-]c2ccc([O-])cc2)c1 (optimized conformer: 59.441338095190176 kcal/mol)

>  <smiles>  (5) 
COc1cccc(COc2ccc[nH]c2=NC(=O)Nc2ccc(O)cc2)c1

>  <score_type>  (5) 
oracle

>  <origin>  (5) 
adg

>  <m_score__min__energy>  (5) 
-13.619999999999999

>  <m_primary>  (5) 
energy

$$$$
5:0
     RDKit          3D

 59 63  0  0  0  0  0  0  0  0999 V2000
   58.3186   30.3689   43.4006 H   0  0  0  0  0  0  0  0  0  0  0  0
   57.6660   29.6950   43.9750 C   0  0  0  0  0  0  0  0  0  0  0  0
   58.1070   28.2060   44.6230 S   0  0  0  0  0  0  0  0  0  0  0  0
   56.5820   27.9180   45.2820 C   0  0  0  0  0  0  0  0  0  0  0  0
   56.2160   26.8580   45.9460 N   0  0  0  0  0  0  0  0  0  0  0  0
   56.8210   25.5290   45.8320 C   0  0  0  0  0  0  0  0  0  0  0  0
   57.2299   25.4066   44.8182 H   0  0  0  0  0  0  0  0  0  0  0  0
   56.0454   24.7748   46.0308 H   0  0  0  0  0  0  0  0  0  0  0  0
   57.9510   25.3450   46.8530 C   0  0  1  0  0  0  0  0  0  0  0  0
   57.6431   24.5043   47.4920 H   0  0  0  0  0  0  0  0  0  0  0  0
   59.1800   25.1200   46.1620 O   0  0  0  0  0  0  0  0  0  0  0  0
   60.0750   26.1220   46.4590 C   0  0  0  0  0  0  0  0  0  0  0  0
   61.2440   26.1750   45.9870 O   0  0  0  0  0  0  0  0  0  0  0  0
   59.5500   27.0540   47.3780 N   0  0  0  0  0  0  0  0  0  0  0  0
   60.1540   28.2810   47.8140 C   0  0  0  0  0  0  0  0  0  0  0  0
   60.4570   28.4710   49.1720 C   0  0  0  0  0  0  0  0  0  0  0  0
   60.2642   27.6634   49.8935 H   0  0  0  0  0  0  0  0  0  0  0  0
   61.0020   29.6800   49.6120 C   0  0  0  0  0  0  0  0  0  0  0  0
   61.2572   29.8101   50.6741 H   0  0  0  0  0  0  0  0  0  0  0  0
   61.2260   30.7300   48.7070 C   0  0  0  0  0  0  0  0  0  0  0  0
   61.6820   32.0090   49.1790 N   0  0  0  0  0  0  0  0  0  0  0  0
   60.9190   32.7550   50.0280 O   0  0  0  0  0  0  0  0  0  0  0  0
   60.4030   33.8580   49.3010 C   0  0  0  0  0  0  0  0  0  0  0  0
   59.5012   33.5255   48.7661 H   0  0  0  0  0  0  0  0  0  0  0  0
   60.1989   34.6500   50.0366 H   0  0  0  0  0  0  0  0  0  0  0  0
   61.3490   34.4380   48.3040 N   0  0  0  0  0  0  0  0  0  0  0  0
   60.9540   34.1010   46.9180 C   0  0  0  0  0  0  0  0  0  0  0  0
   60.9972   33.0091   46.7923 H   0  0  0  0  0  0  0  0  0  0  0  0
   61.6499   34.6090   46.2341 H   0  0  0  0  0  0  0  0  0  0  0  0
   59.5580   34.5730   46.5960 C   0  0  0  0  0  0  0  0  0  0  0  0
   59.2480   35.7490   46.7340 O   0  0  0  0  0  0  0  0  0  0  0  0
   58.4930   33.5620   46.2520 C   0  0  0  0  0  0  0  0  0  0  0  0
   58.1390   32.5060   47.3050 C   0  0  0  0  0  0  0  0  0  0  0  0
   58.2808   32.9289   48.3105 H   0  0  0  0  0  0  0  0  0  0  0  0
   57.0895   32.2011   47.1801 H   0  0  0  0  0  0  0  0  0  0  0  0
   58.7927   31.6301   47.1801 H   0  0  0  0  0  0  0  0  0  0  0  0
   58.4420   33.1170   44.7890 C   0  0  0  0  0  0  0  0  0  0  0  0
   59.1781   33.5055   44.0698 H   0  0  0  0  0  0  0  0  0  0  0  0
   58.4473   32.1471   44.2701 H   0  0  0  0  0  0  0  0  0  0  0  0
   57.3590   34.0380   45.3460 C   0  0  0  0  0  0  0  0  0  0  0  0
   57.3147   35.0899   45.0273 H   0  0  0  0  0  0  0  0  0  0  0  0
   56.2605   34.0057   45.3938 H   0  0  0  0  0  0  0  0  0  0  0  0
   62.7560   34.0890   48.6060 C   0  0  0  0  0  0  0  0  0  0  0  0
   63.4001   34.4713   47.8004 H   0  0  0  0  0  0  0  0  0  0  0  0
   63.0254   34.5434   49.5709 H   0  0  0  0  0  0  0  0  0  0  0  0
   62.9450   32.5760   48.7180 C   0  0  0  0  0  0  0  0  0  0  0  0
   63.2086   32.1567   47.7358 H   0  0  0  0  0  0  0  0  0  0  0  0
   63.7562   32.3380   49.4217 H   0  0  0  0  0  0  0  0  0  0  0  0
   60.9320   30.5380   47.3420 C   0  0  0  0  0  0  0  0  0  0  0  0
   61.1650   31.5210   46.4400 F   0  0  0  0  0  0  0  0  0  0  0  0
   60.4010   29.3200   46.9000 C   0  0  0  0  0  0  0  0  0  0  0  0
   60.1762   29.1756   45.8329 H   0  0  0  0  0  0  0  0  0  0  0  0
   58.2000   26.6120   47.7270 C   0  0  0  0  0  0  0  0  0  0  0  0
   58.1396   26.3618   48.7965 H   0  0  0  0  0  0  0  0  0  0  0  0
   57.4489   27.3944   47.5434 H   0  0  0  0  0  0  0  0  0  0  0  0
   55.7410   28.9370   45.0150 N   0  0  0  0  0  0  0  0  0  0  0  0
   54.7440   28.9650   45.3190 H   0  0  0  0  0  0  0  0  0  0  0  0
   56.3320   29.9240   44.2930 C   0  0  0  0  0  0  0  0  0  0  0  0
   55.7968   30.8339   43.9838 H   0  0  0  0  0  0  0  0  0  0  0  0
  1  2  1  0
  2  3  1  0
  3  4  1  0
  4  5  2  0
  5  6  1  0
  6  7  1  0
  6  8  1  0
  6  9  1  0
  9 10  1  1
  9 11  1  0
 11 12  1  0
 12 13  2  0
 12 14  1  0
 14 15  1  0
 15 16  2  0
 16 17  1  0
 16 18  1  0
 18 19  1  0
 18 20  2  0
 20 21  1  0
 21 22  1  0
 22 23  1  0
 23 24  1  0
 23 25  1  0
 23 26  1  0
 26 27  1  0
 27 28  1  0
 27 29  1  0
 27 30  1  0
 30 31  2  0
 30 32  1  0
 32 33  1  0
 33 34  1  0
 33 35  1  0
 33 36  1  0
 32 37  1  0
 37 38  1  0
 37 39  1  0
 37 40  1  0
 40 41  1  0
 40 42  1  0
 26 43  1  0
 43 44  1  0
 43 45  1  0
 43 46  1  0
 46 47  1  0
 46 48  1  0
 20 49  1  0
 49 50  1  0
 49 51  2  0
 51 52  1  0
 14 53  1  0
 53 54  1  0
 53 55  1  0
  4 56  1  0
 56 57  1  0
 56 58  1  0
 58 59  1  0
 58  2  2  0
 53  9  1  0
 51 15  1  0
 46 21  1  0
 40 32  1  0
M  END
>  <UniqueID>  (6) 
6

>  <SMILES>  (6) 
CC1(C(=O)CN2CCN(c3ccc(N4C[C@@H](C/N=c5/[nH]ccs5)OC4=O)cc3F)OC2)CC1

>  <Energy>  (6) 
392.88804293225724

>  <Genealogy>  (6) 
CC1(C(=O)CN2CCN(c3ccc(N4C[C@@H](CN=c5[nH]ccs5)OC4=O)cc3F)OC2)CC1 (chirality)
CC1(C(=O)CN2CCN(c3ccc(N4C[C@@H](C/N=c5/[nH]ccs5)OC4=O)cc3F)OC2)CC1 (cis-trans isomerization)
CC1(C(=O)CN2CCN(c3ccc(N4C[C@@H](C/N=c5/[nH]ccs5)OC4=O)cc3F)OC2)CC1 (3D coordinates assigned)
CC1(C(=O)CN2CCN(c3ccc(N4C[C@@H](C/N=c5/[nH]ccs5)OC4=O)cc3F)OC2)CC1 (nonaromatic ring conformer: 392.88804293225724 kcal/mol)

>  <smiles>  (6) 
CC1(C(=O)CN2CCN(c3ccc(N4CC(CN=c5[nH]ccs5)OC4=O)cc3F)OC2)CC1

>  <score_type>  (6) 
oracle

>  <origin>  (6) 
adg

>  <m_score__min__energy>  (6) 
-8.3499999999999996

>  <m_primary>  (6) 
energy

$$$$
6:0
     RDKit          3D

 55 58  0  0  0  0  0  0  0  0999 V2000
   60.0185   30.4494   47.3872 H   0  0  0  0  0  0  0  0  0  0  0  0
   59.4950   29.9990   46.5310 C   0  0  0  0  0  0  0  0  0  0  0  0
   59.6196   28.9284   46.3114 H   0  0  0  0  0  0  0  0  0  0  0  0
   58.7040   30.7560   45.7540 C   0  0  0  0  0  0  0  0  0  0  0  0
   57.9780   30.3300   44.6380 C   0  0  0  0  0  0  0  0  0  0  0  0
   57.9120   29.0830   44.1310 C   0  0  0  0  0  0  0  0  0  0  0  0
   58.2818   28.9111   43.1094 H   0  0  0  0  0  0  0  0  0  0  0  0
   57.3650   27.9360   44.8860 C   0  0  0  0  0  0  0  0  0  0  0  0
   56.0140   27.9140   45.2600 C   0  0  0  0  0  0  0  0  0  0  0  0
   55.1730   28.9690   44.9280 O   0  0  0  0  0  0  0  0  0  0  0  0
   55.5140   26.8470   45.9360 N   0  0  0  0  0  0  0  0  0  0  0  0
   56.3050   25.7980   46.2760 C   0  0  0  0  0  0  0  0  0  0  0  0
   55.8150   24.8100   46.8860 O   0  0  0  0  0  0  0  0  0  0  0  0
   57.6230   25.8090   45.9580 N   0  0  0  0  0  0  0  0  0  0  0  0
   58.1720   26.8550   45.2880 C   0  0  0  0  0  0  0  0  0  0  0  0
   59.4070   26.8490   45.0420 O   0  0  0  0  0  0  0  0  0  0  0  0
   57.2950   31.4460   44.1670 C   0  0  0  0  0  0  0  0  0  0  0  0
   56.6115   31.4831   43.3059 H   0  0  0  0  0  0  0  0  0  0  0  0
   57.6420   32.4990   44.9910 C   0  0  0  0  0  0  0  0  0  0  0  0
   57.0980   33.8920   44.8770 C   0  0  0  0  0  0  0  0  0  0  0  0
   56.9363   34.3060   45.8832 H   0  0  0  0  0  0  0  0  0  0  0  0
   57.8160   34.5226   44.3321 H   0  0  0  0  0  0  0  0  0  0  0  0
   56.1427   33.8691   44.3321 H   0  0  0  0  0  0  0  0  0  0  0  0
   58.4910   32.0800   45.9550 N   0  0  0  0  0  0  0  0  0  0  0  0
   59.0630   32.9100   46.9800 C   0  0  0  0  0  0  0  0  0  0  0  0
   59.7790   34.0670   46.6320 C   0  0  0  0  0  0  0  0  0  0  0  0
   59.9395   34.3147   45.5723 H   0  0  0  0  0  0  0  0  0  0  0  0
   60.2890   34.9060   47.6300 C   0  0  0  0  0  0  0  0  0  0  0  0
   60.8428   35.8156   47.3545 H   0  0  0  0  0  0  0  0  0  0  0  0
   60.0940   34.5870   48.9760 C   0  0  0  0  0  0  0  0  0  0  0  0
   60.4757   35.2585   49.7592 H   0  0  0  0  0  0  0  0  0  0  0  0
   59.4100   33.4080   49.3340 C   0  0  0  0  0  0  0  0  0  0  0  0
   59.2820   33.0330   50.7580 C   0  0  0  0  0  0  0  0  0  0  0  0
   58.8800   33.9020   51.5810 O   0  0  0  0  0  0  0  0  0  0  0  0
   59.7630   31.7500   51.2290 N   0  0  0  0  0  0  0  0  0  0  0  0
   60.0680   31.8570   52.2270 H   0  0  0  0  0  0  0  0  0  0  0  0
   58.6550   30.7550   51.2200 C   0  0  0  0  0  0  0  0  0  0  0  0
   58.6461   30.2277   52.1853 H   0  0  0  0  0  0  0  0  0  0  0  0
   57.7155   31.3013   51.0499 H   0  0  0  0  0  0  0  0  0  0  0  0
   58.8050   29.7210   50.0950 C   0  0  0  0  0  0  0  0  0  0  0  0
   57.9612   29.0165   50.1360 H   0  0  0  0  0  0  0  0  0  0  0  0
   58.8143   30.2459   49.1284 H   0  0  0  0  0  0  0  0  0  0  0  0
   60.0740   28.9710   50.2450 N   0  0  0  0  0  0  0  0  0  0  0  0
   60.3780   28.2160   49.0180 C   0  0  0  0  0  0  0  0  0  0  0  0
   60.7765   27.2263   49.2857 H   0  0  0  0  0  0  0  0  0  0  0  0
   59.4592   28.0934   48.4258 H   0  0  0  0  0  0  0  0  0  0  0  0
   61.1254   28.7643   48.4258 H   0  0  0  0  0  0  0  0  0  0  0  0
   61.2230   29.8170   50.6660 C   0  0  0  0  0  0  0  0  0  0  0  0
   61.4218   29.6360   51.7326 H   0  0  0  0  0  0  0  0  0  0  0  0
   62.0857   29.5431   50.0409 H   0  0  0  0  0  0  0  0  0  0  0  0
   60.9570   31.3180   50.4620 C   0  0  0  0  0  0  0  0  0  0  0  0
   61.8322   31.8893   50.8050 H   0  0  0  0  0  0  0  0  0  0  0  0
   60.7750   31.5019   49.3929 H   0  0  0  0  0  0  0  0  0  0  0  0
   58.8830   32.5810   48.3300 C   0  0  0  0  0  0  0  0  0  0  0  0
   58.3271   31.6721   48.6037 H   0  0  0  0  0  0  0  0  0  0  0  0
  1  2  1  0
  2  3  1  0
  2  4  2  0
  4  5  1  0
  5  6  2  0
  6  7  1  0
  6  8  1  0
  8  9  2  0
  9 10  1  0
  9 11  1  0
 11 12  1  0
 12 13  2  0
 12 14  1  0
 14 15  1  0
 15 16  2  0
  5 17  1  0
 17 18  1  0
 17 19  2  0
 19 20  1  0
 20 21  1  0
 20 22  1  0
 20 23  1  0
 19 24  1  0
 24 25  1  0
 25 26  2  0
 26 27  1  0
 26 28  1  0
 28 29  1  0
 28 30  2  0
 30 31  1  0
 30 32  1  0
 32 33  1  0
 33 34  2  0
 33 35  1  0
 35 36  1  0
 35 37  1  0
 37 38  1  0
 37 39  1  0
 37 40  1  0
 40 41  1  0
 40 42  1  0
 40 43  1  0
 43 44  1  0
 44 45  1  0
 44 46  1  0
 44 47  1  0
 43 48  1  0
 48 49  1  0
 48 50  1  0
 48 51  1  0
 51 52  1  0
 51 53  1  0
 32 54  2  0
 54 55  1  0
 24  4  1  0
 54 25  1  0
 15  8  1  0
 51 35  1  0
M  CHG  4  10  -1  11  -1  14  -1  35   1
M  END
>  <UniqueID>  (7) 
7

>  <SMILES>  (7) 
C=c1/c(=C/c2c([O-])[n-]c(=O)[n-]c2=O)cc(C)n1-c1cccc(C(=O)[NH+]2CCN(C)CC2)c1

>  <Energy>  (7) 
122.75773461118972

>  <Genealogy>  (7) 
C=c1c(=Cc2c([O-])[n-]c(=O)[n-]c2=O)cc(C)n1-c1cccc(C(=O)[NH+]2CCN(C)CC2)c1 (protonated)
C=c1/c(=C/c2c([O-])[n-]c(=O)[n-]c2=O)cc(C)n1-c1cccc(C(=O)[NH+]2CCN(C)CC2)c1 (cis-trans isomerization)
C=c1/c(=C/c2c([O-])[n-]c(=O)[n-]c2=O)cc(C)n1-c1cccc(C(=O)[NH+]2CCN(C)CC2)c1 (3D coordinates assigned)
C=c1/c(=C/c2c([O-])[n-]c(=O)[n-]c2=O)cc(C)n1-c1cccc(C(=O)[NH+]2CCN(C)CC2)c1 (nonaromatic ring conformer: 122.75773461118972 kcal/mol)

>  <smiles>  (7) 
C=c1c(=Cc2c(O)[nH]c(=O)[nH]c2=O)cc(C)n1-c1cccc(C(=O)N2CCN(C)CC2)c1

>  <score_type>  (7) 
oracle

>  <origin>  (7) 
adg

>  <m_score__min__energy>  (7) 
-15.51

>  <m_primary>  (7) 
energy

$$$$
7:0
     RDKit          3D

 61 64  0  0  0  0  0  0  0  0999 V2000
   57.8088   33.2796   47.6661 H   0  0  0  0  0  0  0  0  0  0  0  0
   57.9140   33.1670   46.5770 C   0  0  0  0  0  0  0  0  0  0  0  0
   57.2220   32.1950   45.9240 N   0  0  0  0  0  0  0  0  0  0  0  0
   57.3210   32.0070   44.5790 C   0  0  0  0  0  0  0  0  0  0  0  0
   56.6110   31.0540   44.0390 N   0  0  0  0  0  0  0  0  0  0  0  0
   56.3400   29.7340   44.5400 C   0  0  0  0  0  0  0  0  0  0  0  0
   55.1560   29.3240   44.6680 O   0  0  0  0  0  0  0  0  0  0  0  0
   57.4140   28.8140   44.7590 N   0  0  0  0  0  0  0  0  0  0  0  0
   58.2150   28.7160   45.9450 C   0  0  0  0  0  0  0  0  0  0  0  0
   58.2810   27.5310   46.6990 C   0  0  0  0  0  0  0  0  0  0  0  0
   57.6924   26.6543   46.3909 H   0  0  0  0  0  0  0  0  0  0  0  0
   59.0890   27.4590   47.8370 C   0  0  0  0  0  0  0  0  0  0  0  0
   59.1235   26.5312   48.4269 H   0  0  0  0  0  0  0  0  0  0  0  0
   59.8590   28.5700   48.2310 C   0  0  0  0  0  0  0  0  0  0  0  0
   60.6940   28.5630   49.3680 C   0  0  0  0  0  0  0  0  0  0  0  0
   60.8220   27.3640   50.2630 C   0  0  0  0  0  0  0  0  0  0  0  0
   60.7876   27.6859   51.3143 H   0  0  0  0  0  0  0  0  0  0  0  0
   59.9930   26.6686   50.0652 H   0  0  0  0  0  0  0  0  0  0  0  0
   61.7791   26.8593   50.0652 H   0  0  0  0  0  0  0  0  0  0  0  0
   61.4120   29.6760   49.6720 N   0  0  0  0  0  0  0  0  0  0  0  0
   61.3560   30.8050   48.9140 C   0  0  0  0  0  0  0  0  0  0  0  0
   62.1390   31.9650   49.2700 N   0  0  0  0  0  0  0  0  0  0  0  0
   62.0920   32.5480   50.6150 C   0  0  0  0  0  0  0  0  0  0  0  0
   61.8315   33.6144   50.5441 H   0  0  0  0  0  0  0  0  0  0  0  0
   61.3330   32.0258   51.2160 H   0  0  0  0  0  0  0  0  0  0  0  0
   63.4620   32.4000   51.2800 C   0  0  0  0  0  0  0  0  0  0  0  0
   63.4824   32.9987   52.2026 H   0  0  0  0  0  0  0  0  0  0  0  0
   63.6306   31.3379   51.5112 H   0  0  0  0  0  0  0  0  0  0  0  0
   64.5290   32.8640   50.3790 N   0  0  0  0  0  0  0  0  0  0  0  0
   65.7190   33.4610   50.9360 C   0  0  0  0  0  0  0  0  0  0  0  0
   66.6870   33.7530   50.1830 O   0  0  0  0  0  0  0  0  0  0  0  0
   65.7900   33.7110   52.3160 O   0  0  0  0  0  0  0  0  0  0  0  0
   65.7360   34.9960   52.9540 C   0  0  0  0  0  0  0  0  0  0  0  0
   67.0050   35.8120   52.6420 C   0  0  0  0  0  0  0  0  0  0  0  0
   67.4837   36.1198   53.5833 H   0  0  0  0  0  0  0  0  0  0  0  0
   67.7045   35.1940   52.0599 H   0  0  0  0  0  0  0  0  0  0  0  0
   66.7329   36.7049   52.0599 H   0  0  0  0  0  0  0  0  0  0  0  0
   64.5180   35.7360   52.3800 C   0  0  0  0  0  0  0  0  0  0  0  0
   63.8962   36.1138   53.2050 H   0  0  0  0  0  0  0  0  0  0  0  0
   64.8592   36.5796   51.7620 H   0  0  0  0  0  0  0  0  0  0  0  0
   63.9265   35.0444   51.7620 H   0  0  0  0  0  0  0  0  0  0  0  0
   65.5510   34.8390   54.4760 C   0  0  0  0  0  0  0  0  0  0  0  0
   66.2879   35.4643   55.0014 H   0  0  0  0  0  0  0  0  0  0  0  0
   64.5354   35.1551   54.7565 H   0  0  0  0  0  0  0  0  0  0  0  0
   65.6977   33.7855   54.7565 H   0  0  0  0  0  0  0  0  0  0  0  0
   64.5320   32.3790   48.9880 C   0  0  0  0  0  0  0  0  0  0  0  0
   65.2571   32.9636   48.4028 H   0  0  0  0  0  0  0  0  0  0  0  0
   64.8098   31.3147   48.9839 H   0  0  0  0  0  0  0  0  0  0  0  0
   63.1440   32.5290   48.3630 C   0  0  0  0  0  0  0  0  0  0  0  0
   62.9301   33.5949   48.1951 H   0  0  0  0  0  0  0  0  0  0  0  0
   63.1135   31.9945   47.4020 H   0  0  0  0  0  0  0  0  0  0  0  0
   60.5540   30.8260   47.8150 N   0  0  0  0  0  0  0  0  0  0  0  0
   59.8100   29.7490   47.4570 C   0  0  0  0  0  0  0  0  0  0  0  0
   58.9990   29.8120   46.3190 C   0  0  0  0  0  0  0  0  0  0  0  0
   58.9778   30.7303   45.7139 H   0  0  0  0  0  0  0  0  0  0  0  0
   58.1510   32.8680   43.8290 C   0  0  0  0  0  0  0  0  0  0  0  0
   58.2310   32.7502   42.7382 H   0  0  0  0  0  0  0  0  0  0  0  0
   58.8700   33.8710   44.4840 C   0  0  0  0  0  0  0  0  0  0  0  0
   59.5252   34.5424   43.9097 H   0  0  0  0  0  0  0  0  0  0  0  0
   58.7570   34.0210   45.8660 C   0  0  0  0  0  0  0  0  0  0  0  0
   59.6510   35.2800   46.6990 Cl  0  0  0  0  0  0  0  0  0  0  0  0
  1  2  1  0
  2  3  1  0
  3  4  1  0
  4  5  2  0
  5  6  1  0
  6  7  2  0
  6  8  1  0
  8  9  1  0
  9 10  2  0
 10 11  1  0
 10 12  1  0
 12 13  1  0
 12 14  2  0
 14 15  1  0
 15 16  1  0
 16 17  1  0
 16 18  1  0
 16 19  1  0
 15 20  2  0
 20 21  1  0
 21 22  1  0
 22 23  1  0
 23 24  1  0
 23 25  1  0
 23 26  1  0
 26 27  1  0
 26 28  1  0
 26 29  1  0
 29 30  1  0
 30 31  2  0
 30 32  1  0
 32 33  1  0
 33 34  1  0
 34 35  1  0
 34 36  1  0
 34 37  1  0
 33 38  1  0
 38 39  1  0
 38 40  1  0
 38 41  1  0
 33 42  1  0
 42 43  1  0
 42 44  1  0
 42 45  1  0
 29 46  1  0
 46 47  1  0
 46 48  1  0
 46 49  1  0
 49 50  1  0
 49 51  1  0
 21 52  2  0
 52 53  1  0
 53 54  2  0
 54 55  1  0
  4 56  1  0
 56 57  1  0
 56 58  2  0
 58 59  1  0
 58 60  1  0
 60 61  1  0
 60  2  2  0
 54  9  1  0
 53 14  1  0
 49 22  1  0
M  CHG  2   3  -1   8  -1
M  END
>  <UniqueID>  (8) 
8

>  <SMILES>  (8) 
Cc1nc(N2CCN(C(=O)OC(C)(C)C)CC2)nc2cc([N-]C(=O)/N=c3\ccc(Cl)c[n-]3)ccc12

>  <Energy>  (8) 
75.35264590936832

>  <Genealogy>  (8) 
Cc1nc(N2CCN(C(=O)OC(C)(C)C)CC2)nc2cc([N-]C(=O)N=c3ccc(Cl)c[n-]3)ccc12 (protonated)
Cc1nc(N2CCN(C(=O)OC(C)(C)C)CC2)nc2cc([N-]C(=O)/N=c3\ccc(Cl)c[n-]3)ccc12 (cis-trans isomerization)
Cc1nc(N2CCN(C(=O)OC(C)(C)C)CC2)nc2cc([N-]C(=O)/N=c3\ccc(Cl)c[n-]3)ccc12 (3D coordinates assigned)
Cc1nc(N2CCN(C(=O)OC(C)(C)C)CC2)nc2cc([N-]C(=O)/N=c3\ccc(Cl)c[n-]3)ccc12 (nonaromatic ring conformer: 75.35264590936832 kcal/mol)

>  <smiles>  (8) 
Cc1nc(N2CCN(C(=O)OC(C)(C)C)CC2)nc2cc(NC(=O)N=c3ccc(Cl)c[nH]3)ccc12

>  <score_type>  (8) 
oracle

>  <origin>  (8) 
adg

>  <m_score__min__energy>  (8) 
-12.07

>  <m_primary>  (8) 
energy

$$$$
8:0
     RDKit          3D

 45 47  0  0  0  0  0  0  0  0999 V2000
   59.6140   28.3850   44.8820 O   0  0  0  0  0  0  0  0  0  0  0  0
   58.5680   27.6920   45.0010 C   0  0  0  0  0  0  0  0  0  0  0  0
   58.6860   26.2230   45.2930 C   0  0  0  0  0  0  0  0  0  0  0  0
   57.7170   25.7780   46.3950 C   0  0  0  0  0  0  0  0  0  0  0  0
   56.5680   24.9910   45.8390 C   0  0  0  0  0  0  0  0  0  0  0  0
   56.6410   23.6890   45.4870 N   0  0  0  0  0  0  0  0  0  0  0  0
   55.3760   23.3850   45.1240 C   0  0  0  0  0  0  0  0  0  0  0  0
   55.0320   22.2340   44.7450 O   0  0  0  0  0  0  0  0  0  0  0  0
   54.5170   24.4230   45.2260 N   0  0  0  0  0  0  0  0  0  0  0  0
   53.0710   24.4120   45.0230 C   0  0  0  0  0  0  0  0  0  0  0  0
   52.4820   23.1780   45.6270 C   0  0  0  0  0  0  0  0  0  0  0  0
   52.7040   22.7240   46.9110 C   0  0  0  0  0  0  0  0  0  0  0  0
   51.9980   21.5440   47.0130 C   0  0  0  0  0  0  0  0  0  0  0  0
   51.3950   21.3510   45.7860 C   0  0  0  0  0  0  0  0  0  0  0  0
   51.7050   22.3400   44.9800 O   0  0  0  0  0  0  0  0  0  0  0  0
   55.2700   25.4300   45.6960 C   0  0  0  0  0  0  0  0  0  0  0  0
   54.7910   26.6990   46.0030 O   0  0  0  0  0  0  0  0  0  0  0  0
   57.2760   28.3000   44.8600 N   0  0  0  0  0  0  0  0  0  0  0  0
   57.0980   29.7500   44.8100 C   0  0  0  0  0  0  0  0  0  0  0  0
   57.7630   30.4330   46.0090 C   0  0  0  0  0  0  0  0  0  0  0  0
   58.0400   31.8940   45.7290 C   0  0  0  0  0  0  0  0  0  0  0  0
   57.8680   32.3770   44.4190 C   0  0  0  0  0  0  0  0  0  0  0  0
   58.1450   33.7110   44.1100 C   0  0  0  0  0  0  0  0  0  0  0  0
   58.5990   34.5790   45.1030 C   0  0  0  0  0  0  0  0  0  0  0  0
   58.7740   34.1150   46.4080 C   0  0  0  0  0  0  0  0  0  0  0  0
   58.5010   32.7790   46.7310 C   0  0  0  0  0  0  0  0  0  0  0  0
   58.7340   32.2710   48.3990 Cl  0  0  0  0  0  0  0  0  0  0  0  0
   58.4634   25.6592   44.3751 H   0  0  0  0  0  0  0  0  0  0  0  0
   59.7108   26.0265   45.6412 H   0  0  0  0  0  0  0  0  0  0  0  0
   58.2616   25.1519   47.1170 H   0  0  0  0  0  0  0  0  0  0  0  0
   57.3127   26.6786   46.8802 H   0  0  0  0  0  0  0  0  0  0  0  0
   52.6288   25.2987   45.5007 H   0  0  0  0  0  0  0  0  0  0  0  0
   52.8566   24.4251   43.9442 H   0  0  0  0  0  0  0  0  0  0  0  0
   53.3158   23.2029   47.6897 H   0  0  0  0  0  0  0  0  0  0  0  0
   51.9291   20.8888   47.8939 H   0  0  0  0  0  0  0  0  0  0  0  0
   50.7522   20.4978   45.5235 H   0  0  0  0  0  0  0  0  0  0  0  0
   56.4240   27.6980   44.9150 H   0  0  0  0  0  0  0  0  0  0  0  0
   57.5483   30.1347   43.8831 H   0  0  0  0  0  0  0  0  0  0  0  0
   56.0204   29.9692   44.8387 H   0  0  0  0  0  0  0  0  0  0  0  0
   57.0958   30.3559   46.8801 H   0  0  0  0  0  0  0  0  0  0  0  0
   58.7216   29.9306   46.2056 H   0  0  0  0  0  0  0  0  0  0  0  0
   57.5120   31.6978   43.6304 H   0  0  0  0  0  0  0  0  0  0  0  0
   58.0049   34.0773   43.0823 H   0  0  0  0  0  0  0  0  0  0  0  0
   58.8190   35.6285   44.8580 H   0  0  0  0  0  0  0  0  0  0  0  0
   59.1290   34.8036   47.1889 H   0  0  0  0  0  0  0  0  0  0  0  0
  1  2  2  0
  2  3  1  0
  3  4  1  0
  4  5  1  0
  5  6  1  0
  6  7  1  0
  7  8  2  0
  7  9  1  0
  9 10  1  0
 10 11  1  0
 11 12  2  0
 12 13  1  0
 13 14  2  0
 14 15  1  0
  9 16  1  0
 16 17  1  0
  2 18  1  0
 18 19  1  0
 19 20  1  0
 20 21  1  0
 21 22  2  0
 22 23  1  0
 23 24  2  0
 24 25  1  0
 25 26  2  0
 26 27  1  0
 16  5  2  0
 26 21  1  0
 15 11  1  0
  3 28  1  0
  3 29  1  0
  4 30  1  0
  4 31  1  0
 10 32  1  0
 10 33  1  0
 12 34  1  0
 13 35  1  0
 14 36  1  0
 18 37  1  0
 19 38  1  0
 19 39  1  0
 20 40  1  0
 20 41  1  0
 22 42  1  0
 23 43  1  0
 24 44  1  0
 25 45  1  0
M  CHG  2   6  -1  17  -1
M  END
>  <UniqueID>  (9) 
9

>  <SMILES>  (9) 
O=C(CCc1[n-]c(=O)n(Cc2ccco2)c1[O-])NCCc1ccccc1Cl

>  <Energy>  (9) 
95.2806215887112

>  <Genealogy>  (9) 
O=C(CCc1[n-]c(=O)n(Cc2ccco2)c1[O-])NCCc1ccccc1Cl (protonated)
O=C(CCc1[n-]c(=O)n(Cc2ccco2)c1[O-])NCCc1ccccc1Cl (3D coordinates assigned)
O=C(CCc1[n-]c(=O)n(Cc2ccco2)c1[O-])NCCc1ccccc1Cl (optimized conformer: 95.2806215887112 kcal/mol)

>  <smiles>  (9) 
O=C(CCc1[nH]c(=O)n(Cc2ccco2)c1O)NCCc1ccccc1Cl

>  <score_type>  (9) 
oracle

>  <origin>  (9) 
adg

>  <m_score__min__energy>  (9) 
-13.41

>  <m_primary>  (9) 
energy

$$$$
9:0
     RDKit          3D

 28 29  0  0  0  0  0  0  0  0999 V2000
   60.3580   23.0520   45.6150 N   0  0  0  0  0  0  0  0  0  0  0  0
   58.8390   22.3200   45.2380 S   0  0  0  0  0  0  0  0  0  0  0  0
   58.6020   21.1530   46.1560 O   0  0  0  0  0  0  0  0  0  0  0  0
   58.8590   21.8220   43.8200 O   0  0  0  0  0  0  0  0  0  0  0  0
   57.5540   23.5060   45.4340 C   0  0  0  0  0  0  0  0  0  0  0  0
   56.2980   23.1120   45.9120 C   0  0  0  0  0  0  0  0  0  0  0  0
   55.2870   24.0580   46.0930 C   0  0  0  0  0  0  0  0  0  0  0  0
   55.5220   25.4050   45.7960 C   0  0  0  0  0  0  0  0  0  0  0  0
   54.5010   26.3300   45.9820 O   0  0  0  0  0  0  0  0  0  0  0  0
   56.7750   25.8140   45.3050 C   0  0  0  0  0  0  0  0  0  0  0  0
   57.0170   27.2060   45.0310 N   0  0  0  0  0  0  0  0  0  0  0  0
   57.7330   28.0790   45.9220 C   0  0  0  0  0  0  0  0  0  0  0  0
   58.4150   27.5950   46.8670 O   0  0  0  0  0  0  0  0  0  0  0  0
   57.7060   29.5430   45.7150 C   0  0  0  0  0  0  0  0  0  0  0  0
   58.7090   30.3720   46.2380 C   0  0  0  0  0  0  0  0  0  0  0  0
   58.6400   31.7470   46.0220 C   0  0  0  0  0  0  0  0  0  0  0  0
   57.5740   32.2670   45.2910 C   0  0  0  0  0  0  0  0  0  0  0  0
   57.4870   33.5050   45.0820 O   0  0  0  0  0  0  0  0  0  0  0  0
   56.6230   31.4270   44.8050 N   0  0  0  0  0  0  0  0  0  0  0  0
   56.6880   30.1110   45.0110 N   0  0  0  0  0  0  0  0  0  0  0  0
   57.7940   24.8570   45.1460 C   0  0  0  0  0  0  0  0  0  0  0  0
   61.0800   22.3000   45.5660 H   0  0  0  0  0  0  0  0  0  0  0  0
   56.1073   22.0541   46.1456 H   0  0  0  0  0  0  0  0  0  0  0  0
   54.3028   23.7433   46.4702 H   0  0  0  0  0  0  0  0  0  0  0  0
   56.7270   27.5790   44.1000 H   0  0  0  0  0  0  0  0  0  0  0  0
   59.5419   29.9412   46.8130 H   0  0  0  0  0  0  0  0  0  0  0  0
   59.4175   32.4135   46.4236 H   0  0  0  0  0  0  0  0  0  0  0  0
   58.7872   25.1713   44.7928 H   0  0  0  0  0  0  0  0  0  0  0  0
  1  2  1  0
  2  3  2  0
  2  4  2  0
  2  5  1  0
  5  6  2  0
  6  7  1  0
  7  8  2  0
  8  9  1  0
  8 10  1  0
 10 11  1  0
 11 12  1  0
 12 13  2  0
 12 14  1  0
 14 15  1  0
 15 16  2  0
 16 17  1  0
 17 18  2  0
 17 19  1  0
 19 20  1  0
 10 21  2  0
 21  5  1  0
 20 14  2  0
  1 22  1  0
  6 23  1  0
  7 24  1  0
 11 25  1  0
 15 26  1  0
 16 27  1  0
 21 28  1  0
M  CHG  3   1  -1   9  -1  19  -1
M  END
>  <UniqueID>  (10) 
10

>  <SMILES>  (10) 
[NH-]S(=O)(=O)c1ccc([O-])c(NC(=O)c2ccc(=O)[n-]n2)c1

>  <Energy>  (10) 
34.48302464226611

>  <Genealogy>  (10) 
[NH-]S(=O)(=O)c1ccc([O-])c(NC(=O)c2ccc(=O)[n-]n2)c1 (protonated)
[NH-]S(=O)(=O)c1ccc([O-])c(NC(=O)c2ccc(=O)[n-]n2)c1 (3D coordinates assigned)
[NH-]S(=O)(=O)c1ccc([O-])c(NC(=O)c2ccc(=O)[n-]n2)c1 (optimized conformer: 34.48302464226611 kcal/mol)

>  <smiles>  (10) 
NS(=O)(=O)c1ccc(O)c(NC(=O)c2ccc(=O)[nH]n2)c1

>  <score_type>  (10) 
oracle

>  <origin>  (10) 
adg

>  <m_score__min__energy>  (10) 
-13.98

>  <m_primary>  (10) 
energy

$$$$
10:0
     RDKit          3D

 55 58  0  0  0  0  0  0  0  0999 V2000
   59.7480   33.9170   50.0160 C   0  0  0  0  0  0  0  0  0  0  0  0
   61.0240   33.9130   49.2360 C   0  0  0  0  0  0  0  0  0  0  0  0
   62.2460   33.9570   49.8040 N   0  0  0  0  0  0  0  0  0  0  0  0
   63.1190   33.9320   48.8380 O   0  0  0  0  0  0  0  0  0  0  0  0
   62.5310   33.8620   47.6650 C   0  0  0  0  0  0  0  0  0  0  0  0
   63.2640   33.8230   46.3650 C   0  0  0  0  0  0  0  0  0  0  0  0
   61.1600   33.8480   47.8600 C   0  0  0  0  0  0  0  0  0  0  0  0
   60.0990   33.7260   46.8410 C   0  0  0  0  0  0  0  0  0  0  0  0
   59.8730   34.7700   45.9340 C   0  0  0  0  0  0  0  0  0  0  0  0
   58.8450   34.6760   44.9960 C   0  0  0  0  0  0  0  0  0  0  0  0
   58.0420   33.5350   44.9490 C   0  0  0  0  0  0  0  0  0  0  0  0
   58.2630   32.4670   45.8330 C   0  0  0  0  0  0  0  0  0  0  0  0
   57.4230   31.3000   45.7480 N   0  0  0  0  0  0  0  0  0  0  0  0
   56.8870   30.5990   44.2570 S   0  0  0  0  0  0  0  0  0  0  0  0
   55.4020   30.7880   44.1270 O   0  0  0  0  0  0  0  0  0  0  0  0
   57.5540   31.2980   43.1050 O   0  0  0  0  0  0  0  0  0  0  0  0
   57.2430   28.8760   44.2400 C   0  0  0  0  0  0  0  0  0  0  0  0
   57.5540   28.2470   43.0300 C   0  0  0  0  0  0  0  0  0  0  0  0
   57.8170   26.8760   42.9980 C   0  0  0  0  0  0  0  0  0  0  0  0
   57.7600   26.1220   44.1730 C   0  0  0  0  0  0  0  0  0  0  0  0
   57.4440   26.7370   45.3980 C   0  0  0  0  0  0  0  0  0  0  0  0
   57.3220   25.9320   46.6370 C   0  0  0  0  0  0  0  0  0  0  0  0
   56.2130   25.4190   46.9520 O   0  0  0  0  0  0  0  0  0  0  0  0
   58.4650   25.7130   47.4680 N   0  0  0  0  0  0  0  0  0  0  0  0
   59.8100   26.1160   47.0830 C   0  0  0  0  0  0  0  0  0  0  0  0
   60.0900   27.5000   47.6050 C   0  0  0  0  0  0  0  0  0  0  0  0
   60.0080   27.7490   48.9870 C   0  0  0  0  0  0  0  0  0  0  0  0
   60.2460   29.0300   49.4930 C   0  0  0  0  0  0  0  0  0  0  0  0
   60.5580   30.0780   48.6250 C   0  0  0  0  0  0  0  0  0  0  0  0
   60.6340   29.8480   47.2490 C   0  0  0  0  0  0  0  0  0  0  0  0
   60.4020   28.5660   46.7320 C   0  0  0  0  0  0  0  0  0  0  0  0
   60.5040   28.3350   44.9880 Cl  0  0  0  0  0  0  0  0  0  0  0  0
   57.1980   28.1230   45.4220 C   0  0  0  0  0  0  0  0  0  0  0  0
   59.2910   32.5770   46.7870 C   0  0  0  0  0  0  0  0  0  0  0  0
   59.9761   33.9163   51.0921 H   0  0  0  0  0  0  0  0  0  0  0  0
   59.1675   34.8170   49.7648 H   0  0  0  0  0  0  0  0  0  0  0  0
   59.1619   33.0207   49.7648 H   0  0  0  0  0  0  0  0  0  0  0  0
   64.3458   33.7654   46.5556 H   0  0  0  0  0  0  0  0  0  0  0  0
   62.9454   32.9405   45.7908 H   0  0  0  0  0  0  0  0  0  0  0  0
   63.0408   34.7343   45.7908 H   0  0  0  0  0  0  0  0  0  0  0  0
   60.5088   35.6672   45.9619 H   0  0  0  0  0  0  0  0  0  0  0  0
   58.6667   35.5023   44.2921 H   0  0  0  0  0  0  0  0  0  0  0  0
   57.2279   33.4721   44.2119 H   0  0  0  0  0  0  0  0  0  0  0  0
   57.0270   30.8970   46.6270 H   0  0  0  0  0  0  0  0  0  0  0  0
   57.5915   28.8343   42.1006 H   0  0  0  0  0  0  0  0  0  0  0  0
   58.0698   26.3882   42.0450 H   0  0  0  0  0  0  0  0  0  0  0  0
   57.9634   25.0415   44.1399 H   0  0  0  0  0  0  0  0  0  0  0  0
   60.5394   25.4101   47.5069 H   0  0  0  0  0  0  0  0  0  0  0  0
   59.8923   26.1151   45.9861 H   0  0  0  0  0  0  0  0  0  0  0  0
   59.7545   26.9290   49.6750 H   0  0  0  0  0  0  0  0  0  0  0  0
   60.1874   29.2126   50.5762 H   0  0  0  0  0  0  0  0  0  0  0  0
   60.7442   31.0857   49.0248 H   0  0  0  0  0  0  0  0  0  0  0  0
   60.8771   30.6770   46.5681 H   0  0  0  0  0  0  0  0  0  0  0  0
   56.9685   28.6195   46.3763 H   0  0  0  0  0  0  0  0  0  0  0  0
   59.4643   31.7556   47.4979 H   0  0  0  0  0  0  0  0  0  0  0  0
  1  2  1  0
  2  3  2  0
  3  4  1  0
  4  5  1  0
  5  6  1  0
  5  7  2  0
  7  8  1  0
  8  9  2  0
  9 10  1  0
 10 11  2  0
 11 12  1  0
 12 13  1  0
 13 14  1  0
 14 15  2  0
 14 16  2  0
 14 17  1  0
 17 18  2  0
 18 19  1  0
 19 20  2  0
 20 21  1  0
 21 22  1  0
 22 23  2  0
 22 24  1  0
 24 25  1  0
 25 26  1  0
 26 27  2  0
 27 28  1  0
 28 29  2  0
 29 30  1  0
 30 31  2  0
 31 32  1  0
 21 33  2  0
 12 34  2  0
  7  2  1  0
 34  8  1  0
 33 17  1  0
 31 26  1  0
  1 35  1  0
  1 36  1  0
  1 37  1  0
  6 38  1  0
  6 39  1  0
  6 40  1  0
  9 41  1  0
 10 42  1  0
 11 43  1  0
 13 44  1  0
 18 45  1  0
 19 46  1  0
 20 47  1  0
 25 48  1  0
 25 49  1  0
 27 50  1  0
 28 51  1  0
 29 52  1  0
 30 53  1  0
 33 54  1  0
 34 55  1  0
M  CHG  1  24  -1
M  END
>  <UniqueID>  (11) 
11

>  <SMILES>  (11) 
Cc1noc(C)c1-c1cccc(NS(=O)(=O)c2cccc(C(=O)[N-]Cc3ccccc3Cl)c2)c1

>  <Energy>  (11) 
93.44175363713411

>  <Genealogy>  (11) 
Cc1noc(C)c1-c1cccc(NS(=O)(=O)c2cccc(C(=O)[N-]Cc3ccccc3Cl)c2)c1 (protonated)
Cc1noc(C)c1-c1cccc(NS(=O)(=O)c2cccc(C(=O)[N-]Cc3ccccc3Cl)c2)c1 (3D coordinates assigned)
Cc1noc(C)c1-c1cccc(NS(=O)(=O)c2cccc(C(=O)[N-]Cc3ccccc3Cl)c2)c1 (optimized conformer: 93.44175363713411 kcal/mol)

>  <smiles>  (11) 
Cc1noc(C)c1-c1cccc(NS(=O)(=O)c2cccc(C(=O)NCc3ccccc3Cl)c2)c1

>  <score_type>  (11) 
oracle

>  <origin>  (11) 
adg

>  <m_score__min__energy>  (11) 
-12.92

>  <m_primary>  (11) 
energy

$$$$
11:0
     RDKit          3D

 57 60  0  0  0  0  0  0  0  0999 V2000
   60.1120   29.0520   49.4340 C   0  0  0  0  0  0  0  0  0  0  0  0
   60.6660   28.3340   48.2950 N   0  0  0  0  0  0  0  0  0  0  0  0
   60.1640   28.4300   46.9570 C   0  0  0  0  0  0  0  0  0  0  0  0
   60.3750   29.4850   46.3010 O   0  0  0  0  0  0  0  0  0  0  0  0
   59.4040   27.3310   46.3280 C   0  0  0  0  0  0  0  0  0  0  0  0
   59.7020   26.0050   46.6770 C   0  0  0  0  0  0  0  0  0  0  0  0
   59.0300   24.9430   46.0710 C   0  0  0  0  0  0  0  0  0  0  0  0
   58.0450   25.1890   45.1050 C   0  0  0  0  0  0  0  0  0  0  0  0
   57.3280   24.1010   44.4930 N   0  0  0  0  0  0  0  0  0  0  0  0
   55.9090   24.2610   44.1640 C   0  0  0  0  0  0  0  0  0  0  0  0
   55.5400   23.3330   43.0030 C   0  0  0  0  0  0  0  0  0  0  0  0
   55.9340   22.0030   43.2800 O   0  0  0  0  0  0  0  0  0  0  0  0
   57.3450   21.9270   43.3630 C   0  0  0  0  0  0  0  0  0  0  0  0
   57.8660   22.7380   44.5520 C   0  0  0  0  0  0  0  0  0  0  0  0
   57.7560   26.5110   44.7380 C   0  0  0  0  0  0  0  0  0  0  0  0
   58.4400   27.5880   45.3290 C   0  0  0  0  0  0  0  0  0  0  0  0
   58.1100   28.9390   44.9620 N   0  0  0  0  0  0  0  0  0  0  0  0
   56.7700   29.4460   44.9480 C   0  0  0  0  0  0  0  0  0  0  0  0
   55.7930   28.6590   45.0790 O   0  0  0  0  0  0  0  0  0  0  0  0
   56.5530   30.8390   44.6920 N   0  0  0  0  0  0  0  0  0  0  0  0
   57.3850   31.9300   45.1170 C   0  0  0  0  0  0  0  0  0  0  0  0
   57.4240   33.1540   44.4230 C   0  0  0  0  0  0  0  0  0  0  0  0
   58.2510   34.1880   44.8700 C   0  0  0  0  0  0  0  0  0  0  0  0
   59.0300   34.0190   46.0170 C   0  0  0  0  0  0  0  0  0  0  0  0
   58.9650   32.8160   46.7450 C   0  0  0  0  0  0  0  0  0  0  0  0
   59.7380   32.6040   47.8960 O   0  0  0  0  0  0  0  0  0  0  0  0
   61.1310   32.7360   47.9790 C   0  0  0  0  0  0  0  0  0  0  0  0
   61.6620   33.8110   48.7030 C   0  0  0  0  0  0  0  0  0  0  0  0
   63.0480   33.9860   48.7950 C   0  0  0  0  0  0  0  0  0  0  0  0
   63.9100   33.0910   48.1550 C   0  0  0  0  0  0  0  0  0  0  0  0
   63.3880   32.0270   47.4150 C   0  0  0  0  0  0  0  0  0  0  0  0
   62.0050   31.8490   47.3210 C   0  0  0  0  0  0  0  0  0  0  0  0
   58.1460   31.7790   46.2830 C   0  0  0  0  0  0  0  0  0  0  0  0
   60.4681   28.5905   50.3668 H   0  0  0  0  0  0  0  0  0  0  0  0
   60.4357   30.1027   49.3979 H   0  0  0  0  0  0  0  0  0  0  0  0
   59.0136   29.0053   49.3979 H   0  0  0  0  0  0  0  0  0  0  0  0
   60.4724   25.8009   47.4352 H   0  0  0  0  0  0  0  0  0  0  0  0
   59.2744   23.9082   46.3527 H   0  0  0  0  0  0  0  0  0  0  0  0
   55.2989   24.0067   45.0433 H   0  0  0  0  0  0  0  0  0  0  0  0
   55.7185   25.3040   43.8711 H   0  0  0  0  0  0  0  0  0  0  0  0
   54.4511   23.3623   42.8496 H   0  0  0  0  0  0  0  0  0  0  0  0
   56.0629   23.6750   42.0976 H   0  0  0  0  0  0  0  0  0  0  0  0
   57.6425   20.8752   43.4863 H   0  0  0  0  0  0  0  0  0  0  0  0
   57.7745   22.3417   42.4391 H   0  0  0  0  0  0  0  0  0  0  0  0
   57.5470   22.2590   45.4895 H   0  0  0  0  0  0  0  0  0  0  0  0
   58.9646   22.7775   44.5132 H   0  0  0  0  0  0  0  0  0  0  0  0
   56.9849   26.7080   43.9786 H   0  0  0  0  0  0  0  0  0  0  0  0
   58.8710   29.5680   44.6190 H   0  0  0  0  0  0  0  0  0  0  0  0
   56.8022   33.2969   43.5269 H   0  0  0  0  0  0  0  0  0  0  0  0
   58.2886   35.1380   44.3168 H   0  0  0  0  0  0  0  0  0  0  0  0
   59.6958   34.8279   46.3522 H   0  0  0  0  0  0  0  0  0  0  0  0
   60.9865   34.5215   49.2019 H   0  0  0  0  0  0  0  0  0  0  0  0
   63.4588   34.8282   49.3712 H   0  0  0  0  0  0  0  0  0  0  0  0
   64.9990   33.2243   48.2339 H   0  0  0  0  0  0  0  0  0  0  0  0
   64.0671   31.3278   46.9052 H   0  0  0  0  0  0  0  0  0  0  0  0
   61.5981   31.0141   46.7316 H   0  0  0  0  0  0  0  0  0  0  0  0
   58.0995   30.8333   46.8430 H   0  0  0  0  0  0  0  0  0  0  0  0
  1  2  1  0
  2  3  1  0
  3  4  2  0
  3  5  1  0
  5  6  2  0
  6  7  1  0
  7  8  2  0
  8  9  1  0
  9 10  1  0
 10 11  1  0
 11 12  1  0
 12 13  1  0
 13 14  1  0
  8 15  1  0
 15 16  2  0
 16 17  1  0
 17 18  1  0
 18 19  2  0
 18 20  1  0
 20 21  1  0
 21 22  2  0
 22 23  1  0
 23 24  2  0
 24 25  1  0
 25 26  1  0
 26 27  1  0
 27 28  2  0
 28 29  1  0
 29 30  2  0
 30 31  1  0
 31 32  2  0
 25 33  2  0
 16  5  1  0
 33 21  1  0
 14  9  1  0
 32 27  1  0
  1 34  1  0
  1 35  1  0
  1 36  1  0
  6 37  1  0
  7 38  1  0
 10 39  1  0
 10 40  1  0
 11 41  1  0
 11 42  1  0
 13 43  1  0
 13 44  1  0
 14 45  1  0
 14 46  1  0
 15 47  1  0
 17 48  1  0
 22 49  1  0
 23 50  1  0
 24 51  1  0
 28 52  1  0
 29 53  1  0
 30 54  1  0
 31 55  1  0
 32 56  1  0
 33 57  1  0
M  CHG  2   2  -1  20  -1
M  END
>  <UniqueID>  (12) 
12

>  <SMILES>  (12) 
C[N-]C(=O)c1ccc(N2CCOCC2)cc1NC(=O)[N-]c1cccc(Oc2ccccc2)c1

>  <Energy>  (12) 
83.7506495645094

>  <Genealogy>  (12) 
C[N-]C(=O)c1ccc(N2CCOCC2)cc1NC(=O)[N-]c1cccc(Oc2ccccc2)c1 (protonated)
C[N-]C(=O)c1ccc(N2CCOCC2)cc1NC(=O)[N-]c1cccc(Oc2ccccc2)c1 (3D coordinates assigned)
C[N-]C(=O)c1ccc(N2CCOCC2)cc1NC(=O)[N-]c1cccc(Oc2ccccc2)c1 (nonaromatic ring conformer: 83.7506495645094 kcal/mol)

>  <smiles>  (12) 
CNC(=O)c1ccc(N2CCOCC2)cc1NC(=O)Nc1cccc(Oc2ccccc2)c1

>  <score_type>  (12) 
oracle

>  <origin>  (12) 
adg

>  <m_score__min__energy>  (12) 
-11.99

>  <m_primary>  (12) 
energy

$$$$
12:0
     RDKit          3D

 44 46  0  0  0  0  0  0  0  0999 V2000
   59.2710   35.1750   45.2580 C   0  0  0  0  0  0  0  0  0  0  0  0
   58.2100   34.4300   45.8480 O   0  0  0  0  0  0  0  0  0  0  0  0
   58.2170   33.0370   46.0240 C   0  0  0  0  0  0  0  0  0  0  0  0
   57.9310   32.1480   44.9690 C   0  0  0  0  0  0  0  0  0  0  0  0
   57.9350   30.7650   45.1860 C   0  0  0  0  0  0  0  0  0  0  0  0
   58.2400   30.2560   46.4540 C   0  0  0  0  0  0  0  0  0  0  0  0
   58.5420   31.1340   47.5030 C   0  0  0  0  0  0  0  0  0  0  0  0
   58.5240   32.5270   47.2950 C   0  0  0  0  0  0  0  0  0  0  0  0
   58.8090   33.4390   48.3260 O   0  0  0  0  0  0  0  0  0  0  0  0
   60.0310   34.1600   48.4490 C   0  0  0  0  0  0  0  0  0  0  0  0
   58.2970   28.7640   46.6530 C   0  0  0  0  0  0  0  0  0  0  0  0
   57.2830   28.0720   45.8350 N   0  0  0  0  0  0  0  0  0  0  0  0
   56.7820   26.7940   46.2870 C   0  0  0  0  0  0  0  0  0  0  0  0
   55.6010   26.4500   46.0040 O   0  0  0  0  0  0  0  0  0  0  0  0
   57.6460   25.8260   47.0420 C   0  0  0  0  0  0  0  0  0  0  0  0
   59.0540   25.3260   46.0000 S   0  0  0  0  0  0  0  0  0  0  0  0
   58.0590   24.2260   44.9920 C   0  0  0  0  0  0  0  0  0  0  0  0
   56.9770   24.6070   44.2930 N   0  0  0  0  0  0  0  0  0  0  0  0
   56.4900   23.5390   43.6750 N   0  0  0  0  0  0  0  0  0  0  0  0
   57.2920   22.5040   44.0080 C   0  0  0  0  0  0  0  0  0  0  0  0
   58.2770   22.9130   44.8280 N   0  0  0  0  0  0  0  0  0  0  0  0
   59.2930   22.1270   45.3900 N   0  0  0  0  0  0  0  0  0  0  0  0
   56.8270   28.6240   44.5430 C   0  0  0  0  0  0  0  0  0  0  0  0
   57.6860   29.8020   44.0640 C   0  0  0  0  0  0  0  0  0  0  0  0
   59.8957   35.6136   46.0501 H   0  0  0  0  0  0  0  0  0  0  0  0
   59.8845   34.5083   44.6342 H   0  0  0  0  0  0  0  0  0  0  0  0
   58.8522   35.9784   44.6342 H   0  0  0  0  0  0  0  0  0  0  0  0
   57.7030   32.5433   43.9681 H   0  0  0  0  0  0  0  0  0  0  0  0
   58.7948   30.7330   48.4956 H   0  0  0  0  0  0  0  0  0  0  0  0
   60.2685   34.3001   49.5139 H   0  0  0  0  0  0  0  0  0  0  0  0
   60.8406   33.5948   47.9641 H   0  0  0  0  0  0  0  0  0  0  0  0
   59.9278   35.1419   47.9641 H   0  0  0  0  0  0  0  0  0  0  0  0
   59.2955   28.4027   46.3660 H   0  0  0  0  0  0  0  0  0  0  0  0
   58.0929   28.5483   47.7122 H   0  0  0  0  0  0  0  0  0  0  0  0
   58.0204   26.3064   47.9580 H   0  0  0  0  0  0  0  0  0  0  0  0
   57.0542   24.9379   47.3086 H   0  0  0  0  0  0  0  0  0  0  0  0
   56.5710   25.5660   44.2350 H   0  0  0  0  0  0  0  0  0  0  0  0
   57.1581   21.4701   43.6572 H   0  0  0  0  0  0  0  0  0  0  0  0
   60.0190   22.5620   46.0000 H   0  0  0  0  0  0  0  0  0  0  0  0
   59.3360   21.1000   45.2070 H   0  0  0  0  0  0  0  0  0  0  0  0
   56.8692   27.8273   43.7857 H   0  0  0  0  0  0  0  0  0  0  0  0
   55.8021   28.9974   44.6853 H   0  0  0  0  0  0  0  0  0  0  0  0
   58.6493   29.4202   43.6949 H   0  0  0  0  0  0  0  0  0  0  0  0
   57.1506   30.3267   43.2590 H   0  0  0  0  0  0  0  0  0  0  0  0
  1  2  1  0
  2  3  1  0
  3  4  2  0
  4  5  1  0
  5  6  2  0
  6  7  1  0
  7  8  2  0
  8  9  1  0
  9 10  1  0
  6 11  1  0
 11 12  1  0
 12 13  1  0
 13 14  2  0
 13 15  1  0
 15 16  1  0
 16 17  1  0
 17 18  2  0
 18 19  1  0
 19 20  2  0
 20 21  1  0
 21 22  1  0
 12 23  1  0
 23 24  1  0
  8  3  1  0
 21 17  1  0
 24  5  1  0
  1 25  1  0
  1 26  1  0
  1 27  1  0
  4 28  1  0
  7 29  1  0
 10 30  1  0
 10 31  1  0
 10 32  1  0
 11 33  1  0
 11 34  1  0
 15 35  1  0
 15 36  1  0
 18 37  1  0
 20 38  1  0
 22 39  1  0
 22 40  1  0
 23 41  1  0
 23 42  1  0
 24 43  1  0
 24 44  1  0
M  CHG  1  18   1
M  END
>  <UniqueID>  (13) 
13

>  <SMILES>  (13) 
COc1cc2c(cc1OC)CN(C(=O)CSc1[nH+]ncn1N)CC2

>  <Energy>  (13) 
77.87413952352621

>  <Genealogy>  (13) 
COc1cc2c(cc1OC)CN(C(=O)CSc1[nH+]ncn1N)CC2 (protonated)
COc1cc2c(cc1OC)CN(C(=O)CSc1[nH+]ncn1N)CC2 (3D coordinates assigned)
COc1cc2c(cc1OC)CN(C(=O)CSc1[nH+]ncn1N)CC2 (nonaromatic ring conformer: 77.87413952352621 kcal/mol)

>  <smiles>  (13) 
COc1cc2c(cc1OC)CN(C(=O)CSc1nncn1N)CC2

>  <score_type>  (13) 
oracle

>  <origin>  (13) 
adg

>  <m_score__min__energy>  (13) 
-5.5599999999999996

>  <m_primary>  (13) 
energy

$$$$
13:0
     RDKit          3D

 50 53  0  0  0  0  0  0  0  0999 V2000
   59.3660   28.1820   45.3010 O   0  0  0  0  0  0  0  0  0  0  0  0
   58.3290   28.5560   45.9140 C   0  0  0  0  0  0  0  0  0  0  0  0
   57.9520   30.0030   45.9170 C   0  0  0  0  0  0  0  0  0  0  0  0
   57.2960   30.3620   44.6200 C   0  0  0  0  0  0  0  0  0  0  0  0
   57.8970   31.0530   43.6340 N   0  0  0  0  0  0  0  0  0  0  0  0
   56.9680   31.0620   42.6530 C   0  0  0  0  0  0  0  0  0  0  0  0
   57.1590   31.6300   41.5450 O   0  0  0  0  0  0  0  0  0  0  0  0
   55.8230   30.4110   42.9490 N   0  0  0  0  0  0  0  0  0  0  0  0
   56.0500   29.9690   44.1960 C   0  0  0  0  0  0  0  0  0  0  0  0
   55.1420   29.2150   44.9310 O   0  0  0  0  0  0  0  0  0  0  0  0
   57.4920   27.6290   46.5450 O   0  0  0  0  0  0  0  0  0  0  0  0
   57.2380   26.3390   46.0620 C   0  0  0  0  0  0  0  0  0  0  0  0
   58.3270   25.5120   45.7690 C   0  0  0  0  0  0  0  0  0  0  0  0
   58.1210   24.2100   45.3060 C   0  0  0  0  0  0  0  0  0  0  0  0
   56.8180   23.7210   45.1250 C   0  0  0  0  0  0  0  0  0  0  0  0
   56.5990   22.3240   44.6110 C   0  0  0  0  0  0  0  0  0  0  0  0
   55.8750   21.5030   45.6310 C   0  0  0  0  0  0  0  0  0  0  0  0
   54.7030   20.8760   45.4080 N   0  0  0  0  0  0  0  0  0  0  0  0
   54.3230   20.2810   46.5320 N   0  0  0  0  0  0  0  0  0  0  0  0
   55.2450   20.5310   47.4840 C   0  0  0  0  0  0  0  0  0  0  0  0
   55.1630   20.0320   48.8620 C   0  0  0  0  0  0  0  0  0  0  0  0
   54.4730   19.0100   49.1250 O   0  0  0  0  0  0  0  0  0  0  0  0
   55.8720   20.7130   49.9020 N   0  0  0  0  0  0  0  0  0  0  0  0
   56.7860   20.0500   50.8270 C   0  0  0  0  0  0  0  0  0  0  0  0
   57.9000   20.9810   51.2280 C   0  0  0  0  0  0  0  0  0  0  0  0
   59.2270   20.5190   51.2550 C   0  0  0  0  0  0  0  0  0  0  0  0
   60.2620   21.3760   51.6460 C   0  0  0  0  0  0  0  0  0  0  0  0
   59.9790   22.6960   52.0100 C   0  0  0  0  0  0  0  0  0  0  0  0
   60.9830   23.5230   52.3920 F   0  0  0  0  0  0  0  0  0  0  0  0
   58.6630   23.1630   51.9800 C   0  0  0  0  0  0  0  0  0  0  0  0
   57.6250   22.3100   51.5910 C   0  0  0  0  0  0  0  0  0  0  0  0
   56.2400   21.3120   46.9430 C   0  0  0  0  0  0  0  0  0  0  0  0
   57.3710   21.8060   47.5800 O   0  0  0  0  0  0  0  0  0  0  0  0
   55.7260   24.5660   45.3730 C   0  0  0  0  0  0  0  0  0  0  0  0
   55.9310   25.8700   45.8320 C   0  0  0  0  0  0  0  0  0  0  0  0
   54.8330   26.7010   46.0260 O   0  0  0  0  0  0  0  0  0  0  0  0
   57.2536   30.1961   46.7446 H   0  0  0  0  0  0  0  0  0  0  0  0
   58.8585   30.6129   46.0450 H   0  0  0  0  0  0  0  0  0  0  0  0
   55.1510   28.2050   44.8810 H   0  0  0  0  0  0  0  0  0  0  0  0
   59.3516   25.8887   45.9038 H   0  0  0  0  0  0  0  0  0  0  0  0
   58.9838   23.5654   45.0824 H   0  0  0  0  0  0  0  0  0  0  0  0
   56.0013   22.3663   43.6885 H   0  0  0  0  0  0  0  0  0  0  0  0
   57.5755   21.8608   44.4064 H   0  0  0  0  0  0  0  0  0  0  0  0
   56.2310   19.7419   51.7254 H   0  0  0  0  0  0  0  0  0  0  0  0
   57.2200   19.1708   50.3284 H   0  0  0  0  0  0  0  0  0  0  0  0
   59.4527   19.4813   50.9681 H   0  0  0  0  0  0  0  0  0  0  0  0
   61.2994   21.0107   51.6670 H   0  0  0  0  0  0  0  0  0  0  0  0
   58.4426   24.2030   52.2627 H   0  0  0  0  0  0  0  0  0  0  0  0
   56.5897   22.6811   51.5692 H   0  0  0  0  0  0  0  0  0  0  0  0
   54.7023   24.2000   45.2052 H   0  0  0  0  0  0  0  0  0  0  0  0
  1  2  2  0
  2  3  1  0
  3  4  1  0
  4  5  1  0
  5  6  1  0
  6  7  2  0
  6  8  1  0
  8  9  1  0
  9 10  1  0
  2 11  1  0
 11 12  1  0
 12 13  2  0
 13 14  1  0
 14 15  2  0
 15 16  1  0
 16 17  1  0
 17 18  1  0
 18 19  1  0
 19 20  2  0
 20 21  1  0
 21 22  2  0
 21 23  1  0
 23 24  1  0
 24 25  1  0
 25 26  2  0
 26 27  1  0
 27 28  2  0
 28 29  1  0
 28 30  1  0
 30 31  2  0
 20 32  1  0
 32 33  1  0
 15 34  1  0
 34 35  2  0
 35 36  1  0
  9  4  2  0
 35 12  1  0
 32 17  2  0
 31 25  1  0
  3 37  1  0
  3 38  1  0
 10 39  1  0
 13 40  1  0
 14 41  1  0
 16 42  1  0
 16 43  1  0
 24 44  1  0
 24 45  1  0
 26 46  1  0
 27 47  1  0
 30 48  1  0
 31 49  1  0
 34 50  1  0
M  CHG  6   5  -1   8  -1  18  -1  23  -1  33  -1  36  -1
M  END
>  <UniqueID>  (14) 
14

>  <SMILES>  (14) 
O=C(Cc1[n-]c(=O)[n-]c1O)Oc1ccc(Cc2[n-]nc(C(=O)[N-]Cc3ccc(F)cc3)c2[O-])cc1[O-]

>  <Energy>  (14) 
114.42244382453977

>  <Genealogy>  (14) 
O=C(Cc1[n-]c(=O)[n-]c1O)Oc1ccc(Cc2[n-]nc(C(=O)[N-]Cc3ccc(F)cc3)c2[O-])cc1[O-] (protonated)
O=C(Cc1[n-]c(=O)[n-]c1O)Oc1ccc(Cc2[n-]nc(C(=O)[N-]Cc3ccc(F)cc3)c2[O-])cc1[O-] (3D coordinates assigned)
O=C(Cc1[n-]c(=O)[n-]c1O)Oc1ccc(Cc2[n-]nc(C(=O)[N-]Cc3ccc(F)cc3)c2[O-])cc1[O-] (optimized conformer: 114.42244382453977 kcal/mol)

>  <smiles>  (14) 
O=C(Cc1[nH]c(=O)[nH]c1O)Oc1ccc(Cc2[nH]nc(C(=O)NCc3ccc(F)cc3)c2O)cc1O

>  <score_type>  (14) 
oracle

>  <origin>  (14) 
adg

>  <m_score__min__energy>  (14) 
-19.239999999999998

>  <m_primary>  (14) 
energy

$$$$
14:0
     RDKit          3D

 86 90  0  0  0  0  0  0  0  0999 V2000
   58.1650   32.7450   45.3480 C   0  0  0  0  0  0  0  0  0  0  0  0
   58.4980   34.2140   45.6140 C   0  0  0  0  0  0  0  0  0  0  0  0
   59.6220   34.3630   46.6550 C   0  0  0  0  0  0  0  0  0  0  0  0
   59.5390   33.3440   47.7640 C   0  0  0  0  0  0  0  0  0  0  0  0
   58.4220   33.2090   48.5140 N   0  0  0  0  0  0  0  0  0  0  0  0
   58.7590   32.3270   49.4750 C   0  0  0  0  0  0  0  0  0  0  0  0
   57.8410   31.9760   50.6040 C   0  0  0  0  0  0  0  0  0  0  0  0
   60.0810   31.9370   49.3040 C   0  0  0  0  0  0  0  0  0  0  0  0
   60.8840   31.0710   50.2050 C   0  0  0  0  0  0  0  0  0  0  0  0
   61.8950   31.5540   50.7830 O   0  0  0  0  0  0  0  0  0  0  0  0
   60.5600   29.6220   50.4340 C   0  0  0  0  0  0  0  0  0  0  0  0
   61.0380   28.7240   49.2720 C   0  0  0  0  0  0  0  0  0  0  0  0
   59.9090   28.0530   48.6350 N   0  0  0  0  0  0  0  0  0  0  0  0
   58.9850   28.7210   47.7660 C   0  0  0  0  0  0  0  0  0  0  0  0
   58.5540   29.8670   48.0730 O   0  0  0  0  0  0  0  0  0  0  0  0
   58.5830   28.0960   46.4860 C   0  0  0  0  0  0  0  0  0  0  0  0
   59.0090   28.6410   45.2600 C   0  0  0  0  0  0  0  0  0  0  0  0
   58.6790   28.0140   44.0530 C   0  0  0  0  0  0  0  0  0  0  0  0
   57.9170   26.8430   44.0570 C   0  0  0  0  0  0  0  0  0  0  0  0
   57.4630   26.3030   45.2680 C   0  0  0  0  0  0  0  0  0  0  0  0
   56.5150   24.8160   45.2690 S   0  0  0  0  0  0  0  0  0  0  0  0
   55.2090   25.0460   45.9800 O   0  0  0  0  0  0  0  0  0  0  0  0
   56.2250   24.4260   43.8470 O   0  0  0  0  0  0  0  0  0  0  0  0
   57.4160   23.5470   46.0630 N   0  0  0  0  0  0  0  0  0  0  0  0
   57.3890   23.7020   47.5380 C   0  0  0  0  0  0  0  0  0  0  0  0
   56.5550   22.6130   48.2320 C   0  0  0  0  0  0  0  0  0  0  0  0
   57.0080   21.2990   47.9300 O   0  0  0  0  0  0  0  0  0  0  0  0
   57.3850   21.1220   46.5680 C   0  0  0  0  0  0  0  0  0  0  0  0
   56.9230   22.2340   45.6110 C   0  0  0  0  0  0  0  0  0  0  0  0
   57.7990   26.9300   46.4780 C   0  0  0  0  0  0  0  0  0  0  0  0
   60.5680   32.5880   48.2230 N   0  0  0  0  0  0  0  0  0  0  0  0
   61.9230   32.4830   47.6620 C   0  0  0  0  0  0  0  0  0  0  0  0
   62.9910   32.8220   48.6730 C   0  0  0  0  0  0  0  0  0  0  0  0
   64.1180   31.9880   48.7860 C   0  0  0  0  0  0  0  0  0  0  0  0
   65.0950   32.2380   49.7520 C   0  0  0  0  0  0  0  0  0  0  0  0
   64.9600   33.3300   50.6190 C   0  0  0  0  0  0  0  0  0  0  0  0
   65.9740   33.5680   51.6610 C   0  0  0  0  0  0  0  0  0  0  0  0
   66.7510   34.7340   51.5800 C   0  0  0  0  0  0  0  0  0  0  0  0
   67.7480   34.9880   52.5230 C   0  0  0  0  0  0  0  0  0  0  0  0
   67.9770   34.0820   53.5600 C   0  0  0  0  0  0  0  0  0  0  0  0
   67.1970   32.9280   53.6650 C   0  0  0  0  0  0  0  0  0  0  0  0
   66.1860   32.6560   52.7230 C   0  0  0  0  0  0  0  0  0  0  0  0
   65.2080   31.1880   52.9060 S   0  0  0  0  0  0  0  0  0  0  0  0
   63.5260   31.5840   52.8270 N   0  0  0  0  0  0  0  0  0  0  0  0
   65.5440   30.2140   51.8110 O   0  0  0  0  0  0  0  0  0  0  0  0
   65.4890   30.5420   54.2350 O   0  0  0  0  0  0  0  0  0  0  0  0
   63.8290   34.1550   50.5290 C   0  0  0  0  0  0  0  0  0  0  0  0
   62.8450   33.8990   49.5710 C   0  0  0  0  0  0  0  0  0  0  0  0
   58.0453   32.2170   46.3055 H   0  0  0  0  0  0  0  0  0  0  0  0
   57.2292   32.6794   44.7736 H   0  0  0  0  0  0  0  0  0  0  0  0
   58.9810   32.2822   44.7736 H   0  0  0  0  0  0  0  0  0  0  0  0
   58.8197   34.6829   44.6724 H   0  0  0  0  0  0  0  0  0  0  0  0
   57.5963   34.7039   46.0101 H   0  0  0  0  0  0  0  0  0  0  0  0
   60.5896   34.2473   46.1447 H   0  0  0  0  0  0  0  0  0  0  0  0
   59.5151   35.3571   47.1137 H   0  0  0  0  0  0  0  0  0  0  0  0
   58.3468   32.1694   51.5615 H   0  0  0  0  0  0  0  0  0  0  0  0
   56.9300   32.5893   50.5401 H   0  0  0  0  0  0  0  0  0  0  0  0
   57.5716   30.9114   50.5401 H   0  0  0  0  0  0  0  0  0  0  0  0
   61.0511   29.2919   51.3613 H   0  0  0  0  0  0  0  0  0  0  0  0
   59.4662   29.5286   50.5036 H   0  0  0  0  0  0  0  0  0  0  0  0
   61.5556   29.3451   48.5261 H   0  0  0  0  0  0  0  0  0  0  0  0
   61.7195   27.9603   49.6749 H   0  0  0  0  0  0  0  0  0  0  0  0
   59.6050   29.5655   45.2505 H   0  0  0  0  0  0  0  0  0  0  0  0
   59.0201   28.4439   43.0997 H   0  0  0  0  0  0  0  0  0  0  0  0
   57.6729   26.3438   43.1077 H   0  0  0  0  0  0  0  0  0  0  0  0
   58.4205   23.6505   47.9165 H   0  0  0  0  0  0  0  0  0  0  0  0
   56.9223   24.6725   47.7624 H   0  0  0  0  0  0  0  0  0  0  0  0
   56.6141   22.7643   49.3199 H   0  0  0  0  0  0  0  0  0  0  0  0
   55.5219   22.7010   47.8647 H   0  0  0  0  0  0  0  0  0  0  0  0
   58.4828   21.0685   46.5229 H   0  0  0  0  0  0  0  0  0  0  0  0
   56.8861   20.2017   46.2302 H   0  0  0  0  0  0  0  0  0  0  0  0
   57.3136   22.0288   44.6034 H   0  0  0  0  0  0  0  0  0  0  0  0
   55.8233   22.2545   45.5967 H   0  0  0  0  0  0  0  0  0  0  0  0
   57.4453   26.5046   47.4288 H   0  0  0  0  0  0  0  0  0  0  0  0
   62.0818   31.4523   47.3122 H   0  0  0  0  0  0  0  0  0  0  0  0
   62.0013   33.2050   46.8358 H   0  0  0  0  0  0  0  0  0  0  0  0
   64.2309   31.1303   48.1066 H   0  0  0  0  0  0  0  0  0  0  0  0
   65.9708   31.5773   49.8321 H   0  0  0  0  0  0  0  0  0  0  0  0
   66.5728   35.4532   50.7670 H   0  0  0  0  0  0  0  0  0  0  0  0
   68.3540   35.9030   52.4490 H   0  0  0  0  0  0  0  0  0  0  0  0
   68.7720   34.2769   54.2948 H   0  0  0  0  0  0  0  0  0  0  0  0
   67.3742   32.2245   54.4919 H   0  0  0  0  0  0  0  0  0  0  0  0
   63.4210   32.3420   52.1150 H   0  0  0  0  0  0  0  0  0  0  0  0
   63.0280   30.7480   52.4480 H   0  0  0  0  0  0  0  0  0  0  0  0
   63.7165   35.0070   51.2156 H   0  0  0  0  0  0  0  0  0  0  0  0
   61.9528   34.5402   49.5171 H   0  0  0  0  0  0  0  0  0  0  0  0
  1  2  1  0
  2  3  1  0
  3  4  1  0
  4  5  2  0
  5  6  1  0
  6  7  1  0
  6  8  2  0
  8  9  1  0
  9 10  2  0
  9 11  1  0
 11 12  1  0
 12 13  1  0
 13 14  1  0
 14 15  2  0
 14 16  1  0
 16 17  2  0
 17 18  1  0
 18 19  2  0
 19 20  1  0
 20 21  1  0
 21 22  2  0
 21 23  2  0
 21 24  1  0
 24 25  1  0
 25 26  1  0
 26 27  1  0
 27 28  1  0
 28 29  1  0
 20 30  2  0
  8 31  1  0
 31 32  1  0
 32 33  1  0
 33 34  2  0
 34 35  1  0
 35 36  2  0
 36 37  1  0
 37 38  2  0
 38 39  1  0
 39 40  2  0
 40 41  1  0
 41 42  2  0
 42 43  1  0
 43 44  1  0
 43 45  2  0
 43 46  2  0
 36 47  1  0
 47 48  2  0
 31  4  1  0
 48 33  1  0
 30 16  1  0
 42 37  1  0
 29 24  1  0
  1 49  1  0
  1 50  1  0
  1 51  1  0
  2 52  1  0
  2 53  1  0
  3 54  1  0
  3 55  1  0
  7 56  1  0
  7 57  1  0
  7 58  1  0
 11 59  1  0
 11 60  1  0
 12 61  1  0
 12 62  1  0
 17 63  1  0
 18 64  1  0
 19 65  1  0
 25 66  1  0
 25 67  1  0
 26 68  1  0
 26 69  1  0
 28 70  1  0
 28 71  1  0
 29 72  1  0
 29 73  1  0
 30 74  1  0
 32 75  1  0
 32 76  1  0
 34 77  1  0
 35 78  1  0
 38 79  1  0
 39 80  1  0
 40 81  1  0
 41 82  1  0
 44 83  1  0
 44 84  1  0
 47 85  1  0
 48 86  1  0
M  CHG  1  13  -1
M  END
>  <UniqueID>  (15) 
15

>  <SMILES>  (15) 
CCCc1nc(C)c(C(=O)CC[N-]C(=O)c2cccc(S(=O)(=O)N3CCOCC3)c2)n1Cc1ccc(-c2ccccc2S(N)(=O)=O)cc1

>  <Energy>  (15) 
135.6777964545776

>  <Genealogy>  (15) 
CCCc1nc(C)c(C(=O)CC[N-]C(=O)c2cccc(S(=O)(=O)N3CCOCC3)c2)n1Cc1ccc(-c2ccccc2S(N)(=O)=O)cc1 (protonated)
CCCc1nc(C)c(C(=O)CC[N-]C(=O)c2cccc(S(=O)(=O)N3CCOCC3)c2)n1Cc1ccc(-c2ccccc2S(N)(=O)=O)cc1 (3D coordinates assigned)
CCCc1nc(C)c(C(=O)CC[N-]C(=O)c2cccc(S(=O)(=O)N3CCOCC3)c2)n1Cc1ccc(-c2ccccc2S(N)(=O)=O)cc1 (nonaromatic ring conformer: 135.6777964545776 kcal/mol)

>  <smiles>  (15) 
CCCc1nc(C)c(C(=O)CCNC(=O)c2cccc(S(=O)(=O)N3CCOCC3)c2)n1Cc1ccc(-c2ccccc2S(N)(=O)=O)cc1

>  <score_type>  (15) 
oracle

>  <origin>  (15) 
adg

>  <m_score__min__energy>  (15) 
-11.32

>  <m_primary>  (15) 
energy

$$$$
15:0
     RDKit          3D

 48 50  0  0  0  0  0  0  0  0999 V2000
   60.1750   34.5770   48.7780 C   0  0  0  0  0  0  0  0  0  0  0  0
   59.5760   33.8740   47.5950 C   0  0  0  0  0  0  0  0  0  0  0  0
   60.0300   32.6020   47.2290 C   0  0  0  0  0  0  0  0  0  0  0  0
   59.5000   31.9610   46.1090 C   0  0  0  0  0  0  0  0  0  0  0  0
   58.5180   32.5860   45.3200 C   0  0  0  0  0  0  0  0  0  0  0  0
   57.9580   31.8340   44.1320 C   0  0  0  0  0  0  0  0  0  0  0  0
   57.4410   30.4870   44.5460 C   0  0  0  0  0  0  0  0  0  0  0  0
   56.1990   30.2740   44.5360 O   0  0  0  0  0  0  0  0  0  0  0  0
   58.3580   29.4490   44.9310 N   0  0  0  0  0  0  0  0  0  0  0  0
   57.9590   28.2010   45.5220 C   0  0  0  0  0  0  0  0  0  0  0  0
   58.8960   27.4550   46.2500 C   0  0  0  0  0  0  0  0  0  0  0  0
   58.5290   26.2460   46.8460 C   0  0  0  0  0  0  0  0  0  0  0  0
   57.2150   25.7840   46.7430 C   0  0  0  0  0  0  0  0  0  0  0  0
   56.2530   26.5380   46.0630 C   0  0  0  0  0  0  0  0  0  0  0  0
   54.9100   26.0390   45.9860 N   0  0  0  0  0  0  0  0  0  0  0  0
   54.5210   24.6930   45.6770 C   0  0  0  0  0  0  0  0  0  0  0  0
   53.3390   24.3360   45.9240 O   0  0  0  0  0  0  0  0  0  0  0  0
   55.4480   23.7350   45.0300 C   0  0  0  0  0  0  0  0  0  0  0  0
   55.5810   23.7180   43.6300 C   0  0  0  0  0  0  0  0  0  0  0  0
   56.4500   22.8140   43.0130 C   0  0  0  0  0  0  0  0  0  0  0  0
   57.2030   21.9260   43.7860 C   0  0  0  0  0  0  0  0  0  0  0  0
   57.0910   21.9450   45.1780 C   0  0  0  0  0  0  0  0  0  0  0  0
   56.2240   22.8480   45.7990 C   0  0  0  0  0  0  0  0  0  0  0  0
   56.6320   27.7400   45.4380 C   0  0  0  0  0  0  0  0  0  0  0  0
   58.0560   33.8760   45.6850 C   0  0  0  0  0  0  0  0  0  0  0  0
   56.9920   34.5880   44.8890 C   0  0  0  0  0  0  0  0  0  0  0  0
   58.6010   34.5100   46.8150 C   0  0  0  0  0  0  0  0  0  0  0  0
   59.7912   34.1265   49.7052 H   0  0  0  0  0  0  0  0  0  0  0  0
   61.2701   34.4774   48.7479 H   0  0  0  0  0  0  0  0  0  0  0  0
   59.9028   35.6424   48.7479 H   0  0  0  0  0  0  0  0  0  0  0  0
   60.8082   32.1053   47.8270 H   0  0  0  0  0  0  0  0  0  0  0  0
   59.8544   30.9550   45.8399 H   0  0  0  0  0  0  0  0  0  0  0  0
   57.1346   32.4163   43.6927 H   0  0  0  0  0  0  0  0  0  0  0  0
   58.7626   31.6905   43.3958 H   0  0  0  0  0  0  0  0  0  0  0  0
   59.3680   29.5750   44.6970 H   0  0  0  0  0  0  0  0  0  0  0  0
   59.9272   27.8239   46.3527 H   0  0  0  0  0  0  0  0  0  0  0  0
   59.2764   25.6567   47.3975 H   0  0  0  0  0  0  0  0  0  0  0  0
   56.9354   24.8227   47.1988 H   0  0  0  0  0  0  0  0  0  0  0  0
   54.9975   24.4206   43.0169 H   0  0  0  0  0  0  0  0  0  0  0  0
   56.5415   22.8014   41.9169 H   0  0  0  0  0  0  0  0  0  0  0  0
   57.8835   21.2125   43.2984 H   0  0  0  0  0  0  0  0  0  0  0  0
   57.6861   21.2481   45.7864 H   0  0  0  0  0  0  0  0  0  0  0  0
   56.1476   22.8656   46.8962 H   0  0  0  0  0  0  0  0  0  0  0  0
   55.8856   28.3239   44.8795 H   0  0  0  0  0  0  0  0  0  0  0  0
   56.2781   35.0657   45.5761 H   0  0  0  0  0  0  0  0  0  0  0  0
   57.4603   35.3553   44.2550 H   0  0  0  0  0  0  0  0  0  0  0  0
   56.4613   33.8625   44.2550 H   0  0  0  0  0  0  0  0  0  0  0  0
   58.2578   35.5181   47.0904 H   0  0  0  0  0  0  0  0  0  0  0  0
  1  2  1  0
  2  3  2  0
  3  4  1  0
  4  5  2  0
  5  6  1  0
  6  7  1  0
  7  8  2  0
  7  9  1  0
  9 10  1  0
 10 11  2  0
 11 12  1  0
 12 13  2  0
 13 14  1  0
 14 15  1  0
 15 16  1  0
 16 17  2  0
 16 18  1  0
 18 19  2  0
 19 20  1  0
 20 21  2  0
 21 22  1  0
 22 23  2  0
 14 24  2  0
  5 25  1  0
 25 26  1  0
 25 27  2  0
 27  2  1  0
 24 10  1  0
 23 18  1  0
  1 28  1  0
  1 29  1  0
  1 30  1  0
  3 31  1  0
  4 32  1  0
  6 33  1  0
  6 34  1  0
  9 35  1  0
 11 36  1  0
 12 37  1  0
 13 38  1  0
 19 39  1  0
 20 40  1  0
 21 41  1  0
 22 42  1  0
 23 43  1  0
 24 44  1  0
 26 45  1  0
 26 46  1  0
 26 47  1  0
 27 48  1  0
M  CHG  1  15  -1
M  END
>  <UniqueID>  (16) 
16

>  <SMILES>  (16) 
Cc1ccc(CC(=O)Nc2cccc([N-]C(=O)c3ccccc3)c2)c(C)c1

>  <Energy>  (16) 
59.048722164835816

>  <Genealogy>  (16) 
Cc1ccc(CC(=O)Nc2cccc([N-]C(=O)c3ccccc3)c2)c(C)c1 (protonated)
Cc1ccc(CC(=O)Nc2cccc([N-]C(=O)c3ccccc3)c2)c(C)c1 (3D coordinates assigned)
Cc1ccc(CC(=O)Nc2cccc([N-]C(=O)c3ccccc3)c2)c(C)c1 (optimized conformer: 59.048722164835816 kcal/mol)

>  <smiles>  (16) 
Cc1ccc(CC(=O)Nc2cccc(NC(=O)c3ccccc3)c2)c(C)c1

>  <score_type>  (16) 
oracle

>  <origin>  (16) 
adg

>  <m_score__min__energy>  (16) 
-11.77

>  <m_primary>  (16) 
energy

$$$$
16:0
     RDKit          3D

 40 42  0  0  0  0  0  0  0  0999 V2000
   59.0148   34.0058   52.2268 H   0  0  0  0  0  0  0  0  0  0  0  0
   58.4700   33.0930   51.9440 C   0  0  0  0  0  0  0  0  0  0  0  0
   57.2120   32.8820   52.4120 N   0  0  0  0  0  0  0  0  0  0  0  0
   56.5000   31.7640   52.0900 C   0  0  0  0  0  0  0  0  0  0  0  0
   55.2960   31.5720   52.5480 N   0  0  0  0  0  0  0  0  0  0  0  0
   54.3380   30.6090   52.0790 C   0  0  0  0  0  0  0  0  0  0  0  0
   54.3090   29.4340   52.5380 O   0  0  0  0  0  0  0  0  0  0  0  0
   53.3230   31.0250   51.0630 C   0  0  0  0  0  0  0  0  0  0  0  0
   53.7688   31.7686   50.3860 H   0  0  0  0  0  0  0  0  0  0  0  0
   53.0035   30.1425   50.4893 H   0  0  0  0  0  0  0  0  0  0  0  0
   52.1340   31.6250   51.7440 C   0  0  0  0  0  0  0  0  0  0  0  0
   51.8520   31.4680   53.0490 N   0  0  0  0  0  0  0  0  0  0  0  0
   50.6770   32.1170   53.1930 C   0  0  0  0  0  0  0  0  0  0  0  0
   50.0780   32.2000   54.2980 O   0  0  0  0  0  0  0  0  0  0  0  0
   50.1890   32.6650   52.0600 N   0  0  0  0  0  0  0  0  0  0  0  0
   51.1220   32.3400   51.1510 C   0  0  0  0  0  0  0  0  0  0  0  0
   51.0450   32.6810   49.8070 O   0  0  0  0  0  0  0  0  0  0  0  0
   57.0740   30.8000   51.2520 C   0  0  0  0  0  0  0  0  0  0  0  0
   56.5113   29.8924   50.9880 H   0  0  0  0  0  0  0  0  0  0  0  0
   58.3680   30.9960   50.7510 C   0  0  0  0  0  0  0  0  0  0  0  0
   58.9990   29.9570   49.8630 C   0  0  0  0  0  0  0  0  0  0  0  0
   59.7339   29.3818   50.4453 H   0  0  0  0  0  0  0  0  0  0  0  0
   58.2112   29.2912   49.4809 H   0  0  0  0  0  0  0  0  0  0  0  0
   59.6510   30.5690   48.7660 O   0  0  0  0  0  0  0  0  0  0  0  0
   58.8970   30.4190   47.5770 C   0  0  0  0  0  0  0  0  0  0  0  0
   59.4665   29.8064   46.8625 H   0  0  0  0  0  0  0  0  0  0  0  0
   57.9427   29.9296   47.8214 H   0  0  0  0  0  0  0  0  0  0  0  0
   58.6100   31.7620   46.9590 C   0  0  0  0  0  0  0  0  0  0  0  0
   58.8680   32.9460   47.6690 C   0  0  0  0  0  0  0  0  0  0  0  0
   59.2968   32.8957   48.6807 H   0  0  0  0  0  0  0  0  0  0  0  0
   58.5820   34.1880   47.0950 C   0  0  0  0  0  0  0  0  0  0  0  0
   58.7881   35.1125   47.6543 H   0  0  0  0  0  0  0  0  0  0  0  0
   58.0340   34.2560   45.8100 C   0  0  0  0  0  0  0  0  0  0  0  0
   57.8101   35.2338   45.3585 H   0  0  0  0  0  0  0  0  0  0  0  0
   57.7710   33.0820   45.1000 C   0  0  0  0  0  0  0  0  0  0  0  0
   57.3402   33.1367   44.0893 H   0  0  0  0  0  0  0  0  0  0  0  0
   58.0540   31.8380   45.6710 C   0  0  0  0  0  0  0  0  0  0  0  0
   57.8408   30.9159   45.1104 H   0  0  0  0  0  0  0  0  0  0  0  0
   59.0720   32.1550   51.1060 C   0  0  0  0  0  0  0  0  0  0  0  0
   60.0908   32.3232   50.7267 H   0  0  0  0  0  0  0  0  0  0  0  0
  1  2  1  0
  2  3  1  0
  3  4  1  0
  4  5  2  0
  5  6  1  0
  6  7  2  0
  6  8  1  0
  8  9  1  0
  8 10  1  0
  8 11  1  0
 11 12  1  0
 12 13  1  0
 13 14  2  0
 13 15  1  0
 15 16  1  0
 16 17  1  0
  4 18  1  0
 18 19  1  0
 18 20  2  0
 20 21  1  0
 21 22  1  0
 21 23  1  0
 21 24  1  0
 24 25  1  0
 25 26  1  0
 25 27  1  0
 25 28  1  0
 28 29  2  0
 29 30  1  0
 29 31  1  0
 31 32  1  0
 31 33  2  0
 33 34  1  0
 33 35  1  0
 35 36  1  0
 35 37  2  0
 37 38  1  0
 20 39  1  0
 39 40  1  0
 39  2  2  0
 16 11  2  0
 37 28  1  0
M  CHG  4   3  -1  12  -1  15  -1  17  -1
M  END
>  <UniqueID>  (17) 
17

>  <SMILES>  (17) 
O=C(Cc1[n-]c(=O)[n-]c1[O-])/N=c1/cc(COCc2ccccc2)cc[n-]1

>  <Energy>  (17) 
74.90807908239697

>  <Genealogy>  (17) 
O=C(Cc1[n-]c(=O)[n-]c1[O-])N=c1cc(COCc2ccccc2)cc[n-]1 (protonated)
O=C(Cc1[n-]c(=O)[n-]c1[O-])/N=c1/cc(COCc2ccccc2)cc[n-]1 (cis-trans isomerization)
O=C(Cc1[n-]c(=O)[n-]c1[O-])/N=c1/cc(COCc2ccccc2)cc[n-]1 (3D coordinates assigned)
O=C(Cc1[n-]c(=O)[n-]c1[O-])/N=c1/cc(COCc2ccccc2)cc[n-]1 (optimized conformer: 74.90807908239697 kcal/mol)

>  <smiles>  (17) 
O=C(Cc1[nH]c(=O)[nH]c1O)N=c1cc(COCc2ccccc2)cc[nH]1

>  <score_type>  (17) 
oracle

>  <origin>  (17) 
adg

>  <m_score__min__energy>  (17) 
-18.550000000000001

>  <m_primary>  (17) 
energy

$$$$
17:0
     RDKit          3D

 42 44  0  0  0  0  0  0  0  0999 V2000
   61.2933   29.5784   46.5179 H   0  0  0  0  0  0  0  0  0  0  0  0
   60.3180   29.5500   46.0100 C   0  0  0  0  0  0  0  0  0  0  0  0
   59.4710   30.6070   46.1100 N   0  0  0  0  0  0  0  0  0  0  0  0
   58.2590   30.6320   45.4950 C   0  0  0  0  0  0  0  0  0  0  0  0
   57.5080   31.6860   45.6590 N   0  0  0  0  0  0  0  0  0  0  0  0
   57.7670   33.0430   45.2630 C   0  0  0  0  0  0  0  0  0  0  0  0
   57.4060   33.4690   44.1340 O   0  0  0  0  0  0  0  0  0  0  0  0
   58.6150   33.9080   46.1320 C   0  0  0  0  0  0  0  0  0  0  0  0
   58.4004   33.6891   47.1884 H   0  0  0  0  0  0  0  0  0  0  0  0
   59.6765   33.7078   45.9244 H   0  0  0  0  0  0  0  0  0  0  0  0
   58.3938   34.9653   45.9244 H   0  0  0  0  0  0  0  0  0  0  0  0
   57.8510   29.5070   44.7450 C   0  0  0  0  0  0  0  0  0  0  0  0
   56.8670   29.5000   44.2533 H   0  0  0  0  0  0  0  0  0  0  0  0
   58.7040   28.3970   44.6280 C   0  0  0  0  0  0  0  0  0  0  0  0
   58.2580   27.2130   43.8600 C   0  0  0  0  0  0  0  0  0  0  0  0
   57.9330   26.0670   44.4080 O   0  0  0  0  0  0  0  0  0  0  0  0
   57.6380   25.2750   43.4040 C   0  0  0  0  0  0  0  0  0  0  0  0
   57.1650   23.5590   43.5890 S   0  0  0  0  0  0  0  0  0  0  0  0
   58.3720   23.2150   44.9190 C   0  0  0  0  0  0  0  0  0  0  0  0
   59.0609   22.4256   44.5839 H   0  0  0  0  0  0  0  0  0  0  0  0
   58.9235   24.1410   45.1389 H   0  0  0  0  0  0  0  0  0  0  0  0
   57.6820   22.7640   46.1680 C   0  0  0  0  0  0  0  0  0  0  0  0
   57.8040   21.5690   46.5490 O   0  0  0  0  0  0  0  0  0  0  0  0
   56.9730   23.7170   46.9660 N   0  0  0  0  0  0  0  0  0  0  0  0
   56.1180   24.7500   46.4620 C   0  0  0  0  0  0  0  0  0  0  0  0
   54.8730   24.5620   45.9120 C   0  0  0  0  0  0  0  0  0  0  0  0
   54.1910   23.2530   45.6890 C   0  0  0  0  0  0  0  0  0  0  0  0
   53.9519   22.7941   46.6597 H   0  0  0  0  0  0  0  0  0  0  0  0
   53.2628   23.4152   45.1215 H   0  0  0  0  0  0  0  0  0  0  0  0
   54.8558   22.5852   45.1215 H   0  0  0  0  0  0  0  0  0  0  0  0
   54.3240   25.7610   45.6350 N   0  0  0  0  0  0  0  0  0  0  0  0
   55.1770   26.7080   46.0050 N   0  0  0  0  0  0  0  0  0  0  0  0
   56.2750   26.1230   46.5260 C   0  0  0  0  0  0  0  0  0  0  0  0
   57.4090   26.8940   47.1200 C   0  0  0  0  0  0  0  0  0  0  0  0
   57.3463   26.8514   48.2174 H   0  0  0  0  0  0  0  0  0  0  0  0
   58.3627   26.4563   46.7899 H   0  0  0  0  0  0  0  0  0  0  0  0
   57.3527   27.9418   46.7899 H   0  0  0  0  0  0  0  0  0  0  0  0
   57.7620   25.9060   42.2200 N   0  0  0  0  0  0  0  0  0  0  0  0
   58.1520   27.1330   42.5190 N   0  0  0  0  0  0  0  0  0  0  0  0
   58.3530   27.8730   41.8100 H   0  0  0  0  0  0  0  0  0  0  0  0
   59.9540   28.4290   45.2650 C   0  0  0  0  0  0  0  0  0  0  0  0
   60.6421   27.5753   45.1772 H   0  0  0  0  0  0  0  0  0  0  0  0
  1  2  1  0
  2  3  1  0
  3  4  1  0
  4  5  2  0
  5  6  1  0
  6  7  2  0
  6  8  1  0
  8  9  1  0
  8 10  1  0
  8 11  1  0
  4 12  1  0
 12 13  1  0
 12 14  2  0
 14 15  1  0
 15 16  1  0
 16 17  1  0
 17 18  1  0
 18 19  1  0
 19 20  1  0
 19 21  1  0
 19 22  1  0
 22 23  2  0
 22 24  1  0
 24 25  1  0
 25 26  1  0
 26 27  1  0
 27 28  1  0
 27 29  1  0
 27 30  1  0
 26 31  2  0
 31 32  1  0
 32 33  1  0
 33 34  1  0
 34 35  1  0
 34 36  1  0
 34 37  1  0
 17 38  2  0
 38 39  1  0
 39 40  1  0
 14 41  1  0
 41 42  1  0
 41  2  2  0
 39 15  2  0
 33 25  2  0
M  CHG  4   3  -1  24  -1  32  -1  39   1
M  END
>  <UniqueID>  (18) 
18

>  <SMILES>  (18) 
CC(=O)/N=c1\cc(-c2[nH+]nc(SCC(=O)[N-]c3c(C)n[n-]c3C)o2)cc[n-]1

>  <Energy>  (18) 
113.15616223988324

>  <Genealogy>  (18) 
CC(=O)N=c1cc(-c2[nH+]nc(SCC(=O)[N-]c3c(C)n[n-]c3C)o2)cc[n-]1 (protonated)
CC(=O)/N=c1\cc(-c2[nH+]nc(SCC(=O)[N-]c3c(C)n[n-]c3C)o2)cc[n-]1 (cis-trans isomerization)
CC(=O)/N=c1\cc(-c2[nH+]nc(SCC(=O)[N-]c3c(C)n[n-]c3C)o2)cc[n-]1 (3D coordinates assigned)
CC(=O)/N=c1\cc(-c2[nH+]nc(SCC(=O)[N-]c3c(C)n[n-]c3C)o2)cc[n-]1 (optimized conformer: 113.15616223988324 kcal/mol)

>  <smiles>  (18) 
CC(=O)N=c1cc(-c2nnc(SCC(=O)Nc3c(C)n[nH]c3C)o2)cc[nH]1

>  <score_type>  (18) 
oracle

>  <origin>  (18) 
adg

>  <m_score__min__energy>  (18) 
-11.68

>  <m_primary>  (18) 
energy

$$$$
18:0
     RDKit          3D

 42 44  0  0  0  0  0  0  0  0999 V2000
   59.9950   25.8570   47.1080 O   0  0  0  0  0  0  0  0  0  0  0  0
   59.2330   26.7750   46.7040 C   0  0  0  0  0  0  0  0  0  0  0  0
   58.1710   26.4630   45.6940 C   0  0  0  0  0  0  0  0  0  0  0  0
   57.3140   27.6680   45.4660 C   0  0  0  0  0  0  0  0  0  0  0  0
   57.7790   28.8490   45.0210 N   0  0  0  0  0  0  0  0  0  0  0  0
   56.6620   29.6000   44.9080 C   0  0  0  0  0  0  0  0  0  0  0  0
   56.6840   30.7950   44.5150 O   0  0  0  0  0  0  0  0  0  0  0  0
   55.5180   28.9660   45.2410 N   0  0  0  0  0  0  0  0  0  0  0  0
   55.9480   27.7410   45.5860 C   0  0  0  0  0  0  0  0  0  0  0  0
   55.1090   26.7120   45.9970 O   0  0  0  0  0  0  0  0  0  0  0  0
   59.3480   28.0990   47.2370 N   0  0  0  0  0  0  0  0  0  0  0  0
   60.3530   28.4460   48.2420 C   0  0  0  0  0  0  0  0  0  0  0  0
   59.8610   29.5840   49.0980 C   0  0  0  0  0  0  0  0  0  0  0  0
   60.1470   29.6030   50.4740 C   0  0  0  0  0  0  0  0  0  0  0  0
   59.6400   30.6180   51.2860 C   0  0  0  0  0  0  0  0  0  0  0  0
   58.8360   31.6160   50.7360 C   0  0  0  0  0  0  0  0  0  0  0  0
   58.5310   31.6030   49.3730 C   0  0  0  0  0  0  0  0  0  0  0  0
   59.0370   30.5840   48.5420 C   0  0  0  0  0  0  0  0  0  0  0  0
   58.7430   30.5290   47.1680 O   0  0  0  0  0  0  0  0  0  0  0  0
   59.5820   31.0220   46.1260 C   0  0  0  0  0  0  0  0  0  0  0  0
   59.5860   32.5250   46.1290 C   0  0  0  0  0  0  0  0  0  0  0  0
   58.7140   33.2290   45.2820 C   0  0  0  0  0  0  0  0  0  0  0  0
   58.6990   34.6270   45.2900 C   0  0  0  0  0  0  0  0  0  0  0  0
   59.5520   35.3300   46.1430 C   0  0  0  0  0  0  0  0  0  0  0  0
   60.4230   34.6370   46.9890 C   0  0  0  0  0  0  0  0  0  0  0  0
   60.4440   33.2390   46.9810 C   0  0  0  0  0  0  0  0  0  0  0  0
   58.6448   26.1680   44.7461 H   0  0  0  0  0  0  0  0  0  0  0  0
   57.5453   25.6399   46.0695 H   0  0  0  0  0  0  0  0  0  0  0  0
   58.6750   28.8290   46.9100 H   0  0  0  0  0  0  0  0  0  0  0  0
   60.5478   27.5703   48.8785 H   0  0  0  0  0  0  0  0  0  0  0  0
   61.2784   28.7535   47.7331 H   0  0  0  0  0  0  0  0  0  0  0  0
   60.7741   28.8132   50.9132 H   0  0  0  0  0  0  0  0  0  0  0  0
   59.8746   30.6311   52.3606 H   0  0  0  0  0  0  0  0  0  0  0  0
   58.4404   32.4167   51.3782 H   0  0  0  0  0  0  0  0  0  0  0  0
   57.8933   32.3914   48.9468 H   0  0  0  0  0  0  0  0  0  0  0  0
   60.6075   30.6558   46.2815 H   0  0  0  0  0  0  0  0  0  0  0  0
   59.1985   30.6664   45.1583 H   0  0  0  0  0  0  0  0  0  0  0  0
   58.0401   32.6780   44.6096 H   0  0  0  0  0  0  0  0  0  0  0  0
   58.0149   35.1733   44.6240 H   0  0  0  0  0  0  0  0  0  0  0  0
   59.5387   36.4299   46.1494 H   0  0  0  0  0  0  0  0  0  0  0  0
   61.0928   35.1924   47.6619 H   0  0  0  0  0  0  0  0  0  0  0  0
   61.1345   32.6970   47.6439 H   0  0  0  0  0  0  0  0  0  0  0  0
  1  2  2  0
  2  3  1  0
  3  4  1  0
  4  5  1  0
  5  6  1  0
  6  7  2  0
  6  8  1  0
  8  9  1  0
  9 10  1  0
  2 11  1  0
 11 12  1  0
 12 13  1  0
 13 14  2  0
 14 15  1  0
 15 16  2  0
 16 17  1  0
 17 18  2  0
 18 19  1  0
 19 20  1  0
 20 21  1  0
 21 22  2  0
 22 23  1  0
 23 24  2  0
 24 25  1  0
 25 26  2  0
  9  4  2  0
 18 13  1  0
 26 21  1  0
  3 27  1  0
  3 28  1  0
 11 29  1  0
 12 30  1  0
 12 31  1  0
 14 32  1  0
 15 33  1  0
 16 34  1  0
 17 35  1  0
 20 36  1  0
 20 37  1  0
 22 38  1  0
 23 39  1  0
 24 40  1  0
 25 41  1  0
 26 42  1  0
M  CHG  3   5  -1   8  -1  10  -1
M  END
>  <UniqueID>  (19) 
19

>  <SMILES>  (19) 
O=C(Cc1[n-]c(=O)[n-]c1[O-])NCc1ccccc1OCc1ccccc1

>  <Energy>  (19) 
68.05460852043637

>  <Genealogy>  (19) 
O=C(Cc1[n-]c(=O)[n-]c1[O-])NCc1ccccc1OCc1ccccc1 (protonated)
O=C(Cc1[n-]c(=O)[n-]c1[O-])NCc1ccccc1OCc1ccccc1 (3D coordinates assigned)
O=C(Cc1[n-]c(=O)[n-]c1[O-])NCc1ccccc1OCc1ccccc1 (optimized conformer: 68.05460852043637 kcal/mol)

>  <smiles>  (19) 
O=C(Cc1[nH]c(=O)[nH]c1O)NCc1ccccc1OCc1ccccc1

>  <score_type>  (19) 
oracle

>  <origin>  (19) 
adg

>  <m_score__min__energy>  (19) 
-17.260000000000002

>  <m_primary>  (19) 
energy

$$$$
19:0
     RDKit          3D

 31 32  0  0  0  0  0  0  0  0999 V2000
   60.2820   27.1020   46.1950 C   0  0  0  0  0  0  0  0  0  0  0  0
   58.9520   27.6160   45.8260 N   0  0  0  0  0  0  0  0  0  0  0  0
   57.8350   26.8540   46.0530 C   0  0  0  0  0  0  0  0  0  0  0  0
   57.9290   25.7020   46.5570 O   0  0  0  0  0  0  0  0  0  0  0  0
   56.6070   27.3310   45.7380 N   0  0  0  0  0  0  0  0  0  0  0  0
   56.4340   28.5660   45.2110 C   0  0  0  0  0  0  0  0  0  0  0  0
   55.1470   28.9770   44.8850 O   0  0  0  0  0  0  0  0  0  0  0  0
   57.5450   29.3990   44.9920 C   0  0  0  0  0  0  0  0  0  0  0  0
   57.3830   30.7690   44.4330 C   0  0  0  0  0  0  0  0  0  0  0  0
   57.4580   30.9510   43.1870 O   0  0  0  0  0  0  0  0  0  0  0  0
   57.0980   31.8750   45.3000 N   0  0  0  0  0  0  0  0  0  0  0  0
   57.9790   32.9610   45.6210 C   0  0  0  0  0  0  0  0  0  0  0  0
   58.3180   33.8700   44.6110 C   0  0  0  0  0  0  0  0  0  0  0  0
   59.1660   34.9450   44.8830 C   0  0  0  0  0  0  0  0  0  0  0  0
   59.6650   35.1360   46.1740 C   0  0  0  0  0  0  0  0  0  0  0  0
   59.2950   34.2640   47.2120 C   0  0  0  0  0  0  0  0  0  0  0  0
   59.8010   34.4360   48.5440 N   0  0  0  0  0  0  0  0  0  0  0  0
   61.0330   33.8710   49.0150 C   0  0  0  0  0  0  0  0  0  0  0  0
   61.3300   33.8100   50.6220 S   0  0  0  0  0  0  0  0  0  0  0  0
   62.3950   33.5210   47.8800 S   0  0  0  0  0  0  0  0  0  0  0  0
   58.4630   33.1700   46.9260 C   0  0  0  0  0  0  0  0  0  0  0  0
   58.8190   28.8880   45.3270 C   0  0  0  0  0  0  0  0  0  0  0  0
   59.8410   29.6160   45.1840 O   0  0  0  0  0  0  0  0  0  0  0  0
   60.3707   27.0677   47.2909 H   0  0  0  0  0  0  0  0  0  0  0  0
   60.4105   26.0894   45.7849 H   0  0  0  0  0  0  0  0  0  0  0  0
   61.0581   27.7650   45.7849 H   0  0  0  0  0  0  0  0  0  0  0  0
   57.9135   33.7360   43.5969 H   0  0  0  0  0  0  0  0  0  0  0  0
   59.4420   35.6433   44.0791 H   0  0  0  0  0  0  0  0  0  0  0  0
   60.3500   35.9720   46.3786 H   0  0  0  0  0  0  0  0  0  0  0  0
   59.2590   35.0480   49.1980 H   0  0  0  0  0  0  0  0  0  0  0  0
   58.1870   32.4702   47.7286 H   0  0  0  0  0  0  0  0  0  0  0  0
  1  2  1  0
  2  3  1  0
  3  4  2  0
  3  5  1  0
  5  6  1  0
  6  7  1  0
  6  8  2  0
  8  9  1  0
  9 10  2  0
  9 11  1  0
 11 12  1  0
 12 13  2  0
 13 14  1  0
 14 15  2  0
 15 16  1  0
 16 17  1  0
 17 18  1  0
 18 19  2  0
 18 20  1  0
 16 21  2  0
  8 22  1  0
 22 23  2  0
 22  2  1  0
 21 12  1  0
  1 24  1  0
  1 25  1  0
  1 26  1  0
 13 27  1  0
 14 28  1  0
 15 29  1  0
 17 30  1  0
 21 31  1  0
M  CHG  4   5  -1   7  -1  11  -1  20  -1
M  END
>  <UniqueID>  (20) 
20

>  <SMILES>  (20) 
Cn1c(=O)[n-]c([O-])c(C(=O)[N-]c2cccc(NC(=S)[S-])c2)c1=O

>  <Energy>  (20) 
48.420187787464975

>  <Genealogy>  (20) 
Cn1c(=O)[n-]c([O-])c(C(=O)[N-]c2cccc(NC(=S)[S-])c2)c1=O (protonated)
Cn1c(=O)[n-]c([O-])c(C(=O)[N-]c2cccc(NC(=S)[S-])c2)c1=O (3D coordinates assigned)
Cn1c(=O)[n-]c([O-])c(C(=O)[N-]c2cccc(NC(=S)[S-])c2)c1=O (optimized conformer: 48.420187787464975 kcal/mol)

>  <smiles>  (20) 
Cn1c(=O)[nH]c(O)c(C(=O)Nc2cccc(NC(=S)S)c2)c1=O

>  <score_type>  (20) 
oracle

>  <origin>  (20) 
adg

>  <m_score__min__energy>  (20) 
-14.77

>  <m_primary>  (20) 
energy

$$$$
20:0
     RDKit          3D

 37 39  0  0  0  0  0  0  0  0999 V2000
   56.5540   24.5630   47.3510 C   0  0  0  0  0  0  0  0  0  0  0  0
   55.6640   25.2360   45.9940 S   0  0  0  0  0  0  0  0  0  0  0  0
   54.2260   24.7780   46.0000 O   0  0  0  0  0  0  0  0  0  0  0  0
   56.2620   24.7480   44.7230 O   0  0  0  0  0  0  0  0  0  0  0  0
   55.6200   26.9560   45.9900 N   0  0  0  0  0  0  0  0  0  0  0  0
   56.7050   27.7320   45.4950 C   0  0  0  0  0  0  0  0  0  0  0  0
   57.9860   27.1960   45.4370 C   0  0  0  0  0  0  0  0  0  0  0  0
   59.0480   27.9520   44.9540 C   0  0  0  0  0  0  0  0  0  0  0  0
   58.8530   29.2520   44.5180 C   0  0  0  0  0  0  0  0  0  0  0  0
   57.5910   29.7940   44.5680 C   0  0  0  0  0  0  0  0  0  0  0  0
   57.3810   31.1250   44.1270 N   0  0  0  0  0  0  0  0  0  0  0  0
   57.8640   32.2650   44.8200 C   0  0  0  0  0  0  0  0  0  0  0  0
   58.0930   33.4760   44.2020 C   0  0  0  0  0  0  0  0  0  0  0  0
   58.5610   34.5650   44.9100 C   0  0  0  0  0  0  0  0  0  0  0  0
   58.8130   34.4710   46.2620 C   0  0  0  0  0  0  0  0  0  0  0  0
   59.2610   35.3430   47.1860 N   0  0  0  0  0  0  0  0  0  0  0  0
   59.3280   34.7440   48.3640 N   0  0  0  0  0  0  0  0  0  0  0  0
   58.9230   33.4520   48.2510 C   0  0  0  0  0  0  0  0  0  0  0  0
   58.8490   32.5740   49.1440 O   0  0  0  0  0  0  0  0  0  0  0  0
   58.5920   33.2720   46.9070 C   0  0  0  0  0  0  0  0  0  0  0  0
   58.1230   32.1970   46.1720 C   0  0  0  0  0  0  0  0  0  0  0  0
   56.5360   29.0370   45.0520 C   0  0  0  0  0  0  0  0  0  0  0  0
   55.2330   29.5390   45.1260 O   0  0  0  0  0  0  0  0  0  0  0  0
   56.1008   24.9057   48.2929 H   0  0  0  0  0  0  0  0  0  0  0  0
   56.5175   23.4646   47.3049 H   0  0  0  0  0  0  0  0  0  0  0  0
   57.6009   24.8973   47.3049 H   0  0  0  0  0  0  0  0  0  0  0  0
   54.7920   27.4670   46.3540 H   0  0  0  0  0  0  0  0  0  0  0  0
   58.1611   26.1644   45.7763 H   0  0  0  0  0  0  0  0  0  0  0  0
   60.0556   27.5122   44.9177 H   0  0  0  0  0  0  0  0  0  0  0  0
   59.6981   29.8437   44.1362 H   0  0  0  0  0  0  0  0  0  0  0  0
   56.8430   31.2520   43.2490 H   0  0  0  0  0  0  0  0  0  0  0  0
   57.8991   33.5765   43.1239 H   0  0  0  0  0  0  0  0  0  0  0  0
   58.7347   35.5183   44.3894 H   0  0  0  0  0  0  0  0  0  0  0  0
   59.5190   36.3440   47.0030 H   0  0  0  0  0  0  0  0  0  0  0  0
   59.6350   35.1440   49.2770 H   0  0  0  0  0  0  0  0  0  0  0  0
   57.9487   31.2432   46.6915 H   0  0  0  0  0  0  0  0  0  0  0  0
   55.1260   30.5320   45.2580 H   0  0  0  0  0  0  0  0  0  0  0  0
  1  2  1  0
  2  3  2  0
  2  4  2  0
  2  5  1  0
  5  6  1  0
  6  7  2  0
  7  8  1  0
  8  9  2  0
  9 10  1  0
 10 11  1  0
 11 12  1  0
 12 13  2  0
 13 14  1  0
 14 15  2  0
 15 16  1  0
 16 17  1  0
 17 18  1  0
 18 19  2  0
 18 20  1  0
 20 21  2  0
 10 22  2  0
 22 23  1  0
 22  6  1  0
 21 12  1  0
 20 15  1  0
  1 24  1  0
  1 25  1  0
  1 26  1  0
  5 27  1  0
  7 28  1  0
  8 29  1  0
  9 30  1  0
 11 31  1  0
 13 32  1  0
 14 33  1  0
 16 34  1  0
 17 35  1  0
 21 36  1  0
 23 37  1  0
M  END
>  <smiles>  (21) 
CS(=O)(=O)Nc1cccc(Nc2ccc3[nH][nH]c(=O)c3c2)c1O

>  <score_type>  (21) 
oracle

>  <origin>  (21) 
adg

>  <m_score__min__energy>  (21) 
-9.7899999999999991

>  <m_primary>  (21) 
energy

$$$$
21:0
     RDKit          3D

 39 41  0  0  0  0  0  0  0  0999 V2000
   55.8490   30.4680   52.0940 C   0  0  0  0  0  0  0  0  0  0  0  0
   57.0600   30.5260   51.3470 O   0  0  0  0  0  0  0  0  0  0  0  0
   57.9150   31.6360   51.3110 C   0  0  0  0  0  0  0  0  0  0  0  0
   57.8400   32.6780   52.2530 C   0  0  0  0  0  0  0  0  0  0  0  0
   58.7150   33.7620   52.1710 C   0  0  0  0  0  0  0  0  0  0  0  0
   59.6740   33.8200   51.1570 C   0  0  0  0  0  0  0  0  0  0  0  0
   59.7700   32.7820   50.2120 C   0  0  0  0  0  0  0  0  0  0  0  0
   60.7510   32.8010   49.1600 N   0  0  0  0  0  0  0  0  0  0  0  0
   60.5070   33.5740   47.6250 S   0  0  0  0  0  0  0  0  0  0  0  0
   60.0310   34.9820   47.8490 O   0  0  0  0  0  0  0  0  0  0  0  0
   61.8120   33.6110   46.8810 O   0  0  0  0  0  0  0  0  0  0  0  0
   59.2860   32.7070   46.6980 C   0  0  0  0  0  0  0  0  0  0  0  0
   58.5430   33.3710   45.7140 C   0  0  0  0  0  0  0  0  0  0  0  0
   57.5880   32.6780   44.9660 C   0  0  0  0  0  0  0  0  0  0  0  0
   57.3680   31.3160   45.1960 C   0  0  0  0  0  0  0  0  0  0  0  0
   56.4420   30.6500   44.4620 N   0  0  0  0  0  0  0  0  0  0  0  0
   56.1910   29.3290   44.6450 C   0  0  0  0  0  0  0  0  0  0  0  0
   56.8920   28.5910   45.6170 C   0  0  0  0  0  0  0  0  0  0  0  0
   56.5910   27.1410   45.7880 C   0  0  0  0  0  0  0  0  0  0  0  0
   55.2580   26.6800   45.9950 N   0  0  0  0  0  0  0  0  0  0  0  0
   57.5260   26.2950   45.7520 O   0  0  0  0  0  0  0  0  0  0  0  0
   57.8630   29.2630   46.3970 C   0  0  0  0  0  0  0  0  0  0  0  0
   58.5150   28.6400   47.2800 O   0  0  0  0  0  0  0  0  0  0  0  0
   58.1060   30.6350   46.1890 C   0  0  0  0  0  0  0  0  0  0  0  0
   59.0620   31.3450   46.9400 C   0  0  0  0  0  0  0  0  0  0  0  0
   58.8780   31.7000   50.2960 C   0  0  0  0  0  0  0  0  0  0  0  0
   56.0806   30.4791   53.1693 H   0  0  0  0  0  0  0  0  0  0  0  0
   55.2225   31.3372   51.8449 H   0  0  0  0  0  0  0  0  0  0  0  0
   55.3085   29.5429   51.8449 H   0  0  0  0  0  0  0  0  0  0  0  0
   57.0897   32.6383   53.0564 H   0  0  0  0  0  0  0  0  0  0  0  0
   58.6492   34.5752   52.9088 H   0  0  0  0  0  0  0  0  0  0  0  0
   60.3567   34.6804   51.0971 H   0  0  0  0  0  0  0  0  0  0  0  0
   61.7030   32.4160   49.3470 H   0  0  0  0  0  0  0  0  0  0  0  0
   58.7120   34.4421   45.5294 H   0  0  0  0  0  0  0  0  0  0  0  0
   57.0076   33.2048   44.1942 H   0  0  0  0  0  0  0  0  0  0  0  0
   55.4309   28.8293   44.0265 H   0  0  0  0  0  0  0  0  0  0  0  0
   54.6680   27.0690   46.7650 H   0  0  0  0  0  0  0  0  0  0  0  0
   59.6369   30.8272   47.7219 H   0  0  0  0  0  0  0  0  0  0  0  0
   58.9367   30.8907   49.5533 H   0  0  0  0  0  0  0  0  0  0  0  0
  1  2  1  0
  2  3  1  0
  3  4  2  0
  4  5  1  0
  5  6  2  0
  6  7  1  0
  7  8  1  0
  8  9  1  0
  9 10  2  0
  9 11  2  0
  9 12  1  0
 12 13  2  0
 13 14  1  0
 14 15  2  0
 15 16  1  0
 16 17  1  0
 17 18  2  0
 18 19  1  0
 19 20  1  0
 19 21  2  0
 18 22  1  0
 22 23  2  0
 22 24  1  0
 24 25  2  0
  7 26  2  0
 26  3  1  0
 25 12  1  0
 24 15  1  0
  1 27  1  0
  1 28  1  0
  1 29  1  0
  4 30  1  0
  5 31  1  0
  6 32  1  0
  8 33  1  0
 13 34  1  0
 14 35  1  0
 17 36  1  0
 20 37  1  0
 25 38  1  0
 26 39  1  0
M  CHG  2  16  -1  20  -1
M  END
>  <UniqueID>  (22) 
21

>  <SMILES>  (22) 
COc1cccc(NS(=O)(=O)c2ccc3[n-]cc(C([NH-])=O)c(=O)c3c2)c1

>  <Energy>  (22) 
50.69948986052319

>  <Genealogy>  (22) 
COc1cccc(NS(=O)(=O)c2ccc3[n-]cc(C([NH-])=O)c(=O)c3c2)c1 (protonated)
COc1cccc(NS(=O)(=O)c2ccc3[n-]cc(C([NH-])=O)c(=O)c3c2)c1 (3D coordinates assigned)
COc1cccc(NS(=O)(=O)c2ccc3[n-]cc(C([NH-])=O)c(=O)c3c2)c1 (optimized conformer: 50.69948986052319 kcal/mol)

>  <smiles>  (22) 
COc1cccc(NS(=O)(=O)c2ccc3[nH]cc(C(N)=O)c(=O)c3c2)c1

>  <score_type>  (22) 
oracle

>  <origin>  (22) 
adg

>  <m_score__min__energy>  (22) 
-12.390000000000001

>  <m_primary>  (22) 
energy

$$$$
22:0
     RDKit          3D

 38 40  0  0  0  0  0  0  0  0999 V2000
   55.7690   29.1390   45.2210 O   0  0  0  0  0  0  0  0  0  0  0  0
   55.6140   29.6500   44.0810 C   0  0  0  0  0  0  0  0  0  0  0  0
   54.4380   29.4220   43.3780 O   0  0  0  0  0  0  0  0  0  0  0  0
   56.7100   30.4590   43.4640 C   0  0  0  0  0  0  0  0  0  0  0  0
   57.4090   31.2780   44.5180 C   0  0  0  0  0  0  0  0  0  0  0  0
   56.7800   32.4230   45.0390 C   0  0  0  0  0  0  0  0  0  0  0  0
   57.4000   33.1800   46.0340 C   0  0  0  0  0  0  0  0  0  0  0  0
   58.6440   32.7940   46.5340 C   0  0  0  0  0  0  0  0  0  0  0  0
   59.2740   31.6500   46.0370 C   0  0  0  0  0  0  0  0  0  0  0  0
   58.6690   30.8890   45.0190 C   0  0  0  0  0  0  0  0  0  0  0  0
   59.2730   29.7200   44.5300 O   0  0  0  0  0  0  0  0  0  0  0  0
   58.8240   28.4120   44.7630 C   0  0  0  0  0  0  0  0  0  0  0  0
   58.4490   27.5550   43.7130 C   0  0  0  0  0  0  0  0  0  0  0  0
   57.9880   26.2640   43.9870 C   0  0  0  0  0  0  0  0  0  0  0  0
   57.8890   25.8130   45.3130 C   0  0  0  0  0  0  0  0  0  0  0  0
   57.3640   24.4360   45.6160 C   0  0  0  0  0  0  0  0  0  0  0  0
   55.8770   24.3890   45.4260 C   0  0  0  0  0  0  0  0  0  0  0  0
   55.0100   22.9930   45.0460 S   0  0  0  0  0  0  0  0  0  0  0  0
   53.5310   23.7840   45.1270 C   0  0  0  0  0  0  0  0  0  0  0  0
   52.4200   23.2320   44.9180 O   0  0  0  0  0  0  0  0  0  0  0  0
   53.6570   25.0880   45.4450 N   0  0  0  0  0  0  0  0  0  0  0  0
   54.9610   25.4300   45.6190 C   0  0  0  0  0  0  0  0  0  0  0  0
   55.3180   26.7320   45.9630 O   0  0  0  0  0  0  0  0  0  0  0  0
   58.2410   26.6790   46.3610 C   0  0  0  0  0  0  0  0  0  0  0  0
   58.7000   27.9700   46.0850 C   0  0  0  0  0  0  0  0  0  0  0  0
   57.4361   29.7837   42.9878 H   0  0  0  0  0  0  0  0  0  0  0  0
   56.2772   31.1355   42.7124 H   0  0  0  0  0  0  0  0  0  0  0  0
   55.7924   32.7239   44.6595 H   0  0  0  0  0  0  0  0  0  0  0  0
   56.9071   34.0825   46.4247 H   0  0  0  0  0  0  0  0  0  0  0  0
   59.1294   33.3908   47.3203 H   0  0  0  0  0  0  0  0  0  0  0  0
   60.2486   31.3423   46.4437 H   0  0  0  0  0  0  0  0  0  0  0  0
   58.5187   27.9020   42.6715 H   0  0  0  0  0  0  0  0  0  0  0  0
   57.7014   25.5982   43.1596 H   0  0  0  0  0  0  0  0  0  0  0  0
   57.8388   23.7102   44.9394 H   0  0  0  0  0  0  0  0  0  0  0  0
   57.5978   24.1875   46.6618 H   0  0  0  0  0  0  0  0  0  0  0  0
   55.1420   27.5190   45.3520 H   0  0  0  0  0  0  0  0  0  0  0  0
   58.1551   26.3398   47.4038 H   0  0  0  0  0  0  0  0  0  0  0  0
   58.9657   28.6436   46.9130 H   0  0  0  0  0  0  0  0  0  0  0  0
  1  2  2  0
  2  3  1  0
  2  4  1  0
  4  5  1  0
  5  6  2  0
  6  7  1  0
  7  8  2  0
  8  9  1  0
  9 10  2  0
 10 11  1  0
 11 12  1  0
 12 13  2  0
 13 14  1  0
 14 15  2  0
 15 16  1  0
 16 17  1  0
 17 18  1  0
 18 19  1  0
 19 20  2  0
 19 21  1  0
 21 22  1  0
 22 23  1  0
 15 24  1  0
 24 25  2  0
 10  5  1  0
 25 12  1  0
 22 17  2  0
  4 26  1  0
  4 27  1  0
  6 28  1  0
  7 29  1  0
  8 30  1  0
  9 31  1  0
 13 32  1  0
 14 33  1  0
 16 34  1  0
 16 35  1  0
 23 36  1  0
 24 37  1  0
 25 38  1  0
M  CHG  2   3  -1  21  -1
M  END
>  <UniqueID>  (23) 
22

>  <SMILES>  (23) 
O=C([O-])Cc1ccccc1Oc1ccc(Cc2sc(=O)[n-]c2O)cc1

>  <Energy>  (23) 
74.80211742832138

>  <Genealogy>  (23) 
O=C([O-])Cc1ccccc1Oc1ccc(Cc2sc(=O)[n-]c2O)cc1 (protonated)
O=C([O-])Cc1ccccc1Oc1ccc(Cc2sc(=O)[n-]c2O)cc1 (3D coordinates assigned)
O=C([O-])Cc1ccccc1Oc1ccc(Cc2sc(=O)[n-]c2O)cc1 (optimized conformer: 74.80211742832138 kcal/mol)

>  <smiles>  (23) 
O=C(O)Cc1ccccc1Oc1ccc(Cc2sc(=O)[nH]c2O)cc1

>  <score_type>  (23) 
oracle

>  <origin>  (23) 
adg

>  <m_score__min__energy>  (23) 
-13.380000000000001

>  <m_primary>  (23) 
energy

$$$$
23:0
     RDKit          3D

 46 48  0  0  0  0  0  0  0  0999 V2000
   54.7510   26.3310   45.9700 N   0  0  0  0  0  0  0  0  0  0  0  0
   56.0850   25.2640   46.2260 S   0  0  0  0  0  0  0  0  0  0  0  0
   55.8730   24.4980   47.5020 O   0  0  0  0  0  0  0  0  0  0  0  0
   56.1750   24.2870   45.0870 O   0  0  0  0  0  0  0  0  0  0  0  0
   57.5740   26.1980   46.3280 C   0  0  0  0  0  0  0  0  0  0  0  0
   58.7510   25.6030   46.8020 C   0  0  0  0  0  0  0  0  0  0  0  0
   59.9310   26.3470   46.8840 C   0  0  0  0  0  0  0  0  0  0  0  0
   59.9400   27.6920   46.5040 C   0  0  0  0  0  0  0  0  0  0  0  0
   58.7620   28.3070   46.0500 C   0  0  0  0  0  0  0  0  0  0  0  0
   58.7770   29.7430   45.6110 C   0  0  0  0  0  0  0  0  0  0  0  0
   57.4170   30.2640   45.6420 N   0  0  0  0  0  0  0  0  0  0  0  0
   56.7520   31.0370   44.6310 C   0  0  0  0  0  0  0  0  0  0  0  0
   55.6950   30.5740   44.1310 O   0  0  0  0  0  0  0  0  0  0  0  0
   57.2230   32.3090   44.1590 N   0  0  0  0  0  0  0  0  0  0  0  0
   57.0630   33.6090   44.7960 C   0  0  0  0  0  0  0  0  0  0  0  0
   58.1120   33.7690   45.8570 C   0  0  0  0  0  0  0  0  0  0  0  0
   59.2080   34.6210   45.6470 C   0  0  0  0  0  0  0  0  0  0  0  0
   60.1660   34.7990   46.6490 C   0  0  0  0  0  0  0  0  0  0  0  0
   60.0420   34.1260   47.8750 C   0  0  0  0  0  0  0  0  0  0  0  0
   61.0480   34.3530   48.9680 C   0  0  0  0  0  0  0  0  0  0  0  0
   62.2850   33.6450   48.6580 N   0  0  0  0  0  0  0  0  0  0  0  0
   62.4480   32.7250   47.6900 C   0  0  0  0  0  0  0  0  0  0  0  0
   63.7740   32.3480   47.6720 C   0  0  0  0  0  0  0  0  0  0  0  0
   64.3670   33.1010   48.6680 C   0  0  0  0  0  0  0  0  0  0  0  0
   63.4430   33.8890   49.2500 N   0  0  0  0  0  0  0  0  0  0  0  0
   58.9310   33.3000   48.0970 C   0  0  0  0  0  0  0  0  0  0  0  0
   57.9710   33.1220   47.0950 C   0  0  0  0  0  0  0  0  0  0  0  0
   57.5820   27.5500   45.9540 C   0  0  0  0  0  0  0  0  0  0  0  0
   54.8100   27.0750   46.7020 H   0  0  0  0  0  0  0  0  0  0  0  0
   58.7459   24.5471   47.1104 H   0  0  0  0  0  0  0  0  0  0  0  0
   60.8545   25.8733   47.2483 H   0  0  0  0  0  0  0  0  0  0  0  0
   60.8735   28.2711   46.5608 H   0  0  0  0  0  0  0  0  0  0  0  0
   59.4120   30.3297   46.2911 H   0  0  0  0  0  0  0  0  0  0  0  0
   59.1786   29.8145   44.5894 H   0  0  0  0  0  0  0  0  0  0  0  0
   57.1756   34.4039   44.0440 H   0  0  0  0  0  0  0  0  0  0  0  0
   56.0635   33.6784   45.2500 H   0  0  0  0  0  0  0  0  0  0  0  0
   59.3133   35.1511   44.6889 H   0  0  0  0  0  0  0  0  0  0  0  0
   61.0209   35.4693   46.4763 H   0  0  0  0  0  0  0  0  0  0  0  0
   61.2558   35.4297   49.0548 H   0  0  0  0  0  0  0  0  0  0  0  0
   60.6424   33.9752   49.9181 H   0  0  0  0  0  0  0  0  0  0  0  0
   61.6592   32.3399   47.0271 H   0  0  0  0  0  0  0  0  0  0  0  0
   64.2539   31.6110   47.0112 H   0  0  0  0  0  0  0  0  0  0  0  0
   65.4313   33.0624   48.9432 H   0  0  0  0  0  0  0  0  0  0  0  0
   58.8136   32.7892   49.0641 H   0  0  0  0  0  0  0  0  0  0  0  0
   57.1022   32.4725   47.2779 H   0  0  0  0  0  0  0  0  0  0  0  0
   56.6592   28.0203   45.5834 H   0  0  0  0  0  0  0  0  0  0  0  0
  1  2  1  0
  2  3  2  0
  2  4  2  0
  2  5  1  0
  5  6  2  0
  6  7  1  0
  7  8  2  0
  8  9  1  0
  9 10  1  0
 10 11  1  0
 11 12  1  0
 12 13  2  0
 12 14  1  0
 14 15  1  0
 15 16  1  0
 16 17  2  0
 17 18  1  0
 18 19  2  0
 19 20  1  0
 20 21  1  0
 21 22  1  0
 22 23  2  0
 23 24  1  0
 24 25  2  0
 19 26  1  0
 26 27  2  0
  9 28  2  0
 28  5  1  0
 27 16  1  0
 25 21  1  0
  1 29  1  0
  6 30  1  0
  7 31  1  0
  8 32  1  0
 10 33  1  0
 10 34  1  0
 15 35  1  0
 15 36  1  0
 17 37  1  0
 18 38  1  0
 20 39  1  0
 20 40  1  0
 22 41  1  0
 23 42  1  0
 24 43  1  0
 26 44  1  0
 27 45  1  0
 28 46  1  0
M  CHG  3   1  -1  11  -1  14  -1
M  END
>  <UniqueID>  (24) 
23

>  <SMILES>  (24) 
[NH-]S(=O)(=O)c1cccc(C[N-]C(=O)[N-]Cc2ccc(Cn3cccn3)cc2)c1

>  <Energy>  (24) 
75.24342138497131

>  <Genealogy>  (24) 
[NH-]S(=O)(=O)c1cccc(C[N-]C(=O)[N-]Cc2ccc(Cn3cccn3)cc2)c1 (protonated)
[NH-]S(=O)(=O)c1cccc(C[N-]C(=O)[N-]Cc2ccc(Cn3cccn3)cc2)c1 (3D coordinates assigned)
[NH-]S(=O)(=O)c1cccc(C[N-]C(=O)[N-]Cc2ccc(Cn3cccn3)cc2)c1 (optimized conformer: 75.24342138497131 kcal/mol)

>  <smiles>  (24) 
NS(=O)(=O)c1cccc(CNC(=O)NCc2ccc(Cn3cccn3)cc2)c1

>  <score_type>  (24) 
oracle

>  <origin>  (24) 
adg

>  <m_score__min__energy>  (24) 
-15.25

>  <m_primary>  (24) 
energy

$$$$
24:0
     RDKit          3D

 45 47  0  0  0  0  0  0  0  0999 V2000
   59.0062   30.6354   48.0930 H   0  0  0  0  0  0  0  0  0  0  0  0
   58.7880   30.2860   47.0730 C   0  0  0  0  0  0  0  0  0  0  0  0
   58.9057   29.2222   46.8191 H   0  0  0  0  0  0  0  0  0  0  0  0
   58.3780   31.1580   46.1380 C   0  0  0  0  0  0  0  0  0  0  0  0
   58.0640   30.8620   44.8030 C   0  0  0  0  0  0  0  0  0  0  0  0
   57.8530   29.6820   44.1860 C   0  0  0  0  0  0  0  0  0  0  0  0
   57.9925   29.6512   43.0953 H   0  0  0  0  0  0  0  0  0  0  0  0
   57.4500   28.4270   44.8530 C   0  0  0  0  0  0  0  0  0  0  0  0
   56.1190   28.2350   45.2480 C   0  0  0  0  0  0  0  0  0  0  0  0
   55.1570   29.2020   44.9730 O   0  0  0  0  0  0  0  0  0  0  0  0
   55.7570   27.0940   45.8940 N   0  0  0  0  0  0  0  0  0  0  0  0
   54.7590   26.9570   46.1730 H   0  0  0  0  0  0  0  0  0  0  0  0
   56.6770   26.1340   46.1820 C   0  0  0  0  0  0  0  0  0  0  0  0
   56.3260   25.0800   46.7770 O   0  0  0  0  0  0  0  0  0  0  0  0
   57.9770   26.3110   45.8350 N   0  0  0  0  0  0  0  0  0  0  0  0
   58.3860   27.4320   45.1910 C   0  0  0  0  0  0  0  0  0  0  0  0
   59.6060   27.5710   44.9080 O   0  0  0  0  0  0  0  0  0  0  0  0
   57.9840   32.0750   44.1450 C   0  0  0  0  0  0  0  0  0  0  0  0
   57.8014   32.2274   43.0710 H   0  0  0  0  0  0  0  0  0  0  0  0
   58.1770   33.0570   45.0930 C   0  0  0  0  0  0  0  0  0  0  0  0
   58.2220   34.5250   44.7830 C   0  0  0  0  0  0  0  0  0  0  0  0
   58.2396   35.0977   45.7220 H   0  0  0  0  0  0  0  0  0  0  0  0
   59.1274   34.7490   44.1999 H   0  0  0  0  0  0  0  0  0  0  0  0
   57.3320   34.8041   44.1999 H   0  0  0  0  0  0  0  0  0  0  0  0
   58.3680   32.5080   46.3180 N   0  0  0  0  0  0  0  0  0  0  0  0
   58.6100   33.2590   47.5650 C   0  0  0  0  0  0  0  0  0  0  0  0
   58.0998   34.2311   47.4967 H   0  0  0  0  0  0  0  0  0  0  0  0
   58.2209   32.6575   48.3998 H   0  0  0  0  0  0  0  0  0  0  0  0
   60.0910   33.5010   47.8180 C   0  0  0  0  0  0  0  0  0  0  0  0
   60.9440   33.5680   46.7030 C   0  0  0  0  0  0  0  0  0  0  0  0
   60.5213   33.4849   45.6908 H   0  0  0  0  0  0  0  0  0  0  0  0
   62.3160   33.7380   46.8620 C   0  0  0  0  0  0  0  0  0  0  0  0
   62.9681   33.7943   45.9779 H   0  0  0  0  0  0  0  0  0  0  0  0
   62.8650   33.8370   48.1370 C   0  0  0  0  0  0  0  0  0  0  0  0
   63.9528   33.9509   48.2542 H   0  0  0  0  0  0  0  0  0  0  0  0
   62.0450   33.7930   49.2740 C   0  0  0  0  0  0  0  0  0  0  0  0
   62.6950   33.8950   50.6310 C   0  0  0  0  0  0  0  0  0  0  0  0
   61.9311   33.7751   51.4134 H   0  0  0  0  0  0  0  0  0  0  0  0
   63.4532   33.1048   50.7347 H   0  0  0  0  0  0  0  0  0  0  0  0
   63.1748   34.8794   50.7347 H   0  0  0  0  0  0  0  0  0  0  0  0
   60.6360   33.6840   49.1220 C   0  0  0  0  0  0  0  0  0  0  0  0
   59.7360   33.7100   50.3370 C   0  0  0  0  0  0  0  0  0  0  0  0
   60.3507   33.6922   51.2491 H   0  0  0  0  0  0  0  0  0  0  0  0
   59.1273   34.6261   50.3229 H   0  0  0  0  0  0  0  0  0  0  0  0
   59.0754   32.8306   50.3229 H   0  0  0  0  0  0  0  0  0  0  0  0
  1  2  1  0
  2  3  1  0
  2  4  2  0
  4  5  1  0
  5  6  2  0
  6  7  1  0
  6  8  1  0
  8  9  2  0
  9 10  1  0
  9 11  1  0
 11 12  1  0
 11 13  1  0
 13 14  2  0
 13 15  1  0
 15 16  1  0
 16 17  2  0
  5 18  1  0
 18 19  1  0
 18 20  2  0
 20 21  1  0
 21 22  1  0
 21 23  1  0
 21 24  1  0
 20 25  1  0
 25 26  1  0
 26 27  1  0
 26 28  1  0
 26 29  1  0
 29 30  2  0
 30 31  1  0
 30 32  1  0
 32 33  1  0
 32 34  2  0
 34 35  1  0
 34 36  1  0
 36 37  1  0
 37 38  1  0
 37 39  1  0
 37 40  1  0
 36 41  2  0
 41 42  1  0
 42 43  1  0
 42 44  1  0
 42 45  1  0
 25  4  1  0
 41 29  1  0
 16  8  1  0
M  CHG  2  10  -1  15  -1
M  END
>  <UniqueID>  (25) 
24

>  <SMILES>  (25) 
C=c1/c(=C\c2c([O-])[nH]c(=O)[n-]c2=O)cc(C)n1Cc1cccc(C)c1C

>  <Energy>  (25) 
93.44920399709157

>  <Genealogy>  (25) 
C=c1c(=Cc2c([O-])[nH]c(=O)[n-]c2=O)cc(C)n1Cc1cccc(C)c1C (protonated)
C=c1/c(=C\c2c([O-])[nH]c(=O)[n-]c2=O)cc(C)n1Cc1cccc(C)c1C (cis-trans isomerization)
C=c1/c(=C\c2c([O-])[nH]c(=O)[n-]c2=O)cc(C)n1Cc1cccc(C)c1C (3D coordinates assigned)
C=c1/c(=C\c2c([O-])[nH]c(=O)[n-]c2=O)cc(C)n1Cc1cccc(C)c1C (optimized conformer: 93.44920399709157 kcal/mol)

>  <smiles>  (25) 
C=c1c(=Cc2c(O)[nH]c(=O)[nH]c2=O)cc(C)n1Cc1cccc(C)c1C

>  <score_type>  (25) 
oracle

>  <origin>  (25) 
adg

>  <m_score__min__energy>  (25) 
-14.43

>  <m_primary>  (25) 
energy

$$$$
25:0
     RDKit          3D

 41 43  0  0  0  0  0  0  0  0999 V2000
   58.8150   31.7770   44.6200 O   0  0  0  0  0  0  0  0  0  0  0  0
   58.4730   30.7040   45.1890 C   0  0  0  0  0  0  0  0  0  0  0  0
   57.2480   30.1900   44.9300 N   0  0  0  0  0  0  0  0  0  0  0  0
   56.8000   29.0520   45.5120 C   0  0  0  0  0  0  0  0  0  0  0  0
   55.5180   28.6180   45.1690 O   0  0  0  0  0  0  0  0  0  0  0  0
   57.6330   28.3710   46.4300 C   0  0  0  0  0  0  0  0  0  0  0  0
   57.2210   27.0870   47.1300 C   0  0  0  0  0  0  0  0  0  0  0  0
   57.0680   25.9500   46.1460 C   0  0  0  0  0  0  0  0  0  0  0  0
   58.2010   25.2210   45.7370 C   0  0  0  0  0  0  0  0  0  0  0  0
   58.0790   24.1760   44.8180 C   0  0  0  0  0  0  0  0  0  0  0  0
   56.8260   23.8450   44.2980 C   0  0  0  0  0  0  0  0  0  0  0  0
   55.6940   24.5570   44.6970 C   0  0  0  0  0  0  0  0  0  0  0  0
   55.8070   25.6040   45.6180 C   0  0  0  0  0  0  0  0  0  0  0  0
   54.6630   26.2940   46.0010 O   0  0  0  0  0  0  0  0  0  0  0  0
   58.9050   28.9240   46.6930 C   0  0  0  0  0  0  0  0  0  0  0  0
   59.6670   28.3580   47.5270 O   0  0  0  0  0  0  0  0  0  0  0  0
   59.3190   30.0680   46.0580 N   0  0  0  0  0  0  0  0  0  0  0  0
   60.6440   30.6470   46.3580 C   0  0  0  0  0  0  0  0  0  0  0  0
   60.5120   31.7630   47.3990 C   0  0  0  0  0  0  0  0  0  0  0  0
   61.8690   32.2660   47.8150 C   0  0  0  0  0  0  0  0  0  0  0  0
   62.5270   31.7010   48.9200 C   0  0  0  0  0  0  0  0  0  0  0  0
   63.7720   32.1910   49.3240 C   0  0  0  0  0  0  0  0  0  0  0  0
   64.3640   33.2540   48.6340 C   0  0  0  0  0  0  0  0  0  0  0  0
   63.7100   33.8290   47.5410 C   0  0  0  0  0  0  0  0  0  0  0  0
   62.4640   33.3420   47.1340 C   0  0  0  0  0  0  0  0  0  0  0  0
   55.1600   27.6890   45.3300 H   0  0  0  0  0  0  0  0  0  0  0  0
   57.9899   26.8196   47.8698 H   0  0  0  0  0  0  0  0  0  0  0  0
   56.2508   27.2548   47.6204 H   0  0  0  0  0  0  0  0  0  0  0  0
   59.1903   25.4764   46.1444 H   0  0  0  0  0  0  0  0  0  0  0  0
   58.9705   23.6135   44.5038 H   0  0  0  0  0  0  0  0  0  0  0  0
   56.7312   23.0227   43.5736 H   0  0  0  0  0  0  0  0  0  0  0  0
   54.7084   24.2938   44.2855 H   0  0  0  0  0  0  0  0  0  0  0  0
   61.3036   29.8596   46.7515 H   0  0  0  0  0  0  0  0  0  0  0  0
   61.0689   31.0670   45.4344 H   0  0  0  0  0  0  0  0  0  0  0  0
   59.9359   32.5942   46.9663 H   0  0  0  0  0  0  0  0  0  0  0  0
   59.9969   31.3618   48.2843 H   0  0  0  0  0  0  0  0  0  0  0  0
   62.0607   30.8699   49.4693 H   0  0  0  0  0  0  0  0  0  0  0  0
   64.2868   31.7403   50.1853 H   0  0  0  0  0  0  0  0  0  0  0  0
   65.3448   33.6375   48.9518 H   0  0  0  0  0  0  0  0  0  0  0  0
   64.1760   34.6658   47.0001 H   0  0  0  0  0  0  0  0  0  0  0  0
   61.9480   33.8023   46.2785 H   0  0  0  0  0  0  0  0  0  0  0  0
  1  2  2  0
  2  3  1  0
  3  4  1  0
  4  5  1  0
  4  6  2  0
  6  7  1  0
  7  8  1  0
  8  9  2  0
  9 10  1  0
 10 11  2  0
 11 12  1  0
 12 13  2  0
 13 14  1  0
  6 15  1  0
 15 16  2  0
 15 17  1  0
 17 18  1  0
 18 19  1  0
 19 20  1  0
 20 21  2  0
 21 22  1  0
 22 23  2  0
 23 24  1  0
 24 25  2  0
 17  2  1  0
 25 20  1  0
 13  8  1  0
  5 26  1  0
  7 27  1  0
  7 28  1  0
  9 29  1  0
 10 30  1  0
 11 31  1  0
 12 32  1  0
 18 33  1  0
 18 34  1  0
 19 35  1  0
 19 36  1  0
 21 37  1  0
 22 38  1  0
 23 39  1  0
 24 40  1  0
 25 41  1  0
M  CHG  2   3  -1  14  -1
M  END
>  <UniqueID>  (26) 
25

>  <SMILES>  (26) 
O=c1[n-]c(O)c(Cc2ccccc2[O-])c(=O)n1CCc1ccccc1

>  <Energy>  (26) 
49.90140030487926

>  <Genealogy>  (26) 
O=c1[n-]c(O)c(Cc2ccccc2[O-])c(=O)n1CCc1ccccc1 (protonated)
O=c1[n-]c(O)c(Cc2ccccc2[O-])c(=O)n1CCc1ccccc1 (3D coordinates assigned)
O=c1[n-]c(O)c(Cc2ccccc2[O-])c(=O)n1CCc1ccccc1 (optimized conformer: 49.90140030487926 kcal/mol)

>  <smiles>  (26) 
O=c1[nH]c(O)c(Cc2ccccc2O)c(=O)n1CCc1ccccc1

>  <score_type>  (26) 
oracle

>  <origin>  (26) 
adg

>  <m_score__min__energy>  (26) 
-12.94

>  <m_primary>  (26) 
energy

$$$$
26:0
     RDKit          3D

 43 45  0  0  0  0  0  0  0  0999 V2000
   58.3387   30.7048   42.8935 H   0  0  0  0  0  0  0  0  0  0  0  0
   58.0130   30.7540   43.9430 C   0  0  0  0  0  0  0  0  0  0  0  0
   58.0760   32.0750   44.5940 C   0  0  0  0  0  0  0  0  0  0  0  0
   58.5030   32.2520   45.8230 O   0  0  0  0  0  0  0  0  0  0  0  0
   58.4930   33.5390   46.0820 C   0  0  0  0  0  0  0  0  0  0  0  0
   58.9260   34.1360   47.3790 C   0  0  0  0  0  0  0  0  0  0  0  0
   58.5031   33.5529   48.2104 H   0  0  0  0  0  0  0  0  0  0  0  0
   60.0241   34.1203   47.4414 H   0  0  0  0  0  0  0  0  0  0  0  0
   58.5700   35.1749   47.4414 H   0  0  0  0  0  0  0  0  0  0  0  0
   58.0640   34.2450   44.9750 C   0  0  0  0  0  0  0  0  0  0  0  0
   57.9563   35.3359   44.8836 H   0  0  0  0  0  0  0  0  0  0  0  0
   57.7990   33.2990   44.0090 C   0  0  0  0  0  0  0  0  0  0  0  0
   57.4412   33.4790   42.9845 H   0  0  0  0  0  0  0  0  0  0  0  0
   57.5950   29.5940   44.5050 C   0  0  0  0  0  0  0  0  0  0  0  0
   56.2420   29.3020   44.8090 C   0  0  0  0  0  0  0  0  0  0  0  0
   55.3220   30.1450   44.6430 O   0  0  0  0  0  0  0  0  0  0  0  0
   55.9240   28.0970   45.3460 N   0  0  0  0  0  0  0  0  0  0  0  0
   56.8550   27.1500   45.6300 C   0  0  0  0  0  0  0  0  0  0  0  0
   56.4850   25.9670   46.1660 C   0  0  0  0  0  0  0  0  0  0  0  0
   57.0164   25.6151   47.0625 H   0  0  0  0  0  0  0  0  0  0  0  0
   55.4030   25.1150   45.6150 C   0  0  0  0  0  0  0  0  0  0  0  0
   54.1140   25.2300   45.9920 N   0  0  0  0  0  0  0  0  0  0  0  0
   53.4580   24.3300   45.2390 C   0  0  0  0  0  0  0  0  0  0  0  0
   52.3721   24.1667   45.3030 H   0  0  0  0  0  0  0  0  0  0  0  0
   54.2590   23.6480   44.3990 N   0  0  0  0  0  0  0  0  0  0  0  0
   55.4980   24.1320   44.6280 C   0  0  0  0  0  0  0  0  0  0  0  0
   56.7310   23.6200   43.8800 C   0  0  0  0  0  0  0  0  0  0  0  0
   56.3110   22.5430   42.8520 C   0  0  0  0  0  0  0  0  0  0  0  0
   55.9611   21.6457   43.3833 H   0  0  0  0  0  0  0  0  0  0  0  0
   55.4999   22.9351   42.2208 H   0  0  0  0  0  0  0  0  0  0  0  0
   57.1734   22.2824   42.2208 H   0  0  0  0  0  0  0  0  0  0  0  0
   57.7340   22.9680   44.8550 C   0  0  0  0  0  0  0  0  0  0  0  0
   57.4230   23.1702   45.8906 H   0  0  0  0  0  0  0  0  0  0  0  0
   57.7575   21.8815   44.6847 H   0  0  0  0  0  0  0  0  0  0  0  0
   58.7365   23.3876   44.6847 H   0  0  0  0  0  0  0  0  0  0  0  0
   57.4010   24.7760   43.1090 C   0  0  0  0  0  0  0  0  0  0  0  0
   57.8202   25.4992   43.8240 H   0  0  0  0  0  0  0  0  0  0  0  0
   58.2074   24.3762   42.4766 H   0  0  0  0  0  0  0  0  0  0  0  0
   56.6532   25.2769   42.4766 H   0  0  0  0  0  0  0  0  0  0  0  0
   58.2080   27.4530   45.3780 C   0  0  0  0  0  0  0  0  0  0  0  0
   59.1220   26.6230   45.6430 O   0  0  0  0  0  0  0  0  0  0  0  0
   58.5380   28.6590   44.8360 N   0  0  0  0  0  0  0  0  0  0  0  0
   59.5520   28.8480   44.6530 H   0  0  0  0  0  0  0  0  0  0  0  0
  1  2  1  0
  2  3  1  0
  3  4  1  0
  4  5  1  0
  5  6  1  0
  6  7  1  0
  6  8  1  0
  6  9  1  0
  5 10  2  0
 10 11  1  0
 10 12  1  0
 12 13  1  0
  2 14  2  3
 14 15  1  0
 15 16  2  0
 15 17  1  0
 17 18  1  0
 18 19  2  0
 19 20  1  0
 19 21  1  0
 21 22  1  0
 22 23  1  0
 23 24  1  0
 23 25  2  0
 25 26  1  0
 26 27  1  0
 27 28  1  0
 28 29  1  0
 28 30  1  0
 28 31  1  0
 27 32  1  0
 32 33  1  0
 32 34  1  0
 32 35  1  0
 27 36  1  0
 36 37  1  0
 36 38  1  0
 36 39  1  0
 18 40  1  0
 40 41  2  0
 40 42  1  0
 42 43  1  0
 12  3  2  0
 42 14  1  0
 26 21  2  0
M  CHG  2  17  -1  22  -1
M  END
>  <UniqueID>  (27) 
26

>  <SMILES>  (27) 
Cc1ccc(C=c2[nH]c(=O)/c(=C/c3[n-]cnc3C(C)(C)C)[n-]c2=O)o1

>  <Energy>  (27) 
115.3450425075773

>  <Genealogy>  (27) 
Cc1ccc(C=c2[nH]c(=O)c(=Cc3[n-]cnc3C(C)(C)C)[n-]c2=O)o1 (protonated)
Cc1ccc(C=c2[nH]c(=O)/c(=C/c3[n-]cnc3C(C)(C)C)[n-]c2=O)o1 (cis-trans isomerization)
Cc1ccc(C=c2[nH]c(=O)/c(=C/c3[n-]cnc3C(C)(C)C)[n-]c2=O)o1 (3D coordinates assigned)
Cc1ccc(C=c2[nH]c(=O)/c(=C/c3[n-]cnc3C(C)(C)C)[n-]c2=O)o1 (optimized conformer: 115.3450425075773 kcal/mol)

>  <smiles>  (27) 
Cc1ccc(C=c2[nH]c(=O)c(=Cc3[nH]cnc3C(C)(C)C)[nH]c2=O)o1

>  <score_type>  (27) 
oracle

>  <origin>  (27) 
adg

>  <m_score__min__energy>  (27) 
-12.02

>  <m_primary>  (27) 
energy

$$$$
27:0
     RDKit          3D

 65 68  0  0  0  0  0  0  0  0999 V2000
   58.2660   32.3330   43.2530 O   0  0  0  0  0  0  0  0  0  0  0  0
   57.6270   32.2990   44.3370 C   0  0  0  0  0  0  0  0  0  0  0  0
   56.8490   31.1350   44.6380 N   0  0  0  0  0  0  0  0  0  0  0  0
   57.3920   29.8540   44.9910 C   0  0  0  0  0  0  0  0  0  0  0  0
   58.7800   29.6320   45.0220 C   0  0  0  0  0  0  0  0  0  0  0  0
   59.2850   28.3530   45.2760 C   0  0  0  0  0  0  0  0  0  0  0  0
   58.4170   27.2700   45.4980 C   0  0  0  0  0  0  0  0  0  0  0  0
   58.9460   25.8990   45.6910 C   0  0  0  0  0  0  0  0  0  0  0  0
   58.3350   24.9140   45.1970 O   0  0  0  0  0  0  0  0  0  0  0  0
   60.1820   25.6910   46.3870 N   0  0  0  0  0  0  0  0  0  0  0  0
   60.7510   26.6910   47.2810 C   0  0  0  0  0  0  0  0  0  0  0  0
   59.7430   27.0760   48.3620 C   0  0  0  0  0  0  0  0  0  0  0  0
   59.4040   28.8790   48.3880 S   0  0  0  0  0  0  0  0  0  0  0  0
   61.0190   29.4320   49.0530 C   0  0  0  0  0  0  0  0  0  0  0  0
   61.5140   30.6590   48.3500 C   0  0  0  0  0  0  0  0  0  0  0  0
   60.9660   31.2050   47.1950 C   0  0  0  0  0  0  0  0  0  0  0  0
   61.6390   32.3490   46.7520 C   0  0  0  0  0  0  0  0  0  0  0  0
   62.7180   32.7030   47.5500 C   0  0  0  0  0  0  0  0  0  0  0  0
   62.8350   31.5960   48.8130 S   0  0  0  0  0  0  0  0  0  0  0  0
   57.0290   27.5020   45.4820 C   0  0  0  0  0  0  0  0  0  0  0  0
   56.5230   28.7810   45.2220 C   0  0  0  0  0  0  0  0  0  0  0  0
   55.1480   28.9790   45.1920 O   0  0  0  0  0  0  0  0  0  0  0  0
   57.6550   33.4480   45.2720 C   0  0  0  0  0  0  0  0  0  0  0  0
   57.9070   34.5930   44.8160 O   0  0  0  0  0  0  0  0  0  0  0  0
   57.3270   33.3270   46.6640 N   0  0  0  0  0  0  0  0  0  0  0  0
   58.2360   33.3520   47.7740 C   0  0  0  0  0  0  0  0  0  0  0  0
   58.1510   32.3920   48.7990 C   0  0  0  0  0  0  0  0  0  0  0  0
   59.0410   32.4320   49.8810 C   0  0  0  0  0  0  0  0  0  0  0  0
   58.8930   31.2650   51.1980 S   0  0  0  0  0  0  0  0  0  0  0  0
   60.2670   30.7770   51.5600 O   0  0  0  0  0  0  0  0  0  0  0  0
   58.0850   30.0880   50.7220 O   0  0  0  0  0  0  0  0  0  0  0  0
   58.1510   31.9900   52.6140 N   0  0  0  0  0  0  0  0  0  0  0  0
   59.0290   31.9250   53.7950 C   0  0  0  0  0  0  0  0  0  0  0  0
   60.2080   32.9230   53.7060 C   0  0  0  0  0  0  0  0  0  0  0  0
   60.0080   33.9570   52.7580 O   0  0  0  0  0  0  0  0  0  0  0  0
   58.6860   34.4390   52.8340 C   0  0  0  0  0  0  0  0  0  0  0  0
   57.6930   33.3710   52.3390 C   0  0  0  0  0  0  0  0  0  0  0  0
   60.0490   33.4050   49.9150 C   0  0  0  0  0  0  0  0  0  0  0  0
   60.1640   34.3320   48.8780 C   0  0  0  0  0  0  0  0  0  0  0  0
   59.2660   34.3100   47.8060 C   0  0  0  0  0  0  0  0  0  0  0  0
   59.4160   35.2530   46.7910 O   0  0  0  0  0  0  0  0  0  0  0  0
   59.4721   30.4686   44.8456 H   0  0  0  0  0  0  0  0  0  0  0  0
   60.3729   28.1928   45.3023 H   0  0  0  0  0  0  0  0  0  0  0  0
   61.6533   26.2797   47.7571 H   0  0  0  0  0  0  0  0  0  0  0  0
   61.0063   27.5872   46.6966 H   0  0  0  0  0  0  0  0  0  0  0  0
   58.8003   26.5416   48.1731 H   0  0  0  0  0  0  0  0  0  0  0  0
   60.1729   26.8004   49.3363 H   0  0  0  0  0  0  0  0  0  0  0  0
   60.9064   29.6553   50.1242 H   0  0  0  0  0  0  0  0  0  0  0  0
   61.7505   28.6260   48.8945 H   0  0  0  0  0  0  0  0  0  0  0  0
   60.0911   30.7803   46.6809 H   0  0  0  0  0  0  0  0  0  0  0  0
   61.3412   32.9141   45.8564 H   0  0  0  0  0  0  0  0  0  0  0  0
   63.3846   33.5623   47.3850 H   0  0  0  0  0  0  0  0  0  0  0  0
   56.3353   26.6706   45.6756 H   0  0  0  0  0  0  0  0  0  0  0  0
   57.3825   31.6064   48.7510 H   0  0  0  0  0  0  0  0  0  0  0  0
   58.4348   32.1585   54.6908 H   0  0  0  0  0  0  0  0  0  0  0  0
   59.4503   30.9101   53.8456 H   0  0  0  0  0  0  0  0  0  0  0  0
   60.3503   33.3818   54.6956 H   0  0  0  0  0  0  0  0  0  0  0  0
   61.0890   32.3518   53.3780 H   0  0  0  0  0  0  0  0  0  0  0  0
   58.4530   34.6935   53.8785 H   0  0  0  0  0  0  0  0  0  0  0  0
   58.5956   35.3312   52.1970 H   0  0  0  0  0  0  0  0  0  0  0  0
   56.7279   33.5281   52.8429 H   0  0  0  0  0  0  0  0  0  0  0  0
   57.6063   33.4800   51.2479 H   0  0  0  0  0  0  0  0  0  0  0  0
   60.7512   33.4382   50.7610 H   0  0  0  0  0  0  0  0  0  0  0  0
   60.9659   35.0846   48.9040 H   0  0  0  0  0  0  0  0  0  0  0  0
   58.7980   35.2950   45.9890 H   0  0  0  0  0  0  0  0  0  0  0  0
  1  2  2  0
  2  3  1  0
  3  4  1  0
  4  5  2  0
  5  6  1  0
  6  7  2  0
  7  8  1  0
  8  9  2  0
  8 10  1  0
 10 11  1  0
 11 12  1  0
 12 13  1  0
 13 14  1  0
 14 15  1  0
 15 16  2  0
 16 17  1  0
 17 18  2  0
 18 19  1  0
  7 20  1  0
 20 21  2  0
 21 22  1  0
  2 23  1  0
 23 24  2  0
 23 25  1  0
 25 26  1  0
 26 27  2  0
 27 28  1  0
 28 29  1  0
 29 30  2  0
 29 31  2  0
 29 32  1  0
 32 33  1  0
 33 34  1  0
 34 35  1  0
 35 36  1  0
 36 37  1  0
 28 38  2  0
 38 39  1  0
 39 40  2  0
 40 41  1  0
 21  4  1  0
 40 26  1  0
 19 15  1  0
 37 32  1  0
  5 42  1  0
  6 43  1  0
 11 44  1  0
 11 45  1  0
 12 46  1  0
 12 47  1  0
 14 48  1  0
 14 49  1  0
 16 50  1  0
 17 51  1  0
 18 52  1  0
 20 53  1  0
 27 54  1  0
 33 55  1  0
 33 56  1  0
 34 57  1  0
 34 58  1  0
 36 59  1  0
 36 60  1  0
 37 61  1  0
 37 62  1  0
 38 63  1  0
 39 64  1  0
 41 65  1  0
M  CHG  4   3  -1  10  -1  22  -1  25  -1
M  END
>  <UniqueID>  (28) 
27

>  <SMILES>  (28) 
O=C([N-]c1ccc(C(=O)[N-]CCSCc2cccs2)cc1[O-])C(=O)[N-]c1cc(S(=O)(=O)N2CCOCC2)ccc1O

>  <Energy>  (28) 
113.25824837364368

>  <Genealogy>  (28) 
O=C([N-]c1ccc(C(=O)[N-]CCSCc2cccs2)cc1[O-])C(=O)[N-]c1cc(S(=O)(=O)N2CCOCC2)ccc1O (protonated)
O=C([N-]c1ccc(C(=O)[N-]CCSCc2cccs2)cc1[O-])C(=O)[N-]c1cc(S(=O)(=O)N2CCOCC2)ccc1O (3D coordinates assigned)
O=C([N-]c1ccc(C(=O)[N-]CCSCc2cccs2)cc1[O-])C(=O)[N-]c1cc(S(=O)(=O)N2CCOCC2)ccc1O (nonaromatic ring conformer: 113.25824837364368 kcal/mol)

>  <smiles>  (28) 
O=C(Nc1ccc(C(=O)NCCSCc2cccs2)cc1O)C(=O)Nc1cc(S(=O)(=O)N2CCOCC2)ccc1O

>  <score_type>  (28) 
oracle

>  <origin>  (28) 
adg

>  <m_score__min__energy>  (28) 
-17.510000000000002

>  <m_primary>  (28) 
energy

$$$$
28:0
     RDKit          3D

 50 52  0  0  0  0  0  0  0  0999 V2000
   56.2404   30.4121   43.7628 H   0  0  0  0  0  0  0  0  0  0  0  0
   56.8880   29.9210   44.5040 C   0  0  0  0  0  0  0  0  0  0  0  0
   56.4560   28.8060   45.1490 N   0  0  0  0  0  0  0  0  0  0  0  0
   57.2100   28.1620   46.0800 C   0  0  0  0  0  0  0  0  0  0  0  0
   56.7110   27.0930   46.6380 N   0  0  0  0  0  0  0  0  0  0  0  0
   56.0000   25.9970   46.0390 C   0  0  0  0  0  0  0  0  0  0  0  0
   54.7500   26.0510   45.8790 O   0  0  0  0  0  0  0  0  0  0  0  0
   56.7380   24.8000   45.5670 C   0  0  0  0  0  0  0  0  0  0  0  0
   58.1100   24.7210   45.8600 C   0  0  0  0  0  0  0  0  0  0  0  0
   58.5811   25.5048   46.4713 H   0  0  0  0  0  0  0  0  0  0  0  0
   58.8800   23.6630   45.3860 C   0  0  0  0  0  0  0  0  0  0  0  0
   59.9521   23.6134   45.6271 H   0  0  0  0  0  0  0  0  0  0  0  0
   58.2970   22.6680   44.6080 C   0  0  0  0  0  0  0  0  0  0  0  0
   58.9183   21.8500   44.2144 H   0  0  0  0  0  0  0  0  0  0  0  0
   56.9260   22.6980   44.3210 C   0  0  0  0  0  0  0  0  0  0  0  0
   56.3670   21.6380   43.4540 C   0  0  0  0  0  0  0  0  0  0  0  0
   56.2620   21.8490   42.2170 O   0  0  0  0  0  0  0  0  0  0  0  0
   55.9300   20.3810   43.9840 N   0  0  0  0  0  0  0  0  0  0  0  0
   55.6350   20.1430   45.3890 C   0  0  0  0  0  0  0  0  0  0  0  0
   56.3400   20.7118   46.0131 H   0  0  0  0  0  0  0  0  0  0  0  0
   54.6071   20.4677   45.6079 H   0  0  0  0  0  0  0  0  0  0  0  0
   55.7350   19.0697   45.6079 H   0  0  0  0  0  0  0  0  0  0  0  0
   56.1200   23.7530   44.8270 C   0  0  0  0  0  0  0  0  0  0  0  0
   54.6240   23.7430   44.5970 C   0  0  0  0  0  0  0  0  0  0  0  0
   54.1040   23.7395   45.5663 H   0  0  0  0  0  0  0  0  0  0  0  0
   54.3344   24.6392   44.0288 H   0  0  0  0  0  0  0  0  0  0  0  0
   54.3464   22.8430   44.0288 H   0  0  0  0  0  0  0  0  0  0  0  0
   58.5020   28.6510   46.3670 C   0  0  0  0  0  0  0  0  0  0  0  0
   59.1378   28.1332   47.1002 H   0  0  0  0  0  0  0  0  0  0  0  0
   58.9730   29.8000   45.7140 C   0  0  0  0  0  0  0  0  0  0  0  0
   60.3530   30.3250   46.0050 C   0  0  0  0  0  0  0  0  0  0  0  0
   61.0970   29.5866   45.6714 H   0  0  0  0  0  0  0  0  0  0  0  0
   60.4877   31.2757   45.4683 H   0  0  0  0  0  0  0  0  0  0  0  0
   60.5720   30.6290   47.7970 S   0  0  0  0  0  0  0  0  0  0  0  0
   60.7800   32.4440   47.6950 C   0  0  0  0  0  0  0  0  0  0  0  0
   60.7656   32.8656   48.7109 H   0  0  0  0  0  0  0  0  0  0  0  0
   61.7394   32.6603   47.2023 H   0  0  0  0  0  0  0  0  0  0  0  0
   59.6750   33.0670   46.8880 C   0  0  0  0  0  0  0  0  0  0  0  0
   59.9680   33.8630   45.7680 C   0  0  0  0  0  0  0  0  0  0  0  0
   61.0149   34.0387   45.4797 H   0  0  0  0  0  0  0  0  0  0  0  0
   58.9340   34.4330   45.0180 C   0  0  0  0  0  0  0  0  0  0  0  0
   59.1696   35.0539   44.1410 H   0  0  0  0  0  0  0  0  0  0  0  0
   57.6020   34.2150   45.3810 C   0  0  0  0  0  0  0  0  0  0  0  0
   56.6010   34.7680   44.6530 F   0  0  0  0  0  0  0  0  0  0  0  0
   57.3030   33.4270   46.4970 C   0  0  0  0  0  0  0  0  0  0  0  0
   56.2548   33.2562   46.7836 H   0  0  0  0  0  0  0  0  0  0  0  0
   58.3340   32.8560   47.2490 C   0  0  0  0  0  0  0  0  0  0  0  0
   58.0940   32.2387   48.1273 H   0  0  0  0  0  0  0  0  0  0  0  0
   58.1510   30.4440   44.7800 C   0  0  0  0  0  0  0  0  0  0  0  0
   58.4987   31.3539   44.2690 H   0  0  0  0  0  0  0  0  0  0  0  0
  1  2  1  0
  2  3  1  0
  3  4  1  0
  4  5  2  0
  5  6  1  0
  6  7  2  0
  6  8  1  0
  8  9  2  0
  9 10  1  0
  9 11  1  0
 11 12  1  0
 11 13  2  0
 13 14  1  0
 13 15  1  0
 15 16  1  0
 16 17  2  0
 16 18  1  0
 18 19  1  0
 19 20  1  0
 19 21  1  0
 19 22  1  0
 15 23  2  0
 23 24  1  0
 24 25  1  0
 24 26  1  0
 24 27  1  0
  4 28  1  0
 28 29  1  0
 28 30  2  0
 30 31  1  0
 31 32  1  0
 31 33  1  0
 31 34  1  0
 34 35  1  0
 35 36  1  0
 35 37  1  0
 35 38  1  0
 38 39  2  0
 39 40  1  0
 39 41  1  0
 41 42  1  0
 41 43  2  0
 43 44  1  0
 43 45  1  0
 45 46  1  0
 45 47  2  0
 47 48  1  0
 30 49  1  0
 49 50  1  0
 49  2  2  0
 23  8  1  0
 47 38  1  0
M  CHG  2   3  -1  18  -1
M  END
>  <UniqueID>  (29) 
28

>  <SMILES>  (29) 
C[N-]C(=O)c1cccc(C(=O)/N=c2\cc(CSCc3ccc(F)cc3)cc[n-]2)c1C

>  <Energy>  (29) 
68.13884977668161

>  <Genealogy>  (29) 
C[N-]C(=O)c1cccc(C(=O)N=c2cc(CSCc3ccc(F)cc3)cc[n-]2)c1C (protonated)
C[N-]C(=O)c1cccc(C(=O)/N=c2\cc(CSCc3ccc(F)cc3)cc[n-]2)c1C (cis-trans isomerization)
C[N-]C(=O)c1cccc(C(=O)/N=c2\cc(CSCc3ccc(F)cc3)cc[n-]2)c1C (3D coordinates assigned)
C[N-]C(=O)c1cccc(C(=O)/N=c2\cc(CSCc3ccc(F)cc3)cc[n-]2)c1C (optimized conformer: 68.13884977668161 kcal/mol)

>  <smiles>  (29) 
CNC(=O)c1cccc(C(=O)N=c2cc(CSCc3ccc(F)cc3)cc[nH]2)c1C

>  <score_type>  (29) 
oracle

>  <origin>  (29) 
adg

>  <m_score__min__energy>  (29) 
-12.609999999999999

>  <m_primary>  (29) 
energy

$$$$
29:0
     RDKit          3D

 66 67  0  0  0  0  0  0  0  0999 V2000
   56.6890   24.7420   46.3970 H   0  0  0  0  0  0  0  0  0  0  0  0
   57.5420   25.2460   46.1860 O   0  0  0  0  0  0  0  0  0  0  0  0
   57.5320   26.5770   45.7740 C   0  0  0  0  0  0  0  0  0  0  0  0
   58.7410   27.1990   45.4520 C   0  0  0  0  0  0  0  0  0  0  0  0
   59.6829   26.6359   45.5273 H   0  0  0  0  0  0  0  0  0  0  0  0
   58.7600   28.5320   45.0350 C   0  0  0  0  0  0  0  0  0  0  0  0
   59.7178   29.0110   44.7835 H   0  0  0  0  0  0  0  0  0  0  0  0
   57.5670   29.2660   44.9340 C   0  0  0  0  0  0  0  0  0  0  0  0
   57.6050   30.6980   44.4500 C   0  0  0  0  0  0  0  0  0  0  0  0
   56.5978   30.9943   44.1219 H   0  0  0  0  0  0  0  0  0  0  0  0
   58.3169   30.7683   43.6144 H   0  0  0  0  0  0  0  0  0  0  0  0
   58.0610   31.6290   45.5550 C   0  0  0  0  0  0  0  0  0  0  0  0
   58.0770   32.9740   45.4480 C   0  0  0  0  0  0  0  0  0  0  0  0
   57.1628   33.5135   45.7364 H   0  0  0  0  0  0  0  0  0  0  0  0
   60.1340   34.1370   47.2640 C   0  0  0  0  0  0  0  0  0  0  0  0
   59.4847   33.7869   43.9068 H   0  0  0  0  0  0  0  0  0  0  0  0
   63.3200   33.4870   48.5130 C   0  0  0  0  0  0  0  0  0  0  0  0
   64.1408   34.2159   48.5837 H   0  0  0  0  0  0  0  0  0  0  0  0
   59.2220   33.7840   44.9750 C   0  0  0  0  0  0  0  0  0  0  0  0
   62.5530   33.5020   47.4090 C   0  0  0  0  0  0  0  0  0  0  0  0
   60.4109   35.4380   45.4738 H   0  0  0  0  0  0  0  0  0  0  0  0
   59.9400   34.5130   45.8380 C   0  0  0  0  0  0  0  0  0  0  0  0
   61.1030   33.2460   47.5570 C   0  0  0  0  0  0  0  0  0  0  0  0
   60.7938   32.2594   47.9325 H   0  0  0  0  0  0  0  0  0  0  0  0
   63.1240   32.5470   49.6380 C   0  0  0  0  0  0  0  0  0  0  0  0
   63.1883   32.9127   50.6734 H   0  0  0  0  0  0  0  0  0  0  0  0
   62.8690   31.2550   49.4040 C   0  0  0  0  0  0  0  0  0  0  0  0
   63.6955   30.6292   49.0363 H   0  0  0  0  0  0  0  0  0  0  0  0
   61.5530   30.6080   49.6050 C   0  0  0  0  0  0  0  0  0  0  0  0
   60.8880   30.3010   48.5790 O   0  0  0  0  0  0  0  0  0  0  0  0
   60.9760   30.2590   50.9560 C   0  0  0  0  0  0  0  0  0  0  0  0
   60.7402   29.1849   50.9823 H   0  0  0  0  0  0  0  0  0  0  0  0
   61.7154   30.5042   51.7326 H   0  0  0  0  0  0  0  0  0  0  0  0
   59.7110   31.0540   51.2150 C   0  0  0  0  0  0  0  0  0  0  0  0
   58.4780   30.4220   50.9880 C   0  0  0  0  0  0  0  0  0  0  0  0
   58.4587   29.3931   50.5995 H   0  0  0  0  0  0  0  0  0  0  0  0
   57.2810   31.0800   51.2480 C   0  0  0  0  0  0  0  0  0  0  0  0
   56.3238   30.5775   51.0448 H   0  0  0  0  0  0  0  0  0  0  0  0
   57.2900   32.3710   51.7640 C   0  0  0  0  0  0  0  0  0  0  0  0
   56.3379   32.8824   51.9689 H   0  0  0  0  0  0  0  0  0  0  0  0
   58.5020   33.0280   52.0260 C   0  0  0  0  0  0  0  0  0  0  0  0
   58.4510   34.4170   52.6160 C   0  0  0  0  0  0  0  0  0  0  0  0
   58.4535   34.3493   53.7139 H   0  0  0  0  0  0  0  0  0  0  0  0
   59.3287   34.9897   52.2819 H   0  0  0  0  0  0  0  0  0  0  0  0
   57.5336   34.9238   52.2819 H   0  0  0  0  0  0  0  0  0  0  0  0
   59.7340   32.3880   51.7170 C   0  0  0  0  0  0  0  0  0  0  0  0
   61.0480   33.0870   52.0020 C   0  0  0  0  0  0  0  0  0  0  0  0
   61.1937   33.1645   53.0895 H   0  0  0  0  0  0  0  0  0  0  0  0
   61.8738   32.5090   51.5617 H   0  0  0  0  0  0  0  0  0  0  0  0
   61.0302   34.0949   51.5617 H   0  0  0  0  0  0  0  0  0  0  0  0
   63.1110   33.8530   46.0510 C   0  0  0  0  0  0  0  0  0  0  0  0
   64.0363   34.4350   46.1740 H   0  0  0  0  0  0  0  0  0  0  0  0
   63.3299   32.9296   45.4947 H   0  0  0  0  0  0  0  0  0  0  0  0
   62.3735   34.4501   45.4947 H   0  0  0  0  0  0  0  0  0  0  0  0
   59.2690   34.7560   48.3390 C   0  0  0  0  0  0  0  0  0  0  0  0
   59.6588   34.4771   49.3291 H   0  0  0  0  0  0  0  0  0  0  0  0
   59.2822   35.8510   48.2349 H   0  0  0  0  0  0  0  0  0  0  0  0
   58.2368   34.3902   48.2349 H   0  0  0  0  0  0  0  0  0  0  0  0
   58.4810   31.0270   46.8680 C   0  0  0  0  0  0  0  0  0  0  0  0
   58.0654   31.6227   47.6941 H   0  0  0  0  0  0  0  0  0  0  0  0
   58.1058   29.9952   46.9350 H   0  0  0  0  0  0  0  0  0  0  0  0
   59.5789   31.0230   46.9350 H   0  0  0  0  0  0  0  0  0  0  0  0
   56.3470   28.6360   45.2590 C   0  0  0  0  0  0  0  0  0  0  0  0
   55.1460   29.3330   45.1760 O   0  0  0  0  0  0  0  0  0  0  0  0
   56.3320   27.2990   45.6770 C   0  0  0  0  0  0  0  0  0  0  0  0
   55.1220   26.6910   45.9950 O   0  0  0  0  0  0  0  0  0  0  0  0
  1  2  1  0
  2  3  1  0
  3  4  2  0
  4  5  1  0
  4  6  1  0
  6  7  1  0
  6  8  2  0
  8  9  1  0
  9 10  1  0
  9 11  1  0
  9 12  1  0
 12 13  2  0
 13 14  1  0
 13 15  1  0
 15 16  1  0
 15 17  2  3
 17 18  1  0
 17 19  1  0
 19 20  2  3
 20 21  1  0
 20 22  1  0
 22 23  2  3
 23 24  1  0
 23 25  1  0
 25 26  1  0
 25 27  2  3
 27 28  1  0
 27 29  1  0
 29 30  2  0
 29 31  1  0
 31 32  1  0
 31 33  1  0
 31 34  1  0
 34 35  2  0
 35 36  1  0
 35 37  1  0
 37 38  1  0
 37 39  2  0
 39 40  1  0
 39 41  1  0
 41 42  1  0
 42 43  1  0
 42 44  1  0
 42 45  1  0
 41 46  2  0
 46 47  1  0
 47 48  1  0
 47 49  1  0
 47 50  1  0
 22 51  1  0
 51 52  1  0
 51 53  1  0
 51 54  1  0
 19 55  1  0
 55 56  1  0
 55 57  1  0
 55 58  1  0
 12 59  1  0
 59 60  1  0
 59 61  1  0
 59 62  1  0
  8 63  1  0
 63 64  1  0
 63 65  2  0
 65 66  1  0
 65  3  1  0
 46 34  1  0
M  CHG  2  64  -1  66  -1
M  END
>  <UniqueID>  (30) 
29

>  <SMILES>  (30) 
CC(=CC=CC(=O)Cc1cccc(C)c1C)C=C(C)C=C/C=C(/C)Cc1ccc(O)c([O-])c1[O-]

>  <Energy>  (30) 
73.93328115116346

>  <Genealogy>  (30) 
CC(=CC=CC(=O)Cc1cccc(C)c1C)C=C(C)C=CC=C(C)Cc1ccc(O)c([O-])c1[O-] (protonated)
CC(=CC=CC(=O)Cc1cccc(C)c1C)C=C(C)C=C/C=C(/C)Cc1ccc(O)c([O-])c1[O-] (cis-trans isomerization)
CC(=CC=CC(=O)Cc1cccc(C)c1C)C=C(C)C=C/C=C(/C)Cc1ccc(O)c([O-])c1[O-] (3D coordinates assigned)
CC(=CC=CC(=O)Cc1cccc(C)c1C)C=C(C)C=C/C=C(/C)Cc1ccc(O)c([O-])c1[O-] (optimized conformer: 73.93328115116346 kcal/mol)

>  <smiles>  (30) 
CC(=CC=CC(=O)Cc1cccc(C)c1C)C=C(C)C=CC=C(C)Cc1ccc(O)c(O)c1O

>  <score_type>  (30) 
oracle

>  <origin>  (30) 
adg

>  <m_score__min__energy>  (30) 
-15.630000000000001

>  <m_primary>  (30) 
energy

$$$$
30:0
     RDKit          3D

 36 38  0  0  0  0  0  0  0  0999 V2000
   58.5067   28.0421   42.7502 H   0  0  0  0  0  0  0  0  0  0  0  0
   57.9940   27.1240   43.0730 C   0  0  0  0  0  0  0  0  0  0  0  0
   57.4428   26.5155   42.3410 H   0  0  0  0  0  0  0  0  0  0  0  0
   58.0410   26.7460   44.3610 C   0  0  0  0  0  0  0  0  0  0  0  0
   57.4400   25.6100   44.9100 C   0  0  0  0  0  0  0  0  0  0  0  0
   56.6850   24.6920   44.2740 C   0  0  0  0  0  0  0  0  0  0  0  0
   57.0328   24.3136   43.3015 H   0  0  0  0  0  0  0  0  0  0  0  0
   55.4120   24.1670   44.8170 C   0  0  0  0  0  0  0  0  0  0  0  0
   54.5020   24.9950   45.4990 C   0  0  0  0  0  0  0  0  0  0  0  0
   54.7690   26.3460   45.6840 O   0  0  0  0  0  0  0  0  0  0  0  0
   53.3550   24.4700   46.0020 N   0  0  0  0  0  0  0  0  0  0  0  0
   53.0730   23.1480   45.8760 C   0  0  0  0  0  0  0  0  0  0  0  0
   52.0030   22.6860   46.3470 O   0  0  0  0  0  0  0  0  0  0  0  0
   53.9490   22.3240   45.2480 N   0  0  0  0  0  0  0  0  0  0  0  0
   55.1090   22.7990   44.7250 C   0  0  0  0  0  0  0  0  0  0  0  0
   55.9010   22.0030   44.1510 O   0  0  0  0  0  0  0  0  0  0  0  0
   57.7320   25.6300   46.2670 C   0  0  0  0  0  0  0  0  0  0  0  0
   57.4178   24.8898   47.0176 H   0  0  0  0  0  0  0  0  0  0  0  0
   58.4930   26.7590   46.4910 C   0  0  0  0  0  0  0  0  0  0  0  0
   59.0210   27.1710   47.8310 C   0  0  0  0  0  0  0  0  0  0  0  0
   58.4189   26.7012   48.6226 H   0  0  0  0  0  0  0  0  0  0  0  0
   60.0684   26.8491   47.9272 H   0  0  0  0  0  0  0  0  0  0  0  0
   58.9634   28.2653   47.9272 H   0  0  0  0  0  0  0  0  0  0  0  0
   58.6960   27.4340   45.3340 N   0  0  0  0  0  0  0  0  0  0  0  0
   59.4180   28.7060   45.1930 C   0  0  0  0  0  0  0  0  0  0  0  0
   60.0493   28.8652   46.0796 H   0  0  0  0  0  0  0  0  0  0  0  0
   60.0425   28.6647   44.2884 H   0  0  0  0  0  0  0  0  0  0  0  0
   58.4470   29.8450   45.0650 C   0  0  0  0  0  0  0  0  0  0  0  0
   57.1800   29.5990   44.6350 N   0  0  0  0  0  0  0  0  0  0  0  0
   56.2750   30.6030   44.5050 C   0  0  0  0  0  0  0  0  0  0  0  0
   55.1100   30.3490   44.1030 O   0  0  0  0  0  0  0  0  0  0  0  0
   56.6260   31.8800   44.8070 N   0  0  0  0  0  0  0  0  0  0  0  0
   57.8780   32.1730   45.2430 C   0  0  0  0  0  0  0  0  0  0  0  0
   58.1820   33.3630   45.5190 O   0  0  0  0  0  0  0  0  0  0  0  0
   58.8230   31.1560   45.3840 C   0  0  0  0  0  0  0  0  0  0  0  0
   59.8404   31.3789   45.7377 H   0  0  0  0  0  0  0  0  0  0  0  0
  1  2  1  0
  2  3  1  0
  2  4  2  0
  4  5  1  0
  5  6  2  0
  6  7  1  0
  6  8  1  0
  8  9  2  0
  9 10  1  0
  9 11  1  0
 11 12  1  0
 12 13  2  0
 12 14  1  0
 14 15  1  0
 15 16  2  0
  5 17  1  0
 17 18  1  0
 17 19  2  0
 19 20  1  0
 20 21  1  0
 20 22  1  0
 20 23  1  0
 19 24  1  0
 24 25  1  0
 25 26  1  0
 25 27  1  0
 25 28  1  0
 28 29  1  0
 29 30  1  0
 30 31  2  0
 30 32  1  0
 32 33  1  0
 33 34  2  0
 33 35  1  0
 35 36  1  0
 24  4  1  0
 35 28  2  0
 15  8  1  0
M  CHG  5  10  -1  11  -1  14  -1  29  -1  32  -1
M  END
>  <UniqueID>  (31) 
30

>  <SMILES>  (31) 
C=c1/c(=C/c2c([O-])[n-]c(=O)[n-]c2=O)cc(C)n1Cc1cc(=O)[n-]c(=O)[n-]1

>  <Energy>  (31) 
77.46526421769812

>  <Genealogy>  (31) 
C=c1c(=Cc2c([O-])[n-]c(=O)[n-]c2=O)cc(C)n1Cc1cc(=O)[n-]c(=O)[n-]1 (protonated)
C=c1/c(=C/c2c([O-])[n-]c(=O)[n-]c2=O)cc(C)n1Cc1cc(=O)[n-]c(=O)[n-]1 (cis-trans isomerization)
C=c1/c(=C/c2c([O-])[n-]c(=O)[n-]c2=O)cc(C)n1Cc1cc(=O)[n-]c(=O)[n-]1 (3D coordinates assigned)
C=c1/c(=C/c2c([O-])[n-]c(=O)[n-]c2=O)cc(C)n1Cc1cc(=O)[n-]c(=O)[n-]1 (optimized conformer: 77.46526421769812 kcal/mol)

>  <smiles>  (31) 
C=c1c(=Cc2c(O)[nH]c(=O)[nH]c2=O)cc(C)n1Cc1cc(=O)[nH]c(=O)[nH]1

>  <score_type>  (31) 
oracle

>  <origin>  (31) 
adg

>  <m_score__min__energy>  (31) 
-17.120000000000001

>  <m_primary>  (31) 
energy

$$$$
31:0
     RDKit          3D

 61 63  0  0  0  0  0  0  0  0999 V2000
   60.6420   27.6210   45.7040 C   0  0  0  0  0  0  0  0  0  0  0  0
   59.8480   27.0540   46.8260 N   0  0  0  0  0  0  0  0  0  0  0  0
   60.7800   26.3610   47.7530 C   0  0  0  0  0  0  0  0  0  0  0  0
   59.1940   28.2110   47.5180 C   0  0  0  0  0  0  0  0  0  0  0  0
   59.7000   28.5030   48.9500 C   0  0  0  0  0  0  0  0  0  0  0  0
   59.3630   29.9220   49.3290 C   0  0  0  0  0  0  0  0  0  0  0  0
   59.3770   30.3140   50.6770 C   0  0  0  0  0  0  0  0  0  0  0  0
   58.9950   31.6110   51.0360 C   0  0  0  0  0  0  0  0  0  0  0  0
   58.5900   32.5210   50.0550 C   0  0  0  0  0  0  0  0  0  0  0  0
   58.5600   32.1340   48.7130 C   0  0  0  0  0  0  0  0  0  0  0  0
   58.9410   30.8380   48.3500 C   0  0  0  0  0  0  0  0  0  0  0  0
   58.8150   26.1040   46.3030 C   0  0  0  0  0  0  0  0  0  0  0  0
   57.4440   26.7290   46.1460 C   0  0  0  0  0  0  0  0  0  0  0  0
   56.5940   26.6130   47.0680 O   0  0  0  0  0  0  0  0  0  0  0  0
   57.0590   27.3460   44.9140 N   0  0  0  0  0  0  0  0  0  0  0  0
   57.2030   28.7470   44.6570 C   0  0  0  0  0  0  0  0  0  0  0  0
   58.4750   29.3420   44.6620 C   0  0  0  0  0  0  0  0  0  0  0  0
   58.6020   30.7250   44.5290 C   0  0  0  0  0  0  0  0  0  0  0  0
   57.4670   31.5220   44.3430 C   0  0  0  0  0  0  0  0  0  0  0  0
   57.6110   33.3080   44.2090 S   0  0  0  0  0  0  0  0  0  0  0  0
   57.9700   33.5970   45.9800 C   0  0  0  0  0  0  0  0  0  0  0  0
   59.0570   34.6270   46.1040 C   0  0  0  0  0  0  0  0  0  0  0  0
   59.2860   35.3950   45.1310 O   0  0  0  0  0  0  0  0  0  0  0  0
   59.7790   34.8250   47.3250 N   0  0  0  0  0  0  0  0  0  0  0  0
   60.9540   34.1260   47.7460 C   0  0  0  0  0  0  0  0  0  0  0  0
   61.7630   33.4230   46.8350 C   0  0  0  0  0  0  0  0  0  0  0  0
   62.9590   32.8370   47.2640 C   0  0  0  0  0  0  0  0  0  0  0  0
   63.3650   32.9590   48.6000 C   0  0  0  0  0  0  0  0  0  0  0  0
   64.5730   32.4120   49.0230 O   0  0  0  0  0  0  0  0  0  0  0  0
   62.5570   33.6510   49.5120 C   0  0  0  0  0  0  0  0  0  0  0  0
   62.9460   33.7680   50.8430 O   0  0  0  0  0  0  0  0  0  0  0  0
   61.3620   34.2380   49.0830 C   0  0  0  0  0  0  0  0  0  0  0  0
   56.1990   30.9280   44.3080 C   0  0  0  0  0  0  0  0  0  0  0  0
   56.0640   29.5480   44.4890 C   0  0  0  0  0  0  0  0  0  0  0  0
   54.7990   28.9760   44.4970 O   0  0  0  0  0  0  0  0  0  0  0  0
   61.4747   28.2156   46.1078 H   0  0  0  0  0  0  0  0  0  0  0  0
   61.0413   26.8025   45.0870 H   0  0  0  0  0  0  0  0  0  0  0  0
   59.9974   28.2643   45.0870 H   0  0  0  0  0  0  0  0  0  0  0  0
   60.4908   26.5760   48.7923 H   0  0  0  0  0  0  0  0  0  0  0  0
   60.7336   25.2762   47.5765 H   0  0  0  0  0  0  0  0  0  0  0  0
   61.8055   26.7177   47.5765 H   0  0  0  0  0  0  0  0  0  0  0  0
   59.3642   29.1107   46.9084 H   0  0  0  0  0  0  0  0  0  0  0  0
   58.1330   27.9400   47.6221 H   0  0  0  0  0  0  0  0  0  0  0  0
   59.2173   27.8115   49.6563 H   0  0  0  0  0  0  0  0  0  0  0  0
   60.7909   28.3660   48.9856 H   0  0  0  0  0  0  0  0  0  0  0  0
   59.6891   29.5995   51.4529 H   0  0  0  0  0  0  0  0  0  0  0  0
   59.0133   31.9156   52.0928 H   0  0  0  0  0  0  0  0  0  0  0  0
   58.2950   33.5417   50.3398 H   0  0  0  0  0  0  0  0  0  0  0  0
   58.2367   32.8485   47.9417 H   0  0  0  0  0  0  0  0  0  0  0  0
   58.9102   30.5342   47.2932 H   0  0  0  0  0  0  0  0  0  0  0  0
   59.1452   25.7372   45.3199 H   0  0  0  0  0  0  0  0  0  0  0  0
   58.7185   25.2930   47.0398 H   0  0  0  0  0  0  0  0  0  0  0  0
   59.3731   28.7163   44.7710 H   0  0  0  0  0  0  0  0  0  0  0  0
   59.5978   31.1905   44.5705 H   0  0  0  0  0  0  0  0  0  0  0  0
   57.0620   33.9583   46.4849 H   0  0  0  0  0  0  0  0  0  0  0  0
   58.2975   32.6570   46.4481 H   0  0  0  0  0  0  0  0  0  0  0  0
   61.4547   33.3337   45.7829 H   0  0  0  0  0  0  0  0  0  0  0  0
   63.5827   32.2787   46.5504 H   0  0  0  0  0  0  0  0  0  0  0  0
   64.9210   32.5600   49.9650 H   0  0  0  0  0  0  0  0  0  0  0  0
   60.7376   34.7916   49.7997 H   0  0  0  0  0  0  0  0  0  0  0  0
   55.3070   31.5487   44.1377 H   0  0  0  0  0  0  0  0  0  0  0  0
  1  2  1  0
  2  3  1  0
  2  4  1  0
  4  5  1  0
  5  6  1  0
  6  7  2  0
  7  8  1  0
  8  9  2  0
  9 10  1  0
 10 11  2  0
  2 12  1  0
 12 13  1  0
 13 14  2  0
 13 15  1  0
 15 16  1  0
 16 17  2  0
 17 18  1  0
 18 19  2  0
 19 20  1  0
 20 21  1  0
 21 22  1  0
 22 23  2  0
 22 24  1  0
 24 25  1  0
 25 26  2  0
 26 27  1  0
 27 28  2  0
 28 29  1  0
 28 30  1  0
 30 31  1  0
 30 32  2  0
 19 33  1  0
 33 34  2  0
 34 35  1  0
 11  6  1  0
 34 16  1  0
 32 25  1  0
  1 36  1  0
  1 37  1  0
  1 38  1  0
  3 39  1  0
  3 40  1  0
  3 41  1  0
  4 42  1  0
  4 43  1  0
  5 44  1  0
  5 45  1  0
  7 46  1  0
  8 47  1  0
  9 48  1  0
 10 49  1  0
 11 50  1  0
 12 51  1  0
 12 52  1  0
 17 53  1  0
 18 54  1  0
 21 55  1  0
 21 56  1  0
 26 57  1  0
 27 58  1  0
 29 59  1  0
 32 60  1  0
 33 61  1  0
M  CHG  5   2   1  15  -1  24  -1  31  -1  35  -1
M  END
>  <UniqueID>  (32) 
31

>  <SMILES>  (32) 
C[N+](C)(CCc1ccccc1)CC(=O)[N-]c1ccc(SCC(=O)[N-]c2ccc(O)c([O-])c2)cc1[O-]

>  <Energy>  (32) 
78.77329043424331

>  <Genealogy>  (32) 
C[N+](C)(CCc1ccccc1)CC(=O)[N-]c1ccc(SCC(=O)[N-]c2ccc(O)c([O-])c2)cc1[O-] (protonated)
C[N+](C)(CCc1ccccc1)CC(=O)[N-]c1ccc(SCC(=O)[N-]c2ccc(O)c([O-])c2)cc1[O-] (3D coordinates assigned)
C[N+](C)(CCc1ccccc1)CC(=O)[N-]c1ccc(SCC(=O)[N-]c2ccc(O)c([O-])c2)cc1[O-] (optimized conformer: 78.77329043424331 kcal/mol)

>  <smiles>  (32) 
C[N+](C)(CCc1ccccc1)CC(=O)Nc1ccc(SCC(=O)Nc2ccc(O)c(O)c2)cc1O

>  <score_type>  (32) 
oracle

>  <origin>  (32) 
adg

>  <m_score__min__energy>  (32) 
-13.77

>  <m_primary>  (32) 
energy

$$$$
32:0
     RDKit          3D

 40 42  0  0  0  0  0  0  0  0999 V2000
   56.2033   30.1462   42.4333 H   0  0  0  0  0  0  0  0  0  0  0  0
   55.9080   29.8840   43.4600 C   0  0  0  0  0  0  0  0  0  0  0  0
   54.7550   29.4290   43.6650 O   0  0  0  0  0  0  0  0  0  0  0  0
   56.8770   30.0770   44.5540 C   0  0  0  0  0  0  0  0  0  0  0  0
   57.3730   31.2230   45.2190 C   0  0  0  0  0  0  0  0  0  0  0  0
   57.1740   32.4800   44.9410 N   0  0  0  0  0  0  0  0  0  0  0  0
   58.1560   33.4890   44.5690 C   0  0  0  0  0  0  0  0  0  0  0  0
   57.6418   34.4257   44.3080 H   0  0  0  0  0  0  0  0  0  0  0  0
   58.7355   33.1418   43.7009 H   0  0  0  0  0  0  0  0  0  0  0  0
   59.0700   33.7250   45.7240 C   0  0  0  0  0  0  0  0  0  0  0  0
   60.4160   33.6920   45.6270 N   0  0  0  0  0  0  0  0  0  0  0  0
   61.0140   33.8750   46.8350 C   0  0  0  0  0  0  0  0  0  0  0  0
   62.4990   33.8390   46.9930 C   0  0  0  0  0  0  0  0  0  0  0  0
   62.7538   33.8328   48.0631 H   0  0  0  0  0  0  0  0  0  0  0  0
   62.8966   32.9310   46.5161 H   0  0  0  0  0  0  0  0  0  0  0  0
   62.9401   34.7267   46.5161 H   0  0  0  0  0  0  0  0  0  0  0  0
   60.1430   34.0210   47.9120 C   0  0  0  0  0  0  0  0  0  0  0  0
   60.4306   34.1659   48.9638 H   0  0  0  0  0  0  0  0  0  0  0  0
   58.5730   33.9360   47.3160 S   0  0  0  0  0  0  0  0  0  0  0  0
   58.2230   30.8580   46.2080 N   0  0  0  0  0  0  0  0  0  0  0  0
   58.2910   29.5380   46.1860 N   0  0  0  0  0  0  0  0  0  0  0  0
   59.0270   28.7400   46.9980 C   0  0  0  0  0  0  0  0  0  0  0  0
   59.7570   29.2290   47.9010 O   0  0  0  0  0  0  0  0  0  0  0  0
   58.9540   27.3530   46.8040 C   0  0  0  0  0  0  0  0  0  0  0  0
   59.5388   26.6672   47.4346 H   0  0  0  0  0  0  0  0  0  0  0  0
   58.1140   26.8530   45.7820 C   0  0  0  0  0  0  0  0  0  0  0  0
   58.0330   25.3790   45.5230 C   0  0  0  0  0  0  0  0  0  0  0  0
   58.9105   25.0608   44.9409 H   0  0  0  0  0  0  0  0  0  0  0  0
   58.0120   24.8402   46.4818 H   0  0  0  0  0  0  0  0  0  0  0  0
   56.8140   25.0790   44.7700 N   0  0  0  0  0  0  0  0  0  0  0  0
   56.6230   25.8840   44.1280 H   0  0  0  0  0  0  0  0  0  0  0  0
   55.4570   24.9720   45.8520 S   0  0  0  0  0  0  0  0  0  0  0  0
   55.9070   24.5020   47.2060 O   0  0  0  0  0  0  0  0  0  0  0  0
   54.8340   26.3330   45.9870 O   0  0  0  0  0  0  0  0  0  0  0  0
   54.2380   23.8470   45.2050 C   0  0  0  0  0  0  0  0  0  0  0  0
   53.7100   23.3597   46.0380 H   0  0  0  0  0  0  0  0  0  0  0  0
   53.5163   24.4031   44.5887 H   0  0  0  0  0  0  0  0  0  0  0  0
   54.7346   23.0831   44.5887 H   0  0  0  0  0  0  0  0  0  0  0  0
   57.4070   27.7160   44.9930 N   0  0  0  0  0  0  0  0  0  0  0  0
   57.5140   29.0500   45.2140 C   0  0  0  0  0  0  0  0  0  0  0  0
  1  2  1  0
  2  3  2  0
  2  4  1  0
  4  5  1  0
  5  6  2  0
  6  7  1  0
  7  8  1  0
  7  9  1  0
  7 10  1  0
 10 11  2  0
 11 12  1  0
 12 13  1  0
 13 14  1  0
 13 15  1  0
 13 16  1  0
 12 17  2  0
 17 18  1  0
 17 19  1  0
  5 20  1  0
 20 21  1  0
 21 22  1  0
 22 23  2  0
 22 24  1  0
 24 25  1  0
 24 26  2  0
 26 27  1  0
 27 28  1  0
 27 29  1  0
 27 30  1  0
 30 31  1  0
 30 32  1  0
 32 33  2  0
 32 34  2  0
 32 35  1  0
 35 36  1  0
 35 37  1  0
 35 38  1  0
 26 39  1  0
 39 40  1  0
 40  4  2  0
 19 10  1  0
 40 21  1  0
M  CHG  2  20  -1  39  -1
M  END
>  <UniqueID>  (33) 
32

>  <SMILES>  (33) 
Cc1csc(C/N=c2/[n-]n3c(=O)cc(CNS(C)(=O)=O)[n-]c3c2C=O)n1

>  <Energy>  (33) 
107.42171955445497

>  <Genealogy>  (33) 
Cc1csc(CN=c2[n-]n3c(=O)cc(CNS(C)(=O)=O)[n-]c3c2C=O)n1 (protonated)
Cc1csc(C/N=c2/[n-]n3c(=O)cc(CNS(C)(=O)=O)[n-]c3c2C=O)n1 (cis-trans isomerization)
Cc1csc(C/N=c2/[n-]n3c(=O)cc(CNS(C)(=O)=O)[n-]c3c2C=O)n1 (3D coordinates assigned)
Cc1csc(C/N=c2/[n-]n3c(=O)cc(CNS(C)(=O)=O)[n-]c3c2C=O)n1 (optimized conformer: 107.42171955445497 kcal/mol)

>  <smiles>  (33) 
Cc1csc(CN=c2[nH]n3c(=O)cc(CNS(C)(=O)=O)[nH]c3c2C=O)n1

>  <score_type>  (33) 
oracle

>  <origin>  (33) 
adg

>  <m_score__min__energy>  (33) 
-11.1

>  <m_primary>  (33) 
energy

$$$$
33:0
     RDKit          3D

 55 58  0  0  0  0  0  0  0  0999 V2000
   57.7469   32.5781   43.2997 H   0  0  0  0  0  0  0  0  0  0  0  0
   57.9710   32.0010   44.2090 C   0  0  0  0  0  0  0  0  0  0  0  0
   58.2540   30.6360   44.1130 C   0  0  0  0  0  0  0  0  0  0  0  0
   58.2462   30.1445   43.1289 H   0  0  0  0  0  0  0  0  0  0  0  0
   58.5480   29.8880   45.2630 C   0  0  0  0  0  0  0  0  0  0  0  0
   58.8640   28.4180   45.1610 C   0  0  0  0  0  0  0  0  0  0  0  0
   59.5586   28.2558   44.3236 H   0  0  0  0  0  0  0  0  0  0  0  0
   59.3202   28.0893   46.1064 H   0  0  0  0  0  0  0  0  0  0  0  0
   57.6830   27.6620   44.9390 O   0  0  0  0  0  0  0  0  0  0  0  0
   57.4180   26.8050   46.0400 C   0  0  0  0  0  0  0  0  0  0  0  0
   58.3435   26.2769   46.3130 H   0  0  0  0  0  0  0  0  0  0  0  0
   57.0571   27.4199   46.8777 H   0  0  0  0  0  0  0  0  0  0  0  0
   56.3550   25.7900   45.7050 C   0  0  0  0  0  0  0  0  0  0  0  0
   55.1590   26.0210   46.0400 O   0  0  0  0  0  0  0  0  0  0  0  0
   56.6810   24.5570   45.0210 N   0  0  0  0  0  0  0  0  0  0  0  0
   58.0820   24.1490   44.8230 C   0  0  0  0  0  0  0  0  0  0  0  0
   58.4793   24.6409   43.9229 H   0  0  0  0  0  0  0  0  0  0  0  0
   58.6687   24.4454   45.7050 H   0  0  0  0  0  0  0  0  0  0  0  0
   58.1750   22.6300   44.6510 C   0  0  0  0  0  0  0  0  0  0  0  0
   59.2005   22.3625   44.3562 H   0  0  0  0  0  0  0  0  0  0  0  0
   57.9137   22.1503   45.6058 H   0  0  0  0  0  0  0  0  0  0  0  0
   57.2740   22.1810   43.6560 O   0  0  0  0  0  0  0  0  0  0  0  0
   55.9450   22.3960   44.0920 C   0  0  0  0  0  0  0  0  0  0  0  0
   55.2505   21.9477   43.3662 H   0  0  0  0  0  0  0  0  0  0  0  0
   55.8191   21.9308   45.0808 H   0  0  0  0  0  0  0  0  0  0  0  0
   55.6470   23.8930   44.2130 C   0  0  0  0  0  0  0  0  0  0  0  0
   55.6282   24.3413   43.2087 H   0  0  0  0  0  0  0  0  0  0  0  0
   54.6712   24.0245   44.7035 H   0  0  0  0  0  0  0  0  0  0  0  0
   58.5270   30.5190   46.5180 C   0  0  0  0  0  0  0  0  0  0  0  0
   58.7322   29.9349   47.4272 H   0  0  0  0  0  0  0  0  0  0  0  0
   58.2470   31.8840   46.6180 C   0  0  0  0  0  0  0  0  0  0  0  0
   58.2419   32.3702   47.6047 H   0  0  0  0  0  0  0  0  0  0  0  0
   57.9710   32.6420   45.4620 C   0  0  0  0  0  0  0  0  0  0  0  0
   57.7270   34.1000   45.5610 C   0  0  0  0  0  0  0  0  0  0  0  0
   56.6450   34.5980   45.1410 O   0  0  0  0  0  0  0  0  0  0  0  0
   58.7240   34.9630   46.1150 N   0  0  0  0  0  0  0  0  0  0  0  0
   59.7680   34.5220   46.7500 C   0  0  0  0  0  0  0  0  0  0  0  0
   60.9260   34.2250   46.1090 N   0  0  0  0  0  0  0  0  0  0  0  0
   61.8770   33.8320   46.9980 C   0  0  0  0  0  0  0  0  0  0  0  0
   63.1810   33.4800   46.6490 C   0  0  0  0  0  0  0  0  0  0  0  0
   63.4988   33.4786   45.5959 H   0  0  0  0  0  0  0  0  0  0  0  0
   64.0810   33.1270   47.6700 C   0  0  0  0  0  0  0  0  0  0  0  0
   65.1159   32.8564   47.4134 H   0  0  0  0  0  0  0  0  0  0  0  0
   63.6710   33.1160   49.0210 C   0  0  0  0  0  0  0  0  0  0  0  0
   64.8280   32.7160   50.2860 S   0  0  0  0  0  0  0  0  0  0  0  0
   66.2310   32.8490   49.7600 O   0  0  0  0  0  0  0  0  0  0  0  0
   64.6150   31.3020   50.7430 O   0  0  0  0  0  0  0  0  0  0  0  0
   64.5960   33.8280   51.6570 C   0  0  0  0  0  0  0  0  0  0  0  0
   64.7113   33.2752   52.6010 H   0  0  0  0  0  0  0  0  0  0  0  0
   65.3459   34.6313   51.6085 H   0  0  0  0  0  0  0  0  0  0  0  0
   63.5875   34.2644   51.6085 H   0  0  0  0  0  0  0  0  0  0  0  0
   62.3530   33.4780   49.3590 C   0  0  0  0  0  0  0  0  0  0  0  0
   62.0205   33.4857   50.4075 H   0  0  0  0  0  0  0  0  0  0  0  0
   61.4820   33.8260   48.3300 C   0  0  0  0  0  0  0  0  0  0  0  0
   59.8810   34.3200   48.4370 S   0  0  0  0  0  0  0  0  0  0  0  0
  1  2  1  0
  2  3  2  0
  3  4  1  0
  3  5  1  0
  5  6  1  0
  6  7  1  0
  6  8  1  0
  6  9  1  0
  9 10  1  0
 10 11  1  0
 10 12  1  0
 10 13  1  0
 13 14  2  0
 13 15  1  0
 15 16  1  0
 16 17  1  0
 16 18  1  0
 16 19  1  0
 19 20  1  0
 19 21  1  0
 19 22  1  0
 22 23  1  0
 23 24  1  0
 23 25  1  0
 23 26  1  0
 26 27  1  0
 26 28  1  0
  5 29  2  0
 29 30  1  0
 29 31  1  0
 31 32  1  0
 31 33  2  0
 33 34  1  0
 34 35  2  0
 34 36  1  0
 36 37  2  0
 37 38  1  0
 38 39  1  0
 39 40  2  0
 40 41  1  0
 40 42  1  0
 42 43  1  0
 42 44  2  0
 44 45  1  0
 45 46  2  0
 45 47  2  0
 45 48  1  0
 48 49  1  0
 48 50  1  0
 48 51  1  0
 44 52  1  0
 52 53  1  0
 52 54  2  0
 54 55  1  0
 33  2  1  0
 55 37  1  0
 26 15  1  0
 54 39  1  0
M  CHG  1  38  -1
M  END
>  <UniqueID>  (34) 
33

>  <SMILES>  (34) 
CS(=O)(=O)c1ccc2[n-]/c(=N/C(=O)c3ccc(COCC(=O)N4CCOCC4)cc3)sc2c1

>  <Energy>  (34) 
104.91416288125653

>  <Genealogy>  (34) 
CS(=O)(=O)c1ccc2[n-]c(=NC(=O)c3ccc(COCC(=O)N4CCOCC4)cc3)sc2c1 (protonated)
CS(=O)(=O)c1ccc2[n-]/c(=N/C(=O)c3ccc(COCC(=O)N4CCOCC4)cc3)sc2c1 (cis-trans isomerization)
CS(=O)(=O)c1ccc2[n-]/c(=N/C(=O)c3ccc(COCC(=O)N4CCOCC4)cc3)sc2c1 (3D coordinates assigned)
CS(=O)(=O)c1ccc2[n-]/c(=N/C(=O)c3ccc(COCC(=O)N4CCOCC4)cc3)sc2c1 (nonaromatic ring conformer: 104.91416288125653 kcal/mol)

>  <smiles>  (34) 
CS(=O)(=O)c1ccc2[nH]c(=NC(=O)c3ccc(COCC(=O)N4CCOCC4)cc3)sc2c1

>  <score_type>  (34) 
oracle

>  <origin>  (34) 
adg

>  <m_score__min__energy>  (34) 
-11.42

>  <m_primary>  (34) 
energy

$$$$
34:0
     RDKit          3D

 40 41  0  0  0  0  0  0  0  0999 V2000
   63.7500   32.8610   46.8330 C   0  0  0  0  0  0  0  0  0  0  0  0
   62.6880   33.8340   47.3670 C   0  0  1  0  0  0  0  0  0  0  0  0
   61.3810   33.7170   46.5590 C   0  0  0  0  0  0  0  0  0  0  0  0
   60.1850   34.1970   47.3760 C   0  0  0  0  0  0  0  0  0  0  0  0
   60.0180   33.4030   48.6920 C   0  0  0  0  0  0  0  0  0  0  0  0
   61.2850   32.8370   49.2400 N   0  0  1  0  0  0  0  0  0  0  0  0
   61.5020   31.4370   48.8970 C   0  0  0  0  0  0  0  0  0  0  0  0
   62.4600   30.7990   49.4200 O   0  0  0  0  0  0  0  0  0  0  0  0
   60.5970   30.6990   47.9620 C   0  0  0  0  0  0  0  0  0  0  0  0
   59.4060   30.1310   48.4570 C   0  0  0  0  0  0  0  0  0  0  0  0
   58.5340   29.4440   47.6080 C   0  0  0  0  0  0  0  0  0  0  0  0
   58.8350   29.3010   46.2470 C   0  0  0  0  0  0  0  0  0  0  0  0
   57.8770   28.5970   45.3270 C   0  0  0  0  0  0  0  0  0  0  0  0
   56.7750   29.7700   44.5550 S   0  0  0  0  0  0  0  0  0  0  0  0
   55.1320   29.3420   44.8790 N   0  0  0  0  0  0  0  0  0  0  0  0
   57.0070   29.7860   43.0710 O   0  0  0  0  0  0  0  0  0  0  0  0
   57.0460   31.1400   45.1130 O   0  0  0  0  0  0  0  0  0  0  0  0
   60.0160   29.8640   45.7440 C   0  0  0  0  0  0  0  0  0  0  0  0
   60.8910   30.5510   46.5910 C   0  0  0  0  0  0  0  0  0  0  0  0
   62.4650   33.6690   48.8970 C   0  0  0  0  0  0  0  0  0  0  0  0
   64.2693   32.3852   47.6780 H   0  0  0  0  0  0  0  0  0  0  0  0
   63.2639   32.0883   46.2193 H   0  0  0  0  0  0  0  0  0  0  0  0
   64.4773   33.4127   46.2193 H   0  0  0  0  0  0  0  0  0  0  0  0
   63.0649   34.8578   47.2264 H   0  0  0  0  0  0  0  0  0  0  0  0
   61.4645   34.3306   45.6499 H   0  0  0  0  0  0  0  0  0  0  0  0
   61.2246   32.6597   46.2989 H   0  0  0  0  0  0  0  0  0  0  0  0
   60.3267   35.2603   47.6197 H   0  0  0  0  0  0  0  0  0  0  0  0
   59.2795   34.0412   46.7712 H   0  0  0  0  0  0  0  0  0  0  0  0
   59.5882   34.0772   49.4475 H   0  0  0  0  0  0  0  0  0  0  0  0
   59.3684   32.5463   48.4594 H   0  0  0  0  0  0  0  0  0  0  0  0
   61.1720   32.8770   50.2780 H   0  0  0  0  0  0  0  0  0  0  0  0
   59.1597   30.2296   49.5245 H   0  0  0  0  0  0  0  0  0  0  0  0
   57.6056   29.0128   48.0107 H   0  0  0  0  0  0  0  0  0  0  0  0
   58.4458   28.0679   44.5482 H   0  0  0  0  0  0  0  0  0  0  0  0
   57.2812   27.8820   45.9134 H   0  0  0  0  0  0  0  0  0  0  0  0
   55.1420   28.6420   45.6550 H   0  0  0  0  0  0  0  0  0  0  0  0
   60.2562   29.7646   44.6751 H   0  0  0  0  0  0  0  0  0  0  0  0
   61.8182   30.9804   46.1836 H   0  0  0  0  0  0  0  0  0  0  0  0
   62.3264   34.6673   49.3377 H   0  0  0  0  0  0  0  0  0  0  0  0
   63.3502   33.1534   49.2978 H   0  0  0  0  0  0  0  0  0  0  0  0
  1  2  1  0
  2  3  1  0
  3  4  1  0
  4  5  1  0
  5  6  1  0
  6  7  1  0
  7  8  2  0
  7  9  1  0
  9 10  2  0
 10 11  1  0
 11 12  2  0
 12 13  1  0
 13 14  1  0
 14 15  1  0
 14 16  2  0
 14 17  2  0
 12 18  1  0
 18 19  2  0
  6 20  1  0
 20  2  1  0
 19  9  1  0
  1 21  1  0
  1 22  1  0
  1 23  1  0
  2 24  1  1
  3 25  1  0
  3 26  1  0
  4 27  1  0
  4 28  1  0
  5 29  1  0
  5 30  1  0
  6 31  1  1
 10 32  1  0
 11 33  1  0
 13 34  1  0
 13 35  1  0
 15 36  1  0
 18 37  1  0
 19 38  1  0
 20 39  1  0
 20 40  1  0
M  CHG  2   6   1  15  -1
M  END
>  <UniqueID>  (35) 
34

>  <SMILES>  (35) 
C[C@H]1CCC[N@@H+](C(=O)c2ccc(CS([NH-])(=O)=O)cc2)C1

>  <Energy>  (35) 
46.3837064465141

>  <Genealogy>  (35) 
CC1CCC[NH+](C(=O)c2ccc(CS([NH-])(=O)=O)cc2)C1 (protonated)
C[C@H]1CCC[N@@H+](C(=O)c2ccc(CS([NH-])(=O)=O)cc2)C1 (chirality)
C[C@H]1CCC[N@@H+](C(=O)c2ccc(CS([NH-])(=O)=O)cc2)C1 (3D coordinates assigned)
C[C@H]1CCC[N@@H+](C(=O)c2ccc(CS([NH-])(=O)=O)cc2)C1 (nonaromatic ring conformer: 46.3837064465141 kcal/mol)

>  <smiles>  (35) 
CC1CCCN(C(=O)c2ccc(CS(N)(=O)=O)cc2)C1

>  <score_type>  (35) 
oracle

>  <origin>  (35) 
adg

>  <m_score__min__energy>  (35) 
-9.4900000000000002

>  <m_primary>  (35) 
energy

$$$$
35:0
     RDKit          3D

 47 50  0  0  0  0  0  0  0  0999 V2000
   57.4440   32.3430   49.7970 O   0  0  0  0  0  0  0  0  0  0  0  0
   58.5490   32.3500   49.1910 C   0  0  0  0  0  0  0  0  0  0  0  0
   58.5950   31.9210   47.7680 C   0  0  0  0  0  0  0  0  0  0  0  0
   59.0540   30.6390   47.4080 C   0  0  0  0  0  0  0  0  0  0  0  0
   59.0860   30.2500   46.0650 C   0  0  0  0  0  0  0  0  0  0  0  0
   58.6520   31.1280   45.0710 C   0  0  0  0  0  0  0  0  0  0  0  0
   58.1890   32.3990   45.4160 C   0  0  0  0  0  0  0  0  0  0  0  0
   58.1530   32.7930   46.7560 C   0  0  0  0  0  0  0  0  0  0  0  0
   59.7650   32.7820   49.9240 C   0  0  0  0  0  0  0  0  0  0  0  0
   60.7940   33.4510   49.2350 C   0  0  0  0  0  0  0  0  0  0  0  0
   61.9490   33.8580   49.9060 C   0  0  0  0  0  0  0  0  0  0  0  0
   62.0850   33.6210   51.2730 C   0  0  0  0  0  0  0  0  0  0  0  0
   61.0670   32.9730   51.9750 C   0  0  0  0  0  0  0  0  0  0  0  0
   59.9080   32.5320   51.3080 C   0  0  0  0  0  0  0  0  0  0  0  0
   58.8610   31.8610   52.0330 N   0  0  0  0  0  0  0  0  0  0  0  0
   58.6600   30.5750   52.0950 C   0  0  0  0  0  0  0  0  0  0  0  0
   57.3810   29.9680   52.5330 C   0  0  0  0  0  0  0  0  0  0  0  0
   56.1640   30.6600   52.4150 C   0  0  0  0  0  0  0  0  0  0  0  0
   56.1800   31.9780   51.9450 O   0  0  0  0  0  0  0  0  0  0  0  0
   54.9890   30.0510   52.7790 N   0  0  0  0  0  0  0  0  0  0  0  0
   53.7320   30.7180   52.5790 C   0  0  0  0  0  0  0  0  0  0  0  0
   53.4170   31.2630   51.3240 C   0  0  0  0  0  0  0  0  0  0  0  0
   52.2070   31.9360   51.1360 C   0  0  0  0  0  0  0  0  0  0  0  0
   51.3080   32.0720   52.1990 C   0  0  0  0  0  0  0  0  0  0  0  0
   50.1070   32.7450   52.0110 O   0  0  0  0  0  0  0  0  0  0  0  0
   51.6190   31.5330   53.4520 C   0  0  0  0  0  0  0  0  0  0  0  0
   52.8270   30.8540   53.6420 C   0  0  0  0  0  0  0  0  0  0  0  0
   55.0110   28.7950   53.3270 C   0  0  0  0  0  0  0  0  0  0  0  0
   53.9410   28.2300   53.6820 O   0  0  0  0  0  0  0  0  0  0  0  0
   56.1860   28.1400   53.4890 N   0  0  0  0  0  0  0  0  0  0  0  0
   57.3650   28.6930   53.1090 C   0  0  0  0  0  0  0  0  0  0  0  0
   58.4320   28.0430   53.2660 O   0  0  0  0  0  0  0  0  0  0  0  0
   59.3893   29.9395   48.1879 H   0  0  0  0  0  0  0  0  0  0  0  0
   59.4540   29.2500   45.7917 H   0  0  0  0  0  0  0  0  0  0  0  0
   58.6747   30.8186   44.0156 H   0  0  0  0  0  0  0  0  0  0  0  0
   57.8517   33.0919   44.6311 H   0  0  0  0  0  0  0  0  0  0  0  0
   57.7765   33.7918   47.0217 H   0  0  0  0  0  0  0  0  0  0  0  0
   60.6875   33.6549   48.1593 H   0  0  0  0  0  0  0  0  0  0  0  0
   62.7534   34.3668   49.3546 H   0  0  0  0  0  0  0  0  0  0  0  0
   62.9952   33.9448   51.7990 H   0  0  0  0  0  0  0  0  0  0  0  0
   61.1711   32.8057   53.0572 H   0  0  0  0  0  0  0  0  0  0  0  0
   59.4832   29.9046   51.8070 H   0  0  0  0  0  0  0  0  0  0  0  0
   56.8970   32.3400   51.3280 H   0  0  0  0  0  0  0  0  0  0  0  0
   54.1239   31.1600   50.4875 H   0  0  0  0  0  0  0  0  0  0  0  0
   51.9611   32.3594   50.1510 H   0  0  0  0  0  0  0  0  0  0  0  0
   50.9130   31.6433   54.2883 H   0  0  0  0  0  0  0  0  0  0  0  0
   53.0676   30.4261   54.6264 H   0  0  0  0  0  0  0  0  0  0  0  0
  1  2  2  0
  2  3  1  0
  3  4  2  0
  4  5  1  0
  5  6  2  0
  6  7  1  0
  7  8  2  0
  2  9  1  0
  9 10  2  0
 10 11  1  0
 11 12  2  0
 12 13  1  0
 13 14  2  0
 14 15  1  0
 15 16  2  3
 16 17  1  0
 17 18  2  0
 18 19  1  0
 18 20  1  0
 20 21  1  0
 21 22  2  0
 22 23  1  0
 23 24  2  0
 24 25  1  0
 24 26  1  0
 26 27  2  0
 20 28  1  0
 28 29  2  0
 28 30  1  0
 30 31  1  0
 31 32  2  0
  8  3  1  0
 14  9  1  0
 31 17  1  0
 27 21  1  0
  4 33  1  0
  5 34  1  0
  6 35  1  0
  7 36  1  0
  8 37  1  0
 10 38  1  0
 11 39  1  0
 12 40  1  0
 13 41  1  0
 16 42  1  0
 19 43  1  0
 22 44  1  0
 23 45  1  0
 26 46  1  0
 27 47  1  0
M  CHG  2  25  -1  30  -1
M  END
>  <UniqueID>  (36) 
35

>  <SMILES>  (36) 
O=C(c1ccccc1)c1ccccc1N=Cc1c(O)n(-c2ccc([O-])cc2)c(=O)[n-]c1=O

>  <Energy>  (36) 
82.45438332454194

>  <Genealogy>  (36) 
O=C(c1ccccc1)c1ccccc1N=Cc1c(O)n(-c2ccc([O-])cc2)c(=O)[n-]c1=O (protonated)
O=C(c1ccccc1)c1ccccc1N=Cc1c(O)n(-c2ccc([O-])cc2)c(=O)[n-]c1=O (3D coordinates assigned)
O=C(c1ccccc1)c1ccccc1N=Cc1c(O)n(-c2ccc([O-])cc2)c(=O)[n-]c1=O (optimized conformer: 82.45438332454194 kcal/mol)

>  <smiles>  (36) 
O=C(c1ccccc1)c1ccccc1N=Cc1c(O)n(-c2ccc(O)cc2)c(=O)[nH]c1=O

>  <score_type>  (36) 
oracle

>  <origin>  (36) 
adg

>  <m_score__min__energy>  (36) 
-13.33

>  <m_primary>  (36) 
energy

$$$$
36:0
     RDKit          3D

 39 42  0  0  1  0  0  0  0  0999 V2000
   57.0800   30.3010   51.3280 N   0  0  0  0  0  0  0  0  0  0  0  0
   58.0390   30.8980   51.0110 C   0  0  0  0  0  0  0  0  0  0  0  0
   59.2280   31.6070   50.6220 C   0  0  0  0  0  0  0  0  0  0  0  0
   60.4470   31.5780   51.2550 C   0  0  0  0  0  0  0  0  0  0  0  0
   61.3330   32.3830   50.5880 N   0  0  0  0  0  0  0  0  0  0  0  0
   60.6830   32.8960   49.5730 N   0  0  0  0  0  0  0  0  0  0  0  0
   61.0450   33.7380   48.6000 C   0  0  0  0  0  0  0  0  0  0  0  0
   62.2030   34.2380   48.4860 N   0  0  0  0  0  0  0  0  0  0  0  0
   63.2370   33.6330   47.7050 C   0  0  0  0  0  0  0  0  0  0  0  0
   63.1890   32.2700   47.1550 C   0  0  0  0  0  0  0  0  0  0  0  0
   63.8300   32.4130   48.4590 C   0  0  0  0  0  0  0  0  0  0  0  0
   60.1390   34.1120   47.6480 N   0  0  0  0  0  0  0  0  0  0  0  0
   58.8750   33.6750   47.6300 C   0  0  0  0  0  0  0  0  0  0  0  0
   58.0210   34.0280   46.7320 N   0  0  0  0  0  0  0  0  0  0  0  0
   57.9590   33.2330   45.5500 C   0  0  0  0  0  0  0  0  0  0  0  0
   58.5220   33.7800   44.4040 C   0  0  0  0  0  0  0  0  0  0  0  0
   58.5030   33.0790   43.2260 C   0  0  0  0  0  0  0  0  0  0  0  0
   57.9150   31.8140   43.1940 C   0  0  0  0  0  0  0  0  0  0  0  0
   57.3550   31.2680   44.3300 C   0  0  0  0  0  0  0  0  0  0  0  0
   56.7550   29.9420   44.2330 C   0  0  0  0  0  0  0  0  0  0  0  0
   57.3270   28.9130   43.4390 N   0  0  0  0  0  0  0  0  0  0  0  0
   55.7030   29.7260   44.8820 O   0  0  0  0  0  0  0  0  0  0  0  0
   57.3820   31.9850   45.5050 C   0  0  0  0  0  0  0  0  0  0  0  0
   58.5160   32.8210   48.6180 N   0  0  0  0  0  0  0  0  0  0  0  0
   59.4080   32.4590   49.5480 C   0  0  0  0  0  0  0  0  0  0  0  0
   60.6770   30.9967   52.1601 H   0  0  0  0  0  0  0  0  0  0  0  0
   62.2950   32.4650   50.9420 H   0  0  0  0  0  0  0  0  0  0  0  0
   63.5118   34.5818   47.2210 H   0  0  0  0  0  0  0  0  0  0  0  0
   62.2215   31.7514   47.0843 H   0  0  0  0  0  0  0  0  0  0  0  0
   63.5128   31.8307   46.2000 H   0  0  0  0  0  0  0  0  0  0  0  0
   63.3377   32.0277   49.3641 H   0  0  0  0  0  0  0  0  0  0  0  0
   64.8088   32.1523   48.8881 H   0  0  0  0  0  0  0  0  0  0  0  0
   60.4200   34.7700   46.8870 H   0  0  0  0  0  0  0  0  0  0  0  0
   58.9840   34.7776   44.4418 H   0  0  0  0  0  0  0  0  0  0  0  0
   58.9465   33.5091   42.3159 H   0  0  0  0  0  0  0  0  0  0  0  0
   57.8979   31.2459   42.2522 H   0  0  0  0  0  0  0  0  0  0  0  0
   57.0070   27.9310   43.5660 H   0  0  0  0  0  0  0  0  0  0  0  0
   58.0620   29.1070   42.7270 H   0  0  0  0  0  0  0  0  0  0  0  0
   56.9384   31.5563   46.4157 H   0  0  0  0  0  0  0  0  0  0  0  0
  1  2  3  0
  2  3  1  0
  3  4  2  0
  4  5  1  0
  5  6  1  0
  6  7  1  0
  7  8  2  0
  8  9  1  0
  9 10  1  0
 10 11  1  0
  7 12  1  0
 12 13  1  0
 13 14  2  0
 14 15  1  0
 15 16  2  0
 16 17  1  0
 17 18  2  0
 18 19  1  0
 19 20  1  0
 20 21  1  0
 20 22  2  0
 19 23  2  0
 13 24  1  0
 24 25  2  0
 25  3  1  0
 25  6  1  0
 11  9  1  0
 23 15  1  0
  4 26  1  0
  5 27  1  0
  9 28  1  0
 10 29  1  0
 10 30  1  0
 11 31  1  0
 11 32  1  0
 12 33  1  0
 16 34  1  0
 17 35  1  0
 18 36  1  0
 21 37  1  0
 21 38  1  0
 23 39  1  0
M  END
>  <smiles>  (37) 
N#Cc1c[nH]n2c(=NC3CC3)[nH]c(=Nc3cccc(C(N)=O)c3)nc12

>  <score_type>  (37) 
oracle

>  <origin>  (37) 
adg

>  <m_score__min__energy>  (37) 
-8.1600000000000001

>  <m_primary>  (37) 
energy

$$$$
37:0
     RDKit          3D

 62 66  0  0  0  0  0  0  0  0999 V2000
   57.9933   23.9195   47.2425 H   0  0  0  0  0  0  0  0  0  0  0  0
   57.7630   24.9520   46.9410 C   0  0  0  0  0  0  0  0  0  0  0  0
   58.6620   25.9440   47.1720 N   0  0  0  0  0  0  0  0  0  0  0  0
   58.4390   27.2390   46.8210 C   0  0  0  0  0  0  0  0  0  0  0  0
   59.3520   28.1150   47.1510 N   0  0  0  0  0  0  0  0  0  0  0  0
   59.2710   29.1300   48.1590 C   0  0  0  0  0  0  0  0  0  0  0  0
   58.4620   28.9790   49.1130 O   0  0  0  0  0  0  0  0  0  0  0  0
   60.1480   30.3210   48.1100 C   0  0  0  0  0  0  0  0  0  0  0  0
   59.9400   31.3900   48.9980 C   0  0  0  0  0  0  0  0  0  0  0  0
   59.1318   31.3310   49.7419 H   0  0  0  0  0  0  0  0  0  0  0  0
   60.7500   32.5270   48.9450 C   0  0  0  0  0  0  0  0  0  0  0  0
   60.5784   33.3543   49.6494 H   0  0  0  0  0  0  0  0  0  0  0  0
   61.7780   32.6190   48.0010 C   0  0  0  0  0  0  0  0  0  0  0  0
   62.6690   33.8350   47.9630 C   0  0  0  0  0  0  0  0  0  0  0  0
   62.6282   34.2745   46.9555 H   0  0  0  0  0  0  0  0  0  0  0  0
   62.3080   34.5462   48.7205 H   0  0  0  0  0  0  0  0  0  0  0  0
   64.1320   33.4850   48.2950 C   0  0  0  0  0  0  0  0  0  0  0  0
   64.5794   32.9711   47.4314 H   0  0  0  0  0  0  0  0  0  0  0  0
   64.6640   34.4214   48.5188 H   0  0  0  0  0  0  0  0  0  0  0  0
   64.2340   32.6050   49.4810 N   0  0  0  0  0  0  0  0  0  0  0  0
   65.6480   32.3120   49.7800 C   0  0  0  0  0  0  0  0  0  0  0  0
   66.0721   31.7213   48.9547 H   0  0  0  0  0  0  0  0  0  0  0  0
   66.1801   33.2680   49.8939 H   0  0  0  0  0  0  0  0  0  0  0  0
   65.8000   31.5150   51.0970 C   0  0  0  0  0  0  0  0  0  0  0  0
   66.4315   30.6341   50.9090 H   0  0  0  0  0  0  0  0  0  0  0  0
   66.2577   32.1777   51.8462 H   0  0  0  0  0  0  0  0  0  0  0  0
   64.5030   31.0670   51.6170 N   0  0  0  0  0  0  0  0  0  0  0  0
   64.0670   30.4190   50.9190 H   0  0  0  0  0  0  0  0  0  0  0  0
   63.5980   32.2080   51.8430 C   0  0  0  0  0  0  0  0  0  0  0  0
   62.5757   31.8253   51.9790 H   0  0  0  0  0  0  0  0  0  0  0  0
   63.9531   32.7430   52.7361 H   0  0  0  0  0  0  0  0  0  0  0  0
   63.5990   33.2090   50.6670 C   0  0  0  0  0  0  0  0  0  0  0  0
   62.5620   33.4834   50.4232 H   0  0  0  0  0  0  0  0  0  0  0  0
   64.1669   34.1044   50.9599 H   0  0  0  0  0  0  0  0  0  0  0  0
   61.9780   31.5630   47.0950 C   0  0  0  0  0  0  0  0  0  0  0  0
   62.7703   31.6366   46.3355 H   0  0  0  0  0  0  0  0  0  0  0  0
   61.1750   30.4190   47.1540 C   0  0  0  0  0  0  0  0  0  0  0  0
   61.3476   29.5922   46.4494 H   0  0  0  0  0  0  0  0  0  0  0  0
   57.2320   27.5630   46.1320 C   0  0  0  0  0  0  0  0  0  0  0  0
   57.0090   28.8500   45.4600 C   0  0  0  0  0  0  0  0  0  0  0  0
   55.7870   29.3000   45.1180 N   0  0  0  0  0  0  0  0  0  0  0  0
   55.9710   30.4540   44.5060 N   0  0  0  0  0  0  0  0  0  0  0  0
   57.3000   30.6730   44.4880 C   0  0  0  0  0  0  0  0  0  0  0  0
   57.9330   31.8820   43.8710 C   0  0  0  0  0  0  0  0  0  0  0  0
   58.8130   31.5730   43.2879 H   0  0  0  0  0  0  0  0  0  0  0  0
   57.1998   32.3741   43.2151 H   0  0  0  0  0  0  0  0  0  0  0  0
   58.3620   32.8530   44.9420 C   0  0  0  0  0  0  0  0  0  0  0  0
   59.2130   33.9270   44.6310 C   0  0  0  0  0  0  0  0  0  0  0  0
   59.6172   34.0289   43.6130 H   0  0  0  0  0  0  0  0  0  0  0  0
   59.5480   34.8670   45.6110 C   0  0  0  0  0  0  0  0  0  0  0  0
   60.2267   35.6973   45.3662 H   0  0  0  0  0  0  0  0  0  0  0  0
   59.0210   34.7530   46.9030 C   0  0  0  0  0  0  0  0  0  0  0  0
   59.2751   35.5008   47.6686 H   0  0  0  0  0  0  0  0  0  0  0  0
   58.1720   33.6890   47.2200 C   0  0  0  0  0  0  0  0  0  0  0  0
   57.7608   33.5976   48.2361 H   0  0  0  0  0  0  0  0  0  0  0  0
   57.8450   32.7400   46.2450 C   0  0  0  0  0  0  0  0  0  0  0  0
   57.1801   31.9013   46.4990 H   0  0  0  0  0  0  0  0  0  0  0  0
   57.9960   29.6920   45.1000 N   0  0  0  0  0  0  0  0  0  0  0  0
   56.2890   26.5480   45.9100 C   0  0  0  0  0  0  0  0  0  0  0  0
   55.3392   26.7841   45.4079 H   0  0  0  0  0  0  0  0  0  0  0  0
   56.5490   25.2430   46.3220 C   0  0  0  0  0  0  0  0  0  0  0  0
   55.8036   24.4503   46.1604 H   0  0  0  0  0  0  0  0  0  0  0  0
  1  2  1  0
  2  3  1  0
  3  4  1  0
  4  5  2  0
  5  6  1  0
  6  7  2  0
  6  8  1  0
  8  9  2  0
  9 10  1  0
  9 11  1  0
 11 12  1  0
 11 13  2  0
 13 14  1  0
 14 15  1  0
 14 16  1  0
 14 17  1  0
 17 18  1  0
 17 19  1  0
 17 20  1  0
 20 21  1  0
 21 22  1  0
 21 23  1  0
 21 24  1  0
 24 25  1  0
 24 26  1  0
 24 27  1  0
 27 28  1  0
 27 29  1  0
 29 30  1  0
 29 31  1  0
 29 32  1  0
 32 33  1  0
 32 34  1  0
 13 35  1  0
 35 36  1  0
 35 37  2  0
 37 38  1  0
  4 39  1  0
 39 40  1  0
 40 41  2  0
 41 42  1  0
 42 43  1  0
 43 44  1  0
 44 45  1  0
 44 46  1  0
 44 47  1  0
 47 48  2  0
 48 49  1  0
 48 50  1  0
 50 51  1  0
 50 52  2  0
 52 53  1  0
 52 54  1  0
 54 55  1  0
 54 56  2  0
 56 57  1  0
 43 58  2  0
 39 59  2  0
 59 60  1  0
 59 61  1  0
 61 62  1  0
 61  2  2  0
 37  8  1  0
 58 40  1  0
 32 20  1  0
 56 47  1  0
M  CHG  2   3  -1  42  -1
M  END
>  <UniqueID>  (38) 
36

>  <SMILES>  (38) 
O=C(/N=c1/[n-]cccc1-c1n[n-]c(Cc2ccccc2)n1)c1ccc(CCN2CCNCC2)cc1

>  <Energy>  (38) 
123.16861093447596

>  <Genealogy>  (38) 
O=C(N=c1[n-]cccc1-c1n[n-]c(Cc2ccccc2)n1)c1ccc(CCN2CCNCC2)cc1 (protonated)
O=C(/N=c1/[n-]cccc1-c1n[n-]c(Cc2ccccc2)n1)c1ccc(CCN2CCNCC2)cc1 (cis-trans isomerization)
O=C(/N=c1/[n-]cccc1-c1n[n-]c(Cc2ccccc2)n1)c1ccc(CCN2CCNCC2)cc1 (3D coordinates assigned)
O=C(/N=c1/[n-]cccc1-c1n[n-]c(Cc2ccccc2)n1)c1ccc(CCN2CCNCC2)cc1 (nonaromatic ring conformer: 123.16861093447596 kcal/mol)

>  <smiles>  (38) 
O=C(N=c1[nH]cccc1-c1n[nH]c(Cc2ccccc2)n1)c1ccc(CCN2CCNCC2)cc1

>  <score_type>  (38) 
oracle

>  <origin>  (38) 
adg

>  <m_score__min__energy>  (38) 
-13.890000000000001

>  <m_primary>  (38) 
energy

$$$$
38:0
     RDKit          3D

 62 66  0  0  0  0  0  0  0  0999 V2000
   54.7750   29.3400   44.1590 N   0  0  0  0  0  0  0  0  0  0  0  0
   56.3010   30.1200   43.9310 S   0  0  0  0  0  0  0  0  0  0  0  0
   56.2530   31.5020   44.5190 O   0  0  0  0  0  0  0  0  0  0  0  0
   56.5880   30.2300   42.4600 O   0  0  0  0  0  0  0  0  0  0  0  0
   57.5630   29.1800   44.7220 C   0  0  0  0  0  0  0  0  0  0  0  0
   57.8700   27.8890   44.2730 C   0  0  0  0  0  0  0  0  0  0  0  0
   58.8640   27.1440   44.9100 C   0  0  0  0  0  0  0  0  0  0  0  0
   59.5540   27.6800   46.0010 C   0  0  0  0  0  0  0  0  0  0  0  0
   59.2540   28.9720   46.4700 C   0  0  0  0  0  0  0  0  0  0  0  0
   59.9800   29.5390   47.6350 C   0  0  0  0  0  0  0  0  0  0  0  0
   61.1310   30.3240   47.4490 C   0  0  0  0  0  0  0  0  0  0  0  0
   61.8160   30.8540   48.5450 C   0  0  0  0  0  0  0  0  0  0  0  0
   61.3690   30.6060   49.8540 C   0  0  0  0  0  0  0  0  0  0  0  0
   62.0680   31.1580   50.9870 N   0  0  0  0  0  0  0  0  0  0  0  0
   61.5020   32.1210   51.9190 C   0  0  0  0  0  0  0  0  0  0  0  0
   62.6690   32.5880   52.8080 C   0  0  0  0  0  0  0  0  0  0  0  0
   63.8230   31.5920   52.5890 C   0  0  2  0  0  0  0  0  0  0  0  0
   65.0690   32.3070   52.2980 N   0  0  0  0  0  0  0  0  0  0  0  0
   64.7430   33.8940   51.6670 S   0  0  0  0  0  0  0  0  0  0  0  0
   66.0420   34.6150   51.4450 O   0  0  0  0  0  0  0  0  0  0  0  0
   63.9150   34.6610   52.6600 O   0  0  0  0  0  0  0  0  0  0  0  0
   63.8870   33.7630   50.1330 C   0  0  0  0  0  0  0  0  0  0  0  0
   64.5040   33.1750   49.0210 C   0  0  0  0  0  0  0  0  0  0  0  0
   63.8270   33.1020   47.8000 C   0  0  0  0  0  0  0  0  0  0  0  0
   62.5280   33.6050   47.6890 C   0  0  0  0  0  0  0  0  0  0  0  0
   61.8890   34.1710   48.7980 C   0  0  0  0  0  0  0  0  0  0  0  0
   60.5890   34.6750   48.6440 O   0  0  0  0  0  0  0  0  0  0  0  0
   59.7020   34.3320   47.6130 C   0  0  0  0  0  0  0  0  0  0  0  0
   58.7230   33.3330   47.7750 C   0  0  0  0  0  0  0  0  0  0  0  0
   57.8680   33.0080   46.7170 C   0  0  0  0  0  0  0  0  0  0  0  0
   57.9900   33.6670   45.4910 C   0  0  0  0  0  0  0  0  0  0  0  0
   58.9730   34.6450   45.3190 C   0  0  0  0  0  0  0  0  0  0  0  0
   59.8300   34.9730   46.3740 C   0  0  0  0  0  0  0  0  0  0  0  0
   62.5820   34.2620   50.0190 C   0  0  0  0  0  0  0  0  0  0  0  0
   63.3810   30.8260   51.4040 C   0  0  0  0  0  0  0  0  0  0  0  0
   64.0660   29.9110   50.8750 O   0  0  0  0  0  0  0  0  0  0  0  0
   60.2100   29.8350   50.0410 C   0  0  0  0  0  0  0  0  0  0  0  0
   59.5270   29.3020   48.9440 C   0  0  0  0  0  0  0  0  0  0  0  0
   58.2510   29.7160   45.8200 C   0  0  0  0  0  0  0  0  0  0  0  0
   54.5500   29.4050   45.1780 H   0  0  0  0  0  0  0  0  0  0  0  0
   57.3270   27.4617   43.4171 H   0  0  0  0  0  0  0  0  0  0  0  0
   59.1049   26.1321   44.5523 H   0  0  0  0  0  0  0  0  0  0  0  0
   60.3372   27.0874   46.4964 H   0  0  0  0  0  0  0  0  0  0  0  0
   61.4959   30.5229   46.4305 H   0  0  0  0  0  0  0  0  0  0  0  0
   62.7124   31.4704   48.3821 H   0  0  0  0  0  0  0  0  0  0  0  0
   61.0723   32.9739   51.3732 H   0  0  0  0  0  0  0  0  0  0  0  0
   60.6934   31.6755   52.5170 H   0  0  0  0  0  0  0  0  0  0  0  0
   62.9836   33.6014   52.5181 H   0  0  0  0  0  0  0  0  0  0  0  0
   62.3705   32.6190   53.8663 H   0  0  0  0  0  0  0  0  0  0  0  0
   64.0258   30.9610   53.4669 H   0  0  0  0  0  0  0  0  0  0  0  0
   65.5230   32.7700   49.1088 H   0  0  0  0  0  0  0  0  0  0  0  0
   64.3172   32.6483   46.9260 H   0  0  0  0  0  0  0  0  0  0  0  0
   62.0040   33.5557   46.7231 H   0  0  0  0  0  0  0  0  0  0  0  0
   58.6304   32.8067   48.7365 H   0  0  0  0  0  0  0  0  0  0  0  0
   57.0989   32.2329   46.8502 H   0  0  0  0  0  0  0  0  0  0  0  0
   57.3125   33.4160   44.6616 H   0  0  0  0  0  0  0  0  0  0  0  0
   59.0729   35.1582   44.3512 H   0  0  0  0  0  0  0  0  0  0  0  0
   60.6078   35.7374   46.2305 H   0  0  0  0  0  0  0  0  0  0  0  0
   62.0968   34.7276   50.8895 H   0  0  0  0  0  0  0  0  0  0  0  0
   59.8368   29.6491   51.0589 H   0  0  0  0  0  0  0  0  0  0  0  0
   58.6266   28.6914   49.1069 H   0  0  0  0  0  0  0  0  0  0  0  0
   58.0048   30.7270   46.1767 H   0  0  0  0  0  0  0  0  0  0  0  0
  1  2  1  0
  2  3  2  0
  2  4  2  0
  2  5  1  0
  5  6  2  0
  6  7  1  0
  7  8  2  0
  8  9  1  0
  9 10  1  0
 10 11  2  0
 11 12  1  0
 12 13  2  0
 13 14  1  0
 14 15  1  0
 15 16  1  0
 16 17  1  0
 17 18  1  0
 18 19  1  0
 19 20  2  0
 19 21  2  0
 19 22  1  0
 22 23  2  0
 23 24  1  0
 24 25  2  0
 25 26  1  0
 26 27  1  0
 27 28  1  0
 28 29  2  0
 29 30  1  0
 30 31  2  0
 31 32  1  0
 32 33  2  0
 26 34  2  0
 17 35  1  0
 35 36  2  0
 13 37  1  0
 37 38  2  0
  9 39  2  0
 39  5  1  0
 38 10  1  0
 35 14  1  0
 34 22  1  0
 33 28  1  0
  1 40  1  0
  6 41  1  0
  7 42  1  0
  8 43  1  0
 11 44  1  0
 12 45  1  0
 15 46  1  0
 15 47  1  0
 16 48  1  0
 16 49  1  0
 17 50  1  1
 23 51  1  0
 24 52  1  0
 25 53  1  0
 29 54  1  0
 30 55  1  0
 31 56  1  0
 32 57  1  0
 33 58  1  0
 34 59  1  0
 37 60  1  0
 38 61  1  0
 39 62  1  0
M  CHG  2   1  -1  18  -1
M  END
>  <UniqueID>  (39) 
37

>  <SMILES>  (39) 
[NH-]S(=O)(=O)c1cccc(-c2ccc(N3CC[C@H]([N-]S(=O)(=O)c4cccc(Oc5ccccc5)c4)C3=O)cc2)c1

>  <Energy>  (39) 
89.68995291364737

>  <Genealogy>  (39) 
[NH-]S(=O)(=O)c1cccc(-c2ccc(N3CCC([N-]S(=O)(=O)c4cccc(Oc5ccccc5)c4)C3=O)cc2)c1 (protonated)
[NH-]S(=O)(=O)c1cccc(-c2ccc(N3CC[C@H]([N-]S(=O)(=O)c4cccc(Oc5ccccc5)c4)C3=O)cc2)c1 (chirality)
[NH-]S(=O)(=O)c1cccc(-c2ccc(N3CC[C@H]([N-]S(=O)(=O)c4cccc(Oc5ccccc5)c4)C3=O)cc2)c1 (3D coordinates assigned)
[NH-]S(=O)(=O)c1cccc(-c2ccc(N3CC[C@H]([N-]S(=O)(=O)c4cccc(Oc5ccccc5)c4)C3=O)cc2)c1 (nonaromatic ring conformer: 89.68995291364737 kcal/mol)

>  <smiles>  (39) 
NS(=O)(=O)c1cccc(-c2ccc(N3CCC(NS(=O)(=O)c4cccc(Oc5ccccc5)c4)C3=O)cc2)c1

>  <score_type>  (39) 
oracle

>  <origin>  (39) 
adg

>  <m_score__min__energy>  (39) 
-14.5

>  <m_primary>  (39) 
energy

$$$$
39:0
     RDKit          3D

 34 35  0  0  0  0  0  0  0  0999 V2000
   64.8830   33.1800   49.0360 N   0  0  0  0  0  0  0  0  0  0  0  0
   63.6860   33.3950   48.8500 N   0  0  0  0  0  0  0  0  0  0  0  0
   62.4680   33.6150   48.6610 C   0  0  0  0  0  0  0  0  0  0  0  0
   61.6920   32.8210   47.6960 C   0  0  0  0  0  0  0  0  0  0  0  0
   62.2720   31.8950   47.0690 O   0  0  0  0  0  0  0  0  0  0  0  0
   60.3040   33.1060   47.4450 N   0  0  0  0  0  0  0  0  0  0  0  0
   59.4590   32.2570   46.6510 C   0  0  0  0  0  0  0  0  0  0  0  0
   59.5800   30.8620   46.7560 C   0  0  0  0  0  0  0  0  0  0  0  0
   58.7110   30.0160   46.0660 C   0  0  0  0  0  0  0  0  0  0  0  0
   57.6910   30.5460   45.2620 C   0  0  0  0  0  0  0  0  0  0  0  0
   56.7610   29.6450   44.5390 C   0  0  0  0  0  0  0  0  0  0  0  0
   56.4630   29.8820   43.3360 O   0  0  0  0  0  0  0  0  0  0  0  0
   56.1120   28.5700   45.2350 N   0  0  0  0  0  0  0  0  0  0  0  0
   56.6050   27.4300   45.6360 C   0  0  0  0  0  0  0  0  0  0  0  0
   57.9600   27.2910   45.6240 N   0  0  0  0  0  0  0  0  0  0  0  0
   58.5850   26.1550   46.0290 C   0  0  0  0  0  0  0  0  0  0  0  0
   57.8350   25.0680   46.4750 C   0  0  0  0  0  0  0  0  0  0  0  0
   56.4450   25.1560   46.4760 C   0  0  0  0  0  0  0  0  0  0  0  0
   55.8120   26.3250   46.0410 C   0  0  0  0  0  0  0  0  0  0  0  0
   54.4240   26.3330   45.9720 O   0  0  0  0  0  0  0  0  0  0  0  0
   57.5600   31.9410   45.1610 C   0  0  0  0  0  0  0  0  0  0  0  0
   58.4380   32.8060   45.8390 C   0  0  0  0  0  0  0  0  0  0  0  0
   58.2950   34.2280   45.6690 N   0  0  0  0  0  0  0  0  0  0  0  0
   59.1660   35.0110   46.0990 O   0  0  0  0  0  0  0  0  0  0  0  0
   57.2790   34.7310   44.8890 O   0  0  0  0  0  0  0  0  0  0  0  0
   65.5210   33.0360   48.2220 H   0  0  0  0  0  0  0  0  0  0  0  0
   61.9695   34.4161   49.2265 H   0  0  0  0  0  0  0  0  0  0  0  0
   59.8940   33.9880   47.8270 H   0  0  0  0  0  0  0  0  0  0  0  0
   60.3691   30.4310   47.3897 H   0  0  0  0  0  0  0  0  0  0  0  0
   58.8266   28.9256   46.1532 H   0  0  0  0  0  0  0  0  0  0  0  0
   59.6830   26.0929   46.0050 H   0  0  0  0  0  0  0  0  0  0  0  0
   58.3349   24.1517   46.8220 H   0  0  0  0  0  0  0  0  0  0  0  0
   55.8425   24.3026   46.8203 H   0  0  0  0  0  0  0  0  0  0  0  0
   56.7564   32.3645   44.5406 H   0  0  0  0  0  0  0  0  0  0  0  0
  1  2  2  0
  2  3  2  0
  3  4  1  0
  4  5  2  0
  4  6  1  0
  6  7  1  0
  7  8  2  0
  8  9  1  0
  9 10  2  0
 10 11  1  0
 11 12  2  0
 11 13  1  0
 13 14  2  3
 14 15  1  0
 15 16  1  0
 16 17  2  0
 17 18  1  0
 18 19  2  0
 19 20  1  0
 10 21  1  0
 21 22  2  0
 22 23  1  0
 23 24  2  0
 23 25  1  0
 22  7  1  0
 19 14  1  0
  1 26  1  0
  3 27  1  0
  6 28  1  0
  8 29  1  0
  9 30  1  0
 16 31  1  0
 17 32  1  0
 18 33  1  0
 21 34  1  0
M  CHG  5   2   1  15  -1  20  -1  23   1  25  -1
M  END
>  <UniqueID>  (40) 
38

>  <SMILES>  (40) 
N=[N+]=CC(=O)Nc1ccc(C(=O)N=c2[n-]cccc2[O-])cc1[N+](=O)[O-]

>  <Energy>  (40) 
53.288246364197725

>  <Genealogy>  (40) 
N=[N+]=CC(=O)Nc1ccc(C(=O)N=c2[n-]cccc2[O-])cc1[N+](=O)[O-] (protonated)
N=[N+]=CC(=O)Nc1ccc(C(=O)N=c2[n-]cccc2[O-])cc1[N+](=O)[O-] (3D coordinates assigned)
N=[N+]=CC(=O)Nc1ccc(C(=O)N=c2[n-]cccc2[O-])cc1[N+](=O)[O-] (optimized conformer: 53.288246364197725 kcal/mol)

>  <smiles>  (40) 
[N-]=[N+]=CC(=O)Nc1ccc(C(=O)N=c2[nH]cccc2O)cc1[N+](=O)[O-]

>  <score_type>  (40) 
oracle

>  <origin>  (40) 
adg

>  <m_score__min__energy>  (40) 
-11.859999999999999

>  <m_primary>  (40) 
energy

$$$$
40:0
     RDKit          3D

 62 65  0  0  0  0  0  0  0  0999 V2000
   60.2410   26.2280   46.5360 O   0  0  0  0  0  0  0  0  0  0  0  0
   59.4240   26.9490   47.1700 C   0  0  0  0  0  0  0  0  0  0  0  0
   58.3020   26.3180   47.8040 N   0  0  0  0  0  0  0  0  0  0  0  0
   57.2910   25.5130   47.1710 C   0  0  0  0  0  0  0  0  0  0  0  0
   57.0310   24.2490   47.7170 C   0  0  0  0  0  0  0  0  0  0  0  0
   56.0100   23.4470   47.2040 C   0  0  0  0  0  0  0  0  0  0  0  0
   55.2390   23.8990   46.1340 C   0  0  0  0  0  0  0  0  0  0  0  0
   55.5060   25.1410   45.5550 C   0  0  0  0  0  0  0  0  0  0  0  0
   56.5480   25.9500   46.0410 C   0  0  0  0  0  0  0  0  0  0  0  0
   56.8600   27.2010   45.3190 C   0  0  0  0  0  0  0  0  0  0  0  0
   57.9810   27.3460   44.7580 O   0  0  0  0  0  0  0  0  0  0  0  0
   55.8870   28.2500   45.2640 N   0  0  0  0  0  0  0  0  0  0  0  0
   56.1770   29.5970   44.7890 C   0  0  0  0  0  0  0  0  0  0  0  0
   57.5650   30.0450   45.2490 C   0  0  0  0  0  0  0  0  0  0  0  0
   57.7180   31.5330   45.0800 C   0  0  0  0  0  0  0  0  0  0  0  0
   57.4050   32.4050   46.1370 C   0  0  0  0  0  0  0  0  0  0  0  0
   57.5820   33.7830   45.9890 C   0  0  0  0  0  0  0  0  0  0  0  0
   58.0850   34.3020   44.7920 C   0  0  0  0  0  0  0  0  0  0  0  0
   58.4150   33.4400   43.7410 C   0  0  0  0  0  0  0  0  0  0  0  0
   58.2380   32.0600   43.8850 C   0  0  0  0  0  0  0  0  0  0  0  0
   59.6550   28.4090   47.2400 C   0  0  0  0  0  0  0  0  0  0  0  0
   60.5140   29.0530   46.3330 C   0  0  0  0  0  0  0  0  0  0  0  0
   60.7770   30.4200   46.4590 C   0  0  0  0  0  0  0  0  0  0  0  0
   60.1840   31.1610   47.4900 C   0  0  0  0  0  0  0  0  0  0  0  0
   60.5700   32.8680   47.6860 S   0  0  0  0  0  0  0  0  0  0  0  0
   59.4390   33.5670   48.3890 O   0  0  0  0  0  0  0  0  0  0  0  0
   60.7580   33.4720   46.3220 O   0  0  0  0  0  0  0  0  0  0  0  0
   62.0390   33.0400   48.6160 N   0  0  0  0  0  0  0  0  0  0  0  0
   63.2120   32.7600   47.7720 C   0  0  0  0  0  0  0  0  0  0  0  0
   64.5030   33.1580   48.5110 C   0  0  0  0  0  0  0  0  0  0  0  0
   64.3370   33.1300   50.0390 C   0  0  0  0  0  0  0  0  0  0  0  0
   63.3860   32.0090   50.4700 C   0  0  0  0  0  0  0  0  0  0  0  0
   62.0060   32.1340   49.7840 C   0  0  0  0  0  0  0  0  0  0  0  0
   59.3090   30.5280   48.3820 C   0  0  0  0  0  0  0  0  0  0  0  0
   59.0350   29.1650   48.2490 C   0  0  0  0  0  0  0  0  0  0  0  0
   57.6380   23.8847   48.5590 H   0  0  0  0  0  0  0  0  0  0  0  0
   55.8138   22.4582   47.6441 H   0  0  0  0  0  0  0  0  0  0  0  0
   54.4195   23.2765   45.7456 H   0  0  0  0  0  0  0  0  0  0  0  0
   54.8947   25.4902   44.7098 H   0  0  0  0  0  0  0  0  0  0  0  0
   56.1398   29.6081   43.6897 H   0  0  0  0  0  0  0  0  0  0  0  0
   55.4272   30.2872   45.2031 H   0  0  0  0  0  0  0  0  0  0  0  0
   57.6969   29.7851   46.3097 H   0  0  0  0  0  0  0  0  0  0  0  0
   58.3252   29.5361   44.6382 H   0  0  0  0  0  0  0  0  0  0  0  0
   57.0191   32.0009   47.0845 H   0  0  0  0  0  0  0  0  0  0  0  0
   57.3251   34.4612   46.8161 H   0  0  0  0  0  0  0  0  0  0  0  0
   58.2211   35.3875   44.6769 H   0  0  0  0  0  0  0  0  0  0  0  0
   58.8140   33.8477   42.8005 H   0  0  0  0  0  0  0  0  0  0  0  0
   58.5068   31.3843   43.0597 H   0  0  0  0  0  0  0  0  0  0  0  0
   60.9817   28.4784   45.5199 H   0  0  0  0  0  0  0  0  0  0  0  0
   61.4521   30.9160   45.7461 H   0  0  0  0  0  0  0  0  0  0  0  0
   63.2434   31.6857   47.5376 H   0  0  0  0  0  0  0  0  0  0  0  0
   63.1345   33.3438   46.8429 H   0  0  0  0  0  0  0  0  0  0  0  0
   65.3017   32.4559   48.2297 H   0  0  0  0  0  0  0  0  0  0  0  0
   64.7513   34.1893   48.2198 H   0  0  0  0  0  0  0  0  0  0  0  0
   65.3202   32.9658   50.5042 H   0  0  0  0  0  0  0  0  0  0  0  0
   63.9123   34.0919   50.3620 H   0  0  0  0  0  0  0  0  0  0  0  0
   63.8317   31.0402   50.2003 H   0  0  0  0  0  0  0  0  0  0  0  0
   63.2365   32.0854   51.5571 H   0  0  0  0  0  0  0  0  0  0  0  0
   61.6862   31.1364   49.4487 H   0  0  0  0  0  0  0  0  0  0  0  0
   61.3032   32.5563   50.5172 H   0  0  0  0  0  0  0  0  0  0  0  0
   58.8363   31.1061   49.1896 H   0  0  0  0  0  0  0  0  0  0  0  0
   58.3289   28.6800   48.9390 H   0  0  0  0  0  0  0  0  0  0  0  0
  1  2  2  0
  2  3  1  0
  3  4  1  0
  4  5  2  0
  5  6  1  0
  6  7  2  0
  7  8  1  0
  8  9  2  0
  9 10  1  0
 10 11  2  0
 10 12  1  0
 12 13  1  0
 13 14  1  0
 14 15  1  0
 15 16  2  0
 16 17  1  0
 17 18  2  0
 18 19  1  0
 19 20  2  0
  2 21  1  0
 21 22  2  0
 22 23  1  0
 23 24  2  0
 24 25  1  0
 25 26  2  0
 25 27  2  0
 25 28  1  0
 28 29  1  0
 29 30  1  0
 30 31  1  0
 31 32  1  0
 32 33  1  0
 24 34  1  0
 34 35  2  0
  9  4  1  0
 20 15  1  0
 35 21  1  0
 33 28  1  0
  5 36  1  0
  6 37  1  0
  7 38  1  0
  8 39  1  0
 13 40  1  0
 13 41  1  0
 14 42  1  0
 14 43  1  0
 16 44  1  0
 17 45  1  0
 18 46  1  0
 19 47  1  0
 20 48  1  0
 22 49  1  0
 23 50  1  0
 29 51  1  0
 29 52  1  0
 30 53  1  0
 30 54  1  0
 31 55  1  0
 31 56  1  0
 32 57  1  0
 32 58  1  0
 33 59  1  0
 33 60  1  0
 34 61  1  0
 35 62  1  0
M  CHG  2   3  -1  12  -1
M  END
>  <UniqueID>  (41) 
39

>  <SMILES>  (41) 
O=C([N-]c1ccccc1C(=O)[N-]CCc1ccccc1)c1ccc(S(=O)(=O)N2CCCCC2)cc1

>  <Energy>  (41) 
74.82182918598137

>  <Genealogy>  (41) 
O=C([N-]c1ccccc1C(=O)[N-]CCc1ccccc1)c1ccc(S(=O)(=O)N2CCCCC2)cc1 (protonated)
O=C([N-]c1ccccc1C(=O)[N-]CCc1ccccc1)c1ccc(S(=O)(=O)N2CCCCC2)cc1 (3D coordinates assigned)
O=C([N-]c1ccccc1C(=O)[N-]CCc1ccccc1)c1ccc(S(=O)(=O)N2CCCCC2)cc1 (nonaromatic ring conformer: 74.82182918598137 kcal/mol)

>  <smiles>  (41) 
O=C(Nc1ccccc1C(=O)NCCc1ccccc1)c1ccc(S(=O)(=O)N2CCCCC2)cc1

>  <score_type>  (41) 
oracle

>  <origin>  (41) 
adg

>  <m_score__min__energy>  (41) 
-14.73

>  <m_primary>  (41) 
energy

$$$$
41:0
     RDKit          3D

 39 41  0  0  0  0  0  0  0  0999 V2000
   59.6499   26.1857   46.6008 H   0  0  0  0  0  0  0  0  0  0  0  0
   58.5560   26.2280   46.4930 C   0  0  0  0  0  0  0  0  0  0  0  0
   57.9730   27.3060   45.9080 N   0  0  0  0  0  0  0  0  0  0  0  0
   56.6250   27.4170   45.7480 C   0  0  0  0  0  0  0  0  0  0  0  0
   56.1680   28.4970   45.1790 N   0  0  0  0  0  0  0  0  0  0  0  0
   56.7960   29.2990   44.1680 C   0  0  0  0  0  0  0  0  0  0  0  0
   55.8980   30.4350   43.3870 S   0  0  0  0  0  0  0  0  0  0  0  0
   58.2290   29.3990   44.1500 N   0  0  0  0  0  0  0  0  0  0  0  0
   58.5660   29.5320   43.1680 H   0  0  0  0  0  0  0  0  0  0  0  0
   58.6340   28.5000   44.5000 H   0  0  0  0  0  0  0  0  0  0  0  0
   58.6580   30.4920   44.9860 C   0  0  0  0  0  0  0  0  0  0  0  0
   59.4470   30.2520   46.1250 C   0  0  0  0  0  0  0  0  0  0  0  0
   59.7213   29.2208   46.3921 H   0  0  0  0  0  0  0  0  0  0  0  0
   59.8850   31.3150   46.9200 C   0  0  0  0  0  0  0  0  0  0  0  0
   60.5091   31.1163   47.8037 H   0  0  0  0  0  0  0  0  0  0  0  0
   59.5320   32.6370   46.5960 C   0  0  0  0  0  0  0  0  0  0  0  0
   59.9960   33.7470   47.3830 N   0  0  0  0  0  0  0  0  0  0  0  0
   59.3620   34.5720   47.4840 H   0  0  0  0  0  0  0  0  0  0  0  0
   61.2750   33.8000   48.0400 C   0  0  0  0  0  0  0  0  0  0  0  0
   62.4600   33.4550   47.3640 C   0  0  0  0  0  0  0  0  0  0  0  0
   62.4206   33.1598   46.3051 H   0  0  0  0  0  0  0  0  0  0  0  0
   63.6870   33.4860   48.0330 C   0  0  0  0  0  0  0  0  0  0  0  0
   64.6113   33.2255   47.4965 H   0  0  0  0  0  0  0  0  0  0  0  0
   63.7420   33.8470   49.3810 C   0  0  0  0  0  0  0  0  0  0  0  0
   64.7095   33.8772   49.9035 H   0  0  0  0  0  0  0  0  0  0  0  0
   62.5670   34.1700   50.0660 C   0  0  0  0  0  0  0  0  0  0  0  0
   62.6093   34.4486   51.1293 H   0  0  0  0  0  0  0  0  0  0  0  0
   61.3380   34.1390   49.4000 C   0  0  0  0  0  0  0  0  0  0  0  0
   60.4144   34.3820   49.9459 H   0  0  0  0  0  0  0  0  0  0  0  0
   58.7720   32.8790   45.4430 C   0  0  0  0  0  0  0  0  0  0  0  0
   58.5186   33.9121   45.1629 H   0  0  0  0  0  0  0  0  0  0  0  0
   58.3340   31.8170   44.6470 C   0  0  0  0  0  0  0  0  0  0  0  0
   57.7316   32.0195   43.7491 H   0  0  0  0  0  0  0  0  0  0  0  0
   55.7990   26.3460   46.1790 C   0  0  0  0  0  0  0  0  0  0  0  0
   54.4220   26.3400   45.9780 O   0  0  0  0  0  0  0  0  0  0  0  0
   56.3860   25.2380   46.7950 C   0  0  0  0  0  0  0  0  0  0  0  0
   55.7543   24.4120   47.1536 H   0  0  0  0  0  0  0  0  0  0  0  0
   57.7690   25.1750   46.9570 C   0  0  0  0  0  0  0  0  0  0  0  0
   58.2336   24.3054   47.4448 H   0  0  0  0  0  0  0  0  0  0  0  0
  1  2  1  0
  2  3  1  0
  3  4  1  0
  4  5  2  0
  5  6  1  0
  6  7  2  0
  6  8  1  0
  8  9  1  0
  8 10  1  0
  8 11  1  0
 11 12  2  0
 12 13  1  0
 12 14  1  0
 14 15  1  0
 14 16  2  0
 16 17  1  0
 17 18  1  0
 17 19  1  0
 19 20  2  0
 20 21  1  0
 20 22  1  0
 22 23  1  0
 22 24  2  0
 24 25  1  0
 24 26  1  0
 26 27  1  0
 26 28  2  0
 28 29  1  0
 16 30  1  0
 30 31  1  0
 30 32  2  0
 32 33  1  0
  4 34  1  0
 34 35  1  0
 34 36  2  0
 36 37  1  0
 36 38  1  0
 38 39  1  0
 38  2  2  0
 32 11  1  0
 28 19  1  0
M  CHG  3   3  -1   8   1  35  -1
M  END
>  <UniqueID>  (42) 
40

>  <SMILES>  (42) 
[O-]c1ccc[n-]/c1=N/C(=S)[NH2+]c1ccc(Nc2ccccc2)cc1

>  <Energy>  (42) 
61.68779153203778

>  <Genealogy>  (42) 
[O-]c1ccc[n-]c1=NC(=S)[NH2+]c1ccc(Nc2ccccc2)cc1 (protonated)
[O-]c1ccc[n-]/c1=N/C(=S)[NH2+]c1ccc(Nc2ccccc2)cc1 (cis-trans isomerization)
[O-]c1ccc[n-]/c1=N/C(=S)[NH2+]c1ccc(Nc2ccccc2)cc1 (3D coordinates assigned)
[O-]c1ccc[n-]/c1=N/C(=S)[NH2+]c1ccc(Nc2ccccc2)cc1 (optimized conformer: 61.68779153203778 kcal/mol)

>  <smiles>  (42) 
Oc1ccc[nH]c1=NC(=S)Nc1ccc(Nc2ccccc2)cc1

>  <score_type>  (42) 
oracle

>  <origin>  (42) 
adg

>  <m_score__min__energy>  (42) 
-11.93

>  <m_primary>  (42) 
energy

$$$$
42:0
     RDKit          3D

 53 56  0  0  0  0  0  0  0  0999 V2000
   58.1033   35.5000   44.6118 H   0  0  0  0  0  0  0  0  0  0  0  0
   57.9770   34.4590   44.9440 C   0  0  0  0  0  0  0  0  0  0  0  0
   57.4430   33.4950   44.1470 N   0  0  0  0  0  0  0  0  0  0  0  0
   57.3890   32.2990   44.7720 C   0  0  0  0  0  0  0  0  0  0  0  0
   56.9400   31.2350   44.1760 N   0  0  0  0  0  0  0  0  0  0  0  0
   57.2650   29.8720   44.4810 C   0  0  0  0  0  0  0  0  0  0  0  0
   57.9550   29.2190   43.6530 O   0  0  0  0  0  0  0  0  0  0  0  0
   56.7110   29.2150   45.6340 N   0  0  0  0  0  0  0  0  0  0  0  0
   55.8930   29.6660   46.1010 H   0  0  0  0  0  0  0  0  0  0  0  0
   57.0520   27.8690   46.0160 C   0  0  0  0  0  0  0  0  0  0  0  0
   56.2280   26.7910   45.6520 C   0  0  0  0  0  0  0  0  0  0  0  0
   55.3016   26.9775   45.0890 H   0  0  0  0  0  0  0  0  0  0  0  0
   56.5770   25.4840   46.0000 C   0  0  0  0  0  0  0  0  0  0  0  0
   55.9209   24.6473   45.7181 H   0  0  0  0  0  0  0  0  0  0  0  0
   57.7570   25.2370   46.7050 C   0  0  0  0  0  0  0  0  0  0  0  0
   58.0306   24.2064   46.9750 H   0  0  0  0  0  0  0  0  0  0  0  0
   58.5890   26.2970   47.0670 C   0  0  0  0  0  0  0  0  0  0  0  0
   59.5173   26.0987   47.6228 H   0  0  0  0  0  0  0  0  0  0  0  0
   58.2480   27.6140   46.7260 C   0  0  0  0  0  0  0  0  0  0  0  0
   59.1030   28.6890   47.1450 N   0  0  0  0  0  0  0  0  0  0  0  0
   60.1330   29.1650   46.2090 C   0  0  0  0  0  0  0  0  0  0  0  0
   60.8816   28.3707   46.0723 H   0  0  0  0  0  0  0  0  0  0  0  0
   59.6367   29.4153   45.2597 H   0  0  0  0  0  0  0  0  0  0  0  0
   60.8400   30.4280   46.7180 C   0  0  0  0  0  0  0  0  0  0  0  0
   61.8014   30.5385   46.1949 H   0  0  0  0  0  0  0  0  0  0  0  0
   60.1944   31.2966   46.5211 H   0  0  0  0  0  0  0  0  0  0  0  0
   61.0760   30.3460   48.1070 O   0  0  0  0  0  0  0  0  0  0  0  0
   59.8360   30.4180   48.7840 C   0  0  0  0  0  0  0  0  0  0  0  0
   60.0214   30.5166   49.8638 H   0  0  0  0  0  0  0  0  0  0  0  0
   59.2816   31.2895   48.4057 H   0  0  0  0  0  0  0  0  0  0  0  0
   58.9960   29.1600   48.5330 C   0  0  0  0  0  0  0  0  0  0  0  0
   59.3434   28.3620   49.2057 H   0  0  0  0  0  0  0  0  0  0  0  0
   57.9427   29.4137   48.7233 H   0  0  0  0  0  0  0  0  0  0  0  0
   58.0330   32.3780   46.3330 S   0  0  0  0  0  0  0  0  0  0  0  0
   58.3510   34.0260   46.2120 C   0  0  0  0  0  0  0  0  0  0  0  0
   59.0280   34.8550   47.2570 C   0  0  0  0  0  0  0  0  0  0  0  0
   58.4656   34.7831   48.1996 H   0  0  0  0  0  0  0  0  0  0  0  0
   59.0616   35.9019   46.9211 H   0  0  0  0  0  0  0  0  0  0  0  0
   60.4320   34.3620   47.4760 C   0  0  0  0  0  0  0  0  0  0  0  0
   61.2210   33.9690   46.3850 C   0  0  0  0  0  0  0  0  0  0  0  0
   60.8233   34.0510   45.3627 H   0  0  0  0  0  0  0  0  0  0  0  0
   62.5100   33.4740   46.5930 C   0  0  0  0  0  0  0  0  0  0  0  0
   63.1278   33.1758   45.7331 H   0  0  0  0  0  0  0  0  0  0  0  0
   63.0180   33.3560   47.8890 C   0  0  0  0  0  0  0  0  0  0  0  0
   64.0347   32.9665   48.0459 H   0  0  0  0  0  0  0  0  0  0  0  0
   62.2330   33.7340   48.9950 C   0  0  0  0  0  0  0  0  0  0  0  0
   62.6950   33.6330   50.3170 O   0  0  0  0  0  0  0  0  0  0  0  0
   63.5030   32.5690   50.8060 C   0  0  0  0  0  0  0  0  0  0  0  0
   63.4957   32.5787   51.9059 H   0  0  0  0  0  0  0  0  0  0  0  0
   63.1038   31.6097   50.4451 H   0  0  0  0  0  0  0  0  0  0  0  0
   64.5343   32.6960   50.4451 H   0  0  0  0  0  0  0  0  0  0  0  0
   60.9430   34.2320   48.7790 C   0  0  0  0  0  0  0  0  0  0  0  0
   60.3221   34.5249   49.6385 H   0  0  0  0  0  0  0  0  0  0  0  0
  1  2  1  0
  2  3  1  0
  3  4  1  0
  4  5  2  0
  5  6  1  0
  6  7  2  0
  6  8  1  0
  8  9  1  0
  8 10  1  0
 10 11  2  0
 11 12  1  0
 11 13  1  0
 13 14  1  0
 13 15  2  0
 15 16  1  0
 15 17  1  0
 17 18  1  0
 17 19  2  0
 19 20  1  0
 20 21  1  0
 21 22  1  0
 21 23  1  0
 21 24  1  0
 24 25  1  0
 24 26  1  0
 24 27  1  0
 27 28  1  0
 28 29  1  0
 28 30  1  0
 28 31  1  0
 31 32  1  0
 31 33  1  0
  4 34  1  0
 34 35  1  0
 35 36  1  0
 36 37  1  0
 36 38  1  0
 36 39  1  0
 39 40  2  0
 40 41  1  0
 40 42  1  0
 42 43  1  0
 42 44  2  0
 44 45  1  0
 44 46  1  0
 46 47  1  0
 47 48  1  0
 48 49  1  0
 48 50  1  0
 48 51  1  0
 46 52  2  0
 52 53  1  0
 35  2  2  0
 52 39  1  0
 19 10  1  0
 31 20  1  0
M  CHG  1   3  -1
M  END
>  <UniqueID>  (43) 
41

>  <SMILES>  (43) 
COc1cccc(Cc2c[n-]/c(=N/C(=O)Nc3ccccc3N3CCOCC3)s2)c1

>  <Energy>  (43) 
100.37074122872455

>  <Genealogy>  (43) 
COc1cccc(Cc2c[n-]c(=NC(=O)Nc3ccccc3N3CCOCC3)s2)c1 (protonated)
COc1cccc(Cc2c[n-]/c(=N/C(=O)Nc3ccccc3N3CCOCC3)s2)c1 (cis-trans isomerization)
COc1cccc(Cc2c[n-]/c(=N/C(=O)Nc3ccccc3N3CCOCC3)s2)c1 (3D coordinates assigned)
COc1cccc(Cc2c[n-]/c(=N/C(=O)Nc3ccccc3N3CCOCC3)s2)c1 (nonaromatic ring conformer: 100.37074122872455 kcal/mol)

>  <smiles>  (43) 
COc1cccc(Cc2c[nH]c(=NC(=O)Nc3ccccc3N3CCOCC3)s2)c1

>  <score_type>  (43) 
oracle

>  <origin>  (43) 
adg

>  <m_score__min__energy>  (43) 
-9.9100000000000001

>  <m_primary>  (43) 
energy

$$$$
43:0
     RDKit          3D

 68 71  0  0  0  0  0  0  0  0999 V2000
   60.7660   26.7160   48.4650 C   0  0  0  0  0  0  0  0  0  0  0  0
   59.8760   26.2250   47.4680 O   0  0  0  0  0  0  0  0  0  0  0  0
   59.0010   27.0250   46.7150 C   0  0  0  0  0  0  0  0  0  0  0  0
   59.3690   28.3090   46.2660 C   0  0  0  0  0  0  0  0  0  0  0  0
   58.4780   29.0790   45.5180 C   0  0  0  0  0  0  0  0  0  0  0  0
   57.1950   28.5950   45.2180 C   0  0  0  0  0  0  0  0  0  0  0  0
   56.2620   29.3980   44.3960 C   0  0  0  0  0  0  0  0  0  0  0  0
   55.1310   29.6980   44.8630 O   0  0  0  0  0  0  0  0  0  0  0  0
   56.5830   29.8010   43.0600 N   0  0  0  0  0  0  0  0  0  0  0  0
   57.1230   31.1090   42.7010 C   0  0  0  0  0  0  0  0  0  0  0  0
   57.6410   31.7930   43.9240 C   0  0  0  0  0  0  0  0  0  0  0  0
   58.8850   31.8350   44.1350 O   0  0  0  0  0  0  0  0  0  0  0  0
   56.7260   32.3510   44.8730 N   0  0  0  0  0  0  0  0  0  0  0  0
   57.0910   33.4050   45.8180 C   0  0  0  0  0  0  0  0  0  0  0  0
   57.7760   34.5680   45.0660 C   0  0  0  0  0  0  0  0  0  0  0  0
   59.3010   34.4980   45.1930 C   0  0  0  0  0  0  0  0  0  0  0  0
   59.7320   34.6180   46.6060 N   0  0  0  0  0  0  0  0  0  0  0  0
   61.1440   34.2070   46.7510 C   0  0  0  0  0  0  0  0  0  0  0  0
   61.2500   32.9660   47.5980 C   0  0  0  0  0  0  0  0  0  0  0  0
   61.5270   33.0730   48.9710 C   0  0  0  0  0  0  0  0  0  0  0  0
   61.6070   31.9230   49.7650 C   0  0  0  0  0  0  0  0  0  0  0  0
   61.4130   30.6630   49.1930 C   0  0  0  0  0  0  0  0  0  0  0  0
   61.1440   30.5480   47.8280 C   0  0  0  0  0  0  0  0  0  0  0  0
   61.0640   31.6930   47.0290 C   0  0  0  0  0  0  0  0  0  0  0  0
   58.8400   33.9240   47.5780 C   0  0  0  0  0  0  0  0  0  0  0  0
   57.9880   32.8230   46.9320 C   0  0  0  0  0  0  0  0  0  0  0  0
   56.8320   27.3100   45.6490 C   0  0  0  0  0  0  0  0  0  0  0  0
   57.7230   26.5270   46.3980 C   0  0  0  0  0  0  0  0  0  0  0  0
   57.2470   24.9130   46.9350 S   0  0  0  0  0  0  0  0  0  0  0  0
   55.7470   24.7910   46.9550 O   0  0  0  0  0  0  0  0  0  0  0  0
   57.7700   24.7020   48.3290 O   0  0  0  0  0  0  0  0  0  0  0  0
   57.9310   23.7130   45.8590 N   0  0  0  0  0  0  0  0  0  0  0  0
   58.1380   24.2790   44.5220 C   0  0  0  0  0  0  0  0  0  0  0  0
   56.9060   23.9750   43.6870 C   0  0  0  0  0  0  0  0  0  0  0  0
   56.2150   22.8220   44.3920 C   0  0  0  0  0  0  0  0  0  0  0  0
   57.0020   22.5900   45.6760 C   0  0  0  0  0  0  0  0  0  0  0  0
   60.3593   26.4916   49.4621 H   0  0  0  0  0  0  0  0  0  0  0  0
   61.7470   26.2314   48.3516 H   0  0  0  0  0  0  0  0  0  0  0  0
   60.8793   27.8043   48.3516 H   0  0  0  0  0  0  0  0  0  0  0  0
   60.3658   28.7070   46.5070 H   0  0  0  0  0  0  0  0  0  0  0  0
   58.7834   30.0734   45.1604 H   0  0  0  0  0  0  0  0  0  0  0  0
   57.9429   30.9804   41.9790 H   0  0  0  0  0  0  0  0  0  0  0  0
   56.3271   31.7206   42.2511 H   0  0  0  0  0  0  0  0  0  0  0  0
   56.1871   33.8078   46.2984 H   0  0  0  0  0  0  0  0  0  0  0  0
   57.5032   34.5153   44.0017 H   0  0  0  0  0  0  0  0  0  0  0  0
   57.4358   35.5146   45.5111 H   0  0  0  0  0  0  0  0  0  0  0  0
   59.6496   33.5344   44.7931 H   0  0  0  0  0  0  0  0  0  0  0  0
   59.7344   35.3354   44.6265 H   0  0  0  0  0  0  0  0  0  0  0  0
   61.5651   34.0025   45.7556 H   0  0  0  0  0  0  0  0  0  0  0  0
   61.7016   35.0193   47.2402 H   0  0  0  0  0  0  0  0  0  0  0  0
   61.6815   34.0636   49.4236 H   0  0  0  0  0  0  0  0  0  0  0  0
   61.8227   32.0113   50.8400 H   0  0  0  0  0  0  0  0  0  0  0  0
   61.4723   29.7605   49.8191 H   0  0  0  0  0  0  0  0  0  0  0  0
   60.9946   29.5546   47.3799 H   0  0  0  0  0  0  0  0  0  0  0  0
   60.8552   31.5980   45.9532 H   0  0  0  0  0  0  0  0  0  0  0  0
   59.4630   33.4698   48.3626 H   0  0  0  0  0  0  0  0  0  0  0  0
   58.1494   34.6770   47.9855 H   0  0  0  0  0  0  0  0  0  0  0  0
   58.6523   32.0608   46.4986 H   0  0  0  0  0  0  0  0  0  0  0  0
   57.3449   32.3764   47.7047 H   0  0  0  0  0  0  0  0  0  0  0  0
   55.8379   26.9122   45.3968 H   0  0  0  0  0  0  0  0  0  0  0  0
   58.2799   25.3673   44.5954 H   0  0  0  0  0  0  0  0  0  0  0  0
   59.0328   23.8406   44.0561 H   0  0  0  0  0  0  0  0  0  0  0  0
   56.2439   24.8524   43.6446 H   0  0  0  0  0  0  0  0  0  0  0  0
   57.1679   23.7217   42.6491 H   0  0  0  0  0  0  0  0  0  0  0  0
   55.1722   23.0843   44.6238 H   0  0  0  0  0  0  0  0  0  0  0  0
   56.1897   21.9195   43.7636 H   0  0  0  0  0  0  0  0  0  0  0  0
   56.3114   22.5360   46.5305 H   0  0  0  0  0  0  0  0  0  0  0  0
   57.5600   21.6442   45.6119 H   0  0  0  0  0  0  0  0  0  0  0  0
  1  2  1  0
  2  3  1  0
  3  4  2  0
  4  5  1  0
  5  6  2  0
  6  7  1  0
  7  8  2  0
  7  9  1  0
  9 10  1  0
 10 11  1  0
 11 12  2  0
 11 13  1  0
 13 14  1  0
 14 15  1  0
 15 16  1  0
 16 17  1  0
 17 18  1  0
 18 19  1  0
 19 20  2  0
 20 21  1  0
 21 22  2  0
 22 23  1  0
 23 24  2  0
 17 25  1  0
 25 26  1  0
  6 27  1  0
 27 28  2  0
 28 29  1  0
 29 30  2  0
 29 31  2  0
 29 32  1  0
 32 33  1  0
 33 34  1  0
 34 35  1  0
 35 36  1  0
 28  3  1  0
 36 32  1  0
 26 14  1  0
 24 19  1  0
  1 37  1  0
  1 38  1  0
  1 39  1  0
  4 40  1  0
  5 41  1  0
 10 42  1  0
 10 43  1  0
 14 44  1  0
 15 45  1  0
 15 46  1  0
 16 47  1  0
 16 48  1  0
 18 49  1  0
 18 50  1  0
 20 51  1  0
 21 52  1  0
 22 53  1  0
 23 54  1  0
 24 55  1  0
 25 56  1  0
 25 57  1  0
 26 58  1  0
 26 59  1  0
 27 60  1  0
 33 61  1  0
 33 62  1  0
 34 63  1  0
 34 64  1  0
 35 65  1  0
 35 66  1  0
 36 67  1  0
 36 68  1  0
M  CHG  2   9  -1  13  -1
M  END
>  <UniqueID>  (44) 
42

>  <SMILES>  (44) 
COc1ccc(C(=O)[N-]CC(=O)[N-]C2CCN(Cc3ccccc3)CC2)cc1S(=O)(=O)N1CCCC1

>  <Energy>  (44) 
81.1129825623289

>  <Genealogy>  (44) 
COc1ccc(C(=O)[N-]CC(=O)[N-]C2CCN(Cc3ccccc3)CC2)cc1S(=O)(=O)N1CCCC1 (protonated)
COc1ccc(C(=O)[N-]CC(=O)[N-]C2CCN(Cc3ccccc3)CC2)cc1S(=O)(=O)N1CCCC1 (3D coordinates assigned)
COc1ccc(C(=O)[N-]CC(=O)[N-]C2CCN(Cc3ccccc3)CC2)cc1S(=O)(=O)N1CCCC1 (nonaromatic ring conformer: 81.1129825623289 kcal/mol)

>  <smiles>  (44) 
COc1ccc(C(=O)NCC(=O)NC2CCN(Cc3ccccc3)CC2)cc1S(=O)(=O)N1CCCC1

>  <score_type>  (44) 
oracle

>  <origin>  (44) 
adg

>  <m_score__min__energy>  (44) 
-13.5

>  <m_primary>  (44) 
energy

$$$$
44:0
     RDKit          3D

 63 66  0  0  0  0  0  0  0  0999 V2000
   62.4240   34.5790   49.0050 C   0  0  0  0  0  0  0  0  0  0  0  0
   61.1130   33.9850   49.2420 N   0  0  0  0  0  0  0  0  0  0  0  0
   60.1330   33.9630   48.1940 C   0  0  0  0  0  0  0  0  0  0  0  0
   60.3890   34.6080   46.9710 C   0  0  0  0  0  0  0  0  0  0  0  0
   59.4400   34.5700   45.9410 C   0  0  0  0  0  0  0  0  0  0  0  0
   58.2310   33.8980   46.1310 C   0  0  0  0  0  0  0  0  0  0  0  0
   57.9650   33.2630   47.3490 C   0  0  0  0  0  0  0  0  0  0  0  0
   58.9140   33.2910   48.3780 C   0  0  0  0  0  0  0  0  0  0  0  0
   60.7440   33.2760   50.7850 S   0  0  0  0  0  0  0  0  0  0  0  0
   61.7270   33.7690   51.8130 O   0  0  0  0  0  0  0  0  0  0  0  0
   59.3690   33.6990   51.2200 O   0  0  0  0  0  0  0  0  0  0  0  0
   60.8210   31.5210   50.6790 C   0  0  0  0  0  0  0  0  0  0  0  0
   61.1220   30.7640   51.8180 C   0  0  0  0  0  0  0  0  0  0  0  0
   61.2060   29.3740   51.7300 C   0  0  0  0  0  0  0  0  0  0  0  0
   60.9810   28.7290   50.5100 C   0  0  0  0  0  0  0  0  0  0  0  0
   60.6540   29.4730   49.3600 C   0  0  0  0  0  0  0  0  0  0  0  0
   60.4040   28.8120   48.0520 C   0  0  0  0  0  0  0  0  0  0  0  0
   59.8780   29.4790   47.1170 O   0  0  0  0  0  0  0  0  0  0  0  0
   60.7310   27.4280   47.8360 N   0  0  0  0  0  0  0  0  0  0  0  0
   60.4400   26.7460   46.5770 C   0  0  0  0  0  0  0  0  0  0  0  0
   58.9530   26.6840   46.3650 C   0  0  0  0  0  0  0  0  0  0  0  0
   58.2760   27.7560   45.7640 C   0  0  0  0  0  0  0  0  0  0  0  0
   56.8860   27.7210   45.6250 C   0  0  0  0  0  0  0  0  0  0  0  0
   56.1570   26.6190   46.0820 C   0  0  0  0  0  0  0  0  0  0  0  0
   54.7700   26.6390   45.9940 O   0  0  0  0  0  0  0  0  0  0  0  0
   56.8310   25.5210   46.6590 C   0  0  0  0  0  0  0  0  0  0  0  0
   56.1540   24.3810   47.1180 O   0  0  0  0  0  0  0  0  0  0  0  0
   56.5180   23.0610   46.8250 C   0  0  0  0  0  0  0  0  0  0  0  0
   56.9450   22.3040   47.7410 O   0  0  0  0  0  0  0  0  0  0  0  0
   56.3460   22.5520   45.4880 N   0  0  0  0  0  0  0  0  0  0  0  0
   55.6490   23.3710   44.4880 C   0  0  0  0  0  0  0  0  0  0  0  0
   56.0480   22.9350   43.0740 C   0  0  0  0  0  0  0  0  0  0  0  0
   55.9040   21.5360   42.9170 O   0  0  0  0  0  0  0  0  0  0  0  0
   56.8260   20.8680   43.7580 C   0  0  0  0  0  0  0  0  0  0  0  0
   56.4860   21.1110   45.2310 C   0  0  0  0  0  0  0  0  0  0  0  0
   58.2210   25.5780   46.8250 C   0  0  0  0  0  0  0  0  0  0  0  0
   60.5870   30.8750   49.4570 C   0  0  0  0  0  0  0  0  0  0  0  0
   62.9070   34.7979   49.9687 H   0  0  0  0  0  0  0  0  0  0  0  0
   63.0475   33.8755   48.4338 H   0  0  0  0  0  0  0  0  0  0  0  0
   62.3061   35.5116   48.4338 H   0  0  0  0  0  0  0  0  0  0  0  0
   61.3378   35.1444   46.8224 H   0  0  0  0  0  0  0  0  0  0  0  0
   59.6473   35.0694   44.9831 H   0  0  0  0  0  0  0  0  0  0  0  0
   57.4865   33.8678   45.3218 H   0  0  0  0  0  0  0  0  0  0  0  0
   57.0085   32.7408   47.4984 H   0  0  0  0  0  0  0  0  0  0  0  0
   58.7042   32.7856   49.3323 H   0  0  0  0  0  0  0  0  0  0  0  0
   61.2923   31.2653   52.7822 H   0  0  0  0  0  0  0  0  0  0  0  0
   61.4504   28.7827   52.6248 H   0  0  0  0  0  0  0  0  0  0  0  0
   61.0599   27.6336   50.4482 H   0  0  0  0  0  0  0  0  0  0  0  0
   61.0170   26.8280   48.6440 H   0  0  0  0  0  0  0  0  0  0  0  0
   60.9048   27.2977   45.7466 H   0  0  0  0  0  0  0  0  0  0  0  0
   60.8450   25.7240   46.6148 H   0  0  0  0  0  0  0  0  0  0  0  0
   58.8414   28.6270   45.4010 H   0  0  0  0  0  0  0  0  0  0  0  0
   56.3623   28.5655   45.1532 H   0  0  0  0  0  0  0  0  0  0  0  0
   54.5628   23.2498   44.6125 H   0  0  0  0  0  0  0  0  0  0  0  0
   55.9285   24.4253   44.6303 H   0  0  0  0  0  0  0  0  0  0  0  0
   55.4041   23.4474   42.3441 H   0  0  0  0  0  0  0  0  0  0  0  0
   57.1027   23.2003   42.9091 H   0  0  0  0  0  0  0  0  0  0  0  0
   56.7871   19.7883   43.5514 H   0  0  0  0  0  0  0  0  0  0  0  0
   57.8350   21.2577   43.5581 H   0  0  0  0  0  0  0  0  0  0  0  0
   55.5401   20.6048   45.4740 H   0  0  0  0  0  0  0  0  0  0  0  0
   57.2970   20.7114   45.8576 H   0  0  0  0  0  0  0  0  0  0  0  0
   58.7443   24.7473   47.3210 H   0  0  0  0  0  0  0  0  0  0  0  0
   60.3483   31.4710   48.5638 H   0  0  0  0  0  0  0  0  0  0  0  0
  1  2  1  0
  2  3  1  0
  3  4  2  0
  4  5  1  0
  5  6  2  0
  6  7  1  0
  7  8  2  0
  2  9  1  0
  9 10  2  0
  9 11  2  0
  9 12  1  0
 12 13  2  0
 13 14  1  0
 14 15  2  0
 15 16  1  0
 16 17  1  0
 17 18  2  0
 17 19  1  0
 19 20  1  0
 20 21  1  0
 21 22  2  0
 22 23  1  0
 23 24  2  0
 24 25  1  0
 24 26  1  0
 26 27  1  0
 27 28  1  0
 28 29  2  0
 28 30  1  0
 30 31  1  0
 31 32  1  0
 32 33  1  0
 33 34  1  0
 34 35  1  0
 26 36  2  0
 16 37  2  0
  8  3  1  0
 37 12  1  0
 36 21  1  0
 35 30  1  0
  1 38  1  0
  1 39  1  0
  1 40  1  0
  4 41  1  0
  5 42  1  0
  6 43  1  0
  7 44  1  0
  8 45  1  0
 13 46  1  0
 14 47  1  0
 15 48  1  0
 19 49  1  0
 20 50  1  0
 20 51  1  0
 22 52  1  0
 23 53  1  0
 31 54  1  0
 31 55  1  0
 32 56  1  0
 32 57  1  0
 34 58  1  0
 34 59  1  0
 35 60  1  0
 35 61  1  0
 36 62  1  0
 37 63  1  0
M  CHG  1  25  -1
M  END
>  <UniqueID>  (45) 
43

>  <SMILES>  (45) 
CN(c1ccccc1)S(=O)(=O)c1cccc(C(=O)NCc2ccc([O-])c(OC(=O)N3CCOCC3)c2)c1

>  <Energy>  (45) 
78.71292368605323

>  <Genealogy>  (45) 
CN(c1ccccc1)S(=O)(=O)c1cccc(C(=O)NCc2ccc([O-])c(OC(=O)N3CCOCC3)c2)c1 (protonated)
CN(c1ccccc1)S(=O)(=O)c1cccc(C(=O)NCc2ccc([O-])c(OC(=O)N3CCOCC3)c2)c1 (3D coordinates assigned)
CN(c1ccccc1)S(=O)(=O)c1cccc(C(=O)NCc2ccc([O-])c(OC(=O)N3CCOCC3)c2)c1 (nonaromatic ring conformer: 78.71292368605323 kcal/mol)

>  <smiles>  (45) 
CN(c1ccccc1)S(=O)(=O)c1cccc(C(=O)NCc2ccc(O)c(OC(=O)N3CCOCC3)c2)c1

>  <score_type>  (45) 
oracle

>  <origin>  (45) 
adg

>  <m_score__min__energy>  (45) 
-14.42

>  <m_primary>  (45) 
energy

$$$$
45:0
     RDKit          3D

 38 40  0  0  0  0  0  0  0  0999 V2000
   54.2751   22.3549   43.7498 H   0  0  0  0  0  0  0  0  0  0  0  0
   54.8480   22.9960   44.4360 C   0  0  0  0  0  0  0  0  0  0  0  0
   56.0570   22.5430   44.9690 C   0  0  0  0  0  0  0  0  0  0  0  0
   56.4343   21.5445   44.7034 H   0  0  0  0  0  0  0  0  0  0  0  0
   56.7880   23.3560   45.8390 C   0  0  0  0  0  0  0  0  0  0  0  0
   57.7410   22.9953   46.2533 H   0  0  0  0  0  0  0  0  0  0  0  0
   56.3130   24.6320   46.1880 C   0  0  0  0  0  0  0  0  0  0  0  0
   57.1310   25.4940   47.1170 C   0  0  0  0  0  0  0  0  0  0  0  0
   58.1882   25.1978   47.0497 H   0  0  0  0  0  0  0  0  0  0  0  0
   56.7655   25.3576   48.1455 H   0  0  0  0  0  0  0  0  0  0  0  0
   57.0010   26.9030   46.7500 N   0  0  0  0  0  0  0  0  0  0  0  0
   56.1640   27.4170   47.1000 H   0  0  0  0  0  0  0  0  0  0  0  0
   58.0160   27.6000   46.0080 C   0  0  0  0  0  0  0  0  0  0  0  0
   59.1000   27.0140   45.7350 O   0  0  0  0  0  0  0  0  0  0  0  0
   57.8230   29.0030   45.5750 C   0  0  0  0  0  0  0  0  0  0  0  0
   57.0900   29.3130   44.3960 C   0  0  0  0  0  0  0  0  0  0  0  0
   56.6555   28.4994   43.7967 H   0  0  0  0  0  0  0  0  0  0  0  0
   56.9140   30.6480   43.9870 C   0  0  0  0  0  0  0  0  0  0  0  0
   56.3438   30.8938   43.0790 H   0  0  0  0  0  0  0  0  0  0  0  0
   57.4850   31.6460   44.7690 C   0  0  0  0  0  0  0  0  0  0  0  0
   57.4440   32.9720   44.5660 N   0  0  0  0  0  0  0  0  0  0  0  0
   58.1600   33.4480   45.6180 C   0  0  0  0  0  0  0  0  0  0  0  0
   58.3570   34.7210   45.7870 N   0  0  0  0  0  0  0  0  0  0  0  0
   59.5700   35.3340   46.2440 C   0  0  0  0  0  0  0  0  0  0  0  0
   60.0160   36.3370   45.6250 O   0  0  0  0  0  0  0  0  0  0  0  0
   60.2530   34.8340   47.3590 O   0  0  0  0  0  0  0  0  0  0  0  0
   61.2660   33.8410   47.2570 C   0  0  0  0  0  0  0  0  0  0  0  0
   61.5803   33.5329   48.2651 H   0  0  0  0  0  0  0  0  0  0  0  0
   60.8719   32.9696   46.7135 H   0  0  0  0  0  0  0  0  0  0  0  0
   62.1293   34.2524   46.7135 H   0  0  0  0  0  0  0  0  0  0  0  0
   58.6420   32.4930   46.4580 N   0  0  0  0  0  0  0  0  0  0  0  0
   58.1960   31.3620   45.8930 C   0  0  0  0  0  0  0  0  0  0  0  0
   58.3950   30.0560   46.3310 C   0  0  0  0  0  0  0  0  0  0  0  0
   58.9800   29.8471   47.2388 H   0  0  0  0  0  0  0  0  0  0  0  0
   55.0920   25.0840   45.6450 C   0  0  0  0  0  0  0  0  0  0  0  0
   54.5900   26.3410   45.9650 O   0  0  0  0  0  0  0  0  0  0  0  0
   54.3660   24.2630   44.7740 C   0  0  0  0  0  0  0  0  0  0  0  0
   53.4127   24.6167   44.3543 H   0  0  0  0  0  0  0  0  0  0  0  0
  1  2  1  0
  2  3  2  0
  3  4  1  0
  3  5  1  0
  5  6  1  0
  5  7  2  0
  7  8  1  0
  8  9  1  0
  8 10  1  0
  8 11  1  0
 11 12  1  0
 11 13  1  0
 13 14  2  0
 13 15  1  0
 15 16  2  0
 16 17  1  0
 16 18  1  0
 18 19  1  0
 18 20  2  0
 20 21  1  0
 21 22  1  0
 22 23  2  0
 23 24  1  0
 24 25  2  0
 24 26  1  0
 26 27  1  0
 27 28  1  0
 27 29  1  0
 27 30  1  0
 22 31  1  0
 31 32  1  0
 32 33  2  0
 33 34  1  0
  7 35  1  0
 35 36  1  0
 35 37  2  0
 37 38  1  0
 37  2  1  0
 33 15  1  0
 32 20  1  0
M  CHG  3  21  -1  31  -1  36  -1
M  END
>  <UniqueID>  (46) 
44

>  <SMILES>  (46) 
COC(=O)/N=c1/[n-]c2ccc(C(=O)NCc3ccccc3[O-])cc2[n-]1

>  <Energy>  (46) 
75.66059799933795

>  <Genealogy>  (46) 
COC(=O)N=c1[n-]c2ccc(C(=O)NCc3ccccc3[O-])cc2[n-]1 (protonated)
COC(=O)/N=c1/[n-]c2ccc(C(=O)NCc3ccccc3[O-])cc2[n-]1 (cis-trans isomerization)
COC(=O)/N=c1/[n-]c2ccc(C(=O)NCc3ccccc3[O-])cc2[n-]1 (3D coordinates assigned)
COC(=O)/N=c1/[n-]c2ccc(C(=O)NCc3ccccc3[O-])cc2[n-]1 (optimized conformer: 75.66059799933795 kcal/mol)

>  <smiles>  (46) 
COC(=O)N=c1[nH]c2ccc(C(=O)NCc3ccccc3O)cc2[nH]1

>  <score_type>  (46) 
oracle

>  <origin>  (46) 
adg

>  <m_score__min__energy>  (46) 
-12.4

>  <m_primary>  (46) 
energy

$$$$
46:0
     RDKit          3D

 37 38  0  0  0  0  0  0  0  0999 V2000
   57.3910   27.5120   46.7480 C   0  0  0  0  0  0  0  0  0  0  0  0
   57.8380   26.1260   46.3680 C   0  0  0  0  0  0  0  0  0  0  0  0
   59.1920   25.7390   46.2180 C   0  0  0  0  0  0  0  0  0  0  0  0
   60.5750   26.8090   46.4430 S   0  0  0  0  0  0  0  0  0  0  0  0
   60.4860   27.4480   47.8000 O   0  0  0  0  0  0  0  0  0  0  0  0
   61.8520   26.0240   46.3360 O   0  0  0  0  0  0  0  0  0  0  0  0
   60.5650   28.0410   45.2210 N   0  0  0  0  0  0  0  0  0  0  0  0
   59.5180   29.0130   45.1110 C   0  0  0  0  0  0  0  0  0  0  0  0
   59.4490   30.1280   45.9630 C   0  0  0  0  0  0  0  0  0  0  0  0
   60.5200   30.3740   46.8920 N   0  0  0  0  0  0  0  0  0  0  0  0
   58.3810   30.9900   45.8690 N   0  0  0  0  0  0  0  0  0  0  0  0
   58.2920   32.1460   46.7810 C   0  0  0  0  0  0  0  0  0  0  0  0
   57.4060   30.7780   44.9220 C   0  0  0  0  0  0  0  0  0  0  0  0
   56.4070   31.5490   44.8640 O   0  0  0  0  0  0  0  0  0  0  0  0
   57.5050   29.7380   44.0330 N   0  0  0  0  0  0  0  0  0  0  0  0
   56.4510   29.5290   43.0240 C   0  0  0  0  0  0  0  0  0  0  0  0
   58.5370   28.8460   44.1360 C   0  0  0  0  0  0  0  0  0  0  0  0
   58.6040   27.8520   43.3610 O   0  0  0  0  0  0  0  0  0  0  0  0
   59.3560   24.4050   45.8630 C   0  0  0  0  0  0  0  0  0  0  0  0
   57.8400   23.7030   45.7280 S   0  0  0  0  0  0  0  0  0  0  0  0
   56.9450   25.0740   46.1180 C   0  0  0  0  0  0  0  0  0  0  0  0
   55.4710   25.0980   46.1660 C   0  0  0  0  0  0  0  0  0  0  0  0
   54.7750   26.3290   45.9770 N   0  0  0  0  0  0  0  0  0  0  0  0
   54.8120   24.0450   46.3740 O   0  0  0  0  0  0  0  0  0  0  0  0
   57.3625   27.6004   47.8441 H   0  0  0  0  0  0  0  0  0  0  0  0
   58.0967   28.2499   46.3388 H   0  0  0  0  0  0  0  0  0  0  0  0
   56.3871   27.6986   46.3388 H   0  0  0  0  0  0  0  0  0  0  0  0
   60.8880   31.3300   47.0870 H   0  0  0  0  0  0  0  0  0  0  0  0
   60.9970   29.5880   47.3840 H   0  0  0  0  0  0  0  0  0  0  0  0
   58.3191   31.7940   47.8228 H   0  0  0  0  0  0  0  0  0  0  0  0
   59.1408   32.8219   46.6001 H   0  0  0  0  0  0  0  0  0  0  0  0
   57.3498   32.6840   46.6001 H   0  0  0  0  0  0  0  0  0  0  0  0
   55.4925   29.3389   43.5290 H   0  0  0  0  0  0  0  0  0  0  0  0
   56.3623   30.4270   42.3950 H   0  0  0  0  0  0  0  0  0  0  0  0
   56.7117   28.6651   42.3950 H   0  0  0  0  0  0  0  0  0  0  0  0
   60.3174   23.8965   45.6986 H   0  0  0  0  0  0  0  0  0  0  0  0
   55.1560   27.0690   45.3470 H   0  0  0  0  0  0  0  0  0  0  0  0
  1  2  1  0
  2  3  1  0
  3  4  1  0
  4  5  2  0
  4  6  2  0
  4  7  1  0
  7  8  1  0
  8  9  2  0
  9 10  1  0
  9 11  1  0
 11 12  1  0
 11 13  1  0
 13 14  2  0
 13 15  1  0
 15 16  1  0
 15 17  1  0
 17 18  2  0
  3 19  2  0
 19 20  1  0
 20 21  1  0
 21 22  1  0
 22 23  1  0
 22 24  2  0
 21  2  2  0
 17  8  1  0
  1 25  1  0
  1 26  1  0
  1 27  1  0
 10 28  1  0
 10 29  1  0
 12 30  1  0
 12 31  1  0
 12 32  1  0
 16 33  1  0
 16 34  1  0
 16 35  1  0
 19 36  1  0
 23 37  1  0
M  CHG  2   7  -1  23  -1
M  END
>  <UniqueID>  (47) 
45

>  <SMILES>  (47) 
Cc1c(S(=O)(=O)[N-]c2c(N)n(C)c(=O)n(C)c2=O)csc1C([NH-])=O

>  <Energy>  (47) 
83.13672625609614

>  <Genealogy>  (47) 
Cc1c(S(=O)(=O)[N-]c2c(N)n(C)c(=O)n(C)c2=O)csc1C([NH-])=O (protonated)
Cc1c(S(=O)(=O)[N-]c2c(N)n(C)c(=O)n(C)c2=O)csc1C([NH-])=O (3D coordinates assigned)
Cc1c(S(=O)(=O)[N-]c2c(N)n(C)c(=O)n(C)c2=O)csc1C([NH-])=O (optimized conformer: 83.13672625609614 kcal/mol)

>  <smiles>  (47) 
Cc1c(S(=O)(=O)Nc2c(N)n(C)c(=O)n(C)c2=O)csc1C(N)=O

>  <score_type>  (47) 
oracle

>  <origin>  (47) 
adg

>  <m_score__min__energy>  (47) 
-10.949999999999999

>  <m_primary>  (47) 
energy

$$$$
47:0
     RDKit          3D

 41 43  0  0  0  0  0  0  0  0999 V2000
   55.8370   27.0980   45.6720 N   0  0  0  0  0  0  0  0  0  0  0  0
   57.4560   26.9920   45.0770 S   0  0  0  0  0  0  0  0  0  0  0  0
   57.7670   25.5640   44.7230 O   0  0  0  0  0  0  0  0  0  0  0  0
   57.5900   27.8350   43.8400 O   0  0  0  0  0  0  0  0  0  0  0  0
   58.5750   27.5620   46.3110 C   0  0  0  0  0  0  0  0  0  0  0  0
   59.0890   26.6690   47.2600 C   0  0  0  0  0  0  0  0  0  0  0  0
   59.9780   27.1220   48.2370 C   0  0  0  0  0  0  0  0  0  0  0  0
   60.3490   28.4680   48.2800 C   0  0  0  0  0  0  0  0  0  0  0  0
   59.8260   29.3830   47.3500 C   0  0  0  0  0  0  0  0  0  0  0  0
   60.2360   30.8100   47.4090 C   0  0  0  0  0  0  0  0  0  0  0  0
   61.1210   31.2870   48.3940 C   0  0  0  0  0  0  0  0  0  0  0  0
   61.4800   32.6360   48.4010 C   0  0  0  0  0  0  0  0  0  0  0  0
   60.9630   33.5010   47.4370 C   0  0  0  0  0  0  0  0  0  0  0  0
   60.0820   33.0020   46.4700 C   0  0  0  0  0  0  0  0  0  0  0  0
   59.5260   33.8990   45.4010 C   0  0  0  0  0  0  0  0  0  0  0  0
   58.1020   33.6320   45.1920 N   0  0  0  0  0  0  0  0  0  0  0  0
   57.5860   32.5890   44.3410 C   0  0  0  0  0  0  0  0  0  0  0  0
   57.8670   32.6260   42.9660 C   0  0  0  0  0  0  0  0  0  0  0  0
   57.3880   31.6260   42.1160 C   0  0  0  0  0  0  0  0  0  0  0  0
   56.6210   30.5780   42.6280 C   0  0  0  0  0  0  0  0  0  0  0  0
   56.3280   30.5260   43.9940 C   0  0  0  0  0  0  0  0  0  0  0  0
   55.5610   29.4750   44.4920 O   0  0  0  0  0  0  0  0  0  0  0  0
   56.8070   31.5300   44.8490 C   0  0  0  0  0  0  0  0  0  0  0  0
   59.7570   31.6800   46.4750 N   0  0  0  0  0  0  0  0  0  0  0  0
   58.9390   28.9150   46.3600 C   0  0  0  0  0  0  0  0  0  0  0  0
   55.2440   27.4400   44.8820 H   0  0  0  0  0  0  0  0  0  0  0  0
   58.7921   25.6101   47.2356 H   0  0  0  0  0  0  0  0  0  0  0  0
   60.3874   26.4166   48.9751 H   0  0  0  0  0  0  0  0  0  0  0  0
   61.0562   28.8147   49.0479 H   0  0  0  0  0  0  0  0  0  0  0  0
   61.5268   30.6018   49.1528 H   0  0  0  0  0  0  0  0  0  0  0  0
   62.1711   33.0169   49.1674 H   0  0  0  0  0  0  0  0  0  0  0  0
   61.2445   34.5644   47.4364 H   0  0  0  0  0  0  0  0  0  0  0  0
   59.6560   34.9479   45.7058 H   0  0  0  0  0  0  0  0  0  0  0  0
   60.0642   33.7057   44.4613 H   0  0  0  0  0  0  0  0  0  0  0  0
   57.4220   34.2600   45.6780 H   0  0  0  0  0  0  0  0  0  0  0  0
   58.4694   33.4493   42.5544 H   0  0  0  0  0  0  0  0  0  0  0  0
   57.6158   31.6646   41.0405 H   0  0  0  0  0  0  0  0  0  0  0  0
   56.2466   29.7920   41.9557 H   0  0  0  0  0  0  0  0  0  0  0  0
   55.8410   28.5090   44.3680 H   0  0  0  0  0  0  0  0  0  0  0  0
   56.5730   31.4904   45.9231 H   0  0  0  0  0  0  0  0  0  0  0  0
   58.5287   29.6173   45.6194 H   0  0  0  0  0  0  0  0  0  0  0  0
  1  2  1  0
  2  3  2  0
  2  4  2  0
  2  5  1  0
  5  6  2  0
  6  7  1  0
  7  8  2  0
  8  9  1  0
  9 10  1  0
 10 11  2  0
 11 12  1  0
 12 13  2  0
 13 14  1  0
 14 15  1  0
 15 16  1  0
 16 17  1  0
 17 18  2  0
 18 19  1  0
 19 20  2  0
 20 21  1  0
 21 22  1  0
 21 23  2  0
 14 24  2  0
  9 25  2  0
 25  5  1  0
 24 10  1  0
 23 17  1  0
  1 26  1  0
  6 27  1  0
  7 28  1  0
  8 29  1  0
 11 30  1  0
 12 31  1  0
 13 32  1  0
 15 33  1  0
 15 34  1  0
 16 35  1  0
 18 36  1  0
 19 37  1  0
 20 38  1  0
 22 39  1  0
 23 40  1  0
 25 41  1  0
M  CHG  1   1  -1
M  END
>  <UniqueID>  (48) 
46

>  <SMILES>  (48) 
[NH-]S(=O)(=O)c1cccc(-c2cccc(CNc3cccc(O)c3)n2)c1

>  <Energy>  (48) 
46.101107989557825

>  <Genealogy>  (48) 
[NH-]S(=O)(=O)c1cccc(-c2cccc(CNc3cccc(O)c3)n2)c1 (protonated)
[NH-]S(=O)(=O)c1cccc(-c2cccc(CNc3cccc(O)c3)n2)c1 (3D coordinates assigned)
[NH-]S(=O)(=O)c1cccc(-c2cccc(CNc3cccc(O)c3)n2)c1 (optimized conformer: 46.101107989557825 kcal/mol)

>  <smiles>  (48) 
NS(=O)(=O)c1cccc(-c2cccc(CNc3cccc(O)c3)n2)c1

>  <score_type>  (48) 
oracle

>  <origin>  (48) 
adg

>  <m_score__min__energy>  (48) 
-11.51

>  <m_primary>  (48) 
energy

$$$$
48:0
     RDKit          3D

 41 43  0  0  0  0  0  0  0  0999 V2000
   58.3848   35.5397   44.2111 H   0  0  0  0  0  0  0  0  0  0  0  0
   58.5150   34.8090   45.0230 C   0  0  0  0  0  0  0  0  0  0  0  0
   57.3980   34.1880   45.5900 C   0  0  0  0  0  0  0  0  0  0  0  0
   56.3890   34.4341   45.2275 H   0  0  0  0  0  0  0  0  0  0  0  0
   57.5630   33.2540   46.6180 C   0  0  0  0  0  0  0  0  0  0  0  0
   56.6816   32.7775   47.0720 H   0  0  0  0  0  0  0  0  0  0  0  0
   58.8500   32.9220   47.0730 C   0  0  0  0  0  0  0  0  0  0  0  0
   59.0350   31.9630   48.1790 C   0  0  0  0  0  0  0  0  0  0  0  0
   58.8680   30.6280   47.9640 N   0  0  0  0  0  0  0  0  0  0  0  0
   59.1680   29.8980   49.0600 C   0  0  0  0  0  0  0  0  0  0  0  0
   59.0960   28.6020   49.1210 N   0  0  0  0  0  0  0  0  0  0  0  0
   59.6620   27.6740   48.1800 C   0  0  0  0  0  0  0  0  0  0  0  0
   60.7250   27.0510   48.4570 O   0  0  0  0  0  0  0  0  0  0  0  0
   58.9960   27.4460   46.8770 C   0  0  0  0  0  0  0  0  0  0  0  0
   59.1500   26.2210   46.2000 C   0  0  0  0  0  0  0  0  0  0  0  0
   59.7668   25.4255   46.6436 H   0  0  0  0  0  0  0  0  0  0  0  0
   58.5250   26.0090   44.9690 C   0  0  0  0  0  0  0  0  0  0  0  0
   58.6527   25.0488   44.4477 H   0  0  0  0  0  0  0  0  0  0  0  0
   57.7390   27.0110   44.3980 C   0  0  0  0  0  0  0  0  0  0  0  0
   57.2529   26.8405   43.4261 H   0  0  0  0  0  0  0  0  0  0  0  0
   57.5680   28.2330   45.0600 C   0  0  0  0  0  0  0  0  0  0  0  0
   56.5890   29.5050   44.3340 S   0  0  0  0  0  0  0  0  0  0  0  0
   57.1230   30.8490   44.7420 O   0  0  0  0  0  0  0  0  0  0  0  0
   55.1670   29.3890   44.8050 O   0  0  0  0  0  0  0  0  0  0  0  0
   56.6390   29.3620   42.6120 N   0  0  0  0  0  0  0  0  0  0  0  0
   55.7360   29.7400   42.2480 H   0  0  0  0  0  0  0  0  0  0  0  0
   57.3910   30.0040   42.2740 H   0  0  0  0  0  0  0  0  0  0  0  0
   58.2000   28.4500   46.2920 C   0  0  0  0  0  0  0  0  0  0  0  0
   58.0731   29.4137   46.8070 H   0  0  0  0  0  0  0  0  0  0  0  0
   59.6520   30.8600   50.3440 S   0  0  0  0  0  0  0  0  0  0  0  0
   59.4620   32.2930   49.4790 C   0  0  0  0  0  0  0  0  0  0  0  0
   59.6310   33.6290   50.0850 C   0  0  0  0  0  0  0  0  0  0  0  0
   60.2080   34.5320   49.4230 O   0  0  0  0  0  0  0  0  0  0  0  0
   59.1820   33.9380   51.4810 C   0  0  0  0  0  0  0  0  0  0  0  0
   59.8680   33.4659   52.1997 H   0  0  0  0  0  0  0  0  0  0  0  0
   59.1834   35.0273   51.6340 H   0  0  0  0  0  0  0  0  0  0  0  0
   58.1651   33.5476   51.6340 H   0  0  0  0  0  0  0  0  0  0  0  0
   59.9650   33.5690   46.5150 C   0  0  0  0  0  0  0  0  0  0  0  0
   60.9745   33.3410   46.8879 H   0  0  0  0  0  0  0  0  0  0  0  0
   59.7960   34.5020   45.4870 C   0  0  0  0  0  0  0  0  0  0  0  0
   60.6735   34.9949   45.0431 H   0  0  0  0  0  0  0  0  0  0  0  0
  1  2  1  0
  2  3  2  0
  3  4  1  0
  3  5  1  0
  5  6  1  0
  5  7  2  0
  7  8  1  0
  8  9  1  0
  9 10  1  0
 10 11  2  0
 11 12  1  0
 12 13  2  0
 12 14  1  0
 14 15  2  0
 15 16  1  0
 15 17  1  0
 17 18  1  0
 17 19  2  0
 19 20  1  0
 19 21  1  0
 21 22  1  0
 22 23  2  0
 22 24  2  0
 22 25  1  0
 25 26  1  0
 25 27  1  0
 21 28  2  0
 28 29  1  0
 10 30  1  0
 30 31  1  0
 31 32  1  0
 32 33  2  0
 32 34  1  0
 34 35  1  0
 34 36  1  0
 34 37  1  0
  7 38  1  0
 38 39  1  0
 38 40  2  0
 40 41  1  0
 40  2  1  0
 31  8  2  0
 28 14  1  0
M  CHG  1   9  -1
M  END
>  <UniqueID>  (49) 
47

>  <SMILES>  (49) 
CC(=O)c1s/c(=N/C(=O)c2cccc(S(N)(=O)=O)c2)[n-]c1-c1ccccc1

>  <Energy>  (49) 
81.62923898920442

>  <Genealogy>  (49) 
CC(=O)c1sc(=NC(=O)c2cccc(S(N)(=O)=O)c2)[n-]c1-c1ccccc1 (protonated)
CC(=O)c1s/c(=N/C(=O)c2cccc(S(N)(=O)=O)c2)[n-]c1-c1ccccc1 (cis-trans isomerization)
CC(=O)c1s/c(=N/C(=O)c2cccc(S(N)(=O)=O)c2)[n-]c1-c1ccccc1 (3D coordinates assigned)
CC(=O)c1s/c(=N/C(=O)c2cccc(S(N)(=O)=O)c2)[n-]c1-c1ccccc1 (optimized conformer: 81.62923898920442 kcal/mol)

>  <smiles>  (49) 
CC(=O)c1sc(=NC(=O)c2cccc(S(N)(=O)=O)c2)[nH]c1-c1ccccc1

>  <score_type>  (49) 
oracle

>  <origin>  (49) 
adg

>  <m_score__min__energy>  (49) 
-10.949999999999999

>  <m_primary>  (49) 
energy

$$$$
49:0
     RDKit          3D

 63 66  0  0  0  0  0  0  0  0999 V2000
   64.2020   31.6280   50.0690 C   0  0  0  0  0  0  0  0  0  0  0  0
   63.0450   31.8500   48.7360 S   0  0  0  0  0  0  0  0  0  0  0  0
   63.7180   31.5870   47.4190 O   0  0  0  0  0  0  0  0  0  0  0  0
   62.5440   33.2680   48.7520 O   0  0  0  0  0  0  0  0  0  0  0  0
   61.7090   30.7660   48.9370 N   0  0  0  0  0  0  0  0  0  0  0  0
   61.5370   29.8810   50.0860 C   0  0  0  0  0  0  0  0  0  0  0  0
   60.3140   28.9890   49.7530 C   0  0  0  0  0  0  0  0  0  0  0  0
   59.9340   29.4250   48.3800 C   0  0  0  0  0  0  0  0  0  0  0  0
   58.9100   28.9270   47.5730 C   0  0  0  0  0  0  0  0  0  0  0  0
   58.7290   29.4830   46.2930 C   0  0  0  0  0  0  0  0  0  0  0  0
   57.4390   28.8760   45.2610 S   0  0  0  0  0  0  0  0  0  0  0  0
   56.7190   27.7710   45.9790 O   0  0  0  0  0  0  0  0  0  0  0  0
   58.0050   28.3270   43.9800 O   0  0  0  0  0  0  0  0  0  0  0  0
   56.3150   30.1530   44.9070 N   0  0  0  0  0  0  0  0  0  0  0  0
   57.0350   31.3250   44.4120 C   0  0  0  0  0  0  0  0  0  0  0  0
   56.6620   32.5570   45.2390 C   0  0  0  0  0  0  0  0  0  0  0  0
   57.8910   33.2890   45.7180 C   0  0  0  0  0  0  0  0  0  0  0  0
   58.8590   33.7240   44.8000 C   0  0  0  0  0  0  0  0  0  0  0  0
   60.0170   34.3620   45.2480 C   0  0  0  0  0  0  0  0  0  0  0  0
   60.2210   34.5670   46.6140 C   0  0  0  0  0  0  0  0  0  0  0  0
   59.2640   34.1370   47.5470 C   0  0  0  0  0  0  0  0  0  0  0  0
   59.4770   34.3590   49.0280 C   0  0  0  0  0  0  0  0  0  0  0  0
   59.8000   33.1000   49.7440 N   0  0  0  0  0  0  0  0  0  0  0  0
   60.4090   33.4200   51.0650 C   0  0  0  0  0  0  0  0  0  0  0  0
   60.3200   32.2400   52.0390 C   0  0  0  0  0  0  0  0  0  0  0  0
   58.8540   31.8820   52.3390 C   0  0  0  0  0  0  0  0  0  0  0  0
   57.9050   32.2760   51.1950 C   0  0  0  0  0  0  0  0  0  0  0  0
   58.6160   32.1930   49.8370 C   0  0  0  0  0  0  0  0  0  0  0  0
   58.1030   33.4900   47.0910 C   0  0  0  0  0  0  0  0  0  0  0  0
   59.5700   30.5310   45.8570 C   0  0  0  0  0  0  0  0  0  0  0  0
   60.5920   31.0130   46.6900 C   0  0  0  0  0  0  0  0  0  0  0  0
   60.7490   30.4360   47.9520 C   0  0  0  0  0  0  0  0  0  0  0  0
   63.6773   31.7287   51.0305 H   0  0  0  0  0  0  0  0  0  0  0  0
   64.6528   30.6270   50.0003 H   0  0  0  0  0  0  0  0  0  0  0  0
   64.9913   32.3911   50.0003 H   0  0  0  0  0  0  0  0  0  0  0  0
   62.4347   29.2618   50.2303 H   0  0  0  0  0  0  0  0  0  0  0  0
   61.3825   30.4493   51.0151 H   0  0  0  0  0  0  0  0  0  0  0  0
   60.5882   27.9238   49.7662 H   0  0  0  0  0  0  0  0  0  0  0  0
   59.4948   29.0938   50.4796 H   0  0  0  0  0  0  0  0  0  0  0  0
   58.2577   28.1165   47.9302 H   0  0  0  0  0  0  0  0  0  0  0  0
   58.1177   31.1475   44.4911 H   0  0  0  0  0  0  0  0  0  0  0  0
   56.7610   31.4995   43.3611 H   0  0  0  0  0  0  0  0  0  0  0  0
   56.0597   33.2364   44.6180 H   0  0  0  0  0  0  0  0  0  0  0  0
   56.0913   32.2246   46.1187 H   0  0  0  0  0  0  0  0  0  0  0  0
   58.7047   33.5616   43.7230 H   0  0  0  0  0  0  0  0  0  0  0  0
   60.7705   34.7040   44.5232 H   0  0  0  0  0  0  0  0  0  0  0  0
   61.1366   35.0682   46.9611 H   0  0  0  0  0  0  0  0  0  0  0  0
   60.3080   35.0668   49.1640 H   0  0  0  0  0  0  0  0  0  0  0  0
   58.5404   34.7548   49.4477 H   0  0  0  0  0  0  0  0  0  0  0  0
   60.5360   32.5950   49.1940 H   0  0  0  0  0  0  0  0  0  0  0  0
   61.4678   33.6776   50.9149 H   0  0  0  0  0  0  0  0  0  0  0  0
   59.8524   34.2629   51.5006 H   0  0  0  0  0  0  0  0  0  0  0  0
   60.8195   31.3672   51.5932 H   0  0  0  0  0  0  0  0  0  0  0  0
   60.8109   32.5254   52.9811 H   0  0  0  0  0  0  0  0  0  0  0  0
   58.7818   30.7961   52.4989 H   0  0  0  0  0  0  0  0  0  0  0  0
   58.5494   32.4441   53.2342 H   0  0  0  0  0  0  0  0  0  0  0  0
   57.0426   31.5932   51.1918 H   0  0  0  0  0  0  0  0  0  0  0  0
   57.5750   33.3131   51.3549 H   0  0  0  0  0  0  0  0  0  0  0  0
   58.9537   31.1579   49.6803 H   0  0  0  0  0  0  0  0  0  0  0  0
   57.8963   32.5098   49.0677 H   0  0  0  0  0  0  0  0  0  0  0  0
   57.3542   33.1381   47.8159 H   0  0  0  0  0  0  0  0  0  0  0  0
   59.4233   30.9715   44.8598 H   0  0  0  0  0  0  0  0  0  0  0  0
   61.2536   31.8261   46.3565 H   0  0  0  0  0  0  0  0  0  0  0  0
  1  2  1  0
  2  3  2  0
  2  4  2  0
  2  5  1  0
  5  6  1  0
  6  7  1  0
  7  8  1  0
  8  9  2  0
  9 10  1  0
 10 11  1  0
 11 12  2  0
 11 13  2  0
 11 14  1  0
 14 15  1  0
 15 16  1  0
 16 17  1  0
 17 18  2  0
 18 19  1  0
 19 20  2  0
 20 21  1  0
 21 22  1  0
 22 23  1  0
 23 24  1  0
 24 25  1  0
 25 26  1  0
 26 27  1  0
 27 28  1  0
 21 29  2  0
 10 30  2  0
 30 31  1  0
 31 32  2  0
 32  5  1  0
 32  8  1  0
 29 17  1  0
 28 23  1  0
  1 33  1  0
  1 34  1  0
  1 35  1  0
  6 36  1  0
  6 37  1  0
  7 38  1  0
  7 39  1  0
  9 40  1  0
 15 41  1  0
 15 42  1  0
 16 43  1  0
 16 44  1  0
 18 45  1  0
 19 46  1  0
 20 47  1  0
 22 48  1  0
 22 49  1  0
 23 50  1  0
 24 51  1  0
 24 52  1  0
 25 53  1  0
 25 54  1  0
 26 55  1  0
 26 56  1  0
 27 57  1  0
 27 58  1  0
 28 59  1  0
 28 60  1  0
 29 61  1  0
 30 62  1  0
 31 63  1  0
M  CHG  2  14  -1  23   1
M  END
>  <UniqueID>  (50) 
48

>  <SMILES>  (50) 
CS(=O)(=O)N1CCc2cc(S(=O)(=O)[N-]CCc3cccc(C[NH+]4CCCCC4)c3)ccc21

>  <Energy>  (50) 
79.77936087615863

>  <Genealogy>  (50) 
CS(=O)(=O)N1CCc2cc(S(=O)(=O)[N-]CCc3cccc(C[NH+]4CCCCC4)c3)ccc21 (protonated)
CS(=O)(=O)N1CCc2cc(S(=O)(=O)[N-]CCc3cccc(C[NH+]4CCCCC4)c3)ccc21 (3D coordinates assigned)
CS(=O)(=O)N1CCc2cc(S(=O)(=O)[N-]CCc3cccc(C[NH+]4CCCCC4)c3)ccc21 (nonaromatic ring conformer: 79.77936087615863 kcal/mol)

>  <smiles>  (50) 
CS(=O)(=O)N1CCc2cc(S(=O)(=O)NCCc3cccc(CN4CCCCC4)c3)ccc21

>  <score_type>  (50) 
oracle

>  <origin>  (50) 
adg

>  <m_score__min__energy>  (50) 
-9.1500000000000004

>  <m_primary>  (50) 
energy

$$$$
50:0
     RDKit          3D

 54 56  0  0  0  0  0  0  0  0999 V2000
   55.5910   21.8260   46.1030 C   0  0  0  0  0  0  0  0  0  0  0  0
   56.2270   22.8920   46.9350 C   0  0  0  0  0  0  0  0  0  0  0  0
   57.0360   22.5630   47.8460 O   0  0  0  0  0  0  0  0  0  0  0  0
   55.8380   24.2620   46.7570 N   0  0  0  0  0  0  0  0  0  0  0  0
   56.7190   25.3840   46.5890 C   0  0  0  0  0  0  0  0  0  0  0  0
   58.1090   25.2520   46.7440 C   0  0  0  0  0  0  0  0  0  0  0  0
   58.9410   26.3500   46.5380 C   0  0  0  0  0  0  0  0  0  0  0  0
   58.4010   27.5820   46.1660 C   0  0  0  0  0  0  0  0  0  0  0  0
   57.0200   27.7370   45.9950 C   0  0  0  0  0  0  0  0  0  0  0  0
   56.5460   29.0400   45.6120 N   0  0  0  0  0  0  0  0  0  0  0  0
   56.5040   29.7430   44.0260 S   0  0  0  0  0  0  0  0  0  0  0  0
   55.0830   29.9830   43.6040 O   0  0  0  0  0  0  0  0  0  0  0  0
   57.1710   28.8250   43.0440 O   0  0  0  0  0  0  0  0  0  0  0  0
   57.3670   31.2780   44.0630 C   0  0  0  0  0  0  0  0  0  0  0  0
   57.7790   31.8780   42.8670 C   0  0  0  0  0  0  0  0  0  0  0  0
   58.4660   33.0940   42.8950 C   0  0  0  0  0  0  0  0  0  0  0  0
   58.7360   33.7220   44.1150 C   0  0  0  0  0  0  0  0  0  0  0  0
   58.3140   33.1390   45.3240 C   0  0  0  0  0  0  0  0  0  0  0  0
   58.5990   33.7970   46.6180 C   0  0  0  0  0  0  0  0  0  0  0  0
   57.7420   33.7700   47.5440 O   0  0  0  0  0  0  0  0  0  0  0  0
   59.8500   34.4620   46.8280 N   0  0  0  0  0  0  0  0  0  0  0  0
   61.1290   33.9290   46.3770 C   0  0  0  0  0  0  0  0  0  0  0  0
   62.1070   33.8360   47.5180 C   0  0  0  0  0  0  0  0  0  0  0  0
   63.3320   33.6700   47.2530 O   0  0  0  0  0  0  0  0  0  0  0  0
   61.7030   33.9750   48.8930 N   0  0  0  0  0  0  0  0  0  0  0  0
   60.6280   33.2750   49.5410 C   0  0  0  0  0  0  0  0  0  0  0  0
   60.2100   32.0390   49.0280 C   0  0  0  0  0  0  0  0  0  0  0  0
   59.1690   31.3330   49.6430 C   0  0  0  0  0  0  0  0  0  0  0  0
   58.5270   31.8620   50.7780 C   0  0  0  0  0  0  0  0  0  0  0  0
   57.3820   31.1190   51.4130 C   0  0  0  0  0  0  0  0  0  0  0  0
   58.9120   33.1280   51.2590 C   0  0  0  0  0  0  0  0  0  0  0  0
   59.9550   33.8310   50.6450 C   0  0  0  0  0  0  0  0  0  0  0  0
   57.6320   31.9110   45.2860 C   0  0  0  0  0  0  0  0  0  0  0  0
   56.1750   26.6220   46.2040 C   0  0  0  0  0  0  0  0  0  0  0  0
   54.7980   26.7130   46.0430 O   0  0  0  0  0  0  0  0  0  0  0  0
   55.1391   21.0686   46.7603 H   0  0  0  0  0  0  0  0  0  0  0  0
   54.8116   22.2725   45.4681 H   0  0  0  0  0  0  0  0  0  0  0  0
   56.3542   21.3522   45.4681 H   0  0  0  0  0  0  0  0  0  0  0  0
   58.5406   24.2810   47.0282 H   0  0  0  0  0  0  0  0  0  0  0  0
   60.0282   26.2456   46.6691 H   0  0  0  0  0  0  0  0  0  0  0  0
   59.0683   28.4415   46.0052 H   0  0  0  0  0  0  0  0  0  0  0  0
   57.5616   31.3916   41.9047 H   0  0  0  0  0  0  0  0  0  0  0  0
   58.7957   33.5591   41.9543 H   0  0  0  0  0  0  0  0  0  0  0  0
   59.2814   34.6772   44.1295 H   0  0  0  0  0  0  0  0  0  0  0  0
   60.9719   32.9253   45.9551 H   0  0  0  0  0  0  0  0  0  0  0  0
   61.5423   34.6066   45.6154 H   0  0  0  0  0  0  0  0  0  0  0  0
   60.7026   31.6216   48.1374 H   0  0  0  0  0  0  0  0  0  0  0  0
   58.8517   30.3610   49.2374 H   0  0  0  0  0  0  0  0  0  0  0  0
   57.4701   31.1762   52.5080 H   0  0  0  0  0  0  0  0  0  0  0  0
   56.4307   31.5724   51.0975 H   0  0  0  0  0  0  0  0  0  0  0  0
   57.4085   30.0655   51.0975 H   0  0  0  0  0  0  0  0  0  0  0  0
   58.3902   33.5670   52.1221 H   0  0  0  0  0  0  0  0  0  0  0  0
   60.2493   34.8200   51.0261 H   0  0  0  0  0  0  0  0  0  0  0  0
   57.3028   31.4416   46.2248 H   0  0  0  0  0  0  0  0  0  0  0  0
  1  2  1  0
  2  3  2  0
  2  4  1  0
  4  5  1  0
  5  6  2  0
  6  7  1  0
  7  8  2  0
  8  9  1  0
  9 10  1  0
 10 11  1  0
 11 12  2  0
 11 13  2  0
 11 14  1  0
 14 15  2  0
 15 16  1  0
 16 17  2  0
 17 18  1  0
 18 19  1  0
 19 20  2  0
 19 21  1  0
 21 22  1  0
 22 23  1  0
 23 24  2  0
 23 25  1  0
 25 26  1  0
 26 27  2  0
 27 28  1  0
 28 29  2  0
 29 30  1  0
 29 31  1  0
 31 32  2  0
 18 33  2  0
  9 34  2  0
 34 35  1  0
 34  5  1  0
 33 14  1  0
 32 26  1  0
  1 36  1  0
  1 37  1  0
  1 38  1  0
  6 39  1  0
  7 40  1  0
  8 41  1  0
 15 42  1  0
 16 43  1  0
 17 44  1  0
 22 45  1  0
 22 46  1  0
 27 47  1  0
 28 48  1  0
 30 49  1  0
 30 50  1  0
 30 51  1  0
 31 52  1  0
 32 53  1  0
 33 54  1  0
M  CHG  5   4  -1  10  -1  21  -1  25  -1  35  -1
M  END
>  <UniqueID>  (51) 
49

>  <SMILES>  (51) 
CC(=O)[N-]c1cccc([N-]S(=O)(=O)c2cccc(C(=O)[N-]CC(=O)[N-]c3ccc(C)cc3)c2)c1[O-]

>  <Energy>  (51) 
67.24966042951067

>  <Genealogy>  (51) 
CC(=O)[N-]c1cccc([N-]S(=O)(=O)c2cccc(C(=O)[N-]CC(=O)[N-]c3ccc(C)cc3)c2)c1[O-] (protonated)
CC(=O)[N-]c1cccc([N-]S(=O)(=O)c2cccc(C(=O)[N-]CC(=O)[N-]c3ccc(C)cc3)c2)c1[O-] (3D coordinates assigned)
CC(=O)[N-]c1cccc([N-]S(=O)(=O)c2cccc(C(=O)[N-]CC(=O)[N-]c3ccc(C)cc3)c2)c1[O-] (optimized conformer: 67.24966042951067 kcal/mol)

>  <smiles>  (51) 
CC(=O)Nc1cccc(NS(=O)(=O)c2cccc(C(=O)NCC(=O)Nc3ccc(C)cc3)c2)c1O

>  <score_type>  (51) 
oracle

>  <origin>  (51) 
adg

>  <m_score__min__energy>  (51) 
-18.600000000000001

>  <m_primary>  (51) 
energy

$$$$
51:0
     RDKit          3D

 48 50  0  0  0  0  0  0  0  0999 V2000
   62.6840   33.7980   46.7830 C   0  0  0  0  0  0  0  0  0  0  0  0
   61.1980   33.5530   46.7090 C   0  0  0  0  0  0  0  0  0  0  0  0
   60.3580   34.6230   46.3620 C   0  0  0  0  0  0  0  0  0  0  0  0
   58.9800   34.4520   46.3050 C   0  0  0  0  0  0  0  0  0  0  0  0
   58.4150   33.2140   46.5940 C   0  0  0  0  0  0  0  0  0  0  0  0
   59.2220   32.1130   46.9270 C   0  0  0  0  0  0  0  0  0  0  0  0
   58.5340   30.8070   47.2660 C   0  0  0  0  0  0  0  0  0  0  0  0
   58.0930   30.1040   46.0230 C   0  0  0  0  0  0  0  0  0  0  0  0
   58.6490   28.9640   45.5620 N   0  0  0  0  0  0  0  0  0  0  0  0
   57.9890   28.6790   44.4520 N   0  0  0  0  0  0  0  0  0  0  0  0
   58.2260   27.4850   43.6380 C   0  0  0  0  0  0  0  0  0  0  0  0
   57.5500   26.3050   44.2230 N   0  0  0  0  0  0  0  0  0  0  0  0
   58.2680   25.8160   45.4310 C   0  0  0  0  0  0  0  0  0  0  0  0
   58.1300   24.2920   45.6570 C   0  0  0  0  0  0  0  0  0  0  0  0
   56.8390   23.7620   45.1800 N   0  0  0  0  0  0  0  0  0  0  0  0
   55.7250   24.1470   46.0640 C   0  0  0  0  0  0  0  0  0  0  0  0
   56.5710   24.0740   43.7540 C   0  0  0  0  0  0  0  0  0  0  0  0
   57.4150   25.2430   43.2080 C   0  0  0  0  0  0  0  0  0  0  0  0
   57.0590   29.6390   44.2750 C   0  0  0  0  0  0  0  0  0  0  0  0
   55.9910   29.7120   43.0350 S   0  0  0  0  0  0  0  0  0  0  0  0
   57.1240   30.5250   45.2370 O   0  0  0  0  0  0  0  0  0  0  0  0
   60.6390   32.2710   46.9650 C   0  0  0  0  0  0  0  0  0  0  0  0
   61.5480   31.1250   47.3590 C   0  0  0  0  0  0  0  0  0  0  0  0
   62.9951   33.8493   47.8368 H   0  0  0  0  0  0  0  0  0  0  0  0
   63.2166   32.9755   46.2831 H   0  0  0  0  0  0  0  0  0  0  0  0
   62.9243   34.7479   46.2831 H   0  0  0  0  0  0  0  0  0  0  0  0
   60.7948   35.6063   46.1330 H   0  0  0  0  0  0  0  0  0  0  0  0
   58.3337   35.2986   46.0304 H   0  0  0  0  0  0  0  0  0  0  0  0
   57.3219   33.0955   46.5614 H   0  0  0  0  0  0  0  0  0  0  0  0
   59.2347   30.1620   47.8164 H   0  0  0  0  0  0  0  0  0  0  0  0
   57.6493   31.0231   47.8829 H   0  0  0  0  0  0  0  0  0  0  0  0
   57.8366   27.6573   42.6238 H   0  0  0  0  0  0  0  0  0  0  0  0
   59.3082   27.2904   43.6057 H   0  0  0  0  0  0  0  0  0  0  0  0
   56.5850   26.6060   44.5000 H   0  0  0  0  0  0  0  0  0  0  0  0
   59.3359   26.0564   45.3223 H   0  0  0  0  0  0  0  0  0  0  0  0
   57.8142   26.3141   46.3005 H   0  0  0  0  0  0  0  0  0  0  0  0
   58.9413   23.7811   45.1178 H   0  0  0  0  0  0  0  0  0  0  0  0
   58.1848   24.1098   46.7404 H   0  0  0  0  0  0  0  0  0  0  0  0
   56.0359   24.0396   47.1137 H   0  0  0  0  0  0  0  0  0  0  0  0
   55.4471   25.1933   45.8692 H   0  0  0  0  0  0  0  0  0  0  0  0
   54.8603   23.4956   45.8692 H   0  0  0  0  0  0  0  0  0  0  0  0
   56.7899   23.1777   43.1550 H   0  0  0  0  0  0  0  0  0  0  0  0
   55.5161   24.3776   43.6833 H   0  0  0  0  0  0  0  0  0  0  0  0
   58.4147   24.8718   42.9381 H   0  0  0  0  0  0  0  0  0  0  0  0
   56.9121   25.6603   42.3232 H   0  0  0  0  0  0  0  0  0  0  0  0
   61.6004   31.0589   48.4558 H   0  0  0  0  0  0  0  0  0  0  0  0
   61.1482   30.1838   46.9537 H   0  0  0  0  0  0  0  0  0  0  0  0
   62.5555   31.3001   46.9537 H   0  0  0  0  0  0  0  0  0  0  0  0
  1  2  1  0
  2  3  2  0
  3  4  1  0
  4  5  2  0
  5  6  1  0
  6  7  1  0
  7  8  1  0
  8  9  2  0
  9 10  1  0
 10 11  1  0
 11 12  1  0
 12 13  1  0
 13 14  1  0
 14 15  1  0
 15 16  1  0
 15 17  1  0
 17 18  1  0
 10 19  1  0
 19 20  2  0
 19 21  1  0
  6 22  2  0
 22 23  1  0
 22  2  1  0
 21  8  1  0
 18 12  1  0
  1 24  1  0
  1 25  1  0
  1 26  1  0
  3 27  1  0
  4 28  1  0
  5 29  1  0
  7 30  1  0
  7 31  1  0
 11 32  1  0
 11 33  1  0
 12 34  1  0
 13 35  1  0
 13 36  1  0
 14 37  1  0
 14 38  1  0
 16 39  1  0
 16 40  1  0
 16 41  1  0
 17 42  1  0
 17 43  1  0
 18 44  1  0
 18 45  1  0
 23 46  1  0
 23 47  1  0
 23 48  1  0
M  CHG  1  12   1
M  END
>  <UniqueID>  (52) 
50

>  <SMILES>  (52) 
Cc1cccc(Cc2nn(C[NH+]3CCN(C)CC3)c(=S)o2)c1C

>  <Energy>  (52) 
98.14642438651204

>  <Genealogy>  (52) 
Cc1cccc(Cc2nn(C[NH+]3CCN(C)CC3)c(=S)o2)c1C (protonated)
Cc1cccc(Cc2nn(C[NH+]3CCN(C)CC3)c(=S)o2)c1C (3D coordinates assigned)
Cc1cccc(Cc2nn(C[NH+]3CCN(C)CC3)c(=S)o2)c1C (nonaromatic ring conformer: 98.14642438651204 kcal/mol)

>  <smiles>  (52) 
Cc1cccc(Cc2nn(CN3CCN(C)CC3)c(=S)o2)c1C

>  <score_type>  (52) 
oracle

>  <origin>  (52) 
adg

>  <m_score__min__energy>  (52) 
-6.2699999999999996

>  <m_primary>  (52) 
energy

$$$$
52:0
     RDKit          3D

 67 71  0  0  0  0  0  0  0  0999 V2000
   56.3320   26.6310   45.5940 N   0  0  0  0  0  0  0  0  0  0  0  0
   57.4790   26.4010   46.4210 C   0  0  0  0  0  0  0  0  0  0  0  0
   57.4650   25.4160   47.2100 O   0  0  0  0  0  0  0  0  0  0  0  0
   58.6430   27.2560   46.3680 N   0  0  0  0  0  0  0  0  0  0  0  0
   59.1120   27.8700   45.1180 C   0  0  0  0  0  0  0  0  0  0  0  0
   58.5430   29.2490   44.9850 C   0  0  0  0  0  0  0  0  0  0  0  0
   57.2460   29.4260   44.5990 N   0  0  0  0  0  0  0  0  0  0  0  0
   56.6980   30.6670   44.5250 C   0  0  0  0  0  0  0  0  0  0  0  0
   55.4970   30.8050   44.1690 O   0  0  0  0  0  0  0  0  0  0  0  0
   57.4790   31.7800   44.8550 C   0  0  0  0  0  0  0  0  0  0  0  0
   58.7850   31.5810   45.2430 C   0  0  0  0  0  0  0  0  0  0  0  0
   59.3060   30.3300   45.3100 N   0  0  0  0  0  0  0  0  0  0  0  0
   59.5530   32.7950   45.5950 C   0  0  0  0  0  0  0  0  0  0  0  0
   58.4470   34.2270   45.3220 S   0  0  0  0  0  0  0  0  0  0  0  0
   57.0180   33.1900   44.8430 C   0  0  0  0  0  0  0  0  0  0  0  0
   59.2660   27.6690   47.5960 C   0  0  0  0  0  0  0  0  0  0  0  0
   60.2190   26.8480   48.2140 C   0  0  0  0  0  0  0  0  0  0  0  0
   60.7990   27.2320   49.4260 C   0  0  0  0  0  0  0  0  0  0  0  0
   60.4350   28.4440   50.0370 C   0  0  0  0  0  0  0  0  0  0  0  0
   61.0610   28.8440   51.3190 C   0  0  0  0  0  0  0  0  0  0  0  0
   61.0740   28.0110   52.2660 O   0  0  0  0  0  0  0  0  0  0  0  0
   61.6550   30.1490   51.5120 N   0  0  0  0  0  0  0  0  0  0  0  0
   61.0280   31.1170   52.4320 C   0  0  0  0  0  0  0  0  0  0  0  0
   59.6030   31.4780   51.9860 C   0  0  0  0  0  0  0  0  0  0  0  0
   59.6310   32.3850   50.7860 C   0  0  0  0  0  0  0  0  0  0  0  0
   60.6230   33.3760   50.6720 C   0  0  0  0  0  0  0  0  0  0  0  0
   60.6670   34.1990   49.5420 C   0  0  0  0  0  0  0  0  0  0  0  0
   59.7300   34.0360   48.5190 C   0  0  0  0  0  0  0  0  0  0  0  0
   58.7500   33.0420   48.6180 C   0  0  0  0  0  0  0  0  0  0  0  0
   58.7020   32.2150   49.7450 C   0  0  0  0  0  0  0  0  0  0  0  0
   63.0160   30.3990   51.0080 C   0  0  0  0  0  0  0  0  0  0  0  0
   62.9860   31.2400   49.7570 C   0  0  0  0  0  0  0  0  0  0  0  0
   62.1130   30.9200   48.7030 C   0  0  0  0  0  0  0  0  0  0  0  0
   62.1080   31.6840   47.5310 C   0  0  0  0  0  0  0  0  0  0  0  0
   62.9750   32.7730   47.4030 C   0  0  0  0  0  0  0  0  0  0  0  0
   63.8460   33.1000   48.4450 C   0  0  0  0  0  0  0  0  0  0  0  0
   63.8530   32.3380   49.6180 C   0  0  0  0  0  0  0  0  0  0  0  0
   59.5030   29.2790   49.3950 C   0  0  0  0  0  0  0  0  0  0  0  0
   58.9110   28.8850   48.1920 C   0  0  0  0  0  0  0  0  0  0  0  0
   56.2750   27.4160   44.9100 H   0  0  0  0  0  0  0  0  0  0  0  0
   55.5060   25.9980   45.6740 H   0  0  0  0  0  0  0  0  0  0  0  0
   60.2104   27.9278   45.1293 H   0  0  0  0  0  0  0  0  0  0  0  0
   58.7816   27.2573   44.2663 H   0  0  0  0  0  0  0  0  0  0  0  0
   59.8631   32.7531   46.6495 H   0  0  0  0  0  0  0  0  0  0  0  0
   60.4605   32.8773   44.9789 H   0  0  0  0  0  0  0  0  0  0  0  0
   56.1963   33.3245   45.5619 H   0  0  0  0  0  0  0  0  0  0  0  0
   56.6460   33.4719   43.8469 H   0  0  0  0  0  0  0  0  0  0  0  0
   60.5115   25.8978   47.7433 H   0  0  0  0  0  0  0  0  0  0  0  0
   61.5454   26.5812   49.9049 H   0  0  0  0  0  0  0  0  0  0  0  0
   60.9863   30.6770   53.4393 H   0  0  0  0  0  0  0  0  0  0  0  0
   61.6328   32.0358   52.4300 H   0  0  0  0  0  0  0  0  0  0  0  0
   59.0616   30.5558   51.7282 H   0  0  0  0  0  0  0  0  0  0  0  0
   59.0979   32.0014   52.8112 H   0  0  0  0  0  0  0  0  0  0  0  0
   61.3657   33.5039   51.4733 H   0  0  0  0  0  0  0  0  0  0  0  0
   61.4410   34.9762   49.4587 H   0  0  0  0  0  0  0  0  0  0  0  0
   59.7625   34.6895   47.6348 H   0  0  0  0  0  0  0  0  0  0  0  0
   58.0167   32.9109   47.8087 H   0  0  0  0  0  0  0  0  0  0  0  0
   57.9352   31.4296   49.8168 H   0  0  0  0  0  0  0  0  0  0  0  0
   63.5942   30.9260   51.7813 H   0  0  0  0  0  0  0  0  0  0  0  0
   63.4825   29.4322   50.7678 H   0  0  0  0  0  0  0  0  0  0  0  0
   61.4295   30.0636   48.8002 H   0  0  0  0  0  0  0  0  0  0  0  0
   61.4219   31.4278   46.7103 H   0  0  0  0  0  0  0  0  0  0  0  0
   62.9714   33.3729   46.4810 H   0  0  0  0  0  0  0  0  0  0  0  0
   64.5271   33.9577   48.3430 H   0  0  0  0  0  0  0  0  0  0  0  0
   64.5405   32.5992   50.4360 H   0  0  0  0  0  0  0  0  0  0  0  0
   59.2384   30.2483   49.8426 H   0  0  0  0  0  0  0  0  0  0  0  0
   58.1631   29.5329   47.7115 H   0  0  0  0  0  0  0  0  0  0  0  0
  1  2  1  0
  2  3  2  0
  2  4  1  0
  4  5  1  0
  5  6  1  0
  6  7  2  0
  7  8  1  0
  8  9  2  0
  8 10  1  0
 10 11  2  0
 11 12  1  0
 11 13  1  0
 13 14  1  0
 14 15  1  0
  4 16  1  0
 16 17  2  0
 17 18  1  0
 18 19  2  0
 19 20  1  0
 20 21  2  0
 20 22  1  0
 22 23  1  0
 23 24  1  0
 24 25  1  0
 25 26  2  0
 26 27  1  0
 27 28  2  0
 28 29  1  0
 29 30  2  0
 22 31  1  0
 31 32  1  0
 32 33  2  0
 33 34  1  0
 34 35  2  0
 35 36  1  0
 36 37  2  0
 19 38  1  0
 38 39  2  0
 12  6  1  0
 39 16  1  0
 15 10  1  0
 30 25  1  0
 37 32  1  0
  1 40  1  0
  1 41  1  0
  5 42  1  0
  5 43  1  0
 13 44  1  0
 13 45  1  0
 15 46  1  0
 15 47  1  0
 17 48  1  0
 18 49  1  0
 23 50  1  0
 23 51  1  0
 24 52  1  0
 24 53  1  0
 26 54  1  0
 27 55  1  0
 28 56  1  0
 29 57  1  0
 30 58  1  0
 31 59  1  0
 31 60  1  0
 33 61  1  0
 34 62  1  0
 35 63  1  0
 36 64  1  0
 37 65  1  0
 38 66  1  0
 39 67  1  0
M  CHG  1  12  -1
M  END
>  <UniqueID>  (53) 
51

>  <SMILES>  (53) 
NC(=O)N(Cc1nc(=O)c2c([n-]1)CSC2)c1ccc(C(=O)N(CCc2ccccc2)Cc2ccccc2)cc1

>  <Energy>  (53) 
79.33189110251608

>  <Genealogy>  (53) 
NC(=O)N(Cc1nc(=O)c2c([n-]1)CSC2)c1ccc(C(=O)N(CCc2ccccc2)Cc2ccccc2)cc1 (protonated)
NC(=O)N(Cc1nc(=O)c2c([n-]1)CSC2)c1ccc(C(=O)N(CCc2ccccc2)Cc2ccccc2)cc1 (3D coordinates assigned)
NC(=O)N(Cc1nc(=O)c2c([n-]1)CSC2)c1ccc(C(=O)N(CCc2ccccc2)Cc2ccccc2)cc1 (nonaromatic ring conformer: 79.33189110251608 kcal/mol)

>  <smiles>  (53) 
NC(=O)N(Cc1nc(=O)c2c([nH]1)CSC2)c1ccc(C(=O)N(CCc2ccccc2)Cc2ccccc2)cc1

>  <score_type>  (53) 
oracle

>  <origin>  (53) 
adg

>  <m_score__min__energy>  (53) 
-12.640000000000001

>  <m_primary>  (53) 
energy

$$$$
53:0
     RDKit          3D

 55 56  0  0  0  0  0  0  0  0999 V2000
   58.9060   22.8960   45.3410 C   0  0  0  0  0  0  0  0  0  0  0  0
   58.5890   23.8960   46.3010 O   0  0  0  0  0  0  0  0  0  0  0  0
   57.9270   25.0970   46.0030 C   0  0  0  0  0  0  0  0  0  0  0  0
   58.6120   26.2550   45.5900 C   0  0  0  0  0  0  0  0  0  0  0  0
   57.9080   27.4320   45.3220 C   0  0  0  0  0  0  0  0  0  0  0  0
   56.5160   27.4800   45.4970 C   0  0  0  0  0  0  0  0  0  0  0  0
   55.7710   28.6800   45.2460 N   0  0  0  0  0  0  0  0  0  0  0  0
   56.1510   29.7780   44.4040 C   0  0  0  0  0  0  0  0  0  0  0  0
   55.4840   30.8430   44.4710 O   0  0  0  0  0  0  0  0  0  0  0  0
   57.3890   29.7550   43.5410 C   0  0  0  0  0  0  0  0  0  0  0  0
   58.3820   30.8520   43.9410 C   0  0  0  0  0  0  0  0  0  0  0  0
   58.7810   30.7170   45.3410 N   0  0  0  0  0  0  0  0  0  0  0  0
   58.1920   31.3050   46.4050 C   0  0  0  0  0  0  0  0  0  0  0  0
   58.8650   30.8990   47.5370 C   0  0  0  0  0  0  0  0  0  0  0  0
   58.5390   31.2720   48.8380 O   0  0  0  0  0  0  0  0  0  0  0  0
   59.8780   30.0740   47.1940 N   0  0  0  0  0  0  0  0  0  0  0  0
   60.7650   29.3210   48.0820 C   0  0  0  0  0  0  0  0  0  0  0  0
   60.6830   29.8840   49.4660 C   0  0  0  0  0  0  0  0  0  0  0  0
   60.0040   29.2980   50.3500 O   0  0  0  0  0  0  0  0  0  0  0  0
   61.4030   31.0790   49.7740 N   0  0  0  0  0  0  0  0  0  0  0  0
   62.4410   31.6340   48.9200 C   0  0  0  0  0  0  0  0  0  0  0  0
   62.0580   33.0520   48.4750 C   0  0  0  0  0  0  0  0  0  0  0  0
   61.9750   33.2290   46.9380 C   0  0  0  0  0  0  0  0  0  0  0  0
   63.2560   33.8430   46.3560 C   0  0  0  0  0  0  0  0  0  0  0  0
   60.7660   34.1000   46.5770 C   0  0  0  0  0  0  0  0  0  0  0  0
   59.7870   29.9740   45.8500 C   0  0  0  0  0  0  0  0  0  0  0  0
   60.5490   29.2540   45.1490 O   0  0  0  0  0  0  0  0  0  0  0  0
   55.8280   26.3110   45.8490 C   0  0  0  0  0  0  0  0  0  0  0  0
   54.4410   26.3180   45.9530 O   0  0  0  0  0  0  0  0  0  0  0  0
   56.5330   25.1320   46.1150 C   0  0  0  0  0  0  0  0  0  0  0  0
   59.1993   21.9707   45.8585 H   0  0  0  0  0  0  0  0  0  0  0  0
   58.0258   22.7005   44.7109 H   0  0  0  0  0  0  0  0  0  0  0  0
   59.7381   23.2433   44.7109 H   0  0  0  0  0  0  0  0  0  0  0  0
   59.7060   26.2335   45.4777 H   0  0  0  0  0  0  0  0  0  0  0  0
   58.4470   28.3249   44.9723 H   0  0  0  0  0  0  0  0  0  0  0  0
   57.8786   28.7757   43.6468 H   0  0  0  0  0  0  0  0  0  0  0  0
   57.0833   29.9337   42.4996 H   0  0  0  0  0  0  0  0  0  0  0  0
   59.2757   30.7770   43.3041 H   0  0  0  0  0  0  0  0  0  0  0  0
   57.8941   31.8291   43.8098 H   0  0  0  0  0  0  0  0  0  0  0  0
   57.3290   31.9864   46.3735 H   0  0  0  0  0  0  0  0  0  0  0  0
   59.2120   31.2180   49.5900 H   0  0  0  0  0  0  0  0  0  0  0  0
   60.4577   28.2649   48.0973 H   0  0  0  0  0  0  0  0  0  0  0  0
   61.7997   29.3974   47.7165 H   0  0  0  0  0  0  0  0  0  0  0  0
   63.3887   31.6714   49.4772 H   0  0  0  0  0  0  0  0  0  0  0  0
   62.5536   30.9965   48.0307 H   0  0  0  0  0  0  0  0  0  0  0  0
   61.0753   33.2959   48.9049 H   0  0  0  0  0  0  0  0  0  0  0  0
   62.8539   33.7230   48.8302 H   0  0  0  0  0  0  0  0  0  0  0  0
   61.8585   32.2286   46.4958 H   0  0  0  0  0  0  0  0  0  0  0  0
   63.9165   34.1596   47.1767 H   0  0  0  0  0  0  0  0  0  0  0  0
   63.7729   33.0948   45.7372 H   0  0  0  0  0  0  0  0  0  0  0  0
   62.9965   34.7146   45.7372 H   0  0  0  0  0  0  0  0  0  0  0  0
   60.2787   34.4510   47.4986 H   0  0  0  0  0  0  0  0  0  0  0  0
   61.1009   34.9657   45.9867 H   0  0  0  0  0  0  0  0  0  0  0  0
   60.0509   33.5082   45.9867 H   0  0  0  0  0  0  0  0  0  0  0  0
   55.9868   24.2254   46.4146 H   0  0  0  0  0  0  0  0  0  0  0  0
  1  2  1  0
  2  3  1  0
  3  4  2  0
  4  5  1  0
  5  6  2  0
  6  7  1  0
  7  8  1  0
  8  9  2  0
  8 10  1  0
 10 11  1  0
 11 12  1  0
 12 13  1  0
 13 14  2  0
 14 15  1  0
 14 16  1  0
 16 17  1  0
 17 18  1  0
 18 19  2  0
 18 20  1  0
 20 21  1  0
 21 22  1  0
 22 23  1  0
 23 24  1  0
 23 25  1  0
 16 26  1  0
 26 27  2  0
  6 28  1  0
 28 29  1  0
 28 30  2  0
 30  3  1  0
 26 12  1  0
  1 31  1  0
  1 32  1  0
  1 33  1  0
  4 34  1  0
  5 35  1  0
 10 36  1  0
 10 37  1  0
 11 38  1  0
 11 39  1  0
 13 40  1  0
 15 41  1  0
 17 42  1  0
 17 43  1  0
 21 44  1  0
 21 45  1  0
 22 46  1  0
 22 47  1  0
 23 48  1  0
 24 49  1  0
 24 50  1  0
 24 51  1  0
 25 52  1  0
 25 53  1  0
 25 54  1  0
 30 55  1  0
M  CHG  3   7  -1  20  -1  29  -1
M  END
>  <UniqueID>  (54) 
52

>  <SMILES>  (54) 
COc1ccc([N-]C(=O)CCn2cc(O)n(CC(=O)[N-]CCC(C)C)c2=O)c([O-])c1

>  <Energy>  (54) 
74.33019113917875

>  <Genealogy>  (54) 
COc1ccc([N-]C(=O)CCn2cc(O)n(CC(=O)[N-]CCC(C)C)c2=O)c([O-])c1 (protonated)
COc1ccc([N-]C(=O)CCn2cc(O)n(CC(=O)[N-]CCC(C)C)c2=O)c([O-])c1 (3D coordinates assigned)
COc1ccc([N-]C(=O)CCn2cc(O)n(CC(=O)[N-]CCC(C)C)c2=O)c([O-])c1 (optimized conformer: 74.33019113917875 kcal/mol)

>  <smiles>  (54) 
COc1ccc(NC(=O)CCn2cc(O)n(CC(=O)NCCC(C)C)c2=O)c(O)c1

>  <score_type>  (54) 
oracle

>  <origin>  (54) 
adg

>  <m_score__min__energy>  (54) 
-13.94

>  <m_primary>  (54) 
energy

$$$$
54:0
     RDKit          3D

 71 75  0  0  0  0  0  0  0  0999 V2000
   56.6360   19.7480   43.0470 H   0  0  0  0  0  0  0  0  0  0  0  0
   56.3830   20.7030   42.9430 O   0  0  0  0  0  0  0  0  0  0  0  0
   57.4890   21.4650   43.3610 C   0  0  1  0  0  0  0  0  0  0  0  0
   58.3511   21.3003   42.6979 H   0  0  0  0  0  0  0  0  0  0  0  0
   57.1270   22.9660   43.2890 C   0  0  0  0  0  0  0  0  0  0  0  0
   57.9769   23.5227   42.8674 H   0  0  0  0  0  0  0  0  0  0  0  0
   56.2387   23.0857   42.6513 H   0  0  0  0  0  0  0  0  0  0  0  0
   56.8230   23.4900   44.6250 N   0  0  0  0  0  0  0  0  0  0  0  0
   55.4870   23.9210   44.9420 C   0  0  0  0  0  0  0  0  0  0  0  0
   54.3930   23.0980   44.6360 C   0  0  0  0  0  0  0  0  0  0  0  0
   54.5608   22.1033   44.1975 H   0  0  0  0  0  0  0  0  0  0  0  0
   53.0940   23.5370   44.8860 C   0  0  0  0  0  0  0  0  0  0  0  0
   52.2344   22.8920   44.6514 H   0  0  0  0  0  0  0  0  0  0  0  0
   52.8960   24.8010   45.4360 C   0  0  0  0  0  0  0  0  0  0  0  0
   51.8754   25.1621   45.6310 H   0  0  0  0  0  0  0  0  0  0  0  0
   53.9640   25.5890   45.7320 N   0  0  0  0  0  0  0  0  0  0  0  0
   55.2470   25.1920   45.4990 C   0  0  0  0  0  0  0  0  0  0  0  0
   56.2490   25.9610   45.8220 N   0  0  0  0  0  0  0  0  0  0  0  0
   57.0880   25.8080   46.9770 C   0  0  0  0  0  0  0  0  0  0  0  0
   56.7670   24.9580   47.8480 O   0  0  0  0  0  0  0  0  0  0  0  0
   58.3520   26.5660   47.1350 C   0  0  0  0  0  0  0  0  0  0  0  0
   59.4750   26.2520   46.3510 C   0  0  0  0  0  0  0  0  0  0  0  0
   59.4146   25.4441   45.6069 H   0  0  0  0  0  0  0  0  0  0  0  0
   60.6660   26.9600   46.5120 C   0  0  0  0  0  0  0  0  0  0  0  0
   61.5369   26.7159   45.8859 H   0  0  0  0  0  0  0  0  0  0  0  0
   60.7580   27.9770   47.4640 C   0  0  0  0  0  0  0  0  0  0  0  0
   61.7017   28.5295   47.5835 H   0  0  0  0  0  0  0  0  0  0  0  0
   59.6530   28.3000   48.2710 C   0  0  0  0  0  0  0  0  0  0  0  0
   59.7490   29.3760   49.2880 C   0  0  0  0  0  0  0  0  0  0  0  0
   58.9910   29.3570   50.2960 O   0  0  0  0  0  0  0  0  0  0  0  0
   60.7470   30.3990   49.1590 N   0  0  0  0  0  0  0  0  0  0  0  0
   60.5090   31.7770   48.8360 C   0  0  0  0  0  0  0  0  0  0  0  0
   61.4280   32.7390   49.2740 C   0  0  0  0  0  0  0  0  0  0  0  0
   62.3230   32.4271   49.8323 H   0  0  0  0  0  0  0  0  0  0  0  0
   61.2130   34.0920   49.0050 C   0  0  0  0  0  0  0  0  0  0  0  0
   61.9296   34.8437   49.3676 H   0  0  0  0  0  0  0  0  0  0  0  0
   60.0910   34.4940   48.2770 C   0  0  0  0  0  0  0  0  0  0  0  0
   59.9217   35.5629   48.0800 H   0  0  0  0  0  0  0  0  0  0  0  0
   59.1760   33.5410   47.7940 C   0  0  0  0  0  0  0  0  0  0  0  0
   58.0300   33.9210   47.0110 N   0  0  0  0  0  0  0  0  0  0  0  0
   57.2430   34.4260   47.4770 H   0  0  0  0  0  0  0  0  0  0  0  0
   57.9470   33.7620   45.2850 S   0  0  0  0  0  0  0  0  0  0  0  0
   56.6520   34.3460   44.7910 O   0  0  0  0  0  0  0  0  0  0  0  0
   59.0830   34.5300   44.6640 O   0  0  0  0  0  0  0  0  0  0  0  0
   58.0150   32.0610   44.8330 C   0  0  0  0  0  0  0  0  0  0  0  0
   59.0410   31.2330   45.3110 C   0  0  0  0  0  0  0  0  0  0  0  0
   59.8165   31.6468   45.9724 H   0  0  0  0  0  0  0  0  0  0  0  0
   59.0810   29.8820   44.9490 C   0  0  0  0  0  0  0  0  0  0  0  0
   59.8851   29.2347   45.3291 H   0  0  0  0  0  0  0  0  0  0  0  0
   58.0990   29.3540   44.1040 C   0  0  0  0  0  0  0  0  0  0  0  0
   58.1550   27.5100   43.6090 Br  0  0  0  0  0  0  0  0  0  0  0  0
   57.0740   30.1780   43.6240 C   0  0  0  0  0  0  0  0  0  0  0  0
   56.3000   29.7628   42.9618 H   0  0  0  0  0  0  0  0  0  0  0  0
   57.0330   31.5270   43.9850 C   0  0  0  0  0  0  0  0  0  0  0  0
   56.2283   32.1725   43.6032 H   0  0  0  0  0  0  0  0  0  0  0  0
   59.4000   32.1800   48.0710 C   0  0  0  0  0  0  0  0  0  0  0  0
   58.7007   31.4235   47.6853 H   0  0  0  0  0  0  0  0  0  0  0  0
   58.4530   27.5820   48.1000 C   0  0  0  0  0  0  0  0  0  0  0  0
   57.5836   27.8201   48.7304 H   0  0  0  0  0  0  0  0  0  0  0  0
   57.8560   23.4120   45.6700 C   0  0  0  0  0  0  0  0  0  0  0  0
   58.5268   24.2786   45.5746 H   0  0  0  0  0  0  0  0  0  0  0  0
   57.3557   23.4093   46.6496 H   0  0  0  0  0  0  0  0  0  0  0  0
   58.6930   22.1110   45.5480 C   0  0  2  0  0  0  0  0  0  0  0  0
   58.8752   21.7413   46.5679 H   0  0  0  0  0  0  0  0  0  0  0  0
   60.0720   22.3680   44.9200 C   0  0  0  0  0  0  0  0  0  0  0  0
   60.8176   22.5070   45.7167 H   0  0  0  0  0  0  0  0  0  0  0  0
   60.3572   21.5076   44.2969 H   0  0  0  0  0  0  0  0  0  0  0  0
   60.0281   23.2734   44.2969 H   0  0  0  0  0  0  0  0  0  0  0  0
   57.9130   21.0210   44.7830 C   0  0  0  0  0  0  0  0  0  0  0  0
   58.5511   20.1292   44.6960 H   0  0  0  0  0  0  0  0  0  0  0  0
   56.9938   20.8146   45.3509 H   0  0  0  0  0  0  0  0  0  0  0  0
  1  2  1  0
  2  3  1  0
  3  4  1  6
  3  5  1  0
  5  6  1  0
  5  7  1  0
  5  8  1  0
  8  9  1  0
  9 10  2  0
 10 11  1  0
 10 12  1  0
 12 13  1  0
 12 14  2  0
 14 15  1  0
 14 16  1  0
 16 17  1  0
 17 18  2  0
 18 19  1  0
 19 20  2  0
 19 21  1  0
 21 22  2  0
 22 23  1  0
 22 24  1  0
 24 25  1  0
 24 26  2  0
 26 27  1  0
 26 28  1  0
 28 29  1  0
 29 30  2  0
 29 31  1  0
 31 32  1  0
 32 33  2  0
 33 34  1  0
 33 35  1  0
 35 36  1  0
 35 37  2  0
 37 38  1  0
 37 39  1  0
 39 40  1  0
 40 41  1  0
 40 42  1  0
 42 43  2  0
 42 44  2  0
 42 45  1  0
 45 46  2  0
 46 47  1  0
 46 48  1  0
 48 49  1  0
 48 50  2  0
 50 51  1  0
 50 52  1  0
 52 53  1  0
 52 54  2  0
 54 55  1  0
 39 56  2  0
 56 57  1  0
 28 58  2  0
 58 59  1  0
  8 60  1  0
 60 61  1  0
 60 62  1  0
 60 63  1  0
 63 64  1  1
 63 65  1  0
 65 66  1  0
 65 67  1  0
 65 68  1  0
 63 69  1  0
 69 70  1  0
 69 71  1  0
 69  3  1  0
 17  9  1  0
 58 21  1  0
 56 32  1  0
 54 45  1  0
M  CHG  2  16  -1  31  -1
M  END
>  <UniqueID>  (55) 
53

>  <SMILES>  (55) 
C[C@@H]1C[C@@H](O)CN(c2ccc[n-]/c2=N\C(=O)c2cccc(C(=O)[N-]c3cccc(NS(=O)(=O)c4ccc(Br)cc4)c3)c2)C1

>  <Energy>  (55) 
101.9274906681261

>  <Genealogy>  (55) 
CC1CC(O)CN(c2ccc[n-]c2=NC(=O)c2cccc(C(=O)[N-]c3cccc(NS(=O)(=O)c4ccc(Br)cc4)c3)c2)C1 (protonated)
C[C@@H]1C[C@@H](O)CN(c2ccc[n-]c2=NC(=O)c2cccc(C(=O)[N-]c3cccc(NS(=O)(=O)c4ccc(Br)cc4)c3)c2)C1 (chirality)
C[C@@H]1C[C@@H](O)CN(c2ccc[n-]/c2=N\C(=O)c2cccc(C(=O)[N-]c3cccc(NS(=O)(=O)c4ccc(Br)cc4)c3)c2)C1 (cis-trans isomerization)
C[C@@H]1C[C@@H](O)CN(c2ccc[n-]/c2=N\C(=O)c2cccc(C(=O)[N-]c3cccc(NS(=O)(=O)c4ccc(Br)cc4)c3)c2)C1 (3D coordinates assigned)
C[C@@H]1C[C@@H](O)CN(c2ccc[n-]/c2=N\C(=O)c2cccc(C(=O)[N-]c3cccc(NS(=O)(=O)c4ccc(Br)cc4)c3)c2)C1 (nonaromatic ring conformer: 101.9274906681261 kcal/mol)

>  <smiles>  (55) 
CC1CC(O)CN(c2ccc[nH]c2=NC(=O)c2cccc(C(=O)Nc3cccc(NS(=O)(=O)c4ccc(Br)cc4)c3)c2)C1

>  <score_type>  (55) 
oracle

>  <origin>  (55) 
adg

>  <m_score__min__energy>  (55) 
-14.59

>  <m_primary>  (55) 
energy

$$$$
55:0
     RDKit          3D

 55 58  0  0  0  0  0  0  0  0999 V2000
   54.3690   26.7040   45.4230 H   0  0  0  0  0  0  0  0  0  0  0  0
   55.2020   26.8340   45.9840 O   0  0  0  0  0  0  0  0  0  0  0  0
   56.0370   25.7600   46.2850 C   0  0  0  0  0  0  0  0  0  0  0  0
   55.5190   24.6480   46.8710 N   0  0  0  0  0  0  0  0  0  0  0  0
   56.3050   23.5840   47.1730 C   0  0  0  0  0  0  0  0  0  0  0  0
   55.8030   22.5660   47.7190 O   0  0  0  0  0  0  0  0  0  0  0  0
   57.6300   23.6110   46.8800 N   0  0  0  0  0  0  0  0  0  0  0  0
   58.1960   24.6980   46.2940 C   0  0  0  0  0  0  0  0  0  0  0  0
   59.4220   24.6720   46.0050 O   0  0  0  0  0  0  0  0  0  0  0  0
   57.4080   25.8250   45.9970 C   0  0  0  0  0  0  0  0  0  0  0  0
   57.9690   27.0250   45.3360 C   0  0  0  0  0  0  0  0  0  0  0  0
   58.2079   26.9660   44.2639 H   0  0  0  0  0  0  0  0  0  0  0  0
   58.2020   28.1850   45.9790 C   0  0  0  0  0  0  0  0  0  0  0  0
   58.3820   28.3440   47.3480 C   0  0  0  0  0  0  0  0  0  0  0  0
   58.3838   27.5482   48.1074 H   0  0  0  0  0  0  0  0  0  0  0  0
   58.5580   29.6950   47.5690 C   0  0  0  0  0  0  0  0  0  0  0  0
   58.7410   30.3140   48.9210 C   0  0  0  0  0  0  0  0  0  0  0  0
   58.5205   29.5680   49.6987 H   0  0  0  0  0  0  0  0  0  0  0  0
   59.7798   30.6596   49.0285 H   0  0  0  0  0  0  0  0  0  0  0  0
   58.0572   31.1689   49.0285 H   0  0  0  0  0  0  0  0  0  0  0  0
   58.4710   30.3780   46.4060 N   0  0  0  0  0  0  0  0  0  0  0  0
   58.5990   31.8030   46.2510 C   0  0  0  0  0  0  0  0  0  0  0  0
   57.4880   32.5470   45.8280 C   0  0  0  0  0  0  0  0  0  0  0  0
   56.5304   32.0392   45.6406 H   0  0  0  0  0  0  0  0  0  0  0  0
   57.5880   33.9270   45.6430 C   0  0  0  0  0  0  0  0  0  0  0  0
   56.7130   34.5022   45.3060 H   0  0  0  0  0  0  0  0  0  0  0  0
   58.7990   34.5760   45.8860 C   0  0  0  0  0  0  0  0  0  0  0  0
   58.8765   35.6638   45.7423 H   0  0  0  0  0  0  0  0  0  0  0  0
   59.9130   33.8490   46.3110 C   0  0  0  0  0  0  0  0  0  0  0  0
   60.8623   34.3692   46.5064 H   0  0  0  0  0  0  0  0  0  0  0  0
   59.8300   32.4570   46.4910 C   0  0  0  0  0  0  0  0  0  0  0  0
   61.0150   31.7120   46.9740 C   0  0  0  0  0  0  0  0  0  0  0  0
   61.3240   30.6280   46.4080 O   0  0  0  0  0  0  0  0  0  0  0  0
   61.8150   32.1900   48.0740 N   0  0  0  0  0  0  0  0  0  0  0  0
   61.8610   33.6170   48.4220 C   0  0  0  0  0  0  0  0  0  0  0  0
   61.5725   34.2173   47.5466 H   0  0  0  0  0  0  0  0  0  0  0  0
   61.1632   33.8153   49.2489 H   0  0  0  0  0  0  0  0  0  0  0  0
   63.2810   33.9920   48.8520 C   0  0  0  0  0  0  0  0  0  0  0  0
   63.9646   33.8142   48.0088 H   0  0  0  0  0  0  0  0  0  0  0  0
   63.2746   35.0516   49.1472 H   0  0  0  0  0  0  0  0  0  0  0  0
   63.7440   33.1990   50.0170 N   0  0  0  0  0  0  0  0  0  0  0  0
   65.2130   33.1430   50.0520 C   0  0  0  0  0  0  0  0  0  0  0  0
   65.5546   33.1300   51.0975 H   0  0  0  0  0  0  0  0  0  0  0  0
   65.5574   32.2311   49.5423 H   0  0  0  0  0  0  0  0  0  0  0  0
   65.6258   34.0261   49.5423 H   0  0  0  0  0  0  0  0  0  0  0  0
   63.1480   31.8430   50.1240 C   0  0  0  0  0  0  0  0  0  0  0  0
   63.8923   31.1684   50.5722 H   0  0  0  0  0  0  0  0  0  0  0  0
   62.2438   31.9313   50.7442 H   0  0  0  0  0  0  0  0  0  0  0  0
   62.7170   31.2630   48.7690 C   0  0  0  0  0  0  0  0  0  0  0  0
   63.6090   31.0929   48.1483 H   0  0  0  0  0  0  0  0  0  0  0  0
   62.1871   30.3146   48.9414 H   0  0  0  0  0  0  0  0  0  0  0  0
   58.2610   29.4670   45.4240 C   0  0  0  0  0  0  0  0  0  0  0  0
   58.1190   29.7840   44.1280 C   0  0  0  0  0  0  0  0  0  0  0  0
   58.1856   30.8344   43.8082 H   0  0  0  0  0  0  0  0  0  0  0  0
   57.9360   28.9935   43.3853 H   0  0  0  0  0  0  0  0  0  0  0  0
  1  2  1  0
  2  3  1  0
  3  4  1  0
  4  5  1  0
  5  6  2  0
  5  7  1  0
  7  8  1  0
  8  9  2  0
  8 10  1  0
 10 11  1  0
 11 12  1  0
 11 13  2  0
 13 14  1  0
 14 15  1  0
 14 16  2  0
 16 17  1  0
 17 18  1  0
 17 19  1  0
 17 20  1  0
 16 21  1  0
 21 22  1  0
 22 23  2  0
 23 24  1  0
 23 25  1  0
 25 26  1  0
 25 27  2  0
 27 28  1  0
 27 29  1  0
 29 30  1  0
 29 31  2  0
 31 32  1  0
 32 33  2  0
 32 34  1  0
 34 35  1  0
 35 36  1  0
 35 37  1  0
 35 38  1  0
 38 39  1  0
 38 40  1  0
 38 41  1  0
 41 42  1  0
 42 43  1  0
 42 44  1  0
 42 45  1  0
 41 46  1  0
 46 47  1  0
 46 48  1  0
 46 49  1  0
 49 50  1  0
 49 51  1  0
 21 52  1  0
 52 53  2  0
 53 54  1  0
 53 55  1  0
 10  3  2  0
 52 13  1  0
 31 22  1  0
 49 34  1  0
M  CHG  2   4  -1   7  -1
M  END
>  <UniqueID>  (56) 
54

>  <SMILES>  (56) 
C=c1/c(=C/c2c(O)[n-]c(=O)[n-]c2=O)cc(C)n1-c1ccccc1C(=O)N1CCN(C)CC1

>  <Energy>  (56) 
112.98354954280859

>  <Genealogy>  (56) 
C=c1c(=Cc2c(O)[n-]c(=O)[n-]c2=O)cc(C)n1-c1ccccc1C(=O)N1CCN(C)CC1 (protonated)
C=c1/c(=C/c2c(O)[n-]c(=O)[n-]c2=O)cc(C)n1-c1ccccc1C(=O)N1CCN(C)CC1 (cis-trans isomerization)
C=c1/c(=C/c2c(O)[n-]c(=O)[n-]c2=O)cc(C)n1-c1ccccc1C(=O)N1CCN(C)CC1 (3D coordinates assigned)
C=c1/c(=C/c2c(O)[n-]c(=O)[n-]c2=O)cc(C)n1-c1ccccc1C(=O)N1CCN(C)CC1 (nonaromatic ring conformer: 112.98354954280859 kcal/mol)

>  <smiles>  (56) 
C=c1c(=Cc2c(O)[nH]c(=O)[nH]c2=O)cc(C)n1-c1ccccc1C(=O)N1CCN(C)CC1

>  <score_type>  (56) 
oracle

>  <origin>  (56) 
adg

>  <m_score__min__energy>  (56) 
-14.460000000000001

>  <m_primary>  (56) 
energy

$$$$
56:0
     RDKit          3D

 49 52  0  0  0  0  0  0  0  0999 V2000
   58.7400   32.7350   48.3710 C   0  0  0  0  0  0  0  0  0  0  0  0
   58.4200   32.9370   46.9250 C   0  0  0  0  0  0  0  0  0  0  0  0
   58.9730   34.0130   46.2220 C   0  0  0  0  0  0  0  0  0  0  0  0
   58.6500   34.1860   44.8770 C   0  0  0  0  0  0  0  0  0  0  0  0
   57.7900   33.2890   44.2430 C   0  0  0  0  0  0  0  0  0  0  0  0
   57.2610   32.2030   44.9710 C   0  0  0  0  0  0  0  0  0  0  0  0
   56.4480   31.3310   44.4420 N   0  0  0  0  0  0  0  0  0  0  0  0
   56.3500   29.9350   44.7620 C   0  0  0  0  0  0  0  0  0  0  0  0
   55.2060   29.4070   44.8110 O   0  0  0  0  0  0  0  0  0  0  0  0
   57.5440   29.1270   45.1160 C   0  0  0  0  0  0  0  0  0  0  0  0
   58.8400   29.6260   44.8930 C   0  0  0  0  0  0  0  0  0  0  0  0
   59.9590   28.8610   45.2290 C   0  0  0  0  0  0  0  0  0  0  0  0
   59.8000   27.5970   45.8010 C   0  0  0  0  0  0  0  0  0  0  0  0
   58.5160   27.0890   46.0480 C   0  0  0  0  0  0  0  0  0  0  0  0
   58.3480   25.7280   46.6730 C   0  0  0  0  0  0  0  0  0  0  0  0
   57.1250   25.0230   46.1370 C   0  0  0  0  0  0  0  0  0  0  0  0
   55.9100   25.5500   46.4440 N   0  0  0  0  0  0  0  0  0  0  0  0
   54.7720   25.0230   45.9960 N   0  0  0  0  0  0  0  0  0  0  0  0
   54.7670   23.9310   45.1910 C   0  0  0  0  0  0  0  0  0  0  0  0
   53.6670   23.4550   44.7950 O   0  0  0  0  0  0  0  0  0  0  0  0
   55.9820   23.3390   44.8070 C   0  0  0  0  0  0  0  0  0  0  0  0
   57.1910   23.8740   45.3140 C   0  0  0  0  0  0  0  0  0  0  0  0
   58.5310   23.2970   44.8860 C   0  0  0  0  0  0  0  0  0  0  0  0
   58.4240   21.8760   44.3300 C   0  0  0  0  0  0  0  0  0  0  0  0
   57.3110   21.7990   43.2910 C   0  0  0  0  0  0  0  0  0  0  0  0
   55.9610   22.0910   43.9470 C   0  0  0  0  0  0  0  0  0  0  0  0
   57.3920   27.8570   45.6970 C   0  0  0  0  0  0  0  0  0  0  0  0
   57.5840   32.0720   46.2870 N   0  0  0  0  0  0  0  0  0  0  0  0
   57.9701   33.2210   48.9883 H   0  0  0  0  0  0  0  0  0  0  0  0
   58.7633   31.6582   48.5944 H   0  0  0  0  0  0  0  0  0  0  0  0
   59.7221   33.1772   48.5944 H   0  0  0  0  0  0  0  0  0  0  0  0
   59.6549   34.7145   46.7250 H   0  0  0  0  0  0  0  0  0  0  0  0
   59.0739   35.0311   44.3147 H   0  0  0  0  0  0  0  0  0  0  0  0
   57.5266   33.4276   43.1840 H   0  0  0  0  0  0  0  0  0  0  0  0
   58.9729   30.6246   44.4514 H   0  0  0  0  0  0  0  0  0  0  0  0
   60.9688   29.2553   45.0425 H   0  0  0  0  0  0  0  0  0  0  0  0
   60.6853   26.9972   46.0589 H   0  0  0  0  0  0  0  0  0  0  0  0
   59.2375   25.1201   46.4513 H   0  0  0  0  0  0  0  0  0  0  0  0
   58.2249   25.8582   47.7583 H   0  0  0  0  0  0  0  0  0  0  0  0
   53.8680   25.4670   46.2740 H   0  0  0  0  0  0  0  0  0  0  0  0
   58.9587   23.9459   44.1076 H   0  0  0  0  0  0  0  0  0  0  0  0
   59.1686   23.2511   45.7812 H   0  0  0  0  0  0  0  0  0  0  0  0
   59.3789   21.5967   43.8608 H   0  0  0  0  0  0  0  0  0  0  0  0
   58.1938   21.1848   45.1541 H   0  0  0  0  0  0  0  0  0  0  0  0
   57.4993   22.5399   42.5000 H   0  0  0  0  0  0  0  0  0  0  0  0
   57.2907   20.7878   42.8584 H   0  0  0  0  0  0  0  0  0  0  0  0
   55.2074   22.2219   43.1565 H   0  0  0  0  0  0  0  0  0  0  0  0
   55.7217   21.2413   44.6033 H   0  0  0  0  0  0  0  0  0  0  0  0
   56.3827   27.4593   45.8792 H   0  0  0  0  0  0  0  0  0  0  0  0
  1  2  1  0
  2  3  2  0
  3  4  1  0
  4  5  2  0
  5  6  1  0
  6  7  2  3
  7  8  1  0
  8  9  2  0
  8 10  1  0
 10 11  2  0
 11 12  1  0
 12 13  2  0
 13 14  1  0
 14 15  1  0
 15 16  1  0
 16 17  2  0
 17 18  1  0
 18 19  1  0
 19 20  2  0
 19 21  1  0
 21 22  2  0
 22 23  1  0
 23 24  1  0
 24 25  1  0
 25 26  1  0
 14 27  2  0
  6 28  1  0
 28  2  1  0
 27 10  1  0
 22 16  1  0
 26 21  1  0
  1 29  1  0
  1 30  1  0
  1 31  1  0
  3 32  1  0
  4 33  1  0
  5 34  1  0
 11 35  1  0
 12 36  1  0
 13 37  1  0
 15 38  1  0
 15 39  1  0
 18 40  1  0
 23 41  1  0
 23 42  1  0
 24 43  1  0
 24 44  1  0
 25 45  1  0
 25 46  1  0
 26 47  1  0
 26 48  1  0
 27 49  1  0
M  CHG  1  28  -1
M  END
>  <UniqueID>  (57) 
55

>  <SMILES>  (57) 
Cc1cccc(=NC(=O)c2cccc(Cc3n[nH]c(=O)c4c3CCCC4)c2)[n-]1

>  <Energy>  (57) 
63.553494629129965

>  <Genealogy>  (57) 
Cc1cccc(=NC(=O)c2cccc(Cc3n[nH]c(=O)c4c3CCCC4)c2)[n-]1 (protonated)
Cc1cccc(=NC(=O)c2cccc(Cc3n[nH]c(=O)c4c3CCCC4)c2)[n-]1 (3D coordinates assigned)
Cc1cccc(=NC(=O)c2cccc(Cc3n[nH]c(=O)c4c3CCCC4)c2)[n-]1 (nonaromatic ring conformer: 63.553494629129965 kcal/mol)

>  <smiles>  (57) 
Cc1cccc(=NC(=O)c2cccc(Cc3n[nH]c(=O)c4c3CCCC4)c2)[nH]1

>  <score_type>  (57) 
oracle

>  <origin>  (57) 
adg

>  <m_score__min__energy>  (57) 
-11.84

>  <m_primary>  (57) 
energy

$$$$
57:0
     RDKit          3D

 56 59  0  0  0  0  0  0  0  0999 V2000
   59.0415   23.7908   46.4370 H   0  0  0  0  0  0  0  0  0  0  0  0
   58.0800   24.3110   46.3150 C   0  0  0  0  0  0  0  0  0  0  0  0
   58.0410   25.5350   45.7290 N   0  0  0  0  0  0  0  0  0  0  0  0
   56.8810   26.2240   45.5410 C   0  0  0  0  0  0  0  0  0  0  0  0
   56.9600   27.3900   44.9580 N   0  0  0  0  0  0  0  0  0  0  0  0
   57.4850   28.6220   45.4730 C   0  0  0  0  0  0  0  0  0  0  0  0
   56.7330   29.6220   45.6140 O   0  0  0  0  0  0  0  0  0  0  0  0
   58.8780   28.7550   45.7740 N   0  0  0  0  0  0  0  0  0  0  0  0
   59.5050   28.4870   47.0370 C   0  0  0  0  0  0  0  0  0  0  0  0
   59.8300   27.1820   47.4420 C   0  0  0  0  0  0  0  0  0  0  0  0
   59.5941   26.3294   46.7882 H   0  0  0  0  0  0  0  0  0  0  0  0
   60.4520   26.9650   48.6730 C   0  0  0  0  0  0  0  0  0  0  0  0
   60.6941   25.9402   48.9911 H   0  0  0  0  0  0  0  0  0  0  0  0
   60.7680   28.0430   49.5020 C   0  0  0  0  0  0  0  0  0  0  0  0
   61.2497   27.8624   50.4743 H   0  0  0  0  0  0  0  0  0  0  0  0
   60.4740   29.3580   49.1010 C   0  0  0  0  0  0  0  0  0  0  0  0
   60.8030   30.5080   49.9810 C   0  0  0  0  0  0  0  0  0  0  0  0
   59.8120   31.0980   50.7850 C   0  0  0  0  0  0  0  0  0  0  0  0
   58.7807   30.7171   50.7492 H   0  0  0  0  0  0  0  0  0  0  0  0
   60.1290   32.1650   51.6290 C   0  0  0  0  0  0  0  0  0  0  0  0
   59.3458   32.6250   52.2495 H   0  0  0  0  0  0  0  0  0  0  0  0
   61.4370   32.6490   51.6870 C   0  0  0  0  0  0  0  0  0  0  0  0
   61.6791   33.4882   52.3557 H   0  0  0  0  0  0  0  0  0  0  0  0
   62.4430   32.0750   50.9010 C   0  0  0  0  0  0  0  0  0  0  0  0
   63.7460   32.5890   51.0130 O   0  0  0  0  0  0  0  0  0  0  0  0
   64.4750   33.2210   49.9610 C   0  0  0  0  0  0  0  0  0  0  0  0
   65.0273   34.0794   50.3710 H   0  0  0  0  0  0  0  0  0  0  0  0
   65.1706   32.4880   49.5264 H   0  0  0  0  0  0  0  0  0  0  0  0
   63.5510   33.7020   48.8820 C   0  0  0  0  0  0  0  0  0  0  0  0
   62.6250   34.5060   49.1700 O   0  0  0  0  0  0  0  0  0  0  0  0
   63.7070   33.2260   47.5360 N   0  0  0  0  0  0  0  0  0  0  0  0
   64.4400   32.5110   47.3330 H   0  0  0  0  0  0  0  0  0  0  0  0
   62.9550   33.7830   46.4150 C   0  0  0  0  0  0  0  0  0  0  0  0
   63.2691   34.8243   46.2506 H   0  0  0  0  0  0  0  0  0  0  0  0
   63.1560   33.1792   45.5178 H   0  0  0  0  0  0  0  0  0  0  0  0
   61.4780   33.7510   46.7010 C   0  0  0  0  0  0  0  0  0  0  0  0
   60.9040   32.6280   47.3170 C   0  0  0  0  0  0  0  0  0  0  0  0
   61.5348   31.7670   47.5830 H   0  0  0  0  0  0  0  0  0  0  0  0
   59.5340   32.5990   47.5940 C   0  0  0  0  0  0  0  0  0  0  0  0
   59.0896   31.7168   48.0781 H   0  0  0  0  0  0  0  0  0  0  0  0
   58.7280   33.6910   47.2560 C   0  0  0  0  0  0  0  0  0  0  0  0
   57.6498   33.6666   47.4728 H   0  0  0  0  0  0  0  0  0  0  0  0
   59.2920   34.8130   46.6430 C   0  0  0  0  0  0  0  0  0  0  0  0
   58.6572   35.6712   46.3772 H   0  0  0  0  0  0  0  0  0  0  0  0
   60.6630   34.8460   46.3670 C   0  0  0  0  0  0  0  0  0  0  0  0
   61.1045   35.7318   45.8870 H   0  0  0  0  0  0  0  0  0  0  0  0
   62.1170   31.0090   50.0400 C   0  0  0  0  0  0  0  0  0  0  0  0
   62.8980   30.5631   49.4066 H   0  0  0  0  0  0  0  0  0  0  0  0
   59.8520   29.5670   47.8570 C   0  0  0  0  0  0  0  0  0  0  0  0
   59.6354   30.5928   47.5241 H   0  0  0  0  0  0  0  0  0  0  0  0
   55.6700   25.6600   46.0220 C   0  0  0  0  0  0  0  0  0  0  0  0
   54.4590   26.3400   45.9740 O   0  0  0  0  0  0  0  0  0  0  0  0
   55.6970   24.3950   46.6160 C   0  0  0  0  0  0  0  0  0  0  0  0
   54.7621   23.9358   46.9697 H   0  0  0  0  0  0  0  0  0  0  0  0
   56.9040   23.7130   46.7620 C   0  0  0  0  0  0  0  0  0  0  0  0
   56.9275   22.7152   47.2244 H   0  0  0  0  0  0  0  0  0  0  0  0
  1  2  1  0
  2  3  1  0
  3  4  1  0
  4  5  2  0
  5  6  1  0
  6  7  2  0
  6  8  1  0
  8  9  1  0
  9 10  2  0
 10 11  1  0
 10 12  1  0
 12 13  1  0
 12 14  2  0
 14 15  1  0
 14 16  1  0
 16 17  1  0
 17 18  2  0
 18 19  1  0
 18 20  1  0
 20 21  1  0
 20 22  2  0
 22 23  1  0
 22 24  1  0
 24 25  1  0
 25 26  1  0
 26 27  1  0
 26 28  1  0
 26 29  1  0
 29 30  2  0
 29 31  1  0
 31 32  1  0
 31 33  1  0
 33 34  1  0
 33 35  1  0
 33 36  1  0
 36 37  2  0
 37 38  1  0
 37 39  1  0
 39 40  1  0
 39 41  2  0
 41 42  1  0
 41 43  1  0
 43 44  1  0
 43 45  2  0
 45 46  1  0
 24 47  2  0
 47 48  1  0
 16 49  2  0
 49 50  1  0
  4 51  1  0
 51 52  1  0
 51 53  2  0
 53 54  1  0
 53 55  1  0
 55 56  1  0
 55  2  2  0
 49  9  1  0
 47 17  1  0
 45 36  1  0
M  CHG  3   3  -1   8  -1  52  -1
M  END
>  <UniqueID>  (58) 
56

>  <SMILES>  (58) 
O=C(/N=c1/[n-]cccc1[O-])[N-]c1cccc(-c2cccc(OCC(=O)NCc3ccccc3)c2)c1

>  <Energy>  (58) 
78.82054641709875

>  <Genealogy>  (58) 
O=C(N=c1[n-]cccc1[O-])[N-]c1cccc(-c2cccc(OCC(=O)NCc3ccccc3)c2)c1 (protonated)
O=C(/N=c1/[n-]cccc1[O-])[N-]c1cccc(-c2cccc(OCC(=O)NCc3ccccc3)c2)c1 (cis-trans isomerization)
O=C(/N=c1/[n-]cccc1[O-])[N-]c1cccc(-c2cccc(OCC(=O)NCc3ccccc3)c2)c1 (3D coordinates assigned)
O=C(/N=c1/[n-]cccc1[O-])[N-]c1cccc(-c2cccc(OCC(=O)NCc3ccccc3)c2)c1 (optimized conformer: 78.82054641709875 kcal/mol)

>  <smiles>  (58) 
O=C(COc1cccc(-c2cccc(NC(=O)N=c3[nH]cccc3O)c2)c1)NCc1ccccc1

>  <score_type>  (58) 
oracle

>  <origin>  (58) 
adg

>  <m_score__min__energy>  (58) 
-15.49

>  <m_primary>  (58) 
energy

$$$$
58:0
     RDKit          3D

 60 63  0  0  0  0  0  0  0  0999 V2000
   67.4340   31.5960   51.2030 C   0  0  0  0  0  0  0  0  0  0  0  0
   66.2540   31.6210   50.5780 C   0  0  0  0  0  0  0  0  0  0  0  0
   65.3890   32.8540   50.5560 C   0  0  0  0  0  0  0  0  0  0  0  0
   64.1730   32.6810   49.6240 C   0  0  0  0  0  0  0  0  0  0  0  0
   64.3740   33.4840   48.3110 C   0  0  0  0  0  0  0  0  0  0  0  0
   63.0660   34.0190   47.6980 C   0  0  0  0  0  0  0  0  0  0  0  0
   61.9310   33.1460   48.0160 N   0  0  0  0  0  0  0  0  0  0  0  0
   60.9090   32.9330   47.0290 C   0  0  0  0  0  0  0  0  0  0  0  0
   60.5000   33.9080   46.3420 O   0  0  0  0  0  0  0  0  0  0  0  0
   60.3400   31.5850   46.7960 C   0  0  0  0  0  0  0  0  0  0  0  0
   61.1420   30.4390   46.9260 C   0  0  0  0  0  0  0  0  0  0  0  0
   60.6050   29.1690   46.6960 C   0  0  0  0  0  0  0  0  0  0  0  0
   59.2620   29.0270   46.3220 C   0  0  0  0  0  0  0  0  0  0  0  0
   58.7060   27.7200   46.0930 N   0  0  0  0  0  0  0  0  0  0  0  0
   58.8140   26.6630   46.9270 C   0  0  0  0  0  0  0  0  0  0  0  0
   59.5370   26.6730   48.2410 C   0  0  0  0  0  0  0  0  0  0  0  0
   58.1880   25.5600   46.3870 C   0  0  0  0  0  0  0  0  0  0  0  0
   57.6360   25.9590   45.1810 C   0  0  0  0  0  0  0  0  0  0  0  0
   56.8980   25.1350   44.4110 C   0  0  0  0  0  0  0  0  0  0  0  0
   55.6410   24.4760   44.8170 C   0  0  0  0  0  0  0  0  0  0  0  0
   54.7260   25.1450   45.6420 C   0  0  0  0  0  0  0  0  0  0  0  0
   55.0150   26.4180   46.1270 O   0  0  0  0  0  0  0  0  0  0  0  0
   53.5530   24.5450   45.9770 N   0  0  0  0  0  0  0  0  0  0  0  0
   53.2400   23.3080   45.5150 C   0  0  0  0  0  0  0  0  0  0  0  0
   52.1520   22.7710   45.8450 O   0  0  0  0  0  0  0  0  0  0  0  0
   54.1000   22.6510   44.6940 N   0  0  0  0  0  0  0  0  0  0  0  0
   55.2830   23.2060   44.3270 C   0  0  0  0  0  0  0  0  0  0  0  0
   56.0470   22.5770   43.5480 O   0  0  0  0  0  0  0  0  0  0  0  0
   58.0050   27.3040   45.0060 C   0  0  0  0  0  0  0  0  0  0  0  0
   57.8330   28.0620   43.9100 C   0  0  0  0  0  0  0  0  0  0  0  0
   58.4620   30.1700   46.1750 C   0  0  0  0  0  0  0  0  0  0  0  0
   58.9980   31.4400   46.4050 C   0  0  0  0  0  0  0  0  0  0  0  0
   61.6660   32.7650   49.4120 C   0  0  0  0  0  0  0  0  0  0  0  0
   62.8600   33.0820   50.3220 C   0  0  0  0  0  0  0  0  0  0  0  0
   68.0394   30.6776   51.1985 H   0  0  0  0  0  0  0  0  0  0  0  0
   67.8005   32.4938   51.7223 H   0  0  0  0  0  0  0  0  0  0  0  0
   65.9033   30.7140   50.0639 H   0  0  0  0  0  0  0  0  0  0  0  0
   65.0304   33.0561   51.5761 H   0  0  0  0  0  0  0  0  0  0  0  0
   65.9945   33.6909   50.1779 H   0  0  0  0  0  0  0  0  0  0  0  0
   64.0943   31.6136   49.3700 H   0  0  0  0  0  0  0  0  0  0  0  0
   65.0308   34.3398   48.5259 H   0  0  0  0  0  0  0  0  0  0  0  0
   64.8094   32.7902   47.5768 H   0  0  0  0  0  0  0  0  0  0  0  0
   62.8678   35.0242   48.0983 H   0  0  0  0  0  0  0  0  0  0  0  0
   63.1831   34.0510   46.6047 H   0  0  0  0  0  0  0  0  0  0  0  0
   62.1996   30.5417   47.2107 H   0  0  0  0  0  0  0  0  0  0  0  0
   61.2393   28.2774   46.8091 H   0  0  0  0  0  0  0  0  0  0  0  0
   58.8052   26.6629   49.0622 H   0  0  0  0  0  0  0  0  0  0  0  0
   60.1804   25.7837   48.3122 H   0  0  0  0  0  0  0  0  0  0  0  0
   60.1556   27.5798   48.3122 H   0  0  0  0  0  0  0  0  0  0  0  0
   58.1366   24.5543   46.8296 H   0  0  0  0  0  0  0  0  0  0  0  0
   57.2637   24.9365   43.3927 H   0  0  0  0  0  0  0  0  0  0  0  0
   54.7730   26.6810   47.0750 H   0  0  0  0  0  0  0  0  0  0  0  0
   58.1708   29.1088   43.9067 H   0  0  0  0  0  0  0  0  0  0  0  0
   57.3544   27.6357   43.0160 H   0  0  0  0  0  0  0  0  0  0  0  0
   57.4081   30.0661   45.8774 H   0  0  0  0  0  0  0  0  0  0  0  0
   58.3658   32.3313   46.2792 H   0  0  0  0  0  0  0  0  0  0  0  0
   60.7863   33.3186   49.7720 H   0  0  0  0  0  0  0  0  0  0  0  0
   61.4884   31.6799   49.4440 H   0  0  0  0  0  0  0  0  0  0  0  0
   62.8769   34.1603   50.5389 H   0  0  0  0  0  0  0  0  0  0  0  0
   62.7609   32.5153   51.2595 H   0  0  0  0  0  0  0  0  0  0  0  0
  1  2  2  0
  2  3  1  0
  3  4  1  0
  4  5  1  0
  5  6  1  0
  6  7  1  0
  7  8  1  0
  8  9  2  0
  8 10  1  0
 10 11  2  0
 11 12  1  0
 12 13  2  0
 13 14  1  0
 14 15  1  0
 15 16  1  0
 15 17  2  0
 17 18  1  0
 18 19  2  3
 19 20  1  0
 20 21  2  0
 21 22  1  0
 21 23  1  0
 23 24  1  0
 24 25  2  0
 24 26  1  0
 26 27  1  0
 27 28  2  0
 18 29  1  0
 29 30  2  0
 13 31  1  0
 31 32  2  0
  7 33  1  0
 33 34  1  0
 34  4  1  0
 32 10  1  0
 29 14  1  0
 27 20  1  0
  1 35  1  0
  1 36  1  0
  2 37  1  0
  3 38  1  0
  3 39  1  0
  4 40  1  0
  5 41  1  0
  5 42  1  0
  6 43  1  0
  6 44  1  0
 11 45  1  0
 12 46  1  0
 16 47  1  0
 16 48  1  0
 16 49  1  0
 17 50  1  0
 19 51  1  0
 22 52  1  0
 30 53  1  0
 30 54  1  0
 31 55  1  0
 32 56  1  0
 33 57  1  0
 33 58  1  0
 34 59  1  0
 34 60  1  0
M  CHG  2  23  -1  26  -1
M  END
>  <UniqueID>  (59) 
57

>  <SMILES>  (59) 
C=CCC1CCN(C(=O)c2ccc(-n3c(C)cc(=Cc4c(O)[n-]c(=O)[n-]c4=O)c3=C)cc2)CC1

>  <Energy>  (59) 
115.11713742687687

>  <Genealogy>  (59) 
C=CCC1CCN(C(=O)c2ccc(-n3c(C)cc(=Cc4c(O)[n-]c(=O)[n-]c4=O)c3=C)cc2)CC1 (protonated)
C=CCC1CCN(C(=O)c2ccc(-n3c(C)cc(=Cc4c(O)[n-]c(=O)[n-]c4=O)c3=C)cc2)CC1 (3D coordinates assigned)
C=CCC1CCN(C(=O)c2ccc(-n3c(C)cc(=Cc4c(O)[n-]c(=O)[n-]c4=O)c3=C)cc2)CC1 (nonaromatic ring conformer: 115.11713742687687 kcal/mol)

>  <smiles>  (59) 
C=CCC1CCN(C(=O)c2ccc(-n3c(C)cc(=Cc4c(O)[nH]c(=O)[nH]c4=O)c3=C)cc2)CC1

>  <score_type>  (59) 
oracle

>  <origin>  (59) 
adg

>  <m_score__min__energy>  (59) 
-13.859999999999999

>  <m_primary>  (59) 
energy

$$$$
59:0
     RDKit          3D

 41 42  0  0  0  0  0  0  0  0999 V2000
   56.3299   31.0344   41.5858 H   0  0  0  0  0  0  0  0  0  0  0  0
   56.6420   30.8320   42.6210 C   0  0  0  0  0  0  0  0  0  0  0  0
   56.1050   29.7860   43.2980 N   0  0  0  0  0  0  0  0  0  0  0  0
   56.4680   29.4970   44.5780 C   0  0  0  0  0  0  0  0  0  0  0  0
   55.9120   28.4050   45.2560 O   0  0  0  0  0  0  0  0  0  0  0  0
   56.6820   27.3370   45.8080 C   0  0  1  0  0  0  0  0  0  0  0  0
   57.2593   27.7109   46.6665 H   0  0  0  0  0  0  0  0  0  0  0  0
   55.7550   26.2470   46.2510 C   0  0  0  0  0  0  0  0  0  0  0  0
   56.2060   25.2340   46.8460 O   0  0  0  0  0  0  0  0  0  0  0  0
   54.3960   26.3300   45.9690 O   0  0  0  0  0  0  0  0  0  0  0  0
   57.6590   26.7910   44.7650 C   0  0  0  0  0  0  0  0  0  0  0  0
   58.5104   26.3152   45.2737 H   0  0  0  0  0  0  0  0  0  0  0  0
   57.1464   26.0486   44.1357 H   0  0  0  0  0  0  0  0  0  0  0  0
   58.0227   27.6166   44.1357 H   0  0  0  0  0  0  0  0  0  0  0  0
   57.4150   30.2940   45.2300 C   0  0  0  0  0  0  0  0  0  0  0  0
   57.7192   30.0590   46.2607 H   0  0  0  0  0  0  0  0  0  0  0  0
   57.9790   31.4020   44.5590 C   0  0  0  0  0  0  0  0  0  0  0  0
   58.8690   32.1900   45.0970 N   0  0  0  0  0  0  0  0  0  0  0  0
   58.8440   33.6200   45.2500 C   0  0  0  0  0  0  0  0  0  0  0  0
   59.5540   34.3690   44.5280 O   0  0  0  0  0  0  0  0  0  0  0  0
   58.0470   34.2180   46.3650 C   0  0  0  0  0  0  0  0  0  0  0  0
   57.2738   34.8796   45.9474 H   0  0  0  0  0  0  0  0  0  0  0  0
   57.5718   33.4129   46.9447 H   0  0  0  0  0  0  0  0  0  0  0  0
   58.9270   34.9920   47.2430 N   0  0  0  0  0  0  0  0  0  0  0  0
   59.7090   35.3750   46.6620 H   0  0  0  0  0  0  0  0  0  0  0  0
   59.6490   33.9430   48.4250 S   0  0  0  0  0  0  0  0  0  0  0  0
   59.5580   34.5890   49.7790 O   0  0  0  0  0  0  0  0  0  0  0  0
   58.9020   32.6390   48.4700 O   0  0  0  0  0  0  0  0  0  0  0  0
   61.3450   33.6590   48.0370 C   0  0  0  0  0  0  0  0  0  0  0  0
   62.2450   33.2460   49.0320 C   0  0  0  0  0  0  0  0  0  0  0  0
   61.8968   33.1141   50.0671 H   0  0  0  0  0  0  0  0  0  0  0  0
   63.5840   33.0020   48.7090 C   0  0  0  0  0  0  0  0  0  0  0  0
   64.2879   32.6807   49.4909 H   0  0  0  0  0  0  0  0  0  0  0  0
   64.0290   33.1660   47.3930 C   0  0  0  0  0  0  0  0  0  0  0  0
   65.0826   32.9754   47.1408 H   0  0  0  0  0  0  0  0  0  0  0  0
   63.1350   33.5720   46.3990 C   0  0  0  0  0  0  0  0  0  0  0  0
   63.4850   33.7000   45.3641 H   0  0  0  0  0  0  0  0  0  0  0  0
   61.7940   33.8160   46.7190 C   0  0  0  0  0  0  0  0  0  0  0  0
   61.0912   34.1317   45.9339 H   0  0  0  0  0  0  0  0  0  0  0  0
   57.5900   31.6520   43.2360 C   0  0  0  0  0  0  0  0  0  0  0  0
   58.0314   32.4939   42.6824 H   0  0  0  0  0  0  0  0  0  0  0  0
  1  2  1  0
  2  3  1  0
  3  4  1  0
  4  5  1  0
  5  6  1  0
  6  7  1  1
  6  8  1  0
  8  9  2  0
  8 10  1  0
  6 11  1  0
 11 12  1  0
 11 13  1  0
 11 14  1  0
  4 15  2  0
 15 16  1  0
 15 17  1  0
 17 18  2  0
 18 19  1  0
 19 20  2  0
 19 21  1  0
 21 22  1  0
 21 23  1  0
 21 24  1  0
 24 25  1  0
 24 26  1  0
 26 27  2  0
 26 28  2  0
 26 29  1  0
 29 30  2  0
 30 31  1  0
 30 32  1  0
 32 33  1  0
 32 34  2  0
 34 35  1  0
 34 36  1  0
 36 37  1  0
 36 38  2  0
 38 39  1  0
 17 40  1  0
 40 41  1  0
 40  2  2  0
 38 29  1  0
M  CHG  2   3  -1  10  -1
M  END
>  <UniqueID>  (60) 
58

>  <SMILES>  (60) 
C[C@@H](Oc1c/c(=N\C(=O)CNS(=O)(=O)c2ccccc2)cc[n-]1)C(=O)[O-]

>  <Energy>  (60) 
41.76348332475069

>  <Genealogy>  (60) 
CC(Oc1cc(=NC(=O)CNS(=O)(=O)c2ccccc2)cc[n-]1)C(=O)[O-] (protonated)
C[C@@H](Oc1cc(=NC(=O)CNS(=O)(=O)c2ccccc2)cc[n-]1)C(=O)[O-] (chirality)
C[C@@H](Oc1c/c(=N\C(=O)CNS(=O)(=O)c2ccccc2)cc[n-]1)C(=O)[O-] (cis-trans isomerization)
C[C@@H](Oc1c/c(=N\C(=O)CNS(=O)(=O)c2ccccc2)cc[n-]1)C(=O)[O-] (3D coordinates assigned)
C[C@@H](Oc1c/c(=N\C(=O)CNS(=O)(=O)c2ccccc2)cc[n-]1)C(=O)[O-] (optimized conformer: 41.76348332475069 kcal/mol)

>  <smiles>  (60) 
CC(Oc1cc(=NC(=O)CNS(=O)(=O)c2ccccc2)cc[nH]1)C(=O)O

>  <score_type>  (60) 
oracle

>  <origin>  (60) 
adg

>  <m_score__min__energy>  (60) 
-13.01

>  <m_primary>  (60) 
energy

$$$$
60:0
     RDKit          3D

 54 57  0  0  0  0  0  0  0  0999 V2000
   56.6990   30.4110   51.2620 O   0  0  0  0  0  0  0  0  0  0  0  0
   56.6580   30.4440   52.5230 C   0  0  0  0  0  0  0  0  0  0  0  0
   55.4010   30.2380   53.1850 N   0  0  0  0  0  0  0  0  0  0  0  0
   54.1600   30.7980   52.7180 C   0  0  0  0  0  0  0  0  0  0  0  0
   53.0330   30.8970   53.5570 C   0  0  0  0  0  0  0  0  0  0  0  0
   51.8280   31.4070   53.0650 C   0  0  0  0  0  0  0  0  0  0  0  0
   51.7340   31.8220   51.7330 C   0  0  0  0  0  0  0  0  0  0  0  0
   50.5350   32.3280   51.2470 O   0  0  0  0  0  0  0  0  0  0  0  0
   52.8450   31.7230   50.8920 C   0  0  0  0  0  0  0  0  0  0  0  0
   54.0500   31.2090   51.3800 C   0  0  0  0  0  0  0  0  0  0  0  0
   57.8710   30.6920   53.2760 N   0  0  0  0  0  0  0  0  0  0  0  0
   58.8130   29.5940   53.5610 C   0  0  0  0  0  0  0  0  0  0  0  0
   59.0190   28.6550   52.3570 C   0  0  0  0  0  0  0  0  0  0  0  0
   59.8280   29.2620   51.2350 C   0  0  0  0  0  0  0  0  0  0  0  0
   59.2500   29.4330   49.9650 C   0  0  0  0  0  0  0  0  0  0  0  0
   59.9870   30.0070   48.9230 C   0  0  0  0  0  0  0  0  0  0  0  0
   61.2980   30.4350   49.1460 C   0  0  0  0  0  0  0  0  0  0  0  0
   61.8670   30.3060   50.4150 C   0  0  0  0  0  0  0  0  0  0  0  0
   61.1330   29.7350   51.4590 C   0  0  0  0  0  0  0  0  0  0  0  0
   58.3150   32.0810   53.5000 C   0  0  0  0  0  0  0  0  0  0  0  0
   59.2540   32.5910   52.4260 C   0  0  0  0  0  0  0  0  0  0  0  0
   60.5630   32.9510   52.7720 C   0  0  0  0  0  0  0  0  0  0  0  0
   61.4330   33.4670   51.8110 C   0  0  0  0  0  0  0  0  0  0  0  0
   61.0000   33.6480   50.4950 C   0  0  0  0  0  0  0  0  0  0  0  0
   59.6830   33.3180   50.1260 C   0  0  0  0  0  0  0  0  0  0  0  0
   59.2090   33.5310   48.7340 C   0  0  0  0  0  0  0  0  0  0  0  0
   59.6950   34.5520   47.8920 C   0  0  0  0  0  0  0  0  0  0  0  0
   59.0970   34.5800   46.6400 C   0  0  0  0  0  0  0  0  0  0  0  0
   57.9660   33.3430   46.5710 S   0  0  0  0  0  0  0  0  0  0  0  0
   58.2190   32.7570   48.1240 C   0  0  0  0  0  0  0  0  0  0  0  0
   58.8190   32.7890   51.1030 C   0  0  0  0  0  0  0  0  0  0  0  0
   55.3770   29.6240   54.0280 H   0  0  0  0  0  0  0  0  0  0  0  0
   53.1014   30.5711   54.6054 H   0  0  0  0  0  0  0  0  0  0  0  0
   50.9525   31.4820   53.7267 H   0  0  0  0  0  0  0  0  0  0  0  0
   52.7716   32.0499   49.8443 H   0  0  0  0  0  0  0  0  0  0  0  0
   54.9188   31.1259   50.7104 H   0  0  0  0  0  0  0  0  0  0  0  0
   59.7850   30.0281   53.8382 H   0  0  0  0  0  0  0  0  0  0  0  0
   58.3851   28.9949   54.3783 H   0  0  0  0  0  0  0  0  0  0  0  0
   59.5386   27.7513   52.7082 H   0  0  0  0  0  0  0  0  0  0  0  0
   58.0210   28.4384   51.9483 H   0  0  0  0  0  0  0  0  0  0  0  0
   58.2121   29.1137   49.7892 H   0  0  0  0  0  0  0  0  0  0  0  0
   59.5336   30.1213   47.9273 H   0  0  0  0  0  0  0  0  0  0  0  0
   61.8816   30.8732   48.3229 H   0  0  0  0  0  0  0  0  0  0  0  0
   62.8950   30.6544   50.5935 H   0  0  0  0  0  0  0  0  0  0  0  0
   61.5790   29.6553   52.4614 H   0  0  0  0  0  0  0  0  0  0  0  0
   57.4281   32.7311   53.5257 H   0  0  0  0  0  0  0  0  0  0  0  0
   58.8683   32.0967   54.4506 H   0  0  0  0  0  0  0  0  0  0  0  0
   60.9075   32.8259   53.8092 H   0  0  0  0  0  0  0  0  0  0  0  0
   62.4633   33.7322   52.0904 H   0  0  0  0  0  0  0  0  0  0  0  0
   61.6935   34.0512   49.7423 H   0  0  0  0  0  0  0  0  0  0  0  0
   60.4770   35.2618   48.1994 H   0  0  0  0  0  0  0  0  0  0  0  0
   59.3253   35.2908   45.8321 H   0  0  0  0  0  0  0  0  0  0  0  0
   57.6937   31.9068   48.5836 H   0  0  0  0  0  0  0  0  0  0  0  0
   57.7870   32.5262   50.8276 H   0  0  0  0  0  0  0  0  0  0  0  0
  1  2  2  0
  2  3  1  0
  3  4  1  0
  4  5  2  0
  5  6  1  0
  6  7  2  0
  7  8  1  0
  7  9  1  0
  9 10  2  0
  2 11  1  0
 11 12  1  0
 12 13  1  0
 13 14  1  0
 14 15  2  0
 15 16  1  0
 16 17  2  0
 17 18  1  0
 18 19  2  0
 11 20  1  0
 20 21  1  0
 21 22  2  0
 22 23  1  0
 23 24  2  0
 24 25  1  0
 25 26  1  0
 26 27  1  0
 27 28  2  0
 28 29  1  0
 29 30  1  0
 25 31  2  0
 10  4  1  0
 19 14  1  0
 31 21  1  0
 30 26  2  0
  3 32  1  0
  5 33  1  0
  6 34  1  0
  9 35  1  0
 10 36  1  0
 12 37  1  0
 12 38  1  0
 13 39  1  0
 13 40  1  0
 15 41  1  0
 16 42  1  0
 17 43  1  0
 18 44  1  0
 19 45  1  0
 20 46  1  0
 20 47  1  0
 22 48  1  0
 23 49  1  0
 24 50  1  0
 27 51  1  0
 28 52  1  0
 30 53  1  0
 31 54  1  0
M  CHG  1   8  -1
M  END
>  <UniqueID>  (61) 
59

>  <SMILES>  (61) 
O=C(Nc1ccc([O-])cc1)N(CCc1ccccc1)Cc1cccc(-c2ccsc2)c1

>  <Energy>  (61) 
86.67866755979693

>  <Genealogy>  (61) 
O=C(Nc1ccc([O-])cc1)N(CCc1ccccc1)Cc1cccc(-c2ccsc2)c1 (protonated)
O=C(Nc1ccc([O-])cc1)N(CCc1ccccc1)Cc1cccc(-c2ccsc2)c1 (3D coordinates assigned)
O=C(Nc1ccc([O-])cc1)N(CCc1ccccc1)Cc1cccc(-c2ccsc2)c1 (optimized conformer: 86.67866755979693 kcal/mol)

>  <smiles>  (61) 
O=C(Nc1ccc(O)cc1)N(CCc1ccccc1)Cc1cccc(-c2ccsc2)c1

>  <score_type>  (61) 
oracle

>  <origin>  (61) 
adg

>  <m_score__min__energy>  (61) 
-11.199999999999999

>  <m_primary>  (61) 
energy

$$$$
61:0
     RDKit          3D

 64 68  0  0  0  0  0  0  0  0999 V2000
   58.9325   34.6057   44.4617 H   0  0  0  0  0  0  0  0  0  0  0  0
   59.0440   34.1900   45.4740 C   0  0  0  0  0  0  0  0  0  0  0  0
   60.0280   34.5870   46.3250 N   0  0  0  0  0  0  0  0  0  0  0  0
   59.9590   33.9400   47.5090 C   0  0  0  0  0  0  0  0  0  0  0  0
   60.8300   34.1410   48.4530 N   0  0  0  0  0  0  0  0  0  0  0  0
   62.1510   33.5930   48.5290 C   0  0  0  0  0  0  0  0  0  0  0  0
   63.0840   34.1900   47.9280 O   0  0  0  0  0  0  0  0  0  0  0  0
   62.4750   32.4690   49.4830 C   0  0  0  0  0  0  0  0  0  0  0  0
   62.4942   32.8671   50.5083 H   0  0  0  0  0  0  0  0  0  0  0  0
   63.4536   32.0535   49.2008 H   0  0  0  0  0  0  0  0  0  0  0  0
   61.4590   31.3610   49.4100 C   0  0  0  0  0  0  0  0  0  0  0  0
   60.7670   30.7870   50.4650 C   0  0  0  0  0  0  0  0  0  0  0  0
   60.8310   31.1990   51.9010 C   0  0  0  0  0  0  0  0  0  0  0  0
   60.6938   30.3159   52.5423 H   0  0  0  0  0  0  0  0  0  0  0  0
   61.8106   31.6542   52.1085 H   0  0  0  0  0  0  0  0  0  0  0  0
   60.0356   31.9300   52.1085 H   0  0  0  0  0  0  0  0  0  0  0  0
   60.0330   29.7500   50.0200 N   0  0  0  0  0  0  0  0  0  0  0  0
   60.2460   29.6340   48.7170 N   0  0  0  0  0  0  0  0  0  0  0  0
   59.6460   28.5920   47.9350 C   0  0  0  0  0  0  0  0  0  0  0  0
   58.2930   28.5600   47.7860 N   0  0  0  0  0  0  0  0  0  0  0  0
   57.6820   27.5890   47.1050 N   0  0  0  0  0  0  0  0  0  0  0  0
   56.6400   27.6090   47.0420 H   0  0  0  0  0  0  0  0  0  0  0  0
   58.3860   26.5670   46.5340 C   0  0  0  0  0  0  0  0  0  0  0  0
   57.7030   25.5130   45.8290 N   0  0  0  0  0  0  0  0  0  0  0  0
   57.7320   25.4760   44.3580 C   0  0  0  0  0  0  0  0  0  0  0  0
   57.0107   26.2090   43.9676 H   0  0  0  0  0  0  0  0  0  0  0  0
   58.7528   25.7169   44.0264 H   0  0  0  0  0  0  0  0  0  0  0  0
   57.3670   24.0820   43.8230 C   0  0  0  0  0  0  0  0  0  0  0  0
   56.2751   23.9541   43.8595 H   0  0  0  0  0  0  0  0  0  0  0  0
   57.7233   23.9929   42.7861 H   0  0  0  0  0  0  0  0  0  0  0  0
   58.0320   22.9930   44.6730 C   0  0  0  0  0  0  0  0  0  0  0  0
   57.7420   22.0091   44.2756 H   0  0  0  0  0  0  0  0  0  0  0  0
   59.1200   23.1459   44.6203 H   0  0  0  0  0  0  0  0  0  0  0  0
   57.6190   23.0680   46.1600 C   0  0  0  0  0  0  0  0  0  0  0  0
   56.8624   22.2928   46.3516 H   0  0  0  0  0  0  0  0  0  0  0  0
   58.5293   22.9163   46.7586 H   0  0  0  0  0  0  0  0  0  0  0  0
   57.0330   24.4310   46.5610 C   0  0  0  0  0  0  0  0  0  0  0  0
   55.9584   24.4464   46.3265 H   0  0  0  0  0  0  0  0  0  0  0  0
   57.1874   24.5817   47.6396 H   0  0  0  0  0  0  0  0  0  0  0  0
   59.7790   26.5470   46.6700 C   0  0  0  0  0  0  0  0  0  0  0  0
   60.3681   25.7339   46.2208 H   0  0  0  0  0  0  0  0  0  0  0  0
   60.4130   27.5640   47.3780 C   0  0  0  0  0  0  0  0  0  0  0  0
   61.5064   27.5591   47.4981 H   0  0  0  0  0  0  0  0  0  0  0  0
   61.0950   30.6070   48.3060 C   0  0  0  0  0  0  0  0  0  0  0  0
   61.5680   30.8210   46.8970 C   0  0  0  0  0  0  0  0  0  0  0  0
   62.5701   31.2744   46.9115 H   0  0  0  0  0  0  0  0  0  0  0  0
   61.6104   29.8544   46.3737 H   0  0  0  0  0  0  0  0  0  0  0  0
   60.8700   31.4910   46.3737 H   0  0  0  0  0  0  0  0  0  0  0  0
   58.6950   32.8220   47.5370 S   0  0  0  0  0  0  0  0  0  0  0  0
   58.1900   33.2180   45.9830 C   0  0  0  0  0  0  0  0  0  0  0  0
   57.0630   32.5670   45.2440 C   0  0  0  0  0  0  0  0  0  0  0  0
   56.1863   32.4997   45.9050 H   0  0  0  0  0  0  0  0  0  0  0  0
   56.8203   33.1707   44.3570 H   0  0  0  0  0  0  0  0  0  0  0  0
   57.4590   31.1840   44.8020 C   0  0  0  0  0  0  0  0  0  0  0  0
   58.7970   30.7670   44.9140 C   0  0  0  0  0  0  0  0  0  0  0  0
   59.5562   31.4623   45.3016 H   0  0  0  0  0  0  0  0  0  0  0  0
   59.1680   29.4720   44.5350 C   0  0  0  0  0  0  0  0  0  0  0  0
   60.2181   29.1550   44.6178 H   0  0  0  0  0  0  0  0  0  0  0  0
   58.2070   28.5820   44.0520 C   0  0  0  0  0  0  0  0  0  0  0  0
   58.5013   27.5654   43.7520 H   0  0  0  0  0  0  0  0  0  0  0  0
   56.8710   28.9810   43.9490 C   0  0  0  0  0  0  0  0  0  0  0  0
   56.1158   28.2765   43.5705 H   0  0  0  0  0  0  0  0  0  0  0  0
   56.4920   30.2740   44.3260 C   0  0  0  0  0  0  0  0  0  0  0  0
   55.1870   30.6390   44.2330 F   0  0  0  0  0  0  0  0  0  0  0  0
  1  2  1  0
  2  3  1  0
  3  4  1  0
  4  5  2  0
  5  6  1  0
  6  7  2  0
  6  8  1  0
  8  9  1  0
  8 10  1  0
  8 11  1  0
 11 12  1  0
 12 13  1  0
 13 14  1  0
 13 15  1  0
 13 16  1  0
 12 17  2  0
 17 18  1  0
 18 19  1  0
 19 20  2  0
 20 21  1  0
 21 22  1  0
 21 23  2  0
 23 24  1  0
 24 25  1  0
 25 26  1  0
 25 27  1  0
 25 28  1  0
 28 29  1  0
 28 30  1  0
 28 31  1  0
 31 32  1  0
 31 33  1  0
 31 34  1  0
 34 35  1  0
 34 36  1  0
 34 37  1  0
 37 38  1  0
 37 39  1  0
 23 40  1  0
 40 41  1  0
 40 42  2  0
 42 43  1  0
 18 44  1  0
 44 45  1  0
 45 46  1  0
 45 47  1  0
 45 48  1  0
  4 49  1  0
 49 50  1  0
 50 51  1  0
 51 52  1  0
 51 53  1  0
 51 54  1  0
 54 55  2  0
 55 56  1  0
 55 57  1  0
 57 58  1  0
 57 59  2  0
 59 60  1  0
 59 61  1  0
 61 62  1  0
 61 63  2  0
 63 64  1  0
 50  2  2  0
 63 54  1  0
 44 11  2  0
 42 19  1  0
 37 24  1  0
M  CHG  2   3  -1  21   1
M  END
>  <UniqueID>  (62) 
60

>  <SMILES>  (62) 
Cc1nn(-c2ccc(N3CCCCC3)[nH+]n2)c(C)c1CC(=O)/N=c1/[n-]cc(Cc2ccccc2F)s1

>  <Energy>  (62) 
143.058350601677

>  <Genealogy>  (62) 
Cc1nn(-c2ccc(N3CCCCC3)[nH+]n2)c(C)c1CC(=O)N=c1[n-]cc(Cc2ccccc2F)s1 (protonated)
Cc1nn(-c2ccc(N3CCCCC3)[nH+]n2)c(C)c1CC(=O)/N=c1/[n-]cc(Cc2ccccc2F)s1 (cis-trans isomerization)
Cc1nn(-c2ccc(N3CCCCC3)[nH+]n2)c(C)c1CC(=O)/N=c1/[n-]cc(Cc2ccccc2F)s1 (3D coordinates assigned)
Cc1nn(-c2ccc(N3CCCCC3)[nH+]n2)c(C)c1CC(=O)/N=c1/[n-]cc(Cc2ccccc2F)s1 (nonaromatic ring conformer: 143.058350601677 kcal/mol)

>  <smiles>  (62) 
Cc1nn(-c2ccc(N3CCCCC3)nn2)c(C)c1CC(=O)N=c1[nH]cc(Cc2ccccc2F)s1

>  <score_type>  (62) 
oracle

>  <origin>  (62) 
adg

>  <m_score__min__energy>  (62) 
-11.4

>  <m_primary>  (62) 
energy

$$$$
62:0
     RDKit          3D

 65 67  0  0  0  0  0  0  0  0999 V2000
   57.4420   34.5910   44.8460 C   0  0  0  0  0  0  0  0  0  0  0  0
   57.3260   33.7170   45.9650 O   0  0  0  0  0  0  0  0  0  0  0  0
   57.9970   32.4930   46.0970 C   0  0  0  0  0  0  0  0  0  0  0  0
   57.5930   31.3520   45.3770 C   0  0  0  0  0  0  0  0  0  0  0  0
   58.2490   30.1360   45.5500 C   0  0  0  0  0  0  0  0  0  0  0  0
   59.3230   30.0220   46.4420 C   0  0  0  0  0  0  0  0  0  0  0  0
   59.8920   28.7210   46.6860 N   0  0  0  0  0  0  0  0  0  0  0  0
   59.1440   27.5650   47.0860 C   0  0  0  0  0  0  0  0  0  0  0  0
   58.1520   27.6790   47.8600 O   0  0  0  0  0  0  0  0  0  0  0  0
   59.5270   26.2180   46.5420 C   0  0  0  0  0  0  0  0  0  0  0  0
   58.3370   25.3880   46.2410 N   0  0  0  0  0  0  0  0  0  0  0  0
   58.7480   24.1090   45.6320 C   0  0  0  0  0  0  0  0  0  0  0  0
   57.3930   26.1080   45.3560 C   0  0  0  0  0  0  0  0  0  0  0  0
   55.9760   25.7800   45.7470 C   0  0  0  0  0  0  0  0  0  0  0  0
   55.1810   26.7150   46.0300 O   0  0  0  0  0  0  0  0  0  0  0  0
   55.5280   24.4250   45.8970 N   0  0  0  0  0  0  0  0  0  0  0  0
   55.9240   23.3070   45.0900 C   0  0  0  0  0  0  0  0  0  0  0  0
   55.9140   23.4130   43.6870 C   0  0  0  0  0  0  0  0  0  0  0  0
   56.3100   22.3390   42.8920 C   0  0  0  0  0  0  0  0  0  0  0  0
   56.7100   21.1420   43.4860 C   0  0  0  0  0  0  0  0  0  0  0  0
   56.6940   21.0070   44.8750 C   0  0  0  0  0  0  0  0  0  0  0  0
   56.2870   22.0780   45.6970 C   0  0  0  0  0  0  0  0  0  0  0  0
   56.2530   21.9050   47.1750 C   0  0  0  0  0  0  0  0  0  0  0  0
   54.9580   21.8600   47.9290 C   0  0  0  0  0  0  0  0  0  0  0  0
   57.3280   21.8410   47.8280 O   0  0  0  0  0  0  0  0  0  0  0  0
   59.7460   31.1650   47.1450 C   0  0  0  0  0  0  0  0  0  0  0  0
   59.0930   32.3950   46.9820 C   0  0  0  0  0  0  0  0  0  0  0  0
   59.6480   33.7770   47.9530 S   0  0  0  0  0  0  0  0  0  0  0  0
   58.9370   35.0100   47.4540 O   0  0  0  0  0  0  0  0  0  0  0  0
   59.2720   33.5860   49.3980 O   0  0  0  0  0  0  0  0  0  0  0  0
   61.3850   34.0020   47.8770 N   0  0  0  0  0  0  0  0  0  0  0  0
   62.0820   33.0580   48.7680 C   0  0  0  0  0  0  0  0  0  0  0  0
   63.5980   33.2620   48.6480 C   0  0  0  0  0  0  0  0  0  0  0  0
   64.0190   33.0640   47.3100 O   0  0  0  0  0  0  0  0  0  0  0  0
   63.4000   34.0180   46.4690 C   0  0  0  0  0  0  0  0  0  0  0  0
   61.8730   33.8590   46.4940 C   0  0  0  0  0  0  0  0  0  0  0  0
   57.5790   35.6235   45.1998 H   0  0  0  0  0  0  0  0  0  0  0  0
   58.3086   34.2940   44.2371 H   0  0  0  0  0  0  0  0  0  0  0  0
   56.5279   34.5304   44.2371 H   0  0  0  0  0  0  0  0  0  0  0  0
   56.7518   31.4221   44.6717 H   0  0  0  0  0  0  0  0  0  0  0  0
   57.9201   29.2548   44.9796 H   0  0  0  0  0  0  0  0  0  0  0  0
   60.8900   28.5700   46.4040 H   0  0  0  0  0  0  0  0  0  0  0  0
   60.1061   26.3588   45.6174 H   0  0  0  0  0  0  0  0  0  0  0  0
   60.1229   25.6973   47.3060 H   0  0  0  0  0  0  0  0  0  0  0  0
   58.9812   23.3834   46.4252 H   0  0  0  0  0  0  0  0  0  0  0  0
   57.9296   23.7201   45.0083 H   0  0  0  0  0  0  0  0  0  0  0  0
   59.6398   24.2697   45.0083 H   0  0  0  0  0  0  0  0  0  0  0  0
   57.5568   27.1915   45.4518 H   0  0  0  0  0  0  0  0  0  0  0  0
   57.5634   25.7981   44.3144 H   0  0  0  0  0  0  0  0  0  0  0  0
   55.5908   24.3518   43.2135 H   0  0  0  0  0  0  0  0  0  0  0  0
   56.3071   22.4353   41.7962 H   0  0  0  0  0  0  0  0  0  0  0  0
   57.0392   20.3015   42.8574 H   0  0  0  0  0  0  0  0  0  0  0  0
   57.0020   20.0556   45.3331 H   0  0  0  0  0  0  0  0  0  0  0  0
   55.1626   21.8671   49.0098 H   0  0  0  0  0  0  0  0  0  0  0  0
   54.3494   22.7375   47.6652 H   0  0  0  0  0  0  0  0  0  0  0  0
   54.4118   20.9423   47.6652 H   0  0  0  0  0  0  0  0  0  0  0  0
   60.6016   31.0926   47.8326 H   0  0  0  0  0  0  0  0  0  0  0  0
   61.7696   33.2368   49.8074 H   0  0  0  0  0  0  0  0  0  0  0  0
   61.8278   32.0274   48.4796 H   0  0  0  0  0  0  0  0  0  0  0  0
   63.8517   34.2859   48.9599 H   0  0  0  0  0  0  0  0  0  0  0  0
   64.1082   32.5324   49.2941 H   0  0  0  0  0  0  0  0  0  0  0  0
   63.6629   35.0284   46.8154 H   0  0  0  0  0  0  0  0  0  0  0  0
   63.7536   33.8617   45.4392 H   0  0  0  0  0  0  0  0  0  0  0  0
   61.4137   34.6330   45.8616 H   0  0  0  0  0  0  0  0  0  0  0  0
   61.6025   32.8637   46.1116 H   0  0  0  0  0  0  0  0  0  0  0  0
  1  2  1  0
  2  3  1  0
  3  4  2  0
  4  5  1  0
  5  6  2  0
  6  7  1  0
  7  8  1  0
  8  9  2  0
  8 10  1  0
 10 11  1  0
 11 12  1  0
 11 13  1  0
 13 14  1  0
 14 15  2  0
 14 16  1  0
 16 17  1  0
 17 18  2  0
 18 19  1  0
 19 20  2  0
 20 21  1  0
 21 22  2  0
 22 23  1  0
 23 24  1  0
 23 25  2  0
  6 26  1  0
 26 27  2  0
 27 28  1  0
 28 29  2  0
 28 30  2  0
 28 31  1  0
 31 32  1  0
 32 33  1  0
 33 34  1  0
 34 35  1  0
 35 36  1  0
 27  3  1  0
 36 31  1  0
 22 17  1  0
  1 37  1  0
  1 38  1  0
  1 39  1  0
  4 40  1  0
  5 41  1  0
  7 42  1  0
 10 43  1  0
 10 44  1  0
 12 45  1  0
 12 46  1  0
 12 47  1  0
 13 48  1  0
 13 49  1  0
 18 50  1  0
 19 51  1  0
 20 52  1  0
 21 53  1  0
 24 54  1  0
 24 55  1  0
 24 56  1  0
 26 57  1  0
 32 58  1  0
 32 59  1  0
 33 60  1  0
 33 61  1  0
 35 62  1  0
 35 63  1  0
 36 64  1  0
 36 65  1  0
M  CHG  1  16  -1
M  END
>  <UniqueID>  (63) 
61

>  <SMILES>  (63) 
COc1ccc(NC(=O)CN(C)CC(=O)[N-]c2ccccc2C(C)=O)cc1S(=O)(=O)N1CCOCC1

>  <Energy>  (63) 
83.85607992100898

>  <Genealogy>  (63) 
COc1ccc(NC(=O)CN(C)CC(=O)[N-]c2ccccc2C(C)=O)cc1S(=O)(=O)N1CCOCC1 (protonated)
COc1ccc(NC(=O)CN(C)CC(=O)[N-]c2ccccc2C(C)=O)cc1S(=O)(=O)N1CCOCC1 (3D coordinates assigned)
COc1ccc(NC(=O)CN(C)CC(=O)[N-]c2ccccc2C(C)=O)cc1S(=O)(=O)N1CCOCC1 (nonaromatic ring conformer: 83.85607992100898 kcal/mol)

>  <smiles>  (63) 
COc1ccc(NC(=O)CN(C)CC(=O)Nc2ccccc2C(C)=O)cc1S(=O)(=O)N1CCOCC1

>  <score_type>  (63) 
oracle

>  <origin>  (63) 
adg

>  <m_score__min__energy>  (63) 
-11.07

>  <m_primary>  (63) 
energy

$$$$
63:0
     RDKit          3D

 47 51  0  0  0  0  0  0  0  0999 V2000
   55.8150   29.8680   43.0610 O   0  0  0  0  0  0  0  0  0  0  0  0
   56.3930   30.0860   44.1610 C   0  0  0  0  0  0  0  0  0  0  0  0
   56.2350   29.1660   45.2510 N   0  0  0  0  0  0  0  0  0  0  0  0
   57.2440   28.3050   45.8000 C   0  0  0  0  0  0  0  0  0  0  0  0
   57.3870   26.9690   45.3880 C   0  0  0  0  0  0  0  0  0  0  0  0
   58.3920   26.1700   45.9360 C   0  0  0  0  0  0  0  0  0  0  0  0
   59.2760   26.7000   46.8800 C   0  0  0  0  0  0  0  0  0  0  0  0
   59.1730   28.0460   47.2710 C   0  0  0  0  0  0  0  0  0  0  0  0
   60.1010   28.6210   48.2740 C   0  0  0  0  0  0  0  0  0  0  0  0
   60.9450   27.8660   48.8280 O   0  0  0  0  0  0  0  0  0  0  0  0
   60.0460   30.0470   48.6650 C   0  0  0  0  0  0  0  0  0  0  0  0
   59.1390   30.6340   49.5440 C   0  0  0  0  0  0  0  0  0  0  0  0
   59.4200   31.9460   49.7120 N   0  0  0  0  0  0  0  0  0  0  0  0
   60.5030   32.1990   48.9540 C   0  0  0  0  0  0  0  0  0  0  0  0
   61.1770   33.4180   48.7980 C   0  0  0  0  0  0  0  0  0  0  0  0
   60.7750   34.5830   49.4510 O   0  0  0  0  0  0  0  0  0  0  0  0
   62.2950   33.4460   47.9440 C   0  0  0  0  0  0  0  0  0  0  0  0
   62.7130   32.2780   47.2720 C   0  0  0  0  0  0  0  0  0  0  0  0
   62.0220   31.0680   47.4480 C   0  0  0  0  0  0  0  0  0  0  0  0
   60.9180   31.0620   48.3030 C   0  0  0  0  0  0  0  0  0  0  0  0
   58.1470   28.8380   46.7270 C   0  0  0  0  0  0  0  0  0  0  0  0
   57.1920   31.3220   44.3430 C   0  0  0  0  0  0  0  0  0  0  0  0
   57.7640   31.9730   43.2350 C   0  0  0  0  0  0  0  0  0  0  0  0
   58.5160   33.1390   43.4020 C   0  0  0  0  0  0  0  0  0  0  0  0
   58.7100   33.6760   44.6810 C   0  0  0  0  0  0  0  0  0  0  0  0
   59.4610   34.8440   44.8650 C   0  0  0  0  0  0  0  0  0  0  0  0
   59.6340   35.3520   46.1540 C   0  0  0  0  0  0  0  0  0  0  0  0
   59.0760   34.7180   47.2200 N   0  0  0  0  0  0  0  0  0  0  0  0
   58.3420   33.5820   47.0760 C   0  0  0  0  0  0  0  0  0  0  0  0
   58.1400   33.0330   45.8020 C   0  0  0  0  0  0  0  0  0  0  0  0
   57.3860   31.8620   45.6280 C   0  0  0  0  0  0  0  0  0  0  0  0
   56.7055   26.5519   44.6320 H   0  0  0  0  0  0  0  0  0  0  0  0
   58.4885   25.1197   45.6238 H   0  0  0  0  0  0  0  0  0  0  0  0
   60.0560   26.0606   47.3190 H   0  0  0  0  0  0  0  0  0  0  0  0
   58.3090   30.1037   50.0338 H   0  0  0  0  0  0  0  0  0  0  0  0
   58.8970   32.6110   50.3220 H   0  0  0  0  0  0  0  0  0  0  0  0
   60.0270   35.1670   49.1010 H   0  0  0  0  0  0  0  0  0  0  0  0
   62.8475   34.3861   47.7992 H   0  0  0  0  0  0  0  0  0  0  0  0
   63.5869   32.3153   46.6050 H   0  0  0  0  0  0  0  0  0  0  0  0
   62.3409   30.1526   46.9280 H   0  0  0  0  0  0  0  0  0  0  0  0
   58.0526   29.8901   47.0338 H   0  0  0  0  0  0  0  0  0  0  0  0
   57.6178   31.5598   42.2261 H   0  0  0  0  0  0  0  0  0  0  0  0
   58.9571   33.6368   42.5259 H   0  0  0  0  0  0  0  0  0  0  0  0
   59.9105   35.3565   44.0017 H   0  0  0  0  0  0  0  0  0  0  0  0
   60.2235   36.2679   46.3078 H   0  0  0  0  0  0  0  0  0  0  0  0
   57.9064   33.0935   47.9601 H   0  0  0  0  0  0  0  0  0  0  0  0
   56.9434   31.3627   46.5025 H   0  0  0  0  0  0  0  0  0  0  0  0
  1  2  2  0
  2  3  1  0
  3  4  1  0
  4  5  2  0
  5  6  1  0
  6  7  2  0
  7  8  1  0
  8  9  1  0
  9 10  2  0
  9 11  1  0
 11 12  2  0
 12 13  1  0
 13 14  1  0
 14 15  2  0
 15 16  1  0
 15 17  1  0
 17 18  2  0
 18 19  1  0
 19 20  2  0
  8 21  2  0
  2 22  1  0
 22 23  2  0
 23 24  1  0
 24 25  2  0
 25 26  1  0
 26 27  2  0
 27 28  1  0
 28 29  2  0
 29 30  1  0
 30 31  2  0
 21  4  1  0
 31 22  1  0
 20 11  1  0
 30 25  1  0
 20 14  1  0
  5 32  1  0
  6 33  1  0
  7 34  1  0
 12 35  1  0
 13 36  1  0
 16 37  1  0
 17 38  1  0
 18 39  1  0
 19 40  1  0
 21 41  1  0
 23 42  1  0
 24 43  1  0
 26 44  1  0
 27 45  1  0
 29 46  1  0
 31 47  1  0
M  CHG  1   3  -1
M  END
>  <UniqueID>  (64) 
62

>  <SMILES>  (64) 
O=C([N-]c1cccc(C(=O)c2c[nH]c3c(O)cccc23)c1)c1ccc2ccncc2c1

>  <Energy>  (64) 
101.04663606989229

>  <Genealogy>  (64) 
O=C([N-]c1cccc(C(=O)c2c[nH]c3c(O)cccc23)c1)c1ccc2ccncc2c1 (protonated)
O=C([N-]c1cccc(C(=O)c2c[nH]c3c(O)cccc23)c1)c1ccc2ccncc2c1 (3D coordinates assigned)
O=C([N-]c1cccc(C(=O)c2c[nH]c3c(O)cccc23)c1)c1ccc2ccncc2c1 (optimized conformer: 101.04663606989229 kcal/mol)

>  <smiles>  (64) 
O=C(Nc1cccc(C(=O)c2c[nH]c3c(O)cccc23)c1)c1ccc2ccncc2c1

>  <score_type>  (64) 
oracle

>  <origin>  (64) 
adg

>  <m_score__min__energy>  (64) 
-11.720000000000001

>  <m_primary>  (64) 
energy

$$$$
64:0
     RDKit          3D

 40 41  0  0  0  0  0  0  0  0999 V2000
   57.7720   33.5740   44.5800 C   0  0  0  0  0  0  0  0  0  0  0  0
   57.6610   33.9130   46.0630 C   0  0  0  0  0  0  0  0  0  0  0  0
   59.2890   34.0920   46.7910 S   0  0  0  0  0  0  0  0  0  0  0  0
   60.2720   34.4980   45.7170 O   0  0  0  0  0  0  0  0  0  0  0  0
   59.2720   35.1630   47.8560 O   0  0  0  0  0  0  0  0  0  0  0  0
   59.8260   32.5820   47.4620 N   0  0  0  0  0  0  0  0  0  0  0  0
   59.8900   31.3280   46.7560 C   0  0  0  0  0  0  0  0  0  0  0  0
   61.0960   30.6210   46.5740 C   0  0  0  0  0  0  0  0  0  0  0  0
   61.0950   29.3830   45.9100 C   0  0  0  0  0  0  0  0  0  0  0  0
   59.8980   28.8460   45.4170 C   0  0  0  0  0  0  0  0  0  0  0  0
   58.6930   29.5450   45.5840 C   0  0  0  0  0  0  0  0  0  0  0  0
   57.1830   28.8880   44.9500 S   0  0  0  0  0  0  0  0  0  0  0  0
   56.1640   29.9940   44.8570 O   0  0  0  0  0  0  0  0  0  0  0  0
   57.3950   28.3210   43.5710 O   0  0  0  0  0  0  0  0  0  0  0  0
   56.5620   27.6400   45.9910 N   0  0  0  0  0  0  0  0  0  0  0  0
   56.4950   26.2470   45.6480 C   0  0  0  0  0  0  0  0  0  0  0  0
   57.6480   25.5100   45.3480 C   0  0  0  0  0  0  0  0  0  0  0  0
   57.5540   24.1420   45.0650 C   0  0  0  0  0  0  0  0  0  0  0  0
   56.3080   23.5010   45.0640 C   0  0  0  0  0  0  0  0  0  0  0  0
   55.1400   24.2280   45.3370 C   0  0  0  0  0  0  0  0  0  0  0  0
   53.8210   23.5260   45.3310 C   0  0  0  0  0  0  0  0  0  0  0  0
   52.6040   24.2460   45.1000 N   0  0  0  0  0  0  0  0  0  0  0  0
   53.7590   22.2740   45.5220 O   0  0  0  0  0  0  0  0  0  0  0  0
   55.2450   25.6040   45.6480 C   0  0  0  0  0  0  0  0  0  0  0  0
   54.1110   26.3390   45.9690 O   0  0  0  0  0  0  0  0  0  0  0  0
   58.6970   30.7880   46.2460 C   0  0  0  0  0  0  0  0  0  0  0  0
   58.1125   32.5342   44.4660 H   0  0  0  0  0  0  0  0  0  0  0  0
   56.7882   33.6922   44.1022 H   0  0  0  0  0  0  0  0  0  0  0  0
   58.4953   34.2511   44.1022 H   0  0  0  0  0  0  0  0  0  0  0  0
   57.1075   34.8566   46.1780 H   0  0  0  0  0  0  0  0  0  0  0  0
   57.1306   33.0968   46.5753 H   0  0  0  0  0  0  0  0  0  0  0  0
   62.0400   31.0397   46.9528 H   0  0  0  0  0  0  0  0  0  0  0  0
   62.0380   28.8326   45.7764 H   0  0  0  0  0  0  0  0  0  0  0  0
   59.9033   27.8758   44.8987 H   0  0  0  0  0  0  0  0  0  0  0  0
   58.6292   26.0071   45.3348 H   0  0  0  0  0  0  0  0  0  0  0  0
   58.4645   23.5665   44.8419 H   0  0  0  0  0  0  0  0  0  0  0  0
   56.2457   22.4241   44.8484 H   0  0  0  0  0  0  0  0  0  0  0  0
   52.6270   25.2680   44.8640 H   0  0  0  0  0  0  0  0  0  0  0  0
   51.6840   23.7460   45.1090 H   0  0  0  0  0  0  0  0  0  0  0  0
   57.7548   31.3430   46.3653 H   0  0  0  0  0  0  0  0  0  0  0  0
  1  2  1  0
  2  3  1  0
  3  4  2  0
  3  5  2  0
  3  6  1  0
  6  7  1  0
  7  8  2  0
  8  9  1  0
  9 10  2  0
 10 11  1  0
 11 12  1  0
 12 13  2  0
 12 14  2  0
 12 15  1  0
 15 16  1  0
 16 17  2  0
 17 18  1  0
 18 19  2  0
 19 20  1  0
 20 21  1  0
 21 22  1  0
 21 23  2  0
 20 24  2  0
 24 25  1  0
 11 26  2  0
 26  7  1  0
 24 16  1  0
  1 27  1  0
  1 28  1  0
  1 29  1  0
  2 30  1  0
  2 31  1  0
  8 32  1  0
  9 33  1  0
 10 34  1  0
 17 35  1  0
 18 36  1  0
 19 37  1  0
 22 38  1  0
 22 39  1  0
 26 40  1  0
M  CHG  3   6  -1  15  -1  25  -1
M  END
>  <UniqueID>  (65) 
63

>  <SMILES>  (65) 
CCS(=O)(=O)[N-]c1cccc(S(=O)(=O)[N-]c2cccc(C(N)=O)c2[O-])c1

>  <Energy>  (65) 
46.092482429894226

>  <Genealogy>  (65) 
CCS(=O)(=O)[N-]c1cccc(S(=O)(=O)[N-]c2cccc(C(N)=O)c2[O-])c1 (protonated)
CCS(=O)(=O)[N-]c1cccc(S(=O)(=O)[N-]c2cccc(C(N)=O)c2[O-])c1 (3D coordinates assigned)
CCS(=O)(=O)[N-]c1cccc(S(=O)(=O)[N-]c2cccc(C(N)=O)c2[O-])c1 (optimized conformer: 46.092482429894226 kcal/mol)

>  <smiles>  (65) 
CCS(=O)(=O)Nc1cccc(S(=O)(=O)Nc2cccc(C(N)=O)c2O)c1

>  <score_type>  (65) 
oracle

>  <origin>  (65) 
adg

>  <m_score__min__energy>  (65) 
-14.76

>  <m_primary>  (65) 
energy

$$$$
65:0
     RDKit          3D

 76 80  0  0  0  0  0  0  0  0999 V2000
   59.7555   29.0519   43.8892 H   0  0  0  0  0  0  0  0  0  0  0  0
   59.6020   28.8180   44.9530 C   0  0  0  0  0  0  0  0  0  0  0  0
   60.4930   28.0900   45.6780 N   0  0  0  0  0  0  0  0  0  0  0  0
   60.0930   27.9420   46.9590 C   0  0  0  0  0  0  0  0  0  0  0  0
   60.8320   27.3550   47.8520 N   0  0  0  0  0  0  0  0  0  0  0  0
   60.4630   27.2130   49.2280 C   0  0  0  0  0  0  0  0  0  0  0  0
   60.0480   26.0950   49.6320 O   0  0  0  0  0  0  0  0  0  0  0  0
   60.5360   28.3560   50.1660 C   0  0  0  0  0  0  0  0  0  0  0  0
   61.6740   28.5400   50.9690 C   0  0  0  0  0  0  0  0  0  0  0  0
   62.5210   27.8434   50.8840 H   0  0  0  0  0  0  0  0  0  0  0  0
   61.7370   29.6010   51.8740 C   0  0  0  0  0  0  0  0  0  0  0  0
   62.6400   29.7484   52.4846 H   0  0  0  0  0  0  0  0  0  0  0  0
   60.6560   30.4760   52.0060 C   0  0  0  0  0  0  0  0  0  0  0  0
   60.7075   31.3078   52.7239 H   0  0  0  0  0  0  0  0  0  0  0  0
   59.5070   30.2960   51.2260 C   0  0  0  0  0  0  0  0  0  0  0  0
   58.1130   31.3530   51.4490 S   0  0  0  0  0  0  0  0  0  0  0  0
   57.6370   31.8430   50.1090 O   0  0  0  0  0  0  0  0  0  0  0  0
   58.5340   32.5440   52.2670 O   0  0  0  0  0  0  0  0  0  0  0  0
   56.8250   30.5080   52.2700 N   0  0  0  0  0  0  0  0  0  0  0  0
   55.5220   30.8630   51.6730 C   0  0  0  0  0  0  0  0  0  0  0  0
   55.5280   31.9344   51.4239 H   0  0  0  0  0  0  0  0  0  0  0  0
   55.3839   30.2408   50.7765 H   0  0  0  0  0  0  0  0  0  0  0  0
   54.3380   30.5820   52.6280 C   0  0  0  0  0  0  0  0  0  0  0  0
   54.0575   31.5215   53.1266 H   0  0  0  0  0  0  0  0  0  0  0  0
   53.5118   30.1798   52.0233 H   0  0  0  0  0  0  0  0  0  0  0  0
   54.6640   29.5790   53.6600 N   0  0  0  0  0  0  0  0  0  0  0  0
   54.7730   28.2250   53.0920 C   0  0  0  0  0  0  0  0  0  0  0  0
   54.8322   27.4890   53.9074 H   0  0  0  0  0  0  0  0  0  0  0  0
   53.8888   28.0151   52.4721 H   0  0  0  0  0  0  0  0  0  0  0  0
   55.6793   28.1593   52.4721 H   0  0  0  0  0  0  0  0  0  0  0  0
   55.8550   29.9520   54.4630 C   0  0  0  0  0  0  0  0  0  0  0  0
   55.5163   30.4966   55.3567 H   0  0  0  0  0  0  0  0  0  0  0  0
   56.3795   29.0194   54.7181 H   0  0  0  0  0  0  0  0  0  0  0  0
   56.8530   30.8400   53.7000 C   0  0  0  0  0  0  0  0  0  0  0  0
   56.5782   31.8966   53.8346 H   0  0  0  0  0  0  0  0  0  0  0  0
   57.8659   30.6665   54.0924 H   0  0  0  0  0  0  0  0  0  0  0  0
   59.4560   29.2510   50.2920 C   0  0  0  0  0  0  0  0  0  0  0  0
   58.5678   29.1298   49.6545 H   0  0  0  0  0  0  0  0  0  0  0  0
   58.6200   28.7150   47.2510 S   0  0  0  0  0  0  0  0  0  0  0  0
   58.4800   29.2450   45.6600 C   0  0  0  0  0  0  0  0  0  0  0  0
   57.4190   30.1820   45.1640 C   0  0  0  0  0  0  0  0  0  0  0  0
   56.4913   30.0022   45.7270 H   0  0  0  0  0  0  0  0  0  0  0  0
   57.2671   29.9954   44.0906 H   0  0  0  0  0  0  0  0  0  0  0  0
   57.8280   31.6190   45.3410 C   0  0  0  0  0  0  0  0  0  0  0  0
   57.5660   32.5510   44.3290 C   0  0  0  0  0  0  0  0  0  0  0  0
   57.0409   32.2345   43.4157 H   0  0  0  0  0  0  0  0  0  0  0  0
   57.9680   33.8790   44.4740 C   0  0  0  0  0  0  0  0  0  0  0  0
   57.7554   34.6064   43.6767 H   0  0  0  0  0  0  0  0  0  0  0  0
   58.6400   34.2880   45.6290 C   0  0  0  0  0  0  0  0  0  0  0  0
   58.9506   35.3377   45.7368 H   0  0  0  0  0  0  0  0  0  0  0  0
   58.9230   33.3660   46.6570 C   0  0  0  0  0  0  0  0  0  0  0  0
   59.6330   33.7690   47.9060 C   0  0  0  0  0  0  0  0  0  0  0  0
   60.0250   34.9650   48.0010 O   0  0  0  0  0  0  0  0  0  0  0  0
   59.8670   32.8300   48.9960 N   0  0  0  0  0  0  0  0  0  0  0  0
   58.9410   32.4210   49.2560 H   0  0  0  0  0  0  0  0  0  0  0  0
   60.7160   31.6730   48.6230 C   0  0  0  0  0  0  0  0  0  0  0  0
   60.3386   31.2552   47.6780 H   0  0  0  0  0  0  0  0  0  0  0  0
   60.6600   30.9517   49.4516 H   0  0  0  0  0  0  0  0  0  0  0  0
   62.2040   32.0330   48.4370 C   0  0  0  0  0  0  0  0  0  0  0  0
   62.3232   32.5762   47.4879 H   0  0  0  0  0  0  0  0  0  0  0  0
   62.7844   31.0986   48.4326 H   0  0  0  0  0  0  0  0  0  0  0  0
   62.7020   32.8760   49.5340 N   0  0  0  0  0  0  0  0  0  0  0  0
   64.1100   32.8350   49.8680 C   0  0  0  0  0  0  0  0  0  0  0  0
   64.8520   31.9470   49.3650 O   0  0  0  0  0  0  0  0  0  0  0  0
   64.7320   33.8230   50.8110 C   0  0  0  0  0  0  0  0  0  0  0  0
   64.5368   33.5129   51.8482 H   0  0  0  0  0  0  0  0  0  0  0  0
   65.8176   33.8616   50.6380 H   0  0  0  0  0  0  0  0  0  0  0  0
   64.2975   34.8186   50.6380 H   0  0  0  0  0  0  0  0  0  0  0  0
   61.8500   33.9830   49.9870 C   0  0  0  0  0  0  0  0  0  0  0  0
   61.8600   34.7804   49.2294 H   0  0  0  0  0  0  0  0  0  0  0  0
   62.2395   34.3622   50.9433 H   0  0  0  0  0  0  0  0  0  0  0  0
   60.4100   33.5040   50.1950 C   0  0  0  0  0  0  0  0  0  0  0  0
   59.7779   34.3732   50.4296 H   0  0  0  0  0  0  0  0  0  0  0  0
   60.4119   32.7762   51.0198 H   0  0  0  0  0  0  0  0  0  0  0  0
   58.5080   32.0300   46.4980 C   0  0  0  0  0  0  0  0  0  0  0  0
   58.7196   31.2982   47.2915 H   0  0  0  0  0  0  0  0  0  0  0  0
  1  2  1  0
  2  3  1  0
  3  4  1  0
  4  5  2  0
  5  6  1  0
  6  7  2  0
  6  8  1  0
  8  9  2  0
  9 10  1  0
  9 11  1  0
 11 12  1  0
 11 13  2  0
 13 14  1  0
 13 15  1  0
 15 16  1  0
 16 17  2  0
 16 18  2  0
 16 19  1  0
 19 20  1  0
 20 21  1  0
 20 22  1  0
 20 23  1  0
 23 24  1  0
 23 25  1  0
 23 26  1  0
 26 27  1  0
 27 28  1  0
 27 29  1  0
 27 30  1  0
 26 31  1  0
 31 32  1  0
 31 33  1  0
 31 34  1  0
 34 35  1  0
 34 36  1  0
 15 37  2  0
 37 38  1  0
  4 39  1  0
 39 40  1  0
 40 41  1  0
 41 42  1  0
 41 43  1  0
 41 44  1  0
 44 45  2  0
 45 46  1  0
 45 47  1  0
 47 48  1  0
 47 49  2  0
 49 50  1  0
 49 51  1  0
 51 52  1  0
 52 53  2  0
 52 54  1  0
 54 55  1  0
 54 56  1  0
 56 57  1  0
 56 58  1  0
 56 59  1  0
 59 60  1  0
 59 61  1  0
 59 62  1  0
 62 63  1  0
 63 64  2  0
 63 65  1  0
 65 66  1  0
 65 67  1  0
 65 68  1  0
 62 69  1  0
 69 70  1  0
 69 71  1  0
 69 72  1  0
 72 73  1  0
 72 74  1  0
 51 75  2  0
 75 76  1  0
 40  2  2  0
 75 44  1  0
 37  8  1  0
 72 54  1  0
 34 19  1  0
M  CHG  2   3  -1  54   1
M  END
>  <UniqueID>  (66) 
64

>  <SMILES>  (66) 
CC(=O)N1CC[NH+](C(=O)c2cccc(Cc3c[n-]/c(=N/C(=O)c4cccc(S(=O)(=O)N5CCN(C)CC5)c4)s3)c2)CC1

>  <Energy>  (66) 
134.42725564739794

>  <Genealogy>  (66) 
CC(=O)N1CC[NH+](C(=O)c2cccc(Cc3c[n-]c(=NC(=O)c4cccc(S(=O)(=O)N5CCN(C)CC5)c4)s3)c2)CC1 (protonated)
CC(=O)N1CC[NH+](C(=O)c2cccc(Cc3c[n-]/c(=N/C(=O)c4cccc(S(=O)(=O)N5CCN(C)CC5)c4)s3)c2)CC1 (cis-trans isomerization)
CC(=O)N1CC[NH+](C(=O)c2cccc(Cc3c[n-]/c(=N/C(=O)c4cccc(S(=O)(=O)N5CCN(C)CC5)c4)s3)c2)CC1 (3D coordinates assigned)
CC(=O)N1CC[NH+](C(=O)c2cccc(Cc3c[n-]/c(=N/C(=O)c4cccc(S(=O)(=O)N5CCN(C)CC5)c4)s3)c2)CC1 (nonaromatic ring conformer: 134.42725564739794 kcal/mol)

>  <smiles>  (66) 
CC(=O)N1CCN(C(=O)c2cccc(Cc3c[nH]c(=NC(=O)c4cccc(S(=O)(=O)N5CCN(C)CC5)c4)s3)c2)CC1

>  <score_type>  (66) 
oracle

>  <origin>  (66) 
adg

>  <m_score__min__energy>  (66) 
-11.24

>  <m_primary>  (66) 
energy

$$$$
66:0
     RDKit          3D

 39 41  0  0  0  0  0  0  0  0999 V2000
   55.2390   28.2650   44.8470 H   0  0  0  0  0  0  0  0  0  0  0  0
   55.1470   29.3040   44.7950 N   0  0  0  0  0  0  0  0  0  0  0  0
   56.1580   30.0580   44.5130 C   0  0  0  0  0  0  0  0  0  0  0  0
   56.2750   30.6170   43.2800 N   0  0  0  0  0  0  0  0  0  0  0  0
   57.3330   31.4120   42.9680 C   0  0  0  0  0  0  0  0  0  0  0  0
   57.4340   32.0210   41.6060 C   0  0  0  0  0  0  0  0  0  0  0  0
   57.6133   33.1022   41.7002 H   0  0  0  0  0  0  0  0  0  0  0  0
   58.2675   31.5575   41.0580 H   0  0  0  0  0  0  0  0  0  0  0  0
   56.4954   31.8513   41.0580 H   0  0  0  0  0  0  0  0  0  0  0  0
   58.3170   31.6620   43.9310 C   0  0  0  0  0  0  0  0  0  0  0  0
   59.1800   32.3025   43.6965 H   0  0  0  0  0  0  0  0  0  0  0  0
   58.1830   31.0810   45.2010 C   0  0  0  0  0  0  0  0  0  0  0  0
   59.2090   31.3070   46.2490 C   0  0  0  0  0  0  0  0  0  0  0  0
   58.9810   32.3060   47.2160 C   0  0  0  0  0  0  0  0  0  0  0  0
   58.0841   32.9380   47.1381 H   0  0  0  0  0  0  0  0  0  0  0  0
   59.8780   32.5100   48.2780 C   0  0  0  0  0  0  0  0  0  0  0  0
   59.6420   33.5650   49.2930 C   0  0  0  0  0  0  0  0  0  0  0  0
   59.4490   33.2390   50.4960 O   0  0  0  0  0  0  0  0  0  0  0  0
   59.6100   34.9500   48.9390 N   0  0  0  0  0  0  0  0  0  0  0  0
   59.6000   35.2620   47.9440 H   0  0  0  0  0  0  0  0  0  0  0  0
   59.5020   35.6740   49.6830 H   0  0  0  0  0  0  0  0  0  0  0  0
   61.0200   31.7000   48.3640 C   0  0  0  0  0  0  0  0  0  0  0  0
   61.7331   31.8484   49.1883 H   0  0  0  0  0  0  0  0  0  0  0  0
   61.2590   30.7080   47.4130 C   0  0  0  0  0  0  0  0  0  0  0  0
   62.1470   30.0659   47.5088 H   0  0  0  0  0  0  0  0  0  0  0  0
   60.3820   30.5200   46.3380 C   0  0  0  0  0  0  0  0  0  0  0  0
   60.7500   29.1990   45.1630 S   0  0  0  0  0  0  0  0  0  0  0  0
   59.3850   28.1540   45.6940 C   0  0  0  0  0  0  0  0  0  0  0  0
   58.5270   27.5640   44.7560 C   0  0  0  0  0  0  0  0  0  0  0  0
   58.6881   27.7350   43.6814 H   0  0  0  0  0  0  0  0  0  0  0  0
   57.4660   26.7580   45.1830 C   0  0  0  0  0  0  0  0  0  0  0  0
   56.7998   26.2892   44.4438 H   0  0  0  0  0  0  0  0  0  0  0  0
   57.2520   26.5480   46.5490 C   0  0  0  0  0  0  0  0  0  0  0  0
   56.4215   25.9094   46.8844 H   0  0  0  0  0  0  0  0  0  0  0  0
   58.0940   27.1500   47.4870 C   0  0  0  0  0  0  0  0  0  0  0  0
   57.9224   26.9893   48.5616 H   0  0  0  0  0  0  0  0  0  0  0  0
   59.1540   27.9560   47.0630 C   0  0  0  0  0  0  0  0  0  0  0  0
   59.8088   28.4363   47.8049 H   0  0  0  0  0  0  0  0  0  0  0  0
   57.1080   30.2910   45.4560 N   0  0  0  0  0  0  0  0  0  0  0  0
  1  2  1  0
  2  3  2  0
  3  4  1  0
  4  5  2  0
  5  6  1  0
  6  7  1  0
  6  8  1  0
  6  9  1  0
  5 10  1  0
 10 11  1  0
 10 12  2  0
 12 13  1  0
 13 14  2  0
 14 15  1  0
 14 16  1  0
 16 17  1  0
 17 18  2  0
 17 19  1  0
 19 20  1  0
 19 21  1  0
 16 22  2  0
 22 23  1  0
 22 24  1  0
 24 25  1  0
 24 26  2  0
 26 27  1  0
 27 28  1  0
 28 29  2  0
 29 30  1  0
 29 31  1  0
 31 32  1  0
 31 33  2  0
 33 34  1  0
 33 35  1  0
 35 36  1  0
 35 37  2  0
 37 38  1  0
 12 39  1  0
 39  3  1  0
 26 13  1  0
 37 28  1  0
M  CHG  1  39  -1
M  END
>  <UniqueID>  (67) 
65

>  <SMILES>  (67) 
[H]/N=c1\nc(C)cc(-c2cc(C(N)=O)ccc2Sc2ccccc2)[n-]1

>  <Energy>  (67) 
45.763001930483696

>  <Genealogy>  (67) 
Cc1cc(-c2cc(C(N)=O)ccc2Sc2ccccc2)[n-]c(=N)n1 (protonated)
[H]/N=c1\nc(C)cc(-c2cc(C(N)=O)ccc2Sc2ccccc2)[n-]1 (cis-trans isomerization)
[H]/N=c1\nc(C)cc(-c2cc(C(N)=O)ccc2Sc2ccccc2)[n-]1 (3D coordinates assigned)
[H]/N=c1\nc(C)cc(-c2cc(C(N)=O)ccc2Sc2ccccc2)[n-]1 (optimized conformer: 45.763001930483696 kcal/mol)

>  <smiles>  (67) 
Cc1cc(-c2cc(C(N)=O)ccc2Sc2ccccc2)[nH]c(=N)n1

>  <score_type>  (67) 
oracle

>  <origin>  (67) 
adg

>  <m_score__min__energy>  (67) 
-9.7899999999999991

>  <m_primary>  (67) 
energy

$$$$
67:0
     RDKit          3D

 68 70  0  0  0  0  0  0  0  0999 V2000
   56.9550   30.0430   44.7170 C   0  0  0  0  0  0  0  0  0  0  0  0
   58.4680   29.9170   44.6070 C   0  0  0  0  0  0  0  0  0  0  0  0
   59.1040   29.8530   45.9700 C   0  0  0  0  0  0  0  0  0  0  0  0
   60.4180   30.3060   46.1590 C   0  0  0  0  0  0  0  0  0  0  0  0
   61.0300   30.2000   47.4120 C   0  0  0  0  0  0  0  0  0  0  0  0
   60.3350   29.6410   48.5070 C   0  0  0  0  0  0  0  0  0  0  0  0
   60.9980   29.3960   49.8270 C   0  0  0  0  0  0  0  0  0  0  0  0
   61.0730   28.2090   50.2560 O   0  0  0  0  0  0  0  0  0  0  0  0
   61.5840   30.4730   50.6120 N   0  0  2  0  0  0  0  0  0  0  0  0
   63.0870   30.4180   50.7100 C   0  0  0  0  0  0  0  0  0  0  0  0
   63.8260   31.7450   51.0410 C   0  0  0  0  0  0  0  0  0  0  0  0
   64.4550   32.3730   49.8580 N   0  0  0  0  0  0  0  0  0  0  0  0
   65.8840   32.7100   49.9000 C   0  0  0  0  0  0  0  0  0  0  0  0
   63.6340   32.8730   48.7710 C   0  0  0  0  0  0  0  0  0  0  0  0
   63.7380   32.3600   47.6190 O   0  0  0  0  0  0  0  0  0  0  0  0
   62.5910   33.9490   48.9930 C   0  0  0  0  0  0  0  0  0  0  0  0
   61.4150   33.7720   48.0660 C   0  0  0  0  0  0  0  0  0  0  0  0
   61.5080   34.1430   46.7170 C   0  0  0  0  0  0  0  0  0  0  0  0
   60.3960   34.0350   45.8780 C   0  0  0  0  0  0  0  0  0  0  0  0
   59.1670   33.5710   46.3750 C   0  0  0  0  0  0  0  0  0  0  0  0
   57.9810   33.4820   45.4500 C   0  0  0  0  0  0  0  0  0  0  0  0
   59.0620   33.2080   47.7390 C   0  0  0  0  0  0  0  0  0  0  0  0
   57.7630   32.7160   48.3220 C   0  0  0  0  0  0  0  0  0  0  0  0
   60.1950   33.2960   48.5660 C   0  0  0  0  0  0  0  0  0  0  0  0
   60.9580   30.4990   51.9650 C   0  0  0  0  0  0  0  0  0  0  0  0
   59.5830   31.1310   51.9480 C   0  0  0  0  0  0  0  0  0  0  0  0
   59.4450   32.5280   52.0680 C   0  0  0  0  0  0  0  0  0  0  0  0
   58.1770   33.1200   52.0270 C   0  0  0  0  0  0  0  0  0  0  0  0
   57.0410   32.3220   51.8700 C   0  0  0  0  0  0  0  0  0  0  0  0
   57.1680   30.9310   51.7640 C   0  0  0  0  0  0  0  0  0  0  0  0
   58.4360   30.3390   51.7950 C   0  0  0  0  0  0  0  0  0  0  0  0
   58.9910   29.2570   48.3230 C   0  0  0  0  0  0  0  0  0  0  0  0
   58.3860   29.3540   47.0690 C   0  0  0  0  0  0  0  0  0  0  0  0
   56.6652   30.0671   45.7779 H   0  0  0  0  0  0  0  0  0  0  0  0
   56.6277   30.9715   44.2263 H   0  0  0  0  0  0  0  0  0  0  0  0
   56.4787   29.1814   44.2263 H   0  0  0  0  0  0  0  0  0  0  0  0
   58.7133   28.9995   44.0521 H   0  0  0  0  0  0  0  0  0  0  0  0
   58.8561   30.8011   44.0801 H   0  0  0  0  0  0  0  0  0  0  0  0
   60.9705   30.7474   45.3164 H   0  0  0  0  0  0  0  0  0  0  0  0
   62.0624   30.5554   47.5459 H   0  0  0  0  0  0  0  0  0  0  0  0
   61.3130   31.3810   50.1560 H   0  0  0  0  0  0  0  0  0  0  0  0
   63.3411   29.6925   51.4968 H   0  0  0  0  0  0  0  0  0  0  0  0
   63.4275   30.1481   49.6995 H   0  0  0  0  0  0  0  0  0  0  0  0
   63.0998   32.4525   51.4677 H   0  0  0  0  0  0  0  0  0  0  0  0
   64.6318   31.5023   51.7493 H   0  0  0  0  0  0  0  0  0  0  0  0
   66.2119   32.7873   50.9472 H   0  0  0  0  0  0  0  0  0  0  0  0
   66.4613   31.9234   49.3922 H   0  0  0  0  0  0  0  0  0  0  0  0
   66.0490   33.6717   49.3922 H   0  0  0  0  0  0  0  0  0  0  0  0
   62.2381   33.8966   50.0335 H   0  0  0  0  0  0  0  0  0  0  0  0
   63.0514   34.9265   48.7868 H   0  0  0  0  0  0  0  0  0  0  0  0
   62.4607   34.5208   46.3175 H   0  0  0  0  0  0  0  0  0  0  0  0
   60.4839   34.3160   44.8181 H   0  0  0  0  0  0  0  0  0  0  0  0
   57.0575   33.4127   46.0435 H   0  0  0  0  0  0  0  0  0  0  0  0
   57.9426   34.3798   44.8156 H   0  0  0  0  0  0  0  0  0  0  0  0
   58.0770   32.5885   44.8156 H   0  0  0  0  0  0  0  0  0  0  0  0
   57.8222   32.7384   49.4202 H   0  0  0  0  0  0  0  0  0  0  0  0
   56.9410   33.3651   47.9858 H   0  0  0  0  0  0  0  0  0  0  0  0
   57.5773   31.6852   47.9858 H   0  0  0  0  0  0  0  0  0  0  0  0
   60.1235   32.9873   49.6194 H   0  0  0  0  0  0  0  0  0  0  0  0
   60.8685   29.4665   52.3336 H   0  0  0  0  0  0  0  0  0  0  0  0
   61.5995   31.1050   52.6217 H   0  0  0  0  0  0  0  0  0  0  0  0
   60.3385   33.1570   52.1946 H   0  0  0  0  0  0  0  0  0  0  0  0
   58.0753   34.2115   52.1182 H   0  0  0  0  0  0  0  0  0  0  0  0
   56.0449   32.7869   51.8295 H   0  0  0  0  0  0  0  0  0  0  0  0
   56.2709   30.3037   51.6564 H   0  0  0  0  0  0  0  0  0  0  0  0
   58.5331   29.2475   51.6989 H   0  0  0  0  0  0  0  0  0  0  0  0
   58.4125   28.8765   49.1777 H   0  0  0  0  0  0  0  0  0  0  0  0
   57.3403   29.0376   46.9407 H   0  0  0  0  0  0  0  0  0  0  0  0
  1  2  1  0
  2  3  1  0
  3  4  2  0
  4  5  1  0
  5  6  2  0
  6  7  1  0
  7  8  2  0
  7  9  1  0
  9 10  1  0
 10 11  1  0
 11 12  1  0
 12 13  1  0
 12 14  1  0
 14 15  2  0
 14 16  1  0
 16 17  1  0
 17 18  2  0
 18 19  1  0
 19 20  2  0
 20 21  1  0
 20 22  1  0
 22 23  1  0
 22 24  2  0
  9 25  1  0
 25 26  1  0
 26 27  2  0
 27 28  1  0
 28 29  2  0
 29 30  1  0
 30 31  2  0
  6 32  1  0
 32 33  2  0
 33  3  1  0
 24 17  1  0
 31 26  1  0
  1 34  1  0
  1 35  1  0
  1 36  1  0
  2 37  1  0
  2 38  1  0
  4 39  1  0
  5 40  1  0
  9 41  1  6
 10 42  1  0
 10 43  1  0
 11 44  1  0
 11 45  1  0
 13 46  1  0
 13 47  1  0
 13 48  1  0
 16 49  1  0
 16 50  1  0
 18 51  1  0
 19 52  1  0
 21 53  1  0
 21 54  1  0
 21 55  1  0
 23 56  1  0
 23 57  1  0
 23 58  1  0
 24 59  1  0
 25 60  1  0
 25 61  1  0
 27 62  1  0
 28 63  1  0
 29 64  1  0
 30 65  1  0
 31 66  1  0
 32 67  1  0
 33 68  1  0
M  CHG  1   9   1
M  END
>  <UniqueID>  (68) 
66

>  <SMILES>  (68) 
CCc1ccc(C(=O)[N@H+](CCN(C)C(=O)Cc2ccc(C)c(C)c2)Cc2ccccc2)cc1

>  <Energy>  (68) 
76.73736724445642

>  <Genealogy>  (68) 
CCc1ccc(C(=O)[NH+](CCN(C)C(=O)Cc2ccc(C)c(C)c2)Cc2ccccc2)cc1 (protonated)
CCc1ccc(C(=O)[N@H+](CCN(C)C(=O)Cc2ccc(C)c(C)c2)Cc2ccccc2)cc1 (chirality)
CCc1ccc(C(=O)[N@H+](CCN(C)C(=O)Cc2ccc(C)c(C)c2)Cc2ccccc2)cc1 (3D coordinates assigned)
CCc1ccc(C(=O)[N@H+](CCN(C)C(=O)Cc2ccc(C)c(C)c2)Cc2ccccc2)cc1 (optimized conformer: 76.73736724445642 kcal/mol)

>  <smiles>  (68) 
CCc1ccc(C(=O)N(CCN(C)C(=O)Cc2ccc(C)c(C)c2)Cc2ccccc2)cc1

>  <score_type>  (68) 
oracle

>  <origin>  (68) 
adg

>  <m_score__min__energy>  (68) 
-7.3499999999999996

>  <m_primary>  (68) 
energy

$$$$
68:0
     RDKit          3D

 40 41  0  0  0  0  0  0  0  0999 V2000
   55.6820   24.1810   44.4960 C   0  0  0  0  0  0  0  0  0  0  0  0
   54.7780   24.6730   45.6200 C   0  0  0  0  0  0  0  0  0  0  0  0
   55.2000   25.9560   46.0840 O   0  0  0  0  0  0  0  0  0  0  0  0
   56.5160   26.4520   46.0430 C   0  0  0  0  0  0  0  0  0  0  0  0
   57.6310   25.6670   46.3970 C   0  0  0  0  0  0  0  0  0  0  0  0
   58.9200   26.1990   46.3300 C   0  0  0  0  0  0  0  0  0  0  0  0
   59.1130   27.5100   45.8980 C   0  0  0  0  0  0  0  0  0  0  0  0
   58.0180   28.2990   45.5410 C   0  0  0  0  0  0  0  0  0  0  0  0
   56.7120   27.7830   45.6290 C   0  0  0  0  0  0  0  0  0  0  0  0
   55.5680   28.5610   45.2460 N   0  0  0  0  0  0  0  0  0  0  0  0
   55.5670   29.7390   44.4280 C   0  0  0  0  0  0  0  0  0  0  0  0
   54.9990   29.7390   43.3050 O   0  0  0  0  0  0  0  0  0  0  0  0
   56.2660   30.9100   44.8530 N   0  0  0  0  0  0  0  0  0  0  0  0
   57.3570   31.5210   44.0980 C   0  0  0  0  0  0  0  0  0  0  0  0
   58.6820   31.4230   44.8600 C   0  0  0  0  0  0  0  0  0  0  0  0
   58.4900   31.8560   46.6290 S   0  0  0  0  0  0  0  0  0  0  0  0
   60.2270   32.2430   46.9000 C   0  0  0  0  0  0  0  0  0  0  0  0
   61.0920   31.2230   47.3180 C   0  0  0  0  0  0  0  0  0  0  0  0
   62.4470   31.4900   47.5280 C   0  0  0  0  0  0  0  0  0  0  0  0
   62.9480   32.7760   47.3130 C   0  0  0  0  0  0  0  0  0  0  0  0
   62.0950   33.7960   46.8820 C   0  0  0  0  0  0  0  0  0  0  0  0
   60.7350   33.5360   46.6690 C   0  0  0  0  0  0  0  0  0  0  0  0
   59.6150   34.9700   46.0670 Br  0  0  0  0  0  0  0  0  0  0  0  0
   56.5713   23.6970   44.9260 H   0  0  0  0  0  0  0  0  0  0  0  0
   55.1342   23.4566   43.8754 H   0  0  0  0  0  0  0  0  0  0  0  0
   55.9929   25.0343   43.8754 H   0  0  0  0  0  0  0  0  0  0  0  0
   53.7457   24.7457   45.2471 H   0  0  0  0  0  0  0  0  0  0  0  0
   54.8334   23.9596   46.4555 H   0  0  0  0  0  0  0  0  0  0  0  0
   57.4850   24.6283   46.7283 H   0  0  0  0  0  0  0  0  0  0  0  0
   59.7843   25.5828   46.6185 H   0  0  0  0  0  0  0  0  0  0  0  0
   60.1304   27.9239   45.8382 H   0  0  0  0  0  0  0  0  0  0  0  0
   58.1770   29.3290   45.1892 H   0  0  0  0  0  0  0  0  0  0  0  0
   57.4592   31.0033   43.1329 H   0  0  0  0  0  0  0  0  0  0  0  0
   57.1214   32.5845   43.9451 H   0  0  0  0  0  0  0  0  0  0  0  0
   59.0590   30.3923   44.7856 H   0  0  0  0  0  0  0  0  0  0  0  0
   59.3864   32.1379   44.4098 H   0  0  0  0  0  0  0  0  0  0  0  0
   60.7023   30.2074   47.4815 H   0  0  0  0  0  0  0  0  0  0  0  0
   63.1199   30.6869   47.8629 H   0  0  0  0  0  0  0  0  0  0  0  0
   64.0143   32.9861   47.4829 H   0  0  0  0  0  0  0  0  0  0  0  0
   62.4931   34.8068   46.7094 H   0  0  0  0  0  0  0  0  0  0  0  0
  1  2  1  0
  2  3  1  0
  3  4  1  0
  4  5  2  0
  5  6  1  0
  6  7  2  0
  7  8  1  0
  8  9  2  0
  9 10  1  0
 10 11  1  0
 11 12  2  0
 11 13  1  0
 13 14  1  0
 14 15  1  0
 15 16  1  0
 16 17  1  0
 17 18  2  0
 18 19  1  0
 19 20  2  0
 20 21  1  0
 21 22  2  0
 22 23  1  0
  9  4  1  0
 22 17  1  0
  1 24  1  0
  1 25  1  0
  1 26  1  0
  2 27  1  0
  2 28  1  0
  5 29  1  0
  6 30  1  0
  7 31  1  0
  8 32  1  0
 14 33  1  0
 14 34  1  0
 15 35  1  0
 15 36  1  0
 18 37  1  0
 19 38  1  0
 20 39  1  0
 21 40  1  0
M  CHG  2  10  -1  13  -1
M  END
>  <UniqueID>  (69) 
67

>  <SMILES>  (69) 
CCOc1ccccc1[N-]C(=O)[N-]CCSc1ccccc1Br

>  <Energy>  (69) 
35.384095805283856

>  <Genealogy>  (69) 
CCOc1ccccc1[N-]C(=O)[N-]CCSc1ccccc1Br (protonated)
CCOc1ccccc1[N-]C(=O)[N-]CCSc1ccccc1Br (3D coordinates assigned)
CCOc1ccccc1[N-]C(=O)[N-]CCSc1ccccc1Br (optimized conformer: 35.384095805283856 kcal/mol)

>  <smiles>  (69) 
CCOc1ccccc1NC(=O)NCCSc1ccccc1Br

>  <score_type>  (69) 
oracle

>  <origin>  (69) 
adg

>  <m_score__min__energy>  (69) 
-11.92

>  <m_primary>  (69) 
energy

$$$$
69:0
     RDKit          3D

 55 57  0  0  0  0  0  0  0  0999 V2000
   58.5580   30.1900   44.2220 C   0  0  0  0  0  0  0  0  0  0  0  0
   57.1990   30.8370   43.8900 C   0  0  0  0  0  0  0  0  0  0  0  0
   57.3270   31.6070   42.5670 C   0  0  0  0  0  0  0  0  0  0  0  0
   56.1090   29.7600   43.7360 C   0  0  0  0  0  0  0  0  0  0  0  0
   56.8320   31.7870   44.9020 O   0  0  0  0  0  0  0  0  0  0  0  0
   57.3930   33.0580   45.0910 C   0  0  0  0  0  0  0  0  0  0  0  0
   57.4390   33.8940   44.1480 O   0  0  0  0  0  0  0  0  0  0  0  0
   57.9630   33.3720   46.3670 N   0  0  0  0  0  0  0  0  0  0  0  0
   58.8200   32.5290   47.1510 C   0  0  0  0  0  0  0  0  0  0  0  0
   59.9430   33.0330   47.8320 C   0  0  0  0  0  0  0  0  0  0  0  0
   60.7350   32.1820   48.6070 C   0  0  0  0  0  0  0  0  0  0  0  0
   60.4130   30.8270   48.7180 C   0  0  0  0  0  0  0  0  0  0  0  0
   59.2890   30.3120   48.0530 C   0  0  0  0  0  0  0  0  0  0  0  0
   58.9120   28.8630   48.2020 C   0  0  0  0  0  0  0  0  0  0  0  0
   58.6670   28.2410   46.8530 C   0  0  0  0  0  0  0  0  0  0  0  0
   59.6120   28.1820   46.0220 O   0  0  0  0  0  0  0  0  0  0  0  0
   57.4040   27.6590   46.5060 N   0  0  0  0  0  0  0  0  0  0  0  0
   57.1760   26.3020   46.1020 C   0  0  0  0  0  0  0  0  0  0  0  0
   58.2410   25.4010   45.9330 C   0  0  0  0  0  0  0  0  0  0  0  0
   57.9930   24.0750   45.5720 C   0  0  0  0  0  0  0  0  0  0  0  0
   56.6770   23.6250   45.3840 C   0  0  0  0  0  0  0  0  0  0  0  0
   56.4030   22.1890   45.0310 C   0  0  0  0  0  0  0  0  0  0  0  0
   55.4660   21.6020   45.9930 N   0  0  0  0  0  0  0  0  0  0  0  0
   54.2020   21.3990   45.6100 N   0  0  0  0  0  0  0  0  0  0  0  0
   53.2730   20.8870   46.4570 C   0  0  0  0  0  0  0  0  0  0  0  0
   52.0920   20.7040   46.0620 O   0  0  0  0  0  0  0  0  0  0  0  0
   53.6540   20.5740   47.7610 C   0  0  0  0  0  0  0  0  0  0  0  0
   52.8250   20.0960   48.5800 O   0  0  0  0  0  0  0  0  0  0  0  0
   54.9360   20.7920   48.1450 N   0  0  0  0  0  0  0  0  0  0  0  0
   55.8450   21.3060   47.2770 C   0  0  0  0  0  0  0  0  0  0  0  0
   57.0280   21.5030   47.6660 O   0  0  0  0  0  0  0  0  0  0  0  0
   55.6120   24.5150   45.5900 C   0  0  0  0  0  0  0  0  0  0  0  0
   55.8590   25.8440   45.9520 C   0  0  0  0  0  0  0  0  0  0  0  0
   54.7900   26.7100   46.1550 O   0  0  0  0  0  0  0  0  0  0  0  0
   58.4870   31.1750   47.2860 C   0  0  0  0  0  0  0  0  0  0  0  0
   58.6796   30.1321   45.3137 H   0  0  0  0  0  0  0  0  0  0  0  0
   58.5961   29.1771   43.7946 H   0  0  0  0  0  0  0  0  0  0  0  0
   59.3682   30.7990   43.7946 H   0  0  0  0  0  0  0  0  0  0  0  0
   57.5040   32.6719   42.7782 H   0  0  0  0  0  0  0  0  0  0  0  0
   58.1703   31.2030   41.9877 H   0  0  0  0  0  0  0  0  0  0  0  0
   56.3983   31.4975   41.9877 H   0  0  0  0  0  0  0  0  0  0  0  0
   55.7757   29.4307   44.7312 H   0  0  0  0  0  0  0  0  0  0  0  0
   55.2551   30.1789   43.1834 H   0  0  0  0  0  0  0  0  0  0  0  0
   56.5176   28.9011   43.1834 H   0  0  0  0  0  0  0  0  0  0  0  0
   60.1983   34.1001   47.7541 H   0  0  0  0  0  0  0  0  0  0  0  0
   61.6157   32.5805   49.1319 H   0  0  0  0  0  0  0  0  0  0  0  0
   61.0419   30.1619   49.3281 H   0  0  0  0  0  0  0  0  0  0  0  0
   59.7296   28.3260   48.7052 H   0  0  0  0  0  0  0  0  0  0  0  0
   57.9902   28.7945   48.7983 H   0  0  0  0  0  0  0  0  0  0  0  0
   59.2756   25.7420   46.0859 H   0  0  0  0  0  0  0  0  0  0  0  0
   58.8338   23.3793   45.4342 H   0  0  0  0  0  0  0  0  0  0  0  0
   55.9670   22.1395   44.0223 H   0  0  0  0  0  0  0  0  0  0  0  0
   57.3473   21.6255   45.0596 H   0  0  0  0  0  0  0  0  0  0  0  0
   54.5763   24.1658   45.4662 H   0  0  0  0  0  0  0  0  0  0  0  0
   57.5887   30.7830   46.7867 H   0  0  0  0  0  0  0  0  0  0  0  0
  1  2  1  0
  2  3  1  0
  2  4  1  0
  2  5  1  0
  5  6  1  0
  6  7  2  0
  6  8  1  0
  8  9  1  0
  9 10  2  0
 10 11  1  0
 11 12  2  0
 12 13  1  0
 13 14  1  0
 14 15  1  0
 15 16  2  0
 15 17  1  0
 17 18  1  0
 18 19  2  0
 19 20  1  0
 20 21  2  0
 21 22  1  0
 22 23  1  0
 23 24  1  0
 24 25  1  0
 25 26  2  0
 25 27  1  0
 27 28  2  0
 27 29  1  0
 29 30  1  0
 30 31  2  0
 21 32  1  0
 32 33  2  0
 33 34  1  0
 13 35  2  0
 35  9  1  0
 33 18  1  0
 30 23  1  0
  1 36  1  0
  1 37  1  0
  1 38  1  0
  3 39  1  0
  3 40  1  0
  3 41  1  0
  4 42  1  0
  4 43  1  0
  4 44  1  0
 10 45  1  0
 11 46  1  0
 12 47  1  0
 14 48  1  0
 14 49  1  0
 19 50  1  0
 20 51  1  0
 22 52  1  0
 22 53  1  0
 32 54  1  0
 35 55  1  0
M  CHG  5   8  -1  17  -1  24  -1  29  -1  34  -1
M  END
>  <UniqueID>  (70) 
68

>  <SMILES>  (70) 
CC(C)(C)OC(=O)[N-]c1cccc(CC(=O)[N-]c2ccc(Cn3[n-]c(=O)c(=O)[n-]c3=O)cc2[O-])c1

>  <Energy>  (70) 
62.64101687320162

>  <Genealogy>  (70) 
CC(C)(C)OC(=O)[N-]c1cccc(CC(=O)[N-]c2ccc(Cn3[n-]c(=O)c(=O)[n-]c3=O)cc2[O-])c1 (protonated)
CC(C)(C)OC(=O)[N-]c1cccc(CC(=O)[N-]c2ccc(Cn3[n-]c(=O)c(=O)[n-]c3=O)cc2[O-])c1 (3D coordinates assigned)
CC(C)(C)OC(=O)[N-]c1cccc(CC(=O)[N-]c2ccc(Cn3[n-]c(=O)c(=O)[n-]c3=O)cc2[O-])c1 (optimized conformer: 62.64101687320162 kcal/mol)

>  <smiles>  (70) 
CC(C)(C)OC(=O)Nc1cccc(CC(=O)Nc2ccc(Cn3[nH]c(=O)c(=O)[nH]c3=O)cc2O)c1

>  <score_type>  (70) 
oracle

>  <origin>  (70) 
adg

>  <m_score__min__energy>  (70) 
-17.27

>  <m_primary>  (70) 
energy

$$$$
70:0
     RDKit          3D

 45 47  0  0  0  0  0  0  0  0999 V2000
   64.0770   30.4360   50.8760 N   0  0  0  0  0  0  0  0  0  0  0  0
   63.0340   31.2100   50.2890 C   0  0  0  0  0  0  0  0  0  0  0  0
   61.9260   31.3120   50.8820 O   0  0  0  0  0  0  0  0  0  0  0  0
   63.2700   31.8940   49.0520 N   0  0  0  0  0  0  0  0  0  0  0  0
   62.2490   32.5930   48.3220 C   0  0  0  0  0  0  0  0  0  0  0  0
   60.9870   32.7700   48.9090 C   0  0  0  0  0  0  0  0  0  0  0  0
   59.9800   33.4600   48.2280 C   0  0  0  0  0  0  0  0  0  0  0  0
   60.2300   33.9950   46.9600 C   0  0  0  0  0  0  0  0  0  0  0  0
   58.9430   34.8920   46.0940 S   0  0  0  0  0  0  0  0  0  0  0  0
   58.4450   33.4490   45.1540 C   0  0  0  0  0  0  0  0  0  0  0  0
   58.5530   33.4490   43.7590 C   0  0  0  0  0  0  0  0  0  0  0  0
   58.1550   32.3280   43.0270 C   0  0  0  0  0  0  0  0  0  0  0  0
   57.6580   31.2010   43.6870 C   0  0  0  0  0  0  0  0  0  0  0  0
   57.5680   31.1790   45.0850 C   0  0  0  0  0  0  0  0  0  0  0  0
   57.0350   30.0100   45.7220 N   0  0  0  0  0  0  0  0  0  0  0  0
   56.0830   29.0950   45.1660 C   0  0  0  0  0  0  0  0  0  0  0  0
   55.2230   29.4900   44.3340 O   0  0  0  0  0  0  0  0  0  0  0  0
   56.0670   27.7290   45.5870 N   0  0  0  0  0  0  0  0  0  0  0  0
   57.2490   26.8730   45.5900 C   0  0  0  0  0  0  0  0  0  0  0  0
   58.4920   27.6960   45.7910 C   0  0  0  0  0  0  0  0  0  0  0  0
   59.2590   28.0940   44.6840 C   0  0  0  0  0  0  0  0  0  0  0  0
   60.4010   28.8800   44.8630 C   0  0  0  0  0  0  0  0  0  0  0  0
   60.7840   29.2770   46.1480 C   0  0  0  0  0  0  0  0  0  0  0  0
   60.0240   28.8870   47.2550 C   0  0  0  0  0  0  0  0  0  0  0  0
   58.8820   28.1000   47.0800 C   0  0  0  0  0  0  0  0  0  0  0  0
   57.9420   32.3210   45.8170 C   0  0  0  0  0  0  0  0  0  0  0  0
   61.4920   33.8420   46.3760 C   0  0  0  0  0  0  0  0  0  0  0  0
   62.5030   33.1530   47.0550 C   0  0  0  0  0  0  0  0  0  0  0  0
   63.7380   33.0810   46.4970 F   0  0  0  0  0  0  0  0  0  0  0  0
   65.0630   30.5300   50.5500 H   0  0  0  0  0  0  0  0  0  0  0  0
   64.2610   32.0030   48.7400 H   0  0  0  0  0  0  0  0  0  0  0  0
   60.7888   32.3632   49.9116 H   0  0  0  0  0  0  0  0  0  0  0  0
   58.9893   33.5825   48.6900 H   0  0  0  0  0  0  0  0  0  0  0  0
   58.9516   34.3323   43.2385 H   0  0  0  0  0  0  0  0  0  0  0  0
   58.2329   32.3323   41.9298 H   0  0  0  0  0  0  0  0  0  0  0  0
   57.3352   30.3252   43.1050 H   0  0  0  0  0  0  0  0  0  0  0  0
   57.1637   26.1401   46.4059 H   0  0  0  0  0  0  0  0  0  0  0  0
   57.3168   26.3549   44.6220 H   0  0  0  0  0  0  0  0  0  0  0  0
   58.9597   27.7858   43.6713 H   0  0  0  0  0  0  0  0  0  0  0  0
   60.9990   29.1866   43.9921 H   0  0  0  0  0  0  0  0  0  0  0  0
   61.6827   29.8958   46.2879 H   0  0  0  0  0  0  0  0  0  0  0  0
   60.3253   29.2001   48.2655 H   0  0  0  0  0  0  0  0  0  0  0  0
   58.2866   27.7958   47.9535 H   0  0  0  0  0  0  0  0  0  0  0  0
   57.8394   32.3286   46.9122 H   0  0  0  0  0  0  0  0  0  0  0  0
   61.6901   34.2646   45.3799 H   0  0  0  0  0  0  0  0  0  0  0  0
  1  2  1  0
  2  3  2  0
  2  4  1  0
  4  5  1  0
  5  6  2  0
  6  7  1  0
  7  8  2  0
  8  9  1  0
  9 10  1  0
 10 11  2  0
 11 12  1  0
 12 13  2  0
 13 14  1  0
 14 15  1  0
 15 16  1  0
 16 17  2  0
 16 18  1  0
 18 19  1  0
 19 20  1  0
 20 21  2  0
 21 22  1  0
 22 23  2  0
 23 24  1  0
 24 25  2  0
 14 26  2  0
  8 27  1  0
 27 28  2  0
 28 29  1  0
 28  5  1  0
 26 10  1  0
 25 20  1  0
  1 30  1  0
  4 31  1  0
  6 32  1  0
  7 33  1  0
 11 34  1  0
 12 35  1  0
 13 36  1  0
 19 37  1  0
 19 38  1  0
 21 39  1  0
 22 40  1  0
 23 41  1  0
 24 42  1  0
 25 43  1  0
 26 44  1  0
 27 45  1  0
M  CHG  3   1  -1  15  -1  18  -1
M  END
>  <UniqueID>  (71) 
69

>  <SMILES>  (71) 
[NH-]C(=O)Nc1ccc(Sc2cccc([N-]C(=O)[N-]Cc3ccccc3)c2)cc1F

>  <Energy>  (71) 
46.42000007269181

>  <Genealogy>  (71) 
[NH-]C(=O)Nc1ccc(Sc2cccc([N-]C(=O)[N-]Cc3ccccc3)c2)cc1F (protonated)
[NH-]C(=O)Nc1ccc(Sc2cccc([N-]C(=O)[N-]Cc3ccccc3)c2)cc1F (3D coordinates assigned)
[NH-]C(=O)Nc1ccc(Sc2cccc([N-]C(=O)[N-]Cc3ccccc3)c2)cc1F (optimized conformer: 46.42000007269181 kcal/mol)

>  <smiles>  (71) 
NC(=O)Nc1ccc(Sc2cccc(NC(=O)NCc3ccccc3)c2)cc1F

>  <score_type>  (71) 
oracle

>  <origin>  (71) 
adg

>  <m_score__min__energy>  (71) 
-12.970000000000001

>  <m_primary>  (71) 
energy

$$$$
71:0
     RDKit          3D

 39 41  0  0  0  0  0  0  0  0999 V2000
   58.4140   30.5540   43.8990 C   0  0  0  0  0  0  0  0  0  0  0  0
   56.6610   30.5890   44.2130 S   0  0  0  0  0  0  0  0  0  0  0  0
   56.2610   31.8980   44.8320 O   0  0  0  0  0  0  0  0  0  0  0  0
   55.9490   30.4350   42.8990 O   0  0  0  0  0  0  0  0  0  0  0  0
   56.2060   29.2700   45.2450 N   0  0  0  0  0  0  0  0  0  0  0  0
   57.0280   28.1530   45.6120 C   0  0  0  0  0  0  0  0  0  0  0  0
   58.4170   28.3170   45.5470 C   0  0  0  0  0  0  0  0  0  0  0  0
   59.2730   27.2760   45.9080 C   0  0  0  0  0  0  0  0  0  0  0  0
   58.7510   26.0510   46.3220 C   0  0  0  0  0  0  0  0  0  0  0  0
   57.3640   25.8510   46.3570 C   0  0  0  0  0  0  0  0  0  0  0  0
   56.7130   24.2870   46.8530 S   0  0  0  0  0  0  0  0  0  0  0  0
   57.7720   23.5360   47.6090 O   0  0  0  0  0  0  0  0  0  0  0  0
   55.5300   24.4870   47.7590 O   0  0  0  0  0  0  0  0  0  0  0  0
   56.2050   23.3650   45.4620 N   0  0  0  0  0  0  0  0  0  0  0  0
   55.8540   24.0490   44.2120 C   0  0  0  0  0  0  0  0  0  0  0  0
   56.5610   23.3650   43.0400 C   0  0  0  0  0  0  0  0  0  0  0  0
   56.2900   21.9630   43.0500 O   0  0  0  0  0  0  0  0  0  0  0  0
   56.2050   21.2380   44.2460 C   0  0  0  0  0  0  0  0  0  0  0  0
   56.1390   19.8410   44.2110 C   0  0  0  0  0  0  0  0  0  0  0  0
   56.0470   19.1160   45.4020 C   0  0  0  0  0  0  0  0  0  0  0  0
   56.0120   19.7850   46.6280 C   0  0  0  0  0  0  0  0  0  0  0  0
   56.0700   21.1820   46.6690 C   0  0  0  0  0  0  0  0  0  0  0  0
   56.1720   21.9210   45.4760 C   0  0  0  0  0  0  0  0  0  0  0  0
   56.4980   26.9000   45.9910 C   0  0  0  0  0  0  0  0  0  0  0  0
   55.1270   26.6750   45.9800 O   0  0  0  0  0  0  0  0  0  0  0  0
   58.9576   30.5431   44.8552 H   0  0  0  0  0  0  0  0  0  0  0  0
   58.6655   29.6507   43.3239 H   0  0  0  0  0  0  0  0  0  0  0  0
   58.7014   31.4466   43.3239 H   0  0  0  0  0  0  0  0  0  0  0  0
   58.8373   29.2754   45.2082 H   0  0  0  0  0  0  0  0  0  0  0  0
   60.3625   27.4220   45.8659 H   0  0  0  0  0  0  0  0  0  0  0  0
   59.4298   25.2391   46.6221 H   0  0  0  0  0  0  0  0  0  0  0  0
   54.7654   24.0018   44.0615 H   0  0  0  0  0  0  0  0  0  0  0  0
   56.1713   25.1007   44.2681 H   0  0  0  0  0  0  0  0  0  0  0  0
   56.2001   23.7980   42.0954 H   0  0  0  0  0  0  0  0  0  0  0  0
   57.6457   23.5213   43.1350 H   0  0  0  0  0  0  0  0  0  0  0  0
   56.1595   19.3134   43.2460 H   0  0  0  0  0  0  0  0  0  0  0  0
   56.0021   18.0173   45.3742 H   0  0  0  0  0  0  0  0  0  0  0  0
   55.9386   19.2115   47.5638 H   0  0  0  0  0  0  0  0  0  0  0  0
   56.0358   21.7043   47.6365 H   0  0  0  0  0  0  0  0  0  0  0  0
  1  2  1  0
  2  3  2  0
  2  4  2  0
  2  5  1  0
  5  6  1  0
  6  7  2  0
  7  8  1  0
  8  9  2  0
  9 10  1  0
 10 11  1  0
 11 12  2  0
 11 13  2  0
 11 14  1  0
 14 15  1  0
 15 16  1  0
 16 17  1  0
 17 18  1  0
 18 19  2  0
 19 20  1  0
 20 21  2  0
 21 22  1  0
 22 23  2  0
 10 24  2  0
 24 25  1  0
 24  6  1  0
 23 14  1  0
 23 18  1  0
  1 26  1  0
  1 27  1  0
  1 28  1  0
  7 29  1  0
  8 30  1  0
  9 31  1  0
 15 32  1  0
 15 33  1  0
 16 34  1  0
 16 35  1  0
 19 36  1  0
 20 37  1  0
 21 38  1  0
 22 39  1  0
M  CHG  2   5  -1  25  -1
M  END
>  <UniqueID>  (72) 
70

>  <SMILES>  (72) 
CS(=O)(=O)[N-]c1cccc(S(=O)(=O)N2CCOc3ccccc32)c1[O-]

>  <Energy>  (72) 
48.74550321084339

>  <Genealogy>  (72) 
CS(=O)(=O)[N-]c1cccc(S(=O)(=O)N2CCOc3ccccc32)c1[O-] (protonated)
CS(=O)(=O)[N-]c1cccc(S(=O)(=O)N2CCOc3ccccc32)c1[O-] (3D coordinates assigned)
CS(=O)(=O)[N-]c1cccc(S(=O)(=O)N2CCOc3ccccc32)c1[O-] (nonaromatic ring conformer: 48.74550321084339 kcal/mol)

>  <smiles>  (72) 
CS(=O)(=O)Nc1cccc(S(=O)(=O)N2CCOc3ccccc32)c1O

>  <score_type>  (72) 
oracle

>  <origin>  (72) 
adg

>  <m_score__min__energy>  (72) 
-14.619999999999999

>  <m_primary>  (72) 
energy

$$$$
72:0
     RDKit          3D

 41 43  0  0  0  0  0  0  0  0999 V2000
   56.2700   31.0440   45.2580 H   0  0  0  0  0  0  0  0  0  0  0  0
   56.2610   32.0240   44.9950 O   0  0  0  0  0  0  0  0  0  0  0  0
   57.2690   32.8950   45.4060 C   0  0  0  0  0  0  0  0  0  0  0  0
   57.7830   33.8320   44.5030 C   0  0  0  0  0  0  0  0  0  0  0  0
   57.3843   33.8838   43.4791 H   0  0  0  0  0  0  0  0  0  0  0  0
   58.8030   34.7030   44.9000 C   0  0  0  0  0  0  0  0  0  0  0  0
   59.2078   35.4361   44.1868 H   0  0  0  0  0  0  0  0  0  0  0  0
   59.3090   34.6430   46.2030 C   0  0  0  0  0  0  0  0  0  0  0  0
   60.1175   35.3234   46.5085 H   0  0  0  0  0  0  0  0  0  0  0  0
   58.7890   33.7180   47.1220 C   0  0  0  0  0  0  0  0  0  0  0  0
   59.3600   33.6230   48.5110 C   0  0  0  0  0  0  0  0  0  0  0  0
   58.8670   34.3633   49.1583 H   0  0  0  0  0  0  0  0  0  0  0  0
   60.4410   33.8221   48.4699 H   0  0  0  0  0  0  0  0  0  0  0  0
   59.1360   32.2530   49.0670 C   0  0  0  0  0  0  0  0  0  0  0  0
   59.9500   30.8630   48.5840 S   0  0  0  0  0  0  0  0  0  0  0  0
   59.1600   29.8960   49.7230 C   0  0  0  0  0  0  0  0  0  0  0  0
   59.3080   28.6130   49.8830 N   0  0  0  0  0  0  0  0  0  0  0  0
   60.3120   27.7720   49.2910 C   0  0  0  0  0  0  0  0  0  0  0  0
   61.1140   27.1060   50.0010 O   0  0  0  0  0  0  0  0  0  0  0  0
   60.4320   27.7160   47.8030 C   0  0  0  0  0  0  0  0  0  0  0  0
   61.4503   27.3986   47.5340 H   0  0  0  0  0  0  0  0  0  0  0  0
   60.2244   28.7151   47.3922 H   0  0  0  0  0  0  0  0  0  0  0  0
   59.2290   26.5300   47.1060 S   0  0  0  0  0  0  0  0  0  0  0  0
   58.2190   27.7870   46.3100 C   0  0  0  0  0  0  0  0  0  0  0  0
   58.6320   29.0550   46.1110 N   0  0  0  0  0  0  0  0  0  0  0  0
   57.6340   29.7020   45.5220 N   0  0  0  0  0  0  0  0  0  0  0  0
   56.6370   28.8130   45.3790 C   0  0  0  0  0  0  0  0  0  0  0  0
   55.5200   29.0960   44.8690 O   0  0  0  0  0  0  0  0  0  0  0  0
   56.9660   27.5960   45.8500 N   0  0  0  0  0  0  0  0  0  0  0  0
   56.1120   26.4130   45.9720 C   0  0  0  0  0  0  0  0  0  0  0  0
   55.1233   26.6334   45.5432 H   0  0  0  0  0  0  0  0  0  0  0  0
   56.0117   26.1522   47.0359 H   0  0  0  0  0  0  0  0  0  0  0  0
   56.7310   25.2350   45.2290 C   0  0  0  0  0  0  0  0  0  0  0  0
   57.1151   24.5040   45.9558 H   0  0  0  0  0  0  0  0  0  0  0  0
   55.9673   24.7576   44.5975 H   0  0  0  0  0  0  0  0  0  0  0  0
   57.5574   25.5932   44.5975 H   0  0  0  0  0  0  0  0  0  0  0  0
   58.2890   30.6110   50.4670 N   0  0  0  0  0  0  0  0  0  0  0  0
   58.2780   31.9240   50.1110 C   0  0  0  0  0  0  0  0  0  0  0  0
   57.6398   32.6679   50.6103 H   0  0  0  0  0  0  0  0  0  0  0  0
   57.7720   32.8360   46.7140 C   0  0  0  0  0  0  0  0  0  0  0  0
   57.3698   32.0975   47.4231 H   0  0  0  0  0  0  0  0  0  0  0  0
  1  2  1  0
  2  3  1  0
  3  4  2  0
  4  5  1  0
  4  6  1  0
  6  7  1  0
  6  8  2  0
  8  9  1  0
  8 10  1  0
 10 11  1  0
 11 12  1  0
 11 13  1  0
 11 14  1  0
 14 15  1  0
 15 16  1  0
 16 17  2  0
 17 18  1  0
 18 19  2  0
 18 20  1  0
 20 21  1  0
 20 22  1  0
 20 23  1  0
 23 24  1  0
 24 25  2  0
 25 26  1  0
 26 27  1  0
 27 28  2  0
 27 29  1  0
 29 30  1  0
 30 31  1  0
 30 32  1  0
 30 33  1  0
 33 34  1  0
 33 35  1  0
 33 36  1  0
 16 37  1  0
 37 38  1  0
 38 39  1  0
 10 40  2  0
 40 41  1  0
 40  3  1  0
 38 14  2  0
 29 24  1  0
M  CHG  2  26  -1  37  -1
M  END
>  <UniqueID>  (73) 
71

>  <SMILES>  (73) 
CCn1c(SCC(=O)/N=c2/[n-]cc(Cc3cccc(O)c3)s2)n[n-]c1=O

>  <Energy>  (73) 
100.37623385182708

>  <Genealogy>  (73) 
CCn1c(SCC(=O)N=c2[n-]cc(Cc3cccc(O)c3)s2)n[n-]c1=O (protonated)
CCn1c(SCC(=O)/N=c2/[n-]cc(Cc3cccc(O)c3)s2)n[n-]c1=O (cis-trans isomerization)
CCn1c(SCC(=O)/N=c2/[n-]cc(Cc3cccc(O)c3)s2)n[n-]c1=O (3D coordinates assigned)
CCn1c(SCC(=O)/N=c2/[n-]cc(Cc3cccc(O)c3)s2)n[n-]c1=O (optimized conformer: 100.37623385182708 kcal/mol)

>  <smiles>  (73) 
CCn1c(SCC(=O)N=c2[nH]cc(Cc3cccc(O)c3)s2)n[nH]c1=O

>  <score_type>  (73) 
oracle

>  <origin>  (73) 
adg

>  <m_score__min__energy>  (73) 
-12.68

>  <m_primary>  (73) 
energy

$$$$
73:0
     RDKit          3D

 43 45  0  0  0  0  0  0  0  0999 V2000
   60.7770   28.8070   44.9170 C   0  0  0  0  0  0  0  0  0  0  0  0
   59.4390   29.1840   44.6110 O   0  0  0  0  0  0  0  0  0  0  0  0
   58.3040   28.4410   44.9700 C   0  0  0  0  0  0  0  0  0  0  0  0
   58.3980   27.0880   45.3870 C   0  0  0  0  0  0  0  0  0  0  0  0
   57.2170   26.4450   45.7240 C   0  0  0  0  0  0  0  0  0  0  0  0
   56.8640   25.1780   46.1430 C   0  0  0  0  0  0  0  0  0  0  0  0
   57.7830   24.0540   46.4240 C   0  0  0  0  0  0  0  0  0  0  0  0
   58.9760   24.1280   46.0280 O   0  0  0  0  0  0  0  0  0  0  0  0
   57.3790   22.8740   47.1350 N   0  0  0  0  0  0  0  0  0  0  0  0
   56.0160   22.3900   47.3380 C   0  0  0  0  0  0  0  0  0  0  0  0
   55.6500   21.2390   46.3720 C   0  0  0  0  0  0  0  0  0  0  0  0
   55.9330   21.4840   44.9390 N   0  0  0  0  0  0  0  0  0  0  0  0
   57.3010   21.1640   44.5050 C   0  0  0  0  0  0  0  0  0  0  0  0
   57.3710   21.1940   42.9630 C   0  0  0  0  0  0  0  0  0  0  0  0
   56.1960   21.7300   42.3750 O   0  0  0  0  0  0  0  0  0  0  0  0
   55.8870   22.9780   42.9650 C   0  0  0  0  0  0  0  0  0  0  0  0
   55.5070   22.8090   44.4490 C   0  0  0  0  0  0  0  0  0  0  0  0
   55.5140   25.1350   46.2990 N   0  0  0  0  0  0  0  0  0  0  0  0
   54.9700   26.3100   45.9920 N   0  0  0  0  0  0  0  0  0  0  0  0
   55.9740   27.1240   45.6390 C   0  0  0  0  0  0  0  0  0  0  0  0
   55.8840   28.4110   45.2410 N   0  0  0  0  0  0  0  0  0  0  0  0
   57.0330   29.0810   44.9070 C   0  0  0  0  0  0  0  0  0  0  0  0
   56.9710   30.4160   44.4930 O   0  0  0  0  0  0  0  0  0  0  0  0
   57.0130   30.8020   43.1240 C   0  0  0  0  0  0  0  0  0  0  0  0
   60.9071   28.7704   46.0087 H   0  0  0  0  0  0  0  0  0  0  0  0
   60.9854   27.8152   44.4894 H   0  0  0  0  0  0  0  0  0  0  0  0
   61.4726   29.5441   44.4894 H   0  0  0  0  0  0  0  0  0  0  0  0
   59.3674   26.5709   45.4406 H   0  0  0  0  0  0  0  0  0  0  0  0
   55.9200   22.0275   48.3721 H   0  0  0  0  0  0  0  0  0  0  0  0
   55.3296   23.2263   47.1392 H   0  0  0  0  0  0  0  0  0  0  0  0
   56.2160   20.3474   46.6799 H   0  0  0  0  0  0  0  0  0  0  0  0
   54.5585   21.1242   46.4450 H   0  0  0  0  0  0  0  0  0  0  0  0
   58.0000   21.9059   44.9184 H   0  0  0  0  0  0  0  0  0  0  0  0
   57.5754   20.1616   44.8654 H   0  0  0  0  0  0  0  0  0  0  0  0
   58.2297   21.8117   42.6610 H   0  0  0  0  0  0  0  0  0  0  0  0
   57.4757   20.1563   42.6134 H   0  0  0  0  0  0  0  0  0  0  0  0
   56.7642   23.6377   42.8913 H   0  0  0  0  0  0  0  0  0  0  0  0
   55.0299   23.4149   42.4316 H   0  0  0  0  0  0  0  0  0  0  0  0
   56.0027   23.5918   45.0419 H   0  0  0  0  0  0  0  0  0  0  0  0
   54.4150   22.8940   44.5507 H   0  0  0  0  0  0  0  0  0  0  0  0
   57.1317   31.8933   43.0542 H   0  0  0  0  0  0  0  0  0  0  0  0
   57.8627   30.3084   42.6298 H   0  0  0  0  0  0  0  0  0  0  0  0
   56.0770   30.5027   42.6298 H   0  0  0  0  0  0  0  0  0  0  0  0
  1  2  1  0
  2  3  1  0
  3  4  1  0
  4  5  2  0
  5  6  1  0
  6  7  1  0
  7  8  2  0
  7  9  1  0
  9 10  1  0
 10 11  1  0
 11 12  1  0
 12 13  1  0
 13 14  1  0
 14 15  1  0
 15 16  1  0
 16 17  1  0
  6 18  2  0
 18 19  1  0
 19 20  2  0
 20 21  1  0
 21 22  1  0
 22 23  1  0
 23 24  1  0
 22  3  2  0
 20  5  1  0
 17 12  1  0
  1 25  1  0
  1 26  1  0
  1 27  1  0
  4 28  1  0
 10 29  1  0
 10 30  1  0
 11 31  1  0
 11 32  1  0
 13 33  1  0
 13 34  1  0
 14 35  1  0
 14 36  1  0
 16 37  1  0
 16 38  1  0
 17 39  1  0
 17 40  1  0
 24 41  1  0
 24 42  1  0
 24 43  1  0
M  CHG  2   9  -1  21  -1
M  END
>  <UniqueID>  (74) 
72

>  <SMILES>  (74) 
COc1cc2c(C(=O)[N-]CCN3CCOCC3)nnc-2[n-]c1OC

>  <Energy>  (74) 
96.75055934303542

>  <Genealogy>  (74) 
COc1cc2c(C(=O)[N-]CCN3CCOCC3)nnc-2[n-]c1OC (protonated)
COc1cc2c(C(=O)[N-]CCN3CCOCC3)nnc-2[n-]c1OC (3D coordinates assigned)
COc1cc2c(C(=O)[N-]CCN3CCOCC3)nnc-2[n-]c1OC (nonaromatic ring conformer: 96.75055934303542 kcal/mol)

>  <smiles>  (74) 
COc1cc2c(C(=O)NCCN3CCOCC3)nnc-2[nH]c1OC

>  <score_type>  (74) 
oracle

>  <origin>  (74) 
adg

>  <m_score__min__energy>  (74) 
-10.550000000000001

>  <m_primary>  (74) 
energy

$$$$
74:0
     RDKit          3D

 45 47  0  0  0  0  0  0  0  0999 V2000
   51.0250   32.2820   50.3480 N   0  0  0  0  0  0  0  0  0  0  0  0
   51.0010   32.2960   51.7720 C   0  0  0  0  0  0  0  0  0  0  0  0
   50.8760   33.3880   52.3870 O   0  0  0  0  0  0  0  0  0  0  0  0
   51.1740   31.0220   52.5350 C   0  0  0  0  0  0  0  0  0  0  0  0
   52.6160   30.5880   52.5030 C   0  0  0  0  0  0  0  0  0  0  0  0
   53.5390   31.2730   51.6970 C   0  0  0  0  0  0  0  0  0  0  0  0
   54.8710   30.8570   51.6280 C   0  0  0  0  0  0  0  0  0  0  0  0
   55.3040   29.7460   52.3740 C   0  0  0  0  0  0  0  0  0  0  0  0
   56.6300   29.2870   52.3200 O   0  0  0  0  0  0  0  0  0  0  0  0
   57.7190   30.0150   51.8240 C   0  0  0  0  0  0  0  0  0  0  0  0
   57.7950   30.2480   50.4860 N   0  0  0  0  0  0  0  0  0  0  0  0
   58.8220   30.9400   49.9200 C   0  0  0  0  0  0  0  0  0  0  0  0
   58.7970   31.1670   48.5350 O   0  0  0  0  0  0  0  0  0  0  0  0
   58.6720   30.1800   47.5490 C   0  0  0  0  0  0  0  0  0  0  0  0
   59.0270   28.8420   47.7910 C   0  0  0  0  0  0  0  0  0  0  0  0
   58.8820   27.8830   46.7860 C   0  0  0  0  0  0  0  0  0  0  0  0
   58.3830   28.2500   45.5330 C   0  0  0  0  0  0  0  0  0  0  0  0
   58.0040   29.5810   45.2790 C   0  0  0  0  0  0  0  0  0  0  0  0
   57.4590   29.9780   43.9590 C   0  0  0  0  0  0  0  0  0  0  0  0
   56.4590   29.1670   43.3300 N   0  0  0  0  0  0  0  0  0  0  0  0
   57.8670   31.0650   43.3750 N   0  0  0  0  0  0  0  0  0  0  0  0
   58.1380   30.5350   46.3040 C   0  0  0  0  0  0  0  0  0  0  0  0
   59.8410   31.4520   50.7420 C   0  0  0  0  0  0  0  0  0  0  0  0
   59.8040   31.2060   52.1140 C   0  0  0  0  0  0  0  0  0  0  0  0
   58.7480   30.4760   52.6640 C   0  0  0  0  0  0  0  0  0  0  0  0
   58.7470   30.1980   53.9920 F   0  0  0  0  0  0  0  0  0  0  0  0
   54.3790   29.0440   53.1570 C   0  0  0  0  0  0  0  0  0  0  0  0
   54.7790   27.9560   53.8610 F   0  0  0  0  0  0  0  0  0  0  0  0
   53.0430   29.4570   53.2220 C   0  0  0  0  0  0  0  0  0  0  0  0
   52.1620   28.7500   53.9780 F   0  0  0  0  0  0  0  0  0  0  0  0
   51.7710   32.7870   49.8210 H   0  0  0  0  0  0  0  0  0  0  0  0
   50.8649   31.1789   53.5790 H   0  0  0  0  0  0  0  0  0  0  0  0
   50.5535   30.2400   52.0730 H   0  0  0  0  0  0  0  0  0  0  0  0
   53.2103   32.1459   51.1140 H   0  0  0  0  0  0  0  0  0  0  0  0
   55.5828   31.3997   50.9887 H   0  0  0  0  0  0  0  0  0  0  0  0
   59.4205   28.5489   48.7755 H   0  0  0  0  0  0  0  0  0  0  0  0
   59.1610   26.8370   46.9809 H   0  0  0  0  0  0  0  0  0  0  0  0
   58.2860   27.4934   44.7404 H   0  0  0  0  0  0  0  0  0  0  0  0
   56.0260   29.4560   42.4250 H   0  0  0  0  0  0  0  0  0  0  0  0
   56.2000   28.2330   43.7230 H   0  0  0  0  0  0  0  0  0  0  0  0
   57.5000   32.0080   43.6460 H   0  0  0  0  0  0  0  0  0  0  0  0
   58.5550   31.0240   42.5900 H   0  0  0  0  0  0  0  0  0  0  0  0
   57.8194   31.5726   46.1254 H   0  0  0  0  0  0  0  0  0  0  0  0
   60.6609   32.0419   50.3064 H   0  0  0  0  0  0  0  0  0  0  0  0
   60.6064   31.5868   52.7630 H   0  0  0  0  0  0  0  0  0  0  0  0
  1  2  1  0
  2  3  2  0
  2  4  1  0
  4  5  1  0
  5  6  2  0
  6  7  1  0
  7  8  2  0
  8  9  1  0
  9 10  1  0
 10 11  2  0
 11 12  1  0
 12 13  1  0
 13 14  1  0
 14 15  2  0
 15 16  1  0
 16 17  2  0
 17 18  1  0
 18 19  1  0
 19 20  1  0
 19 21  2  0
 18 22  2  0
 12 23  2  0
 23 24  1  0
 24 25  2  0
 25 26  1  0
  8 27  1  0
 27 28  1  0
 27 29  2  0
 29 30  1  0
 29  5  1  0
 25 10  1  0
 22 14  1  0
  1 31  1  0
  4 32  1  0
  4 33  1  0
  6 34  1  0
  7 35  1  0
 15 36  1  0
 16 37  1  0
 17 38  1  0
 20 39  1  0
 20 40  1  0
 21 41  1  0
 21 42  1  0
 22 43  1  0
 23 44  1  0
 24 45  1  0
M  CHG  2   1  -1  21   1
M  END
>  <UniqueID>  (75) 
73

>  <SMILES>  (75) 
[NH-]C(=O)Cc1ccc(Oc2nc(Oc3cccc(C(N)=[NH2+])c3)ccc2F)c(F)c1F

>  <Energy>  (75) 
63.220320627604345

>  <Genealogy>  (75) 
[NH-]C(=O)Cc1ccc(Oc2nc(Oc3cccc(C(N)=[NH2+])c3)ccc2F)c(F)c1F (protonated)
[NH-]C(=O)Cc1ccc(Oc2nc(Oc3cccc(C(N)=[NH2+])c3)ccc2F)c(F)c1F (3D coordinates assigned)
[NH-]C(=O)Cc1ccc(Oc2nc(Oc3cccc(C(N)=[NH2+])c3)ccc2F)c(F)c1F (optimized conformer: 63.220320627604345 kcal/mol)

>  <smiles>  (75) 
N=C(N)c1cccc(Oc2ccc(F)c(Oc3ccc(CC(N)=O)c(F)c3F)n2)c1

>  <score_type>  (75) 
oracle

>  <origin>  (75) 
adg

>  <m_score__min__energy>  (75) 
-10.65

>  <m_primary>  (75) 
energy

$$$$
75:0
     RDKit          3D

 36 38  0  0  0  0  0  0  0  0999 V2000
   59.2420   29.2490   43.7910 H   0  0  0  0  0  0  0  0  0  0  0  0
   59.0650   28.3300   44.2450 N   0  0  0  0  0  0  0  0  0  0  0  0
   57.9350   27.9730   44.7710 C   0  0  0  0  0  0  0  0  0  0  0  0
   57.7140   26.7200   45.2110 N   0  0  0  0  0  0  0  0  0  0  0  0
   56.4290   26.8050   45.6230 C   0  0  0  0  0  0  0  0  0  0  0  0
   55.7670   25.8150   46.1360 N   0  0  0  0  0  0  0  0  0  0  0  0
   56.3670   24.8070   47.0050 C   0  0  0  0  0  0  0  0  0  0  0  0
   57.4320   24.6932   46.7544 H   0  0  0  0  0  0  0  0  0  0  0  0
   56.2700   25.1217   48.0545 H   0  0  0  0  0  0  0  0  0  0  0  0
   55.6620   23.4940   46.8070 C   0  0  0  0  0  0  0  0  0  0  0  0
   54.4330   23.4540   46.1260 C   0  0  0  0  0  0  0  0  0  0  0  0
   54.0020   24.3810   45.7199 H   0  0  0  0  0  0  0  0  0  0  0  0
   53.7550   22.2410   45.9620 C   0  0  0  0  0  0  0  0  0  0  0  0
   52.5450   22.2090   45.2800 O   0  0  0  0  0  0  0  0  0  0  0  0
   54.2940   21.0620   46.4850 C   0  0  0  0  0  0  0  0  0  0  0  0
   53.7625   20.1082   46.3515 H   0  0  0  0  0  0  0  0  0  0  0  0
   55.5070   21.0940   47.1770 C   0  0  0  0  0  0  0  0  0  0  0  0
   55.9270   20.1650   47.5899 H   0  0  0  0  0  0  0  0  0  0  0  0
   56.1900   22.3040   47.3470 C   0  0  0  0  0  0  0  0  0  0  0  0
   57.3880   22.3160   48.0520 O   0  0  0  0  0  0  0  0  0  0  0  0
   55.8920   28.0270   45.4510 N   0  0  0  0  0  0  0  0  0  0  0  0
   56.8460   28.7680   44.9150 N   0  0  0  0  0  0  0  0  0  0  0  0
   56.6560   30.1570   44.5960 C   0  0  0  0  0  0  0  0  0  0  0  0
   55.4990   30.6380   44.4700 O   0  0  0  0  0  0  0  0  0  0  0  0
   57.8050   30.9760   44.3400 N   0  0  0  0  0  0  0  0  0  0  0  0
   58.1590   32.1890   45.0210 C   0  0  0  0  0  0  0  0  0  0  0  0
   58.4670   33.3230   44.2560 C   0  0  0  0  0  0  0  0  0  0  0  0
   58.4174   33.2718   43.1583 H   0  0  0  0  0  0  0  0  0  0  0  0
   58.8370   34.5190   44.8800 C   0  0  0  0  0  0  0  0  0  0  0  0
   59.0659   35.4075   44.2732 H   0  0  0  0  0  0  0  0  0  0  0  0
   58.9160   34.5860   46.2730 C   0  0  0  0  0  0  0  0  0  0  0  0
   59.1994   35.5291   46.7631 H   0  0  0  0  0  0  0  0  0  0  0  0
   58.6350   33.4550   47.0440 C   0  0  0  0  0  0  0  0  0  0  0  0
   58.7048   33.5066   48.1406 H   0  0  0  0  0  0  0  0  0  0  0  0
   58.2650   32.2570   46.4230 C   0  0  0  0  0  0  0  0  0  0  0  0
   58.0563   31.3653   47.0324 H   0  0  0  0  0  0  0  0  0  0  0  0
  1  2  1  0
  2  3  2  0
  3  4  1  0
  4  5  1  0
  5  6  2  3
  6  7  1  0
  7  8  1  0
  7  9  1  0
  7 10  1  0
 10 11  2  0
 11 12  1  0
 11 13  1  0
 13 14  1  0
 13 15  2  0
 15 16  1  0
 15 17  1  0
 17 18  1  0
 17 19  2  0
 19 20  1  0
  5 21  1  0
 21 22  1  0
 22 23  1  0
 23 24  2  0
 23 25  1  0
 25 26  1  0
 26 27  2  0
 27 28  1  0
 27 29  1  0
 29 30  1  0
 29 31  2  0
 31 32  1  0
 31 33  1  0
 33 34  1  0
 33 35  2  0
 35 36  1  0
 22  3  1  0
 35 26  1  0
 19 10  1  0
M  CHG  5   4  -1  14  -1  20  -1  21  -1  25  -1
M  END
>  <UniqueID>  (76) 
74

>  <SMILES>  (76) 
[H]/N=c1/[n-]c(=NCc2cc([O-])ccc2[O-])[n-]n1C(=O)[N-]c1ccccc1

>  <Energy>  (76) 
79.12190134677074

>  <Genealogy>  (76) 
N=c1[n-]c(=NCc2cc([O-])ccc2[O-])[n-]n1C(=O)[N-]c1ccccc1 (protonated)
[H]/N=c1/[n-]c(=NCc2cc([O-])ccc2[O-])[n-]n1C(=O)[N-]c1ccccc1 (cis-trans isomerization)
[H]/N=c1/[n-]c(=NCc2cc([O-])ccc2[O-])[n-]n1C(=O)[N-]c1ccccc1 (3D coordinates assigned)
[H]/N=c1/[n-]c(=NCc2cc([O-])ccc2[O-])[n-]n1C(=O)[N-]c1ccccc1 (optimized conformer: 79.12190134677074 kcal/mol)

>  <smiles>  (76) 
N=c1[nH]c(=NCc2cc(O)ccc2O)[nH]n1C(=O)Nc1ccccc1

>  <score_type>  (76) 
oracle

>  <origin>  (76) 
adg

>  <m_score__min__energy>  (76) 
-15.66

>  <m_primary>  (76) 
energy

$$$$
76:0
     RDKit          3D

 52 56  0  0  0  0  0  0  0  0999 V2000
   62.8139   33.6839   46.5091 H   0  0  0  0  0  0  0  0  0  0  0  0
   62.6090   32.8390   47.1830 C   0  0  0  0  0  0  0  0  0  0  0  0
   61.2680   31.8210   47.1110 S   0  0  0  0  0  0  0  0  0  0  0  0
   61.7550   30.9120   48.4340 C   0  0  0  0  0  0  0  0  0  0  0  0
   61.0980   29.8790   48.8710 N   0  0  0  0  0  0  0  0  0  0  0  0
   60.0310   29.1970   48.1960 C   0  0  0  0  0  0  0  0  0  0  0  0
   58.9550   28.9800   48.8150 O   0  0  0  0  0  0  0  0  0  0  0  0
   60.2010   28.6570   46.8040 C   0  0  0  0  0  0  0  0  0  0  0  0
   60.5859   29.4547   46.1517 H   0  0  0  0  0  0  0  0  0  0  0  0
   60.9082   27.8151   46.8351 H   0  0  0  0  0  0  0  0  0  0  0  0
   58.8860   28.1650   46.2600 C   0  0  0  0  0  0  0  0  0  0  0  0
   58.5600   26.8280   46.0800 C   0  0  0  0  0  0  0  0  0  0  0  0
   59.3060   25.6630   46.2810 C   0  0  0  0  0  0  0  0  0  0  0  0
   60.3484   25.7090   46.6292 H   0  0  0  0  0  0  0  0  0  0  0  0
   58.6790   24.4280   46.0230 C   0  0  0  0  0  0  0  0  0  0  0  0
   59.2385   23.4916   46.1649 H   0  0  0  0  0  0  0  0  0  0  0  0
   57.3360   24.3830   45.5830 C   0  0  0  0  0  0  0  0  0  0  0  0
   56.8586   23.4126   45.3819 H   0  0  0  0  0  0  0  0  0  0  0  0
   56.6070   25.5720   45.4010 C   0  0  0  0  0  0  0  0  0  0  0  0
   55.5594   25.5507   45.0662 H   0  0  0  0  0  0  0  0  0  0  0  0
   57.2560   26.7780   45.6590 C   0  0  0  0  0  0  0  0  0  0  0  0
   56.8090   28.0770   45.5990 C   0  0  0  0  0  0  0  0  0  0  0  0
   55.5210   28.4670   45.2460 O   0  0  0  0  0  0  0  0  0  0  0  0
   57.8010   28.9340   45.9560 N   0  0  0  0  0  0  0  0  0  0  0  0
   57.6650   30.3960   46.0330 C   0  0  0  0  0  0  0  0  0  0  0  0
   56.7600   30.6443   46.6068 H   0  0  0  0  0  0  0  0  0  0  0  0
   58.5570   30.8076   46.5279 H   0  0  0  0  0  0  0  0  0  0  0  0
   57.5560   31.0000   44.6470 C   0  0  0  0  0  0  0  0  0  0  0  0
   57.0440   30.2130   43.5980 C   0  0  0  0  0  0  0  0  0  0  0  0
   56.7017   29.1881   43.8038 H   0  0  0  0  0  0  0  0  0  0  0  0
   56.9660   30.7200   42.2980 C   0  0  0  0  0  0  0  0  0  0  0  0
   56.5594   30.0960   41.4884 H   0  0  0  0  0  0  0  0  0  0  0  0
   57.4030   32.0160   42.0260 C   0  0  0  0  0  0  0  0  0  0  0  0
   57.3427   32.4129   41.0019 H   0  0  0  0  0  0  0  0  0  0  0  0
   57.9170   32.8100   43.0530 C   0  0  0  0  0  0  0  0  0  0  0  0
   58.2645   33.8300   42.8321 H   0  0  0  0  0  0  0  0  0  0  0  0
   57.9940   32.3170   44.3660 C   0  0  0  0  0  0  0  0  0  0  0  0
   58.5090   33.2100   45.4200 C   0  0  0  0  0  0  0  0  0  0  0  0
   58.0400   33.0930   46.7370 C   0  0  0  0  0  0  0  0  0  0  0  0
   57.2695   32.3468   46.9810 H   0  0  0  0  0  0  0  0  0  0  0  0
   58.5500   33.9230   47.7400 C   0  0  0  0  0  0  0  0  0  0  0  0
   58.1721   33.8366   48.7694 H   0  0  0  0  0  0  0  0  0  0  0  0
   59.5400   34.8630   47.4360 C   0  0  0  0  0  0  0  0  0  0  0  0
   59.9395   35.5163   48.2257 H   0  0  0  0  0  0  0  0  0  0  0  0
   60.0220   34.9720   46.1270 C   0  0  0  0  0  0  0  0  0  0  0  0
   60.8035   35.7087   45.8894 H   0  0  0  0  0  0  0  0  0  0  0  0
   59.5120   34.1460   45.1200 C   0  0  0  0  0  0  0  0  0  0  0  0
   59.8967   34.2296   44.0928 H   0  0  0  0  0  0  0  0  0  0  0  0
   62.9400   31.3520   48.9280 N   0  0  0  0  0  0  0  0  0  0  0  0
   63.4720   30.9150   49.7110 H   0  0  0  0  0  0  0  0  0  0  0  0
   63.4120   32.4270   48.2410 C   0  0  0  0  0  0  0  0  0  0  0  0
   64.3545   32.9307   48.5018 H   0  0  0  0  0  0  0  0  0  0  0  0
  1  2  1  0
  2  3  1  0
  3  4  1  0
  4  5  2  0
  5  6  1  0
  6  7  2  0
  6  8  1  0
  8  9  1  0
  8 10  1  0
  8 11  1  0
 11 12  2  0
 12 13  1  0
 13 14  1  0
 13 15  2  0
 15 16  1  0
 15 17  1  0
 17 18  1  0
 17 19  2  0
 19 20  1  0
 19 21  1  0
 21 22  2  0
 22 23  1  0
 22 24  1  0
 24 25  1  0
 25 26  1  0
 25 27  1  0
 25 28  1  0
 28 29  2  0
 29 30  1  0
 29 31  1  0
 31 32  1  0
 31 33  2  0
 33 34  1  0
 33 35  1  0
 35 36  1  0
 35 37  2  0
 37 38  1  0
 38 39  2  0
 39 40  1  0
 39 41  1  0
 41 42  1  0
 41 43  2  0
 43 44  1  0
 43 45  1  0
 45 46  1  0
 45 47  2  0
 47 48  1  0
  4 49  1  0
 49 50  1  0
 49 51  1  0
 51 52  1  0
 51  2  2  0
 24 11  1  0
 37 28  1  0
 47 38  1  0
 21 12  1  0
M  CHG  1  23  -1
M  END
>  <UniqueID>  (77) 
75

>  <SMILES>  (77) 
O=C(Cc1c2ccccc2c([O-])n1Cc1ccccc1-c1ccccc1)/N=c1\[nH]ccs1

>  <Energy>  (77) 
134.45092535226124

>  <Genealogy>  (77) 
O=C(Cc1c2ccccc2c([O-])n1Cc1ccccc1-c1ccccc1)N=c1[nH]ccs1 (protonated)
O=C(Cc1c2ccccc2c([O-])n1Cc1ccccc1-c1ccccc1)/N=c1\[nH]ccs1 (cis-trans isomerization)
O=C(Cc1c2ccccc2c([O-])n1Cc1ccccc1-c1ccccc1)/N=c1\[nH]ccs1 (3D coordinates assigned)
O=C(Cc1c2ccccc2c([O-])n1Cc1ccccc1-c1ccccc1)/N=c1\[nH]ccs1 (optimized conformer: 134.45092535226124 kcal/mol)

>  <smiles>  (77) 
O=C(Cc1c2ccccc2c(O)n1Cc1ccccc1-c1ccccc1)N=c1[nH]ccs1

>  <score_type>  (77) 
oracle

>  <origin>  (77) 
adg

>  <m_score__min__energy>  (77) 
-12.82

>  <m_primary>  (77) 
energy

$$$$
77:0
     RDKit          3D

 42 44  0  0  0  0  0  0  0  0999 V2000
   55.7640   23.7270   44.9850 C   0  0  0  0  0  0  0  0  0  0  0  0
   55.8450   25.3380   45.7390 S   0  0  0  0  0  0  0  0  0  0  0  0
   54.4790   25.9610   45.6820 O   0  0  0  0  0  0  0  0  0  0  0  0
   56.2590   25.2260   47.1790 O   0  0  0  0  0  0  0  0  0  0  0  0
   56.9590   26.3520   44.8730 N   0  0  0  0  0  0  0  0  0  0  0  0
   57.8990   27.2580   45.4910 C   0  0  0  0  0  0  0  0  0  0  0  0
   59.0710   26.7850   46.1110 C   0  0  0  0  0  0  0  0  0  0  0  0
   59.9750   27.6690   46.7070 C   0  0  0  0  0  0  0  0  0  0  0  0
   59.7310   29.0510   46.6970 C   0  0  0  0  0  0  0  0  0  0  0  0
   60.6730   30.0050   47.3250 C   0  0  0  0  0  0  0  0  0  0  0  0
   61.1460   31.1950   46.8020 C   0  0  0  0  0  0  0  0  0  0  0  0
   61.9840   31.6820   47.7900 C   0  0  0  0  0  0  0  0  0  0  0  0
   62.7280   32.9580   47.8020 C   0  0  0  0  0  0  0  0  0  0  0  0
   63.9240   32.9540   47.4130 O   0  0  0  0  0  0  0  0  0  0  0  0
   62.1450   34.2110   48.1900 N   0  0  0  0  0  0  0  0  0  0  0  0
   60.7900   34.4220   48.6810 C   0  0  0  0  0  0  0  0  0  0  0  0
   59.8120   34.1750   47.5640 C   0  0  0  0  0  0  0  0  0  0  0  0
   59.9200   34.9160   46.3730 C   0  0  0  0  0  0  0  0  0  0  0  0
   59.0080   34.7210   45.3330 C   0  0  0  0  0  0  0  0  0  0  0  0
   57.9740   33.7940   45.4710 C   0  0  0  0  0  0  0  0  0  0  0  0
   57.8460   33.0620   46.6550 C   0  0  0  0  0  0  0  0  0  0  0  0
   58.7540   33.2490   47.7040 C   0  0  0  0  0  0  0  0  0  0  0  0
   58.5290   32.3160   49.1810 Cl  0  0  0  0  0  0  0  0  0  0  0  0
   61.9800   30.8290   48.8330 N   0  0  0  0  0  0  0  0  0  0  0  0
   61.1970   29.8410   48.5200 O   0  0  0  0  0  0  0  0  0  0  0  0
   58.5650   29.5300   46.0820 C   0  0  0  0  0  0  0  0  0  0  0  0
   57.6560   28.6500   45.4830 C   0  0  0  0  0  0  0  0  0  0  0  0
   56.2200   29.3420   44.7350 Cl  0  0  0  0  0  0  0  0  0  0  0  0
   55.7253   22.9566   45.7692 H   0  0  0  0  0  0  0  0  0  0  0  0
   54.8613   23.6597   44.3600 H   0  0  0  0  0  0  0  0  0  0  0  0
   56.6554   23.5695   44.3600 H   0  0  0  0  0  0  0  0  0  0  0  0
   56.9220   26.2690   43.8350 H   0  0  0  0  0  0  0  0  0  0  0  0
   59.2783   25.7048   46.1267 H   0  0  0  0  0  0  0  0  0  0  0  0
   60.8843   27.2786   47.1874 H   0  0  0  0  0  0  0  0  0  0  0  0
   60.9109   31.6486   45.8278 H   0  0  0  0  0  0  0  0  0  0  0  0
   60.5864   33.7261   49.5082 H   0  0  0  0  0  0  0  0  0  0  0  0
   60.6852   35.4563   49.0405 H   0  0  0  0  0  0  0  0  0  0  0  0
   60.7280   35.6538   46.2600 H   0  0  0  0  0  0  0  0  0  0  0  0
   59.1051   35.2998   44.4026 H   0  0  0  0  0  0  0  0  0  0  0  0
   57.2601   33.6394   44.6485 H   0  0  0  0  0  0  0  0  0  0  0  0
   57.0274   32.3352   46.7630 H   0  0  0  0  0  0  0  0  0  0  0  0
   58.3622   30.6111   46.0702 H   0  0  0  0  0  0  0  0  0  0  0  0
  1  2  1  0
  2  3  2  0
  2  4  2  0
  2  5  1  0
  5  6  1  0
  6  7  2  0
  7  8  1  0
  8  9  2  0
  9 10  1  0
 10 11  2  0
 11 12  1  0
 12 13  1  0
 13 14  2  0
 13 15  1  0
 15 16  1  0
 16 17  1  0
 17 18  2  0
 18 19  1  0
 19 20  2  0
 20 21  1  0
 21 22  2  0
 22 23  1  0
 12 24  2  0
 24 25  1  0
  9 26  1  0
 26 27  2  0
 27 28  1  0
 27  6  1  0
 25 10  1  0
 22 17  1  0
  1 29  1  0
  1 30  1  0
  1 31  1  0
  5 32  1  0
  7 33  1  0
  8 34  1  0
 11 35  1  0
 16 36  1  0
 16 37  1  0
 18 38  1  0
 19 39  1  0
 20 40  1  0
 21 41  1  0
 26 42  1  0
M  CHG  1  15  -1
M  END
>  <UniqueID>  (78) 
76

>  <SMILES>  (78) 
CS(=O)(=O)Nc1ccc(-c2cc(C(=O)[N-]Cc3ccccc3Cl)no2)cc1Cl

>  <Energy>  (78) 
78.98051259838407

>  <Genealogy>  (78) 
CS(=O)(=O)Nc1ccc(-c2cc(C(=O)[N-]Cc3ccccc3Cl)no2)cc1Cl (protonated)
CS(=O)(=O)Nc1ccc(-c2cc(C(=O)[N-]Cc3ccccc3Cl)no2)cc1Cl (3D coordinates assigned)
CS(=O)(=O)Nc1ccc(-c2cc(C(=O)[N-]Cc3ccccc3Cl)no2)cc1Cl (optimized conformer: 78.98051259838407 kcal/mol)

>  <smiles>  (78) 
CS(=O)(=O)Nc1ccc(-c2cc(C(=O)NCc3ccccc3Cl)no2)cc1Cl

>  <score_type>  (78) 
oracle

>  <origin>  (78) 
adg

>  <m_score__min__energy>  (78) 
-10.609999999999999

>  <m_primary>  (78) 
energy

$$$$
78:0
     RDKit          3D

 63 66  0  0  0  0  0  0  0  0999 V2000
   54.2840   24.8180   45.5320 C   0  0  0  0  0  0  0  0  0  0  0  0
   54.7840   26.1400   45.7050 O   0  0  0  0  0  0  0  0  0  0  0  0
   56.1370   26.4580   45.8960 C   0  0  0  0  0  0  0  0  0  0  0  0
   57.0190   25.4290   46.2350 C   0  0  0  0  0  0  0  0  0  0  0  0
   58.3720   25.6930   46.4440 C   0  0  0  0  0  0  0  0  0  0  0  0
   58.8740   27.0030   46.3090 C   0  0  0  0  0  0  0  0  0  0  0  0
   60.2310   27.3060   46.5100 O   0  0  0  0  0  0  0  0  0  0  0  0
   60.8750   27.4310   47.7780 C   0  0  0  0  0  0  0  0  0  0  0  0
   60.3340   28.6110   48.5420 C   0  0  0  0  0  0  0  0  0  0  0  0
   61.1230   29.7550   48.7330 C   0  0  0  0  0  0  0  0  0  0  0  0
   60.6120   30.8600   49.4200 C   0  0  0  0  0  0  0  0  0  0  0  0
   59.3040   30.8360   49.9310 C   0  0  0  0  0  0  0  0  0  0  0  0
   58.7510   32.0080   50.6460 C   0  0  0  0  0  0  0  0  0  0  0  0
   57.5530   32.3450   50.4340 O   0  0  0  0  0  0  0  0  0  0  0  0
   59.5430   32.7600   51.5840 N   0  0  0  0  0  0  0  0  0  0  0  0
   60.4380   32.0680   52.5210 C   0  0  0  0  0  0  0  0  0  0  0  0
   60.6880   32.9240   53.7750 C   0  0  0  0  0  0  0  0  0  0  0  0
   59.4540   33.5920   54.2430 N   0  0  0  0  0  0  0  0  0  0  0  0
   58.5040   32.6310   54.8280 C   0  0  0  0  0  0  0  0  0  0  0  0
   58.8070   34.4530   53.2150 C   0  0  0  0  0  0  0  0  0  0  0  0
   59.3000   34.1930   51.7810 C   0  0  0  0  0  0  0  0  0  0  0  0
   58.5050   29.7020   49.7110 C   0  0  0  0  0  0  0  0  0  0  0  0
   59.0150   28.5990   49.0200 C   0  0  0  0  0  0  0  0  0  0  0  0
   57.9970   28.0440   45.9490 C   0  0  0  0  0  0  0  0  0  0  0  0
   58.4960   29.3890   45.8350 N   0  0  0  0  0  0  0  0  0  0  0  0
   57.6870   30.5080   45.4360 C   0  0  0  0  0  0  0  0  0  0  0  0
   56.5810   30.3100   44.8610 O   0  0  0  0  0  0  0  0  0  0  0  0
   58.1630   31.8560   45.6220 N   0  0  0  0  0  0  0  0  0  0  0  0
   57.3130   32.8980   45.3540 C   0  0  0  0  0  0  0  0  0  0  0  0
   57.7310   34.2200   45.5100 C   0  0  0  0  0  0  0  0  0  0  0  0
   59.0250   34.4810   45.9510 C   0  0  0  0  0  0  0  0  0  0  0  0
   59.8840   33.4220   46.2370 C   0  0  0  0  0  0  0  0  0  0  0  0
   59.4370   32.1050   46.0760 C   0  0  0  0  0  0  0  0  0  0  0  0
   60.2160   31.1580   46.3730 O   0  0  0  0  0  0  0  0  0  0  0  0
   56.6300   27.7690   45.7610 C   0  0  0  0  0  0  0  0  0  0  0  0
   54.1107   24.3597   46.5169 H   0  0  0  0  0  0  0  0  0  0  0  0
   53.3375   24.8542   44.9727 H   0  0  0  0  0  0  0  0  0  0  0  0
   55.0176   24.2188   44.9727 H   0  0  0  0  0  0  0  0  0  0  0  0
   56.6424   24.4006   46.3380 H   0  0  0  0  0  0  0  0  0  0  0  0
   59.0526   24.8728   46.7162 H   0  0  0  0  0  0  0  0  0  0  0  0
   60.7025   26.5145   48.3614 H   0  0  0  0  0  0  0  0  0  0  0  0
   61.9516   27.5838   47.6117 H   0  0  0  0  0  0  0  0  0  0  0  0
   62.1500   29.7827   48.3398 H   0  0  0  0  0  0  0  0  0  0  0  0
   61.2379   31.7535   49.5612 H   0  0  0  0  0  0  0  0  0  0  0  0
   59.9779   31.1150   52.8213 H   0  0  0  0  0  0  0  0  0  0  0  0
   61.4008   31.8888   52.0201 H   0  0  0  0  0  0  0  0  0  0  0  0
   61.0676   32.2754   54.5782 H   0  0  0  0  0  0  0  0  0  0  0  0
   61.4194   33.7034   53.5150 H   0  0  0  0  0  0  0  0  0  0  0  0
   58.5571   32.6847   55.9254 H   0  0  0  0  0  0  0  0  0  0  0  0
   57.4839   32.8766   54.4978 H   0  0  0  0  0  0  0  0  0  0  0  0
   58.7613   31.6138   54.4978 H   0  0  0  0  0  0  0  0  0  0  0  0
   57.7223   34.2729   53.2459 H   0  0  0  0  0  0  0  0  0  0  0  0
   59.0708   35.4927   53.4587 H   0  0  0  0  0  0  0  0  0  0  0  0
   58.5367   34.5343   51.0663 H   0  0  0  0  0  0  0  0  0  0  0  0
   60.2383   34.7433   51.6174 H   0  0  0  0  0  0  0  0  0  0  0  0
   57.4707   29.6817   50.0850 H   0  0  0  0  0  0  0  0  0  0  0  0
   58.3792   27.7176   48.8502 H   0  0  0  0  0  0  0  0  0  0  0  0
   59.5230   29.5500   45.9400 H   0  0  0  0  0  0  0  0  0  0  0  0
   56.2887   32.6891   45.0117 H   0  0  0  0  0  0  0  0  0  0  0  0
   57.0435   35.0491   45.2863 H   0  0  0  0  0  0  0  0  0  0  0  0
   59.3681   35.5190   46.0732 H   0  0  0  0  0  0  0  0  0  0  0  0
   60.9078   33.6196   46.5874 H   0  0  0  0  0  0  0  0  0  0  0  0
   55.9400   28.5868   45.5060 H   0  0  0  0  0  0  0  0  0  0  0  0
  1  2  1  0
  2  3  1  0
  3  4  2  0
  4  5  1  0
  5  6  2  0
  6  7  1  0
  7  8  1  0
  8  9  1  0
  9 10  2  0
 10 11  1  0
 11 12  2  0
 12 13  1  0
 13 14  2  0
 13 15  1  0
 15 16  1  0
 16 17  1  0
 17 18  1  0
 18 19  1  0
 18 20  1  0
 20 21  1  0
 12 22  1  0
 22 23  2  0
  6 24  1  0
 24 25  1  0
 25 26  1  0
 26 27  2  0
 26 28  1  0
 28 29  1  0
 29 30  2  0
 30 31  1  0
 31 32  2  0
 32 33  1  0
 33 34  2  0
 24 35  2  0
 35  3  1  0
 23  9  1  0
 33 28  1  0
 21 15  1  0
  1 36  1  0
  1 37  1  0
  1 38  1  0
  4 39  1  0
  5 40  1  0
  8 41  1  0
  8 42  1  0
 10 43  1  0
 11 44  1  0
 16 45  1  0
 16 46  1  0
 17 47  1  0
 17 48  1  0
 19 49  1  0
 19 50  1  0
 19 51  1  0
 20 52  1  0
 20 53  1  0
 21 54  1  0
 21 55  1  0
 22 56  1  0
 23 57  1  0
 25 58  1  0
 29 59  1  0
 30 60  1  0
 31 61  1  0
 32 62  1  0
 35 63  1  0
M  END
>  <UniqueID>  (79) 
77

>  <SMILES>  (79) 
COc1ccc(OCc2ccc(C(=O)N3CCN(C)CC3)cc2)c(NC(=O)n2ccccc2=O)c1

>  <Energy>  (79) 
88.47229644229412

>  <Genealogy>  (79) 
COc1ccc(OCc2ccc(C(=O)N3CCN(C)CC3)cc2)c(NC(=O)n2ccccc2=O)c1 (3D coordinates assigned)
COc1ccc(OCc2ccc(C(=O)N3CCN(C)CC3)cc2)c(NC(=O)n2ccccc2=O)c1 (nonaromatic ring conformer: 88.47229644229412 kcal/mol)

>  <smiles>  (79) 
COc1ccc(OCc2ccc(C(=O)N3CCN(C)CC3)cc2)c(NC(=O)n2ccccc2=O)c1

>  <score_type>  (79) 
oracle

>  <origin>  (79) 
adg

>  <m_score__min__energy>  (79) 
-9.2799999999999994

>  <m_primary>  (79) 
energy

$$$$
79:0
     RDKit          3D

 52 54  0  0  0  0  0  0  0  0999 V2000
   59.1780   29.3640   50.1580 C   0  0  0  0  0  0  0  0  0  0  0  0
   58.9290   28.9430   48.7110 C   0  0  0  0  0  0  0  0  0  0  0  0
   60.2250   28.6370   47.9420 C   0  0  0  0  0  0  0  0  0  0  0  0
   60.4880   27.1370   47.7020 C   0  0  0  0  0  0  0  0  0  0  0  0
   60.0740   26.6330   46.3070 C   0  0  0  0  0  0  0  0  0  0  0  0
   58.7940   27.2310   45.8650 N   0  0  0  0  0  0  0  0  0  0  0  0
   57.6070   26.7330   46.3430 C   0  0  0  0  0  0  0  0  0  0  0  0
   57.5890   25.7300   47.1070 O   0  0  0  0  0  0  0  0  0  0  0  0
   56.4320   27.3160   46.0010 N   0  0  0  0  0  0  0  0  0  0  0  0
   56.3830   28.3950   45.1840 C   0  0  0  0  0  0  0  0  0  0  0  0
   55.1500   28.9620   44.8850 O   0  0  0  0  0  0  0  0  0  0  0  0
   57.5660   28.9210   44.6510 C   0  0  0  0  0  0  0  0  0  0  0  0
   57.5400   30.1630   43.7870 C   0  0  0  0  0  0  0  0  0  0  0  0
   57.8060   31.3880   44.6230 C   0  0  0  0  0  0  0  0  0  0  0  0
   57.5700   32.6680   44.1010 C   0  0  0  0  0  0  0  0  0  0  0  0
   57.7730   33.7990   44.8930 C   0  0  0  0  0  0  0  0  0  0  0  0
   58.2010   33.6640   46.2170 C   0  0  0  0  0  0  0  0  0  0  0  0
   58.4330   32.3900   46.7630 C   0  0  0  0  0  0  0  0  0  0  0  0
   58.8520   32.2400   48.1780 C   0  0  0  0  0  0  0  0  0  0  0  0
   58.0640   32.5750   49.1040 O   0  0  0  0  0  0  0  0  0  0  0  0
   60.1550   31.7090   48.4800 N   0  0  0  0  0  0  0  0  0  0  0  0
   61.3080   32.2640   48.2370 C   0  0  0  0  0  0  0  0  0  0  0  0
   62.2330   31.6560   47.4400 N   0  0  0  0  0  0  0  0  0  0  0  0
   63.4340   32.2280   47.1610 C   0  0  0  0  0  0  0  0  0  0  0  0
   63.7510   33.4790   47.6920 C   0  0  0  0  0  0  0  0  0  0  0  0
   62.8250   34.1280   48.5080 C   0  0  0  0  0  0  0  0  0  0  0  0
   61.5930   33.5230   48.7880 C   0  0  0  0  0  0  0  0  0  0  0  0
   60.6580   34.1660   49.5980 O   0  0  0  0  0  0  0  0  0  0  0  0
   58.2360   31.2560   45.9540 C   0  0  0  0  0  0  0  0  0  0  0  0
   58.7810   28.3040   45.0070 C   0  0  0  0  0  0  0  0  0  0  0  0
   59.8610   28.7470   44.5260 O   0  0  0  0  0  0  0  0  0  0  0  0
   58.7376   28.6194   50.8375 H   0  0  0  0  0  0  0  0  0  0  0  0
   60.2609   29.4307   50.3393 H   0  0  0  0  0  0  0  0  0  0  0  0
   58.7148   30.3451   50.3393 H   0  0  0  0  0  0  0  0  0  0  0  0
   58.3006   28.0401   48.7119 H   0  0  0  0  0  0  0  0  0  0  0  0
   58.4368   29.7858   48.2035 H   0  0  0  0  0  0  0  0  0  0  0  0
   60.1700   29.1368   46.9637 H   0  0  0  0  0  0  0  0  0  0  0  0
   61.0529   29.0033   48.5667 H   0  0  0  0  0  0  0  0  0  0  0  0
   61.5649   26.9521   47.8288 H   0  0  0  0  0  0  0  0  0  0  0  0
   59.8700   26.5900   48.4292 H   0  0  0  0  0  0  0  0  0  0  0  0
   60.8597   26.8989   45.5845 H   0  0  0  0  0  0  0  0  0  0  0  0
   59.9413   25.5424   46.3625 H   0  0  0  0  0  0  0  0  0  0  0  0
   58.3131   30.0799   43.0090 H   0  0  0  0  0  0  0  0  0  0  0  0
   56.5468   30.2553   43.3234 H   0  0  0  0  0  0  0  0  0  0  0  0
   57.2235   32.7810   43.0631 H   0  0  0  0  0  0  0  0  0  0  0  0
   57.5956   34.8004   44.4739 H   0  0  0  0  0  0  0  0  0  0  0  0
   58.3571   34.5604   46.8352 H   0  0  0  0  0  0  0  0  0  0  0  0
   64.1560   31.7049   46.5167 H   0  0  0  0  0  0  0  0  0  0  0  0
   64.7208   33.9480   47.4693 H   0  0  0  0  0  0  0  0  0  0  0  0
   63.0620   35.1150   48.9318 H   0  0  0  0  0  0  0  0  0  0  0  0
   59.7460   33.7600   49.7790 H   0  0  0  0  0  0  0  0  0  0  0  0
   58.4209   30.2540   46.3685 H   0  0  0  0  0  0  0  0  0  0  0  0
  1  2  1  0
  2  3  1  0
  3  4  1  0
  4  5  1  0
  5  6  1  0
  6  7  1  0
  7  8  2  0
  7  9  1  0
  9 10  1  0
 10 11  1  0
 10 12  2  0
 12 13  1  0
 13 14  1  0
 14 15  2  0
 15 16  1  0
 16 17  2  0
 17 18  1  0
 18 19  1  0
 19 20  2  0
 19 21  1  0
 21 22  2  3
 22 23  1  0
 23 24  1  0
 24 25  2  0
 25 26  1  0
 26 27  2  0
 27 28  1  0
 18 29  2  0
 12 30  1  0
 30 31  2  0
 30  6  1  0
 29 14  1  0
 27 22  1  0
  1 32  1  0
  1 33  1  0
  1 34  1  0
  2 35  1  0
  2 36  1  0
  3 37  1  0
  3 38  1  0
  4 39  1  0
  4 40  1  0
  5 41  1  0
  5 42  1  0
 13 43  1  0
 13 44  1  0
 15 45  1  0
 16 46  1  0
 17 47  1  0
 24 48  1  0
 25 49  1  0
 26 50  1  0
 28 51  1  0
 29 52  1  0
M  CHG  3   9  -1  11  -1  23  -1
M  END
>  <UniqueID>  (80) 
78

>  <SMILES>  (80) 
CCCCCn1c(=O)[n-]c([O-])c(Cc2cccc(C(=O)N=c3[n-]cccc3O)c2)c1=O

>  <Energy>  (80) 
53.85118534803877

>  <Genealogy>  (80) 
CCCCCn1c(=O)[n-]c([O-])c(Cc2cccc(C(=O)N=c3[n-]cccc3O)c2)c1=O (protonated)
CCCCCn1c(=O)[n-]c([O-])c(Cc2cccc(C(=O)N=c3[n-]cccc3O)c2)c1=O (3D coordinates assigned)
CCCCCn1c(=O)[n-]c([O-])c(Cc2cccc(C(=O)N=c3[n-]cccc3O)c2)c1=O (optimized conformer: 53.85118534803877 kcal/mol)

>  <smiles>  (80) 
CCCCCn1c(=O)[nH]c(O)c(Cc2cccc(C(=O)N=c3[nH]cccc3O)c2)c1=O

>  <score_type>  (80) 
oracle

>  <origin>  (80) 
adg

>  <m_score__min__energy>  (80) 
-15.02

>  <m_primary>  (80) 
energy

$$$$
80:0
     RDKit          3D

 72 75  0  0  0  0  0  0  0  0999 V2000
   57.7680   33.8790   52.5740 C   0  0  0  0  0  0  0  0  0  0  0  0
   58.8450   33.1490   51.8150 C   0  0  0  0  0  0  0  0  0  0  0  0
   59.9830   33.8610   51.3950 C   0  0  0  0  0  0  0  0  0  0  0  0
   61.0040   33.2210   50.6910 C   0  0  0  0  0  0  0  0  0  0  0  0
   60.9080   31.8590   50.3990 C   0  0  0  0  0  0  0  0  0  0  0  0
   62.1960   31.0570   49.5050 S   0  0  0  0  0  0  0  0  0  0  0  0
   62.4990   29.7180   50.1170 O   0  0  0  0  0  0  0  0  0  0  0  0
   63.4380   31.9000   49.5810 O   0  0  0  0  0  0  0  0  0  0  0  0
   61.7550   30.8400   47.8420 N   0  0  0  0  0  0  0  0  0  0  0  0
   60.5250   30.2000   47.4840 C   0  0  0  0  0  0  0  0  0  0  0  0
   60.0720   29.0710   48.1830 C   0  0  0  0  0  0  0  0  0  0  0  0
   58.8830   28.4400   47.8080 C   0  0  0  0  0  0  0  0  0  0  0  0
   58.1380   28.9310   46.7330 C   0  0  0  0  0  0  0  0  0  0  0  0
   58.5710   30.0690   46.0380 C   0  0  0  0  0  0  0  0  0  0  0  0
   57.8110   30.5590   44.9240 N   0  0  0  0  0  0  0  0  0  0  0  0
   58.1330   31.8560   44.3200 C   0  0  0  0  0  0  0  0  0  0  0  0
   57.8230   32.9870   45.2650 C   0  0  0  0  0  0  0  0  0  0  0  0
   56.6290   33.3870   45.3460 O   0  0  0  0  0  0  0  0  0  0  0  0
   58.8470   33.6190   46.0670 N   0  0  0  0  0  0  0  0  0  0  0  0
   58.4590   34.5710   47.1160 C   0  0  0  0  0  0  0  0  0  0  0  0
   59.5240   34.5970   48.2170 C   0  0  0  0  0  0  0  0  0  0  0  0
   60.8070   34.8320   47.6710 O   0  0  0  0  0  0  0  0  0  0  0  0
   61.1780   33.7460   46.8430 C   0  0  0  0  0  0  0  0  0  0  0  0
   60.2490   33.6420   45.6280 C   0  0  0  0  0  0  0  0  0  0  0  0
   56.8310   29.4290   44.0400 S   0  0  0  0  0  0  0  0  0  0  0  0
   57.7800   27.9580   43.7250 C   0  0  0  0  0  0  0  0  0  0  0  0
   55.6130   29.0690   44.8430 O   0  0  0  0  0  0  0  0  0  0  0  0
   56.3890   30.0310   42.7380 O   0  0  0  0  0  0  0  0  0  0  0  0
   59.7600   30.7080   46.4260 C   0  0  0  0  0  0  0  0  0  0  0  0
   59.7840   31.1370   50.8150 C   0  0  0  0  0  0  0  0  0  0  0  0
   58.7480   31.7650   51.5260 C   0  0  0  0  0  0  0  0  0  0  0  0
   57.3290   30.8090   51.9960 S   0  0  0  0  0  0  0  0  0  0  0  0
   56.0780   31.5310   51.5790 O   0  0  0  0  0  0  0  0  0  0  0  0
   57.3990   29.4840   51.2890 O   0  0  0  0  0  0  0  0  0  0  0  0
   57.3160   30.5540   53.7320 N   0  0  0  0  0  0  0  0  0  0  0  0
   56.6110   29.3050   54.1030 C   0  0  0  0  0  0  0  0  0  0  0  0
   57.5750   28.1370   54.3830 C   0  0  0  0  0  0  0  0  0  0  0  0
   58.7200   28.2410   53.5680 O   0  0  0  0  0  0  0  0  0  0  0  0
   59.5050   29.3570   53.9550 C   0  0  0  0  0  0  0  0  0  0  0  0
   58.6720   30.6140   54.3040 C   0  0  0  0  0  0  0  0  0  0  0  0
   57.9384   33.7635   53.6546 H   0  0  0  0  0  0  0  0  0  0  0  0
   57.7935   34.9468   52.3109 H   0  0  0  0  0  0  0  0  0  0  0  0
   56.7856   33.4598   52.3109 H   0  0  0  0  0  0  0  0  0  0  0  0
   60.0691   34.9335   51.6238 H   0  0  0  0  0  0  0  0  0  0  0  0
   61.8866   33.7910   50.3653 H   0  0  0  0  0  0  0  0  0  0  0  0
   62.5310   30.8550   47.1430 H   0  0  0  0  0  0  0  0  0  0  0  0
   60.6554   28.6808   49.0300 H   0  0  0  0  0  0  0  0  0  0  0  0
   58.5330   27.5553   48.3601 H   0  0  0  0  0  0  0  0  0  0  0  0
   57.2098   28.4237   46.4313 H   0  0  0  0  0  0  0  0  0  0  0  0
   59.2040   31.8799   44.0704 H   0  0  0  0  0  0  0  0  0  0  0  0
   57.5216   31.9806   43.4141 H   0  0  0  0  0  0  0  0  0  0  0  0
   58.3619   35.5757   46.6788 H   0  0  0  0  0  0  0  0  0  0  0  0
   57.4974   34.2595   47.5499 H   0  0  0  0  0  0  0  0  0  0  0  0
   59.2842   35.3982   48.9315 H   0  0  0  0  0  0  0  0  0  0  0  0
   59.5305   33.6206   48.7235 H   0  0  0  0  0  0  0  0  0  0  0  0
   62.2108   33.8949   46.4949 H   0  0  0  0  0  0  0  0  0  0  0  0
   61.0993   32.8166   47.4261 H   0  0  0  0  0  0  0  0  0  0  0  0
   60.4106   34.5091   44.9708 H   0  0  0  0  0  0  0  0  0  0  0  0
   60.4714   32.7132   45.0822 H   0  0  0  0  0  0  0  0  0  0  0  0
   58.0752   27.5004   44.6808 H   0  0  0  0  0  0  0  0  0  0  0  0
   57.1711   27.2450   43.1497 H   0  0  0  0  0  0  0  0  0  0  0  0
   58.6806   28.2188   43.1497 H   0  0  0  0  0  0  0  0  0  0  0  0
   60.0925   31.6127   45.8960 H   0  0  0  0  0  0  0  0  0  0  0  0
   59.7107   30.0644   50.5824 H   0  0  0  0  0  0  0  0  0  0  0  0
   56.0147   29.4934   55.0080 H   0  0  0  0  0  0  0  0  0  0  0  0
   55.9784   29.0157   53.2508 H   0  0  0  0  0  0  0  0  0  0  0  0
   57.8785   28.1626   55.4400 H   0  0  0  0  0  0  0  0  0  0  0  0
   57.0627   27.1894   54.1606 H   0  0  0  0  0  0  0  0  0  0  0  0
   60.0960   29.0758   54.8391 H   0  0  0  0  0  0  0  0  0  0  0  0
   60.1365   29.6195   53.0934 H   0  0  0  0  0  0  0  0  0  0  0  0
   58.5926   30.6948   55.3981 H   0  0  0  0  0  0  0  0  0  0  0  0
   59.1826   31.4894   53.8762 H   0  0  0  0  0  0  0  0  0  0  0  0
  1  2  1  0
  2  3  2  0
  3  4  1  0
  4  5  2  0
  5  6  1  0
  6  7  2  0
  6  8  2  0
  6  9  1  0
  9 10  1  0
 10 11  2  0
 11 12  1  0
 12 13  2  0
 13 14  1  0
 14 15  1  0
 15 16  1  0
 16 17  1  0
 17 18  2  0
 17 19  1  0
 19 20  1  0
 20 21  1  0
 21 22  1  0
 22 23  1  0
 23 24  1  0
 15 25  1  0
 25 26  1  0
 25 27  2  0
 25 28  2  0
 14 29  2  0
  5 30  1  0
 30 31  2  0
 31 32  1  0
 32 33  2  0
 32 34  2  0
 32 35  1  0
 35 36  1  0
 36 37  1  0
 37 38  1  0
 38 39  1  0
 39 40  1  0
 31  2  1  0
 40 35  1  0
 29 10  1  0
 24 19  1  0
  1 41  1  0
  1 42  1  0
  1 43  1  0
  3 44  1  0
  4 45  1  0
  9 46  1  0
 11 47  1  0
 12 48  1  0
 13 49  1  0
 16 50  1  0
 16 51  1  0
 20 52  1  0
 20 53  1  0
 21 54  1  0
 21 55  1  0
 23 56  1  0
 23 57  1  0
 24 58  1  0
 24 59  1  0
 26 60  1  0
 26 61  1  0
 26 62  1  0
 29 63  1  0
 30 64  1  0
 36 65  1  0
 36 66  1  0
 37 67  1  0
 37 68  1  0
 39 69  1  0
 39 70  1  0
 40 71  1  0
 40 72  1  0
M  END
>  <UniqueID>  (81) 
79

>  <SMILES>  (81) 
Cc1ccc(S(=O)(=O)Nc2cccc(N(CC(=O)N3CCOCC3)S(C)(=O)=O)c2)cc1S(=O)(=O)N1CCOCC1

>  <Energy>  (81) 
94.04665833764793

>  <Genealogy>  (81) 
Cc1ccc(S(=O)(=O)Nc2cccc(N(CC(=O)N3CCOCC3)S(C)(=O)=O)c2)cc1S(=O)(=O)N1CCOCC1 (3D coordinates assigned)
Cc1ccc(S(=O)(=O)Nc2cccc(N(CC(=O)N3CCOCC3)S(C)(=O)=O)c2)cc1S(=O)(=O)N1CCOCC1 (nonaromatic ring conformer: 94.04665833764793 kcal/mol)

>  <smiles>  (81) 
Cc1ccc(S(=O)(=O)Nc2cccc(N(CC(=O)N3CCOCC3)S(C)(=O)=O)c2)cc1S(=O)(=O)N1CCOCC1

>  <score_type>  (81) 
oracle

>  <origin>  (81) 
adg

>  <m_score__min__energy>  (81) 
-11.76

>  <m_primary>  (81) 
energy

$$$$
81:0
     RDKit          3D

 48 50  0  0  0  0  0  0  0  0999 V2000
   55.9100   31.4660   44.8570 O   0  0  0  0  0  0  0  0  0  0  0  0
   56.0240   30.3200   44.3490 C   0  0  0  0  0  0  0  0  0  0  0  0
   55.1800   29.2960   44.7620 O   0  0  0  0  0  0  0  0  0  0  0  0
   57.0270   30.0730   43.2680 C   0  0  0  0  0  0  0  0  0  0  0  0
   57.0080   28.6010   42.8430 C   0  0  0  0  0  0  0  0  0  0  0  0
   58.2000   27.8140   43.4080 C   0  0  0  0  0  0  0  0  0  0  0  0
   58.3560   28.0100   44.9040 C   0  0  0  0  0  0  0  0  0  0  0  0
   58.9880   29.1780   45.3580 C   0  0  0  0  0  0  0  0  0  0  0  0
   59.0920   29.4540   46.7210 C   0  0  0  0  0  0  0  0  0  0  0  0
   58.5570   28.5690   47.6690 C   0  0  0  0  0  0  0  0  0  0  0  0
   58.6280   28.8370   49.0820 N   0  0  0  0  0  0  0  0  0  0  0  0
   59.7190   29.5680   49.7280 C   0  0  0  0  0  0  0  0  0  0  0  0
   59.1890   30.7750   50.4630 C   0  0  0  0  0  0  0  0  0  0  0  0
   59.8150   32.0250   50.3100 C   0  0  0  0  0  0  0  0  0  0  0  0
   59.3200   33.1500   50.9760 C   0  0  0  0  0  0  0  0  0  0  0  0
   58.2010   33.0360   51.8060 C   0  0  0  0  0  0  0  0  0  0  0  0
   57.5780   31.7980   51.9740 C   0  0  0  0  0  0  0  0  0  0  0  0
   58.0680   30.6670   51.3100 C   0  0  0  0  0  0  0  0  0  0  0  0
   57.4360   29.4430   51.4960 O   0  0  0  0  0  0  0  0  0  0  0  0
   57.9410   27.3910   47.2260 C   0  0  0  0  0  0  0  0  0  0  0  0
   57.8330   27.0980   45.8560 C   0  0  0  0  0  0  0  0  0  0  0  0
   57.1800   25.8290   45.4640 C   0  0  0  0  0  0  0  0  0  0  0  0
   57.9580   24.7570   44.9960 C   0  0  0  0  0  0  0  0  0  0  0  0
   57.3540   23.5490   44.6420 C   0  0  0  0  0  0  0  0  0  0  0  0
   55.9700   23.3940   44.7650 C   0  0  0  0  0  0  0  0  0  0  0  0
   55.3710   22.1920   44.4110 O   0  0  0  0  0  0  0  0  0  0  0  0
   55.1900   24.4480   45.2490 C   0  0  0  0  0  0  0  0  0  0  0  0
   55.7880   25.6620   45.6050 C   0  0  0  0  0  0  0  0  0  0  0  0
   54.9960   26.6970   46.0920 O   0  0  0  0  0  0  0  0  0  0  0  0
   56.7856   30.7035   42.3995 H   0  0  0  0  0  0  0  0  0  0  0  0
   58.0287   30.3197   43.6496 H   0  0  0  0  0  0  0  0  0  0  0  0
   56.0769   28.1406   43.2051 H   0  0  0  0  0  0  0  0  0  0  0  0
   57.0734   28.5675   41.7455 H   0  0  0  0  0  0  0  0  0  0  0  0
   58.0469   26.7439   43.2046 H   0  0  0  0  0  0  0  0  0  0  0  0
   59.1132   28.1864   42.9207 H   0  0  0  0  0  0  0  0  0  0  0  0
   59.4074   29.8860   44.6281 H   0  0  0  0  0  0  0  0  0  0  0  0
   59.5971   30.3722   47.0552 H   0  0  0  0  0  0  0  0  0  0  0  0
   57.8110   28.5730   49.6800 H   0  0  0  0  0  0  0  0  0  0  0  0
   60.2257   28.9032   50.4431 H   0  0  0  0  0  0  0  0  0  0  0  0
   60.4254   29.9058   48.9553 H   0  0  0  0  0  0  0  0  0  0  0  0
   60.6993   32.1180   49.6625 H   0  0  0  0  0  0  0  0  0  0  0  0
   59.8114   34.1256   50.8468 H   0  0  0  0  0  0  0  0  0  0  0  0
   57.8109   33.9226   52.3273 H   0  0  0  0  0  0  0  0  0  0  0  0
   56.6994   31.7109   52.6301 H   0  0  0  0  0  0  0  0  0  0  0  0
   57.5349   26.6832   47.9636 H   0  0  0  0  0  0  0  0  0  0  0  0
   59.0486   24.8699   44.9080 H   0  0  0  0  0  0  0  0  0  0  0  0
   57.9682   22.7177   44.2656 H   0  0  0  0  0  0  0  0  0  0  0  0
   54.1019   24.3227   45.3505 H   0  0  0  0  0  0  0  0  0  0  0  0
  1  2  2  0
  2  3  1  0
  2  4  1  0
  4  5  1  0
  5  6  1  0
  6  7  1  0
  7  8  2  0
  8  9  1  0
  9 10  2  0
 10 11  1  0
 11 12  1  0
 12 13  1  0
 13 14  2  0
 14 15  1  0
 15 16  2  0
 16 17  1  0
 17 18  2  0
 18 19  1  0
 10 20  1  0
 20 21  2  0
 21 22  1  0
 22 23  2  0
 23 24  1  0
 24 25  2  0
 25 26  1  0
 25 27  1  0
 27 28  2  0
 28 29  1  0
 21  7  1  0
 28 22  1  0
 18 13  1  0
  4 30  1  0
  4 31  1  0
  5 32  1  0
  5 33  1  0
  6 34  1  0
  6 35  1  0
  8 36  1  0
  9 37  1  0
 11 38  1  0
 12 39  1  0
 12 40  1  0
 14 41  1  0
 15 42  1  0
 16 43  1  0
 17 44  1  0
 20 45  1  0
 23 46  1  0
 24 47  1  0
 27 48  1  0
M  CHG  4   3  -1  19  -1  26  -1  29  -1
M  END
>  <UniqueID>  (82) 
80

>  <SMILES>  (82) 
O=C([O-])CCCc1ccc(NCc2ccccc2[O-])cc1-c1ccc([O-])cc1[O-]

>  <Energy>  (82) 
53.45977754667305

>  <Genealogy>  (82) 
O=C([O-])CCCc1ccc(NCc2ccccc2[O-])cc1-c1ccc([O-])cc1[O-] (protonated)
O=C([O-])CCCc1ccc(NCc2ccccc2[O-])cc1-c1ccc([O-])cc1[O-] (3D coordinates assigned)
O=C([O-])CCCc1ccc(NCc2ccccc2[O-])cc1-c1ccc([O-])cc1[O-] (optimized conformer: 53.45977754667305 kcal/mol)

>  <smiles>  (82) 
O=C(O)CCCc1ccc(NCc2ccccc2O)cc1-c1ccc(O)cc1O

>  <score_type>  (82) 
oracle

>  <origin>  (82) 
adg

>  <m_score__min__energy>  (82) 
-17.07

>  <m_primary>  (82) 
energy

$$$$
82:0
     RDKit          3D

 35 36  0  0  0  0  0  0  0  0999 V2000
   57.2900   25.1950   44.8100 C   0  0  0  0  0  0  0  0  0  0  0  0
   56.5720   26.0390   46.2060 S   0  0  0  0  0  0  0  0  0  0  0  0
   55.0910   26.1590   45.9830 O   0  0  0  0  0  0  0  0  0  0  0  0
   56.8120   25.2600   47.4690 O   0  0  0  0  0  0  0  0  0  0  0  0
   57.2440   27.6310   46.3550 N   0  0  0  0  0  0  0  0  0  0  0  0
   56.9360   28.7470   45.5090 C   0  0  0  0  0  0  0  0  0  0  0  0
   57.8380   29.8060   45.3140 C   0  0  0  0  0  0  0  0  0  0  0  0
   57.5150   30.8400   44.4220 C   0  0  0  0  0  0  0  0  0  0  0  0
   58.4850   31.9690   44.1700 C   0  0  0  0  0  0  0  0  0  0  0  0
   58.9790   32.5280   45.4280 N   0  0  0  0  0  0  0  0  0  0  0  0
   58.3960   33.6850   46.0390 C   0  0  0  0  0  0  0  0  0  0  0  0
   57.2820   34.1180   45.6350 O   0  0  0  0  0  0  0  0  0  0  0  0
   59.0670   34.3080   47.1430 N   0  0  0  0  0  0  0  0  0  0  0  0
   60.2420   34.0200   47.6310 C   0  0  0  0  0  0  0  0  0  0  0  0
   60.5770   34.2220   48.9880 C   0  0  0  0  0  0  0  0  0  0  0  0
   61.8660   33.9180   49.4300 C   0  0  0  0  0  0  0  0  0  0  0  0
   62.8130   33.4240   48.5320 C   0  0  0  0  0  0  0  0  0  0  0  0
   64.4370   33.0450   49.0740 Cl  0  0  0  0  0  0  0  0  0  0  0  0
   62.4550   33.2480   47.1950 C   0  0  0  0  0  0  0  0  0  0  0  0
   61.1960   33.5520   46.7810 N   0  0  0  0  0  0  0  0  0  0  0  0
   56.2660   30.8280   43.7870 C   0  0  0  0  0  0  0  0  0  0  0  0
   55.3810   29.7760   44.0300 C   0  0  0  0  0  0  0  0  0  0  0  0
   55.7350   28.7680   44.8700 N   0  0  0  0  0  0  0  0  0  0  0  0
   57.9640   24.4027   45.1676 H   0  0  0  0  0  0  0  0  0  0  0  0
   56.4905   24.7488   44.2004 H   0  0  0  0  0  0  0  0  0  0  0  0
   57.8586   25.9127   44.2004 H   0  0  0  0  0  0  0  0  0  0  0  0
   58.7937   29.8247   45.8583 H   0  0  0  0  0  0  0  0  0  0  0  0
   59.3365   31.5880   43.5870 H   0  0  0  0  0  0  0  0  0  0  0  0
   57.9620   32.7625   43.6160 H   0  0  0  0  0  0  0  0  0  0  0  0
   59.8430   32.1210   45.8520 H   0  0  0  0  0  0  0  0  0  0  0  0
   59.8283   34.6157   49.6912 H   0  0  0  0  0  0  0  0  0  0  0  0
   62.1350   34.0679   50.4860 H   0  0  0  0  0  0  0  0  0  0  0  0
   63.1921   32.8629   46.4750 H   0  0  0  0  0  0  0  0  0  0  0  0
   55.9849   31.6415   43.1021 H   0  0  0  0  0  0  0  0  0  0  0  0
   54.3958   29.7629   43.5409 H   0  0  0  0  0  0  0  0  0  0  0  0
  1  2  1  0
  2  3  2  0
  2  4  2  0
  2  5  1  0
  5  6  1  0
  6  7  2  0
  7  8  1  0
  8  9  1  0
  9 10  1  0
 10 11  1  0
 11 12  2  0
 11 13  1  0
 13 14  2  3
 14 15  1  0
 15 16  2  0
 16 17  1  0
 17 18  1  0
 17 19  2  0
 19 20  1  0
  8 21  2  0
 21 22  1  0
 22 23  2  0
 23  6  1  0
 20 14  1  0
  1 24  1  0
  1 25  1  0
  1 26  1  0
  7 27  1  0
  9 28  1  0
  9 29  1  0
 10 30  1  0
 15 31  1  0
 16 32  1  0
 19 33  1  0
 21 34  1  0
 22 35  1  0
M  CHG  2   5  -1  20  -1
M  END
>  <UniqueID>  (83) 
81

>  <SMILES>  (83) 
CS(=O)(=O)[N-]c1cc(CNC(=O)N=c2ccc(Cl)c[n-]2)ccn1

>  <Energy>  (83) 
39.39918644689004

>  <Genealogy>  (83) 
CS(=O)(=O)[N-]c1cc(CNC(=O)N=c2ccc(Cl)c[n-]2)ccn1 (protonated)
CS(=O)(=O)[N-]c1cc(CNC(=O)N=c2ccc(Cl)c[n-]2)ccn1 (3D coordinates assigned)
CS(=O)(=O)[N-]c1cc(CNC(=O)N=c2ccc(Cl)c[n-]2)ccn1 (optimized conformer: 39.39918644689004 kcal/mol)

>  <smiles>  (83) 
CS(=O)(=O)Nc1cc(CNC(=O)N=c2ccc(Cl)c[nH]2)ccn1

>  <score_type>  (83) 
oracle

>  <origin>  (83) 
adg

>  <m_score__min__energy>  (83) 
-11.17

>  <m_primary>  (83) 
energy

$$$$
83:0
     RDKit          3D

 50 52  0  0  0  0  0  0  0  0999 V2000
   59.2807   30.8306   44.1246 H   0  0  0  0  0  0  0  0  0  0  0  0
   58.8810   30.5910   45.1210 C   0  0  0  0  0  0  0  0  0  0  0  0
   58.1060   29.4860   45.2300 C   0  0  0  0  0  0  0  0  0  0  0  0
   56.6470   29.4750   44.9450 C   0  0  0  0  0  0  0  0  0  0  0  0
   56.0780   30.4470   44.3830 O   0  0  0  0  0  0  0  0  0  0  0  0
   55.8750   28.3160   45.2470 N   0  0  0  0  0  0  0  0  0  0  0  0
   56.4750   27.1220   45.7470 C   0  0  0  0  0  0  0  0  0  0  0  0
   55.7430   26.1270   45.9940 O   0  0  0  0  0  0  0  0  0  0  0  0
   57.8990   27.0550   45.9480 N   0  0  0  0  0  0  0  0  0  0  0  0
   58.5210   25.7930   46.3650 C   0  0  0  0  0  0  0  0  0  0  0  0
   58.5461   25.7420   47.4635 H   0  0  0  0  0  0  0  0  0  0  0  0
   57.9360   24.9484   45.9720 H   0  0  0  0  0  0  0  0  0  0  0  0
   59.5472   25.7426   45.9720 H   0  0  0  0  0  0  0  0  0  0  0  0
   58.7230   28.1910   45.6180 C   0  0  0  0  0  0  0  0  0  0  0  0
   59.9810   28.0850   45.6710 O   0  0  0  0  0  0  0  0  0  0  0  0
   59.2340   31.5010   46.2290 C   0  0  0  0  0  0  0  0  0  0  0  0
   58.2180   32.0580   47.0110 C   0  0  0  0  0  0  0  0  0  0  0  0
   57.1693   31.7863   46.8199 H   0  0  0  0  0  0  0  0  0  0  0  0
   58.5270   32.9570   48.0330 C   0  0  0  0  0  0  0  0  0  0  0  0
   57.7213   33.3786   48.6520 H   0  0  0  0  0  0  0  0  0  0  0  0
   59.8640   33.3280   48.2770 C   0  0  0  0  0  0  0  0  0  0  0  0
   60.2200   34.2190   49.3050 O   0  0  0  0  0  0  0  0  0  0  0  0
   60.5700   33.8460   50.6380 C   0  0  0  0  0  0  0  0  0  0  0  0
   60.5155   34.7320   51.2876 H   0  0  0  0  0  0  0  0  0  0  0  0
   59.8673   33.0750   50.9870 H   0  0  0  0  0  0  0  0  0  0  0  0
   61.9610   33.2880   50.6810 C   0  0  0  0  0  0  0  0  0  0  0  0
   62.1220   32.0460   50.8300 O   0  0  0  0  0  0  0  0  0  0  0  0
   63.0960   34.1570   50.5570 N   0  0  0  0  0  0  0  0  0  0  0  0
   62.9380   35.1900   50.5820 H   0  0  0  0  0  0  0  0  0  0  0  0
   64.4400   33.6840   50.7200 C   0  0  0  0  0  0  0  0  0  0  0  0
   65.2530   34.2790   51.6960 C   0  0  0  0  0  0  0  0  0  0  0  0
   64.8611   35.1096   52.3014 H   0  0  0  0  0  0  0  0  0  0  0  0
   66.5560   33.8240   51.9040 C   0  0  0  0  0  0  0  0  0  0  0  0
   67.1842   34.2913   52.6767 H   0  0  0  0  0  0  0  0  0  0  0  0
   67.0630   32.7770   51.1330 C   0  0  0  0  0  0  0  0  0  0  0  0
   68.0864   32.4126   51.3059 H   0  0  0  0  0  0  0  0  0  0  0  0
   66.2710   32.1910   50.1410 C   0  0  0  0  0  0  0  0  0  0  0  0
   66.6763   31.3688   49.5329 H   0  0  0  0  0  0  0  0  0  0  0  0
   64.9620   32.6450   49.9160 C   0  0  0  0  0  0  0  0  0  0  0  0
   64.1980   32.0750   48.8450 N   0  0  0  0  0  0  0  0  0  0  0  0
   64.5950   32.0210   47.8810 H   0  0  0  0  0  0  0  0  0  0  0  0
   63.2130   31.7610   48.9810 H   0  0  0  0  0  0  0  0  0  0  0  0
   60.8860   32.8010   47.4720 C   0  0  0  0  0  0  0  0  0  0  0  0
   62.2080   33.1980   47.7280 O   0  0  0  0  0  0  0  0  0  0  0  0
   63.0570   33.8360   46.7780 C   0  0  0  0  0  0  0  0  0  0  0  0
   63.8282   34.4156   47.3065 H   0  0  0  0  0  0  0  0  0  0  0  0
   63.5387   33.0745   46.1471 H   0  0  0  0  0  0  0  0  0  0  0  0
   62.4595   34.5105   46.1471 H   0  0  0  0  0  0  0  0  0  0  0  0
   60.5640   31.8970   46.4400 C   0  0  0  0  0  0  0  0  0  0  0  0
   61.3610   31.4987   45.7949 H   0  0  0  0  0  0  0  0  0  0  0  0
  1  2  1  0
  2  3  2  0
  3  4  1  0
  4  5  2  0
  4  6  1  0
  6  7  1  0
  7  8  2  0
  7  9  1  0
  9 10  1  0
 10 11  1  0
 10 12  1  0
 10 13  1  0
  9 14  1  0
 14 15  2  0
  2 16  1  0
 16 17  2  0
 17 18  1  0
 17 19  1  0
 19 20  1  0
 19 21  2  0
 21 22  1  0
 22 23  1  0
 23 24  1  0
 23 25  1  0
 23 26  1  0
 26 27  2  0
 26 28  1  0
 28 29  1  0
 28 30  1  0
 30 31  2  0
 31 32  1  0
 31 33  1  0
 33 34  1  0
 33 35  2  0
 35 36  1  0
 35 37  1  0
 37 38  1  0
 37 39  2  0
 39 40  1  0
 40 41  1  0
 40 42  1  0
 21 43  1  0
 43 44  1  0
 44 45  1  0
 45 46  1  0
 45 47  1  0
 45 48  1  0
 43 49  2  0
 49 50  1  0
 14  3  1  0
 49 16  1  0
 39 30  1  0
M  CHG  1   6  -1
M  END
>  <UniqueID>  (84) 
82

>  <SMILES>  (84) 
COc1cc(/C=C2\C(=O)[N-]C(=O)N(C)C2=O)ccc1OCC(=O)Nc1ccccc1N

>  <Energy>  (84) 
65.4922074620834

>  <Genealogy>  (84) 
COc1cc(C=C2C(=O)[N-]C(=O)N(C)C2=O)ccc1OCC(=O)Nc1ccccc1N (protonated)
COc1cc(/C=C2\C(=O)[N-]C(=O)N(C)C2=O)ccc1OCC(=O)Nc1ccccc1N (cis-trans isomerization)
COc1cc(/C=C2\C(=O)[N-]C(=O)N(C)C2=O)ccc1OCC(=O)Nc1ccccc1N (3D coordinates assigned)
COc1cc(/C=C2\C(=O)[N-]C(=O)N(C)C2=O)ccc1OCC(=O)Nc1ccccc1N (nonaromatic ring conformer: 65.4922074620834 kcal/mol)

>  <smiles>  (84) 
COc1cc(C=C2C(=O)NC(=O)N(C)C2=O)ccc1OCC(=O)Nc1ccccc1N

>  <score_type>  (84) 
oracle

>  <origin>  (84) 
adg

>  <m_score__min__energy>  (84) 
-10.15

>  <m_primary>  (84) 
energy

$$$$
84:0
     RDKit          3D

 39 40  0  0  0  0  0  0  0  0999 V2000
   57.9620   27.0590   43.3810 C   0  0  0  0  0  0  0  0  0  0  0  0
   57.7920   26.8650   44.8900 C   0  0  1  0  0  0  0  0  0  0  0  0
   57.0020   27.9570   45.4570 N   0  0  0  0  0  0  0  0  0  0  0  0
   56.5120   29.0770   44.7110 C   0  0  0  0  0  0  0  0  0  0  0  0
   55.3020   29.4190   44.7830 O   0  0  0  0  0  0  0  0  0  0  0  0
   57.4480   29.8120   43.8040 C   0  0  0  0  0  0  0  0  0  0  0  0
   57.2900   31.3220   43.9950 C   0  0  0  0  0  0  0  0  0  0  0  0
   57.0230   31.6400   45.4010 N   0  0  0  0  0  0  0  0  0  0  0  0
   57.8010   33.1270   45.8720 S   0  0  0  0  0  0  0  0  0  0  0  0
   57.0400   33.7640   47.0020 O   0  0  0  0  0  0  0  0  0  0  0  0
   57.8160   34.0680   44.7020 O   0  0  0  0  0  0  0  0  0  0  0  0
   59.4570   32.8270   46.3750 C   0  0  0  0  0  0  0  0  0  0  0  0
   59.9750   31.5900   46.7370 C   0  0  0  0  0  0  0  0  0  0  0  0
   61.3130   31.6590   47.1450 C   0  0  0  0  0  0  0  0  0  0  0  0
   61.8330   32.9480   47.1020 C   0  0  0  0  0  0  0  0  0  0  0  0
   63.6230   33.4430   47.5490 Br  0  0  0  0  0  0  0  0  0  0  0  0
   60.6430   34.0090   46.5640 S   0  0  0  0  0  0  0  0  0  0  0  0
   57.1110   25.5400   45.1760 C   0  0  0  0  0  0  0  0  0  0  0  0
   57.8050   24.3270   44.9810 C   0  0  0  0  0  0  0  0  0  0  0  0
   57.1920   23.1030   45.2560 C   0  0  0  0  0  0  0  0  0  0  0  0
   55.8910   23.0700   45.7610 C   0  0  0  0  0  0  0  0  0  0  0  0
   55.2010   24.2640   45.9960 C   0  0  0  0  0  0  0  0  0  0  0  0
   55.8070   25.5000   45.7180 C   0  0  0  0  0  0  0  0  0  0  0  0
   55.1170   26.6860   45.9880 O   0  0  0  0  0  0  0  0  0  0  0  0
   58.6764   27.8743   43.1943 H   0  0  0  0  0  0  0  0  0  0  0  0
   58.3413   26.1291   42.9322 H   0  0  0  0  0  0  0  0  0  0  0  0
   56.9904   27.3130   42.9322 H   0  0  0  0  0  0  0  0  0  0  0  0
   58.7890   26.8649   45.3548 H   0  0  0  0  0  0  0  0  0  0  0  0
   58.4831   29.5223   44.0376 H   0  0  0  0  0  0  0  0  0  0  0  0
   57.2132   29.5551   42.7605 H   0  0  0  0  0  0  0  0  0  0  0  0
   58.2163   31.8249   43.6804 H   0  0  0  0  0  0  0  0  0  0  0  0
   56.4423   31.6693   43.3861 H   0  0  0  0  0  0  0  0  0  0  0  0
   59.3957   30.6554   46.7065 H   0  0  0  0  0  0  0  0  0  0  0  0
   61.8939   30.7821   47.4670 H   0  0  0  0  0  0  0  0  0  0  0  0
   58.8398   24.3459   44.6084 H   0  0  0  0  0  0  0  0  0  0  0  0
   57.7349   22.1637   45.0745 H   0  0  0  0  0  0  0  0  0  0  0  0
   55.4083   22.1049   45.9742 H   0  0  0  0  0  0  0  0  0  0  0  0
   54.1785   24.2346   46.4006 H   0  0  0  0  0  0  0  0  0  0  0  0
   55.1660   27.4850   45.3630 H   0  0  0  0  0  0  0  0  0  0  0  0
  1  2  1  0
  2  3  1  0
  3  4  1  0
  4  5  2  0
  4  6  1  0
  6  7  1  0
  7  8  1  0
  8  9  1  0
  9 10  2  0
  9 11  2  0
  9 12  1  0
 12 13  2  0
 13 14  1  0
 14 15  2  0
 15 16  1  0
 15 17  1  0
  2 18  1  0
 18 19  2  0
 19 20  1  0
 20 21  2  0
 21 22  1  0
 22 23  2  0
 23 24  1  0
 17 12  1  0
 23 18  1  0
  1 25  1  0
  1 26  1  0
  1 27  1  0
  2 28  1  1
  6 29  1  0
  6 30  1  0
  7 31  1  0
  7 32  1  0
 13 33  1  0
 14 34  1  0
 19 35  1  0
 20 36  1  0
 21 37  1  0
 22 38  1  0
 24 39  1  0
M  CHG  2   3  -1   8  -1
M  END
>  <UniqueID>  (85) 
83

>  <SMILES>  (85) 
C[C@@H]([N-]C(=O)CC[N-]S(=O)(=O)c1ccc(Br)s1)c1ccccc1O

>  <Energy>  (85) 
58.06520946247803

>  <Genealogy>  (85) 
CC([N-]C(=O)CC[N-]S(=O)(=O)c1ccc(Br)s1)c1ccccc1O (protonated)
C[C@@H]([N-]C(=O)CC[N-]S(=O)(=O)c1ccc(Br)s1)c1ccccc1O (chirality)
C[C@@H]([N-]C(=O)CC[N-]S(=O)(=O)c1ccc(Br)s1)c1ccccc1O (3D coordinates assigned)
C[C@@H]([N-]C(=O)CC[N-]S(=O)(=O)c1ccc(Br)s1)c1ccccc1O (optimized conformer: 58.06520946247803 kcal/mol)

>  <smiles>  (85) 
CC(NC(=O)CCNS(=O)(=O)c1ccc(Br)s1)c1ccccc1O

>  <score_type>  (85) 
oracle

>  <origin>  (85) 
adg

>  <m_score__min__energy>  (85) 
-12.779999999999999

>  <m_primary>  (85) 
energy

$$$$
85:0
     RDKit          3D

 55 57  0  0  0  0  0  0  0  0999 V2000
   55.8670   22.3710   42.5090 N   0  0  0  0  0  0  0  0  0  0  0  0
   56.6580   21.7310   43.3120 C   0  0  0  0  0  0  0  0  0  0  0  0
   56.5820   20.3020   43.3840 N   0  0  0  0  0  0  0  0  0  0  0  0
   57.6100   22.4880   44.1630 C   0  0  0  0  0  0  0  0  0  0  0  0
   58.9200   22.0210   44.3740 C   0  0  0  0  0  0  0  0  0  0  0  0
   59.8070   22.7380   45.1790 C   0  0  0  0  0  0  0  0  0  0  0  0
   59.4060   23.9320   45.7770 C   0  0  0  0  0  0  0  0  0  0  0  0
   58.1110   24.4270   45.5660 C   0  0  0  0  0  0  0  0  0  0  0  0
   57.6610   25.7000   46.2370 C   0  0  0  0  0  0  0  0  0  0  0  0
   56.5950   26.4270   45.3960 C   0  0  1  0  0  0  0  0  0  0  0  0
   55.2660   26.2260   45.9750 N   0  0  0  0  0  0  0  0  0  0  0  0
   56.9050   27.9060   45.2930 C   0  0  0  0  0  0  0  0  0  0  0  0
   55.9640   28.7210   45.0980 O   0  0  0  0  0  0  0  0  0  0  0  0
   58.2520   28.4000   45.2870 N   0  0  0  0  0  0  0  0  0  0  0  0
   58.8900   29.1260   46.3460 C   0  0  0  0  0  0  0  0  0  0  0  0
   60.0180   28.5690   46.9590 C   0  0  0  0  0  0  0  0  0  0  0  0
   60.6770   29.2530   47.9830 C   0  0  0  0  0  0  0  0  0  0  0  0
   60.2120   30.5040   48.4130 C   0  0  0  0  0  0  0  0  0  0  0  0
   60.8980   31.2350   49.4980 C   0  0  0  0  0  0  0  0  0  0  0  0
   60.3380   31.3220   50.6220 O   0  0  0  0  0  0  0  0  0  0  0  0
   62.1850   31.8390   49.3250 N   0  0  0  0  0  0  0  0  0  0  0  0
   62.5900   33.0320   48.1290 S   0  0  0  0  0  0  0  0  0  0  0  0
   63.4010   34.1230   48.7710 O   0  0  0  0  0  0  0  0  0  0  0  0
   63.4150   32.3840   47.0530 O   0  0  0  0  0  0  0  0  0  0  0  0
   61.1370   33.6940   47.3830 C   0  0  0  0  0  0  0  0  0  0  0  0
   60.1770   34.3630   48.1570 C   0  0  0  0  0  0  0  0  0  0  0  0
   59.0330   34.8930   47.5510 C   0  0  0  0  0  0  0  0  0  0  0  0
   58.8420   34.7560   46.1750 C   0  0  0  0  0  0  0  0  0  0  0  0
   59.7930   34.0860   45.4010 C   0  0  0  0  0  0  0  0  0  0  0  0
   60.9410   33.5590   46.0010 C   0  0  0  0  0  0  0  0  0  0  0  0
   59.1160   31.0890   47.7610 C   0  0  0  0  0  0  0  0  0  0  0  0
   58.4630   30.4140   46.7200 C   0  0  0  0  0  0  0  0  0  0  0  0
   57.4100   31.0280   46.0450 O   0  0  0  0  0  0  0  0  0  0  0  0
   57.2150   23.6980   44.7660 C   0  0  0  0  0  0  0  0  0  0  0  0
   56.2270   22.8910   41.6790 H   0  0  0  0  0  0  0  0  0  0  0  0
   57.0820   19.7680   44.1290 H   0  0  0  0  0  0  0  0  0  0  0  0
   55.9550   19.7700   42.7410 H   0  0  0  0  0  0  0  0  0  0  0  0
   59.2480   21.0836   43.9010 H   0  0  0  0  0  0  0  0  0  0  0  0
   60.8268   22.3593   45.3422 H   0  0  0  0  0  0  0  0  0  0  0  0
   60.1078   24.4876   46.4164 H   0  0  0  0  0  0  0  0  0  0  0  0
   57.2357   25.4555   47.2216 H   0  0  0  0  0  0  0  0  0  0  0  0
   58.5318   26.3635   46.3442 H   0  0  0  0  0  0  0  0  0  0  0  0
   56.6081   26.0009   44.3820 H   0  0  0  0  0  0  0  0  0  0  0  0
   54.7230   25.5850   45.3510 H   0  0  0  0  0  0  0  0  0  0  0  0
   54.7540   27.1390   46.0010 H   0  0  0  0  0  0  0  0  0  0  0  0
   60.3881   27.5860   46.6322 H   0  0  0  0  0  0  0  0  0  0  0  0
   61.5655   28.8079   48.4547 H   0  0  0  0  0  0  0  0  0  0  0  0
   60.3241   34.4709   49.2418 H   0  0  0  0  0  0  0  0  0  0  0  0
   58.2826   35.4186   48.1598 H   0  0  0  0  0  0  0  0  0  0  0  0
   57.9429   35.1755   45.7001 H   0  0  0  0  0  0  0  0  0  0  0  0
   59.6384   33.9729   44.3178 H   0  0  0  0  0  0  0  0  0  0  0  0
   61.6912   33.0379   45.3881 H   0  0  0  0  0  0  0  0  0  0  0  0
   58.7662   32.0854   48.0691 H   0  0  0  0  0  0  0  0  0  0  0  0
   56.6450   30.4910   45.6530 H   0  0  0  0  0  0  0  0  0  0  0  0
   56.1941   24.0763   44.6090 H   0  0  0  0  0  0  0  0  0  0  0  0
  1  2  2  3
  2  3  1  0
  2  4  1  0
  4  5  2  0
  5  6  1  0
  6  7  2  0
  7  8  1  0
  8  9  1  0
  9 10  1  0
 10 11  1  0
 10 12  1  0
 12 13  2  0
 12 14  1  0
 14 15  1  0
 15 16  2  0
 16 17  1  0
 17 18  2  0
 18 19  1  0
 19 20  2  0
 19 21  1  0
 21 22  1  0
 22 23  2  0
 22 24  2  0
 22 25  1  0
 25 26  2  0
 26 27  1  0
 27 28  2  0
 28 29  1  0
 29 30  2  0
 18 31  1  0
 31 32  2  0
 32 33  1  0
  8 34  2  0
 34  4  1  0
 32 15  1  0
 30 25  1  0
  1 35  1  0
  3 36  1  0
  3 37  1  0
  5 38  1  0
  6 39  1  0
  7 40  1  0
  9 41  1  0
  9 42  1  0
 10 43  1  6
 11 44  1  0
 11 45  1  0
 16 46  1  0
 17 47  1  0
 26 48  1  0
 27 49  1  0
 28 50  1  0
 29 51  1  0
 30 52  1  0
 31 53  1  0
 33 54  1  0
 34 55  1  0
M  CHG  2  14  -1  21  -1
M  END
>  <UniqueID>  (86) 
84

>  <SMILES>  (86) 
N=C(N)c1cccc(C[C@@H](N)C(=O)[N-]c2ccc(C(=O)[N-]S(=O)(=O)c3ccccc3)cc2O)c1

>  <Energy>  (86) 
62.296402936165556

>  <Genealogy>  (86) 
N=C(N)c1cccc(CC(N)C(=O)[N-]c2ccc(C(=O)[N-]S(=O)(=O)c3ccccc3)cc2O)c1 (protonated)
N=C(N)c1cccc(C[C@@H](N)C(=O)[N-]c2ccc(C(=O)[N-]S(=O)(=O)c3ccccc3)cc2O)c1 (chirality)
N=C(N)c1cccc(C[C@@H](N)C(=O)[N-]c2ccc(C(=O)[N-]S(=O)(=O)c3ccccc3)cc2O)c1 (3D coordinates assigned)
N=C(N)c1cccc(C[C@@H](N)C(=O)[N-]c2ccc(C(=O)[N-]S(=O)(=O)c3ccccc3)cc2O)c1 (optimized conformer: 62.296402936165556 kcal/mol)

>  <smiles>  (86) 
N=C(N)c1cccc(CC(N)C(=O)Nc2ccc(C(=O)NS(=O)(=O)c3ccccc3)cc2O)c1

>  <score_type>  (86) 
oracle

>  <origin>  (86) 
adg

>  <m_score__min__energy>  (86) 
-13.449999999999999

>  <m_primary>  (86) 
energy

$$$$
86:0
     RDKit          3D

 53 56  0  0  0  0  0  0  0  0999 V2000
   58.8523   30.8882   47.9414 H   0  0  0  0  0  0  0  0  0  0  0  0
   58.6820   30.5490   46.9090 C   0  0  0  0  0  0  0  0  0  0  0  0
   58.9089   29.5103   46.6268 H   0  0  0  0  0  0  0  0  0  0  0  0
   58.1970   31.4030   45.9930 C   0  0  0  0  0  0  0  0  0  0  0  0
   57.9360   31.0990   44.6510 C   0  0  0  0  0  0  0  0  0  0  0  0
   58.0730   29.9070   44.0390 C   0  0  0  0  0  0  0  0  0  0  0  0
   58.2915   29.8999   42.9609 H   0  0  0  0  0  0  0  0  0  0  0  0
   57.9470   28.6110   44.7310 C   0  0  0  0  0  0  0  0  0  0  0  0
   56.8010   28.0350   45.2520 C   0  0  0  0  0  0  0  0  0  0  0  0
   55.5240   28.5830   45.2380 O   0  0  0  0  0  0  0  0  0  0  0  0
   57.1040   26.8210   45.7500 N   0  0  0  0  0  0  0  0  0  0  0  0
   56.2160   25.9130   46.4750 C   0  0  0  0  0  0  0  0  0  0  0  0
   56.5053   25.8893   47.5360 H   0  0  0  0  0  0  0  0  0  0  0  0
   55.1790   26.2676   46.3810 H   0  0  0  0  0  0  0  0  0  0  0  0
   56.3210   24.5280   45.8980 C   0  0  0  0  0  0  0  0  0  0  0  0
   56.7830   23.4630   46.6880 C   0  0  0  0  0  0  0  0  0  0  0  0
   57.1037   23.6483   47.7238 H   0  0  0  0  0  0  0  0  0  0  0  0
   56.8370   22.1690   46.1640 C   0  0  0  0  0  0  0  0  0  0  0  0
   57.2100   21.3407   46.7843 H   0  0  0  0  0  0  0  0  0  0  0  0
   56.4180   21.9250   44.8530 C   0  0  0  0  0  0  0  0  0  0  0  0
   56.4620   20.9056   44.4421 H   0  0  0  0  0  0  0  0  0  0  0  0
   55.9430   22.9770   44.0640 C   0  0  0  0  0  0  0  0  0  0  0  0
   55.5300   22.7390   42.7950 F   0  0  0  0  0  0  0  0  0  0  0  0
   55.8900   24.2740   44.5850 C   0  0  0  0  0  0  0  0  0  0  0  0
   55.5093   25.0985   43.9643 H   0  0  0  0  0  0  0  0  0  0  0  0
   58.4250   26.6780   45.5150 C   0  0  0  0  0  0  0  0  0  0  0  0
   59.0910   25.6630   45.8540 O   0  0  0  0  0  0  0  0  0  0  0  0
   58.9640   27.7380   44.8780 N   0  0  0  0  0  0  0  0  0  0  0  0
   59.9570   27.8610   44.5790 H   0  0  0  0  0  0  0  0  0  0  0  0
   57.4380   32.2590   44.0780 C   0  0  0  0  0  0  0  0  0  0  0  0
   57.1130   32.3889   43.0352 H   0  0  0  0  0  0  0  0  0  0  0  0
   57.4290   33.2190   45.0690 C   0  0  0  0  0  0  0  0  0  0  0  0
   56.8900   34.6060   44.8860 C   0  0  0  0  0  0  0  0  0  0  0  0
   56.7123   35.0632   45.8706 H   0  0  0  0  0  0  0  0  0  0  0  0
   57.6183   35.2115   44.3266 H   0  0  0  0  0  0  0  0  0  0  0  0
   55.9439   34.5609   44.3266 H   0  0  0  0  0  0  0  0  0  0  0  0
   57.8890   32.7070   46.2360 N   0  0  0  0  0  0  0  0  0  0  0  0
   57.9540   33.4350   47.5150 C   0  0  0  0  0  0  0  0  0  0  0  0
   57.5528   34.4495   47.3739 H   0  0  0  0  0  0  0  0  0  0  0  0
   57.3592   32.8901   48.2629 H   0  0  0  0  0  0  0  0  0  0  0  0
   59.3760   33.5290   48.0020 C   0  0  0  0  0  0  0  0  0  0  0  0
   59.6610   33.4750   49.3750 C   0  0  0  0  0  0  0  0  0  0  0  0
   58.8415   33.3523   50.0984 H   0  0  0  0  0  0  0  0  0  0  0  0
   60.9790   33.5760   49.8300 C   0  0  0  0  0  0  0  0  0  0  0  0
   61.1892   33.5322   50.9088 H   0  0  0  0  0  0  0  0  0  0  0  0
   62.0370   33.7330   48.9190 C   0  0  0  0  0  0  0  0  0  0  0  0
   63.4310   33.8420   49.4050 C   0  0  0  0  0  0  0  0  0  0  0  0
   63.6800   34.3660   50.5240 O   0  0  0  0  0  0  0  0  0  0  0  0
   64.4850   33.3670   48.6330 O   0  0  0  0  0  0  0  0  0  0  0  0
   61.7500   33.7850   47.5440 C   0  0  0  0  0  0  0  0  0  0  0  0
   62.5688   33.9077   46.8197 H   0  0  0  0  0  0  0  0  0  0  0  0
   60.4320   33.6820   47.0900 C   0  0  0  0  0  0  0  0  0  0  0  0
   60.2210   33.7211   46.0111 H   0  0  0  0  0  0  0  0  0  0  0  0
  1  2  1  0
  2  3  1  0
  2  4  2  0
  4  5  1  0
  5  6  2  0
  6  7  1  0
  6  8  1  0
  8  9  2  0
  9 10  1  0
  9 11  1  0
 11 12  1  0
 12 13  1  0
 12 14  1  0
 12 15  1  0
 15 16  2  0
 16 17  1  0
 16 18  1  0
 18 19  1  0
 18 20  2  0
 20 21  1  0
 20 22  1  0
 22 23  1  0
 22 24  2  0
 24 25  1  0
 11 26  1  0
 26 27  2  0
 26 28  1  0
 28 29  1  0
  5 30  1  0
 30 31  1  0
 30 32  2  0
 32 33  1  0
 33 34  1  0
 33 35  1  0
 33 36  1  0
 32 37  1  0
 37 38  1  0
 38 39  1  0
 38 40  1  0
 38 41  1  0
 41 42  2  0
 42 43  1  0
 42 44  1  0
 44 45  1  0
 44 46  2  0
 46 47  1  0
 47 48  2  0
 47 49  1  0
 46 50  1  0
 50 51  1  0
 50 52  2  0
 52 53  1  0
 37  4  1  0
 52 41  1  0
 28  8  1  0
 24 15  1  0
M  CHG  2  10  -1  49  -1
M  END
>  <UniqueID>  (87) 
85

>  <SMILES>  (87) 
C=c1/c(=C/c2[nH]c(=O)n(Cc3cccc(F)c3)c2[O-])cc(C)n1Cc1ccc(C(=O)[O-])cc1

>  <Energy>  (87) 
124.71063174576199

>  <Genealogy>  (87) 
C=c1c(=Cc2[nH]c(=O)n(Cc3cccc(F)c3)c2[O-])cc(C)n1Cc1ccc(C(=O)[O-])cc1 (protonated)
C=c1/c(=C/c2[nH]c(=O)n(Cc3cccc(F)c3)c2[O-])cc(C)n1Cc1ccc(C(=O)[O-])cc1 (cis-trans isomerization)
C=c1/c(=C/c2[nH]c(=O)n(Cc3cccc(F)c3)c2[O-])cc(C)n1Cc1ccc(C(=O)[O-])cc1 (3D coordinates assigned)
C=c1/c(=C/c2[nH]c(=O)n(Cc3cccc(F)c3)c2[O-])cc(C)n1Cc1ccc(C(=O)[O-])cc1 (optimized conformer: 124.71063174576199 kcal/mol)

>  <smiles>  (87) 
C=c1c(=Cc2[nH]c(=O)n(Cc3cccc(F)c3)c2O)cc(C)n1Cc1ccc(C(=O)O)cc1

>  <score_type>  (87) 
oracle

>  <origin>  (87) 
adg

>  <m_score__min__energy>  (87) 
-13.69

>  <m_primary>  (87) 
energy

$$$$
87:0
     RDKit          3D

 33 35  0  0  0  0  0  0  0  0999 V2000
   60.1442   31.7007   47.1571 H   0  0  0  0  0  0  0  0  0  0  0  0
   59.6190   32.2900   46.3910 C   0  0  0  0  0  0  0  0  0  0  0  0
   59.9370   33.6000   46.2100 N   0  0  0  0  0  0  0  0  0  0  0  0
   59.3160   34.3680   45.2770 C   0  0  0  0  0  0  0  0  0  0  0  0
   59.6430   35.5760   45.1420 O   0  0  0  0  0  0  0  0  0  0  0  0
   58.3190   33.8160   44.4730 C   0  0  0  0  0  0  0  0  0  0  0  0
   57.8111   34.4321   43.7163 H   0  0  0  0  0  0  0  0  0  0  0  0
   57.9720   32.4740   44.6380 C   0  0  0  0  0  0  0  0  0  0  0  0
   57.1856   32.0314   44.0090 H   0  0  0  0  0  0  0  0  0  0  0  0
   58.6220   31.6840   45.6040 C   0  0  0  0  0  0  0  0  0  0  0  0
   58.2550   30.2550   45.7820 C   0  0  0  0  0  0  0  0  0  0  0  0
   59.2990   29.0460   46.3650 S   0  0  0  0  0  0  0  0  0  0  0  0
   58.1730   27.8080   46.2630 C   0  0  0  0  0  0  0  0  0  0  0  0
   58.2850   26.4610   46.5800 C   0  0  0  0  0  0  0  0  0  0  0  0
   59.3620   25.9810   47.0210 O   0  0  0  0  0  0  0  0  0  0  0  0
   57.1950   25.6630   46.4020 N   0  0  0  0  0  0  0  0  0  0  0  0
   56.0110   26.1660   45.9240 C   0  0  0  0  0  0  0  0  0  0  0  0
   54.9720   25.4010   45.7560 N   0  0  0  0  0  0  0  0  0  0  0  0
   54.9540   24.0720   45.2070 C   0  0  0  0  0  0  0  0  0  0  0  0
   53.8650   23.4720   44.9910 O   0  0  0  0  0  0  0  0  0  0  0  0
   56.1990   23.4270   44.9110 N   0  0  0  0  0  0  0  0  0  0  0  0
   57.0870   23.9150   45.1630 H   0  0  0  0  0  0  0  0  0  0  0  0
   56.2770   22.0830   44.3420 C   0  0  0  0  0  0  0  0  0  0  0  0
   55.3090   21.5776   44.4745 H   0  0  0  0  0  0  0  0  0  0  0  0
   57.0716   21.5248   44.8587 H   0  0  0  0  0  0  0  0  0  0  0  0
   56.6090   22.1480   42.8550 C   0  0  0  0  0  0  0  0  0  0  0  0
   57.6812   22.3579   42.7275 H   0  0  0  0  0  0  0  0  0  0  0  0
   56.3652   21.1851   42.3824 H   0  0  0  0  0  0  0  0  0  0  0  0
   56.0201   22.9479   42.3824 H   0  0  0  0  0  0  0  0  0  0  0  0
   55.9110   27.4930   45.6160 N   0  0  0  0  0  0  0  0  0  0  0  0
   56.9840   28.3060   45.7850 C   0  0  0  0  0  0  0  0  0  0  0  0
   57.0070   29.6750   45.5080 C   0  0  0  0  0  0  0  0  0  0  0  0
   56.1440   30.2352   45.1189 H   0  0  0  0  0  0  0  0  0  0  0  0
  1  2  1  0
  2  3  1  0
  3  4  1  0
  4  5  2  0
  4  6  1  0
  6  7  1  0
  6  8  2  0
  8  9  1  0
  8 10  1  0
 10 11  1  0
 11 12  1  0
 12 13  1  0
 13 14  1  0
 14 15  2  0
 14 16  1  0
 16 17  1  0
 17 18  2  0
 18 19  1  0
 19 20  2  0
 19 21  1  0
 21 22  1  0
 21 23  1  0
 23 24  1  0
 23 25  1  0
 23 26  1  0
 26 27  1  0
 26 28  1  0
 26 29  1  0
 17 30  1  0
 30 31  1  0
 31 32  1  0
 32 33  1  0
 10  2  2  0
 32 11  2  0
 31 13  2  0
M  CHG  3   3  -1  16  -1  30  -1
M  END
>  <UniqueID>  (88) 
86

>  <SMILES>  (88) 
CCNC(=O)/N=c1\[n-]c(=O)c2sc(-c3ccc(=O)[n-]c3)cc2[n-]1

>  <Energy>  (88) 
69.63996570419074

>  <Genealogy>  (88) 
CCNC(=O)N=c1[n-]c(=O)c2sc(-c3ccc(=O)[n-]c3)cc2[n-]1 (protonated)
CCNC(=O)/N=c1\[n-]c(=O)c2sc(-c3ccc(=O)[n-]c3)cc2[n-]1 (cis-trans isomerization)
CCNC(=O)/N=c1\[n-]c(=O)c2sc(-c3ccc(=O)[n-]c3)cc2[n-]1 (3D coordinates assigned)
CCNC(=O)/N=c1\[n-]c(=O)c2sc(-c3ccc(=O)[n-]c3)cc2[n-]1 (optimized conformer: 69.63996570419074 kcal/mol)

>  <smiles>  (88) 
CCNC(=O)N=c1[nH]c(=O)c2sc(-c3ccc(=O)[nH]c3)cc2[nH]1

>  <score_type>  (88) 
oracle

>  <origin>  (88) 
adg

>  <m_score__min__energy>  (88) 
-10.91

>  <m_primary>  (88) 
energy

$$$$
88:0
     RDKit          3D

 44 46  0  0  1  0  0  0  0  0999 V2000
   58.1350   27.1600   44.1910 C   0  0  0  0  0  0  0  0  0  0  0  0
   57.5570   27.8640   45.3910 C   0  0  0  0  0  0  0  0  0  0  0  0
   57.5370   29.3360   45.2940 C   0  0  0  0  0  0  0  0  0  0  0  0
   58.6510   30.0300   45.6460 C   0  0  0  0  0  0  0  0  0  0  0  0
   59.9610   29.5690   46.0650 C   0  0  0  0  0  0  0  0  0  0  0  0
   60.1470   28.9980   47.4050 C   0  0  0  0  0  0  0  0  0  0  0  0
   60.3950   27.6630   47.6730 C   0  0  0  0  0  0  0  0  0  0  0  0
   60.7580   26.5170   46.3670 Cl  0  0  0  0  0  0  0  0  0  0  0  0
   60.4710   27.1330   48.9440 C   0  0  0  0  0  0  0  0  0  0  0  0
   60.3030   27.9360   50.0450 C   0  0  0  0  0  0  0  0  0  0  0  0
   60.0570   29.2700   49.8210 C   0  0  0  0  0  0  0  0  0  0  0  0
   59.9800   29.8000   48.5370 C   0  0  0  0  0  0  0  0  0  0  0  0
   59.6680   31.5150   48.4360 Cl  0  0  0  0  0  0  0  0  0  0  0  0
   58.5250   31.4080   45.5150 N   0  0  0  0  0  0  0  0  0  0  0  0
   57.4120   32.0010   45.0830 C   0  0  0  0  0  0  0  0  0  0  0  0
   57.3910   33.7610   44.9070 S   0  0  0  0  0  0  0  0  0  0  0  0
   58.9870   34.5590   44.9020 C   0  0  0  0  0  0  0  0  0  0  0  0
   59.7210   34.4320   46.2210 C   0  0  0  0  0  0  0  0  0  0  0  0
   59.3510   35.0890   47.2370 O   0  0  0  0  0  0  0  0  0  0  0  0
   60.8190   33.5430   46.2130 N   0  0  0  0  0  0  0  0  0  0  0  0
   61.7010   33.5780   47.1110 C   0  0  0  0  0  0  0  0  0  0  0  0
   61.6680   34.1160   48.3320 N   0  0  0  0  0  0  0  0  0  0  0  0
   62.6670   34.0620   49.1370 C   0  0  0  0  0  0  0  0  0  0  0  0
   63.8460   33.4030   48.6990 C   0  0  0  0  0  0  0  0  0  0  0  0
   63.3820   32.8480   46.9750 S   0  0  0  0  0  0  0  0  0  0  0  0
   56.3350   31.2760   44.7490 N   0  0  0  0  0  0  0  0  0  0  0  0
   56.3640   29.9160   44.8440 C   0  0  0  0  0  0  0  0  0  0  0  0
   55.3270   29.3310   44.5150 O   0  0  0  0  0  0  0  0  0  0  0  0
   58.7999   26.3502   44.5260 H   0  0  0  0  0  0  0  0  0  0  0  0
   57.3194   26.7380   43.5854 H   0  0  0  0  0  0  0  0  0  0  0  0
   58.7077   27.8778   43.5854 H   0  0  0  0  0  0  0  0  0  0  0  0
   56.5224   27.5158   45.5266 H   0  0  0  0  0  0  0  0  0  0  0  0
   58.2122   27.6183   46.2397 H   0  0  0  0  0  0  0  0  0  0  0  0
   60.2704   28.7966   45.3455 H   0  0  0  0  0  0  0  0  0  0  0  0
   60.5539   30.4948   46.1014 H   0  0  0  0  0  0  0  0  0  0  0  0
   60.6677   26.0589   49.0767 H   0  0  0  0  0  0  0  0  0  0  0  0
   60.3628   27.5285   51.0650 H   0  0  0  0  0  0  0  0  0  0  0  0
   59.9168   29.9386   50.6832 H   0  0  0  0  0  0  0  0  0  0  0  0
   59.3270   32.0340   45.7480 H   0  0  0  0  0  0  0  0  0  0  0  0
   59.6035   34.1030   44.1133 H   0  0  0  0  0  0  0  0  0  0  0  0
   58.8162   35.6311   44.7245 H   0  0  0  0  0  0  0  0  0  0  0  0
   60.7430   34.6150   48.6260 H   0  0  0  0  0  0  0  0  0  0  0  0
   62.6109   34.5138   50.1384 H   0  0  0  0  0  0  0  0  0  0  0  0
   64.7935   33.2561   49.2381 H   0  0  0  0  0  0  0  0  0  0  0  0
  1  2  1  0
  2  3  1  0
  3  4  2  0
  4  5  1  0
  5  6  1  0
  6  7  2  0
  7  8  1  0
  7  9  1  0
  9 10  2  0
 10 11  1  0
 11 12  2  0
 12 13  1  0
  4 14  1  0
 14 15  1  0
 15 16  1  0
 16 17  1  0
 17 18  1  0
 18 19  2  0
 18 20  1  0
 20 21  2  0
 21 22  1  0
 22 23  1  0
 23 24  2  0
 24 25  1  0
 15 26  2  0
 26 27  1  0
 27 28  2  0
 27  3  1  0
 12  6  1  0
 25 21  1  0
  1 29  1  0
  1 30  1  0
  1 31  1  0
  2 32  1  0
  2 33  1  0
  5 34  1  0
  5 35  1  0
  9 36  1  0
 10 37  1  0
 11 38  1  0
 14 39  1  0
 17 40  1  0
 17 41  1  0
 22 42  1  0
 23 43  1  0
 24 44  1  0
M  END
>  <smiles>  (89) 
CCc1c(Cc2c(Cl)cccc2Cl)[nH]c(SCC(=O)N=c2[nH]ccs2)nc1=O

>  <score_type>  (89) 
oracle

>  <origin>  (89) 
adg

>  <m_score__min__energy>  (89) 
-8.5500000000000007

>  <m_primary>  (89) 
energy

$$$$
89:0
     RDKit          3D

 52 57  0  0  0  0  0  0  0  0999 V2000
   58.9650   27.6480   47.7540 H   0  0  0  0  0  0  0  0  0  0  0  0
   59.6410   27.6230   48.5020 O   0  0  0  0  0  0  0  0  0  0  0  0
   60.2610   28.7620   49.0160 C   0  0  0  0  0  0  0  0  0  0  0  0
   61.1650   28.6470   50.0270 N   0  0  0  0  0  0  0  0  0  0  0  0
   61.6450   29.8440   50.4240 C   0  0  0  0  0  0  0  0  0  0  0  0
   62.6540   30.0150   51.5260 C   0  0  0  0  0  0  0  0  0  0  0  0
   62.2442   30.7199   52.2644 H   0  0  0  0  0  0  0  0  0  0  0  0
   62.8354   29.0164   51.9503 H   0  0  0  0  0  0  0  0  0  0  0  0
   63.9620   30.5300   51.0670 N   0  0  0  0  0  0  0  0  0  0  0  0
   65.0570   30.2860   52.0200 C   0  0  0  0  0  0  0  0  0  0  0  0
   64.8882   30.8795   52.9306 H   0  0  0  0  0  0  0  0  0  0  0  0
   65.0855   29.2166   52.2760 H   0  0  0  0  0  0  0  0  0  0  0  0
   66.4020   30.6950   51.3830 C   0  0  0  0  0  0  0  0  0  0  0  0
   66.9374   31.3550   52.0814 H   0  0  0  0  0  0  0  0  0  0  0  0
   66.9707   29.7753   51.1810 H   0  0  0  0  0  0  0  0  0  0  0  0
   66.2320   31.3770   50.1520 O   0  0  0  0  0  0  0  0  0  0  0  0
   65.3330   32.4570   50.3170 C   0  0  0  0  0  0  0  0  0  0  0  0
   65.6921   33.1030   51.1317 H   0  0  0  0  0  0  0  0  0  0  0  0
   65.2834   33.0197   49.3731 H   0  0  0  0  0  0  0  0  0  0  0  0
   63.9180   31.9490   50.6620 C   0  0  0  0  0  0  0  0  0  0  0  0
   63.5097   32.5488   51.4888 H   0  0  0  0  0  0  0  0  0  0  0  0
   63.2789   32.0450   49.7719 H   0  0  0  0  0  0  0  0  0  0  0  0
   60.9620   31.0990   49.5390 S   0  0  0  0  0  0  0  0  0  0  0  0
   60.0170   30.0780   48.5880 C   0  0  0  0  0  0  0  0  0  0  0  0
   59.1400   30.5600   47.5030 C   0  0  0  0  0  0  0  0  0  0  0  0
   58.8800   31.8940   47.3470 N   0  0  0  0  0  0  0  0  0  0  0  0
   58.0550   32.3430   46.3620 C   0  0  0  0  0  0  0  0  0  0  0  0
   57.8440   33.6240   46.2510 N   0  0  0  0  0  0  0  0  0  0  0  0
   58.8340   34.6400   45.9070 C   0  0  0  0  0  0  0  0  0  0  0  0
   58.2429   35.1748   45.1490 H   0  0  0  0  0  0  0  0  0  0  0  0
   60.2710   34.1550   45.9910 C   0  0  0  0  0  0  0  0  0  0  0  0
   60.4830   33.0937   46.1877 H   0  0  0  0  0  0  0  0  0  0  0  0
   61.1504   34.2081   45.3323 H   0  0  0  0  0  0  0  0  0  0  0  0
   59.6960   35.0330   47.0920 C   0  0  0  0  0  0  0  0  0  0  0  0
   59.4926   34.6068   48.0855 H   0  0  0  0  0  0  0  0  0  0  0  0
   59.9877   35.9848   47.5600 H   0  0  0  0  0  0  0  0  0  0  0  0
   57.4890   31.4170   45.5370 N   0  0  0  0  0  0  0  0  0  0  0  0
   56.6540   31.5980   44.5240 N   0  0  0  0  0  0  0  0  0  0  0  0
   56.3660   30.3750   44.0190 C   0  0  0  0  0  0  0  0  0  0  0  0
   55.6949   30.1834   43.1687 H   0  0  0  0  0  0  0  0  0  0  0  0
   57.0490   29.3940   44.7400 C   0  0  0  0  0  0  0  0  0  0  0  0
   57.0180   28.0620   44.6010 C   0  0  0  0  0  0  0  0  0  0  0  0
   57.0140   27.6493   43.5814 H   0  0  0  0  0  0  0  0  0  0  0  0
   56.9890   27.1160   45.7300 C   0  0  0  0  0  0  0  0  0  0  0  0
   58.0790   26.7860   46.4430 N   0  0  0  0  0  0  0  0  0  0  0  0
   57.6200   25.8530   47.3050 C   0  0  0  0  0  0  0  0  0  0  0  0
   58.3580   25.3010   48.1630 O   0  0  0  0  0  0  0  0  0  0  0  0
   56.3120   25.5500   47.1690 N   0  0  0  0  0  0  0  0  0  0  0  0
   55.9280   26.3490   46.1610 C   0  0  0  0  0  0  0  0  0  0  0  0
   54.6510   26.3340   45.6160 O   0  0  0  0  0  0  0  0  0  0  0  0
   57.7350   30.1140   45.6910 C   0  0  0  0  0  0  0  0  0  0  0  0
   58.5530   29.6550   46.6670 N   0  0  0  0  0  0  0  0  0  0  0  0
  1  2  1  0
  2  3  1  0
  3  4  1  0
  4  5  2  0
  5  6  1  0
  6  7  1  0
  6  8  1  0
  6  9  1  0
  9 10  1  0
 10 11  1  0
 10 12  1  0
 10 13  1  0
 13 14  1  0
 13 15  1  0
 13 16  1  0
 16 17  1  0
 17 18  1  0
 17 19  1  0
 17 20  1  0
 20 21  1  0
 20 22  1  0
  5 23  1  0
 23 24  1  0
 24 25  1  0
 25 26  2  0
 26 27  1  0
 27 28  2  0
 28 29  1  0
 29 30  1  0
 29 31  1  0
 31 32  1  0
 31 33  1  0
 31 34  1  0
 34 35  1  0
 34 36  1  0
 27 37  1  0
 37 38  1  0
 38 39  2  0
 39 40  1  0
 39 41  1  0
 41 42  2  3
 42 43  1  0
 42 44  1  0
 44 45  1  0
 45 46  1  0
 46 47  2  0
 46 48  1  0
 48 49  1  0
 49 50  1  0
 41 51  1  0
 51 52  2  0
 24  3  2  0
 52 25  1  0
 20  9  1  0
 34 29  1  0
 51 37  1  0
 49 44  2  0
M  CHG  3  45  -1  48  -1  50  -1
M  END
>  <UniqueID>  (90) 
87

>  <SMILES>  (90) 
O=c1[n-]c([O-])c(C=c2cnn3/c(=N\C4CC4)nc(-c4sc(CN5CCOCC5)nc4O)nc23)[n-]1

>  <Energy>  (90) 
442.00215889376113

>  <Genealogy>  (90) 
O=c1[n-]c([O-])c(C=c2cnn3c(=NC4CC4)nc(-c4sc(CN5CCOCC5)nc4O)nc23)[n-]1 (protonated)
O=c1[n-]c([O-])c(C=c2cnn3/c(=N\C4CC4)nc(-c4sc(CN5CCOCC5)nc4O)nc23)[n-]1 (cis-trans isomerization)
O=c1[n-]c([O-])c(C=c2cnn3/c(=N\C4CC4)nc(-c4sc(CN5CCOCC5)nc4O)nc23)[n-]1 (3D coordinates assigned)
O=c1[n-]c([O-])c(C=c2cnn3/c(=N\C4CC4)nc(-c4sc(CN5CCOCC5)nc4O)nc23)[n-]1 (nonaromatic ring conformer: 442.00215889376113 kcal/mol)

>  <smiles>  (90) 
O=c1[nH]c(O)c(C=c2cnn3c(=NC4CC4)nc(-c4sc(CN5CCOCC5)nc4O)nc23)[nH]1

>  <score_type>  (90) 
oracle

>  <origin>  (90) 
adg

>  <m_score__min__energy>  (90) 
-16.969999999999999

>  <m_primary>  (90) 
energy

$$$$
90:0
     RDKit          3D

 45 47  0  0  0  0  0  0  0  0999 V2000
   55.1470   27.5360   45.4380 H   0  0  0  0  0  0  0  0  0  0  0  0
   55.1470   26.6970   46.0030 O   0  0  0  0  0  0  0  0  0  0  0  0
   56.3350   26.0760   46.3150 N   0  0  0  0  0  0  0  0  0  0  0  0
   57.4430   26.3720   45.7090 C   0  0  0  0  0  0  0  0  0  0  0  0
   57.6930   25.8549   44.7709 H   0  0  0  0  0  0  0  0  0  0  0  0
   58.3780   27.3820   46.2410 C   0  0  0  0  0  0  0  0  0  0  0  0
   59.0090   27.1060   47.4620 C   0  0  0  0  0  0  0  0  0  0  0  0
   58.7796   26.1768   48.0042 H   0  0  0  0  0  0  0  0  0  0  0  0
   59.9270   28.0120   47.9860 C   0  0  0  0  0  0  0  0  0  0  0  0
   60.4227   27.8041   48.9457 H   0  0  0  0  0  0  0  0  0  0  0  0
   60.2140   29.1810   47.2900 C   0  0  0  0  0  0  0  0  0  0  0  0
   60.9523   29.8942   47.6851 H   0  0  0  0  0  0  0  0  0  0  0  0
   59.5590   29.4420   46.0880 C   0  0  0  0  0  0  0  0  0  0  0  0
   59.7967   30.3600   45.5305 H   0  0  0  0  0  0  0  0  0  0  0  0
   58.6230   28.5730   45.5890 N   0  0  0  0  0  0  0  0  0  0  0  0
   57.8860   28.9620   44.3680 C   0  0  0  0  0  0  0  0  0  0  0  0
   57.6215   28.0531   43.8077 H   0  0  0  0  0  0  0  0  0  0  0  0
   58.5362   29.6200   43.7728 H   0  0  0  0  0  0  0  0  0  0  0  0
   56.6210   29.7220   44.6910 C   0  0  0  0  0  0  0  0  0  0  0  0
   55.6460   29.0990   45.1860 O   0  0  0  0  0  0  0  0  0  0  0  0
   56.5090   31.1400   44.5010 N   0  0  0  0  0  0  0  0  0  0  0  0
   57.4520   32.1150   44.9570 C   0  0  0  0  0  0  0  0  0  0  0  0
   57.8960   33.1030   44.0720 C   0  0  0  0  0  0  0  0  0  0  0  0
   57.5356   33.1102   43.0327 H   0  0  0  0  0  0  0  0  0  0  0  0
   58.7960   34.0810   44.5040 C   0  0  0  0  0  0  0  0  0  0  0  0
   59.1277   34.8671   43.8097 H   0  0  0  0  0  0  0  0  0  0  0  0
   59.2750   34.0620   45.8160 C   0  0  0  0  0  0  0  0  0  0  0  0
   59.9708   34.8430   46.1565 H   0  0  0  0  0  0  0  0  0  0  0  0
   58.8720   33.0500   46.7020 C   0  0  0  0  0  0  0  0  0  0  0  0
   59.3660   33.0400   48.1240 C   0  0  0  0  0  0  0  0  0  0  0  0
   58.9352   33.8956   48.6647 H   0  0  0  0  0  0  0  0  0  0  0  0
   59.0587   32.0998   48.6051 H   0  0  0  0  0  0  0  0  0  0  0  0
   60.8670   33.1390   48.1510 C   0  0  0  0  0  0  0  0  0  0  0  0
   61.5020   34.1100   48.9460 C   0  0  0  0  0  0  0  0  0  0  0  0
   60.9020   34.7724   49.5872 H   0  0  0  0  0  0  0  0  0  0  0  0
   62.8940   34.2350   48.9230 C   0  0  0  0  0  0  0  0  0  0  0  0
   63.3871   34.9927   49.5497 H   0  0  0  0  0  0  0  0  0  0  0  0
   63.6610   33.4000   48.1060 C   0  0  0  0  0  0  0  0  0  0  0  0
   64.7563   33.5004   48.0908 H   0  0  0  0  0  0  0  0  0  0  0  0
   63.0360   32.4370   47.3080 C   0  0  0  0  0  0  0  0  0  0  0  0
   63.6400   31.7810   46.6638 H   0  0  0  0  0  0  0  0  0  0  0  0
   61.6440   32.3070   47.3280 C   0  0  0  0  0  0  0  0  0  0  0  0
   61.1554   31.5502   46.6967 H   0  0  0  0  0  0  0  0  0  0  0  0
   57.9600   32.0750   46.2650 C   0  0  0  0  0  0  0  0  0  0  0  0
   57.6423   31.2761   46.9512 H   0  0  0  0  0  0  0  0  0  0  0  0
  1  2  1  0
  2  3  1  0
  3  4  2  0
  4  5  1  0
  4  6  1  0
  6  7  2  0
  7  8  1  0
  7  9  1  0
  9 10  1  0
  9 11  2  0
 11 12  1  0
 11 13  1  0
 13 14  1  0
 13 15  2  0
 15 16  1  0
 16 17  1  0
 16 18  1  0
 16 19  1  0
 19 20  2  0
 19 21  1  0
 21 22  1  0
 22 23  2  0
 23 24  1  0
 23 25  1  0
 25 26  1  0
 25 27  2  0
 27 28  1  0
 27 29  1  0
 29 30  1  0
 30 31  1  0
 30 32  1  0
 30 33  1  0
 33 34  2  0
 34 35  1  0
 34 36  1  0
 36 37  1  0
 36 38  2  0
 38 39  1  0
 38 40  1  0
 40 41  1  0
 40 42  2  0
 42 43  1  0
 29 44  2  0
 44 45  1  0
 15  6  1  0
 44 22  1  0
 42 33  1  0
M  CHG  2  15   1  21  -1
M  END
>  <UniqueID>  (91) 
88

>  <SMILES>  (91) 
O=C(C[n+]1ccccc1/C=N\O)[N-]c1cccc(Cc2ccccc2)c1

>  <Energy>  (91) 
56.08611195882639

>  <Genealogy>  (91) 
O=C(C[n+]1ccccc1C=NO)[N-]c1cccc(Cc2ccccc2)c1 (protonated)
O=C(C[n+]1ccccc1/C=N\O)[N-]c1cccc(Cc2ccccc2)c1 (cis-trans isomerization)
O=C(C[n+]1ccccc1/C=N\O)[N-]c1cccc(Cc2ccccc2)c1 (3D coordinates assigned)
O=C(C[n+]1ccccc1/C=N\O)[N-]c1cccc(Cc2ccccc2)c1 (optimized conformer: 56.08611195882639 kcal/mol)

>  <smiles>  (91) 
O=C(C[n+]1ccccc1C=NO)Nc1cccc(Cc2ccccc2)c1

>  <score_type>  (91) 
oracle

>  <origin>  (91) 
adg

>  <m_score__min__energy>  (91) 
-10.640000000000001

>  <m_primary>  (91) 
energy

$$$$
91:0
     RDKit          3D

 74 76  0  0  0  0  0  0  0  0999 V2000
   58.6864   30.4573   45.0413 H   0  0  0  0  0  0  0  0  0  0  0  0
   57.7090   30.8370   44.7090 C   0  0  0  0  0  0  0  0  0  0  0  0
   56.6570   30.3050   45.1520 O   0  0  0  0  0  0  0  0  0  0  0  0
   57.4340   31.6890   42.4520 C   0  0  0  0  0  0  0  0  0  0  0  0
   58.7960   33.7090   47.3780 C   0  0  0  0  0  0  0  0  0  0  0  0
   56.7218   30.8885   42.2030 H   0  0  0  0  0  0  0  0  0  0  0  0
   58.1050   32.4160   41.3280 C   0  0  0  0  0  0  0  0  0  0  0  0
   58.7973   33.1661   41.7380 H   0  0  0  0  0  0  0  0  0  0  0  0
   58.6653   31.6988   40.7102 H   0  0  0  0  0  0  0  0  0  0  0  0
   57.3453   32.9171   40.7102 H   0  0  0  0  0  0  0  0  0  0  0  0
   57.6560   31.9630   43.7500 C   0  0  0  0  0  0  0  0  0  0  0  0
   58.9225   35.4596   46.2238 H   0  0  0  0  0  0  0  0  0  0  0  0
   58.9060   34.3600   46.2010 C   0  0  0  0  0  0  0  0  0  0  0  0
   57.1589   34.1292   43.9752 H   0  0  0  0  0  0  0  0  0  0  0  0
   59.0060   33.6970   44.8820 C   0  0  0  0  0  0  0  0  0  0  0  0
   59.9967   33.4838   44.4542 H   0  0  0  0  0  0  0  0  0  0  0  0
   57.9050   33.3540   44.2040 C   0  0  0  0  0  0  0  0  0  0  0  0
   59.3520   34.3740   48.5860 C   0  0  0  0  0  0  0  0  0  0  0  0
   58.6539   34.6960   49.3727 H   0  0  0  0  0  0  0  0  0  0  0  0
   60.6610   34.6010   48.7650 C   0  0  0  0  0  0  0  0  0  0  0  0
   61.0576   35.6156   48.6122 H   0  0  0  0  0  0  0  0  0  0  0  0
   61.5860   33.5120   49.1650 C   0  0  0  0  0  0  0  0  0  0  0  0
   61.6140   33.0730   50.4550 C   0  0  0  0  0  0  0  0  0  0  0  0
   60.6310   33.5860   51.4860 C   0  0  0  0  0  0  0  0  0  0  0  0
   61.0190   33.3835   52.4952 H   0  0  0  0  0  0  0  0  0  0  0  0
   60.4954   34.6698   51.3559 H   0  0  0  0  0  0  0  0  0  0  0  0
   59.6644   33.0774   51.3559 H   0  0  0  0  0  0  0  0  0  0  0  0
   62.6410   32.0920   50.8950 C   0  0  0  0  0  0  0  0  0  0  0  0
   62.7030   31.7380   52.1030 O   0  0  0  0  0  0  0  0  0  0  0  0
   63.6480   31.5400   49.9340 C   0  0  0  0  0  0  0  0  0  0  0  0
   64.5678   32.1407   49.9895 H   0  0  0  0  0  0  0  0  0  0  0  0
   63.8594   30.4946   50.2033 H   0  0  0  0  0  0  0  0  0  0  0  0
   63.1070   31.5810   48.5060 C   0  0  0  0  0  0  0  0  0  0  0  0
   63.9148   31.3019   47.8135 H   0  0  0  0  0  0  0  0  0  0  0  0
   62.2643   30.8766   48.4451 H   0  0  0  0  0  0  0  0  0  0  0  0
   62.5790   32.9880   48.1160 C   0  0  0  0  0  0  0  0  0  0  0  0
   61.8980   32.8560   46.7310 C   0  0  0  0  0  0  0  0  0  0  0  0
   60.8265   32.6483   46.8676 H   0  0  0  0  0  0  0  0  0  0  0  0
   62.0211   33.7947   46.1709 H   0  0  0  0  0  0  0  0  0  0  0  0
   62.3629   32.0312   46.1709 H   0  0  0  0  0  0  0  0  0  0  0  0
   63.7490   33.9860   47.9920 C   0  0  0  0  0  0  0  0  0  0  0  0
   64.0905   34.2773   48.9963 H   0  0  0  0  0  0  0  0  0  0  0  0
   64.5782   33.5128   47.4457 H   0  0  0  0  0  0  0  0  0  0  0  0
   63.4125   34.8795   47.4457 H   0  0  0  0  0  0  0  0  0  0  0  0
   58.1300   32.3470   47.4970 C   0  0  0  0  0  0  0  0  0  0  0  0
   57.1411   32.4840   47.9589 H   0  0  0  0  0  0  0  0  0  0  0  0
   58.0668   31.9321   46.4802 H   0  0  0  0  0  0  0  0  0  0  0  0
   58.9130   31.3520   48.3310 C   0  0  0  0  0  0  0  0  0  0  0  0
   59.7480   30.4320   47.6770 C   0  0  0  0  0  0  0  0  0  0  0  0
   59.8297   30.4559   46.5803 H   0  0  0  0  0  0  0  0  0  0  0  0
   60.4760   29.4870   48.4030 C   0  0  0  0  0  0  0  0  0  0  0  0
   61.1233   28.7724   47.8736 H   0  0  0  0  0  0  0  0  0  0  0  0
   60.3880   29.4420   49.8040 C   0  0  0  0  0  0  0  0  0  0  0  0
   61.1790   28.4480   50.5650 C   0  0  0  0  0  0  0  0  0  0  0  0
   61.1420   27.2350   50.2200 O   0  0  0  0  0  0  0  0  0  0  0  0
   62.0110   28.8510   51.6640 N   0  0  0  0  0  0  0  0  0  0  0  0
   62.1490   29.8680   51.8620 H   0  0  0  0  0  0  0  0  0  0  0  0
   62.7200   27.8900   52.5070 C   0  0  0  0  0  0  0  0  0  0  0  0
   62.5639   28.1484   53.5647 H   0  0  0  0  0  0  0  0  0  0  0  0
   62.3318   26.8801   52.3087 H   0  0  0  0  0  0  0  0  0  0  0  0
   64.1920   27.9230   52.1980 C   0  0  0  0  0  0  0  0  0  0  0  0
   64.9100   26.7260   52.0660 C   0  0  0  0  0  0  0  0  0  0  0  0
   64.4045   25.7585   52.2013 H   0  0  0  0  0  0  0  0  0  0  0  0
   66.2740   26.7720   51.7610 C   0  0  0  0  0  0  0  0  0  0  0  0
   66.8468   25.8378   51.6650 H   0  0  0  0  0  0  0  0  0  0  0  0
   66.8930   27.9680   51.5830 N   0  0  0  0  0  0  0  0  0  0  0  0
   66.2170   29.1440   51.6930 C   0  0  0  0  0  0  0  0  0  0  0  0
   66.7452   30.0968   51.5408 H   0  0  0  0  0  0  0  0  0  0  0  0
   64.8530   29.1440   51.9990 C   0  0  0  0  0  0  0  0  0  0  0  0
   64.3030   30.0929   52.0830 H   0  0  0  0  0  0  0  0  0  0  0  0
   59.5320   30.3430   50.4620 C   0  0  0  0  0  0  0  0  0  0  0  0
   59.4439   30.3112   51.5580 H   0  0  0  0  0  0  0  0  0  0  0  0
   58.7920   31.2790   49.7330 C   0  0  0  0  0  0  0  0  0  0  0  0
   58.1099   31.9638   50.2582 H   0  0  0  0  0  0  0  0  0  0  0  0
  1  2  1  0
  2  3  2  0
  2  4  1  0
  4  5  2  0
  5  6  1  0
  5  7  1  0
  7  8  1  0
  7  9  1  0
  7 10  1  0
  4 11  1  0
 11 12  1  0
 11 13  2  0
 13 14  1  0
 13 15  1  0
 15 16  1  0
 15 17  2  3
 17 18  1  0
 18 19  1  0
 18 20  2  3
 20 21  1  0
 20 22  1  0
 22 23  2  0
 23 24  1  0
 24 25  1  0
 24 26  1  0
 24 27  1  0
 23 28  1  0
 28 29  2  0
 28 30  1  0
 30 31  1  0
 30 32  1  0
 30 33  1  0
 33 34  1  0
 33 35  1  0
 33 36  1  0
 36 37  1  0
 37 38  1  0
 37 39  1  0
 37 40  1  0
 36 41  1  0
 41 42  1  0
 41 43  1  0
 41 44  1  0
 17 45  1  0
 45 46  1  0
 45 47  1  0
 45 48  1  0
 48 49  2  0
 49 50  1  0
 49 51  1  0
 51 52  1  0
 51 53  2  0
 53 54  1  0
 54 55  2  0
 54 56  1  0
 56 57  1  0
 56 58  1  0
 58 59  1  0
 58 60  1  0
 58 61  1  0
 61 62  2  0
 62 63  1  0
 62 64  1  0
 64 65  1  0
 64 66  2  0
 66 67  1  0
 67 68  1  0
 67 69  2  0
 69 70  1  0
 53 71  1  0
 71 72  1  0
 71 73  2  0
 73 74  1  0
 36 22  1  0
 73 48  1  0
 69 61  1  0
M  END
>  <UniqueID>  (92) 
89

>  <SMILES>  (92) 
CC=C(C=O)/C=C/C=C(C=CC1=C(C)C(=O)CCC1(C)C)Cc1ccc(C(=O)NCc2ccncc2)cc1

>  <Energy>  (92) 
85.63293569631294

>  <Genealogy>  (92) 
CC=C(C=O)/C=C/C=C(C=CC1=C(C)C(=O)CCC1(C)C)Cc1ccc(C(=O)NCc2ccncc2)cc1 (cis-trans isomerization)
CC=C(C=O)/C=C/C=C(C=CC1=C(C)C(=O)CCC1(C)C)Cc1ccc(C(=O)NCc2ccncc2)cc1 (3D coordinates assigned)
CC=C(C=O)/C=C/C=C(C=CC1=C(C)C(=O)CCC1(C)C)Cc1ccc(C(=O)NCc2ccncc2)cc1 (nonaromatic ring conformer: 85.63293569631294 kcal/mol)

>  <smiles>  (92) 
CC=C(C=O)C=CC=C(C=CC1=C(C)C(=O)CCC1(C)C)Cc1ccc(C(=O)NCc2ccncc2)cc1

>  <score_type>  (92) 
oracle

>  <origin>  (92) 
adg

>  <m_score__min__energy>  (92) 
-12.08

>  <m_primary>  (92) 
energy

$$$$
92:0
     RDKit          3D

 53 56  0  0  0  0  0  0  0  0999 V2000
   58.8670   34.1920   47.4200 C   0  0  0  0  0  0  0  0  0  0  0  0
   58.4210   33.7760   46.0570 C   0  0  0  0  0  0  0  0  0  0  0  0
   57.6980   34.5530   45.2260 N   0  0  0  0  0  0  0  0  0  0  0  0
   57.4360   33.8390   44.1660 O   0  0  0  0  0  0  0  0  0  0  0  0
   57.9450   32.6300   44.2640 C   0  0  0  0  0  0  0  0  0  0  0  0
   57.7530   31.5580   43.2440 C   0  0  0  0  0  0  0  0  0  0  0  0
   58.6140   32.5460   45.4680 C   0  0  0  0  0  0  0  0  0  0  0  0
   59.2350   31.4010   46.0640 N   0  0  0  0  0  0  0  0  0  0  0  0
   58.5430   30.1560   46.2540 C   0  0  0  0  0  0  0  0  0  0  0  0
   57.3690   30.0200   45.8140 O   0  0  0  0  0  0  0  0  0  0  0  0
   59.2040   29.0310   46.8750 N   0  0  0  0  0  0  0  0  0  0  0  0
   59.2390   28.8820   48.3390 C   0  0  0  0  0  0  0  0  0  0  0  0
   60.6100   29.2510   48.9260 C   0  0  0  0  0  0  0  0  0  0  0  0
   60.7470   30.7290   49.1450 C   0  0  0  0  0  0  0  0  0  0  0  0
   59.9890   31.5010   50.0210 C   0  0  0  0  0  0  0  0  0  0  0  0
   60.3940   32.7910   49.9760 N   0  0  0  0  0  0  0  0  0  0  0  0
   59.8160   33.9060   50.7220 C   0  0  0  0  0  0  0  0  0  0  0  0
   61.3920   32.8470   49.0720 C   0  0  0  0  0  0  0  0  0  0  0  0
   62.1140   33.9700   48.6570 C   0  0  0  0  0  0  0  0  0  0  0  0
   63.1010   33.7910   47.6720 C   0  0  0  0  0  0  0  0  0  0  0  0
   63.3420   32.5120   47.1240 C   0  0  0  0  0  0  0  0  0  0  0  0
   62.6000   31.4010   47.5590 C   0  0  0  0  0  0  0  0  0  0  0  0
   61.6300   31.6050   48.5390 C   0  0  0  0  0  0  0  0  0  0  0  0
   60.0000   28.1190   46.0440 C   0  0  0  0  0  0  0  0  0  0  0  0
   59.1380   27.3910   45.0560 C   0  0  0  0  0  0  0  0  0  0  0  0
   58.8720   27.8720   43.7650 C   0  0  0  0  0  0  0  0  0  0  0  0
   58.0910   27.0150   43.0040 C   0  0  0  0  0  0  0  0  0  0  0  0
   57.7310   25.6660   43.9400 S   0  0  0  0  0  0  0  0  0  0  0  0
   58.5540   26.1570   45.3210 C   0  0  0  0  0  0  0  0  0  0  0  0
   58.2843   33.6485   48.1783 H   0  0  0  0  0  0  0  0  0  0  0  0
   59.9353   33.9602   47.5429 H   0  0  0  0  0  0  0  0  0  0  0  0
   58.7100   35.2738   47.5429 H   0  0  0  0  0  0  0  0  0  0  0  0
   57.5808   30.5967   43.7503 H   0  0  0  0  0  0  0  0  0  0  0  0
   56.8842   31.8018   42.6149 H   0  0  0  0  0  0  0  0  0  0  0  0
   58.6524   31.4851   42.6149 H   0  0  0  0  0  0  0  0  0  0  0  0
   60.2760   31.4070   46.1260 H   0  0  0  0  0  0  0  0  0  0  0  0
   58.4757   29.5396   48.7806 H   0  0  0  0  0  0  0  0  0  0  0  0
   59.0426   27.8260   48.5763 H   0  0  0  0  0  0  0  0  0  0  0  0
   60.7341   28.7359   49.8900 H   0  0  0  0  0  0  0  0  0  0  0  0
   61.3826   28.9405   48.2072 H   0  0  0  0  0  0  0  0  0  0  0  0
   59.1781   31.1176   50.6577 H   0  0  0  0  0  0  0  0  0  0  0  0
   59.9147   33.7157   51.8009 H   0  0  0  0  0  0  0  0  0  0  0  0
   60.3464   34.8343   50.4634 H   0  0  0  0  0  0  0  0  0  0  0  0
   58.7517   34.0076   50.4634 H   0  0  0  0  0  0  0  0  0  0  0  0
   61.9160   34.9626   49.0877 H   0  0  0  0  0  0  0  0  0  0  0  0
   63.6897   34.6533   47.3257 H   0  0  0  0  0  0  0  0  0  0  0  0
   64.1152   32.3848   46.3520 H   0  0  0  0  0  0  0  0  0  0  0  0
   62.7792   30.4003   47.1388 H   0  0  0  0  0  0  0  0  0  0  0  0
   60.7579   28.7004   45.4985 H   0  0  0  0  0  0  0  0  0  0  0  0
   60.4777   27.3775   46.7012 H   0  0  0  0  0  0  0  0  0  0  0  0
   59.2470   28.8365   43.3921 H   0  0  0  0  0  0  0  0  0  0  0  0
   57.7640   27.1880   41.9681 H   0  0  0  0  0  0  0  0  0  0  0  0
   58.6192   25.6003   46.2675 H   0  0  0  0  0  0  0  0  0  0  0  0
  1  2  1  0
  2  3  2  0
  3  4  1  0
  4  5  1  0
  5  6  1  0
  5  7  2  0
  7  8  1  0
  8  9  1  0
  9 10  2  0
  9 11  1  0
 11 12  1  0
 12 13  1  0
 13 14  1  0
 14 15  2  0
 15 16  1  0
 16 17  1  0
 16 18  1  0
 18 19  2  0
 19 20  1  0
 20 21  2  0
 21 22  1  0
 22 23  2  0
 11 24  1  0
 24 25  1  0
 25 26  1  0
 26 27  2  0
 27 28  1  0
 28 29  1  0
  7  2  1  0
 23 14  1  0
 29 25  2  0
 23 18  1  0
  1 30  1  0
  1 31  1  0
  1 32  1  0
  6 33  1  0
  6 34  1  0
  6 35  1  0
  8 36  1  0
 12 37  1  0
 12 38  1  0
 13 39  1  0
 13 40  1  0
 15 41  1  0
 17 42  1  0
 17 43  1  0
 17 44  1  0
 19 45  1  0
 20 46  1  0
 21 47  1  0
 22 48  1  0
 24 49  1  0
 24 50  1  0
 26 51  1  0
 27 52  1  0
 29 53  1  0
M  END
>  <UniqueID>  (93) 
90

>  <SMILES>  (93) 
Cc1noc(C)c1NC(=O)N(CCc1cn(C)c2ccccc12)Cc1ccsc1

>  <Energy>  (93) 
139.30539771541197

>  <Genealogy>  (93) 
Cc1noc(C)c1NC(=O)N(CCc1cn(C)c2ccccc12)Cc1ccsc1 (3D coordinates assigned)
Cc1noc(C)c1NC(=O)N(CCc1cn(C)c2ccccc12)Cc1ccsc1 (optimized conformer: 139.30539771541197 kcal/mol)

>  <smiles>  (93) 
Cc1noc(C)c1NC(=O)N(CCc1cn(C)c2ccccc12)Cc1ccsc1

>  <score_type>  (93) 
oracle

>  <origin>  (93) 
adg

>  <m_score__min__energy>  (93) 
-8.2100000000000009

>  <m_primary>  (93) 
energy

$$$$
