0:0
     RDKit          3D

 62 64  0  0  0  0  0  0  0  0999 V2000
   56.7810   31.6590   45.4140 H   0  0  0  0  0  0  0  0  0  0  0  0
   56.2680   30.9510   44.8410 N   0  0  0  0  0  0  0  0  0  0  0  0
   56.7970   29.8180   44.5050 C   0  0  0  0  0  0  0  0  0  0  0  0
   57.3590   29.0340   45.4650 N   0  0  0  0  0  0  0  0  0  0  0  0
   57.9420   27.8340   45.1790 C   0  0  0  0  0  0  0  0  0  0  0  0
   58.5140   27.0480   46.2460 N   0  0  0  0  0  0  0  0  0  0  0  0
   59.9460   27.2190   46.5480 C   0  0  0  0  0  0  0  0  0  0  0  0
   60.4237   26.2284   46.5697 H   0  0  0  0  0  0  0  0  0  0  0  0
   60.3811   27.8577   45.7653 H   0  0  0  0  0  0  0  0  0  0  0  0
   60.1740   27.8970   47.8770 C   0  0  0  0  0  0  0  0  0  0  0  0
   60.3810   27.1010   49.0180 C   0  0  0  0  0  0  0  0  0  0  0  0
   60.2267   26.0135   48.9592 H   0  0  0  0  0  0  0  0  0  0  0  0
   60.7800   27.6780   50.2230 C   0  0  0  0  0  0  0  0  0  0  0  0
   60.9174   27.0493   51.1151 H   0  0  0  0  0  0  0  0  0  0  0  0
   61.0050   29.0530   50.2970 C   0  0  0  0  0  0  0  0  0  0  0  0
   61.3484   29.5037   51.2398 H   0  0  0  0  0  0  0  0  0  0  0  0
   60.7950   29.8560   49.1770 C   0  0  0  0  0  0  0  0  0  0  0  0
   61.0008   30.9350   49.2345 H   0  0  0  0  0  0  0  0  0  0  0  0
   60.3230   29.3010   47.9750 C   0  0  0  0  0  0  0  0  0  0  0  0
   59.9850   30.3810   46.5650 S   0  0  0  0  0  0  0  0  0  0  0  0
   61.0060   31.7500   47.1500 C   0  0  0  0  0  0  0  0  0  0  0  0
   62.4000   31.5850   47.1250 C   0  0  0  0  0  0  0  0  0  0  0  0
   62.8294   30.6465   46.7444 H   0  0  0  0  0  0  0  0  0  0  0  0
   63.2470   32.5970   47.5770 C   0  0  0  0  0  0  0  0  0  0  0  0
   64.3363   32.4443   47.5775 H   0  0  0  0  0  0  0  0  0  0  0  0
   62.7110   33.8020   48.0280 C   0  0  0  0  0  0  0  0  0  0  0  0
   63.3772   34.5954   48.3977 H   0  0  0  0  0  0  0  0  0  0  0  0
   61.3300   34.0030   48.0110 C   0  0  0  0  0  0  0  0  0  0  0  0
   60.9169   34.9684   48.3385 H   0  0  0  0  0  0  0  0  0  0  0  0
   60.4590   32.9830   47.5790 C   0  0  0  0  0  0  0  0  0  0  0  0
   59.0590   33.2760   47.4290 N   0  0  0  0  0  0  0  0  0  0  0  0
   58.1670   32.6540   48.4190 C   0  0  0  0  0  0  0  0  0  0  0  0
   57.2751   33.2869   48.5375 H   0  0  0  0  0  0  0  0  0  0  0  0
   57.9044   31.6515   48.0501 H   0  0  0  0  0  0  0  0  0  0  0  0
   58.8330   32.4880   49.7790 C   0  0  0  0  0  0  0  0  0  0  0  0
   58.0949   32.6720   50.5736 H   0  0  0  0  0  0  0  0  0  0  0  0
   59.2253   31.4646   49.8727 H   0  0  0  0  0  0  0  0  0  0  0  0
   59.6597   33.2076   49.8727 H   0  0  0  0  0  0  0  0  0  0  0  0
   58.4540   33.5820   45.8150 S   0  0  0  0  0  0  0  0  0  0  0  0
   56.9640   33.7780   45.8690 O   0  0  0  0  0  0  0  0  0  0  0  0
   58.7490   32.4060   44.9250 O   0  0  0  0  0  0  0  0  0  0  0  0
   59.2080   35.0120   45.0700 C   0  0  0  0  0  0  0  0  0  0  0  0
   59.5658   35.6905   45.8584 H   0  0  0  0  0  0  0  0  0  0  0  0
   60.0566   34.6957   44.4456 H   0  0  0  0  0  0  0  0  0  0  0  0
   58.4676   35.5335   44.4456 H   0  0  0  0  0  0  0  0  0  0  0  0
   57.6230   26.3310   47.1810 C   0  0  0  0  0  0  0  0  0  0  0  0
   58.2349   25.8233   47.9412 H   0  0  0  0  0  0  0  0  0  0  0  0
   56.9494   27.0633   47.6500 H   0  0  0  0  0  0  0  0  0  0  0  0
   56.7710   25.2890   46.4480 C   0  0  0  0  0  0  0  0  0  0  0  0
   57.2093   25.0971   45.4575 H   0  0  0  0  0  0  0  0  0  0  0  0
   56.7536   24.3651   47.0447 H   0  0  0  0  0  0  0  0  0  0  0  0
   55.4410   25.7500   46.2860 O   0  0  0  0  0  0  0  0  0  0  0  0
   54.6650   24.7870   45.6070 C   0  0  0  0  0  0  0  0  0  0  0  0
   54.1502   24.1481   46.3396 H   0  0  0  0  0  0  0  0  0  0  0  0
   53.9206   25.2946   44.9760 H   0  0  0  0  0  0  0  0  0  0  0  0
   55.3193   24.1675   44.9760 H   0  0  0  0  0  0  0  0  0  0  0  0
   57.9700   27.3840   43.8480 C   0  0  0  0  0  0  0  0  0  0  0  0
   58.4395   26.4212   43.5978 H   0  0  0  0  0  0  0  0  0  0  0  0
   57.3970   28.1690   42.8460 C   0  0  0  0  0  0  0  0  0  0  0  0
   57.4123   27.8246   41.8014 H   0  0  0  0  0  0  0  0  0  0  0  0
   56.8050   29.3900   43.1690 C   0  0  0  0  0  0  0  0  0  0  0  0
   56.3490   30.0111   42.3840 H   0  0  0  0  0  0  0  0  0  0  0  0
  1  2  1  0
  2  3  2  0
  3  4  1  0
  4  5  1  0
  5  6  1  0
  6  7  1  0
  7  8  1  0
  7  9  1  0
  7 10  1  0
 10 11  2  0
 11 12  1  0
 11 13  1  0
 13 14  1  0
 13 15  2  0
 15 16  1  0
 15 17  1  0
 17 18  1  0
 17 19  2  0
 19 20  1  0
 20 21  1  0
 21 22  2  0
 22 23  1  0
 22 24  1  0
 24 25  1  0
 24 26  2  0
 26 27  1  0
 26 28  1  0
 28 29  1  0
 28 30  2  0
 30 31  1  0
 31 32  1  0
 32 33  1  0
 32 34  1  0
 32 35  1  0
 35 36  1  0
 35 37  1  0
 35 38  1  0
 31 39  1  0
 39 40  2  0
 39 41  2  0
 39 42  1  0
 42 43  1  0
 42 44  1  0
 42 45  1  0
  6 46  1  0
 46 47  1  0
 46 48  1  0
 46 49  1  0
 49 50  1  0
 49 51  1  0
 49 52  1  0
 52 53  1  0
 53 54  1  0
 53 55  1  0
 53 56  1  0
  5 57  2  0
 57 58  1  0
 57 59  1  0
 59 60  1  0
 59 61  2  0
 61 62  1  0
 61  3  1  0
 19 10  1  0
 30 21  1  0
M  CHG  1   4  -1
M  END
>  <UniqueID>  (1) 
1

>  <SMILES>  (1) 
[H]/N=c1\cccc(N(CCOC)Cc2ccccc2Sc2ccccc2N(CC)S(C)(=O)=O)[n-]1

>  <Energy>  (1) 
67.17019539948683

>  <Genealogy>  (1) 
CCN(c1ccccc1Sc1ccccc1CN(CCOC)c1cccc(=N)[n-]1)S(C)(=O)=O (protonated)
[H]/N=c1\cccc(N(CCOC)Cc2ccccc2Sc2ccccc2N(CC)S(C)(=O)=O)[n-]1 (cis-trans isomerization)
[H]/N=c1\cccc(N(CCOC)Cc2ccccc2Sc2ccccc2N(CC)S(C)(=O)=O)[n-]1 (3D coordinates assigned)
[H]/N=c1\cccc(N(CCOC)Cc2ccccc2Sc2ccccc2N(CC)S(C)(=O)=O)[n-]1 (optimized conformer: 67.17019539948683 kcal/mol)

>  <smiles>  (1) 
CCN(c1ccccc1Sc1ccccc1CN(CCOC)c1cccc(=N)[nH]1)S(C)(=O)=O

>  <score_type>  (1) 
oracle

>  <origin>  (1) 
adg

>  <m_score__min__energy>  (1) 
-11.6

>  <m_primary>  (1) 
energy

$$$$
1:0
     RDKit          3D

 37 39  0  0  0  0  0  0  0  0999 V2000
   59.3510   34.9780   45.8440 C   0  0  0  0  0  0  0  0  0  0  0  0
   58.2760   33.9370   45.7740 C   0  0  0  0  0  0  0  0  0  0  0  0
   57.0870   34.3010   45.5820 O   0  0  0  0  0  0  0  0  0  0  0  0
   58.5630   32.5360   45.8790 N   0  0  0  0  0  0  0  0  0  0  0  0
   57.8800   31.4700   45.2050 C   0  0  0  0  0  0  0  0  0  0  0  0
   57.3670   31.6280   43.9090 C   0  0  0  0  0  0  0  0  0  0  0  0
   56.7260   30.5640   43.2730 C   0  0  0  0  0  0  0  0  0  0  0  0
   56.6100   29.3300   43.9150 C   0  0  0  0  0  0  0  0  0  0  0  0
   57.1480   29.1370   45.2000 C   0  0  0  0  0  0  0  0  0  0  0  0
   57.0210   27.8130   45.8610 C   0  0  0  0  0  0  0  0  0  0  0  0
   57.9640   27.2730   46.7440 C   0  0  0  0  0  0  0  0  0  0  0  0
   57.4150   25.7620   47.2430 S   0  0  0  0  0  0  0  0  0  0  0  0
   56.0210   25.8510   46.3190 C   0  0  0  0  0  0  0  0  0  0  0  0
   55.1110   24.9210   46.3030 N   0  0  0  0  0  0  0  0  0  0  0  0
   54.7360   24.0820   45.1970 C   0  0  0  0  0  0  0  0  0  0  0  0
   53.6350   23.4740   45.2590 O   0  0  0  0  0  0  0  0  0  0  0  0
   55.6080   23.9210   43.9730 C   0  0  0  0  0  0  0  0  0  0  0  0
   56.8910   23.2070   44.2820 C   0  0  0  0  0  0  0  0  0  0  0  0
   58.2390   23.9200   45.0000 S   0  0  0  0  0  0  0  0  0  0  0  0
   59.1400   22.5050   44.9120 C   0  0  0  0  0  0  0  0  0  0  0  0
   60.3230   22.3910   45.3250 O   0  0  0  0  0  0  0  0  0  0  0  0
   58.4580   21.4890   44.3420 N   0  0  0  0  0  0  0  0  0  0  0  0
   57.2050   21.8770   43.9850 C   0  0  0  0  0  0  0  0  0  0  0  0
   56.3270   20.9930   43.3640 O   0  0  0  0  0  0  0  0  0  0  0  0
   55.9430   27.0110   45.6350 N   0  0  0  0  0  0  0  0  0  0  0  0
   57.7900   30.2210   45.8350 C   0  0  0  0  0  0  0  0  0  0  0  0
   59.5793   35.1991   46.8971 H   0  0  0  0  0  0  0  0  0  0  0  0
   60.2563   34.6044   45.3432 H   0  0  0  0  0  0  0  0  0  0  0  0
   59.0067   35.8949   45.3432 H   0  0  0  0  0  0  0  0  0  0  0  0
   57.4703   32.5936   43.3924 H   0  0  0  0  0  0  0  0  0  0  0  0
   56.3111   30.6981   42.2631 H   0  0  0  0  0  0  0  0  0  0  0  0
   56.0927   28.5003   43.4109 H   0  0  0  0  0  0  0  0  0  0  0  0
   58.9024   27.7536   47.0577 H   0  0  0  0  0  0  0  0  0  0  0  0
   55.0547   23.3444   43.2171 H   0  0  0  0  0  0  0  0  0  0  0  0
   55.8608   24.9258   43.6035 H   0  0  0  0  0  0  0  0  0  0  0  0
   56.5660   20.0210   43.2140 H   0  0  0  0  0  0  0  0  0  0  0  0
   58.2250   30.0845   46.8361 H   0  0  0  0  0  0  0  0  0  0  0  0
  1  2  1  0
  2  3  2  0
  2  4  1  0
  4  5  1  0
  5  6  2  0
  6  7  1  0
  7  8  2  0
  8  9  1  0
  9 10  1  0
 10 11  2  0
 11 12  1  0
 12 13  1  0
 13 14  2  3
 14 15  1  0
 15 16  2  0
 15 17  1  0
 17 18  1  0
 18 19  1  0
 19 20  1  0
 20 21  2  0
 20 22  1  0
 22 23  1  0
 23 24  1  0
 13 25  1  0
  9 26  2  0
 26  5  1  0
 25 10  1  0
 23 18  2  0
  1 27  1  0
  1 28  1  0
  1 29  1  0
  6 30  1  0
  7 31  1  0
  8 32  1  0
 11 33  1  0
 17 34  1  0
 17 35  1  0
 24 36  1  0
 26 37  1  0
M  CHG  3   4  -1  22  -1  25  -1
M  END
>  <UniqueID>  (2) 
2

>  <SMILES>  (2) 
CC(=O)[N-]c1cccc(-c2csc(=NC(=O)Cc3sc(=O)[n-]c3O)[n-]2)c1

>  <Energy>  (2) 
108.28687896680565

>  <Genealogy>  (2) 
CC(=O)[N-]c1cccc(-c2csc(=NC(=O)Cc3sc(=O)[n-]c3O)[n-]2)c1 (protonated)
CC(=O)[N-]c1cccc(-c2csc(=NC(=O)Cc3sc(=O)[n-]c3O)[n-]2)c1 (3D coordinates assigned)
CC(=O)[N-]c1cccc(-c2csc(=NC(=O)Cc3sc(=O)[n-]c3O)[n-]2)c1 (optimized conformer: 108.28687896680565 kcal/mol)

>  <smiles>  (2) 
CC(=O)Nc1cccc(-c2csc(=NC(=O)Cc3sc(=O)[nH]c3O)[nH]2)c1

>  <score_type>  (2) 
oracle

>  <origin>  (2) 
adg

>  <m_score__min__energy>  (2) 
-13.59

>  <m_primary>  (2) 
energy

$$$$
2:0
     RDKit          3D

 37 39  0  0  0  0  0  0  0  0999 V2000
   56.9570   21.5250   43.1980 C   0  0  0  0  0  0  0  0  0  0  0  0
   55.9750   22.3960   43.7490 O   0  0  0  0  0  0  0  0  0  0  0  0
   56.2680   23.5350   44.5140 C   0  0  0  0  0  0  0  0  0  0  0  0
   57.5750   23.8500   44.9280 C   0  0  0  0  0  0  0  0  0  0  0  0
   57.8160   25.0020   45.6810 C   0  0  0  0  0  0  0  0  0  0  0  0
   56.7660   25.8680   46.0160 C   0  0  0  0  0  0  0  0  0  0  0  0
   57.0580   27.0700   46.7480 N   0  0  0  0  0  0  0  0  0  0  0  0
   58.3870   27.4810   47.1180 C   0  0  0  0  0  0  0  0  0  0  0  0
   59.0990   26.6790   48.0140 C   0  0  0  0  0  0  0  0  0  0  0  0
   60.3760   27.0700   48.3970 C   0  0  0  0  0  0  0  0  0  0  0  0
   61.0330   26.3770   49.2170 O   0  0  0  0  0  0  0  0  0  0  0  0
   60.9140   28.2010   47.8840 N   0  0  0  0  0  0  0  0  0  0  0  0
   60.2390   28.9730   46.9950 C   0  0  0  0  0  0  0  0  0  0  0  0
   61.0070   30.2930   46.3880 S   0  0  0  0  0  0  0  0  0  0  0  0
   58.9680   28.6170   46.5970 N   0  0  0  0  0  0  0  0  0  0  0  0
   58.2700   29.3850   45.5930 C   0  0  0  0  0  0  0  0  0  0  0  0
   57.7990   28.7610   44.4270 C   0  0  0  0  0  0  0  0  0  0  0  0
   57.0760   29.4930   43.4810 C   0  0  0  0  0  0  0  0  0  0  0  0
   56.8190   30.8510   43.6920 C   0  0  0  0  0  0  0  0  0  0  0  0
   57.2910   31.4800   44.8480 C   0  0  0  0  0  0  0  0  0  0  0  0
   58.0170   30.7520   45.7950 C   0  0  0  0  0  0  0  0  0  0  0  0
   55.4520   25.5370   45.6290 C   0  0  0  0  0  0  0  0  0  0  0  0
   54.3780   26.3420   45.9910 O   0  0  0  0  0  0  0  0  0  0  0  0
   55.2150   24.3810   44.8770 C   0  0  0  0  0  0  0  0  0  0  0  0
   57.5102   21.0343   44.0123 H   0  0  0  0  0  0  0  0  0  0  0  0
   56.4638   20.7619   42.5780 H   0  0  0  0  0  0  0  0  0  0  0  0
   57.6558   22.1058   42.5780 H   0  0  0  0  0  0  0  0  0  0  0  0
   58.4102   23.1870   44.6580 H   0  0  0  0  0  0  0  0  0  0  0  0
   58.8390   25.2314   46.0139 H   0  0  0  0  0  0  0  0  0  0  0  0
   56.2620   27.6870   47.0250 H   0  0  0  0  0  0  0  0  0  0  0  0
   58.6556   25.7533   48.4096 H   0  0  0  0  0  0  0  0  0  0  0  0
   57.9995   27.6928   44.2574 H   0  0  0  0  0  0  0  0  0  0  0  0
   56.7086   28.9999   42.5690 H   0  0  0  0  0  0  0  0  0  0  0  0
   56.2456   31.4244   42.9487 H   0  0  0  0  0  0  0  0  0  0  0  0
   57.0908   32.5491   45.0125 H   0  0  0  0  0  0  0  0  0  0  0  0
   58.3913   31.2510   46.7011 H   0  0  0  0  0  0  0  0  0  0  0  0
   54.1885   24.1347   44.5677 H   0  0  0  0  0  0  0  0  0  0  0  0
  1  2  1  0
  2  3  1  0
  3  4  2  0
  4  5  1  0
  5  6  2  0
  6  7  1  0
  7  8  1  0
  8  9  2  0
  9 10  1  0
 10 11  2  0
 10 12  1  0
 12 13  1  0
 13 14  2  0
 13 15  1  0
 15 16  1  0
 16 17  2  0
 17 18  1  0
 18 19  2  0
 19 20  1  0
 20 21  2  0
  6 22  1  0
 22 23  1  0
 22 24  2  0
 24  3  1  0
 15  8  1  0
 21 16  1  0
  1 25  1  0
  1 26  1  0
  1 27  1  0
  4 28  1  0
  5 29  1  0
  7 30  1  0
  9 31  1  0
 17 32  1  0
 18 33  1  0
 19 34  1  0
 20 35  1  0
 21 36  1  0
 24 37  1  0
M  CHG  2  12  -1  23  -1
M  END
>  <UniqueID>  (3) 
3

>  <SMILES>  (3) 
COc1ccc(Nc2cc(=O)[n-]c(=S)n2-c2ccccc2)c([O-])c1

>  <Energy>  (3) 
57.472649870366254

>  <Genealogy>  (3) 
COc1ccc(Nc2cc(=O)[n-]c(=S)n2-c2ccccc2)c([O-])c1 (protonated)
COc1ccc(Nc2cc(=O)[n-]c(=S)n2-c2ccccc2)c([O-])c1 (3D coordinates assigned)
COc1ccc(Nc2cc(=O)[n-]c(=S)n2-c2ccccc2)c([O-])c1 (optimized conformer: 57.472649870366254 kcal/mol)

>  <smiles>  (3) 
COc1ccc(Nc2cc(=O)[nH]c(=S)n2-c2ccccc2)c(O)c1

>  <score_type>  (3) 
oracle

>  <origin>  (3) 
adg

>  <m_score__min__energy>  (3) 
-12.26

>  <m_primary>  (3) 
energy

$$$$
3:0
     RDKit          3D

 17 18  0  0  0  0  0  0  0  0999 V2000
   53.4260   26.3390   46.1440 H   0  0  0  0  0  0  0  0  0  0  0  0
   54.2790   25.9420   45.6910 N   0  0  0  0  0  0  0  0  0  0  0  0
   55.4640   26.3620   45.9970 C   0  0  0  0  0  0  0  0  0  0  0  0
   56.2740   25.5920   46.7640 N   0  0  0  0  0  0  0  0  0  0  0  0
   57.5250   25.9930   47.1090 C   0  0  0  0  0  0  0  0  0  0  0  0
   58.2240   25.2290   47.8230 O   0  0  0  0  0  0  0  0  0  0  0  0
   58.0120   27.2450   46.6620 C   0  0  0  0  0  0  0  0  0  0  0  0
   59.3040   27.7560   46.9650 C   0  0  0  0  0  0  0  0  0  0  0  0
   60.6110   26.8360   48.0350 Br  0  0  0  0  0  0  0  0  0  0  0  0
   59.6850   29.0110   46.4710 C   0  0  0  0  0  0  0  0  0  0  0  0
   60.6836   29.4076   46.7068 H   0  0  0  0  0  0  0  0  0  0  0  0
   58.8130   29.7630   45.6840 C   0  0  0  0  0  0  0  0  0  0  0  0
   59.1276   30.7456   45.3024 H   0  0  0  0  0  0  0  0  0  0  0  0
   57.5460   29.2740   45.3800 C   0  0  0  0  0  0  0  0  0  0  0  0
   56.8619   29.8716   44.7596 H   0  0  0  0  0  0  0  0  0  0  0  0
   57.1400   28.0250   45.8610 C   0  0  0  0  0  0  0  0  0  0  0  0
   55.9000   27.5670   45.5510 N   0  0  0  0  0  0  0  0  0  0  0  0
  1  2  1  0
  2  3  2  0
  3  4  1  0
  4  5  1  0
  5  6  2  0
  5  7  1  0
  7  8  2  0
  8  9  1  0
  8 10  1  0
 10 11  1  0
 10 12  2  0
 12 13  1  0
 12 14  1  0
 14 15  1  0
 14 16  2  0
 16 17  1  0
 17  3  1  0
 16  7  1  0
M  CHG  2   4  -1  17  -1
M  END
>  <UniqueID>  (4) 
4

>  <SMILES>  (4) 
[H]/N=c1/[n-]c(=O)c2c(Br)cccc2[n-]1

>  <Energy>  (4) 
26.268656372662193

>  <Genealogy>  (4) 
N=c1[n-]c(=O)c2c(Br)cccc2[n-]1 (protonated)
[H]/N=c1/[n-]c(=O)c2c(Br)cccc2[n-]1 (cis-trans isomerization)
[H]/N=c1/[n-]c(=O)c2c(Br)cccc2[n-]1 (3D coordinates assigned)
[H]/N=c1/[n-]c(=O)c2c(Br)cccc2[n-]1 (optimized conformer: 26.268656372662193 kcal/mol)

>  <smiles>  (4) 
N=c1[nH]c(=O)c2c(Br)cccc2[nH]1

>  <score_type>  (4) 
oracle

>  <origin>  (4) 
adg

>  <m_score__min__energy>  (4) 
-10.56

>  <m_primary>  (4) 
energy

$$$$
4:0
     RDKit          3D

 45 48  0  0  0  0  0  0  0  0999 V2000
   59.6790   27.7530   46.6930 C   0  0  0  0  0  0  0  0  0  0  0  0
   58.8830   28.3800   45.8130 C   0  0  0  0  0  0  0  0  0  0  0  0
   58.0010   27.7710   44.9060 C   0  0  0  0  0  0  0  0  0  0  0  0
   57.7940   26.4450   44.7440 C   0  0  0  0  0  0  0  0  0  0  0  0
   57.1750   25.5400   45.7380 C   0  0  0  0  0  0  0  0  0  0  0  0
   57.7500   24.4550   46.2840 N   0  0  0  0  0  0  0  0  0  0  0  0
   56.8140   23.9950   47.1400 C   0  0  0  0  0  0  0  0  0  0  0  0
   56.9860   22.9690   47.8460 O   0  0  0  0  0  0  0  0  0  0  0  0
   55.6800   24.7240   47.1810 N   0  0  0  0  0  0  0  0  0  0  0  0
   55.9260   25.6980   46.2920 C   0  0  0  0  0  0  0  0  0  0  0  0
   55.0270   26.7150   45.9940 O   0  0  0  0  0  0  0  0  0  0  0  0
   57.3690   28.8120   44.2330 C   0  0  0  0  0  0  0  0  0  0  0  0
   57.8760   29.9880   44.7450 C   0  0  0  0  0  0  0  0  0  0  0  0
   57.4580   31.3570   44.2990 C   0  0  0  0  0  0  0  0  0  0  0  0
   58.8110   29.7320   45.6890 N   0  0  0  0  0  0  0  0  0  0  0  0
   59.5450   30.7420   46.4690 C   0  0  0  0  0  0  0  0  0  0  0  0
   59.0080   30.8400   47.8690 C   0  0  0  0  0  0  0  0  0  0  0  0
   58.9520   29.8140   48.7360 N   0  0  0  0  0  0  0  0  0  0  0  0
   58.4590   30.3790   49.8570 C   0  0  0  0  0  0  0  0  0  0  0  0
   58.2560   29.7300   50.9140 O   0  0  0  0  0  0  0  0  0  0  0  0
   58.2020   31.6990   49.7570 N   0  0  0  0  0  0  0  0  0  0  0  0
   58.5530   31.9860   48.4920 C   0  0  0  0  0  0  0  0  0  0  0  0
   58.4650   33.3360   47.9040 C   0  0  0  0  0  0  0  0  0  0  0  0
   57.5080   33.6130   47.1360 O   0  0  0  0  0  0  0  0  0  0  0  0
   59.4530   34.3420   48.1690 N   0  0  0  0  0  0  0  0  0  0  0  0
   60.5500   34.7030   47.2740 C   0  0  0  0  0  0  0  0  0  0  0  0
   61.7550   33.8580   47.5530 C   0  0  0  0  0  0  0  0  0  0  0  0
   62.7510   33.5270   46.6400 C   0  0  0  0  0  0  0  0  0  0  0  0
   63.7800   32.7640   47.2000 C   0  0  0  0  0  0  0  0  0  0  0  0
   63.5780   32.4620   48.5430 C   0  0  0  0  0  0  0  0  0  0  0  0
   62.1390   33.1720   49.0390 S   0  0  0  0  0  0  0  0  0  0  0  0
   60.3321   28.3376   47.3576 H   0  0  0  0  0  0  0  0  0  0  0  0
   59.6784   26.6545   46.7497 H   0  0  0  0  0  0  0  0  0  0  0  0
   58.1135   25.9998   43.7902 H   0  0  0  0  0  0  0  0  0  0  0  0
   56.6096   28.7154   43.4431 H   0  0  0  0  0  0  0  0  0  0  0  0
   57.2657   31.9869   45.1801 H   0  0  0  0  0  0  0  0  0  0  0  0
   58.2598   31.8066   43.6949 H   0  0  0  0  0  0  0  0  0  0  0  0
   56.5418   31.2820   43.6949 H   0  0  0  0  0  0  0  0  0  0  0  0
   60.6077   30.4610   46.5107 H   0  0  0  0  0  0  0  0  0  0  0  0
   59.4222   31.7190   45.9787 H   0  0  0  0  0  0  0  0  0  0  0  0
   60.2329   34.5484   46.2321 H   0  0  0  0  0  0  0  0  0  0  0  0
   60.8104   35.7590   47.4386 H   0  0  0  0  0  0  0  0  0  0  0  0
   62.7310   33.8345   45.5841 H   0  0  0  0  0  0  0  0  0  0  0  0
   64.6636   32.4344   46.6337 H   0  0  0  0  0  0  0  0  0  0  0  0
   64.2481   31.8595   49.1739 H   0  0  0  0  0  0  0  0  0  0  0  0
  1  2  2  0
  2  3  1  0
  3  4  2  3
  4  5  1  0
  5  6  1  0
  6  7  1  0
  7  8  2  0
  7  9  1  0
  9 10  1  0
 10 11  1  0
  3 12  1  0
 12 13  2  0
 13 14  1  0
 13 15  1  0
 15 16  1  0
 16 17  1  0
 17 18  1  0
 18 19  1  0
 19 20  2  0
 19 21  1  0
 21 22  1  0
 22 23  1  0
 23 24  2  0
 23 25  1  0
 25 26  1  0
 26 27  1  0
 27 28  2  0
 28 29  1  0
 29 30  2  0
 30 31  1  0
 15  2  1  0
 22 17  2  0
 31 27  1  0
 10  5  2  0
  1 32  1  0
  1 33  1  0
  4 34  1  0
 12 35  1  0
 14 36  1  0
 14 37  1  0
 14 38  1  0
 16 39  1  0
 16 40  1  0
 26 41  1  0
 26 42  1  0
 28 43  1  0
 29 44  1  0
 30 45  1  0
M  CHG  6   6  -1   9  -1  11  -1  18  -1  21  -1  25  -1
M  END
>  <UniqueID>  (5) 
5

>  <SMILES>  (5) 
C=c1c(=Cc2[n-]c(=O)[n-]c2[O-])cc(C)n1Cc1[n-]c(=O)[n-]c1C(=O)[N-]Cc1cccs1

>  <Energy>  (5) 
163.37862369946046

>  <Genealogy>  (5) 
C=c1c(=Cc2[n-]c(=O)[n-]c2[O-])cc(C)n1Cc1[n-]c(=O)[n-]c1C(=O)[N-]Cc1cccs1 (protonated)
C=c1c(=Cc2[n-]c(=O)[n-]c2[O-])cc(C)n1Cc1[n-]c(=O)[n-]c1C(=O)[N-]Cc1cccs1 (3D coordinates assigned)
C=c1c(=Cc2[n-]c(=O)[n-]c2[O-])cc(C)n1Cc1[n-]c(=O)[n-]c1C(=O)[N-]Cc1cccs1 (optimized conformer: 163.37862369946046 kcal/mol)

>  <smiles>  (5) 
C=c1c(=Cc2[nH]c(=O)[nH]c2O)cc(C)n1Cc1[nH]c(=O)[nH]c1C(=O)NCc1cccs1

>  <score_type>  (5) 
oracle

>  <origin>  (5) 
adg

>  <m_score__min__energy>  (5) 
-18.66

>  <m_primary>  (5) 
energy

$$$$
5:0
     RDKit          3D

 36 38  0  0  0  0  0  0  0  0999 V2000
   60.9080   30.1290   46.6760 C   0  0  0  0  0  0  0  0  0  0  0  0
   59.7020   29.8440   46.1790 C   0  0  0  0  0  0  0  0  0  0  0  0
   59.3030   28.5820   45.9000 N   0  0  0  0  0  0  0  0  0  0  0  0
   58.0580   28.6950   45.3910 C   0  0  0  0  0  0  0  0  0  0  0  0
   57.3330   27.6420   44.9760 C   0  0  0  0  0  0  0  0  0  0  0  0
   57.1970   26.3810   45.7360 C   0  0  0  0  0  0  0  0  0  0  0  0
   55.9560   25.9620   46.2410 C   0  0  0  0  0  0  0  0  0  0  0  0
   54.8080   26.7160   46.0220 O   0  0  0  0  0  0  0  0  0  0  0  0
   55.8700   24.8140   46.9620 N   0  0  0  0  0  0  0  0  0  0  0  0
   56.9730   24.0670   47.2230 C   0  0  0  0  0  0  0  0  0  0  0  0
   56.8700   23.0050   47.8900 O   0  0  0  0  0  0  0  0  0  0  0  0
   58.1890   24.4660   46.7680 N   0  0  0  0  0  0  0  0  0  0  0  0
   58.3270   25.6050   46.0410 C   0  0  0  0  0  0  0  0  0  0  0  0
   59.4710   25.9500   45.6400 O   0  0  0  0  0  0  0  0  0  0  0  0
   57.7310   30.0410   45.3630 C   0  0  0  0  0  0  0  0  0  0  0  0
   56.6580   30.5460   44.9360 O   0  0  0  0  0  0  0  0  0  0  0  0
   58.7570   30.7630   45.8590 N   0  0  0  0  0  0  0  0  0  0  0  0
   58.8030   32.1910   46.0220 C   0  0  0  0  0  0  0  0  0  0  0  0
   58.7300   33.0230   44.8940 C   0  0  0  0  0  0  0  0  0  0  0  0
   58.7930   34.4110   45.0350 C   0  0  0  0  0  0  0  0  0  0  0  0
   58.9340   34.9780   46.3010 C   0  0  0  0  0  0  0  0  0  0  0  0
   59.0090   34.1620   47.4320 C   0  0  0  0  0  0  0  0  0  0  0  0
   58.9430   32.7590   47.3040 C   0  0  0  0  0  0  0  0  0  0  0  0
   58.9980   31.9070   48.4190 O   0  0  0  0  0  0  0  0  0  0  0  0
   58.5710   32.2620   49.7290 C   0  0  0  0  0  0  0  0  0  0  0  0
   61.1838   31.1730   46.8857 H   0  0  0  0  0  0  0  0  0  0  0  0
   61.6258   29.3198   46.8758 H   0  0  0  0  0  0  0  0  0  0  0  0
   59.8480   27.7010   46.0430 H   0  0  0  0  0  0  0  0  0  0  0  0
   56.8089   27.7233   44.0123 H   0  0  0  0  0  0  0  0  0  0  0  0
   58.6226   32.5793   43.8932 H   0  0  0  0  0  0  0  0  0  0  0  0
   58.7314   35.0572   44.1469 H   0  0  0  0  0  0  0  0  0  0  0  0
   58.9863   36.0714   46.4093 H   0  0  0  0  0  0  0  0  0  0  0  0
   59.1201   34.6159   48.4278 H   0  0  0  0  0  0  0  0  0  0  0  0
   59.1952   31.7431   50.4713 H   0  0  0  0  0  0  0  0  0  0  0  0
   58.6680   33.3493   49.8642 H   0  0  0  0  0  0  0  0  0  0  0  0
   57.5197   31.9681   49.8642 H   0  0  0  0  0  0  0  0  0  0  0  0
  1  2  2  0
  2  3  1  0
  3  4  1  0
  4  5  2  3
  5  6  1  0
  6  7  2  0
  7  8  1  0
  7  9  1  0
  9 10  1  0
 10 11  2  0
 10 12  1  0
 12 13  1  0
 13 14  2  0
  4 15  1  0
 15 16  2  0
 15 17  1  0
 17 18  1  0
 18 19  2  0
 19 20  1  0
 20 21  2  0
 21 22  1  0
 22 23  2  0
 23 24  1  0
 24 25  1  0
 17  2  1  0
 23 18  1  0
 13  6  1  0
  1 26  1  0
  1 27  1  0
  3 28  1  0
  5 29  1  0
 19 30  1  0
 20 31  1  0
 21 32  1  0
 22 33  1  0
 25 34  1  0
 25 35  1  0
 25 36  1  0
M  CHG  3   8  -1   9  -1  12  -1
M  END
>  <UniqueID>  (6) 
6

>  <SMILES>  (6) 
C=c1[nH]c(=Cc2c([O-])[n-]c(=O)[n-]c2=O)c(=O)n1-c1ccccc1OC

>  <Energy>  (6) 
89.96103257576064

>  <Genealogy>  (6) 
C=c1[nH]c(=Cc2c([O-])[n-]c(=O)[n-]c2=O)c(=O)n1-c1ccccc1OC (protonated)
C=c1[nH]c(=Cc2c([O-])[n-]c(=O)[n-]c2=O)c(=O)n1-c1ccccc1OC (3D coordinates assigned)
C=c1[nH]c(=Cc2c([O-])[n-]c(=O)[n-]c2=O)c(=O)n1-c1ccccc1OC (optimized conformer: 89.96103257576064 kcal/mol)

>  <smiles>  (6) 
C=c1[nH]c(=Cc2c(O)[nH]c(=O)[nH]c2=O)c(=O)n1-c1ccccc1OC

>  <score_type>  (6) 
oracle

>  <origin>  (6) 
adg

>  <m_score__min__energy>  (6) 
-15.359999999999999

>  <m_primary>  (6) 
energy

$$$$
6:0
     RDKit          3D

 43 47  0  0  0  0  0  0  0  0999 V2000
   54.7290   26.3010   45.7800 N   0  0  0  0  0  0  0  0  0  0  0  0
   55.9130   25.7680   46.3640 C   0  0  0  0  0  0  0  0  0  0  0  0
   55.8820   24.6420   46.9270 O   0  0  0  0  0  0  0  0  0  0  0  0
   57.1650   26.5320   46.3120 C   0  0  0  0  0  0  0  0  0  0  0  0
   57.4200   27.4810   45.3860 N   0  0  0  0  0  0  0  0  0  0  0  0
   58.6500   28.0390   45.5570 C   0  0  0  0  0  0  0  0  0  0  0  0
   59.1360   29.1510   44.6810 C   0  0  0  0  0  0  0  0  0  0  0  0
   58.5370   30.4510   45.1280 C   0  0  0  0  0  0  0  0  0  0  0  0
   57.2170   30.8600   44.9850 C   0  0  0  0  0  0  0  0  0  0  0  0
   56.2340   30.1380   44.3200 O   0  0  0  0  0  0  0  0  0  0  0  0
   56.9800   32.0520   45.5790 N   0  0  0  0  0  0  0  0  0  0  0  0
   58.1700   32.3910   46.1150 C   0  0  0  0  0  0  0  0  0  0  0  0
   58.4480   33.5340   46.8570 C   0  0  0  0  0  0  0  0  0  0  0  0
   59.7520   33.6990   47.3570 C   0  0  0  0  0  0  0  0  0  0  0  0
   60.7560   32.7240   47.1150 C   0  0  0  0  0  0  0  0  0  0  0  0
   62.1200   32.9240   47.6610 C   0  0  0  0  0  0  0  0  0  0  0  0
   63.0660   33.8360   47.2380 C   0  0  0  0  0  0  0  0  0  0  0  0
   64.1740   33.6990   47.9860 N   0  0  0  0  0  0  0  0  0  0  0  0
   63.8740   32.7030   48.8470 C   0  0  0  0  0  0  0  0  0  0  0  0
   64.8150   32.2060   49.8740 C   0  0  0  0  0  0  0  0  0  0  0  0
   64.4200   31.2010   50.7770 C   0  0  0  0  0  0  0  0  0  0  0  0
   65.3120   30.7320   51.7470 C   0  0  0  0  0  0  0  0  0  0  0  0
   66.6020   31.2600   51.8260 C   0  0  0  0  0  0  0  0  0  0  0  0
   67.0050   32.2580   50.9360 C   0  0  0  0  0  0  0  0  0  0  0  0
   66.1170   32.7300   49.9640 C   0  0  0  0  0  0  0  0  0  0  0  0
   62.6300   32.2060   48.6780 N   0  0  0  0  0  0  0  0  0  0  0  0
   60.4350   31.5750   46.3550 C   0  0  0  0  0  0  0  0  0  0  0  0
   59.1320   31.4450   45.8720 C   0  0  0  0  0  0  0  0  0  0  0  0
   59.3800   27.5430   46.6350 C   0  0  0  0  0  0  0  0  0  0  0  0
   58.4510   26.3580   47.3830 S   0  0  0  0  0  0  0  0  0  0  0  0
   53.9730   26.7080   46.3740 H   0  0  0  0  0  0  0  0  0  0  0  0
   60.2324   29.2133   44.7450 H   0  0  0  0  0  0  0  0  0  0  0  0
   58.8352   28.9517   43.6419 H   0  0  0  0  0  0  0  0  0  0  0  0
   57.6698   34.2877   47.0474 H   0  0  0  0  0  0  0  0  0  0  0  0
   59.9980   34.5962   47.9440 H   0  0  0  0  0  0  0  0  0  0  0  0
   62.9340   34.5591   46.4197 H   0  0  0  0  0  0  0  0  0  0  0  0
   63.4044   30.7822   50.7195 H   0  0  0  0  0  0  0  0  0  0  0  0
   64.9966   29.9458   52.4488 H   0  0  0  0  0  0  0  0  0  0  0  0
   67.3016   30.8897   52.5899 H   0  0  0  0  0  0  0  0  0  0  0  0
   68.0217   32.6732   50.9995 H   0  0  0  0  0  0  0  0  0  0  0  0
   66.4391   33.5162   49.2653 H   0  0  0  0  0  0  0  0  0  0  0  0
   61.1925   30.8041   46.1500 H   0  0  0  0  0  0  0  0  0  0  0  0
   60.3849   27.8686   46.9420 H   0  0  0  0  0  0  0  0  0  0  0  0
  1  2  1  0
  2  3  2  0
  2  4  1  0
  4  5  2  0
  5  6  1  0
  6  7  1  0
  7  8  1  0
  8  9  2  0
  9 10  1  0
  9 11  1  0
 11 12  1  0
 12 13  2  0
 13 14  1  0
 14 15  2  0
 15 16  1  0
 16 17  2  0
 17 18  1  0
 18 19  1  0
 19 20  1  0
 20 21  2  0
 21 22  1  0
 22 23  2  0
 23 24  1  0
 24 25  2  0
 19 26  2  0
 15 27  1  0
 27 28  2  0
  6 29  2  0
 29 30  1  0
 30  4  1  0
 28  8  1  0
 28 12  1  0
 26 16  1  0
 25 20  1  0
  1 31  1  0
  7 32  1  0
  7 33  1  0
 13 34  1  0
 14 35  1  0
 17 36  1  0
 21 37  1  0
 22 38  1  0
 23 39  1  0
 24 40  1  0
 25 41  1  0
 27 42  1  0
 29 43  1  0
M  CHG  4   1  -1  10  -1  11  -1  18  -1
M  END
>  <UniqueID>  (7) 
7

>  <SMILES>  (7) 
[NH-]C(=O)c1nc(Cc2c([O-])[n-]c3ccc(-c4c[n-]c(-c5ccccc5)n4)cc23)cs1

>  <Energy>  (7) 
136.76270150657012

>  <Genealogy>  (7) 
[NH-]C(=O)c1nc(Cc2c([O-])[n-]c3ccc(-c4c[n-]c(-c5ccccc5)n4)cc23)cs1 (protonated)
[NH-]C(=O)c1nc(Cc2c([O-])[n-]c3ccc(-c4c[n-]c(-c5ccccc5)n4)cc23)cs1 (3D coordinates assigned)
[NH-]C(=O)c1nc(Cc2c([O-])[n-]c3ccc(-c4c[n-]c(-c5ccccc5)n4)cc23)cs1 (optimized conformer: 136.76270150657012 kcal/mol)

>  <smiles>  (7) 
NC(=O)c1nc(Cc2c(O)[nH]c3ccc(-c4c[nH]c(-c5ccccc5)n4)cc23)cs1

>  <score_type>  (7) 
oracle

>  <origin>  (7) 
adg

>  <m_score__min__energy>  (7) 
-16.649999999999999

>  <m_primary>  (7) 
energy

$$$$
7:0
     RDKit          3D

 50 53  0  0  0  0  0  0  0  0999 V2000
   59.5771   26.7736   46.6319 H   0  0  0  0  0  0  0  0  0  0  0  0
   59.5830   27.8730   46.5950 C   0  0  0  0  0  0  0  0  0  0  0  0
   60.2436   28.4422   47.2655 H   0  0  0  0  0  0  0  0  0  0  0  0
   58.7890   28.5160   45.7370 C   0  0  0  0  0  0  0  0  0  0  0  0
   58.7550   29.8260   45.6500 O   0  0  0  0  0  0  0  0  0  0  0  0
   57.8870   30.1640   44.7240 C   0  0  0  0  0  0  0  0  0  0  0  0
   57.5890   31.5510   44.3510 C   0  0  0  0  0  0  0  0  0  0  0  0
   58.1650   32.0650   43.3540 O   0  0  0  0  0  0  0  0  0  0  0  0
   56.6520   32.3130   45.1180 N   0  0  0  0  0  0  0  0  0  0  0  0
   57.0270   33.4390   45.9660 C   0  0  0  0  0  0  0  0  0  0  0  0
   56.7580   34.3789   45.4618 H   0  0  0  0  0  0  0  0  0  0  0  0
   56.4924   33.3602   46.9241 H   0  0  0  0  0  0  0  0  0  0  0  0
   58.5090   33.4220   46.2280 C   0  0  0  0  0  0  0  0  0  0  0  0
   59.0900   32.3890   46.9810 C   0  0  0  0  0  0  0  0  0  0  0  0
   58.4617   31.5732   47.3679 H   0  0  0  0  0  0  0  0  0  0  0  0
   60.4630   32.3930   47.2410 C   0  0  0  0  0  0  0  0  0  0  0  0
   60.9122   31.5770   47.8261 H   0  0  0  0  0  0  0  0  0  0  0  0
   61.2700   33.4330   46.7590 C   0  0  0  0  0  0  0  0  0  0  0  0
   63.0000   33.4170   47.0880 S   0  0  0  0  0  0  0  0  0  0  0  0
   63.5170   32.0030   47.0580 O   0  0  0  0  0  0  0  0  0  0  0  0
   63.6950   34.2040   46.0120 O   0  0  0  0  0  0  0  0  0  0  0  0
   63.3120   34.1460   48.6490 N   0  0  0  0  0  0  0  0  0  0  0  0
   62.0720   34.2510   49.4260 C   0  0  0  0  0  0  0  0  0  0  0  0
   62.1023   35.1524   50.0557 H   0  0  0  0  0  0  0  0  0  0  0  0
   61.2058   34.3222   48.7517 H   0  0  0  0  0  0  0  0  0  0  0  0
   61.9550   33.0140   50.3030 C   0  0  0  0  0  0  0  0  0  0  0  0
   61.6542   33.2937   51.3234 H   0  0  0  0  0  0  0  0  0  0  0  0
   61.1940   32.3162   49.9235 H   0  0  0  0  0  0  0  0  0  0  0  0
   63.3370   32.3880   50.3110 C   0  0  0  0  0  0  0  0  0  0  0  0
   63.7337   32.3458   51.3361 H   0  0  0  0  0  0  0  0  0  0  0  0
   63.3190   31.3559   49.9309 H   0  0  0  0  0  0  0  0  0  0  0  0
   64.2000   33.2930   49.4440 C   0  0  0  0  0  0  0  0  0  0  0  0
   64.8434   33.9170   50.0818 H   0  0  0  0  0  0  0  0  0  0  0  0
   64.8399   32.6897   48.7834 H   0  0  0  0  0  0  0  0  0  0  0  0
   60.6930   34.4650   46.0080 C   0  0  0  0  0  0  0  0  0  0  0  0
   61.3226   35.2807   45.6229 H   0  0  0  0  0  0  0  0  0  0  0  0
   59.3190   34.4620   45.7460 C   0  0  0  0  0  0  0  0  0  0  0  0
   58.8714   35.2781   45.1598 H   0  0  0  0  0  0  0  0  0  0  0  0
   57.3150   29.0360   44.1670 C   0  0  0  0  0  0  0  0  0  0  0  0
   56.5596   28.9999   43.3682 H   0  0  0  0  0  0  0  0  0  0  0  0
   57.8910   27.9590   44.8240 C   0  0  0  0  0  0  0  0  0  0  0  0
   57.6650   26.6520   44.5920 C   0  0  0  0  0  0  0  0  0  0  0  0
   57.8981   26.2567   43.5923 H   0  0  0  0  0  0  0  0  0  0  0  0
   57.1240   25.7190   45.5970 C   0  0  0  0  0  0  0  0  0  0  0  0
   57.8480   24.7300   46.1500 N   0  0  0  0  0  0  0  0  0  0  0  0
   57.0050   24.1930   47.0560 C   0  0  0  0  0  0  0  0  0  0  0  0
   57.3220   23.2120   47.7800 O   0  0  0  0  0  0  0  0  0  0  0  0
   55.7980   24.7930   47.1350 N   0  0  0  0  0  0  0  0  0  0  0  0
   55.8930   25.7660   46.2150 C   0  0  0  0  0  0  0  0  0  0  0  0
   54.8930   26.7020   45.9810 O   0  0  0  0  0  0  0  0  0  0  0  0
  1  2  1  0
  2  3  1  0
  2  4  2  0
  4  5  1  0
  5  6  1  0
  6  7  1  0
  7  8  2  0
  7  9  1  0
  9 10  1  0
 10 11  1  0
 10 12  1  0
 10 13  1  0
 13 14  2  0
 14 15  1  0
 14 16  1  0
 16 17  1  0
 16 18  2  0
 18 19  1  0
 19 20  2  0
 19 21  2  0
 19 22  1  0
 22 23  1  0
 23 24  1  0
 23 25  1  0
 23 26  1  0
 26 27  1  0
 26 28  1  0
 26 29  1  0
 29 30  1  0
 29 31  1  0
 29 32  1  0
 32 33  1  0
 32 34  1  0
 18 35  1  0
 35 36  1  0
 35 37  2  0
 37 38  1  0
  6 39  2  0
 39 40  1  0
 39 41  1  0
 41 42  2  0
 42 43  1  0
 42 44  1  0
 44 45  1  0
 45 46  1  0
 46 47  2  0
 46 48  1  0
 48 49  1  0
 49 50  1  0
 41  4  1  0
 49 44  2  0
 37 13  1  0
 32 22  1  0
M  CHG  4   9  -1  45  -1  48  -1  50  -1
M  END
>  <UniqueID>  (8) 
8

>  <SMILES>  (8) 
C=c1oc(C(=O)[N-]Cc2ccc(S(=O)(=O)N3CCCC3)cc2)c/c1=C\c1[n-]c(=O)[n-]c1[O-]

>  <Energy>  (8) 
114.17800292144526

>  <Genealogy>  (8) 
C=c1oc(C(=O)[N-]Cc2ccc(S(=O)(=O)N3CCCC3)cc2)cc1=Cc1[n-]c(=O)[n-]c1[O-] (protonated)
C=c1oc(C(=O)[N-]Cc2ccc(S(=O)(=O)N3CCCC3)cc2)c/c1=C\c1[n-]c(=O)[n-]c1[O-] (cis-trans isomerization)
C=c1oc(C(=O)[N-]Cc2ccc(S(=O)(=O)N3CCCC3)cc2)c/c1=C\c1[n-]c(=O)[n-]c1[O-] (3D coordinates assigned)
C=c1oc(C(=O)[N-]Cc2ccc(S(=O)(=O)N3CCCC3)cc2)c/c1=C\c1[n-]c(=O)[n-]c1[O-] (nonaromatic ring conformer: 114.17800292144526 kcal/mol)

>  <smiles>  (8) 
C=c1oc(C(=O)NCc2ccc(S(=O)(=O)N3CCCC3)cc2)cc1=Cc1[nH]c(=O)[nH]c1O

>  <score_type>  (8) 
oracle

>  <origin>  (8) 
adg

>  <m_score__min__energy>  (8) 
-20.170000000000002

>  <m_primary>  (8) 
energy

$$$$
8:0
     RDKit          3D

 52 54  0  0  0  0  0  0  0  0999 V2000
   59.5840   25.0430   45.9860 C   0  0  0  0  0  0  0  0  0  0  0  0
   60.4600   25.9890   46.8050 C   0  0  0  0  0  0  0  0  0  0  0  0
   59.6740   26.6900   47.9250 C   0  0  0  0  0  0  0  0  0  0  0  0
   59.3710   28.1370   47.5940 C   0  0  0  0  0  0  0  0  0  0  0  0
   60.2240   29.1220   48.1230 C   0  0  0  0  0  0  0  0  0  0  0  0
   60.0180   30.4650   47.8200 C   0  0  0  0  0  0  0  0  0  0  0  0
   59.0090   30.8280   46.9920 N   0  0  0  0  0  0  0  0  0  0  0  0
   58.1700   29.9150   46.4390 C   0  0  0  0  0  0  0  0  0  0  0  0
   58.3070   28.5440   46.7390 C   0  0  0  0  0  0  0  0  0  0  0  0
   57.2780   27.6390   46.1610 C   0  0  0  0  0  0  0  0  0  0  0  0
   57.1740   26.4350   46.5090 O   0  0  0  0  0  0  0  0  0  0  0  0
   56.3390   28.1670   45.2240 N   0  0  0  0  0  0  0  0  0  0  0  0
   56.5200   29.4900   44.6330 C   0  0  2  0  0  0  0  0  0  0  0  0
   55.1480   30.0690   44.2820 C   0  0  0  0  0  0  0  0  0  0  0  0
   57.3940   29.3630   43.3740 C   0  0  0  0  0  0  0  0  0  0  0  0
   57.2010   30.4900   42.5230 O   0  0  0  0  0  0  0  0  0  0  0  0
   57.6500   31.7700   42.8540 C   0  0  0  0  0  0  0  0  0  0  0  0
   58.2940   32.4580   42.0120 O   0  0  0  0  0  0  0  0  0  0  0  0
   57.3690   32.2950   44.1560 N   0  0  0  0  0  0  0  0  0  0  0  0
   57.7120   33.6660   44.5510 C   0  0  0  0  0  0  0  0  0  0  0  0
   59.2520   33.8350   44.5750 C   0  0  0  0  0  0  0  0  0  0  0  0
   59.6760   34.9530   45.5330 C   0  0  0  0  0  0  0  0  0  0  0  0
   59.2580   34.6460   46.9850 C   0  0  0  0  0  0  0  0  0  0  0  0
   57.9920   33.7700   47.0870 C   0  0  0  0  0  0  0  0  0  0  0  0
   57.0450   34.0070   45.9070 C   0  0  0  0  0  0  0  0  0  0  0  0
   57.1640   30.3570   45.5710 O   0  0  0  0  0  0  0  0  0  0  0  0
   58.9959   24.4079   46.6648 H   0  0  0  0  0  0  0  0  0  0  0  0
   58.9036   25.6301   45.3517 H   0  0  0  0  0  0  0  0  0  0  0  0
   60.2216   24.4097   45.3517 H   0  0  0  0  0  0  0  0  0  0  0  0
   61.2793   25.4104   47.2567 H   0  0  0  0  0  0  0  0  0  0  0  0
   60.8428   26.7653   46.1261 H   0  0  0  0  0  0  0  0  0  0  0  0
   58.7248   26.1559   48.0791 H   0  0  0  0  0  0  0  0  0  0  0  0
   60.2948   26.6747   48.8330 H   0  0  0  0  0  0  0  0  0  0  0  0
   61.0574   28.8300   48.7789 H   0  0  0  0  0  0  0  0  0  0  0  0
   60.6756   31.2328   48.2536 H   0  0  0  0  0  0  0  0  0  0  0  0
   54.6000   30.3003   45.2073 H   0  0  0  0  0  0  0  0  0  0  0  0
   55.2780   30.9890   43.6932 H   0  0  0  0  0  0  0  0  0  0  0  0
   54.5796   29.3340   43.6932 H   0  0  0  0  0  0  0  0  0  0  0  0
   58.4519   29.3089   43.6704 H   0  0  0  0  0  0  0  0  0  0  0  0
   57.1083   28.4505   42.8302 H   0  0  0  0  0  0  0  0  0  0  0  0
   56.7500   31.7300   44.7800 H   0  0  0  0  0  0  0  0  0  0  0  0
   57.3213   34.3832   43.8142 H   0  0  0  0  0  0  0  0  0  0  0  0
   59.7108   32.8902   44.9019 H   0  0  0  0  0  0  0  0  0  0  0  0
   59.5872   34.1012   43.5617 H   0  0  0  0  0  0  0  0  0  0  0  0
   60.7698   35.0623   45.4921 H   0  0  0  0  0  0  0  0  0  0  0  0
   59.1761   35.8816   45.2204 H   0  0  0  0  0  0  0  0  0  0  0  0
   60.0865   34.1204   47.4824 H   0  0  0  0  0  0  0  0  0  0  0  0
   59.0265   35.6078   47.4661 H   0  0  0  0  0  0  0  0  0  0  0  0
   58.2905   32.7113   47.0979 H   0  0  0  0  0  0  0  0  0  0  0  0
   57.4618   34.0386   48.0126 H   0  0  0  0  0  0  0  0  0  0  0  0
   56.1541   33.3743   46.0338 H   0  0  0  0  0  0  0  0  0  0  0  0
   56.7766   35.0737   45.8953 H   0  0  0  0  0  0  0  0  0  0  0  0
  1  2  1  0
  2  3  1  0
  3  4  1  0
  4  5  2  0
  5  6  1  0
  6  7  2  0
  7  8  1  0
  8  9  2  0
  9 10  1  0
 10 11  2  0
 10 12  1  0
 12 13  1  0
 13 14  1  6
 13 15  1  0
 15 16  1  0
 16 17  1  0
 17 18  2  0
 17 19  1  0
 19 20  1  0
 20 21  1  0
 21 22  1  0
 22 23  1  0
 23 24  1  0
 24 25  1  0
 13 26  1  0
  9  4  1  0
 25 20  1  0
 26  8  1  0
  1 27  1  0
  1 28  1  0
  1 29  1  0
  2 30  1  0
  2 31  1  0
  3 32  1  0
  3 33  1  0
  5 34  1  0
  6 35  1  0
 14 36  1  0
 14 37  1  0
 14 38  1  0
 15 39  1  0
 15 40  1  0
 19 41  1  0
 20 42  1  0
 21 43  1  0
 21 44  1  0
 22 45  1  0
 22 46  1  0
 23 47  1  0
 23 48  1  0
 24 49  1  0
 24 50  1  0
 25 51  1  0
 25 52  1  0
M  CHG  1  12  -1
M  END
>  <UniqueID>  (9) 
9

>  <SMILES>  (9) 
CCCc1ccnc2c1C(=O)[N-][C@](C)(COC(=O)NC1CCCCC1)O2

>  <Energy>  (9) 
49.82446587822346

>  <Genealogy>  (9) 
CCCc1ccnc2c1C(=O)[N-]C(C)(COC(=O)NC1CCCCC1)O2 (protonated)
CCCc1ccnc2c1C(=O)[N-][C@](C)(COC(=O)NC1CCCCC1)O2 (chirality)
CCCc1ccnc2c1C(=O)[N-][C@](C)(COC(=O)NC1CCCCC1)O2 (3D coordinates assigned)
CCCc1ccnc2c1C(=O)[N-][C@](C)(COC(=O)NC1CCCCC1)O2 (nonaromatic ring conformer: 49.82446587822346 kcal/mol)

>  <smiles>  (9) 
CCCc1ccnc2c1C(=O)NC(C)(COC(=O)NC1CCCCC1)O2

>  <score_type>  (9) 
oracle

>  <origin>  (9) 
adg

>  <m_score__min__energy>  (9) 
-10.029999999999999

>  <m_primary>  (9) 
energy

$$$$
9:0
     RDKit          3D

 53 56  0  0  0  0  0  0  0  0999 V2000
   56.2800   26.0080   44.8680 H   0  0  0  0  0  0  0  0  0  0  0  0
   56.4750   26.6600   45.6170 O   0  0  0  0  0  0  0  0  0  0  0  0
   56.5540   28.0320   45.3910 C   0  0  0  0  0  0  0  0  0  0  0  0
   55.5420   28.7530   44.8810 N   0  0  0  0  0  0  0  0  0  0  0  0
   56.0750   29.9890   44.7810 C   0  0  0  0  0  0  0  0  0  0  0  0
   55.4310   30.9710   44.3280 O   0  0  0  0  0  0  0  0  0  0  0  0
   57.3570   30.0880   45.1940 N   0  0  0  0  0  0  0  0  0  0  0  0
   57.6490   28.8440   45.6120 C   0  0  0  0  0  0  0  0  0  0  0  0
   58.9890   28.4360   46.0580 C   0  0  0  0  0  0  0  0  0  0  0  0
   59.3423   27.4450   45.7370 H   0  0  0  0  0  0  0  0  0  0  0  0
   59.8240   29.1650   46.8240 C   0  0  0  0  0  0  0  0  0  0  0  0
   60.5440   30.2340   46.3250 C   0  0  0  0  0  0  0  0  0  0  0  0
   60.4747   30.6522   45.3100 H   0  0  0  0  0  0  0  0  0  0  0  0
   61.3650   30.6770   47.3390 C   0  0  0  0  0  0  0  0  0  0  0  0
   62.3360   31.8180   47.1970 C   0  0  0  0  0  0  0  0  0  0  0  0
   63.0348   31.7962   48.0463 H   0  0  0  0  0  0  0  0  0  0  0  0
   62.8645   31.6944   46.2402 H   0  0  0  0  0  0  0  0  0  0  0  0
   61.6430   33.1560   47.1730 C   0  0  0  0  0  0  0  0  0  0  0  0
   62.3190   34.2120   47.3140 O   0  0  0  0  0  0  0  0  0  0  0  0
   60.2100   33.2450   47.0560 N   0  0  0  0  0  0  0  0  0  0  0  0
   59.3210   33.1480   48.2030 C   0  0  0  0  0  0  0  0  0  0  0  0
   59.5717   32.2643   48.8081 H   0  0  0  0  0  0  0  0  0  0  0  0
   59.4100   34.0263   48.8593 H   0  0  0  0  0  0  0  0  0  0  0  0
   57.9160   33.0170   47.6300 C   0  0  0  0  0  0  0  0  0  0  0  0
   57.5793   31.9708   47.6754 H   0  0  0  0  0  0  0  0  0  0  0  0
   57.1884   33.6151   48.1982 H   0  0  0  0  0  0  0  0  0  0  0  0
   58.0170   33.4830   46.1740 C   0  0  2  0  0  0  0  0  0  0  0  0
   57.6761   34.5221   46.0556 H   0  0  0  0  0  0  0  0  0  0  0  0
   57.1420   32.7010   45.2970 N   0  0  0  0  0  0  0  0  0  0  0  0
   56.5920   32.0180   45.8670 H   0  0  0  0  0  0  0  0  0  0  0  0
   57.7440   32.1450   44.6450 H   0  0  0  0  0  0  0  0  0  0  0  0
   59.4960   33.3550   45.7960 C   0  0  0  0  0  0  0  0  0  0  0  0
   59.6596   32.4573   45.1817 H   0  0  0  0  0  0  0  0  0  0  0  0
   59.8421   34.2153   45.2044 H   0  0  0  0  0  0  0  0  0  0  0  0
   61.1520   29.9600   48.4700 N   0  0  0  0  0  0  0  0  0  0  0  0
   61.8680   30.1570   49.7440 C   0  0  0  0  0  0  0  0  0  0  0  0
   61.7837   29.2434   50.3508 H   0  0  0  0  0  0  0  0  0  0  0  0
   62.9242   30.3741   49.5266 H   0  0  0  0  0  0  0  0  0  0  0  0
   61.2820   31.3160   50.5100 C   0  0  0  0  0  0  0  0  0  0  0  0
   62.0570   32.4580   50.7750 C   0  0  0  0  0  0  0  0  0  0  0  0
   63.1003   32.5040   50.4293 H   0  0  0  0  0  0  0  0  0  0  0  0
   61.5080   33.5360   51.4760 C   0  0  0  0  0  0  0  0  0  0  0  0
   62.1179   34.4296   51.6748 H   0  0  0  0  0  0  0  0  0  0  0  0
   60.1870   33.4800   51.9240 C   0  0  0  0  0  0  0  0  0  0  0  0
   59.7557   34.3309   52.4716 H   0  0  0  0  0  0  0  0  0  0  0  0
   59.4120   32.3430   51.6770 C   0  0  0  0  0  0  0  0  0  0  0  0
   58.3728   32.2982   52.0348 H   0  0  0  0  0  0  0  0  0  0  0  0
   59.9560   31.2630   50.9760 C   0  0  0  0  0  0  0  0  0  0  0  0
   59.3446   30.3681   50.7880 H   0  0  0  0  0  0  0  0  0  0  0  0
   60.1930   29.0380   48.1750 C   0  0  0  0  0  0  0  0  0  0  0  0
   59.6320   28.2230   49.0830 C   0  0  0  0  0  0  0  0  0  0  0  0
   60.0076   28.2099   50.1168 H   0  0  0  0  0  0  0  0  0  0  0  0
   58.7968   27.5685   48.7930 H   0  0  0  0  0  0  0  0  0  0  0  0
  1  2  1  0
  2  3  1  0
  3  4  1  0
  4  5  1  0
  5  6  2  0
  5  7  1  0
  7  8  1  0
  8  9  1  0
  9 10  1  0
  9 11  2  0
 11 12  1  0
 12 13  1  0
 12 14  2  0
 14 15  1  0
 15 16  1  0
 15 17  1  0
 15 18  1  0
 18 19  2  0
 18 20  1  0
 20 21  1  0
 21 22  1  0
 21 23  1  0
 21 24  1  0
 24 25  1  0
 24 26  1  0
 24 27  1  0
 27 28  1  1
 27 29  1  0
 29 30  1  0
 29 31  1  0
 27 32  1  0
 32 33  1  0
 32 34  1  0
 14 35  1  0
 35 36  1  0
 36 37  1  0
 36 38  1  0
 36 39  1  0
 39 40  2  0
 40 41  1  0
 40 42  1  0
 42 43  1  0
 42 44  2  0
 44 45  1  0
 44 46  1  0
 46 47  1  0
 46 48  2  0
 48 49  1  0
 35 50  1  0
 50 51  2  0
 51 52  1  0
 51 53  1  0
  8  3  2  0
 50 11  1  0
 32 20  1  0
 48 39  1  0
M  CHG  2   4  -1   7  -1
M  END
>  <UniqueID>  (10) 
10

>  <SMILES>  (10) 
C=c1/c(=C\c2[n-]c(=O)[n-]c2O)cc(CC(=O)N2CC[C@H](N)C2)n1Cc1ccccc1

>  <Energy>  (10) 
123.70245294955586

>  <Genealogy>  (10) 
C=c1c(=Cc2[n-]c(=O)[n-]c2O)cc(CC(=O)N2CCC(N)C2)n1Cc1ccccc1 (protonated)
C=c1c(=Cc2[n-]c(=O)[n-]c2O)cc(CC(=O)N2CC[C@H](N)C2)n1Cc1ccccc1 (chirality)
C=c1/c(=C\c2[n-]c(=O)[n-]c2O)cc(CC(=O)N2CC[C@H](N)C2)n1Cc1ccccc1 (cis-trans isomerization)
C=c1/c(=C\c2[n-]c(=O)[n-]c2O)cc(CC(=O)N2CC[C@H](N)C2)n1Cc1ccccc1 (3D coordinates assigned)
C=c1/c(=C\c2[n-]c(=O)[n-]c2O)cc(CC(=O)N2CC[C@H](N)C2)n1Cc1ccccc1 (nonaromatic ring conformer: 123.70245294955586 kcal/mol)

>  <smiles>  (10) 
C=c1c(=Cc2[nH]c(=O)[nH]c2O)cc(CC(=O)N2CCC(N)C2)n1Cc1ccccc1

>  <score_type>  (10) 
oracle

>  <origin>  (10) 
adg

>  <m_score__min__energy>  (10) 
-13.130000000000001

>  <m_primary>  (10) 
energy

$$$$
10:0
     RDKit          3D

 46 48  0  0  0  0  0  0  0  0999 V2000
   54.7870   27.0930   46.6350 H   0  0  0  0  0  0  0  0  0  0  0  0
   54.7740   26.3380   45.9130 N   0  0  0  0  0  0  0  0  0  0  0  0
   56.2970   25.5260   46.0080 S   0  0  0  0  0  0  0  0  0  0  0  0
   56.4400   24.5960   44.8350 O   0  0  0  0  0  0  0  0  0  0  0  0
   56.3580   24.7180   47.2740 O   0  0  0  0  0  0  0  0  0  0  0  0
   57.5980   26.7120   45.9930 C   0  0  0  0  0  0  0  0  0  0  0  0
   57.8750   27.4710   47.1370 C   0  0  0  0  0  0  0  0  0  0  0  0
   57.2712   27.3330   48.0461 H   0  0  0  0  0  0  0  0  0  0  0  0
   58.9160   28.4030   47.1270 C   0  0  0  0  0  0  0  0  0  0  0  0
   59.1128   29.0109   48.0224 H   0  0  0  0  0  0  0  0  0  0  0  0
   59.7100   28.5690   45.9870 C   0  0  0  0  0  0  0  0  0  0  0  0
   60.7600   29.5530   46.0170 N   0  0  0  0  0  0  0  0  0  0  0  0
   60.9400   30.4810   46.9100 C   0  0  0  0  0  0  0  0  0  0  0  0
   60.6660   31.7710   46.5850 N   0  0  0  0  0  0  0  0  0  0  0  0
   60.7960   32.7770   47.4930 C   0  0  0  0  0  0  0  0  0  0  0  0
   60.4860   34.0980   47.1460 O   0  0  0  0  0  0  0  0  0  0  0  0
   59.1610   34.6260   47.1760 C   0  0  0  0  0  0  0  0  0  0  0  0
   58.6906   34.3724   48.1375 H   0  0  0  0  0  0  0  0  0  0  0  0
   59.2075   35.7185   47.0568 H   0  0  0  0  0  0  0  0  0  0  0  0
   58.3470   34.0470   46.0590 C   0  0  0  0  0  0  0  0  0  0  0  0
   57.1000   34.2260   46.0360 O   0  0  0  0  0  0  0  0  0  0  0  0
   58.9910   33.3110   45.0110 N   0  0  0  0  0  0  0  0  0  0  0  0
   59.9870   33.0180   45.1360 H   0  0  0  0  0  0  0  0  0  0  0  0
   58.3650   33.1060   43.7090 C   0  0  0  0  0  0  0  0  0  0  0  0
   57.6544   33.9227   43.5140 H   0  0  0  0  0  0  0  0  0  0  0  0
   59.1436   33.0949   42.9321 H   0  0  0  0  0  0  0  0  0  0  0  0
   57.6310   31.7920   43.6910 C   0  0  0  0  0  0  0  0  0  0  0  0
   57.1090   31.2950   42.4850 C   0  0  0  0  0  0  0  0  0  0  0  0
   57.2568   31.8572   41.5512 H   0  0  0  0  0  0  0  0  0  0  0  0
   56.4020   30.0880   42.4670 C   0  0  0  0  0  0  0  0  0  0  0  0
   55.9976   29.7023   41.5196 H   0  0  0  0  0  0  0  0  0  0  0  0
   56.2090   29.3720   43.6510 C   0  0  0  0  0  0  0  0  0  0  0  0
   55.6548   28.4219   43.6353 H   0  0  0  0  0  0  0  0  0  0  0  0
   56.7200   29.8630   44.8550 C   0  0  0  0  0  0  0  0  0  0  0  0
   56.5682   29.2979   45.7865 H   0  0  0  0  0  0  0  0  0  0  0  0
   57.4240   31.0710   44.8790 C   0  0  0  0  0  0  0  0  0  0  0  0
   57.8169   31.4579   45.8308 H   0  0  0  0  0  0  0  0  0  0  0  0
   61.2230   32.4800   48.7900 C   0  0  0  0  0  0  0  0  0  0  0  0
   61.4060   33.8480   50.1140 Br  0  0  0  0  0  0  0  0  0  0  0  0
   61.4920   31.1500   49.1150 C   0  0  0  0  0  0  0  0  0  0  0  0
   61.8267   30.8877   50.1295 H   0  0  0  0  0  0  0  0  0  0  0  0
   61.3400   30.1800   48.1770 N   0  0  0  0  0  0  0  0  0  0  0  0
   59.4130   27.8260   44.8290 C   0  0  0  0  0  0  0  0  0  0  0  0
   60.0024   27.9796   43.9130 H   0  0  0  0  0  0  0  0  0  0  0  0
   58.3710   26.8930   44.8390 C   0  0  0  0  0  0  0  0  0  0  0  0
   58.1579   26.2995   43.9377 H   0  0  0  0  0  0  0  0  0  0  0  0
  1  2  1  0
  2  3  1  0
  3  4  2  0
  3  5  2  0
  3  6  1  0
  6  7  2  0
  7  8  1  0
  7  9  1  0
  9 10  1  0
  9 11  2  0
 11 12  1  0
 12 13  2  0
 13 14  1  0
 14 15  2  0
 15 16  1  0
 16 17  1  0
 17 18  1  0
 17 19  1  0
 17 20  1  0
 20 21  2  0
 20 22  1  0
 22 23  1  0
 22 24  1  0
 24 25  1  0
 24 26  1  0
 24 27  1  0
 27 28  2  0
 28 29  1  0
 28 30  1  0
 30 31  1  0
 30 32  2  0
 32 33  1  0
 32 34  1  0
 34 35  1  0
 34 36  2  0
 36 37  1  0
 15 38  1  0
 38 39  1  0
 38 40  2  0
 40 41  1  0
 40 42  1  0
 11 43  1  0
 43 44  1  0
 43 45  2  0
 45 46  1  0
 45  6  1  0
 42 13  1  0
 36 27  1  0
M  CHG  2   2  -1  42  -1
M  END
>  <UniqueID>  (11) 
11

>  <SMILES>  (11) 
[NH-]S(=O)(=O)c1ccc(/N=c2/nc(OCC(=O)NCc3ccccc3)c(Br)c[n-]2)cc1

>  <Energy>  (11) 
45.13597112124909

>  <Genealogy>  (11) 
[NH-]S(=O)(=O)c1ccc(N=c2nc(OCC(=O)NCc3ccccc3)c(Br)c[n-]2)cc1 (protonated)
[NH-]S(=O)(=O)c1ccc(/N=c2/nc(OCC(=O)NCc3ccccc3)c(Br)c[n-]2)cc1 (cis-trans isomerization)
[NH-]S(=O)(=O)c1ccc(/N=c2/nc(OCC(=O)NCc3ccccc3)c(Br)c[n-]2)cc1 (3D coordinates assigned)
[NH-]S(=O)(=O)c1ccc(/N=c2/nc(OCC(=O)NCc3ccccc3)c(Br)c[n-]2)cc1 (optimized conformer: 45.13597112124909 kcal/mol)

>  <smiles>  (11) 
NS(=O)(=O)c1ccc(N=c2nc(OCC(=O)NCc3ccccc3)c(Br)c[nH]2)cc1

>  <score_type>  (11) 
oracle

>  <origin>  (11) 
adg

>  <m_score__min__energy>  (11) 
-12.24

>  <m_primary>  (11) 
energy

$$$$
11:0
     RDKit          3D

 48 50  0  0  0  0  0  0  0  0999 V2000
   55.7370   21.3620   45.7010 C   0  0  0  0  0  0  0  0  0  0  0  0
   56.6940   22.5250   45.6790 C   0  0  0  0  0  0  0  0  0  0  0  0
   58.0710   22.2670   45.5960 C   0  0  0  0  0  0  0  0  0  0  0  0
   58.9930   23.3130   45.5720 C   0  0  0  0  0  0  0  0  0  0  0  0
   58.5580   24.6440   45.6210 C   0  0  0  0  0  0  0  0  0  0  0  0
   59.5430   25.7530   45.6250 C   0  0  0  0  0  0  0  0  0  0  0  0
   60.6510   25.6000   46.2080 O   0  0  0  0  0  0  0  0  0  0  0  0
   59.2470   27.0110   45.0000 N   0  0  0  0  0  0  0  0  0  0  0  0
   59.3830   28.2480   45.7730 C   0  0  0  0  0  0  0  0  0  0  0  0
   59.4140   29.4800   44.8540 C   0  0  0  0  0  0  0  0  0  0  0  0
   58.3290   29.5010   43.8440 N   0  0  0  0  0  0  0  0  0  0  0  0
   56.9850   30.5000   44.3500 S   0  0  0  0  0  0  0  0  0  0  0  0
   56.1650   30.8790   43.1490 O   0  0  0  0  0  0  0  0  0  0  0  0
   56.1050   29.7170   45.2850 O   0  0  0  0  0  0  0  0  0  0  0  0
   57.5390   31.9660   45.1630 C   0  0  0  0  0  0  0  0  0  0  0  0
   57.4120   33.2130   44.5350 C   0  0  0  0  0  0  0  0  0  0  0  0
   57.8160   34.3780   45.1950 C   0  0  0  0  0  0  0  0  0  0  0  0
   58.3580   34.3020   46.4810 C   0  0  0  0  0  0  0  0  0  0  0  0
   58.5030   33.0590   47.1070 C   0  0  0  0  0  0  0  0  0  0  0  0
   59.1810   32.9640   48.7210 Cl  0  0  0  0  0  0  0  0  0  0  0  0
   58.0980   31.8920   46.4480 C   0  0  0  0  0  0  0  0  0  0  0  0
   57.8590   28.1780   43.3740 C   0  0  0  0  0  0  0  0  0  0  0  0
   58.9020   27.0780   43.5790 C   0  0  0  0  0  0  0  0  0  0  0  0
   57.1820   24.9100   45.7010 C   0  0  0  0  0  0  0  0  0  0  0  0
   56.2420   23.8670   45.7080 C   0  0  0  0  0  0  0  0  0  0  0  0
   54.5190   24.2750   45.7850 S   0  0  0  0  0  0  0  0  0  0  0  0
   54.3140   25.9800   45.9840 N   0  0  0  0  0  0  0  0  0  0  0  0
   53.8900   23.5650   46.9510 O   0  0  0  0  0  0  0  0  0  0  0  0
   53.8350   23.8640   44.5130 O   0  0  0  0  0  0  0  0  0  0  0  0
   55.5137   21.0906   46.7433 H   0  0  0  0  0  0  0  0  0  0  0  0
   54.8057   21.6437   45.1879 H   0  0  0  0  0  0  0  0  0  0  0  0
   56.1928   20.5024   45.1879 H   0  0  0  0  0  0  0  0  0  0  0  0
   58.4273   21.2273   45.5493 H   0  0  0  0  0  0  0  0  0  0  0  0
   60.0689   23.0917   45.5142 H   0  0  0  0  0  0  0  0  0  0  0  0
   58.5297   28.3359   46.4616 H   0  0  0  0  0  0  0  0  0  0  0  0
   60.3303   28.2067   46.3307 H   0  0  0  0  0  0  0  0  0  0  0  0
   59.3237   30.3809   45.4787 H   0  0  0  0  0  0  0  0  0  0  0  0
   60.3647   29.4438   44.3019 H   0  0  0  0  0  0  0  0  0  0  0  0
   56.9932   33.2753   43.5198 H   0  0  0  0  0  0  0  0  0  0  0  0
   57.7071   35.3550   44.7015 H   0  0  0  0  0  0  0  0  0  0  0  0
   58.6706   35.2195   47.0011 H   0  0  0  0  0  0  0  0  0  0  0  0
   58.2183   30.9149   46.9387 H   0  0  0  0  0  0  0  0  0  0  0  0
   56.9490   27.9091   43.9303 H   0  0  0  0  0  0  0  0  0  0  0  0
   57.6650   28.2570   42.2941 H   0  0  0  0  0  0  0  0  0  0  0  0
   58.4888   26.1120   43.2533 H   0  0  0  0  0  0  0  0  0  0  0  0
   59.8016   27.3023   42.9871 H   0  0  0  0  0  0  0  0  0  0  0  0
   56.8346   25.9521   45.7591 H   0  0  0  0  0  0  0  0  0  0  0  0
   53.4590   26.2510   45.4470 H   0  0  0  0  0  0  0  0  0  0  0  0
  1  2  1  0
  2  3  2  0
  3  4  1  0
  4  5  2  0
  5  6  1  0
  6  7  2  0
  6  8  1  0
  8  9  1  0
  9 10  1  0
 10 11  1  0
 11 12  1  0
 12 13  2  0
 12 14  2  0
 12 15  1  0
 15 16  2  0
 16 17  1  0
 17 18  2  0
 18 19  1  0
 19 20  1  0
 19 21  2  0
 11 22  1  0
 22 23  1  0
  5 24  1  0
 24 25  2  0
 25 26  1  0
 26 27  1  0
 26 28  2  0
 26 29  2  0
 25  2  1  0
 23  8  1  0
 21 15  1  0
  1 30  1  0
  1 31  1  0
  1 32  1  0
  3 33  1  0
  4 34  1  0
  9 35  1  0
  9 36  1  0
 10 37  1  0
 10 38  1  0
 16 39  1  0
 17 40  1  0
 18 41  1  0
 21 42  1  0
 22 43  1  0
 22 44  1  0
 23 45  1  0
 23 46  1  0
 24 47  1  0
 27 48  1  0
M  CHG  1  27  -1
M  END
>  <UniqueID>  (12) 
12

>  <SMILES>  (12) 
Cc1ccc(C(=O)N2CCN(S(=O)(=O)c3cccc(Cl)c3)CC2)cc1S([NH-])(=O)=O

>  <Energy>  (12) 
59.122718412304955

>  <Genealogy>  (12) 
Cc1ccc(C(=O)N2CCN(S(=O)(=O)c3cccc(Cl)c3)CC2)cc1S([NH-])(=O)=O (protonated)
Cc1ccc(C(=O)N2CCN(S(=O)(=O)c3cccc(Cl)c3)CC2)cc1S([NH-])(=O)=O (3D coordinates assigned)
Cc1ccc(C(=O)N2CCN(S(=O)(=O)c3cccc(Cl)c3)CC2)cc1S([NH-])(=O)=O (nonaromatic ring conformer: 59.122718412304955 kcal/mol)

>  <smiles>  (12) 
Cc1ccc(C(=O)N2CCN(S(=O)(=O)c3cccc(Cl)c3)CC2)cc1S(N)(=O)=O

>  <score_type>  (12) 
oracle

>  <origin>  (12) 
adg

>  <m_score__min__energy>  (12) 
-12.949999999999999

>  <m_primary>  (12) 
energy

$$$$
12:0
     RDKit          3D

 53 56  0  0  1  0  0  0  0  0999 V2000
   51.8410   24.0060   44.8640 C   0  0  0  0  0  0  0  0  0  0  0  0
   52.7940   23.3450   45.5320 C   0  0  0  0  0  0  0  0  0  0  0  0
   54.1700   23.8160   45.2620 C   0  0  0  0  0  0  0  0  0  0  0  0
   54.5800   23.6700   44.0950 O   0  0  0  0  0  0  0  0  0  0  0  0
   54.9660   24.3940   46.2630 N   0  0  0  0  0  0  0  0  0  0  0  0
   56.2780   24.8740   46.1210 C   0  0  0  0  0  0  0  0  0  0  0  0
   57.4080   24.2560   46.6050 C   0  0  0  0  0  0  0  0  0  0  0  0
   58.6880   24.7920   46.4270 C   0  0  0  0  0  0  0  0  0  0  0  0
   58.8100   25.9820   45.7400 C   0  0  0  0  0  0  0  0  0  0  0  0
   57.7040   26.6350   45.2390 C   0  0  0  0  0  0  0  0  0  0  0  0
   57.8130   27.9100   44.5010 C   0  0  0  0  0  0  0  0  0  0  0  0
   58.1180   27.8450   43.3030 O   0  0  0  0  0  0  0  0  0  0  0  0
   57.5880   29.1640   45.0910 N   0  0  0  0  0  0  0  0  0  0  0  0
   57.6640   30.4280   44.4850 C   0  0  0  0  0  0  0  0  0  0  0  0
   57.6500   31.5750   45.2990 C   0  0  0  0  0  0  0  0  0  0  0  0
   57.7210   32.8400   44.7650 C   0  0  0  0  0  0  0  0  0  0  0  0
   57.7040   33.8560   45.5500 N   0  0  0  0  0  0  0  0  0  0  0  0
   58.7850   34.8210   45.6220 C   0  0  0  0  0  0  0  0  0  0  0  0
   59.7290   34.5010   46.7260 C   0  0  0  0  0  0  0  0  0  0  0  0
   59.3520   34.5810   48.0510 C   0  0  0  0  0  0  0  0  0  0  0  0
   60.3010   34.2640   49.0060 C   0  0  0  0  0  0  0  0  0  0  0  0
   61.5760   33.8820   48.6530 C   0  0  0  0  0  0  0  0  0  0  0  0
   62.5410   33.5600   49.5980 C   0  0  0  0  0  0  0  0  0  0  0  0
   63.8220   33.1770   49.2220 C   0  0  0  0  0  0  0  0  0  0  0  0
   64.1610   33.1090   47.8700 C   0  0  0  0  0  0  0  0  0  0  0  0
   63.2100   33.4270   46.9260 C   0  0  0  0  0  0  0  0  0  0  0  0
   61.9540   33.8010   47.3320 C   0  0  0  0  0  0  0  0  0  0  0  0
   61.0240   34.1130   46.3780 C   0  0  0  0  0  0  0  0  0  0  0  0
   57.8080   33.0300   43.4400 N   0  0  0  0  0  0  0  0  0  0  0  0
   57.8220   31.9350   42.6620 C   0  0  0  0  0  0  0  0  0  0  0  0
   57.7520   30.6750   43.1730 N   0  0  0  0  0  0  0  0  0  0  0  0
   56.4820   26.0640   45.4440 C   0  0  0  0  0  0  0  0  0  0  0  0
   50.7844   23.7304   44.9967 H   0  0  0  0  0  0  0  0  0  0  0  0
   52.1144   24.8248   44.1822 H   0  0  0  0  0  0  0  0  0  0  0  0
   52.5723   22.5197   46.2246 H   0  0  0  0  0  0  0  0  0  0  0  0
   54.5130   24.4670   47.2180 H   0  0  0  0  0  0  0  0  0  0  0  0
   57.3013   23.3071   47.1511 H   0  0  0  0  0  0  0  0  0  0  0  0
   59.5750   24.2773   46.8249 H   0  0  0  0  0  0  0  0  0  0  0  0
   59.8085   26.4181   45.5891 H   0  0  0  0  0  0  0  0  0  0  0  0
   57.3290   29.1540   46.1210 H   0  0  0  0  0  0  0  0  0  0  0  0
   57.5805   31.4570   46.3904 H   0  0  0  0  0  0  0  0  0  0  0  0
   59.3342   34.8142   44.6689 H   0  0  0  0  0  0  0  0  0  0  0  0
   58.3501   35.8125   45.8164 H   0  0  0  0  0  0  0  0  0  0  0  0
   58.3345   34.8856   48.3371 H   0  0  0  0  0  0  0  0  0  0  0  0
   60.0312   34.3182   50.0710 H   0  0  0  0  0  0  0  0  0  0  0  0
   62.2856   33.6093   50.6668 H   0  0  0  0  0  0  0  0  0  0  0  0
   64.5692   32.9273   49.9897 H   0  0  0  0  0  0  0  0  0  0  0  0
   65.1728   32.8059   47.5628 H   0  0  0  0  0  0  0  0  0  0  0  0
   63.4556   33.3815   45.8547 H   0  0  0  0  0  0  0  0  0  0  0  0
   61.3025   34.0569   45.3153 H   0  0  0  0  0  0  0  0  0  0  0  0
   57.8926   32.0610   41.5715 H   0  0  0  0  0  0  0  0  0  0  0  0
   57.7710   29.9120   42.4770 H   0  0  0  0  0  0  0  0  0  0  0  0
   55.5992   26.5845   45.0443 H   0  0  0  0  0  0  0  0  0  0  0  0
  1  2  2  0
  2  3  1  0
  3  4  2  0
  3  5  1  0
  5  6  1  0
  6  7  2  0
  7  8  1  0
  8  9  2  0
  9 10  1  0
 10 11  1  0
 11 12  2  0
 11 13  1  0
 13 14  1  0
 14 15  2  0
 15 16  1  0
 16 17  2  0
 17 18  1  0
 18 19  1  0
 19 20  2  0
 20 21  1  0
 21 22  2  0
 22 23  1  0
 23 24  2  0
 24 25  1  0
 25 26  2  0
 26 27  1  0
 27 28  2  0
 16 29  1  0
 29 30  2  0
 30 31  1  0
 10 32  2  0
 32  6  1  0
 31 14  1  0
 28 19  1  0
 27 22  1  0
  1 33  1  0
  1 34  1  0
  2 35  1  0
  5 36  1  0
  7 37  1  0
  8 38  1  0
  9 39  1  0
 13 40  1  0
 15 41  1  0
 18 42  1  0
 18 43  1  0
 20 44  1  0
 21 45  1  0
 23 46  1  0
 24 47  1  0
 25 48  1  0
 26 49  1  0
 28 50  1  0
 30 51  1  0
 31 52  1  0
 32 53  1  0
M  END
>  <smiles>  (13) 
C=CC(=O)Nc1cccc(C(=O)Nc2cc(=NCc3ccc4ccccc4c3)nc[nH]2)c1

>  <score_type>  (13) 
oracle

>  <origin>  (13) 
adg

>  <m_score__min__energy>  (13) 
-9.6999999999999993

>  <m_primary>  (13) 
energy

$$$$
13:0
     RDKit          3D

 70 73  0  0  1  0  0  0  0  0999 V2000
   57.4720   31.0860   51.4790 C   0  0  0  0  0  0  0  0  0  0  0  0
   58.5680   31.8300   51.5370 C   0  0  0  0  0  0  0  0  0  0  0  0
   59.1260   32.4540   50.3340 C   0  0  0  0  0  0  0  0  0  0  0  0
   58.3120   32.6590   49.2980 N   0  0  0  0  0  0  0  0  0  0  0  0
   58.7640   33.2360   48.1440 C   0  0  0  0  0  0  0  0  0  0  0  0
   57.7650   33.4060   47.0750 C   0  0  0  0  0  0  0  0  0  0  0  0
   57.9930   32.4220   46.0060 C   0  0  0  0  0  0  0  0  0  0  0  0
   57.3750   32.6540   44.7860 C   0  0  0  0  0  0  0  0  0  0  0  0
   57.4960   31.7820   43.7180 C   0  0  0  0  0  0  0  0  0  0  0  0
   58.2590   30.6220   43.8390 C   0  0  0  0  0  0  0  0  0  0  0  0
   58.8770   30.3810   45.0450 C   0  0  0  0  0  0  0  0  0  0  0  0
   59.7010   29.1690   45.2410 C   0  0  0  0  0  0  0  0  0  0  0  0
   60.9410   29.1950   44.9990 O   0  0  0  0  0  0  0  0  0  0  0  0
   59.0510   27.9700   45.7100 N   0  0  0  0  0  0  0  0  0  0  0  0
   57.6170   27.9730   45.9790 C   0  0  0  0  0  0  0  0  0  0  0  0
   57.4230   26.8770   47.0260 C   0  0  0  0  0  0  0  0  0  0  0  0
   57.7340   25.6420   46.2680 N   0  0  0  0  0  0  0  0  0  0  0  0
   56.6590   24.7660   46.0620 C   0  0  0  0  0  0  0  0  0  0  0  0
   55.5320   25.1470   46.5560 O   0  0  0  0  0  0  0  0  0  0  0  0
   56.6400   23.5360   45.3920 N   0  0  0  0  0  0  0  0  0  0  0  0
   57.3080   22.4110   46.0620 C   0  0  0  0  0  0  0  0  0  0  0  0
   58.5080   22.0610   45.2090 C   0  0  0  0  0  0  0  0  0  0  0  0
   58.0880   21.9740   43.7700 C   0  0  0  0  0  0  0  0  0  0  0  0
   56.6000   21.9130   43.6370 C   0  0  2  0  0  0  0  0  0  0  0  0
   56.1980   21.8220   42.2900 O   0  0  0  0  0  0  0  0  0  0  0  0
   56.0370   23.2500   44.1170 C   0  0  0  0  0  0  0  0  0  0  0  0
   59.0850   25.4980   45.8400 C   0  0  0  0  0  0  0  0  0  0  0  0
   59.8590   26.8010   45.8990 C   0  0  0  0  0  0  0  0  0  0  0  0
   58.7400   31.2770   46.1100 C   0  0  0  0  0  0  0  0  0  0  0  0
   60.0700   33.5930   48.0930 C   0  0  0  0  0  0  0  0  0  0  0  0
   60.6840   34.1970   46.9780 N   0  0  0  0  0  0  0  0  0  0  0  0
   61.9300   33.7910   46.3820 C   0  0  0  0  0  0  0  0  0  0  0  0
   59.9960   35.3330   46.3740 C   0  0  0  0  0  0  0  0  0  0  0  0
   60.8930   33.3630   49.2010 C   0  0  0  0  0  0  0  0  0  0  0  0
   62.1000   33.6800   49.1840 O   0  0  0  0  0  0  0  0  0  0  0  0
   60.4210   32.7910   50.3270 N   0  0  0  0  0  0  0  0  0  0  0  0
   57.0699   30.6268   52.3941 H   0  0  0  0  0  0  0  0  0  0  0  0
   56.9648   30.9280   50.5158 H   0  0  0  0  0  0  0  0  0  0  0  0
   59.0674   31.9816   52.5053 H   0  0  0  0  0  0  0  0  0  0  0  0
   56.7577   33.2619   47.4927 H   0  0  0  0  0  0  0  0  0  0  0  0
   57.8563   34.4190   46.6560 H   0  0  0  0  0  0  0  0  0  0  0  0
   56.7675   33.5628   44.6630 H   0  0  0  0  0  0  0  0  0  0  0  0
   56.9873   32.0057   42.7687 H   0  0  0  0  0  0  0  0  0  0  0  0
   58.3640   29.9214   42.9975 H   0  0  0  0  0  0  0  0  0  0  0  0
   57.2972   28.9488   46.3735 H   0  0  0  0  0  0  0  0  0  0  0  0
   57.0204   27.7959   45.0719 H   0  0  0  0  0  0  0  0  0  0  0  0
   58.1152   27.0086   47.8707 H   0  0  0  0  0  0  0  0  0  0  0  0
   56.4176   26.8732   47.4722 H   0  0  0  0  0  0  0  0  0  0  0  0
   57.6311   22.7061   47.0712 H   0  0  0  0  0  0  0  0  0  0  0  0
   56.6306   21.5513   46.1713 H   0  0  0  0  0  0  0  0  0  0  0  0
   59.2772   22.8394   45.3205 H   0  0  0  0  0  0  0  0  0  0  0  0
   58.9184   21.0927   45.5314 H   0  0  0  0  0  0  0  0  0  0  0  0
   58.4588   22.8608   43.2350 H   0  0  0  0  0  0  0  0  0  0  0  0
   58.5112   21.0534   43.3417 H   0  0  0  0  0  0  0  0  0  0  0  0
   56.2494   21.0388   44.2051 H   0  0  0  0  0  0  0  0  0  0  0  0
   56.6060   22.6200   41.8420 H   0  0  0  0  0  0  0  0  0  0  0  0
   56.2856   24.0434   43.3967 H   0  0  0  0  0  0  0  0  0  0  0  0
   54.9417   23.2014   44.2067 H   0  0  0  0  0  0  0  0  0  0  0  0
   59.5834   24.7628   46.4889 H   0  0  0  0  0  0  0  0  0  0  0  0
   59.0681   25.1685   44.7907 H   0  0  0  0  0  0  0  0  0  0  0  0
   60.3431   26.8711   46.8843 H   0  0  0  0  0  0  0  0  0  0  0  0
   60.5829   26.7781   45.0711 H   0  0  0  0  0  0  0  0  0  0  0  0
   59.2474   31.0563   47.0607 H   0  0  0  0  0  0  0  0  0  0  0  0
   62.6556   33.5546   47.1742 H   0  0  0  0  0  0  0  0  0  0  0  0
   61.7650   32.9001   45.7582 H   0  0  0  0  0  0  0  0  0  0  0  0
   62.3215   34.6081   45.7582 H   0  0  0  0  0  0  0  0  0  0  0  0
   59.6007   35.9857   47.1663 H   0  0  0  0  0  0  0  0  0  0  0  0
   60.7025   35.9001   45.7502 H   0  0  0  0  0  0  0  0  0  0  0  0
   59.1661   34.9696   45.7502 H   0  0  0  0  0  0  0  0  0  0  0  0
   61.0380   32.6170   51.1620 H   0  0  0  0  0  0  0  0  0  0  0  0
  1  2  2  0
  2  3  1  0
  3  4  2  0
  4  5  1  0
  5  6  1  0
  6  7  1  0
  7  8  2  0
  8  9  1  0
  9 10  2  0
 10 11  1  0
 11 12  1  0
 12 13  2  0
 12 14  1  0
 14 15  1  0
 15 16  1  0
 16 17  1  0
 17 18  1  0
 18 19  2  0
 18 20  1  0
 20 21  1  0
 21 22  1  0
 22 23  1  0
 23 24  1  0
 24 25  1  0
 24 26  1  0
 17 27  1  0
 27 28  1  0
 11 29  2  0
  5 30  2  0
 30 31  1  0
 31 32  1  0
 31 33  1  0
 30 34  1  0
 34 35  2  0
 34 36  1  0
 36  3  1  0
 29  7  1  0
 28 14  1  0
 26 20  1  0
  1 37  1  0
  1 38  1  0
  2 39  1  0
  6 40  1  0
  6 41  1  0
  8 42  1  0
  9 43  1  0
 10 44  1  0
 15 45  1  0
 15 46  1  0
 16 47  1  0
 16 48  1  0
 21 49  1  0
 21 50  1  0
 22 51  1  0
 22 52  1  0
 23 53  1  0
 23 54  1  0
 24 55  1  1
 25 56  1  0
 26 57  1  0
 26 58  1  0
 27 59  1  0
 27 60  1  0
 28 61  1  0
 28 62  1  0
 29 63  1  0
 32 64  1  0
 32 65  1  0
 32 66  1  0
 33 67  1  0
 33 68  1  0
 33 69  1  0
 36 70  1  0
M  END
>  <smiles>  (14) 
C=Cc1nc(Cc2cccc(C(=O)N3CCN(C(=O)N4CCCC(O)C4)CC3)c2)c(N(C)C)c(=O)[nH]1

>  <score_type>  (14) 
oracle

>  <origin>  (14) 
adg

>  <m_score__min__energy>  (14) 
-9.9499999999999993

>  <m_primary>  (14) 
energy

$$$$
14:0
     RDKit          3D

 56 59  0  0  0  0  0  0  0  0999 V2000
   57.5470   27.6890   44.2300 C   0  0  0  0  0  0  0  0  0  0  0  0
   57.9970   28.0270   45.4480 C   0  0  0  0  0  0  0  0  0  0  0  0
   58.2730   27.1590   46.5180 C   0  0  0  0  0  0  0  0  0  0  0  0
   58.0240   25.8460   46.6830 C   0  0  0  0  0  0  0  0  0  0  0  0
   57.0140   25.0660   45.9580 C   0  0  0  0  0  0  0  0  0  0  0  0
   57.3010   23.6350   45.1100 S   0  0  0  0  0  0  0  0  0  0  0  0
   55.7460   23.6060   44.4730 C   0  0  0  0  0  0  0  0  0  0  0  0
   55.3080   22.7040   43.7140 O   0  0  0  0  0  0  0  0  0  0  0  0
   55.0080   24.6700   44.8530 N   0  0  0  0  0  0  0  0  0  0  0  0
   55.7220   25.4930   45.6670 C   0  0  0  0  0  0  0  0  0  0  0  0
   55.1880   26.6750   46.1700 O   0  0  0  0  0  0  0  0  0  0  0  0
   58.9140   27.9190   47.4790 C   0  0  0  0  0  0  0  0  0  0  0  0
   58.9660   29.2110   47.0010 C   0  0  0  0  0  0  0  0  0  0  0  0
   59.6030   30.3570   47.7280 C   0  0  0  0  0  0  0  0  0  0  0  0
   58.3980   29.2870   45.7740 N   0  0  0  0  0  0  0  0  0  0  0  0
   58.4160   30.4710   44.8990 C   0  0  0  0  0  0  0  0  0  0  0  0
   57.0790   31.1530   44.9070 C   0  0  0  0  0  0  0  0  0  0  0  0
   56.0610   30.5510   44.4780 O   0  0  0  0  0  0  0  0  0  0  0  0
   56.9490   32.4620   45.4650 N   0  0  0  0  0  0  0  0  0  0  0  0
   58.0250   33.1530   46.1120 C   0  0  0  0  0  0  0  0  0  0  0  0
   58.9320   33.9480   45.3900 C   0  0  0  0  0  0  0  0  0  0  0  0
   60.0100   34.5500   46.0410 C   0  0  0  0  0  0  0  0  0  0  0  0
   60.1930   34.3670   47.4130 C   0  0  0  0  0  0  0  0  0  0  0  0
   59.2870   33.5870   48.1450 C   0  0  0  0  0  0  0  0  0  0  0  0
   59.5500   33.2930   49.8610 S   0  0  0  0  0  0  0  0  0  0  0  0
   59.2690   34.5590   50.6220 O   0  0  0  0  0  0  0  0  0  0  0  0
   60.9840   32.9020   50.0940 O   0  0  0  0  0  0  0  0  0  0  0  0
   58.4780   32.0280   50.4080 N   0  0  0  0  0  0  0  0  0  0  0  0
   59.2570   30.8320   50.7810 C   0  0  0  0  0  0  0  0  0  0  0  0
   58.3960   29.8410   51.5910 C   0  0  0  0  0  0  0  0  0  0  0  0
   57.0220   30.1320   51.4380 O   0  0  0  0  0  0  0  0  0  0  0  0
   56.7290   31.3880   52.0270 C   0  0  0  0  0  0  0  0  0  0  0  0
   57.6870   32.5020   51.5510 C   0  0  0  0  0  0  0  0  0  0  0  0
   58.2010   32.9870   47.4910 C   0  0  0  0  0  0  0  0  0  0  0  0
   57.3689   28.4678   43.4738 H   0  0  0  0  0  0  0  0  0  0  0  0
   57.3562   26.6331   43.9876 H   0  0  0  0  0  0  0  0  0  0  0  0
   58.6316   25.3104   47.4273 H   0  0  0  0  0  0  0  0  0  0  0  0
   55.1490   27.5110   45.6000 H   0  0  0  0  0  0  0  0  0  0  0  0
   59.3076   27.5608   48.4417 H   0  0  0  0  0  0  0  0  0  0  0  0
   59.5145   30.1977   48.8128 H   0  0  0  0  0  0  0  0  0  0  0  0
   60.6660   30.4207   47.4523 H   0  0  0  0  0  0  0  0  0  0  0  0
   59.0959   31.2934   47.4523 H   0  0  0  0  0  0  0  0  0  0  0  0
   59.1827   31.1738   45.2572 H   0  0  0  0  0  0  0  0  0  0  0  0
   58.6447   30.1501   43.8720 H   0  0  0  0  0  0  0  0  0  0  0  0
   58.7918   34.0961   44.3091 H   0  0  0  0  0  0  0  0  0  0  0  0
   60.7175   35.1705   45.4714 H   0  0  0  0  0  0  0  0  0  0  0  0
   61.0493   34.8355   47.9202 H   0  0  0  0  0  0  0  0  0  0  0  0
   59.6129   30.3350   49.8665 H   0  0  0  0  0  0  0  0  0  0  0  0
   60.1068   31.1479   51.4040 H   0  0  0  0  0  0  0  0  0  0  0  0
   58.5904   28.8187   51.2345 H   0  0  0  0  0  0  0  0  0  0  0  0
   58.6601   29.9310   52.6550 H   0  0  0  0  0  0  0  0  0  0  0  0
   55.6996   31.6706   51.7615 H   0  0  0  0  0  0  0  0  0  0  0  0
   56.8518   31.2838   53.1152 H   0  0  0  0  0  0  0  0  0  0  0  0
   57.1008   33.3823   51.2486 H   0  0  0  0  0  0  0  0  0  0  0  0
   58.3657   32.7712   52.3737 H   0  0  0  0  0  0  0  0  0  0  0  0
   57.4833   32.3824   48.0649 H   0  0  0  0  0  0  0  0  0  0  0  0
  1  2  2  0
  2  3  1  0
  3  4  2  3
  4  5  1  0
  5  6  1  0
  6  7  1  0
  7  8  2  0
  7  9  1  0
  9 10  1  0
 10 11  1  0
  3 12  1  0
 12 13  2  0
 13 14  1  0
 13 15  1  0
 15 16  1  0
 16 17  1  0
 17 18  2  0
 17 19  1  0
 19 20  1  0
 20 21  2  0
 21 22  1  0
 22 23  2  0
 23 24  1  0
 24 25  1  0
 25 26  2  0
 25 27  2  0
 25 28  1  0
 28 29  1  0
 29 30  1  0
 30 31  1  0
 31 32  1  0
 32 33  1  0
 24 34  2  0
 15  2  1  0
 34 20  1  0
 10  5  2  0
 33 28  1  0
  1 35  1  0
  1 36  1  0
  4 37  1  0
 11 38  1  0
 12 39  1  0
 14 40  1  0
 14 41  1  0
 14 42  1  0
 16 43  1  0
 16 44  1  0
 21 45  1  0
 22 46  1  0
 23 47  1  0
 29 48  1  0
 29 49  1  0
 30 50  1  0
 30 51  1  0
 32 52  1  0
 32 53  1  0
 33 54  1  0
 33 55  1  0
 34 56  1  0
M  CHG  2   9  -1  19  -1
M  END
>  <UniqueID>  (15) 
13

>  <SMILES>  (15) 
C=c1c(=Cc2sc(=O)[n-]c2O)cc(C)n1CC(=O)[N-]c1cccc(S(=O)(=O)N2CCOCC2)c1

>  <Energy>  (15) 
138.42412925006766

>  <Genealogy>  (15) 
C=c1c(=Cc2sc(=O)[n-]c2O)cc(C)n1CC(=O)[N-]c1cccc(S(=O)(=O)N2CCOCC2)c1 (protonated)
C=c1c(=Cc2sc(=O)[n-]c2O)cc(C)n1CC(=O)[N-]c1cccc(S(=O)(=O)N2CCOCC2)c1 (3D coordinates assigned)
C=c1c(=Cc2sc(=O)[n-]c2O)cc(C)n1CC(=O)[N-]c1cccc(S(=O)(=O)N2CCOCC2)c1 (nonaromatic ring conformer: 138.42412925006766 kcal/mol)

>  <smiles>  (15) 
C=c1c(=Cc2sc(=O)[nH]c2O)cc(C)n1CC(=O)Nc1cccc(S(=O)(=O)N2CCOCC2)c1

>  <score_type>  (15) 
oracle

>  <origin>  (15) 
adg

>  <m_score__min__energy>  (15) 
-15.23

>  <m_primary>  (15) 
energy

$$$$
15:0
     RDKit          3D

 52 55  0  0  0  0  0  0  0  0999 V2000
   51.8980   28.5980   53.0900 C   0  0  0  0  0  0  0  0  0  0  0  0
   53.2070   28.8760   53.1560 C   0  0  0  0  0  0  0  0  0  0  0  0
   54.0070   27.9200   53.7030 N   0  0  0  0  0  0  0  0  0  0  0  0
   55.3590   27.9670   53.6440 C   0  0  0  0  0  0  0  0  0  0  0  0
   55.9970   28.9980   52.9500 C   0  0  0  0  0  0  0  0  0  0  0  0
   57.4740   29.0370   52.8370 C   0  0  0  0  0  0  0  0  0  0  0  0
   58.1710   28.2070   53.4840 O   0  0  0  0  0  0  0  0  0  0  0  0
   58.1300   29.9950   51.9880 N   0  0  0  0  0  0  0  0  0  0  0  0
   57.8810   31.4270   52.1840 C   0  0  0  0  0  0  0  0  0  0  0  0
   57.9580   32.1680   50.8470 C   0  0  0  0  0  0  0  0  0  0  0  0
   59.1680   31.7740   50.1110 N   0  0  0  0  0  0  0  0  0  0  0  0
   59.9060   32.7300   49.3210 C   0  0  0  0  0  0  0  0  0  0  0  0
   61.1260   32.5190   49.0760 O   0  0  0  0  0  0  0  0  0  0  0  0
   59.2670   34.0050   48.8310 C   0  0  0  0  0  0  0  0  0  0  0  0
   58.8860   33.9080   47.3770 C   0  0  0  0  0  0  0  0  0  0  0  0
   57.8030   33.1060   46.9770 C   0  0  0  0  0  0  0  0  0  0  0  0
   57.4370   33.0400   45.6280 C   0  0  0  0  0  0  0  0  0  0  0  0
   58.1420   33.7780   44.6740 C   0  0  0  0  0  0  0  0  0  0  0  0
   59.2120   34.5860   45.0660 C   0  0  0  0  0  0  0  0  0  0  0  0
   59.5820   34.6570   46.4130 C   0  0  0  0  0  0  0  0  0  0  0  0
   59.4280   30.3390   49.9350 C   0  0  0  0  0  0  0  0  0  0  0  0
   59.3550   29.6130   51.2790 C   0  0  0  0  0  0  0  0  0  0  0  0
   55.2110   30.0240   52.4110 C   0  0  0  0  0  0  0  0  0  0  0  0
   53.8090   30.0330   52.5690 C   0  0  0  0  0  0  0  0  0  0  0  0
   53.1490   31.1520   52.1720 C   0  0  0  0  0  0  0  0  0  0  0  0
   52.2860   31.2740   50.9800 C   0  0  0  0  0  0  0  0  0  0  0  0
   52.2180   30.3730   49.9820 N   0  0  0  0  0  0  0  0  0  0  0  0
   51.2270   30.8510   49.1980 C   0  0  0  0  0  0  0  0  0  0  0  0
   50.8700   30.2800   48.1350 O   0  0  0  0  0  0  0  0  0  0  0  0
   50.6440   31.9830   49.6480 N   0  0  0  0  0  0  0  0  0  0  0  0
   51.3190   32.2290   50.7820 C   0  0  0  0  0  0  0  0  0  0  0  0
   51.0510   33.3020   51.6230 O   0  0  0  0  0  0  0  0  0  0  0  0
   51.2011   29.3314   52.6582 H   0  0  0  0  0  0  0  0  0  0  0  0
   51.5202   27.6364   53.4676 H   0  0  0  0  0  0  0  0  0  0  0  0
   55.9569   27.1909   54.1441 H   0  0  0  0  0  0  0  0  0  0  0  0
   56.8798   31.5650   52.6181 H   0  0  0  0  0  0  0  0  0  0  0  0
   58.6455   31.8333   52.8625 H   0  0  0  0  0  0  0  0  0  0  0  0
   57.0712   31.9217   50.2446 H   0  0  0  0  0  0  0  0  0  0  0  0
   57.9950   33.2502   51.0407 H   0  0  0  0  0  0  0  0  0  0  0  0
   58.3626   34.2028   49.4251 H   0  0  0  0  0  0  0  0  0  0  0  0
   59.9955   34.8215   48.9432 H   0  0  0  0  0  0  0  0  0  0  0  0
   57.2417   32.5287   47.7265 H   0  0  0  0  0  0  0  0  0  0  0  0
   56.5930   32.4062   45.3183 H   0  0  0  0  0  0  0  0  0  0  0  0
   57.8544   33.7228   43.6137 H   0  0  0  0  0  0  0  0  0  0  0  0
   59.7648   35.1677   44.3137 H   0  0  0  0  0  0  0  0  0  0  0  0
   60.4200   35.3008   46.7185 H   0  0  0  0  0  0  0  0  0  0  0  0
   58.6755   29.9156   49.2535 H   0  0  0  0  0  0  0  0  0  0  0  0
   60.4361   30.2089   49.5145 H   0  0  0  0  0  0  0  0  0  0  0  0
   59.3527   28.5266   51.1068 H   0  0  0  0  0  0  0  0  0  0  0  0
   60.2273   29.8917   51.8884 H   0  0  0  0  0  0  0  0  0  0  0  0
   55.6961   30.8388   51.8535 H   0  0  0  0  0  0  0  0  0  0  0  0
   53.2684   32.0500   52.7960 H   0  0  0  0  0  0  0  0  0  0  0  0
  1  2  2  0
  2  3  1  0
  3  4  2  0
  4  5  1  0
  5  6  1  0
  6  7  2  0
  6  8  1  0
  8  9  1  0
  9 10  1  0
 10 11  1  0
 11 12  1  0
 12 13  2  0
 12 14  1  0
 14 15  1  0
 15 16  2  0
 16 17  1  0
 17 18  2  0
 18 19  1  0
 19 20  2  0
 11 21  1  0
 21 22  1  0
  5 23  2  0
 23 24  1  0
 24 25  2  3
 25 26  1  0
 26 27  1  0
 27 28  1  0
 28 29  2  0
 28 30  1  0
 30 31  1  0
 31 32  1  0
 24  2  1  0
 31 26  2  0
 22  8  1  0
 20 15  1  0
  1 33  1  0
  1 34  1  0
  4 35  1  0
  9 36  1  0
  9 37  1  0
 10 38  1  0
 10 39  1  0
 14 40  1  0
 14 41  1  0
 16 42  1  0
 17 43  1  0
 18 44  1  0
 19 45  1  0
 20 46  1  0
 21 47  1  0
 21 48  1  0
 22 49  1  0
 22 50  1  0
 23 51  1  0
 25 52  1  0
M  CHG  3  27  -1  30  -1  32  -1
M  END
>  <UniqueID>  (16) 
14

>  <SMILES>  (16) 
C=c1ncc(C(=O)N2CCN(C(=O)Cc3ccccc3)CC2)cc1=Cc1[n-]c(=O)[n-]c1[O-]

>  <Energy>  (16) 
109.35276775889743

>  <Genealogy>  (16) 
C=c1ncc(C(=O)N2CCN(C(=O)Cc3ccccc3)CC2)cc1=Cc1[n-]c(=O)[n-]c1[O-] (protonated)
C=c1ncc(C(=O)N2CCN(C(=O)Cc3ccccc3)CC2)cc1=Cc1[n-]c(=O)[n-]c1[O-] (3D coordinates assigned)
C=c1ncc(C(=O)N2CCN(C(=O)Cc3ccccc3)CC2)cc1=Cc1[n-]c(=O)[n-]c1[O-] (nonaromatic ring conformer: 109.35276775889743 kcal/mol)

>  <smiles>  (16) 
C=c1ncc(C(=O)N2CCN(C(=O)Cc3ccccc3)CC2)cc1=Cc1[nH]c(=O)[nH]c1O

>  <score_type>  (16) 
oracle

>  <origin>  (16) 
adg

>  <m_score__min__energy>  (16) 
-18.68

>  <m_primary>  (16) 
energy

$$$$
16:0
     RDKit          3D

 57 60  0  0  0  0  0  0  0  0999 V2000
   54.7410   26.1480   45.9700 N   0  0  0  0  0  0  0  0  0  0  0  0
   54.0870   24.6380   45.4430 S   0  0  0  0  0  0  0  0  0  0  0  0
   52.6440   24.8310   45.0750 O   0  0  0  0  0  0  0  0  0  0  0  0
   54.8290   24.1670   44.2240 O   0  0  0  0  0  0  0  0  0  0  0  0
   54.2270   23.4380   46.7390 C   0  0  0  0  0  0  0  0  0  0  0  0
   53.0830   22.7180   47.1230 C   0  0  0  0  0  0  0  0  0  0  0  0
   53.1610   21.7340   48.1110 C   0  0  0  0  0  0  0  0  0  0  0  0
   54.3800   21.4560   48.7280 C   0  0  0  0  0  0  0  0  0  0  0  0
   55.5260   22.1680   48.3660 C   0  0  0  0  0  0  0  0  0  0  0  0
   55.4610   23.1690   47.3830 C   0  0  0  0  0  0  0  0  0  0  0  0
   56.6900   23.9140   47.0530 C   0  0  0  0  0  0  0  0  0  0  0  0
   57.1790   24.8940   47.9270 C   0  0  0  0  0  0  0  0  0  0  0  0
   58.3280   25.6170   47.5980 C   0  0  0  0  0  0  0  0  0  0  0  0
   58.9960   25.3830   46.3840 C   0  0  0  0  0  0  0  0  0  0  0  0
   60.2200   26.2010   46.0120 C   0  0  0  0  0  0  0  0  0  0  0  0
   59.9180   27.5310   45.4170 N   0  0  0  0  0  0  0  0  0  0  0  0
   58.4870   27.7020   45.0400 C   0  0  0  0  0  0  0  0  0  0  0  0
   57.7260   28.6070   46.0260 C   0  0  0  0  0  0  0  0  0  0  0  0
   58.3320   29.9600   46.1290 N   0  0  0  0  0  0  0  0  0  0  0  0
   57.6030   30.9460   45.3040 C   0  0  0  0  0  0  0  0  0  0  0  0
   58.0890   32.3450   45.5850 C   0  0  0  0  0  0  0  0  0  0  0  0
   58.0860   33.3200   44.5740 C   0  0  0  0  0  0  0  0  0  0  0  0
   58.5610   34.6080   44.8370 C   0  0  0  0  0  0  0  0  0  0  0  0
   59.0450   34.9310   46.1080 C   0  0  0  0  0  0  0  0  0  0  0  0
   59.0580   33.9650   47.1190 C   0  0  0  0  0  0  0  0  0  0  0  0
   59.6720   34.3680   48.7110 Cl  0  0  0  0  0  0  0  0  0  0  0  0
   58.5820   32.6740   46.8580 C   0  0  0  0  0  0  0  0  0  0  0  0
   59.7890   29.9790   45.8370 C   0  0  0  0  0  0  0  0  0  0  0  0
   60.4510   28.6530   46.2290 C   0  0  0  0  0  0  0  0  0  0  0  0
   58.5360   24.3550   45.5430 C   0  0  0  0  0  0  0  0  0  0  0  0
   57.3880   23.6290   45.8730 C   0  0  0  0  0  0  0  0  0  0  0  0
   53.9510   26.6950   46.3800 H   0  0  0  0  0  0  0  0  0  0  0  0
   52.1174   22.9313   46.6411 H   0  0  0  0  0  0  0  0  0  0  0  0
   52.2586   21.1770   48.4031 H   0  0  0  0  0  0  0  0  0  0  0  0
   54.4394   20.6752   49.5006 H   0  0  0  0  0  0  0  0  0  0  0  0
   56.4858   21.9432   48.8541 H   0  0  0  0  0  0  0  0  0  0  0  0
   56.6569   25.0944   48.8742 H   0  0  0  0  0  0  0  0  0  0  0  0
   58.7131   26.3758   48.2950 H   0  0  0  0  0  0  0  0  0  0  0  0
   60.8164   26.3598   46.9225 H   0  0  0  0  0  0  0  0  0  0  0  0
   60.7554   25.6283   45.2404 H   0  0  0  0  0  0  0  0  0  0  0  0
   60.4550   27.5520   44.5160 H   0  0  0  0  0  0  0  0  0  0  0  0
   58.4368   28.1511   44.0371 H   0  0  0  0  0  0  0  0  0  0  0  0
   58.0132   26.7095   45.0605 H   0  0  0  0  0  0  0  0  0  0  0  0
   56.6862   28.7099   45.6821 H   0  0  0  0  0  0  0  0  0  0  0  0
   57.7746   28.1388   47.0202 H   0  0  0  0  0  0  0  0  0  0  0  0
   57.7640   30.7154   44.2406 H   0  0  0  0  0  0  0  0  0  0  0  0
   56.5326   30.8890   45.5512 H   0  0  0  0  0  0  0  0  0  0  0  0
   57.7085   33.0691   43.5717 H   0  0  0  0  0  0  0  0  0  0  0  0
   58.5539   35.3687   44.0425 H   0  0  0  0  0  0  0  0  0  0  0  0
   59.4160   35.9460   46.3131 H   0  0  0  0  0  0  0  0  0  0  0  0
   58.5944   31.9145   47.6536 H   0  0  0  0  0  0  0  0  0  0  0  0
   59.9368   30.1492   44.7604 H   0  0  0  0  0  0  0  0  0  0  0  0
   60.2512   30.7859   46.4247 H   0  0  0  0  0  0  0  0  0  0  0  0
   61.5361   28.7309   46.0662 H   0  0  0  0  0  0  0  0  0  0  0  0
   60.2332   28.4527   47.2885 H   0  0  0  0  0  0  0  0  0  0  0  0
   59.0835   24.1201   44.6183 H   0  0  0  0  0  0  0  0  0  0  0  0
   57.0320   22.8317   45.2040 H   0  0  0  0  0  0  0  0  0  0  0  0
  1  2  1  0
  2  3  2  0
  2  4  2  0
  2  5  1  0
  5  6  2  0
  6  7  1  0
  7  8  2  0
  8  9  1  0
  9 10  2  0
 10 11  1  0
 11 12  2  0
 12 13  1  0
 13 14  2  0
 14 15  1  0
 15 16  1  0
 16 17  1  0
 17 18  1  0
 18 19  1  0
 19 20  1  0
 20 21  1  0
 21 22  2  0
 22 23  1  0
 23 24  2  0
 24 25  1  0
 25 26  1  0
 25 27  2  0
 19 28  1  0
 28 29  1  0
 14 30  1  0
 30 31  2  0
 10  5  1  0
 31 11  1  0
 29 16  1  0
 27 21  1  0
  1 32  1  0
  6 33  1  0
  7 34  1  0
  8 35  1  0
  9 36  1  0
 12 37  1  0
 13 38  1  0
 15 39  1  0
 15 40  1  0
 16 41  1  0
 17 42  1  0
 17 43  1  0
 18 44  1  0
 18 45  1  0
 20 46  1  0
 20 47  1  0
 22 48  1  0
 23 49  1  0
 24 50  1  0
 27 51  1  0
 28 52  1  0
 28 53  1  0
 29 54  1  0
 29 55  1  0
 30 56  1  0
 31 57  1  0
M  CHG  2   1  -1  16   1
M  END
>  <UniqueID>  (17) 
15

>  <SMILES>  (17) 
[NH-]S(=O)(=O)c1ccccc1-c1ccc(C[NH+]2CCN(Cc3cccc(Cl)c3)CC2)cc1

>  <Energy>  (17) 
84.07591684225301

>  <Genealogy>  (17) 
[NH-]S(=O)(=O)c1ccccc1-c1ccc(C[NH+]2CCN(Cc3cccc(Cl)c3)CC2)cc1 (protonated)
[NH-]S(=O)(=O)c1ccccc1-c1ccc(C[NH+]2CCN(Cc3cccc(Cl)c3)CC2)cc1 (3D coordinates assigned)
[NH-]S(=O)(=O)c1ccccc1-c1ccc(C[NH+]2CCN(Cc3cccc(Cl)c3)CC2)cc1 (nonaromatic ring conformer: 84.07591684225301 kcal/mol)

>  <smiles>  (17) 
NS(=O)(=O)c1ccccc1-c1ccc(CN2CCN(Cc3cccc(Cl)c3)CC2)cc1

>  <score_type>  (17) 
oracle

>  <origin>  (17) 
adg

>  <m_score__min__energy>  (17) 
-10.720000000000001

>  <m_primary>  (17) 
energy

$$$$
17:0
     RDKit          3D

 54 56  0  0  0  0  0  0  0  0999 V2000
   57.7996   23.1826   45.2082 H   0  0  0  0  0  0  0  0  0  0  0  0
   56.9970   23.9080   45.4070 C   0  0  0  0  0  0  0  0  0  0  0  0
   57.3050   25.1850   45.7510 N   0  0  0  0  0  0  0  0  0  0  0  0
   56.3320   26.1010   45.9980 C   0  0  0  0  0  0  0  0  0  0  0  0
   56.6680   27.3090   46.3390 N   0  0  0  0  0  0  0  0  0  0  0  0
   57.0160   28.3510   45.4190 C   0  0  0  0  0  0  0  0  0  0  0  0
   56.2200   29.3090   45.2500 O   0  0  0  0  0  0  0  0  0  0  0  0
   58.2650   28.3550   44.7150 N   0  0  0  0  0  0  0  0  0  0  0  0
   59.8250   28.3340   45.4740 S   0  0  0  0  0  0  0  0  0  0  0  0
   60.0920   26.9850   46.0820 O   0  0  0  0  0  0  0  0  0  0  0  0
   60.8940   28.6330   44.4620 O   0  0  0  0  0  0  0  0  0  0  0  0
   59.8530   29.5510   46.7440 C   0  0  0  0  0  0  0  0  0  0  0  0
   60.8690   30.5160   46.7690 C   0  0  0  0  0  0  0  0  0  0  0  0
   61.6548   30.5047   45.9994 H   0  0  0  0  0  0  0  0  0  0  0  0
   60.8870   31.4930   47.7690 C   0  0  0  0  0  0  0  0  0  0  0  0
   61.6862   32.2488   47.7816 H   0  0  0  0  0  0  0  0  0  0  0  0
   59.8900   31.5140   48.7570 C   0  0  0  0  0  0  0  0  0  0  0  0
   59.8930   32.5880   49.8140 C   0  0  0  0  0  0  0  0  0  0  0  0
   60.5862   32.2979   50.6173 H   0  0  0  0  0  0  0  0  0  0  0  0
   58.8694   32.6951   50.2022 H   0  0  0  0  0  0  0  0  0  0  0  0
   60.3340   33.9360   49.2380 C   0  0  0  0  0  0  0  0  0  0  0  0
   61.2392   33.7910   48.6300 H   0  0  0  0  0  0  0  0  0  0  0  0
   60.5413   34.6268   50.0686 H   0  0  0  0  0  0  0  0  0  0  0  0
   59.2770   34.5070   48.4000 N   0  0  0  0  0  0  0  0  0  0  0  0
   59.0350   35.4510   48.7800 H   0  0  0  0  0  0  0  0  0  0  0  0
   59.8710   34.7500   46.7860 S   0  0  0  0  0  0  0  0  0  0  0  0
   61.3480   34.4730   46.7560 O   0  0  0  0  0  0  0  0  0  0  0  0
   59.6470   36.1800   46.3760 O   0  0  0  0  0  0  0  0  0  0  0  0
   59.0580   33.6630   45.6620 C   0  0  0  0  0  0  0  0  0  0  0  0
   59.1740   33.8520   44.2780 C   0  0  0  0  0  0  0  0  0  0  0  0
   59.7956   34.6707   43.8864 H   0  0  0  0  0  0  0  0  0  0  0  0
   58.5020   33.0030   43.3940 C   0  0  0  0  0  0  0  0  0  0  0  0
   58.5923   33.1605   42.3091 H   0  0  0  0  0  0  0  0  0  0  0  0
   57.7130   31.9510   43.8830 C   0  0  0  0  0  0  0  0  0  0  0  0
   56.9600   31.0710   42.9310 C   0  0  0  0  0  0  0  0  0  0  0  0
   56.3477   30.3554   43.4993 H   0  0  0  0  0  0  0  0  0  0  0  0
   56.3075   31.6899   42.2976 H   0  0  0  0  0  0  0  0  0  0  0  0
   57.6723   30.5220   42.2976 H   0  0  0  0  0  0  0  0  0  0  0  0
   57.5810   31.7770   45.2690 C   0  0  0  0  0  0  0  0  0  0  0  0
   56.9456   30.9695   45.6617 H   0  0  0  0  0  0  0  0  0  0  0  0
   58.2540   32.6260   46.1530 C   0  0  0  0  0  0  0  0  0  0  0  0
   58.1518   32.4791   47.2383 H   0  0  0  0  0  0  0  0  0  0  0  0
   58.8620   30.5580   48.7170 C   0  0  0  0  0  0  0  0  0  0  0  0
   58.0662   30.5780   49.4762 H   0  0  0  0  0  0  0  0  0  0  0  0
   58.8450   29.5810   47.7170 C   0  0  0  0  0  0  0  0  0  0  0  0
   58.0381   28.8338   47.6940 H   0  0  0  0  0  0  0  0  0  0  0  0
   55.0230   25.7310   45.9130 N   0  0  0  0  0  0  0  0  0  0  0  0
   54.6690   24.4650   45.5660 C   0  0  0  0  0  0  0  0  0  0  0  0
   53.2230   24.0940   45.4790 C   0  0  0  0  0  0  0  0  0  0  0  0
   52.8100   23.9880   46.4930 H   0  0  0  0  0  0  0  0  0  0  0  0
   52.6745   24.8805   44.9400 H   0  0  0  0  0  0  0  0  0  0  0  0
   53.1209   23.1406   44.9400 H   0  0  0  0  0  0  0  0  0  0  0  0
   55.6620   23.5170   45.3060 C   0  0  0  0  0  0  0  0  0  0  0  0
   55.3970   22.4862   45.0281 H   0  0  0  0  0  0  0  0  0  0  0  0
  1  2  1  0
  2  3  1  0
  3  4  1  0
  4  5  2  0
  5  6  1  0
  6  7  2  0
  6  8  1  0
  8  9  1  0
  9 10  2  0
  9 11  2  0
  9 12  1  0
 12 13  2  0
 13 14  1  0
 13 15  1  0
 15 16  1  0
 15 17  2  0
 17 18  1  0
 18 19  1  0
 18 20  1  0
 18 21  1  0
 21 22  1  0
 21 23  1  0
 21 24  1  0
 24 25  1  0
 24 26  1  0
 26 27  2  0
 26 28  2  0
 26 29  1  0
 29 30  2  0
 30 31  1  0
 30 32  1  0
 32 33  1  0
 32 34  2  0
 34 35  1  0
 35 36  1  0
 35 37  1  0
 35 38  1  0
 34 39  1  0
 39 40  1  0
 39 41  2  0
 41 42  1  0
 17 43  1  0
 43 44  1  0
 43 45  2  0
 45 46  1  0
  4 47  1  0
 47 48  2  0
 48 49  1  0
 49 50  1  0
 49 51  1  0
 49 52  1  0
 48 53  1  0
 53 54  1  0
 53  2  2  0
 45 12  1  0
 41 29  1  0
M  CHG  2   3  -1   8  -1
M  END
>  <UniqueID>  (18) 
16

>  <SMILES>  (18) 
Cc1ccc(S(=O)(=O)NCCc2ccc(S(=O)(=O)[N-]C(=O)/N=c3\nc(C)cc[n-]3)cc2)cc1

>  <Energy>  (18) 
59.89934627230191

>  <Genealogy>  (18) 
Cc1ccc(S(=O)(=O)NCCc2ccc(S(=O)(=O)[N-]C(=O)N=c3nc(C)cc[n-]3)cc2)cc1 (protonated)
Cc1ccc(S(=O)(=O)NCCc2ccc(S(=O)(=O)[N-]C(=O)/N=c3\nc(C)cc[n-]3)cc2)cc1 (cis-trans isomerization)
Cc1ccc(S(=O)(=O)NCCc2ccc(S(=O)(=O)[N-]C(=O)/N=c3\nc(C)cc[n-]3)cc2)cc1 (3D coordinates assigned)
Cc1ccc(S(=O)(=O)NCCc2ccc(S(=O)(=O)[N-]C(=O)/N=c3\nc(C)cc[n-]3)cc2)cc1 (optimized conformer: 59.89934627230191 kcal/mol)

>  <smiles>  (18) 
Cc1ccc(S(=O)(=O)NCCc2ccc(S(=O)(=O)NC(=O)N=c3nc(C)cc[nH]3)cc2)cc1

>  <score_type>  (18) 
oracle

>  <origin>  (18) 
adg

>  <m_score__min__energy>  (18) 
-12.529999999999999

>  <m_primary>  (18) 
energy

$$$$
19:0
     RDKit          3D

 48 50  0  0  0  0  0  0  0  0999 V2000
   58.0416   21.9779   45.5208 H   0  0  0  0  0  0  0  0  0  0  0  0
   57.1030   22.5510   45.5450 C   0  0  0  0  0  0  0  0  0  0  0  0
   56.1413   22.0380   45.3967 H   0  0  0  0  0  0  0  0  0  0  0  0
   57.1310   23.8670   45.7540 C   0  0  0  0  0  0  0  0  0  0  0  0
   58.3230   24.4890   45.9440 N   0  0  0  0  0  0  0  0  0  0  0  0
   58.4270   25.8280   46.1580 C   0  0  0  0  0  0  0  0  0  0  0  0
   59.5720   26.3070   46.3750 O   0  0  0  0  0  0  0  0  0  0  0  0
   57.2600   26.6420   46.1700 C   0  0  0  0  0  0  0  0  0  0  0  0
   57.2840   27.9880   46.3600 C   0  0  0  0  0  0  0  0  0  0  0  0
   57.2545   28.3473   47.3992 H   0  0  0  0  0  0  0  0  0  0  0  0
   57.3460   29.0100   45.2980 C   0  0  0  0  0  0  0  0  0  0  0  0
   57.0120   28.6880   43.9770 C   0  0  0  0  0  0  0  0  0  0  0  0
   56.7396   27.6543   43.7177 H   0  0  0  0  0  0  0  0  0  0  0  0
   57.0230   29.6720   42.9880 C   0  0  0  0  0  0  0  0  0  0  0  0
   56.7683   29.4056   41.9516 H   0  0  0  0  0  0  0  0  0  0  0  0
   57.3560   30.9990   43.3030 C   0  0  0  0  0  0  0  0  0  0  0  0
   57.3820   32.0230   42.1980 C   0  0  0  0  0  0  0  0  0  0  0  0
   57.4076   33.0325   42.6341 H   0  0  0  0  0  0  0  0  0  0  0  0
   58.2765   31.8692   41.5766 H   0  0  0  0  0  0  0  0  0  0  0  0
   56.4808   31.9148   41.5766 H   0  0  0  0  0  0  0  0  0  0  0  0
   57.6460   31.3440   44.6490 C   0  0  0  0  0  0  0  0  0  0  0  0
   57.9470   32.7420   45.0520 C   0  0  0  0  0  0  0  0  0  0  0  0
   57.3050   33.6880   44.5150 O   0  0  0  0  0  0  0  0  0  0  0  0
   58.9530   33.0310   46.0540 N   0  0  0  0  0  0  0  0  0  0  0  0
   59.6700   32.2650   46.0480 H   0  0  0  0  0  0  0  0  0  0  0  0
   58.3380   33.0950   47.3990 C   0  0  0  0  0  0  0  0  0  0  0  0
   57.4278   33.7102   47.3435 H   0  0  0  0  0  0  0  0  0  0  0  0
   58.1073   32.0667   47.7143 H   0  0  0  0  0  0  0  0  0  0  0  0
   59.2910   33.7100   48.4470 C   0  0  0  0  0  0  0  0  0  0  0  0
   58.9733   34.7405   48.6641 H   0  0  0  0  0  0  0  0  0  0  0  0
   59.2539   33.1001   49.3617 H   0  0  0  0  0  0  0  0  0  0  0  0
   60.6750   33.7260   47.9420 N   0  0  0  0  0  0  0  0  0  0  0  0
   61.5970   34.1950   48.9860 C   0  0  0  0  0  0  0  0  0  0  0  0
   61.1704   33.9780   49.9764 H   0  0  0  0  0  0  0  0  0  0  0  0
   62.5626   33.6785   48.8815 H   0  0  0  0  0  0  0  0  0  0  0  0
   61.7481   35.2795   48.8815 H   0  0  0  0  0  0  0  0  0  0  0  0
   60.7780   34.5840   46.7420 C   0  0  0  0  0  0  0  0  0  0  0  0
   60.7169   35.6378   47.0513 H   0  0  0  0  0  0  0  0  0  0  0  0
   61.7391   34.3716   46.2509 H   0  0  0  0  0  0  0  0  0  0  0  0
   59.6470   34.2930   45.7310 C   0  0  0  0  0  0  0  0  0  0  0  0
   58.9207   35.1187   45.7578 H   0  0  0  0  0  0  0  0  0  0  0  0
   60.0914   34.1992   44.7292 H   0  0  0  0  0  0  0  0  0  0  0  0
   57.6330   30.3380   45.6320 C   0  0  0  0  0  0  0  0  0  0  0  0
   57.8515   30.5990   46.6780 H   0  0  0  0  0  0  0  0  0  0  0  0
   56.0120   25.9940   46.0010 C   0  0  0  0  0  0  0  0  0  0  0  0
   54.8180   26.7090   46.0270 O   0  0  0  0  0  0  0  0  0  0  0  0
   55.9520   24.6160   45.7890 C   0  0  0  0  0  0  0  0  0  0  0  0
   54.9796   24.1210   45.6499 H   0  0  0  0  0  0  0  0  0  0  0  0
  1  2  1  0
  2  3  1  0
  2  4  2  0
  4  5  1  0
  5  6  1  0
  6  7  2  0
  6  8  1  0
  8  9  2  0
  9 10  1  0
  9 11  1  0
 11 12  2  0
 12 13  1  0
 12 14  1  0
 14 15  1  0
 14 16  2  0
 16 17  1  0
 17 18  1  0
 17 19  1  0
 17 20  1  0
 16 21  1  0
 21 22  1  0
 22 23  2  0
 22 24  1  0
 24 25  1  0
 24 26  1  0
 26 27  1  0
 26 28  1  0
 26 29  1  0
 29 30  1  0
 29 31  1  0
 29 32  1  0
 32 33  1  0
 33 34  1  0
 33 35  1  0
 33 36  1  0
 32 37  1  0
 37 38  1  0
 37 39  1  0
 37 40  1  0
 40 41  1  0
 40 42  1  0
 21 43  2  0
 43 44  1  0
  8 45  1  0
 45 46  1  0
 45 47  2  0
 47 48  1  0
 47  4  1  0
 43 11  1  0
 40 24  1  0
M  CHG  3   5  -1  24   1  46  -1
M  END
>  <UniqueID>  (19) 
17

>  <SMILES>  (19) 
C=c1cc([O-])/c(=C/c2ccc(C)c(C(=O)[NH+]3CCN(C)CC3)c2)c(=O)[n-]1

>  <Energy>  (19) 
78.96526263574285

>  <Genealogy>  (19) 
C=c1cc([O-])c(=Cc2ccc(C)c(C(=O)[NH+]3CCN(C)CC3)c2)c(=O)[n-]1 (protonated)
C=c1cc([O-])/c(=C/c2ccc(C)c(C(=O)[NH+]3CCN(C)CC3)c2)c(=O)[n-]1 (cis-trans isomerization)
C=c1cc([O-])/c(=C/c2ccc(C)c(C(=O)[NH+]3CCN(C)CC3)c2)c(=O)[n-]1 (3D coordinates assigned)
C=c1cc([O-])/c(=C/c2ccc(C)c(C(=O)[NH+]3CCN(C)CC3)c2)c(=O)[n-]1 (nonaromatic ring conformer: 78.96526263574285 kcal/mol)

>  <smiles>  (19) 
C=c1cc(O)c(=Cc2ccc(C)c(C(=O)N3CCN(C)CC3)c2)c(=O)[nH]1

>  <score_type>  (19) 
oracle

>  <origin>  (19) 
adg

>  <m_score__min__energy>  (19) 
-12

>  <m_primary>  (19) 
energy

$$$$
20:0
     RDKit          3D

 52 55  0  0  0  0  0  0  0  0999 V2000
   63.3930   33.5640   46.7070 C   0  0  0  0  0  0  0  0  0  0  0  0
   62.1570   34.2050   47.0040 O   0  0  0  0  0  0  0  0  0  0  0  0
   61.1660   33.6670   47.8380 C   0  0  0  0  0  0  0  0  0  0  0  0
   59.8080   33.6240   47.4670 C   0  0  0  0  0  0  0  0  0  0  0  0
   58.8600   33.0730   48.3340 C   0  0  0  0  0  0  0  0  0  0  0  0
   59.2470   32.5440   49.5700 C   0  0  0  0  0  0  0  0  0  0  0  0
   58.2380   32.0060   50.4380 N   0  0  0  0  0  0  0  0  0  0  0  0
   58.1030   30.6320   50.8230 C   0  0  0  0  0  0  0  0  0  0  0  0
   57.0100   30.2070   51.2840 O   0  0  0  0  0  0  0  0  0  0  0  0
   59.2720   29.7280   50.7450 C   0  0  0  0  0  0  0  0  0  0  0  0
   60.1370   29.6360   51.8510 C   0  0  0  0  0  0  0  0  0  0  0  0
   61.1980   28.7270   51.8500 C   0  0  0  0  0  0  0  0  0  0  0  0
   61.4080   27.8990   50.7480 C   0  0  0  0  0  0  0  0  0  0  0  0
   60.5710   27.9900   49.6350 C   0  0  0  0  0  0  0  0  0  0  0  0
   59.5170   28.9150   49.6080 C   0  0  0  0  0  0  0  0  0  0  0  0
   58.7310   29.0260   48.4120 N   0  0  0  0  0  0  0  0  0  0  0  0
   59.1800   29.7670   47.2640 C   0  0  0  0  0  0  0  0  0  0  0  0
   60.3780   30.1550   47.1990 O   0  0  0  0  0  0  0  0  0  0  0  0
   58.2810   30.0320   46.1220 C   0  0  0  0  0  0  0  0  0  0  0  0
   58.3360   31.2600   45.5370 N   0  0  0  0  0  0  0  0  0  0  0  0
   57.5610   31.6170   44.4780 C   0  0  0  0  0  0  0  0  0  0  0  0
   57.7420   33.0160   43.9260 C   0  0  0  0  0  0  0  0  0  0  0  0
   57.4620   34.1750   44.8730 C   0  0  0  0  0  0  0  0  0  0  0  0
   58.8950   33.8480   44.4690 C   0  0  0  0  0  0  0  0  0  0  0  0
   56.6570   30.6760   43.9550 C   0  0  0  0  0  0  0  0  0  0  0  0
   56.5570   29.4160   44.5410 C   0  0  0  0  0  0  0  0  0  0  0  0
   57.3540   29.0790   45.6480 C   0  0  0  0  0  0  0  0  0  0  0  0
   57.2220   27.8100   46.3110 N   0  0  0  0  0  0  0  0  0  0  0  0
   56.4550   26.6920   45.8580 C   0  0  0  0  0  0  0  0  0  0  0  0
   55.2040   26.7030   45.9920 O   0  0  0  0  0  0  0  0  0  0  0  0
   60.5990   32.6090   49.9510 C   0  0  0  0  0  0  0  0  0  0  0  0
   61.5490   33.1610   49.0860 C   0  0  0  0  0  0  0  0  0  0  0  0
   63.9034   33.2993   47.6448 H   0  0  0  0  0  0  0  0  0  0  0  0
   63.2018   32.6514   46.1234 H   0  0  0  0  0  0  0  0  0  0  0  0
   64.0288   34.2460   46.1234 H   0  0  0  0  0  0  0  0  0  0  0  0
   59.4926   34.0250   46.4925 H   0  0  0  0  0  0  0  0  0  0  0  0
   57.7997   33.0552   48.0417 H   0  0  0  0  0  0  0  0  0  0  0  0
   59.9764   30.2855   52.7241 H   0  0  0  0  0  0  0  0  0  0  0  0
   61.8686   28.6645   52.7197 H   0  0  0  0  0  0  0  0  0  0  0  0
   62.2345   27.1731   50.7559 H   0  0  0  0  0  0  0  0  0  0  0  0
   60.7394   27.3303   48.7710 H   0  0  0  0  0  0  0  0  0  0  0  0
   57.9410   28.3550   48.2830 H   0  0  0  0  0  0  0  0  0  0  0  0
   57.4019   32.7282   42.9202 H   0  0  0  0  0  0  0  0  0  0  0  0
   56.9791   35.0888   44.4965 H   0  0  0  0  0  0  0  0  0  0  0  0
   56.9294   34.2877   45.8288 H   0  0  0  0  0  0  0  0  0  0  0  0
   59.4465   34.5259   43.8010 H   0  0  0  0  0  0  0  0  0  0  0  0
   59.8254   33.6270   45.0127 H   0  0  0  0  0  0  0  0  0  0  0  0
   56.0317   30.9333   43.0874 H   0  0  0  0  0  0  0  0  0  0  0  0
   55.8487   28.6794   44.1339 H   0  0  0  0  0  0  0  0  0  0  0  0
   56.9550   25.8282   45.3955 H   0  0  0  0  0  0  0  0  0  0  0  0
   60.9105   32.2242   50.9333 H   0  0  0  0  0  0  0  0  0  0  0  0
   62.6059   33.1980   49.3886 H   0  0  0  0  0  0  0  0  0  0  0  0
  1  2  1  0
  2  3  1  0
  3  4  2  0
  4  5  1  0
  5  6  2  0
  6  7  1  0
  7  8  1  0
  8  9  2  0
  8 10  1  0
 10 11  2  0
 11 12  1  0
 12 13  2  0
 13 14  1  0
 14 15  2  0
 15 16  1  0
 16 17  1  0
 17 18  2  0
 17 19  1  0
 19 20  2  0
 20 21  1  0
 21 22  1  0
 22 23  1  0
 23 24  1  0
 21 25  2  0
 25 26  1  0
 26 27  2  0
 27 28  1  0
 28 29  1  0
 29 30  2  0
  6 31  1  0
 31 32  2  0
 32  3  1  0
 15 10  1  0
 27 19  1  0
 24 22  1  0
  1 33  1  0
  1 34  1  0
  1 35  1  0
  4 36  1  0
  5 37  1  0
 11 38  1  0
 12 39  1  0
 13 40  1  0
 14 41  1  0
 16 42  1  0
 22 43  1  0
 23 44  1  0
 23 45  1  0
 24 46  1  0
 24 47  1  0
 25 48  1  0
 26 49  1  0
 29 50  1  0
 31 51  1  0
 32 52  1  0
M  CHG  2   7  -1  28  -1
M  END
>  <UniqueID>  (20) 
18

>  <SMILES>  (20) 
COc1ccc([N-]C(=O)c2ccccc2NC(=O)c2nc(C3CC3)ccc2[N-]C=O)cc1

>  <Energy>  (20) 
339.0857980869136

>  <Genealogy>  (20) 
COc1ccc([N-]C(=O)c2ccccc2NC(=O)c2nc(C3CC3)ccc2[N-]C=O)cc1 (protonated)
COc1ccc([N-]C(=O)c2ccccc2NC(=O)c2nc(C3CC3)ccc2[N-]C=O)cc1 (3D coordinates assigned)
COc1ccc([N-]C(=O)c2ccccc2NC(=O)c2nc(C3CC3)ccc2[N-]C=O)cc1 (nonaromatic ring conformer: 339.0857980869136 kcal/mol)

>  <smiles>  (20) 
COc1ccc(NC(=O)c2ccccc2NC(=O)c2nc(C3CC3)ccc2NC=O)cc1

>  <score_type>  (20) 
oracle

>  <origin>  (20) 
adg

>  <m_score__min__energy>  (20) 
-11.76

>  <m_primary>  (20) 
energy

$$$$
21:0
     RDKit          3D

 46 48  0  0  0  0  0  0  0  0999 V2000
   59.3850   31.2690   46.9140 H   0  0  0  0  0  0  0  0  0  0  0  0
   59.7030   31.5750   47.8240 O   0  0  0  0  0  0  0  0  0  0  0  0
   60.9700   32.1150   48.0420 C   0  0  0  0  0  0  0  0  0  0  0  0
   62.0850   31.2790   47.9140 C   0  0  0  0  0  0  0  0  0  0  0  0
   61.9452   30.2182   47.6586 H   0  0  0  0  0  0  0  0  0  0  0  0
   63.3740   31.7810   48.1080 C   0  0  0  0  0  0  0  0  0  0  0  0
   64.2441   31.1154   48.0086 H   0  0  0  0  0  0  0  0  0  0  0  0
   63.5580   33.1270   48.4280 C   0  0  0  0  0  0  0  0  0  0  0  0
   64.5734   33.5223   48.5787 H   0  0  0  0  0  0  0  0  0  0  0  0
   62.4540   33.9720   48.5570 C   0  0  0  0  0  0  0  0  0  0  0  0
   62.6039   35.0340   48.8013 H   0  0  0  0  0  0  0  0  0  0  0  0
   61.1560   33.4750   48.3770 C   0  0  0  0  0  0  0  0  0  0  0  0
   59.7630   34.5940   48.5920 S   0  0  0  0  0  0  0  0  0  0  0  0
   59.0340   34.1270   47.0230 C   0  0  0  0  0  0  0  0  0  0  0  0
   59.7600   34.2740   45.8360 C   0  0  0  0  0  0  0  0  0  0  0  0
   60.7620   34.7274   45.8582 H   0  0  0  0  0  0  0  0  0  0  0  0
   59.2150   33.8460   44.6220 C   0  0  0  0  0  0  0  0  0  0  0  0
   59.7873   33.9707   43.6909 H   0  0  0  0  0  0  0  0  0  0  0  0
   57.9370   33.2560   44.5850 C   0  0  0  0  0  0  0  0  0  0  0  0
   57.3940   32.7040   43.3690 N   0  0  0  0  0  0  0  0  0  0  0  0
   56.9570   33.3560   42.6770 H   0  0  0  0  0  0  0  0  0  0  0  0
   57.2700   31.2680   43.1040 C   0  0  0  0  0  0  0  0  0  0  0  0
   58.2228   30.8937   42.7015 H   0  0  0  0  0  0  0  0  0  0  0  0
   56.4568   31.1162   42.3790 H   0  0  0  0  0  0  0  0  0  0  0  0
   56.9370   30.5120   44.3580 C   0  0  0  0  0  0  0  0  0  0  0  0
   55.7490   30.1360   44.5550 O   0  0  0  0  0  0  0  0  0  0  0  0
   57.9620   30.2510   45.3300 N   0  0  0  0  0  0  0  0  0  0  0  0
   58.3320   29.0740   45.7440 C   0  0  0  0  0  0  0  0  0  0  0  0
   57.5990   27.9630   45.4530 N   0  0  0  0  0  0  0  0  0  0  0  0
   57.9850   26.7160   45.8380 C   0  0  0  0  0  0  0  0  0  0  0  0
   57.1490   25.5330   45.4500 C   0  0  0  0  0  0  0  0  0  0  0  0
   57.6380   24.6122   45.8007 H   0  0  0  0  0  0  0  0  0  0  0  0
   57.0459   25.5109   44.3551 H   0  0  0  0  0  0  0  0  0  0  0  0
   55.7900   25.6350   46.0650 C   0  0  0  0  0  0  0  0  0  0  0  0
   55.1470   26.7170   46.0070 O   0  0  0  0  0  0  0  0  0  0  0  0
   55.2240   24.5310   46.6900 O   0  0  0  0  0  0  0  0  0  0  0  0
   59.1860   26.5500   46.5420 C   0  0  0  0  0  0  0  0  0  0  0  0
   59.5180   25.5465   46.8467 H   0  0  0  0  0  0  0  0  0  0  0  0
   59.9560   27.6730   46.8520 C   0  0  0  0  0  0  0  0  0  0  0  0
   60.8968   27.5582   47.4103 H   0  0  0  0  0  0  0  0  0  0  0  0
   59.5310   28.9410   46.4530 C   0  0  0  0  0  0  0  0  0  0  0  0
   60.1339   29.8290   46.6940 H   0  0  0  0  0  0  0  0  0  0  0  0
   57.1970   33.1560   45.7730 C   0  0  0  0  0  0  0  0  0  0  0  0
   56.1812   32.7344   45.7506 H   0  0  0  0  0  0  0  0  0  0  0  0
   57.7430   33.5890   46.9850 C   0  0  0  0  0  0  0  0  0  0  0  0
   57.1558   33.5065   47.9115 H   0  0  0  0  0  0  0  0  0  0  0  0
  1  2  1  0
  2  3  1  0
  3  4  2  0
  4  5  1  0
  4  6  1  0
  6  7  1  0
  6  8  2  0
  8  9  1  0
  8 10  1  0
 10 11  1  0
 10 12  2  0
 12 13  1  0
 13 14  1  0
 14 15  2  0
 15 16  1  0
 15 17  1  0
 17 18  1  0
 17 19  2  0
 19 20  1  0
 20 21  1  0
 20 22  1  0
 22 23  1  0
 22 24  1  0
 22 25  1  0
 25 26  2  0
 25 27  1  0
 27 28  2  0
 28 29  1  0
 29 30  1  0
 30 31  1  0
 31 32  1  0
 31 33  1  0
 31 34  1  0
 34 35  2  0
 34 36  1  0
 30 37  2  0
 37 38  1  0
 37 39  1  0
 39 40  1  0
 39 41  2  0
 41 42  1  0
 19 43  1  0
 43 44  1  0
 43 45  2  0
 45 46  1  0
 12  3  1  0
 45 14  1  0
 41 28  1  0
M  CHG  2  29  -1  36  -1
M  END
>  <UniqueID>  (21) 
19

>  <SMILES>  (21) 
O=C([O-])Cc1ccc/c(=N/C(=O)CNc2ccc(Sc3ccccc3O)cc2)[n-]1

>  <Energy>  (21) 
41.10946951243401

>  <Genealogy>  (21) 
O=C([O-])Cc1cccc(=NC(=O)CNc2ccc(Sc3ccccc3O)cc2)[n-]1 (protonated)
O=C([O-])Cc1ccc/c(=N/C(=O)CNc2ccc(Sc3ccccc3O)cc2)[n-]1 (cis-trans isomerization)
O=C([O-])Cc1ccc/c(=N/C(=O)CNc2ccc(Sc3ccccc3O)cc2)[n-]1 (3D coordinates assigned)
O=C([O-])Cc1ccc/c(=N/C(=O)CNc2ccc(Sc3ccccc3O)cc2)[n-]1 (optimized conformer: 41.10946951243401 kcal/mol)

>  <smiles>  (21) 
O=C(O)Cc1cccc(=NC(=O)CNc2ccc(Sc3ccccc3O)cc2)[nH]1

>  <score_type>  (21) 
oracle

>  <origin>  (21) 
adg

>  <m_score__min__energy>  (21) 
-14.109999999999999

>  <m_primary>  (21) 
energy

$$$$
22:0
     RDKit          3D

 55 57  0  0  0  0  0  0  0  0999 V2000
   61.6090   30.2320   49.7390 C   0  0  0  0  0  0  0  0  0  0  0  0
   60.9340   28.9390   49.6070 N   0  0  0  0  0  0  0  0  0  0  0  0
   61.1650   27.9170   50.6300 C   0  0  0  0  0  0  0  0  0  0  0  0
   59.9360   28.7470   48.5820 C   0  0  0  0  0  0  0  0  0  0  0  0
   59.7740   27.4910   47.9700 C   0  0  0  0  0  0  0  0  0  0  0  0
   58.8050   27.3030   46.9800 C   0  0  0  0  0  0  0  0  0  0  0  0
   57.9740   28.3650   46.5860 C   0  0  0  0  0  0  0  0  0  0  0  0
   56.9110   28.1400   45.5760 C   0  0  0  0  0  0  0  0  0  0  0  0
   56.6080   26.9580   45.2570 O   0  0  0  0  0  0  0  0  0  0  0  0
   56.2320   29.2240   44.9200 N   0  0  0  0  0  0  0  0  0  0  0  0
   56.8360   30.3740   44.3070 C   0  0  0  0  0  0  0  0  0  0  0  0
   56.8000   30.4910   42.9140 C   0  0  0  0  0  0  0  0  0  0  0  0
   57.3740   31.5980   42.2850 C   0  0  0  0  0  0  0  0  0  0  0  0
   57.9990   32.5940   43.0420 C   0  0  0  0  0  0  0  0  0  0  0  0
   58.0410   32.5010   44.4440 C   0  0  0  0  0  0  0  0  0  0  0  0
   58.7800   33.5210   45.2330 C   0  0  0  0  0  0  0  0  0  0  0  0
   59.6600   34.2320   44.6710 O   0  0  0  0  0  0  0  0  0  0  0  0
   58.5290   33.6970   46.6370 N   0  0  0  0  0  0  0  0  0  0  0  0
   59.5680   33.7740   47.6320 C   0  0  0  0  0  0  0  0  0  0  0  0
   59.2890   34.1190   48.9680 C   0  0  0  0  0  0  0  0  0  0  0  0
   60.3200   34.1970   49.9040 C   0  0  0  0  0  0  0  0  0  0  0  0
   61.6420   33.9580   49.5210 C   0  0  0  0  0  0  0  0  0  0  0  0
   61.9530   33.6340   48.1870 C   0  0  0  0  0  0  0  0  0  0  0  0
   63.3260   33.4130   47.7810 N   0  0  0  0  0  0  0  0  0  0  0  0
   63.7100   33.5210   46.3690 C   0  0  0  0  0  0  0  0  0  0  0  0
   64.3540   33.0870   48.7770 C   0  0  0  0  0  0  0  0  0  0  0  0
   60.9010   33.5450   47.2520 C   0  0  0  0  0  0  0  0  0  0  0  0
   57.4270   31.3990   45.0690 C   0  0  0  0  0  0  0  0  0  0  0  0
   58.1530   29.6280   47.1740 C   0  0  0  0  0  0  0  0  0  0  0  0
   59.1180   29.8150   48.1680 C   0  0  0  0  0  0  0  0  0  0  0  0
   61.7347   30.4729   50.8049 H   0  0  0  0  0  0  0  0  0  0  0  0
   62.5958   30.1815   49.2556 H   0  0  0  0  0  0  0  0  0  0  0  0
   61.0034   31.0128   49.2556 H   0  0  0  0  0  0  0  0  0  0  0  0
   61.0631   28.3678   51.6282 H   0  0  0  0  0  0  0  0  0  0  0  0
   60.4267   27.1097   50.5151 H   0  0  0  0  0  0  0  0  0  0  0  0
   62.1788   27.5058   50.5151 H   0  0  0  0  0  0  0  0  0  0  0  0
   60.4149   26.6499   48.2728 H   0  0  0  0  0  0  0  0  0  0  0  0
   58.6924   26.3167   46.5062 H   0  0  0  0  0  0  0  0  0  0  0  0
   56.3175   29.7077   42.3110 H   0  0  0  0  0  0  0  0  0  0  0  0
   57.3343   31.6868   41.1893 H   0  0  0  0  0  0  0  0  0  0  0  0
   58.4606   33.4555   42.5372 H   0  0  0  0  0  0  0  0  0  0  0  0
   57.5360   33.8030   46.9530 H   0  0  0  0  0  0  0  0  0  0  0  0
   58.2536   34.3279   49.2750 H   0  0  0  0  0  0  0  0  0  0  0  0
   60.0908   34.4482   50.9501 H   0  0  0  0  0  0  0  0  0  0  0  0
   62.4466   34.0236   50.2682 H   0  0  0  0  0  0  0  0  0  0  0  0
   64.7667   33.8182   46.2981 H   0  0  0  0  0  0  0  0  0  0  0  0
   63.5688   32.5483   45.8752 H   0  0  0  0  0  0  0  0  0  0  0  0
   63.0824   34.2775   45.8752 H   0  0  0  0  0  0  0  0  0  0  0  0
   63.9400   33.2183   49.7876 H   0  0  0  0  0  0  0  0  0  0  0  0
   64.6746   32.0431   48.6448 H   0  0  0  0  0  0  0  0  0  0  0  0
   65.2176   33.7554   48.6448 H   0  0  0  0  0  0  0  0  0  0  0  0
   61.1283   33.2916   46.2060 H   0  0  0  0  0  0  0  0  0  0  0  0
   57.4090   31.3383   46.1672 H   0  0  0  0  0  0  0  0  0  0  0  0
   57.5302   30.4750   46.8504 H   0  0  0  0  0  0  0  0  0  0  0  0
   59.2391   30.8056   48.6307 H   0  0  0  0  0  0  0  0  0  0  0  0
  1  2  1  0
  2  3  1  0
  2  4  1  0
  4  5  2  0
  5  6  1  0
  6  7  2  0
  7  8  1  0
  8  9  2  0
  8 10  1  0
 10 11  1  0
 11 12  2  0
 12 13  1  0
 13 14  2  0
 14 15  1  0
 15 16  1  0
 16 17  2  0
 16 18  1  0
 18 19  1  0
 19 20  2  0
 20 21  1  0
 21 22  2  0
 22 23  1  0
 23 24  1  0
 24 25  1  0
 24 26  1  0
 23 27  2  0
 15 28  2  0
  7 29  1  0
 29 30  2  0
 30  4  1  0
 28 11  1  0
 27 19  1  0
  1 31  1  0
  1 32  1  0
  1 33  1  0
  3 34  1  0
  3 35  1  0
  3 36  1  0
  5 37  1  0
  6 38  1  0
 12 39  1  0
 13 40  1  0
 14 41  1  0
 18 42  1  0
 20 43  1  0
 21 44  1  0
 22 45  1  0
 25 46  1  0
 25 47  1  0
 25 48  1  0
 26 49  1  0
 26 50  1  0
 26 51  1  0
 27 52  1  0
 28 53  1  0
 29 54  1  0
 30 55  1  0
M  CHG  1  10  -1
M  END
>  <UniqueID>  (22) 
20

>  <SMILES>  (22) 
CN(C)c1ccc(C(=O)[N-]c2cccc(C(=O)Nc3cccc(N(C)C)c3)c2)cc1

>  <Energy>  (22) 
69.67333749578627

>  <Genealogy>  (22) 
CN(C)c1ccc(C(=O)[N-]c2cccc(C(=O)Nc3cccc(N(C)C)c3)c2)cc1 (protonated)
CN(C)c1ccc(C(=O)[N-]c2cccc(C(=O)Nc3cccc(N(C)C)c3)c2)cc1 (3D coordinates assigned)
CN(C)c1ccc(C(=O)[N-]c2cccc(C(=O)Nc3cccc(N(C)C)c3)c2)cc1 (optimized conformer: 69.67333749578627 kcal/mol)

>  <smiles>  (22) 
CN(C)c1ccc(C(=O)Nc2cccc(C(=O)Nc3cccc(N(C)C)c3)c2)cc1

>  <score_type>  (22) 
oracle

>  <origin>  (22) 
adg

>  <m_score__min__energy>  (22) 
-10.16

>  <m_primary>  (22) 
energy

$$$$
23:0
     RDKit          3D

 54 56  0  0  0  0  0  0  0  0999 V2000
   53.6550   26.0000   46.3690 H   0  0  0  0  0  0  0  0  0  0  0  0
   54.5170   25.7000   45.8570 N   0  0  0  0  0  0  0  0  0  0  0  0
   55.6570   26.2750   46.0580 C   0  0  0  0  0  0  0  0  0  0  0  0
   55.9050   27.4850   45.4910 N   0  0  0  0  0  0  0  0  0  0  0  0
   57.0900   28.1230   45.6770 C   0  0  0  0  0  0  0  0  0  0  0  0
   57.3400   29.3430   45.1110 N   0  0  0  0  0  0  0  0  0  0  0  0
   56.3150   30.0000   44.2910 C   0  0  0  0  0  0  0  0  0  0  0  0
   55.5712   30.4767   44.9464 H   0  0  0  0  0  0  0  0  0  0  0  0
   56.7875   30.7639   43.6561 H   0  0  0  0  0  0  0  0  0  0  0  0
   55.8182   29.2516   43.6561 H   0  0  0  0  0  0  0  0  0  0  0  0
   58.5340   29.9730   45.3330 C   0  0  0  0  0  0  0  0  0  0  0  0
   58.7123   30.9586   44.8782 H   0  0  0  0  0  0  0  0  0  0  0  0
   59.5400   29.3930   46.1280 C   0  0  0  0  0  0  0  0  0  0  0  0
   60.8190   30.1480   46.3840 C   0  0  0  0  0  0  0  0  0  0  0  0
   61.5954   29.4387   46.7067 H   0  0  0  0  0  0  0  0  0  0  0  0
   61.1164   30.6533   45.4533 H   0  0  0  0  0  0  0  0  0  0  0  0
   60.6360   31.1750   47.4360 N   0  0  0  0  0  0  0  0  0  0  0  0
   59.9170   30.6280   48.6150 C   0  0  0  0  0  0  0  0  0  0  0  0
   59.5839   31.4564   49.2575 H   0  0  0  0  0  0  0  0  0  0  0  0
   59.0438   30.0516   48.2755 H   0  0  0  0  0  0  0  0  0  0  0  0
   60.8370   29.7290   49.3940 C   0  0  0  0  0  0  0  0  0  0  0  0
   61.8878   30.0268   49.5247 H   0  0  0  0  0  0  0  0  0  0  0  0
   60.4190   28.5810   49.9320 C   0  0  0  0  0  0  0  0  0  0  0  0
   61.1218   27.9496   50.4954 H   0  0  0  0  0  0  0  0  0  0  0  0
   59.3718   28.2665   49.8119 H   0  0  0  0  0  0  0  0  0  0  0  0
   61.9420   31.7530   47.8270 C   0  0  0  0  0  0  0  0  0  0  0  0
   62.2807   31.2866   48.7639 H   0  0  0  0  0  0  0  0  0  0  0  0
   62.6743   31.5622   47.0287 H   0  0  0  0  0  0  0  0  0  0  0  0
   61.8060   33.2700   48.0340 C   0  0  0  0  0  0  0  0  0  0  0  0
   62.7852   33.6726   48.3325 H   0  0  0  0  0  0  0  0  0  0  0  0
   61.4575   33.7027   47.0846 H   0  0  0  0  0  0  0  0  0  0  0  0
   60.7740   33.6370   49.1150 C   0  0  0  0  0  0  0  0  0  0  0  0
   60.2907   32.7104   49.4584 H   0  0  0  0  0  0  0  0  0  0  0  0
   61.3258   34.1535   49.9142 H   0  0  0  0  0  0  0  0  0  0  0  0
   59.6760   34.6060   48.6410 C   0  0  0  0  0  0  0  0  0  0  0  0
   58.8612   34.6062   49.3800 H   0  0  0  0  0  0  0  0  0  0  0  0
   60.1278   35.6040   48.5412 H   0  0  0  0  0  0  0  0  0  0  0  0
   59.1120   34.2180   47.2970 C   0  0  0  0  0  0  0  0  0  0  0  0
   59.6380   34.7720   46.1170 C   0  0  0  0  0  0  0  0  0  0  0  0
   60.4846   35.4724   46.1703 H   0  0  0  0  0  0  0  0  0  0  0  0
   59.0890   34.4360   44.8760 C   0  0  0  0  0  0  0  0  0  0  0  0
   59.5038   34.8728   43.9556 H   0  0  0  0  0  0  0  0  0  0  0  0
   58.0140   33.5460   44.8030 C   0  0  0  0  0  0  0  0  0  0  0  0
   57.5840   33.2821   43.8255 H   0  0  0  0  0  0  0  0  0  0  0  0
   57.4850   32.9910   45.9720 C   0  0  0  0  0  0  0  0  0  0  0  0
   56.6392   32.2901   45.9137 H   0  0  0  0  0  0  0  0  0  0  0  0
   58.0300   33.3260   47.2150 C   0  0  0  0  0  0  0  0  0  0  0  0
   57.6097   32.8892   48.1329 H   0  0  0  0  0  0  0  0  0  0  0  0
   59.3300   28.1390   46.7160 C   0  0  0  0  0  0  0  0  0  0  0  0
   60.1163   27.6788   47.3324 H   0  0  0  0  0  0  0  0  0  0  0  0
   58.1190   27.4770   46.5160 C   0  0  0  0  0  0  0  0  0  0  0  0
   57.8110   26.2320   47.0770 C   0  0  0  0  0  0  0  0  0  0  0  0
   58.6420   25.6260   47.8050 O   0  0  0  0  0  0  0  0  0  0  0  0
   56.5980   25.6690   46.8340 N   0  0  0  0  0  0  0  0  0  0  0  0
  1  2  1  0
  2  3  2  0
  3  4  1  0
  4  5  2  0
  5  6  1  0
  6  7  1  0
  7  8  1  0
  7  9  1  0
  7 10  1  0
  6 11  1  0
 11 12  1  0
 11 13  2  0
 13 14  1  0
 14 15  1  0
 14 16  1  0
 14 17  1  0
 17 18  1  0
 18 19  1  0
 18 20  1  0
 18 21  1  0
 21 22  1  0
 21 23  2  0
 23 24  1  0
 23 25  1  0
 17 26  1  0
 26 27  1  0
 26 28  1  0
 26 29  1  0
 29 30  1  0
 29 31  1  0
 29 32  1  0
 32 33  1  0
 32 34  1  0
 32 35  1  0
 35 36  1  0
 35 37  1  0
 35 38  1  0
 38 39  2  0
 39 40  1  0
 39 41  1  0
 41 42  1  0
 41 43  2  0
 43 44  1  0
 43 45  1  0
 45 46  1  0
 45 47  2  0
 47 48  1  0
 13 49  1  0
 49 50  1  0
 49 51  2  0
 51 52  1  0
 52 53  2  0
 52 54  1  0
 54  3  1  0
 51  5  1  0
 47 38  1  0
M  CHG  1  54  -1
M  END
>  <UniqueID>  (23) 
21

>  <SMILES>  (23) 
[H]/N=c1/nc2n(C)cc(CN(CC=C)CCCCc3ccccc3)cc-2c(=O)[n-]1

>  <Energy>  (23) 
54.59200872749124

>  <Genealogy>  (23) 
C=CCN(CCCCc1ccccc1)Cc1cc2c(=O)[n-]c(=N)nc-2n(C)c1 (protonated)
[H]/N=c1/nc2n(C)cc(CN(CC=C)CCCCc3ccccc3)cc-2c(=O)[n-]1 (cis-trans isomerization)
[H]/N=c1/nc2n(C)cc(CN(CC=C)CCCCc3ccccc3)cc-2c(=O)[n-]1 (3D coordinates assigned)
[H]/N=c1/nc2n(C)cc(CN(CC=C)CCCCc3ccccc3)cc-2c(=O)[n-]1 (optimized conformer: 54.59200872749124 kcal/mol)

>  <smiles>  (23) 
C=CCN(CCCCc1ccccc1)Cc1cc2c(=O)[nH]c(=N)nc-2n(C)c1

>  <score_type>  (23) 
oracle

>  <origin>  (23) 
adg

>  <m_score__min__energy>  (23) 
-10.779999999999999

>  <m_primary>  (23) 
energy

$$$$
24:0
     RDKit          3D

 60 64  0  0  1  0  0  0  0  0999 V2000
   57.3610   28.7810   43.1090 N   0  0  0  0  0  0  0  0  0  0  0  0
   58.1250   27.7510   43.7900 C   0  0  0  0  0  0  0  0  0  0  0  0
   58.2880   26.6490   43.2070 O   0  0  0  0  0  0  0  0  0  0  0  0
   58.6310   28.1020   45.0960 C   0  0  0  0  0  0  0  0  0  0  0  0
   59.3310   27.1180   45.7750 C   0  0  0  0  0  0  0  0  0  0  0  0
   59.8400   27.2930   47.0020 N   0  0  0  0  0  0  0  0  0  0  0  0
   58.4710   29.2960   45.7330 C   0  0  0  0  0  0  0  0  0  0  0  0
   57.9700   30.2740   45.1310 N   0  0  0  0  0  0  0  0  0  0  0  0
   61.0350   29.6990   49.0860 C   0  0  0  0  0  0  0  0  0  0  0  0
   61.4730   29.9600   50.3660 C   0  0  0  0  0  0  0  0  0  0  0  0
   62.3460   31.0190   50.5190 C   0  0  0  0  0  0  0  0  0  0  0  0
   62.7850   31.8020   49.4770 C   0  0  0  0  0  0  0  0  0  0  0  0
   63.6520   32.8560   49.6320 C   0  0  0  0  0  0  0  0  0  0  0  0
   64.0710   33.6200   48.5900 N   0  0  0  0  0  0  0  0  0  0  0  0
   63.6160   33.3300   47.3440 C   0  0  0  0  0  0  0  0  0  0  0  0
   62.7430   32.2840   47.1250 C   0  0  0  0  0  0  0  0  0  0  0  0
   62.3430   31.5370   48.1960 C   0  0  0  0  0  0  0  0  0  0  0  0
   61.4660   30.4830   48.0070 C   0  0  0  0  0  0  0  0  0  0  0  0
   58.9740   29.5010   46.9800 N   0  0  0  0  0  0  0  0  0  0  0  0
   59.6420   28.4970   47.5770 C   0  0  0  0  0  0  0  0  0  0  0  0
   60.1350   28.6480   48.7600 N   0  0  0  0  0  0  0  0  0  0  0  0
   58.4920   31.5580   44.9280 C   0  0  2  0  0  0  0  0  0  0  0  0
   57.6390   32.4310   44.0790 C   0  0  0  0  0  0  0  0  0  0  0  0
   57.4640   33.8410   44.4950 C   0  0  0  0  0  0  0  0  0  0  0  0
   58.5700   34.3550   45.3910 C   0  0  0  0  0  0  0  0  0  0  0  0
   58.7630   33.4230   46.5080 N   0  0  0  0  0  0  0  0  0  0  0  0
   59.5750   33.7200   47.6300 C   0  0  0  0  0  0  0  0  0  0  0  0
   60.5790   34.4930   47.4640 O   0  0  0  0  0  0  0  0  0  0  0  0
   59.3310   33.2000   48.9620 C   0  0  0  0  0  0  0  0  0  0  0  0
   59.9760   33.8720   50.0080 C   0  0  0  0  0  0  0  0  0  0  0  0
   59.8400   33.4760   51.3210 C   0  0  0  0  0  0  0  0  0  0  0  0
   59.0350   32.3800   51.5570 C   0  0  0  0  0  0  0  0  0  0  0  0
   58.9030   32.0070   52.7560 O   0  0  0  0  0  0  0  0  0  0  0  0
   58.4220   31.7450   50.5450 N   0  0  0  0  0  0  0  0  0  0  0  0
   58.5410   32.1150   49.2520 C   0  0  0  0  0  0  0  0  0  0  0  0
   58.0910   32.1450   46.3620 C   0  0  0  0  0  0  0  0  0  0  0  0
   56.4120   28.5360   42.7400 H   0  0  0  0  0  0  0  0  0  0  0  0
   57.7860   29.7430   43.0080 H   0  0  0  0  0  0  0  0  0  0  0  0
   59.4761   26.1451   45.2825 H   0  0  0  0  0  0  0  0  0  0  0  0
   60.3670   26.5180   47.4830 H   0  0  0  0  0  0  0  0  0  0  0  0
   61.1436   29.3548   51.2235 H   0  0  0  0  0  0  0  0  0  0  0  0
   62.7107   31.2492   51.5309 H   0  0  0  0  0  0  0  0  0  0  0  0
   64.0220   33.0909   50.6409 H   0  0  0  0  0  0  0  0  0  0  0  0
   63.9499   33.9409   46.4924 H   0  0  0  0  0  0  0  0  0  0  0  0
   62.3781   32.0574   46.1123 H   0  0  0  0  0  0  0  0  0  0  0  0
   61.1015   30.2571   46.9940 H   0  0  0  0  0  0  0  0  0  0  0  0
   58.8390   30.4280   47.4570 H   0  0  0  0  0  0  0  0  0  0  0  0
   59.5155   31.5261   44.5262 H   0  0  0  0  0  0  0  0  0  0  0  0
   58.0787   32.4387   43.0707 H   0  0  0  0  0  0  0  0  0  0  0  0
   56.6328   31.9931   44.1550 H   0  0  0  0  0  0  0  0  0  0  0  0
   57.4302   34.4675   43.5915 H   0  0  0  0  0  0  0  0  0  0  0  0
   56.5316   33.8902   45.0765 H   0  0  0  0  0  0  0  0  0  0  0  0
   59.5030   34.4348   44.8139 H   0  0  0  0  0  0  0  0  0  0  0  0
   58.2965   35.3462   45.7817 H   0  0  0  0  0  0  0  0  0  0  0  0
   60.6092   34.7407   49.7748 H   0  0  0  0  0  0  0  0  0  0  0  0
   60.3476   34.0068   52.1399 H   0  0  0  0  0  0  0  0  0  0  0  0
   57.8270   30.9160   50.8280 H   0  0  0  0  0  0  0  0  0  0  0  0
   58.0207   31.5638   48.4548 H   0  0  0  0  0  0  0  0  0  0  0  0
   58.4162   31.4558   47.1553 H   0  0  0  0  0  0  0  0  0  0  0  0
   57.0007   32.2667   46.4421 H   0  0  0  0  0  0  0  0  0  0  0  0
  1  2  1  0
  2  3  2  0
  2  4  1  0
  4  5  2  0
  5  6  1  0
  6  7  1  0
  7  8  2  0
  8  9  1  0
  9 10  2  0
 10 11  1  0
 11 12  2  0
 12 13  1  0
 13 14  2  0
 14 15  1  0
 15 16  2  0
 16 17  1  0
 17 18  2  0
  7 19  1  0
 19 20  1  0
 20 21  2  0
 21 22  1  0
 22 23  1  0
 23 24  1  0
 24 25  1  0
 25 26  1  0
 26 27  1  0
 27 28  2  0
 27 29  1  0
 29 30  1  0
 30 31  2  0
 31 32  1  0
 32 33  2  0
 32 34  1  0
 34 35  1  0
 26 36  1  0
 20  4  1  0
 36 22  1  0
 18  9  1  0
 35 29  2  0
 17 12  1  0
  1 37  1  0
  1 38  1  0
  5 39  1  0
  6 40  1  0
 10 41  1  0
 11 42  1  0
 13 43  1  0
 15 44  1  0
 16 45  1  0
 18 46  1  0
 19 47  1  0
 22 48  1  6
 23 49  1  0
 23 50  1  0
 24 51  1  0
 24 52  1  0
 25 53  1  0
 25 54  1  0
 30 55  1  0
 31 56  1  0
 34 57  1  0
 35 58  1  0
 36 59  1  0
 36 60  1  0
M  END
>  <smiles>  (24) 
NC(=O)c1c[nH]c(=Nc2ccc3cnccc3c2)[nH]c1=NC1CCCN(C(=O)c2ccc(=O)[nH]c2)C1

>  <score_type>  (24) 
oracle

>  <origin>  (24) 
adg

>  <m_score__min__energy>  (24) 
-12.369999999999999

>  <m_primary>  (24) 
energy

$$$$
25:0
     RDKit          3D

 36 38  0  0  0  0  0  0  0  0999 V2000
   54.1650   28.3610   53.6420 C   0  0  0  0  0  0  0  0  0  0  0  0
   54.6220   29.4650   53.0460 C   0  0  0  0  0  0  0  0  0  0  0  0
   55.8990   29.7680   53.0170 O   0  0  0  0  0  0  0  0  0  0  0  0
   56.0500   30.8990   52.3690 C   0  0  0  0  0  0  0  0  0  0  0  0
   57.3490   31.5410   52.1430 C   0  0  0  0  0  0  0  0  0  0  0  0
   58.2160   31.5550   53.0590 O   0  0  0  0  0  0  0  0  0  0  0  0
   57.6220   32.1530   50.8790 N   0  0  0  0  0  0  0  0  0  0  0  0
   58.6030   31.6410   49.9300 C   0  0  0  0  0  0  0  0  0  0  0  0
   58.8660   32.6570   48.8510 C   0  0  0  0  0  0  0  0  0  0  0  0
   58.1080   32.6380   47.6690 C   0  0  0  0  0  0  0  0  0  0  0  0
   58.3620   33.5640   46.6530 C   0  0  0  0  0  0  0  0  0  0  0  0
   59.3780   34.5130   46.8050 C   0  0  0  0  0  0  0  0  0  0  0  0
   59.6200   35.4310   45.7850 O   0  0  0  0  0  0  0  0  0  0  0  0
   60.1420   34.5330   47.9800 C   0  0  0  0  0  0  0  0  0  0  0  0
   59.8890   33.6080   48.9980 C   0  0  0  0  0  0  0  0  0  0  0  0
   54.8240   31.3750   51.9450 C   0  0  0  0  0  0  0  0  0  0  0  0
   53.8840   30.4490   52.3810 C   0  0  0  0  0  0  0  0  0  0  0  0
   52.5460   30.4760   52.2050 C   0  0  0  0  0  0  0  0  0  0  0  0
   51.8470   30.8360   50.9510 C   0  0  0  0  0  0  0  0  0  0  0  0
   51.7680   30.0790   49.8420 N   0  0  0  0  0  0  0  0  0  0  0  0
   51.0450   30.8380   48.9910 C   0  0  0  0  0  0  0  0  0  0  0  0
   50.7550   30.4610   47.8250 O   0  0  0  0  0  0  0  0  0  0  0  0
   50.6590   32.0330   49.4860 N   0  0  0  0  0  0  0  0  0  0  0  0
   51.1750   32.0150   50.7260 C   0  0  0  0  0  0  0  0  0  0  0  0
   51.0320   33.0570   51.6330 O   0  0  0  0  0  0  0  0  0  0  0  0
   53.0868   28.1433   53.6441 H   0  0  0  0  0  0  0  0  0  0  0  0
   54.8667   27.6692   54.1309 H   0  0  0  0  0  0  0  0  0  0  0  0
   59.5419   31.4237   50.4604 H   0  0  0  0  0  0  0  0  0  0  0  0
   58.2095   30.7231   49.4689 H   0  0  0  0  0  0  0  0  0  0  0  0
   57.3106   31.8910   47.5420 H   0  0  0  0  0  0  0  0  0  0  0  0
   57.7613   33.5462   45.7317 H   0  0  0  0  0  0  0  0  0  0  0  0
   59.4770   35.1900   44.8110 H   0  0  0  0  0  0  0  0  0  0  0  0
   60.9423   35.2778   48.1017 H   0  0  0  0  0  0  0  0  0  0  0  0
   60.4933   33.6254   49.9170 H   0  0  0  0  0  0  0  0  0  0  0  0
   54.6315   32.2980   51.3784 H   0  0  0  0  0  0  0  0  0  0  0  0
   51.9205   30.2070   53.0689 H   0  0  0  0  0  0  0  0  0  0  0  0
  1  2  2  0
  2  3  1  0
  3  4  1  0
  4  5  1  0
  5  6  2  0
  5  7  1  0
  7  8  1  0
  8  9  1  0
  9 10  2  0
 10 11  1  0
 11 12  2  0
 12 13  1  0
 12 14  1  0
 14 15  2  0
  4 16  2  0
 16 17  1  0
 17 18  2  3
 18 19  1  0
 19 20  1  0
 20 21  1  0
 21 22  2  0
 21 23  1  0
 23 24  1  0
 24 25  1  0
 17  2  1  0
 24 19  2  0
 15  9  1  0
  1 26  1  0
  1 27  1  0
  8 28  1  0
  8 29  1  0
 10 30  1  0
 11 31  1  0
 13 32  1  0
 14 33  1  0
 15 34  1  0
 16 35  1  0
 18 36  1  0
M  CHG  4   7  -1  20  -1  23  -1  25  -1
M  END
>  <UniqueID>  (25) 
22

>  <SMILES>  (25) 
C=c1oc(C(=O)[N-]Cc2ccc(O)cc2)cc1=Cc1[n-]c(=O)[n-]c1[O-]

>  <Energy>  (25) 
95.43959228489082

>  <Genealogy>  (25) 
C=c1oc(C(=O)[N-]Cc2ccc(O)cc2)cc1=Cc1[n-]c(=O)[n-]c1[O-] (protonated)
C=c1oc(C(=O)[N-]Cc2ccc(O)cc2)cc1=Cc1[n-]c(=O)[n-]c1[O-] (3D coordinates assigned)
C=c1oc(C(=O)[N-]Cc2ccc(O)cc2)cc1=Cc1[n-]c(=O)[n-]c1[O-] (optimized conformer: 95.43959228489082 kcal/mol)

>  <smiles>  (25) 
C=c1oc(C(=O)NCc2ccc(O)cc2)cc1=Cc1[nH]c(=O)[nH]c1O

>  <score_type>  (25) 
oracle

>  <origin>  (25) 
adg

>  <m_score__min__energy>  (25) 
-16.93

>  <m_primary>  (25) 
energy

$$$$
26:0
     RDKit          3D

 36 38  0  0  0  0  0  0  0  0999 V2000
   58.0960   32.6470   42.2080 C   0  0  0  0  0  0  0  0  0  0  0  0
   58.2230   32.7740   43.5380 C   0  0  0  0  0  0  0  0  0  0  0  0
   58.7020   33.9430   43.9630 O   0  0  0  0  0  0  0  0  0  0  0  0
   58.9210   34.2290   45.2360 C   0  0  0  0  0  0  0  0  0  0  0  0
   58.6440   33.2960   46.2220 C   0  0  0  0  0  0  0  0  0  0  0  0
   58.1200   32.0590   45.8620 C   0  0  0  0  0  0  0  0  0  0  0  0
   57.8090   31.2630   46.7880 O   0  0  0  0  0  0  0  0  0  0  0  0
   57.9050   31.7430   44.4880 C   0  0  0  0  0  0  0  0  0  0  0  0
   57.3850   30.5420   44.0980 C   0  0  0  0  0  0  0  0  0  0  0  0
   57.5500   29.2540   44.8060 C   0  0  0  0  0  0  0  0  0  0  0  0
   58.8360   28.7600   45.0790 C   0  0  0  0  0  0  0  0  0  0  0  0
   58.9980   27.5300   45.7220 C   0  0  0  0  0  0  0  0  0  0  0  0
   60.2810   27.0710   46.0120 O   0  0  0  0  0  0  0  0  0  0  0  0
   57.8740   26.7690   46.0620 C   0  0  0  0  0  0  0  0  0  0  0  0
   56.5880   27.2200   45.7410 C   0  0  0  0  0  0  0  0  0  0  0  0
   55.4620   26.4060   46.0970 N   0  0  0  0  0  0  0  0  0  0  0  0
   55.3070   25.0200   45.7680 C   0  0  0  0  0  0  0  0  0  0  0  0
   54.2000   24.4650   46.0050 O   0  0  0  0  0  0  0  0  0  0  0  0
   56.4610   24.2250   45.2040 C   0  0  0  0  0  0  0  0  0  0  0  0
   56.7270   24.4580   43.7250 C   0  0  0  0  0  0  0  0  0  0  0  0
   56.1210   23.1430   44.1850 C   0  0  0  0  0  0  0  0  0  0  0  0
   56.4240   28.4800   45.1330 C   0  0  0  0  0  0  0  0  0  0  0  0
   55.1480   28.9790   44.8910 O   0  0  0  0  0  0  0  0  0  0  0  0
   57.7075   31.7114   41.7794 H   0  0  0  0  0  0  0  0  0  0  0  0
   58.3804   33.4785   41.5464 H   0  0  0  0  0  0  0  0  0  0  0  0
   59.3255   35.2136   45.5133 H   0  0  0  0  0  0  0  0  0  0  0  0
   58.8366   33.5312   47.2791 H   0  0  0  0  0  0  0  0  0  0  0  0
   56.7893   30.5316   43.1733 H   0  0  0  0  0  0  0  0  0  0  0  0
   59.7204   29.3444   44.7851 H   0  0  0  0  0  0  0  0  0  0  0  0
   60.4850   26.0820   46.0860 H   0  0  0  0  0  0  0  0  0  0  0  0
   58.0017   25.8098   46.5851 H   0  0  0  0  0  0  0  0  0  0  0  0
   57.0542   24.2470   46.1300 H   0  0  0  0  0  0  0  0  0  0  0  0
   56.1144   25.1786   43.1634 H   0  0  0  0  0  0  0  0  0  0  0  0
   57.6074   24.7412   43.1295 H   0  0  0  0  0  0  0  0  0  0  0  0
   55.0698   22.9123   43.9576 H   0  0  0  0  0  0  0  0  0  0  0  0
   56.3805   22.0812   44.0615 H   0  0  0  0  0  0  0  0  0  0  0  0
  1  2  2  0
  2  3  1  0
  3  4  1  0
  4  5  2  0
  5  6  1  0
  6  7  2  0
  6  8  1  0
  8  9  2  3
  9 10  1  0
 10 11  2  0
 11 12  1  0
 12 13  1  0
 12 14  2  0
 14 15  1  0
 15 16  1  0
 16 17  1  0
 17 18  2  0
 17 19  1  0
 19 20  1  0
 20 21  1  0
 15 22  2  0
 22 23  1  0
  8  2  1  0
 22 10  1  0
 21 19  1  0
  1 24  1  0
  1 25  1  0
  4 26  1  0
  5 27  1  0
  9 28  1  0
 11 29  1  0
 13 30  1  0
 14 31  1  0
 19 32  1  0
 20 33  1  0
 20 34  1  0
 21 35  1  0
 21 36  1  0
M  CHG  2  16  -1  23  -1
M  END
>  <UniqueID>  (26) 
23

>  <SMILES>  (26) 
C=c1occc(=O)c1=Cc1cc(O)cc([N-]C(=O)C2CC2)c1[O-]

>  <Energy>  (26) 
330.28612182083367

>  <Genealogy>  (26) 
C=c1occc(=O)c1=Cc1cc(O)cc([N-]C(=O)C2CC2)c1[O-] (protonated)
C=c1occc(=O)c1=Cc1cc(O)cc([N-]C(=O)C2CC2)c1[O-] (3D coordinates assigned)
C=c1occc(=O)c1=Cc1cc(O)cc([N-]C(=O)C2CC2)c1[O-] (nonaromatic ring conformer: 330.28612182083367 kcal/mol)

>  <smiles>  (26) 
C=c1occc(=O)c1=Cc1cc(O)cc(NC(=O)C2CC2)c1O

>  <score_type>  (26) 
oracle

>  <origin>  (26) 
adg

>  <m_score__min__energy>  (26) 
-13.24

>  <m_primary>  (26) 
energy

$$$$
27:0
     RDKit          3D

 65 68  0  0  0  0  0  0  0  0999 V2000
   56.4220   29.2720   52.4510 C   0  0  0  0  0  0  0  0  0  0  0  0
   57.3090   30.0690   51.6770 O   0  0  0  0  0  0  0  0  0  0  0  0
   57.9110   31.2590   52.1120 C   0  0  0  0  0  0  0  0  0  0  0  0
   57.1580   32.4430   52.2330 C   0  0  0  0  0  0  0  0  0  0  0  0
   57.7570   33.6280   52.6470 C   0  0  0  0  0  0  0  0  0  0  0  0
   59.1160   33.6590   52.9440 C   0  0  0  0  0  0  0  0  0  0  0  0
   59.8930   32.4970   52.8450 C   0  0  0  0  0  0  0  0  0  0  0  0
   61.3750   32.5910   53.1390 C   0  0  0  0  0  0  0  0  0  0  0  0
   62.1330   33.0610   51.9600 N   0  0  0  0  0  0  0  0  0  0  0  0
   63.1490   32.0660   51.5330 C   0  0  0  0  0  0  0  0  0  0  0  0
   63.5360   32.2680   50.0620 C   0  0  0  0  0  0  0  0  0  0  0  0
   62.3820   32.0230   49.1720 N   0  0  0  0  0  0  0  0  0  0  0  0
   62.6210   32.8350   47.6420 S   0  0  0  0  0  0  0  0  0  0  0  0
   63.3080   34.1560   47.8580 O   0  0  0  0  0  0  0  0  0  0  0  0
   63.4840   31.9910   46.7460 O   0  0  0  0  0  0  0  0  0  0  0  0
   61.0650   33.0900   46.8530 C   0  0  0  0  0  0  0  0  0  0  0  0
   60.6310   34.3860   46.5450 C   0  0  0  0  0  0  0  0  0  0  0  0
   59.3780   34.5860   45.9620 C   0  0  0  0  0  0  0  0  0  0  0  0
   58.5580   33.4940   45.6690 C   0  0  0  0  0  0  0  0  0  0  0  0
   58.9910   32.1860   45.9420 C   0  0  0  0  0  0  0  0  0  0  0  0
   58.1260   31.0210   45.6350 C   0  0  0  0  0  0  0  0  0  0  0  0
   57.0390   31.2080   45.0260 O   0  0  0  0  0  0  0  0  0  0  0  0
   58.4890   29.6840   46.0240 N   0  0  0  0  0  0  0  0  0  0  0  0
   59.1070   29.4120   47.3260 C   0  0  0  0  0  0  0  0  0  0  0  0
   58.5860   28.0790   47.8720 C   0  0  0  0  0  0  0  0  0  0  0  0
   58.7510   27.0490   46.9160 O   0  0  0  0  0  0  0  0  0  0  0  0
   57.9280   27.3050   45.7930 C   0  0  0  0  0  0  0  0  0  0  0  0
   58.3680   28.5810   45.0660 C   0  0  0  0  0  0  0  0  0  0  0  0
   60.2420   31.9950   46.5550 C   0  0  0  0  0  0  0  0  0  0  0  0
   61.0780   32.3860   49.7780 C   0  0  0  0  0  0  0  0  0  0  0  0
   61.2170   33.4710   50.8620 C   0  0  0  0  0  0  0  0  0  0  0  0
   59.2960   31.2810   52.4330 C   0  0  0  0  0  0  0  0  0  0  0  0
   60.1230   30.1430   52.3560 O   0  0  0  0  0  0  0  0  0  0  0  0
   60.3370   29.3180   51.2170 C   0  0  0  0  0  0  0  0  0  0  0  0
   56.6132   29.4438   53.5205 H   0  0  0  0  0  0  0  0  0  0  0  0
   55.3829   29.5458   52.2157 H   0  0  0  0  0  0  0  0  0  0  0  0
   56.5835   28.2097   52.2157 H   0  0  0  0  0  0  0  0  0  0  0  0
   56.0836   32.4304   51.9973 H   0  0  0  0  0  0  0  0  0  0  0  0
   57.1545   34.5436   52.7399 H   0  0  0  0  0  0  0  0  0  0  0  0
   59.5842   34.6032   53.2590 H   0  0  0  0  0  0  0  0  0  0  0  0
   61.5307   33.2965   53.9684 H   0  0  0  0  0  0  0  0  0  0  0  0
   61.7382   31.5873   53.4049 H   0  0  0  0  0  0  0  0  0  0  0  0
   64.0465   32.1776   52.1592 H   0  0  0  0  0  0  0  0  0  0  0  0
   62.7211   31.0590   51.6465 H   0  0  0  0  0  0  0  0  0  0  0  0
   63.8861   33.3012   49.9208 H   0  0  0  0  0  0  0  0  0  0  0  0
   64.3324   31.5530   49.8079 H   0  0  0  0  0  0  0  0  0  0  0  0
   61.2787   35.2479   46.7629 H   0  0  0  0  0  0  0  0  0  0  0  0
   59.0359   35.6061   45.7330 H   0  0  0  0  0  0  0  0  0  0  0  0
   57.5668   33.6594   45.2216 H   0  0  0  0  0  0  0  0  0  0  0  0
   60.1994   29.3581   47.2089 H   0  0  0  0  0  0  0  0  0  0  0  0
   58.8521   30.2197   48.0279 H   0  0  0  0  0  0  0  0  0  0  0  0
   59.1445   27.8189   48.7833 H   0  0  0  0  0  0  0  0  0  0  0  0
   57.5146   28.1837   48.0982 H   0  0  0  0  0  0  0  0  0  0  0  0
   57.9936   26.4548   45.0981 H   0  0  0  0  0  0  0  0  0  0  0  0
   56.8935   27.4404   46.1415 H   0  0  0  0  0  0  0  0  0  0  0  0
   59.3413   28.4087   44.5832 H   0  0  0  0  0  0  0  0  0  0  0  0
   57.6171   28.8421   44.3057 H   0  0  0  0  0  0  0  0  0  0  0  0
   60.5778   30.9773   46.8029 H   0  0  0  0  0  0  0  0  0  0  0  0
   60.4125   32.7606   48.9863 H   0  0  0  0  0  0  0  0  0  0  0  0
   60.6674   31.4844   50.2561 H   0  0  0  0  0  0  0  0  0  0  0  0
   61.6107   34.3868   50.3969 H   0  0  0  0  0  0  0  0  0  0  0  0
   60.2217   33.6373   51.2998 H   0  0  0  0  0  0  0  0  0  0  0  0
   60.6006   28.3016   51.5448 H   0  0  0  0  0  0  0  0  0  0  0  0
   59.4185   29.2817   50.6128 H   0  0  0  0  0  0  0  0  0  0  0  0
   61.1573   29.7327   50.6128 H   0  0  0  0  0  0  0  0  0  0  0  0
  1  2  1  0
  2  3  1  0
  3  4  2  0
  4  5  1  0
  5  6  2  0
  6  7  1  0
  7  8  1  0
  8  9  1  0
  9 10  1  0
 10 11  1  0
 11 12  1  0
 12 13  1  0
 13 14  2  0
 13 15  2  0
 13 16  1  0
 16 17  2  0
 17 18  1  0
 18 19  2  0
 19 20  1  0
 20 21  1  0
 21 22  2  0
 21 23  1  0
 23 24  1  0
 24 25  1  0
 25 26  1  0
 26 27  1  0
 27 28  1  0
 20 29  2  0
 12 30  1  0
 30 31  1  0
  7 32  2  0
 32 33  1  0
 33 34  1  0
 32  3  1  0
 31  9  1  0
 29 16  1  0
 28 23  1  0
  1 35  1  0
  1 36  1  0
  1 37  1  0
  4 38  1  0
  5 39  1  0
  6 40  1  0
  8 41  1  0
  8 42  1  0
 10 43  1  0
 10 44  1  0
 11 45  1  0
 11 46  1  0
 17 47  1  0
 18 48  1  0
 19 49  1  0
 24 50  1  0
 24 51  1  0
 25 52  1  0
 25 53  1  0
 27 54  1  0
 27 55  1  0
 28 56  1  0
 28 57  1  0
 29 58  1  0
 30 59  1  0
 30 60  1  0
 31 61  1  0
 31 62  1  0
 34 63  1  0
 34 64  1  0
 34 65  1  0
M  END
>  <UniqueID>  (27) 
24

>  <SMILES>  (27) 
COc1cccc(CN2CCN(S(=O)(=O)c3cccc(C(=O)N4CCOCC4)c3)CC2)c1OC

>  <Energy>  (27) 
88.68171225697395

>  <Genealogy>  (27) 
COc1cccc(CN2CCN(S(=O)(=O)c3cccc(C(=O)N4CCOCC4)c3)CC2)c1OC (3D coordinates assigned)
COc1cccc(CN2CCN(S(=O)(=O)c3cccc(C(=O)N4CCOCC4)c3)CC2)c1OC (nonaromatic ring conformer: 88.68171225697395 kcal/mol)

>  <smiles>  (27) 
COc1cccc(CN2CCN(S(=O)(=O)c3cccc(C(=O)N4CCOCC4)c3)CC2)c1OC

>  <score_type>  (27) 
oracle

>  <origin>  (27) 
adg

>  <m_score__min__energy>  (27) 
-10.279999999999999

>  <m_primary>  (27) 
energy

$$$$
28:0
     RDKit          3D

 39 41  0  0  0  0  0  0  0  0999 V2000
   56.3286   33.7734   45.7307 H   0  0  0  0  0  0  0  0  0  0  0  0
   57.3970   33.8150   45.9890 C   0  0  0  0  0  0  0  0  0  0  0  0
   57.8390   34.1850   47.2200 N   0  0  0  0  0  0  0  0  0  0  0  0
   59.1870   34.1610   47.3000 C   0  0  0  0  0  0  0  0  0  0  0  0
   59.8160   34.4300   48.4080 N   0  0  0  0  0  0  0  0  0  0  0  0
   60.3820   33.4810   49.3260 C   0  0  0  0  0  0  0  0  0  0  0  0
   61.1290   33.9070   50.2460 O   0  0  0  0  0  0  0  0  0  0  0  0
   60.1930   32.0200   49.1670 C   0  0  0  0  0  0  0  0  0  0  0  0
   59.1220   31.3900   49.8250 C   0  0  0  0  0  0  0  0  0  0  0  0
   58.4412   31.9842   50.4523 H   0  0  0  0  0  0  0  0  0  0  0  0
   58.9160   30.0150   49.6880 C   0  0  0  0  0  0  0  0  0  0  0  0
   58.0776   29.5303   50.2096 H   0  0  0  0  0  0  0  0  0  0  0  0
   59.7730   29.2560   48.8900 C   0  0  0  0  0  0  0  0  0  0  0  0
   59.6096   28.1734   48.7837 H   0  0  0  0  0  0  0  0  0  0  0  0
   60.8380   29.8690   48.2260 C   0  0  0  0  0  0  0  0  0  0  0  0
   61.5101   29.2664   47.5973 H   0  0  0  0  0  0  0  0  0  0  0  0
   61.0550   31.2460   48.3560 C   0  0  0  0  0  0  0  0  0  0  0  0
   62.4470   31.9510   47.5400 Cl  0  0  0  0  0  0  0  0  0  0  0  0
   59.8900   33.6600   45.8480 S   0  0  0  0  0  0  0  0  0  0  0  0
   58.4010   33.4930   45.0810 C   0  0  0  0  0  0  0  0  0  0  0  0
   58.2030   33.0050   43.6810 C   0  0  0  0  0  0  0  0  0  0  0  0
   59.1636   33.0338   43.1459 H   0  0  0  0  0  0  0  0  0  0  0  0
   57.4733   33.6524   43.1727 H   0  0  0  0  0  0  0  0  0  0  0  0
   57.6840   31.5940   43.6970 C   0  0  0  0  0  0  0  0  0  0  0  0
   57.0220   31.0680   42.5770 C   0  0  0  0  0  0  0  0  0  0  0  0
   56.9076   31.6801   41.6702 H   0  0  0  0  0  0  0  0  0  0  0  0
   56.5080   29.7700   42.6100 C   0  0  0  0  0  0  0  0  0  0  0  0
   56.0082   29.3550   41.7223 H   0  0  0  0  0  0  0  0  0  0  0  0
   56.6270   28.9970   43.7680 C   0  0  0  0  0  0  0  0  0  0  0  0
   56.2315   27.9707   43.7839 H   0  0  0  0  0  0  0  0  0  0  0  0
   57.2470   29.5220   44.9080 C   0  0  0  0  0  0  0  0  0  0  0  0
   57.3600   28.7010   46.0790 N   0  0  0  0  0  0  0  0  0  0  0  0
   57.4520   27.2700   46.1030 C   0  0  0  0  0  0  0  0  0  0  0  0
   58.5470   26.7260   45.8020 O   0  0  0  0  0  0  0  0  0  0  0  0
   56.2900   26.4160   46.3990 C   0  0  0  0  0  0  0  0  0  0  0  0
   55.1470   26.7090   45.9590 O   0  0  0  0  0  0  0  0  0  0  0  0
   56.4570   25.2520   47.1390 O   0  0  0  0  0  0  0  0  0  0  0  0
   57.7970   30.8140   44.8610 C   0  0  0  0  0  0  0  0  0  0  0  0
   58.3194   31.2178   45.7408 H   0  0  0  0  0  0  0  0  0  0  0  0
  1  2  1  0
  2  3  1  0
  3  4  1  0
  4  5  2  0
  5  6  1  0
  6  7  2  0
  6  8  1  0
  8  9  2  0
  9 10  1  0
  9 11  1  0
 11 12  1  0
 11 13  2  0
 13 14  1  0
 13 15  1  0
 15 16  1  0
 15 17  2  0
 17 18  1  0
  4 19  1  0
 19 20  1  0
 20 21  1  0
 21 22  1  0
 21 23  1  0
 21 24  1  0
 24 25  2  0
 25 26  1  0
 25 27  1  0
 27 28  1  0
 27 29  2  0
 29 30  1  0
 29 31  1  0
 31 32  1  0
 32 33  1  0
 33 34  2  0
 33 35  1  0
 35 36  2  0
 35 37  1  0
 31 38  2  0
 38 39  1  0
 20  2  2  0
 38 24  1  0
 17  8  1  0
M  CHG  3   3  -1  32  -1  37  -1
M  END
>  <UniqueID>  (28) 
25

>  <SMILES>  (28) 
O=C([O-])C(=O)[N-]c1cccc(Cc2c[n-]/c(=N/C(=O)c3ccccc3Cl)s2)c1

>  <Energy>  (28) 
83.68599740719088

>  <Genealogy>  (28) 
O=C([O-])C(=O)[N-]c1cccc(Cc2c[n-]c(=NC(=O)c3ccccc3Cl)s2)c1 (protonated)
O=C([O-])C(=O)[N-]c1cccc(Cc2c[n-]/c(=N/C(=O)c3ccccc3Cl)s2)c1 (cis-trans isomerization)
O=C([O-])C(=O)[N-]c1cccc(Cc2c[n-]/c(=N/C(=O)c3ccccc3Cl)s2)c1 (3D coordinates assigned)
O=C([O-])C(=O)[N-]c1cccc(Cc2c[n-]/c(=N/C(=O)c3ccccc3Cl)s2)c1 (optimized conformer: 83.68599740719088 kcal/mol)

>  <smiles>  (28) 
O=C(O)C(=O)Nc1cccc(Cc2c[nH]c(=NC(=O)c3ccccc3Cl)s2)c1

>  <score_type>  (28) 
oracle

>  <origin>  (28) 
adg

>  <m_score__min__energy>  (28) 
-14.66

>  <m_primary>  (28) 
energy

$$$$
29:0
     RDKit          3D

 48 51  0  0  1  0  0  0  0  0999 V2000
   57.8390   26.4530   44.4550 C   0  0  0  0  0  0  0  0  0  0  0  0
   57.0300   27.1100   45.2700 C   0  0  0  0  0  0  0  0  0  0  0  0
   57.0400   28.5820   45.2850 C   0  0  0  0  0  0  0  0  0  0  0  0
   55.9310   29.1740   45.2190 O   0  0  0  0  0  0  0  0  0  0  0  0
   58.2860   29.2610   45.3720 N   0  0  0  0  0  0  0  0  0  0  0  0
   58.3920   30.6800   45.3920 C   0  0  0  0  0  0  0  0  0  0  0  0
   58.9020   31.3100   46.5080 C   0  0  0  0  0  0  0  0  0  0  0  0
   59.0230   32.6830   46.5740 C   0  0  0  0  0  0  0  0  0  0  0  0
   59.5410   33.2710   47.7160 C   0  0  0  0  0  0  0  0  0  0  0  0
   59.8900   32.4840   48.6800 N   0  0  0  0  0  0  0  0  0  0  0  0
   59.1980   32.4960   49.9230 C   0  0  0  0  0  0  0  0  0  0  0  0
   58.1630   31.6260   50.1820 C   0  0  0  0  0  0  0  0  0  0  0  0
   57.5120   31.6620   51.3950 C   0  0  0  0  0  0  0  0  0  0  0  0
   56.4070   30.7720   51.7400 C   0  0  0  0  0  0  0  0  0  0  0  0
   56.6180   29.5380   51.9990 O   0  0  0  0  0  0  0  0  0  0  0  0
   55.0700   31.2040   51.8080 N   0  0  0  0  0  0  0  0  0  0  0  0
   53.9620   30.3230   52.1520 C   0  0  0  0  0  0  0  0  0  0  0  0
   52.6420   30.8270   52.5330 C   0  0  0  0  0  0  0  0  0  0  0  0
   52.8520   30.1050   51.1940 C   0  0  0  0  0  0  0  0  0  0  0  0
   57.9320   32.5900   52.3260 C   0  0  0  0  0  0  0  0  0  0  0  0
   58.9650   33.4760   52.0980 C   0  0  0  0  0  0  0  0  0  0  0  0
   59.6000   33.4200   50.8780 C   0  0  0  0  0  0  0  0  0  0  0  0
   60.6160   34.2960   50.6630 F   0  0  0  0  0  0  0  0  0  0  0  0
   59.6720   34.6020   47.8100 N   0  0  0  0  0  0  0  0  0  0  0  0
   59.2830   35.3410   46.7580 C   0  0  0  0  0  0  0  0  0  0  0  0
   58.7740   34.8200   45.6270 N   0  0  0  0  0  0  0  0  0  0  0  0
   58.6370   33.4900   45.5180 C   0  0  0  0  0  0  0  0  0  0  0  0
   58.1240   32.8670   44.3920 C   0  0  0  0  0  0  0  0  0  0  0  0
   58.0050   31.4810   44.3350 C   0  0  0  0  0  0  0  0  0  0  0  0
   57.4790   30.8790   43.1780 O   0  0  0  0  0  0  0  0  0  0  0  0
   57.8327   25.3531   44.4426 H   0  0  0  0  0  0  0  0  0  0  0  0
   58.5179   27.0067   43.7898 H   0  0  0  0  0  0  0  0  0  0  0  0
   56.3508   26.5571   45.9355 H   0  0  0  0  0  0  0  0  0  0  0  0
   59.1820   28.7080   45.4250 H   0  0  0  0  0  0  0  0  0  0  0  0
   59.2205   30.7022   47.3677 H   0  0  0  0  0  0  0  0  0  0  0  0
   57.8546   30.8987   49.4165 H   0  0  0  0  0  0  0  0  0  0  0  0
   54.8160   32.1980   51.6110 H   0  0  0  0  0  0  0  0  0  0  0  0
   54.6873   29.6695   52.6588 H   0  0  0  0  0  0  0  0  0  0  0  0
   52.0766   30.3392   53.3407 H   0  0  0  0  0  0  0  0  0  0  0  0
   52.2355   31.8015   52.8413 H   0  0  0  0  0  0  0  0  0  0  0  0
   52.4438   29.0957   51.0371 H   0  0  0  0  0  0  0  0  0  0  0  0
   52.6665   30.3363   50.1347 H   0  0  0  0  0  0  0  0  0  0  0  0
   57.4179   32.6252   53.2979 H   0  0  0  0  0  0  0  0  0  0  0  0
   59.2707   34.2025   52.8653 H   0  0  0  0  0  0  0  0  0  0  0  0
   60.0640   35.0170   48.6810 H   0  0  0  0  0  0  0  0  0  0  0  0
   59.3865   36.4341   46.8251 H   0  0  0  0  0  0  0  0  0  0  0  0
   57.8067   33.4751   43.5320 H   0  0  0  0  0  0  0  0  0  0  0  0
   58.0440   30.1470   42.7310 H   0  0  0  0  0  0  0  0  0  0  0  0
  1  2  2  0
  2  3  1  0
  3  4  2  0
  3  5  1  0
  5  6  1  0
  6  7  2  0
  7  8  1  0
  8  9  1  0
  9 10  2  0
 10 11  1  0
 11 12  2  0
 12 13  1  0
 13 14  1  0
 14 15  2  0
 14 16  1  0
 16 17  1  0
 17 18  1  0
 18 19  1  0
 13 20  2  0
 20 21  1  0
 21 22  2  0
 22 23  1  0
  9 24  1  0
 24 25  1  0
 25 26  2  0
 26 27  1  0
 27 28  1  0
 28 29  2  0
 29 30  1  0
 29  6  1  0
 27  8  2  0
 22 11  1  0
 19 17  1  0
  1 31  1  0
  1 32  1  0
  2 33  1  0
  5 34  1  0
  7 35  1  0
 12 36  1  0
 16 37  1  0
 17 38  1  0
 18 39  1  0
 18 40  1  0
 19 41  1  0
 19 42  1  0
 20 43  1  0
 21 44  1  0
 24 45  1  0
 25 46  1  0
 28 47  1  0
 30 48  1  0
M  END
>  <smiles>  (29) 
C=CC(=O)Nc1cc2c(=Nc3cc(C(=O)NC4CC4)ccc3F)[nH]cnc2cc1O

>  <score_type>  (29) 
oracle

>  <origin>  (29) 
adg

>  <m_score__min__energy>  (29) 
-8.5399999999999991

>  <m_primary>  (29) 
energy

$$$$
30:0
     RDKit          3D

 39 41  0  0  0  0  0  0  0  0999 V2000
   57.4480   25.5890   46.7530 C   0  0  0  0  0  0  0  0  0  0  0  0
   57.5140   26.8780   46.3610 C   0  0  0  0  0  0  0  0  0  0  0  0
   58.7540   27.5950   46.3120 C   0  0  0  0  0  0  0  0  0  0  0  0
   59.8940   27.2470   46.9630 C   0  0  0  0  0  0  0  0  0  0  0  0
   60.1610   27.4080   48.4050 C   0  0  0  0  0  0  0  0  0  0  0  0
   60.7340   26.4560   49.1620 N   0  0  0  0  0  0  0  0  0  0  0  0
   60.8770   27.0540   50.3640 C   0  0  0  0  0  0  0  0  0  0  0  0
   61.3730   26.4660   51.3590 O   0  0  0  0  0  0  0  0  0  0  0  0
   60.4560   28.3360   50.4120 N   0  0  0  0  0  0  0  0  0  0  0  0
   60.0190   28.5510   49.1610 C   0  0  0  0  0  0  0  0  0  0  0  0
   59.5280   29.7730   48.7110 O   0  0  0  0  0  0  0  0  0  0  0  0
   58.7960   28.7710   45.5450 C   0  0  0  0  0  0  0  0  0  0  0  0
   57.6370   29.3240   45.0010 C   0  0  0  0  0  0  0  0  0  0  0  0
   57.7280   30.5920   44.1800 C   0  0  0  0  0  0  0  0  0  0  0  0
   56.9670   31.7500   44.8380 C   0  0  0  0  0  0  0  0  0  0  0  0
   57.9040   32.7570   45.4570 C   0  0  0  0  0  0  0  0  0  0  0  0
   58.4450   33.7950   44.6790 C   0  0  0  0  0  0  0  0  0  0  0  0
   59.2730   34.7560   45.2670 C   0  0  0  0  0  0  0  0  0  0  0  0
   59.5640   34.6900   46.6320 C   0  0  0  0  0  0  0  0  0  0  0  0
   59.0240   33.6640   47.4130 C   0  0  0  0  0  0  0  0  0  0  0  0
   58.1930   32.7020   46.8310 C   0  0  0  0  0  0  0  0  0  0  0  0
   56.4170   28.6640   45.2040 C   0  0  0  0  0  0  0  0  0  0  0  0
   55.3480   29.1590   44.7480 O   0  0  0  0  0  0  0  0  0  0  0  0
   56.3760   27.4760   45.8700 N   0  0  0  0  0  0  0  0  0  0  0  0
   55.1510   26.8510   45.9940 O   0  0  0  0  0  0  0  0  0  0  0  0
   56.4781   25.0707   46.7781 H   0  0  0  0  0  0  0  0  0  0  0  0
   58.3641   25.0561   47.0476 H   0  0  0  0  0  0  0  0  0  0  0  0
   60.6962   26.8018   46.3561 H   0  0  0  0  0  0  0  0  0  0  0  0
   59.5140   30.5800   49.3220 H   0  0  0  0  0  0  0  0  0  0  0  0
   59.7627   29.2658   45.3699 H   0  0  0  0  0  0  0  0  0  0  0  0
   58.7861   30.8742   44.0761 H   0  0  0  0  0  0  0  0  0  0  0  0
   57.2735   30.3975   43.1974 H   0  0  0  0  0  0  0  0  0  0  0  0
   56.3566   32.2542   44.0744 H   0  0  0  0  0  0  0  0  0  0  0  0
   56.3363   31.3338   45.6374 H   0  0  0  0  0  0  0  0  0  0  0  0
   58.2163   33.8515   43.6045 H   0  0  0  0  0  0  0  0  0  0  0  0
   59.6961   35.5654   44.6539 H   0  0  0  0  0  0  0  0  0  0  0  0
   60.2180   35.4454   47.0921 H   0  0  0  0  0  0  0  0  0  0  0  0
   59.2534   33.6134   48.4876 H   0  0  0  0  0  0  0  0  0  0  0  0
   57.7644   31.9002   47.4502 H   0  0  0  0  0  0  0  0  0  0  0  0
  1  2  2  0
  2  3  1  0
  3  4  2  3
  4  5  1  0
  5  6  1  0
  6  7  1  0
  7  8  2  0
  7  9  1  0
  9 10  1  0
 10 11  1  0
  3 12  1  0
 12 13  2  0
 13 14  1  0
 14 15  1  0
 15 16  1  0
 16 17  2  0
 17 18  1  0
 18 19  2  0
 19 20  1  0
 20 21  2  0
 13 22  1  0
 22 23  2  0
 22 24  1  0
 24 25  1  0
 24  2  1  0
 10  5  2  0
 21 16  1  0
  1 26  1  0
  1 27  1  0
  4 28  1  0
 11 29  1  0
 12 30  1  0
 14 31  1  0
 14 32  1  0
 15 33  1  0
 15 34  1  0
 17 35  1  0
 18 36  1  0
 19 37  1  0
 20 38  1  0
 21 39  1  0
M  CHG  3   6  -1   9  -1  25  -1
M  END
>  <UniqueID>  (30) 
26

>  <SMILES>  (30) 
C=c1c(=Cc2[n-]c(=O)[n-]c2O)cc(CCc2ccccc2)c(=O)n1[O-]

>  <Energy>  (30) 
91.45677842955898

>  <Genealogy>  (30) 
C=c1c(=Cc2[n-]c(=O)[n-]c2O)cc(CCc2ccccc2)c(=O)n1[O-] (protonated)
C=c1c(=Cc2[n-]c(=O)[n-]c2O)cc(CCc2ccccc2)c(=O)n1[O-] (3D coordinates assigned)
C=c1c(=Cc2[n-]c(=O)[n-]c2O)cc(CCc2ccccc2)c(=O)n1[O-] (optimized conformer: 91.45677842955898 kcal/mol)

>  <smiles>  (30) 
C=c1c(=Cc2[nH]c(=O)[nH]c2O)cc(CCc2ccccc2)c(=O)n1O

>  <score_type>  (30) 
oracle

>  <origin>  (30) 
adg

>  <m_score__min__energy>  (30) 
-13.699999999999999

>  <m_primary>  (30) 
energy

$$$$
31:0
     RDKit          3D

 74 78  0  0  0  0  0  0  0  0999 V2000
   64.0990   33.3890   47.8740 C   0  0  0  0  0  0  0  0  0  0  0  0
   63.2370   32.1970   47.8120 N   0  0  0  0  0  0  0  0  0  0  0  0
   61.9750   32.5100   47.1270 C   0  0  0  0  0  0  0  0  0  0  0  0
   61.2630   31.2020   46.7940 C   0  0  0  0  0  0  0  0  0  0  0  0
   61.2980   30.2670   47.9290 N   0  0  0  0  0  0  0  0  0  0  0  0
   60.5920   29.0110   47.8150 C   0  0  0  0  0  0  0  0  0  0  0  0
   60.7270   28.0220   48.8070 C   0  0  0  0  0  0  0  0  0  0  0  0
   60.0290   26.8180   48.7060 C   0  0  0  0  0  0  0  0  0  0  0  0
   59.1840   26.5760   47.6160 C   0  0  0  0  0  0  0  0  0  0  0  0
   58.4510   25.3910   47.5610 O   0  0  0  0  0  0  0  0  0  0  0  0
   59.0620   27.5460   46.5990 C   0  0  0  0  0  0  0  0  0  0  0  0
   58.2070   27.3530   45.4600 N   0  0  0  0  0  0  0  0  0  0  0  0
   57.0530   28.1360   45.1290 C   0  0  0  0  0  0  0  0  0  0  0  0
   55.9360   27.7930   45.5990 O   0  0  0  0  0  0  0  0  0  0  0  0
   57.1490   29.3600   44.2990 C   0  0  0  0  0  0  0  0  0  0  0  0
   56.5220   29.4270   43.0430 C   0  0  0  0  0  0  0  0  0  0  0  0
   56.6480   30.5700   42.2520 C   0  0  0  0  0  0  0  0  0  0  0  0
   57.4070   31.6540   42.6990 C   0  0  0  0  0  0  0  0  0  0  0  0
   58.0480   31.6000   43.9460 C   0  0  0  0  0  0  0  0  0  0  0  0
   58.8110   32.7020   44.4470 N   0  0  0  0  0  0  0  0  0  0  0  0
   58.1550   33.9760   45.4240 S   0  0  0  0  0  0  0  0  0  0  0  0
   56.6540   33.8770   45.4100 O   0  0  0  0  0  0  0  0  0  0  0  0
   58.5390   35.3270   44.8890 O   0  0  0  0  0  0  0  0  0  0  0  0
   58.7490   33.7870   47.0700 C   0  0  0  0  0  0  0  0  0  0  0  0
   59.6020   34.7530   47.6200 C   0  0  0  0  0  0  0  0  0  0  0  0
   60.1160   34.5840   48.9080 C   0  0  0  0  0  0  0  0  0  0  0  0
   59.7880   33.4470   49.6510 C   0  0  0  0  0  0  0  0  0  0  0  0
   58.9470   32.4630   49.1060 C   0  0  0  0  0  0  0  0  0  0  0  0
   58.5980   31.2540   49.8840 C   0  0  0  0  0  0  0  0  0  0  0  0
   58.3590   30.1770   49.2700 O   0  0  0  0  0  0  0  0  0  0  0  0
   58.5280   31.2780   51.3220 N   0  0  0  0  0  0  0  0  0  0  0  0
   59.5660   31.9560   52.1120 C   0  0  0  0  0  0  0  0  0  0  0  0
   58.9370   32.7370   53.2750 C   0  0  0  0  0  0  0  0  0  0  0  0
   57.7750   31.9910   53.9670 C   0  0  0  0  0  0  0  0  0  0  0  0
   57.6560   30.5270   53.5280 C   0  0  0  0  0  0  0  0  0  0  0  0
   57.5330   30.4320   52.0020 C   0  0  0  0  0  0  0  0  0  0  0  0
   58.4190   32.6450   47.8160 C   0  0  0  0  0  0  0  0  0  0  0  0
   57.9040   30.4580   44.7450 C   0  0  0  0  0  0  0  0  0  0  0  0
   59.7490   28.7620   46.7170 C   0  0  0  0  0  0  0  0  0  0  0  0
   61.7740   30.7110   49.2510 C   0  0  0  0  0  0  0  0  0  0  0  0
   62.9820   31.6740   49.1720 C   0  0  0  0  0  0  0  0  0  0  0  0
   64.2881   33.6505   48.9256 H   0  0  0  0  0  0  0  0  0  0  0  0
   65.0543   33.1772   47.3714 H   0  0  0  0  0  0  0  0  0  0  0  0
   63.5987   34.2299   47.3714 H   0  0  0  0  0  0  0  0  0  0  0  0
   61.3387   33.1212   47.7839 H   0  0  0  0  0  0  0  0  0  0  0  0
   62.1786   33.0721   46.2036 H   0  0  0  0  0  0  0  0  0  0  0  0
   60.2146   31.4195   46.5419 H   0  0  0  0  0  0  0  0  0  0  0  0
   61.7802   30.7334   45.9438 H   0  0  0  0  0  0  0  0  0  0  0  0
   61.3877   28.1994   49.6684 H   0  0  0  0  0  0  0  0  0  0  0  0
   60.1434   26.0533   49.4884 H   0  0  0  0  0  0  0  0  0  0  0  0
   57.7770   25.2150   46.8240 H   0  0  0  0  0  0  0  0  0  0  0  0
   55.9288   28.5741   42.6814 H   0  0  0  0  0  0  0  0  0  0  0  0
   56.1479   30.6173   41.2734 H   0  0  0  0  0  0  0  0  0  0  0  0
   57.5025   32.5525   42.0717 H   0  0  0  0  0  0  0  0  0  0  0  0
   59.8676   35.6467   47.0362 H   0  0  0  0  0  0  0  0  0  0  0  0
   60.7805   35.3478   49.3382 H   0  0  0  0  0  0  0  0  0  0  0  0
   60.1902   33.3220   50.6672 H   0  0  0  0  0  0  0  0  0  0  0  0
   60.2615   31.2051   52.5152 H   0  0  0  0  0  0  0  0  0  0  0  0
   60.1029   32.6614   51.4607 H   0  0  0  0  0  0  0  0  0  0  0  0
   59.7183   32.9339   54.0239 H   0  0  0  0  0  0  0  0  0  0  0  0
   58.5186   33.6622   52.8520 H   0  0  0  0  0  0  0  0  0  0  0  0
   57.9392   32.0185   55.0543 H   0  0  0  0  0  0  0  0  0  0  0  0
   56.8418   32.4973   53.6792 H   0  0  0  0  0  0  0  0  0  0  0  0
   58.5514   29.9774   53.8539 H   0  0  0  0  0  0  0  0  0  0  0  0
   56.7558   30.0905   53.9853 H   0  0  0  0  0  0  0  0  0  0  0  0
   57.6856   29.3864   51.6964 H   0  0  0  0  0  0  0  0  0  0  0  0
   56.5308   30.7839   51.7161 H   0  0  0  0  0  0  0  0  0  0  0  0
   57.7439   31.8887   47.3892 H   0  0  0  0  0  0  0  0  0  0  0  0
   58.3874   30.4206   45.7324 H   0  0  0  0  0  0  0  0  0  0  0  0
   59.6273   29.5317   45.9407 H   0  0  0  0  0  0  0  0  0  0  0  0
   60.9490   31.2264   49.7646 H   0  0  0  0  0  0  0  0  0  0  0  0
   62.1052   29.8153   49.7969 H   0  0  0  0  0  0  0  0  0  0  0  0
   62.7917   32.5257   49.8417 H   0  0  0  0  0  0  0  0  0  0  0  0
   63.8718   31.0988   49.4675 H   0  0  0  0  0  0  0  0  0  0  0  0
  1  2  1  0
  2  3  1  0
  3  4  1  0
  4  5  1  0
  5  6  1  0
  6  7  2  0
  7  8  1  0
  8  9  2  0
  9 10  1  0
  9 11  1  0
 11 12  1  0
 12 13  1  0
 13 14  2  0
 13 15  1  0
 15 16  2  0
 16 17  1  0
 17 18  2  0
 18 19  1  0
 19 20  1  0
 20 21  1  0
 21 22  2  0
 21 23  2  0
 21 24  1  0
 24 25  2  0
 25 26  1  0
 26 27  2  0
 27 28  1  0
 28 29  1  0
 29 30  2  0
 29 31  1  0
 31 32  1  0
 32 33  1  0
 33 34  1  0
 34 35  1  0
 35 36  1  0
 28 37  2  0
 19 38  2  0
 11 39  2  0
  5 40  1  0
 40 41  1  0
 41  2  1  0
 39  6  1  0
 38 15  1  0
 37 24  1  0
 36 31  1  0
  1 42  1  0
  1 43  1  0
  1 44  1  0
  3 45  1  0
  3 46  1  0
  4 47  1  0
  4 48  1  0
  7 49  1  0
  8 50  1  0
 10 51  1  0
 16 52  1  0
 17 53  1  0
 18 54  1  0
 25 55  1  0
 26 56  1  0
 27 57  1  0
 32 58  1  0
 32 59  1  0
 33 60  1  0
 33 61  1  0
 34 62  1  0
 34 63  1  0
 35 64  1  0
 35 65  1  0
 36 66  1  0
 36 67  1  0
 37 68  1  0
 38 69  1  0
 39 70  1  0
 40 71  1  0
 40 72  1  0
 41 73  1  0
 41 74  1  0
M  CHG  2  12  -1  20  -1
M  END
>  <UniqueID>  (31) 
27

>  <SMILES>  (31) 
CN1CCN(c2ccc(O)c([N-]C(=O)c3cccc([N-]S(=O)(=O)c4cccc(C(=O)N5CCCCC5)c4)c3)c2)CC1

>  <Energy>  (31) 
108.1014609857934

>  <Genealogy>  (31) 
CN1CCN(c2ccc(O)c([N-]C(=O)c3cccc([N-]S(=O)(=O)c4cccc(C(=O)N5CCCCC5)c4)c3)c2)CC1 (protonated)
CN1CCN(c2ccc(O)c([N-]C(=O)c3cccc([N-]S(=O)(=O)c4cccc(C(=O)N5CCCCC5)c4)c3)c2)CC1 (3D coordinates assigned)
CN1CCN(c2ccc(O)c([N-]C(=O)c3cccc([N-]S(=O)(=O)c4cccc(C(=O)N5CCCCC5)c4)c3)c2)CC1 (nonaromatic ring conformer: 108.1014609857934 kcal/mol)

>  <smiles>  (31) 
CN1CCN(c2ccc(O)c(NC(=O)c3cccc(NS(=O)(=O)c4cccc(C(=O)N5CCCCC5)c4)c3)c2)CC1

>  <score_type>  (31) 
oracle

>  <origin>  (31) 
adg

>  <m_score__min__energy>  (31) 
-12.789999999999999

>  <m_primary>  (31) 
energy

$$$$
32:0
     RDKit          3D

 54 57  0  0  0  0  0  0  0  0999 V2000
   54.2710   25.2750   45.6340 O   0  0  0  0  0  0  0  0  0  0  0  0
   55.5200   25.4590   45.6630 C   0  0  0  0  0  0  0  0  0  0  0  0
   56.0150   26.7160   46.1450 N   0  0  0  0  0  0  0  0  0  0  0  0
   57.1500   27.4450   45.6540 C   0  0  0  0  0  0  0  0  0  0  0  0
   58.4680   27.0490   45.9430 C   0  0  0  0  0  0  0  0  0  0  0  0
   59.5470   27.8430   45.5400 C   0  0  0  0  0  0  0  0  0  0  0  0
   59.3230   29.0510   44.8770 C   0  0  0  0  0  0  0  0  0  0  0  0
   58.0130   29.4730   44.5990 C   0  0  0  0  0  0  0  0  0  0  0  0
   57.7600   30.8150   43.9580 C   0  0  0  0  0  0  0  0  0  0  0  0
   58.2100   31.9150   44.8440 N   0  0  0  0  0  0  0  0  0  0  0  0
   57.3960   33.1300   44.6080 C   0  0  0  0  0  0  0  0  0  0  0  0
   57.5510   34.1900   45.7230 C   0  0  0  0  0  0  0  0  0  0  0  0
   58.6990   33.9460   46.6170 N   0  0  0  0  0  0  0  0  0  0  0  0
   59.9740   34.5780   46.2050 C   0  0  0  0  0  0  0  0  0  0  0  0
   61.1640   34.1220   47.0130 C   0  0  0  0  0  0  0  0  0  0  0  0
   61.1360   34.1880   48.4190 C   0  0  0  0  0  0  0  0  0  0  0  0
   62.2340   33.7510   49.1680 C   0  0  0  0  0  0  0  0  0  0  0  0
   63.3600   33.2340   48.5200 C   0  0  0  0  0  0  0  0  0  0  0  0
   64.4230   32.8090   49.2460 F   0  0  0  0  0  0  0  0  0  0  0  0
   63.3930   33.1570   47.1230 C   0  0  0  0  0  0  0  0  0  0  0  0
   62.3020   33.5960   46.3720 C   0  0  0  0  0  0  0  0  0  0  0  0
   58.8090   32.5690   47.1490 C   0  0  0  0  0  0  0  0  0  0  0  0
   58.1220   31.5210   46.2620 C   0  0  0  0  0  0  0  0  0  0  0  0
   56.9310   28.6540   44.9770 C   0  0  0  0  0  0  0  0  0  0  0  0
   56.4140   24.4150   45.1340 C   0  0  0  0  0  0  0  0  0  0  0  0
   56.1620   23.6250   44.0120 C   0  0  0  0  0  0  0  0  0  0  0  0
   57.2090   22.7500   43.7010 C   0  0  0  0  0  0  0  0  0  0  0  0
   58.2850   22.8640   44.5710 C   0  0  0  0  0  0  0  0  0  0  0  0
   59.4940   22.0980   44.5060 N   0  0  0  0  0  0  0  0  0  0  0  0
   59.7880   21.4800   43.4610 O   0  0  0  0  0  0  0  0  0  0  0  0
   60.3410   22.0450   45.5880 O   0  0  0  0  0  0  0  0  0  0  0  0
   57.9490   24.0430   45.7210 S   0  0  0  0  0  0  0  0  0  0  0  0
   58.6513   26.1113   46.4881 H   0  0  0  0  0  0  0  0  0  0  0  0
   60.5762   27.5141   45.7464 H   0  0  0  0  0  0  0  0  0  0  0  0
   60.1760   29.6746   44.5712 H   0  0  0  0  0  0  0  0  0  0  0  0
   58.3102   30.8699   43.0071 H   0  0  0  0  0  0  0  0  0  0  0  0
   56.6796   30.9236   43.7822 H   0  0  0  0  0  0  0  0  0  0  0  0
   57.7058   33.5789   43.6527 H   0  0  0  0  0  0  0  0  0  0  0  0
   56.3406   32.8202   44.5944 H   0  0  0  0  0  0  0  0  0  0  0  0
   57.6818   35.1747   45.2505 H   0  0  0  0  0  0  0  0  0  0  0  0
   56.6439   34.1396   46.3432 H   0  0  0  0  0  0  0  0  0  0  0  0
   60.1573   34.3340   45.1482 H   0  0  0  0  0  0  0  0  0  0  0  0
   59.8663   35.6598   46.3725 H   0  0  0  0  0  0  0  0  0  0  0  0
   60.2470   34.5849   48.9310 H   0  0  0  0  0  0  0  0  0  0  0  0
   62.2114   33.8141   50.2660 H   0  0  0  0  0  0  0  0  0  0  0  0
   64.2803   32.7498   46.6162 H   0  0  0  0  0  0  0  0  0  0  0  0
   62.3311   33.5309   45.2743 H   0  0  0  0  0  0  0  0  0  0  0  0
   59.8750   32.3109   47.2333 H   0  0  0  0  0  0  0  0  0  0  0  0
   58.3017   32.5542   48.1249 H   0  0  0  0  0  0  0  0  0  0  0  0
   58.6167   30.5482   46.3999 H   0  0  0  0  0  0  0  0  0  0  0  0
   57.0624   31.4484   46.5485 H   0  0  0  0  0  0  0  0  0  0  0  0
   55.9034   28.9658   44.7388 H   0  0  0  0  0  0  0  0  0  0  0  0
   55.2312   23.6841   43.4288 H   0  0  0  0  0  0  0  0  0  0  0  0
   57.1823   22.0460   42.8562 H   0  0  0  0  0  0  0  0  0  0  0  0
  1  2  2  0
  2  3  1  0
  3  4  1  0
  4  5  2  0
  5  6  1  0
  6  7  2  0
  7  8  1  0
  8  9  1  0
  9 10  1  0
 10 11  1  0
 11 12  1  0
 12 13  1  0
 13 14  1  0
 14 15  1  0
 15 16  2  0
 16 17  1  0
 17 18  2  0
 18 19  1  0
 18 20  1  0
 20 21  2  0
 13 22  1  0
 22 23  1  0
  8 24  2  0
  2 25  1  0
 25 26  2  0
 26 27  1  0
 27 28  2  0
 28 29  1  0
 29 30  2  0
 29 31  1  0
 28 32  1  0
 24  4  1  0
 32 25  1  0
 23 10  1  0
 21 15  1  0
  5 33  1  0
  6 34  1  0
  7 35  1  0
  9 36  1  0
  9 37  1  0
 11 38  1  0
 11 39  1  0
 12 40  1  0
 12 41  1  0
 14 42  1  0
 14 43  1  0
 16 44  1  0
 17 45  1  0
 20 46  1  0
 21 47  1  0
 22 48  1  0
 22 49  1  0
 23 50  1  0
 23 51  1  0
 24 52  1  0
 26 53  1  0
 27 54  1  0
M  CHG  3   3  -1  29   1  31  -1
M  END
>  <UniqueID>  (32) 
28

>  <SMILES>  (32) 
O=C([N-]c1cccc(CN2CCN(Cc3ccc(F)cc3)CC2)c1)c1ccc([N+](=O)[O-])s1

>  <Energy>  (32) 
101.67821412872144

>  <Genealogy>  (32) 
O=C([N-]c1cccc(CN2CCN(Cc3ccc(F)cc3)CC2)c1)c1ccc([N+](=O)[O-])s1 (protonated)
O=C([N-]c1cccc(CN2CCN(Cc3ccc(F)cc3)CC2)c1)c1ccc([N+](=O)[O-])s1 (3D coordinates assigned)
O=C([N-]c1cccc(CN2CCN(Cc3ccc(F)cc3)CC2)c1)c1ccc([N+](=O)[O-])s1 (nonaromatic ring conformer: 101.67821412872144 kcal/mol)

>  <smiles>  (32) 
O=C(Nc1cccc(CN2CCN(Cc3ccc(F)cc3)CC2)c1)c1ccc([N+](=O)[O-])s1

>  <score_type>  (32) 
oracle

>  <origin>  (32) 
adg

>  <m_score__min__energy>  (32) 
-12.27

>  <m_primary>  (32) 
energy

$$$$
33:0
     RDKit          3D

 68 72  0  0  0  0  0  0  0  0999 V2000
   55.0600   26.3190   45.9970 O   0  0  0  0  0  0  0  0  0  0  0  0
   56.2630   26.0280   45.7420 C   0  0  0  0  0  0  0  0  0  0  0  0
   56.5640   24.7720   45.1110 N   0  0  0  0  0  0  0  0  0  0  0  0
   55.5220   23.8260   44.7060 C   0  0  0  0  0  0  0  0  0  0  0  0
   55.8670   23.1440   43.3720 C   0  0  0  0  0  0  0  0  0  0  0  0
   56.1960   21.7090   43.5500 N   0  0  0  0  0  0  0  0  0  0  0  0
   55.8710   21.1980   44.9100 C   0  0  0  0  0  0  0  0  0  0  0  0
   57.0970   21.0120   45.8290 C   0  0  0  0  0  0  0  0  0  0  0  0
   58.1790   22.0460   45.5300 C   0  0  0  0  0  0  0  0  0  0  0  0
   58.6470   21.9590   44.0690 C   0  0  0  0  0  0  0  0  0  0  0  0
   57.5730   21.3720   43.1290 C   0  0  0  0  0  0  0  0  0  0  0  0
   57.3360   26.9820   46.1280 C   0  0  0  0  0  0  0  0  0  0  0  0
   58.2410   26.6960   47.1690 C   0  0  0  0  0  0  0  0  0  0  0  0
   59.2280   27.6200   47.5220 C   0  0  0  0  0  0  0  0  0  0  0  0
   59.3440   28.8270   46.8280 C   0  0  0  0  0  0  0  0  0  0  0  0
   58.4780   29.1120   45.7590 C   0  0  0  0  0  0  0  0  0  0  0  0
   58.5390   30.3550   45.0480 N   0  0  0  0  0  0  0  0  0  0  0  0
   57.5600   31.4000   45.0880 C   0  0  0  0  0  0  0  0  0  0  0  0
   56.3530   31.1620   44.8040 O   0  0  0  0  0  0  0  0  0  0  0  0
   57.9790   32.7740   45.5190 C   0  0  0  0  0  0  0  0  0  0  0  0
   58.9790   32.9010   46.6340 C   0  0  0  0  0  0  0  0  0  0  0  0
   60.3310   33.1210   46.3590 C   0  0  0  0  0  0  0  0  0  0  0  0
   61.2290   33.2220   47.4320 C   0  0  0  0  0  0  0  0  0  0  0  0
   62.6800   33.4060   47.2090 C   0  0  0  0  0  0  0  0  0  0  0  0
   63.0660   34.1950   46.3050 O   0  0  0  0  0  0  0  0  0  0  0  0
   63.6680   32.6950   47.9730 N   0  0  0  0  0  0  0  0  0  0  0  0
   64.1870   33.1010   49.2470 C   0  0  0  0  0  0  0  0  0  0  0  0
   63.4000   33.9090   50.0770 C   0  0  0  0  0  0  0  0  0  0  0  0
   63.8940   34.3410   51.3140 C   0  0  0  0  0  0  0  0  0  0  0  0
   65.1650   33.9400   51.7400 C   0  0  0  0  0  0  0  0  0  0  0  0
   65.9370   33.0970   50.9360 C   0  0  0  0  0  0  0  0  0  0  0  0
   65.4530   32.6770   49.6940 C   0  0  0  0  0  0  0  0  0  0  0  0
   60.7550   33.1620   48.7060 N   0  0  0  0  0  0  0  0  0  0  0  0
   59.4330   32.9770   48.9560 C   0  0  0  0  0  0  0  0  0  0  0  0
   58.5570   32.8440   47.9250 N   0  0  0  0  0  0  0  0  0  0  0  0
   57.0180   33.9370   45.2910 C   0  0  0  0  0  0  0  0  0  0  0  0
   58.2050   33.7400   44.3610 C   0  0  0  0  0  0  0  0  0  0  0  0
   57.4710   28.1970   45.4270 C   0  0  0  0  0  0  0  0  0  0  0  0
   57.5510   24.4440   45.0520 H   0  0  0  0  0  0  0  0  0  0  0  0
   55.4165   23.0558   45.4843 H   0  0  0  0  0  0  0  0  0  0  0  0
   54.5823   24.3828   44.5758 H   0  0  0  0  0  0  0  0  0  0  0  0
   55.0034   23.2291   42.6960 H   0  0  0  0  0  0  0  0  0  0  0  0
   56.7516   23.6458   42.9529 H   0  0  0  0  0  0  0  0  0  0  0  0
   55.1851   21.9109   45.3909 H   0  0  0  0  0  0  0  0  0  0  0  0
   55.4257   20.2014   44.7737 H   0  0  0  0  0  0  0  0  0  0  0  0
   56.7787   21.1196   46.8764 H   0  0  0  0  0  0  0  0  0  0  0  0
   57.5157   20.0108   45.6492 H   0  0  0  0  0  0  0  0  0  0  0  0
   57.7749   23.0518   45.7174 H   0  0  0  0  0  0  0  0  0  0  0  0
   59.0411   21.8447   46.1829 H   0  0  0  0  0  0  0  0  0  0  0  0
   58.9027   22.9708   43.7214 H   0  0  0  0  0  0  0  0  0  0  0  0
   59.5157   21.2848   44.0399 H   0  0  0  0  0  0  0  0  0  0  0  0
   57.7378   21.7686   42.1163 H   0  0  0  0  0  0  0  0  0  0  0  0
   57.6696   20.2767   43.1594 H   0  0  0  0  0  0  0  0  0  0  0  0
   58.1703   25.7393   47.7073 H   0  0  0  0  0  0  0  0  0  0  0  0
   59.9167   27.3961   48.3500 H   0  0  0  0  0  0  0  0  0  0  0  0
   60.1149   29.5557   47.1191 H   0  0  0  0  0  0  0  0  0  0  0  0
   60.6844   33.2132   45.3214 H   0  0  0  0  0  0  0  0  0  0  0  0
   62.3904   34.2053   49.7562 H   0  0  0  0  0  0  0  0  0  0  0  0
   63.2822   34.9963   51.9515 H   0  0  0  0  0  0  0  0  0  0  0  0
   65.5564   34.2881   52.7073 H   0  0  0  0  0  0  0  0  0  0  0  0
   66.9268   32.7636   51.2811 H   0  0  0  0  0  0  0  0  0  0  0  0
   66.0630   32.0131   49.0638 H   0  0  0  0  0  0  0  0  0  0  0  0
   59.0707   32.9347   49.9938 H   0  0  0  0  0  0  0  0  0  0  0  0
   55.9975   33.7440   44.9285 H   0  0  0  0  0  0  0  0  0  0  0  0
   56.6424   34.7674   45.9070 H   0  0  0  0  0  0  0  0  0  0  0  0
   58.0426   33.4049   43.3260 H   0  0  0  0  0  0  0  0  0  0  0  0
   59.0428   34.3694   44.0263 H   0  0  0  0  0  0  0  0  0  0  0  0
   56.7755   28.4301   44.6073 H   0  0  0  0  0  0  0  0  0  0  0  0
  1  2  2  0
  2  3  1  0
  3  4  1  0
  4  5  1  0
  5  6  1  0
  6  7  1  0
  7  8  1  0
  8  9  1  0
  9 10  1  0
 10 11  1  0
  2 12  1  0
 12 13  2  0
 13 14  1  0
 14 15  2  0
 15 16  1  0
 16 17  1  0
 17 18  1  0
 18 19  2  0
 18 20  1  0
 20 21  1  0
 21 22  2  0
 22 23  1  0
 23 24  1  0
 24 25  2  0
 24 26  1  0
 26 27  1  0
 27 28  2  0
 28 29  1  0
 29 30  2  0
 30 31  1  0
 31 32  2  0
 23 33  2  0
 33 34  1  0
 34 35  2  0
 20 36  1  0
 36 37  1  0
 16 38  2  0
 11  6  1  0
 38 12  1  0
 37 20  1  0
 35 21  1  0
 32 27  1  0
  3 39  1  0
  4 40  1  0
  4 41  1  0
  5 42  1  0
  5 43  1  0
  7 44  1  0
  7 45  1  0
  8 46  1  0
  8 47  1  0
  9 48  1  0
  9 49  1  0
 10 50  1  0
 10 51  1  0
 11 52  1  0
 11 53  1  0
 13 54  1  0
 14 55  1  0
 15 56  1  0
 22 57  1  0
 28 58  1  0
 29 59  1  0
 30 60  1  0
 31 61  1  0
 32 62  1  0
 34 63  1  0
 36 64  1  0
 36 65  1  0
 37 66  1  0
 37 67  1  0
 38 68  1  0
M  CHG  2  17  -1  26  -1
M  END
>  <UniqueID>  (33) 
29

>  <SMILES>  (33) 
O=C(NCCN1CCCCC1)c1cccc([N-]C(=O)C2(c3cc(C(=O)[N-]c4ccccc4)ncn3)CC2)c1

>  <Energy>  (33) 
356.12870457854405

>  <Genealogy>  (33) 
O=C(NCCN1CCCCC1)c1cccc([N-]C(=O)C2(c3cc(C(=O)[N-]c4ccccc4)ncn3)CC2)c1 (protonated)
O=C(NCCN1CCCCC1)c1cccc([N-]C(=O)C2(c3cc(C(=O)[N-]c4ccccc4)ncn3)CC2)c1 (3D coordinates assigned)
O=C(NCCN1CCCCC1)c1cccc([N-]C(=O)C2(c3cc(C(=O)[N-]c4ccccc4)ncn3)CC2)c1 (nonaromatic ring conformer: 356.12870457854405 kcal/mol)

>  <smiles>  (33) 
O=C(NCCN1CCCCC1)c1cccc(NC(=O)C2(c3cc(C(=O)Nc4ccccc4)ncn3)CC2)c1

>  <score_type>  (33) 
oracle

>  <origin>  (33) 
adg

>  <m_score__min__energy>  (33) 
-13.130000000000001

>  <m_primary>  (33) 
energy

$$$$
34:0
     RDKit          3D

 58 60  0  0  0  0  0  0  0  0999 V2000
   59.2590   34.9220   46.8660 C   0  0  0  0  0  0  0  0  0  0  0  0
   58.4490   34.1560   46.1290 C   0  0  0  0  0  0  0  0  0  0  0  0
   58.9790   33.2030   45.0920 C   0  0  0  0  0  0  0  0  0  0  0  0
   58.6080   31.8160   45.4130 N   0  0  0  0  0  0  0  0  0  0  0  0
   59.0600   31.0860   46.4640 C   0  0  0  0  0  0  0  0  0  0  0  0
   60.1370   31.5080   47.4260 C   0  0  0  0  0  0  0  0  0  0  0  0
   59.8850   30.9040   48.8120 C   0  0  0  0  0  0  0  0  0  0  0  0
   60.8370   31.4710   49.7940 N   0  0  0  0  0  0  0  0  0  0  0  0
   60.8890   30.6890   51.0550 C   0  0  0  0  0  0  0  0  0  0  0  0
   59.9090   31.2050   52.1300 C   0  0  0  0  0  0  0  0  0  0  0  0
   58.7790   31.9010   51.4910 N   0  0  0  0  0  0  0  0  0  0  0  0
   57.7070   32.2110   52.4590 C   0  0  0  0  0  0  0  0  0  0  0  0
   56.4910   31.3060   52.2310 C   0  0  0  0  0  0  0  0  0  0  0  0
   56.8720   30.1160   51.5960 O   0  0  0  0  0  0  0  0  0  0  0  0
   59.2510   33.1280   50.8140 C   0  0  0  0  0  0  0  0  0  0  0  0
   60.5800   32.9010   50.0600 C   0  0  0  0  0  0  0  0  0  0  0  0
   58.4720   29.8380   46.4710 C   0  0  0  0  0  0  0  0  0  0  0  0
   57.6330   29.7790   45.3730 C   0  0  0  0  0  0  0  0  0  0  0  0
   56.9480   28.6660   45.0430 C   0  0  0  0  0  0  0  0  0  0  0  0
   57.1350   27.3350   45.6380 C   0  0  0  0  0  0  0  0  0  0  0  0
   58.3310   26.7110   45.7050 N   0  0  0  0  0  0  0  0  0  0  0  0
   58.0260   25.4840   46.1830 C   0  0  0  0  0  0  0  0  0  0  0  0
   58.8940   24.5920   46.3770 O   0  0  0  0  0  0  0  0  0  0  0  0
   56.7090   25.3010   46.4070 N   0  0  0  0  0  0  0  0  0  0  0  0
   56.0310   24.0700   46.7990 C   0  0  0  0  0  0  0  0  0  0  0  0
   56.1430   26.4580   46.0280 C   0  0  0  0  0  0  0  0  0  0  0  0
   54.7730   26.6940   45.9980 O   0  0  0  0  0  0  0  0  0  0  0  0
   57.7040   31.0380   44.7570 C   0  0  0  0  0  0  0  0  0  0  0  0
   56.9360   31.4900   43.7520 C   0  0  0  0  0  0  0  0  0  0  0  0
   58.8364   35.6076   47.6152 H   0  0  0  0  0  0  0  0  0  0  0  0
   60.3483   34.8669   46.7234 H   0  0  0  0  0  0  0  0  0  0  0  0
   57.3623   34.2242   46.2851 H   0  0  0  0  0  0  0  0  0  0  0  0
   58.5599   33.4697   44.1105 H   0  0  0  0  0  0  0  0  0  0  0  0
   60.0763   33.2777   45.0752 H   0  0  0  0  0  0  0  0  0  0  0  0
   61.1121   31.1623   47.0522 H   0  0  0  0  0  0  0  0  0  0  0  0
   60.1302   32.6048   47.5091 H   0  0  0  0  0  0  0  0  0  0  0  0
   58.8566   31.1337   49.1276 H   0  0  0  0  0  0  0  0  0  0  0  0
   60.0260   29.8142   48.7612 H   0  0  0  0  0  0  0  0  0  0  0  0
   60.6395   29.6420   50.8279 H   0  0  0  0  0  0  0  0  0  0  0  0
   61.9056   30.7919   51.4623 H   0  0  0  0  0  0  0  0  0  0  0  0
   59.5289   30.3542   52.7146 H   0  0  0  0  0  0  0  0  0  0  0  0
   60.4370   31.9071   52.7920 H   0  0  0  0  0  0  0  0  0  0  0  0
   58.0864   32.0553   53.4797 H   0  0  0  0  0  0  0  0  0  0  0  0
   57.3988   33.2579   52.3213 H   0  0  0  0  0  0  0  0  0  0  0  0
   56.0319   31.0666   53.2015 H   0  0  0  0  0  0  0  0  0  0  0  0
   55.7714   31.8351   51.5889 H   0  0  0  0  0  0  0  0  0  0  0  0
   57.8070   30.2430   51.2890 H   0  0  0  0  0  0  0  0  0  0  0  0
   58.4855   33.4525   50.0938 H   0  0  0  0  0  0  0  0  0  0  0  0
   59.4249   33.8941   51.5839 H   0  0  0  0  0  0  0  0  0  0  0  0
   60.5383   33.4373   49.1005 H   0  0  0  0  0  0  0  0  0  0  0  0
   61.3955   33.2767   50.6954 H   0  0  0  0  0  0  0  0  0  0  0  0
   58.6389   29.0406   47.2101 H   0  0  0  0  0  0  0  0  0  0  0  0
   56.1818   28.7622   44.2596 H   0  0  0  0  0  0  0  0  0  0  0  0
   55.9950   24.0047   47.8965 H   0  0  0  0  0  0  0  0  0  0  0  0
   55.0067   24.0719   46.3980 H   0  0  0  0  0  0  0  0  0  0  0  0
   56.5801   23.2053   46.3980 H   0  0  0  0  0  0  0  0  0  0  0  0
   57.0918   32.5034   43.3536 H   0  0  0  0  0  0  0  0  0  0  0  0
   56.1512   30.8467   43.3273 H   0  0  0  0  0  0  0  0  0  0  0  0
  1  2  2  0
  2  3  1  0
  3  4  1  0
  4  5  1  0
  5  6  1  0
  6  7  1  0
  7  8  1  0
  8  9  1  0
  9 10  1  0
 10 11  1  0
 11 12  1  0
 12 13  1  0
 13 14  1  0
 11 15  1  0
 15 16  1  0
  5 17  2  0
 17 18  1  0
 18 19  2  3
 19 20  1  0
 20 21  1  0
 21 22  1  0
 22 23  2  0
 22 24  1  0
 24 25  1  0
 24 26  1  0
 26 27  1  0
 18 28  1  0
 28 29  2  0
 28  4  1  0
 16  8  1  0
 26 20  2  0
  1 30  1  0
  1 31  1  0
  2 32  1  0
  3 33  1  0
  3 34  1  0
  6 35  1  0
  6 36  1  0
  7 37  1  0
  7 38  1  0
  9 39  1  0
  9 40  1  0
 10 41  1  0
 10 42  1  0
 12 43  1  0
 12 44  1  0
 13 45  1  0
 13 46  1  0
 14 47  1  0
 15 48  1  0
 15 49  1  0
 16 50  1  0
 16 51  1  0
 17 52  1  0
 19 53  1  0
 25 54  1  0
 25 55  1  0
 25 56  1  0
 29 57  1  0
 29 58  1  0
M  CHG  2  21  -1  27  -1
M  END
>  <UniqueID>  (34) 
30

>  <SMILES>  (34) 
C=CCn1c(CCN2CCN(CCO)CC2)cc(=Cc2[n-]c(=O)n(C)c2[O-])c1=C

>  <Energy>  (34) 
134.47984716872236

>  <Genealogy>  (34) 
C=CCn1c(CCN2CCN(CCO)CC2)cc(=Cc2[n-]c(=O)n(C)c2[O-])c1=C (protonated)
C=CCn1c(CCN2CCN(CCO)CC2)cc(=Cc2[n-]c(=O)n(C)c2[O-])c1=C (3D coordinates assigned)
C=CCn1c(CCN2CCN(CCO)CC2)cc(=Cc2[n-]c(=O)n(C)c2[O-])c1=C (nonaromatic ring conformer: 134.47984716872236 kcal/mol)

>  <smiles>  (34) 
C=CCn1c(CCN2CCN(CCO)CC2)cc(=Cc2[nH]c(=O)n(C)c2O)c1=C

>  <score_type>  (34) 
oracle

>  <origin>  (34) 
adg

>  <m_score__min__energy>  (34) 
-13.06

>  <m_primary>  (34) 
energy

$$$$
35:0
     RDKit          3D

 54 56  0  0  0  0  0  0  0  0999 V2000
   55.1450   28.6710   45.6390 H   0  0  0  0  0  0  0  0  0  0  0  0
   55.9190   28.0880   45.2490 N   0  0  0  0  0  0  0  0  0  0  0  0
   56.2670   26.8380   45.8400 C   0  0  0  0  0  0  0  0  0  0  0  0
   55.3540   26.0610   46.2260 O   0  0  0  0  0  0  0  0  0  0  0  0
   57.6720   26.3960   45.9300 C   0  0  0  0  0  0  0  0  0  0  0  0
   57.8547   25.3168   46.0391 H   0  0  0  0  0  0  0  0  0  0  0  0
   58.7440   27.1990   45.8900 C   0  0  0  0  0  0  0  0  0  0  0  0
   59.3208   27.2320   44.9539 H   0  0  0  0  0  0  0  0  0  0  0  0
   59.2080   28.0420   47.0080 C   0  0  0  0  0  0  0  0  0  0  0  0
   59.0410   29.4170   47.1120 C   0  0  0  0  0  0  0  0  0  0  0  0
   58.1230   30.2690   46.2680 C   0  0  0  0  0  0  0  0  0  0  0  0
   57.9360   31.2196   46.7890 H   0  0  0  0  0  0  0  0  0  0  0  0
   57.1825   29.7199   46.1134 H   0  0  0  0  0  0  0  0  0  0  0  0
   58.7430   30.5630   44.9000 C   0  0  0  0  0  0  0  0  0  0  0  0
   58.9837   29.6151   44.3966 H   0  0  0  0  0  0  0  0  0  0  0  0
   59.6612   31.1533   45.0360 H   0  0  0  0  0  0  0  0  0  0  0  0
   57.7840   31.3320   44.0700 N   0  0  0  0  0  0  0  0  0  0  0  0
   56.8960   30.4270   43.3200 C   0  0  0  0  0  0  0  0  0  0  0  0
   56.3052   29.8249   44.0259 H   0  0  0  0  0  0  0  0  0  0  0  0
   56.2188   31.0192   42.6870 H   0  0  0  0  0  0  0  0  0  0  0  0
   57.5009   29.7611   42.6870 H   0  0  0  0  0  0  0  0  0  0  0  0
   57.0070   32.2920   44.8830 C   0  0  0  0  0  0  0  0  0  0  0  0
   56.2608   32.7864   44.2437 H   0  0  0  0  0  0  0  0  0  0  0  0
   56.5080   31.7456   45.6969 H   0  0  0  0  0  0  0  0  0  0  0  0
   57.9140   33.3340   45.4820 C   0  0  0  0  0  0  0  0  0  0  0  0
   58.0240   33.4510   46.8760 C   0  0  0  0  0  0  0  0  0  0  0  0
   57.4234   32.8006   47.5289 H   0  0  0  0  0  0  0  0  0  0  0  0
   58.8930   34.3900   47.4390 C   0  0  0  0  0  0  0  0  0  0  0  0
   58.9741   34.4766   48.5326 H   0  0  0  0  0  0  0  0  0  0  0  0
   59.6590   35.2190   46.6150 C   0  0  0  0  0  0  0  0  0  0  0  0
   60.3453   35.9548   47.0594 H   0  0  0  0  0  0  0  0  0  0  0  0
   59.5520   35.1120   45.2250 C   0  0  0  0  0  0  0  0  0  0  0  0
   60.1522   35.7665   44.5759 H   0  0  0  0  0  0  0  0  0  0  0  0
   58.6830   34.1740   44.6590 C   0  0  0  0  0  0  0  0  0  0  0  0
   58.6011   34.0934   43.5650 H   0  0  0  0  0  0  0  0  0  0  0  0
   59.6810   29.7850   48.2940 C   0  0  0  0  0  0  0  0  0  0  0  0
   59.7230   31.1140   48.9320 C   0  0  0  0  0  0  0  0  0  0  0  0
   58.7690   31.4530   49.6850 O   0  0  0  0  0  0  0  0  0  0  0  0
   60.8560   32.0430   48.7380 C   0  0  0  0  0  0  0  0  0  0  0  0
   61.0130   33.1500   49.5900 C   0  0  0  0  0  0  0  0  0  0  0  0
   60.2854   33.3279   50.3955 H   0  0  0  0  0  0  0  0  0  0  0  0
   62.0890   34.0260   49.4190 C   0  0  0  0  0  0  0  0  0  0  0  0
   62.2012   34.8942   50.0851 H   0  0  0  0  0  0  0  0  0  0  0  0
   63.0220   33.8010   48.4040 C   0  0  0  0  0  0  0  0  0  0  0  0
   63.8638   34.4960   48.2683 H   0  0  0  0  0  0  0  0  0  0  0  0
   62.8880   32.6940   47.5600 C   0  0  0  0  0  0  0  0  0  0  0  0
   63.8290   32.4770   46.5570 O   0  0  0  0  0  0  0  0  0  0  0  0
   64.7740   32.1800   46.7700 H   0  0  0  0  0  0  0  0  0  0  0  0
   61.8100   31.8140   47.7300 C   0  0  0  0  0  0  0  0  0  0  0  0
   61.7096   30.9390   47.0710 H   0  0  0  0  0  0  0  0  0  0  0  0
   60.2110   28.6310   48.8380 C   0  0  0  0  0  0  0  0  0  0  0  0
   60.7741   28.5788   49.7815 H   0  0  0  0  0  0  0  0  0  0  0  0
   59.9370   27.5810   48.0440 N   0  0  0  0  0  0  0  0  0  0  0  0
   60.2430   26.5960   48.2060 H   0  0  0  0  0  0  0  0  0  0  0  0
  1  2  1  0
  2  3  1  0
  3  4  2  0
  3  5  1  0
  5  6  1  0
  5  7  2  0
  7  8  1  0
  7  9  1  0
  9 10  2  0
 10 11  1  0
 11 12  1  0
 11 13  1  0
 11 14  1  0
 14 15  1  0
 14 16  1  0
 14 17  1  0
 17 18  1  0
 18 19  1  0
 18 20  1  0
 18 21  1  0
 17 22  1  0
 22 23  1  0
 22 24  1  0
 22 25  1  0
 25 26  2  0
 26 27  1  0
 26 28  1  0
 28 29  1  0
 28 30  2  0
 30 31  1  0
 30 32  1  0
 32 33  1  0
 32 34  2  0
 34 35  1  0
 10 36  1  0
 36 37  1  0
 37 38  2  0
 37 39  1  0
 39 40  2  0
 40 41  1  0
 40 42  1  0
 42 43  1  0
 42 44  2  0
 44 45  1  0
 44 46  1  0
 46 47  1  0
 47 48  1  0
 46 49  2  0
 49 50  1  0
 36 51  2  0
 51 52  1  0
 51 53  1  0
 53 54  1  0
 53  9  1  0
 34 25  1  0
 49 39  1  0
M  CHG  1   2  -1
M  END
>  <UniqueID>  (35) 
31

>  <SMILES>  (35) 
CN(CCc1c(C(=O)c2cccc(O)c2)c[nH]c1/C=C\C([NH-])=O)Cc1ccccc1

>  <Energy>  (35) 
89.27393308913442

>  <Genealogy>  (35) 
CN(CCc1c(C(=O)c2cccc(O)c2)c[nH]c1C=CC([NH-])=O)Cc1ccccc1 (protonated)
CN(CCc1c(C(=O)c2cccc(O)c2)c[nH]c1/C=C\C([NH-])=O)Cc1ccccc1 (cis-trans isomerization)
CN(CCc1c(C(=O)c2cccc(O)c2)c[nH]c1/C=C\C([NH-])=O)Cc1ccccc1 (3D coordinates assigned)
CN(CCc1c(C(=O)c2cccc(O)c2)c[nH]c1/C=C\C([NH-])=O)Cc1ccccc1 (optimized conformer: 89.27393308913442 kcal/mol)

>  <smiles>  (35) 
CN(CCc1c(C(=O)c2cccc(O)c2)c[nH]c1C=CC(N)=O)Cc1ccccc1

>  <score_type>  (35) 
oracle

>  <origin>  (35) 
adg

>  <m_score__min__energy>  (35) 
-12.56

>  <m_primary>  (35) 
energy

$$$$
36:0
     RDKit          3D

 39 41  0  0  0  0  0  0  0  0999 V2000
   54.2950   25.1760   45.9840 O   0  0  0  0  0  0  0  0  0  0  0  0
   54.5200   24.2000   45.2200 C   0  0  0  0  0  0  0  0  0  0  0  0
   53.4490   23.5900   44.5780 O   0  0  0  0  0  0  0  0  0  0  0  0
   55.9010   23.6830   45.0580 C   0  0  0  0  0  0  0  0  0  0  0  0
   56.0770   22.4300   44.4380 C   0  0  0  0  0  0  0  0  0  0  0  0
   57.3550   21.9270   44.1930 C   0  0  0  0  0  0  0  0  0  0  0  0
   58.4780   22.6610   44.5650 C   0  0  0  0  0  0  0  0  0  0  0  0
   58.3290   23.8950   45.1980 C   0  0  0  0  0  0  0  0  0  0  0  0
   57.0510   24.4210   45.4550 C   0  0  0  0  0  0  0  0  0  0  0  0
   56.9560   25.6950   46.2110 C   0  0  0  0  0  0  0  0  0  0  0  0
   57.5710   25.8130   47.3040 O   0  0  0  0  0  0  0  0  0  0  0  0
   56.2690   26.8370   45.6820 N   0  0  0  0  0  0  0  0  0  0  0  0
   56.7940   28.1690   45.5800 C   0  0  0  0  0  0  0  0  0  0  0  0
   58.0400   28.4430   46.1510 C   0  0  0  0  0  0  0  0  0  0  0  0
   58.5940   29.7230   46.0650 C   0  0  0  0  0  0  0  0  0  0  0  0
   57.9020   30.7640   45.4180 C   0  0  0  0  0  0  0  0  0  0  0  0
   58.4790   32.0880   45.3210 N   0  0  0  0  0  0  0  0  0  0  0  0
   58.0190   33.1090   44.3900 C   0  0  0  0  0  0  0  0  0  0  0  0
   58.7760   34.3780   44.7570 C   0  0  0  0  0  0  0  0  0  0  0  0
   59.9620   33.9240   45.5980 C   0  0  0  0  0  0  0  0  0  0  0  0
   59.5810   32.5580   46.1480 C   0  0  0  0  0  0  0  0  0  0  0  0
   56.6310   30.4900   44.8760 C   0  0  0  0  0  0  0  0  0  0  0  0
   56.0730   29.2100   44.9670 C   0  0  0  0  0  0  0  0  0  0  0  0
   54.7920   28.9970   44.4720 O   0  0  0  0  0  0  0  0  0  0  0  0
   55.1958   21.8411   44.1435 H   0  0  0  0  0  0  0  0  0  0  0  0
   57.4756   20.9486   43.7050 H   0  0  0  0  0  0  0  0  0  0  0  0
   59.4843   22.2672   44.3594 H   0  0  0  0  0  0  0  0  0  0  0  0
   59.2215   24.4629   45.4995 H   0  0  0  0  0  0  0  0  0  0  0  0
   58.5888   27.6448   46.6722 H   0  0  0  0  0  0  0  0  0  0  0  0
   59.5817   29.9192   46.5078 H   0  0  0  0  0  0  0  0  0  0  0  0
   58.2460   32.8136   43.3550 H   0  0  0  0  0  0  0  0  0  0  0  0
   56.9306   33.2544   44.4547 H   0  0  0  0  0  0  0  0  0  0  0  0
   59.1244   34.8924   43.8493 H   0  0  0  0  0  0  0  0  0  0  0  0
   58.1377   35.0863   45.3055 H   0  0  0  0  0  0  0  0  0  0  0  0
   60.8660   33.8480   44.9759 H   0  0  0  0  0  0  0  0  0  0  0  0
   60.1832   34.6381   46.4049 H   0  0  0  0  0  0  0  0  0  0  0  0
   60.4335   31.8663   46.0787 H   0  0  0  0  0  0  0  0  0  0  0  0
   59.2942   32.6153   47.2084 H   0  0  0  0  0  0  0  0  0  0  0  0
   56.0700   31.2925   44.3748 H   0  0  0  0  0  0  0  0  0  0  0  0
  1  2  2  0
  2  3  1  0
  2  4  1  0
  4  5  2  0
  5  6  1  0
  6  7  2  0
  7  8  1  0
  8  9  2  0
  9 10  1  0
 10 11  2  0
 10 12  1  0
 12 13  1  0
 13 14  2  0
 14 15  1  0
 15 16  2  0
 16 17  1  0
 17 18  1  0
 18 19  1  0
 19 20  1  0
 20 21  1  0
 16 22  1  0
 22 23  2  0
 23 24  1  0
  9  4  1  0
 23 13  1  0
 21 17  1  0
  5 25  1  0
  6 26  1  0
  7 27  1  0
  8 28  1  0
 14 29  1  0
 15 30  1  0
 18 31  1  0
 18 32  1  0
 19 33  1  0
 19 34  1  0
 20 35  1  0
 20 36  1  0
 21 37  1  0
 21 38  1  0
 22 39  1  0
M  CHG  3   3  -1  12  -1  24  -1
M  END
>  <UniqueID>  (36) 
32

>  <SMILES>  (36) 
O=C([O-])c1ccccc1C(=O)[N-]c1ccc(N2CCCC2)cc1[O-]

>  <Energy>  (36) 
56.823884250495766

>  <Genealogy>  (36) 
O=C([O-])c1ccccc1C(=O)[N-]c1ccc(N2CCCC2)cc1[O-] (protonated)
O=C([O-])c1ccccc1C(=O)[N-]c1ccc(N2CCCC2)cc1[O-] (3D coordinates assigned)
O=C([O-])c1ccccc1C(=O)[N-]c1ccc(N2CCCC2)cc1[O-] (nonaromatic ring conformer: 56.823884250495766 kcal/mol)

>  <smiles>  (36) 
O=C(O)c1ccccc1C(=O)Nc1ccc(N2CCCC2)cc1O

>  <score_type>  (36) 
oracle

>  <origin>  (36) 
adg

>  <m_score__min__energy>  (36) 
-14.5

>  <m_primary>  (36) 
energy

$$$$
37:0
     RDKit          3D

 27 28  0  0  0  0  0  0  0  0999 V2000
   54.7730   29.3360   44.1390 O   0  0  0  0  0  0  0  0  0  0  0  0
   56.0110   29.5220   44.2970 C   0  0  0  0  0  0  0  0  0  0  0  0
   56.4410   30.8490   44.2420 C   0  0  0  0  0  0  0  0  0  0  0  0
   57.7210   31.3910   44.3690 C   0  0  0  0  0  0  0  0  0  0  0  0
   57.8430   32.8990   44.2710 C   0  0  0  0  0  0  0  0  0  0  0  0
   58.4320   33.4620   45.5370 C   0  0  0  0  0  0  0  0  0  0  0  0
   59.2830   34.5790   45.4870 C   0  0  0  0  0  0  0  0  0  0  0  0
   59.8570   35.0800   46.6590 C   0  0  0  0  0  0  0  0  0  0  0  0
   59.5930   34.4680   47.8870 C   0  0  0  0  0  0  0  0  0  0  0  0
   60.1540   34.9570   49.0210 F   0  0  0  0  0  0  0  0  0  0  0  0
   58.7550   33.3490   47.9440 C   0  0  0  0  0  0  0  0  0  0  0  0
   58.5020   32.7500   49.1340 F   0  0  0  0  0  0  0  0  0  0  0  0
   58.1800   32.8450   46.7740 C   0  0  0  0  0  0  0  0  0  0  0  0
   58.8890   30.6800   44.6310 C   0  0  0  0  0  0  0  0  0  0  0  0
   59.0640   29.3160   44.7830 C   0  0  0  0  0  0  0  0  0  0  0  0
   58.1260   28.2860   44.7150 C   0  0  0  0  0  0  0  0  0  0  0  0
   58.7100   26.7620   44.9290 S   0  0  0  0  0  0  0  0  0  0  0  0
   56.7880   28.4230   44.4980 N   0  0  0  0  0  0  0  0  0  0  0  0
   55.6426   31.5861   44.0711 H   0  0  0  0  0  0  0  0  0  0  0  0
   58.4948   33.1554   43.4228 H   0  0  0  0  0  0  0  0  0  0  0  0
   56.8415   33.3287   44.1219 H   0  0  0  0  0  0  0  0  0  0  0  0
   59.4983   35.0610   44.5220 H   0  0  0  0  0  0  0  0  0  0  0  0
   60.5180   35.9581   46.6144 H   0  0  0  0  0  0  0  0  0  0  0  0
   57.5270   31.9611   46.8218 H   0  0  0  0  0  0  0  0  0  0  0  0
   59.8003   31.2878   44.7312 H   0  0  0  0  0  0  0  0  0  0  0  0
   60.0964   28.9963   44.9879 H   0  0  0  0  0  0  0  0  0  0  0  0
   56.2500   27.5230   44.4890 H   0  0  0  0  0  0  0  0  0  0  0  0
  1  2  2  0
  2  3  1  0
  3  4  2  0
  4  5  1  0
  5  6  1  0
  6  7  2  0
  7  8  1  0
  8  9  2  0
  9 10  1  0
  9 11  1  0
 11 12  1  0
 11 13  2  0
  4 14  1  0
 14 15  2  0
 15 16  1  0
 16 17  2  0
 16 18  1  0
 18  2  1  0
 13  6  1  0
  3 19  1  0
  5 20  1  0
  5 21  1  0
  7 22  1  0
  8 23  1  0
 13 24  1  0
 14 25  1  0
 15 26  1  0
 18 27  1  0
M  END
>  <UniqueID>  (37) 
33

>  <SMILES>  (37) 
O=c1cc(Cc2ccc(F)c(F)c2)ccc(=S)[nH]1

>  <Energy>  (37) 
50.11619959151831

>  <Genealogy>  (37) 
O=c1cc(Cc2ccc(F)c(F)c2)ccc(=S)[nH]1 (3D coordinates assigned)
O=c1cc(Cc2ccc(F)c(F)c2)ccc(=S)[nH]1 (optimized conformer: 50.11619959151831 kcal/mol)

>  <smiles>  (37) 
O=c1cc(Cc2ccc(F)c(F)c2)ccc(=S)[nH]1

>  <score_type>  (37) 
oracle

>  <origin>  (37) 
adg

>  <m_score__min__energy>  (37) 
-6.8499999999999996

>  <m_primary>  (37) 
energy

$$$$
38:0
     RDKit          3D

 66 70  0  0  0  0  0  0  0  0999 V2000
   56.0150   29.4570   53.4810 H   0  0  0  0  0  0  0  0  0  0  0  0
   56.9880   29.8290   53.4060 N   0  0  0  0  0  0  0  0  0  0  0  0
   57.4350   30.3100   52.2930 C   0  0  0  0  0  0  0  0  0  0  0  0
   57.9430   29.5400   51.3040 N   0  0  0  0  0  0  0  0  0  0  0  0
   58.3230   30.3000   50.2440 C   0  0  0  0  0  0  0  0  0  0  0  0
   58.1470   31.6710   50.4120 C   0  0  0  0  0  0  0  0  0  0  0  0
   57.4410   31.9510   51.9150 S   0  0  0  0  0  0  0  0  0  0  0  0
   58.3960   32.6950   49.3460 C   0  0  0  0  0  0  0  0  0  0  0  0
   57.4380   32.9825   48.8881 H   0  0  0  0  0  0  0  0  0  0  0  0
   58.8757   33.5747   49.7999 H   0  0  0  0  0  0  0  0  0  0  0  0
   59.3300   32.1190   48.2560 C   0  0  2  0  0  0  0  0  0  0  0  0
   60.3341   32.0397   48.6981 H   0  0  0  0  0  0  0  0  0  0  0  0
   59.4340   33.0260   47.0910 N   0  0  0  0  0  0  0  0  0  0  0  0
   60.6460   33.7820   46.8220 C   0  0  0  0  0  0  0  0  0  0  0  0
   60.7410   34.4800   45.7750 O   0  0  0  0  0  0  0  0  0  0  0  0
   61.8130   33.7290   47.7240 C   0  0  0  0  0  0  0  0  0  0  0  0
   61.7200   34.1810   49.0470 C   0  0  0  0  0  0  0  0  0  0  0  0
   60.7904   34.6509   49.4004 H   0  0  0  0  0  0  0  0  0  0  0  0
   62.8020   34.0380   49.9200 C   0  0  0  0  0  0  0  0  0  0  0  0
   62.7131   34.3792   50.9619 H   0  0  0  0  0  0  0  0  0  0  0  0
   64.0020   33.4610   49.4740 C   0  0  0  0  0  0  0  0  0  0  0  0
   65.0920   33.2440   50.3900 N   0  0  0  0  0  0  0  0  0  0  0  0
   66.0130   32.1180   50.1780 C   0  0  0  0  0  0  0  0  0  0  0  0
   65.4442   31.1769   50.2082 H   0  0  0  0  0  0  0  0  0  0  0  0
   66.4997   32.2416   49.1993 H   0  0  0  0  0  0  0  0  0  0  0  0
   67.0970   32.0850   51.2640 C   0  0  0  0  0  0  0  0  0  0  0  0
   66.6600   31.6895   52.1928 H   0  0  0  0  0  0  0  0  0  0  0  0
   67.9178   31.4429   50.9117 H   0  0  0  0  0  0  0  0  0  0  0  0
   67.6440   33.4320   51.5270 N   0  0  0  0  0  0  0  0  0  0  0  0
   68.4440   33.9310   50.3940 C   0  0  0  0  0  0  0  0  0  0  0  0
   69.3194   34.4770   50.7756 H   0  0  0  0  0  0  0  0  0  0  0  0
   68.7801   33.0821   49.7805 H   0  0  0  0  0  0  0  0  0  0  0  0
   67.8295   34.6062   49.7805 H   0  0  0  0  0  0  0  0  0  0  0  0
   66.6190   34.4180   51.9560 C   0  0  0  0  0  0  0  0  0  0  0  0
   66.7102   34.5581   53.0432 H   0  0  0  0  0  0  0  0  0  0  0  0
   66.8123   35.3394   51.3872 H   0  0  0  0  0  0  0  0  0  0  0  0
   65.1660   34.0040   51.6430 C   0  0  0  0  0  0  0  0  0  0  0  0
   64.7852   33.3799   52.4649 H   0  0  0  0  0  0  0  0  0  0  0  0
   64.5584   34.9147   51.5359 H   0  0  0  0  0  0  0  0  0  0  0  0
   64.1130   33.0670   48.1300 C   0  0  0  0  0  0  0  0  0  0  0  0
   65.0598   32.6465   47.7601 H   0  0  0  0  0  0  0  0  0  0  0  0
   63.0280   33.2060   47.2600 C   0  0  0  0  0  0  0  0  0  0  0  0
   63.1279   32.9038   46.2070 H   0  0  0  0  0  0  0  0  0  0  0  0
   58.2570   33.1900   46.2130 C   0  0  0  0  0  0  0  0  0  0  0  0
   57.3914   32.6932   46.6754 H   0  0  0  0  0  0  0  0  0  0  0  0
   58.0620   34.2651   46.0858 H   0  0  0  0  0  0  0  0  0  0  0  0
   58.5110   32.5720   44.8300 C   0  0  0  0  0  0  0  0  0  0  0  0
   57.8911   33.0886   44.0824 H   0  0  0  0  0  0  0  0  0  0  0  0
   59.5761   32.6834   44.5787 H   0  0  0  0  0  0  0  0  0  0  0  0
   58.1610   31.1080   44.8390 C   0  0  0  0  0  0  0  0  0  0  0  0
   59.1690   30.1360   44.7380 C   0  0  0  0  0  0  0  0  0  0  0  0
   60.2248   30.4421   44.6981 H   0  0  0  0  0  0  0  0  0  0  0  0
   58.8330   28.7780   44.6880 C   0  0  0  0  0  0  0  0  0  0  0  0
   59.6255   28.0183   44.6179 H   0  0  0  0  0  0  0  0  0  0  0  0
   57.4920   28.3860   44.7270 C   0  0  0  0  0  0  0  0  0  0  0  0
   57.2305   27.3182   44.6900 H   0  0  0  0  0  0  0  0  0  0  0  0
   56.4820   29.3500   44.8130 C   0  0  0  0  0  0  0  0  0  0  0  0
   55.1490   28.9600   44.8410 O   0  0  0  0  0  0  0  0  0  0  0  0
   56.8150   30.7070   44.8660 C   0  0  0  0  0  0  0  0  0  0  0  0
   56.0194   31.4639   44.9291 H   0  0  0  0  0  0  0  0  0  0  0  0
   58.9030   30.6940   47.8320 C   0  0  0  0  0  0  0  0  0  0  0  0
   57.8704   30.7257   47.4542 H   0  0  0  0  0  0  0  0  0  0  0  0
   59.5903   30.3416   47.0488 H   0  0  0  0  0  0  0  0  0  0  0  0
   58.9740   29.7170   49.0220 C   0  0  0  0  0  0  0  0  0  0  0  0
   58.4581   28.7840   48.7513 H   0  0  0  0  0  0  0  0  0  0  0  0
   60.0324   29.5231   49.2505 H   0  0  0  0  0  0  0  0  0  0  0  0
  1  2  1  0
  2  3  2  0
  3  4  1  0
  4  5  1  0
  5  6  2  0
  6  7  1  0
  6  8  1  0
  8  9  1  0
  8 10  1  0
  8 11  1  0
 11 12  1  1
 11 13  1  0
 13 14  1  0
 14 15  2  0
 14 16  1  0
 16 17  2  0
 17 18  1  0
 17 19  1  0
 19 20  1  0
 19 21  2  0
 21 22  1  0
 22 23  1  0
 23 24  1  0
 23 25  1  0
 23 26  1  0
 26 27  1  0
 26 28  1  0
 26 29  1  0
 29 30  1  0
 30 31  1  0
 30 32  1  0
 30 33  1  0
 29 34  1  0
 34 35  1  0
 34 36  1  0
 34 37  1  0
 37 38  1  0
 37 39  1  0
 21 40  1  0
 40 41  1  0
 40 42  2  0
 42 43  1  0
 13 44  1  0
 44 45  1  0
 44 46  1  0
 44 47  1  0
 47 48  1  0
 47 49  1  0
 47 50  1  0
 50 51  2  0
 51 52  1  0
 51 53  1  0
 53 54  1  0
 53 55  2  0
 55 56  1  0
 55 57  1  0
 57 58  1  0
 57 59  2  0
 59 60  1  0
 11 61  1  0
 61 62  1  0
 61 63  1  0
 61 64  1  0
 64 65  1  0
 64 66  1  0
  7  3  1  0
 42 16  1  0
 59 50  1  0
 64  5  1  0
 37 22  1  0
M  CHG  2   4  -1  58  -1
M  END
>  <UniqueID>  (38) 
34

>  <SMILES>  (38) 
[H]/N=c1\[n-]c2c(s1)C[C@H](N(CCc1cccc([O-])c1)C(=O)c1ccc(N3CCN(C)CC3)cc1)CC2

>  <Energy>  (38) 
113.60565025821107

>  <Genealogy>  (38) 
CN1CCN(c2ccc(C(=O)N(CCc3cccc([O-])c3)C3CCc4[n-]c(=N)sc4C3)cc2)CC1 (protonated)
CN1CCN(c2ccc(C(=O)N(CCc3cccc([O-])c3)[C@@H]3CCc4[n-]c(=N)sc4C3)cc2)CC1 (chirality)
[H]/N=c1\[n-]c2c(s1)C[C@H](N(CCc1cccc([O-])c1)C(=O)c1ccc(N3CCN(C)CC3)cc1)CC2 (cis-trans isomerization)
[H]/N=c1\[n-]c2c(s1)C[C@H](N(CCc1cccc([O-])c1)C(=O)c1ccc(N3CCN(C)CC3)cc1)CC2 (3D coordinates assigned)
[H]/N=c1\[n-]c2c(s1)C[C@H](N(CCc1cccc([O-])c1)C(=O)c1ccc(N3CCN(C)CC3)cc1)CC2 (nonaromatic ring conformer: 113.60565025821107 kcal/mol)

>  <smiles>  (38) 
CN1CCN(c2ccc(C(=O)N(CCc3cccc(O)c3)C3CCc4[nH]c(=N)sc4C3)cc2)CC1

>  <score_type>  (38) 
oracle

>  <origin>  (38) 
adg

>  <m_score__min__energy>  (38) 
-13.84

>  <m_primary>  (38) 
energy

$$$$
39:0
     RDKit          3D

 49 51  0  0  0  0  0  0  0  0999 V2000
   58.4640   32.9550   45.3910 O   0  0  0  0  0  0  0  0  0  0  0  0
   57.7570   31.9370   45.6210 C   0  0  0  0  0  0  0  0  0  0  0  0
   56.5930   31.6790   44.8290 N   0  0  0  0  0  0  0  0  0  0  0  0
   56.5680   30.7600   43.6950 C   0  0  0  0  0  0  0  0  0  0  0  0
   56.2260   29.3270   44.1510 C   0  0  2  0  0  0  0  0  0  0  0  0
   55.1390   29.3240   45.0440 O   0  0  0  0  0  0  0  0  0  0  0  0
   57.4240   28.6250   44.7620 C   0  0  0  0  0  0  0  0  0  0  0  0
   57.2360   27.6360   45.7450 C   0  0  0  0  0  0  0  0  0  0  0  0
   58.3330   26.9720   46.3010 C   0  0  0  0  0  0  0  0  0  0  0  0
   59.6270   27.2820   45.8800 C   0  0  0  0  0  0  0  0  0  0  0  0
   59.8280   28.2570   44.9000 C   0  0  0  0  0  0  0  0  0  0  0  0
   58.7340   28.9250   44.3400 C   0  0  0  0  0  0  0  0  0  0  0  0
   58.1260   31.0060   46.6470 N   0  0  0  0  0  0  0  0  0  0  0  0
   59.1770   31.2300   47.6020 C   0  0  0  0  0  0  0  0  0  0  0  0
   60.4110   30.5870   47.4300 C   0  0  0  0  0  0  0  0  0  0  0  0
   61.4440   30.7730   48.3540 C   0  0  0  0  0  0  0  0  0  0  0  0
   61.2490   31.5970   49.4710 C   0  0  0  0  0  0  0  0  0  0  0  0
   62.5430   31.8460   50.6410 S   0  0  0  0  0  0  0  0  0  0  0  0
   61.9260   32.2130   51.9600 O   0  0  0  0  0  0  0  0  0  0  0  0
   63.3380   30.5780   50.8030 O   0  0  0  0  0  0  0  0  0  0  0  0
   63.5900   33.1380   50.0940 N   0  0  0  0  0  0  0  0  0  0  0  0
   62.8010   34.2280   49.5080 C   0  0  0  0  0  0  0  0  0  0  0  0
   62.7250   34.0030   48.0050 C   0  0  0  0  0  0  0  0  0  0  0  0
   63.8020   32.9840   47.6890 C   0  0  0  0  0  0  0  0  0  0  0  0
   64.4690   32.6670   49.0180 C   0  0  0  0  0  0  0  0  0  0  0  0
   60.0090   32.2180   49.6640 C   0  0  0  0  0  0  0  0  0  0  0  0
   58.9770   32.0330   48.7400 C   0  0  0  0  0  0  0  0  0  0  0  0
   55.8091   31.0987   42.9744 H   0  0  0  0  0  0  0  0  0  0  0  0
   57.5648   30.7508   43.2299 H   0  0  0  0  0  0  0  0  0  0  0  0
   55.9365   28.7640   43.2514 H   0  0  0  0  0  0  0  0  0  0  0  0
   55.2090   30.1280   45.6210 H   0  0  0  0  0  0  0  0  0  0  0  0
   56.2185   27.3836   46.0782 H   0  0  0  0  0  0  0  0  0  0  0  0
   58.1761   26.2034   47.0721 H   0  0  0  0  0  0  0  0  0  0  0  0
   60.4887   26.7585   46.3199 H   0  0  0  0  0  0  0  0  0  0  0  0
   60.8482   28.4998   44.5681 H   0  0  0  0  0  0  0  0  0  0  0  0
   58.8976   29.6889   43.5657 H   0  0  0  0  0  0  0  0  0  0  0  0
   57.6660   30.0680   46.6310 H   0  0  0  0  0  0  0  0  0  0  0  0
   60.5678   29.9309   46.5611 H   0  0  0  0  0  0  0  0  0  0  0  0
   62.4115   30.2717   48.2039 H   0  0  0  0  0  0  0  0  0  0  0  0
   61.7880   34.2269   49.9367 H   0  0  0  0  0  0  0  0  0  0  0  0
   63.2725   35.1980   49.7243 H   0  0  0  0  0  0  0  0  0  0  0  0
   61.7349   33.6143   47.7248 H   0  0  0  0  0  0  0  0  0  0  0  0
   62.8740   34.9385   47.4459 H   0  0  0  0  0  0  0  0  0  0  0  0
   63.3562   32.0759   47.2570 H   0  0  0  0  0  0  0  0  0  0  0  0
   64.5235   33.3697   46.9537 H   0  0  0  0  0  0  0  0  0  0  0  0
   64.6209   31.5814   49.1092 H   0  0  0  0  0  0  0  0  0  0  0  0
   65.4480   33.1646   49.0809 H   0  0  0  0  0  0  0  0  0  0  0  0
   59.8465   32.8541   50.5466 H   0  0  0  0  0  0  0  0  0  0  0  0
   58.0031   32.5177   48.9032 H   0  0  0  0  0  0  0  0  0  0  0  0
  1  2  2  0
  2  3  1  0
  3  4  1  0
  4  5  1  0
  5  6  1  0
  5  7  1  0
  7  8  2  0
  8  9  1  0
  9 10  2  0
 10 11  1  0
 11 12  2  0
  2 13  1  0
 13 14  1  0
 14 15  2  0
 15 16  1  0
 16 17  2  0
 17 18  1  0
 18 19  2  0
 18 20  2  0
 18 21  1  0
 21 22  1  0
 22 23  1  0
 23 24  1  0
 24 25  1  0
 17 26  1  0
 26 27  2  0
 12  7  1  0
 27 14  1  0
 25 21  1  0
  4 28  1  0
  4 29  1  0
  5 30  1  6
  6 31  1  0
  8 32  1  0
  9 33  1  0
 10 34  1  0
 11 35  1  0
 12 36  1  0
 13 37  1  0
 15 38  1  0
 16 39  1  0
 22 40  1  0
 22 41  1  0
 23 42  1  0
 23 43  1  0
 24 44  1  0
 24 45  1  0
 25 46  1  0
 25 47  1  0
 26 48  1  0
 27 49  1  0
M  CHG  1   3  -1
M  END
>  <UniqueID>  (39) 
35

>  <SMILES>  (39) 
O=C([N-]C[C@H](O)c1ccccc1)Nc1ccc(S(=O)(=O)N2CCCC2)cc1

>  <Energy>  (39) 
52.35867607319335

>  <Genealogy>  (39) 
O=C([N-]CC(O)c1ccccc1)Nc1ccc(S(=O)(=O)N2CCCC2)cc1 (protonated)
O=C([N-]C[C@H](O)c1ccccc1)Nc1ccc(S(=O)(=O)N2CCCC2)cc1 (chirality)
O=C([N-]C[C@H](O)c1ccccc1)Nc1ccc(S(=O)(=O)N2CCCC2)cc1 (3D coordinates assigned)
O=C([N-]C[C@H](O)c1ccccc1)Nc1ccc(S(=O)(=O)N2CCCC2)cc1 (nonaromatic ring conformer: 52.35867607319335 kcal/mol)

>  <smiles>  (39) 
O=C(NCC(O)c1ccccc1)Nc1ccc(S(=O)(=O)N2CCCC2)cc1

>  <score_type>  (39) 
oracle

>  <origin>  (39) 
adg

>  <m_score__min__energy>  (39) 
-10.210000000000001

>  <m_primary>  (39) 
energy

$$$$
40:0
     RDKit          3D

 40 42  0  0  0  0  0  0  0  0999 V2000
   60.8691   33.5951   44.8543 H   0  0  0  0  0  0  0  0  0  0  0  0
   60.6030   33.7770   45.9060 C   0  0  0  0  0  0  0  0  0  0  0  0
   61.6080   33.8310   46.8750 C   0  0  0  0  0  0  0  0  0  0  0  0
   62.6576   33.6922   46.5767 H   0  0  0  0  0  0  0  0  0  0  0  0
   61.2960   34.0600   48.2240 C   0  0  0  0  0  0  0  0  0  0  0  0
   62.4460   34.1180   49.2160 C   0  0  0  0  0  0  0  0  0  0  0  0
   62.1768   35.1255   49.5660 H   0  0  0  0  0  0  0  0  0  0  0  0
   63.7480   33.4290   48.8250 C   0  0  0  0  0  0  0  0  0  0  0  0
   63.8432   32.9518   47.8385 H   0  0  0  0  0  0  0  0  0  0  0  0
   64.8051   33.7301   48.7811 H   0  0  0  0  0  0  0  0  0  0  0  0
   62.8460   32.8110   49.8870 C   0  0  0  0  0  0  0  0  0  0  0  0
   62.2905   31.8874   49.6670 H   0  0  0  0  0  0  0  0  0  0  0  0
   62.9829   32.4810   50.9274 H   0  0  0  0  0  0  0  0  0  0  0  0
   59.9410   34.2350   48.5830 C   0  0  0  0  0  0  0  0  0  0  0  0
   59.6745   34.4176   49.6345 H   0  0  0  0  0  0  0  0  0  0  0  0
   58.9360   34.1780   47.6130 C   0  0  0  0  0  0  0  0  0  0  0  0
   57.8850   34.3106   47.9094 H   0  0  0  0  0  0  0  0  0  0  0  0
   59.2550   33.9530   46.2630 C   0  0  0  0  0  0  0  0  0  0  0  0
   58.1890   33.8930   45.2350 C   0  0  0  0  0  0  0  0  0  0  0  0
   57.3050   34.7920   45.1980 O   0  0  0  0  0  0  0  0  0  0  0  0
   58.1150   32.7630   44.3480 N   0  0  0  0  0  0  0  0  0  0  0  0
   57.6230   31.5720   44.5650 C   0  0  0  0  0  0  0  0  0  0  0  0
   56.6250   30.9970   43.7490 C   0  0  0  0  0  0  0  0  0  0  0  0
   56.2207   31.5552   42.8917 H   0  0  0  0  0  0  0  0  0  0  0  0
   56.1550   29.7150   44.0380 C   0  0  0  0  0  0  0  0  0  0  0  0
   55.3608   29.2711   43.4199 H   0  0  0  0  0  0  0  0  0  0  0  0
   56.6880   28.9930   45.1080 C   0  0  0  0  0  0  0  0  0  0  0  0
   56.1790   27.6840   45.4090 N   0  0  0  0  0  0  0  0  0  0  0  0
   55.1500   27.5260   45.3220 H   0  0  0  0  0  0  0  0  0  0  0  0
   57.0100   26.5570   45.7290 C   0  0  0  0  0  0  0  0  0  0  0  0
   56.3400   25.2300   46.4090 S   0  0  0  0  0  0  0  0  0  0  0  0
   58.7320   26.4860   45.2170 S   0  0  0  0  0  0  0  0  0  0  0  0
   58.3730   27.0190   43.5150 C   0  0  0  0  0  0  0  0  0  0  0  0
   57.7586   27.9311   43.5383 H   0  0  0  0  0  0  0  0  0  0  0  0
   59.3166   27.2258   42.9888 H   0  0  0  0  0  0  0  0  0  0  0  0
   57.8267   26.2223   42.9888 H   0  0  0  0  0  0  0  0  0  0  0  0
   57.6740   29.5940   45.8990 C   0  0  0  0  0  0  0  0  0  0  0  0
   58.0892   29.0518   46.7613 H   0  0  0  0  0  0  0  0  0  0  0  0
   58.1220   30.8460   45.6070 N   0  0  0  0  0  0  0  0  0  0  0  0
   58.8630   31.2610   46.2170 H   0  0  0  0  0  0  0  0  0  0  0  0
  1  2  1  0
  2  3  2  0
  3  4  1  0
  3  5  1  0
  5  6  1  0
  6  7  1  0
  6  8  1  0
  8  9  1  0
  8 10  1  0
  8 11  1  0
 11 12  1  0
 11 13  1  0
  5 14  2  0
 14 15  1  0
 14 16  1  0
 16 17  1  0
 16 18  2  0
 18 19  1  0
 19 20  2  0
 19 21  1  0
 21 22  2  0
 22 23  1  0
 23 24  1  0
 23 25  2  0
 25 26  1  0
 25 27  1  0
 27 28  1  0
 28 29  1  0
 28 30  1  0
 30 31  2  0
 30 32  1  0
 32 33  1  0
 33 34  1  0
 33 35  1  0
 33 36  1  0
 27 37  2  0
 37 38  1  0
 37 39  1  0
 39 40  1  0
 18  2  1  0
 39 22  1  0
 11  6  1  0
M  END
>  <UniqueID>  (40) 
36

>  <SMILES>  (40) 
CSC(=S)Nc1cc/c(=N\C(=O)c2ccc(C3CC3)cc2)[nH]c1

>  <Energy>  (40) 
317.61633155937454

>  <Genealogy>  (40) 
CSC(=S)Nc1cc/c(=N\C(=O)c2ccc(C3CC3)cc2)[nH]c1 (cis-trans isomerization)
CSC(=S)Nc1cc/c(=N\C(=O)c2ccc(C3CC3)cc2)[nH]c1 (3D coordinates assigned)
CSC(=S)Nc1cc/c(=N\C(=O)c2ccc(C3CC3)cc2)[nH]c1 (nonaromatic ring conformer: 317.61633155937454 kcal/mol)

>  <smiles>  (40) 
CSC(=S)Nc1ccc(=NC(=O)c2ccc(C3CC3)cc2)[nH]c1

>  <score_type>  (40) 
oracle

>  <origin>  (40) 
adg

>  <m_score__min__energy>  (40) 
-7.9699999999999998

>  <m_primary>  (40) 
energy

$$$$
41:0
     RDKit          3D

 55 58  0  0  0  0  0  0  0  0999 V2000
   58.8730   24.9740   46.3710 C   0  0  0  0  0  0  0  0  0  0  0  0
   58.7440   26.4500   46.1380 C   0  0  0  0  0  0  0  0  0  0  0  0
   57.4970   27.0810   46.2750 C   0  0  0  0  0  0  0  0  0  0  0  0
   57.3680   28.4510   46.0230 C   0  0  0  0  0  0  0  0  0  0  0  0
   58.4840   29.2030   45.6290 C   0  0  0  0  0  0  0  0  0  0  0  0
   58.3440   30.6480   45.3550 C   0  0  0  0  0  0  0  0  0  0  0  0
   59.0860   31.5510   46.1310 C   0  0  0  0  0  0  0  0  0  0  0  0
   58.9480   32.9300   45.9220 C   0  0  0  0  0  0  0  0  0  0  0  0
   59.7300   33.8990   46.7240 C   0  0  0  0  0  0  0  0  0  0  0  0
   59.4320   35.1240   46.6680 O   0  0  0  0  0  0  0  0  0  0  0  0
   60.8010   33.4770   47.5910 N   0  0  0  0  0  0  0  0  0  0  0  0
   60.9670   34.1460   48.8860 C   0  0  0  0  0  0  0  0  0  0  0  0
   62.2170   33.6450   49.6030 C   0  0  0  0  0  0  0  0  0  0  0  0
   63.3370   33.6360   48.6450 N   0  0  0  0  0  0  0  0  0  0  0  0
   64.6200   33.4410   49.3570 C   0  0  0  0  0  0  0  0  0  0  0  0
   64.5680   33.8420   50.8350 C   0  0  0  0  0  0  0  0  0  0  0  0
   64.8400   32.4030   51.2420 C   0  0  0  0  0  0  0  0  0  0  0  0
   64.8520   31.9880   49.7800 C   0  0  0  0  0  0  0  0  0  0  0  0
   63.1370   32.5790   47.6180 C   0  0  0  0  0  0  0  0  0  0  0  0
   61.6570   32.3330   47.2430 C   0  0  0  0  0  0  0  0  0  0  0  0
   58.1100   33.3750   44.9500 N   0  0  0  0  0  0  0  0  0  0  0  0
   57.3870   32.5280   44.1730 C   0  0  0  0  0  0  0  0  0  0  0  0
   57.4890   31.1420   44.3450 C   0  0  0  0  0  0  0  0  0  0  0  0
   56.5720   30.0730   43.2720 S   0  0  0  0  0  0  0  0  0  0  0  0
   57.4390   28.5960   43.0410 N   0  0  0  0  0  0  0  0  0  0  0  0
   55.2300   29.7680   43.8800 O   0  0  0  0  0  0  0  0  0  0  0  0
   56.3480   30.7410   41.9440 O   0  0  0  0  0  0  0  0  0  0  0  0
   59.7230   28.5670   45.4600 C   0  0  0  0  0  0  0  0  0  0  0  0
   59.8510   27.1980   45.7120 C   0  0  0  0  0  0  0  0  0  0  0  0
   58.8905   24.7737   47.4525 H   0  0  0  0  0  0  0  0  0  0  0  0
   58.0168   24.4547   45.9157 H   0  0  0  0  0  0  0  0  0  0  0  0
   59.8063   24.6111   45.9157 H   0  0  0  0  0  0  0  0  0  0  0  0
   56.6178   26.4955   46.5818 H   0  0  0  0  0  0  0  0  0  0  0  0
   56.3887   28.9395   46.1342 H   0  0  0  0  0  0  0  0  0  0  0  0
   59.7752   31.1772   46.9025 H   0  0  0  0  0  0  0  0  0  0  0  0
   61.0562   35.2301   48.7222 H   0  0  0  0  0  0  0  0  0  0  0  0
   60.0903   33.9220   49.5115 H   0  0  0  0  0  0  0  0  0  0  0  0
   62.4543   34.3128   50.4443 H   0  0  0  0  0  0  0  0  0  0  0  0
   62.0462   32.6299   49.9909 H   0  0  0  0  0  0  0  0  0  0  0  0
   65.3050   33.9490   48.6622 H   0  0  0  0  0  0  0  0  0  0  0  0
   65.3553   34.5491   51.1354 H   0  0  0  0  0  0  0  0  0  0  0  0
   63.6927   34.3752   51.2344 H   0  0  0  0  0  0  0  0  0  0  0  0
   65.8005   32.2566   51.7577 H   0  0  0  0  0  0  0  0  0  0  0  0
   64.1787   31.8939   51.9586 H   0  0  0  0  0  0  0  0  0  0  0  0
   65.8115   31.5706   49.4408 H   0  0  0  0  0  0  0  0  0  0  0  0
   64.1797   31.1934   49.4242 H   0  0  0  0  0  0  0  0  0  0  0  0
   63.6791   32.8751   46.7078 H   0  0  0  0  0  0  0  0  0  0  0  0
   63.5138   31.6409   48.0516 H   0  0  0  0  0  0  0  0  0  0  0  0
   61.5902   32.1567   46.1593 H   0  0  0  0  0  0  0  0  0  0  0  0
   61.3039   31.4602   47.8117 H   0  0  0  0  0  0  0  0  0  0  0  0
   56.7156   32.9340   43.4020 H   0  0  0  0  0  0  0  0  0  0  0  0
   58.4230   28.7690   43.3430 H   0  0  0  0  0  0  0  0  0  0  0  0
   57.0370   27.8980   43.7070 H   0  0  0  0  0  0  0  0  0  0  0  0
   60.5965   29.1474   45.1281 H   0  0  0  0  0  0  0  0  0  0  0  0
   60.8248   26.7051   45.5755 H   0  0  0  0  0  0  0  0  0  0  0  0
  1  2  1  0
  2  3  2  0
  3  4  1  0
  4  5  2  0
  5  6  1  0
  6  7  2  0
  7  8  1  0
  8  9  1  0
  9 10  2  0
  9 11  1  0
 11 12  1  0
 12 13  1  0
 13 14  1  0
 14 15  1  0
 15 16  1  0
 16 17  1  0
 17 18  1  0
 14 19  1  0
 19 20  1  0
  8 21  2  0
 21 22  1  0
 22 23  2  0
 23 24  1  0
 24 25  1  0
 24 26  2  0
 24 27  2  0
  5 28  1  0
 28 29  2  0
 29  2  1  0
 23  6  1  0
 20 11  1  0
 18 15  1  0
  1 30  1  0
  1 31  1  0
  1 32  1  0
  3 33  1  0
  4 34  1  0
  7 35  1  0
 12 36  1  0
 12 37  1  0
 13 38  1  0
 13 39  1  0
 15 40  1  0
 16 41  1  0
 16 42  1  0
 17 43  1  0
 17 44  1  0
 18 45  1  0
 18 46  1  0
 19 47  1  0
 19 48  1  0
 20 49  1  0
 20 50  1  0
 22 51  1  0
 25 52  1  0
 25 53  1  0
 28 54  1  0
 29 55  1  0
M  END
>  <UniqueID>  (41) 
37

>  <SMILES>  (41) 
Cc1ccc(-c2cc(C(=O)N3CCN(C4CCC4)CC3)ncc2S(N)(=O)=O)cc1

>  <Energy>  (41) 
133.30676663852913

>  <Genealogy>  (41) 
Cc1ccc(-c2cc(C(=O)N3CCN(C4CCC4)CC3)ncc2S(N)(=O)=O)cc1 (3D coordinates assigned)
Cc1ccc(-c2cc(C(=O)N3CCN(C4CCC4)CC3)ncc2S(N)(=O)=O)cc1 (nonaromatic ring conformer: 133.30676663852913 kcal/mol)

>  <smiles>  (41) 
Cc1ccc(-c2cc(C(=O)N3CCN(C4CCC4)CC3)ncc2S(N)(=O)=O)cc1

>  <score_type>  (41) 
oracle

>  <origin>  (41) 
adg

>  <m_score__min__energy>  (41) 
-9.9299999999999997

>  <m_primary>  (41) 
energy

$$$$
42:0
     RDKit          3D

 46 48  0  0  0  0  0  0  0  0999 V2000
   52.4360   25.3403   44.9151 H   0  0  0  0  0  0  0  0  0  0  0  0
   53.0680   24.5070   45.2560 C   0  0  0  0  0  0  0  0  0  0  0  0
   52.6696   23.4817   45.2633 H   0  0  0  0  0  0  0  0  0  0  0  0
   54.3130   24.7390   45.6590 C   0  0  0  0  0  0  0  0  0  0  0  0
   55.1390   23.7580   46.0890 N   0  0  0  0  0  0  0  0  0  0  0  0
   56.2660   24.4250   46.3860 C   0  0  0  0  0  0  0  0  0  0  0  0
   57.3050   23.8710   46.8350 O   0  0  0  0  0  0  0  0  0  0  0  0
   56.1090   25.7690   46.1340 C   0  0  0  0  0  0  0  0  0  0  0  0
   57.0200   26.7280   46.3450 C   0  0  0  0  0  0  0  0  0  0  0  0
   57.8155   26.5393   47.0809 H   0  0  0  0  0  0  0  0  0  0  0  0
   57.0110   28.0240   45.6410 C   0  0  0  0  0  0  0  0  0  0  0  0
   55.8670   28.6090   45.2310 N   0  0  0  0  0  0  0  0  0  0  0  0
   56.2780   29.7630   44.6730 C   0  0  0  0  0  0  0  0  0  0  0  0
   55.4780   30.6000   44.1760 O   0  0  0  0  0  0  0  0  0  0  0  0
   57.6160   29.9410   44.7080 N   0  0  0  0  0  0  0  0  0  0  0  0
   58.3590   31.1070   44.2120 C   0  0  0  0  0  0  0  0  0  0  0  0
   59.4367   30.8887   44.2407 H   0  0  0  0  0  0  0  0  0  0  0  0
   58.0428   31.3182   43.1798 H   0  0  0  0  0  0  0  0  0  0  0  0
   58.0750   32.3130   45.0650 C   0  0  0  0  0  0  0  0  0  0  0  0
   57.0270   32.9820   44.8530 O   0  0  0  0  0  0  0  0  0  0  0  0
   59.0080   32.7540   46.0680 N   0  0  0  0  0  0  0  0  0  0  0  0
   59.6510   31.7900   46.9740 C   0  0  0  0  0  0  0  0  0  0  0  0
   59.5181   30.7708   46.5820 H   0  0  0  0  0  0  0  0  0  0  0  0
   59.1930   31.8567   47.9719 H   0  0  0  0  0  0  0  0  0  0  0  0
   61.1080   32.1040   47.0670 C   0  0  0  0  0  0  0  0  0  0  0  0
   61.9520   31.1820   47.2260 O   0  0  0  0  0  0  0  0  0  0  0  0
   61.5170   33.4780   47.0000 N   0  0  0  0  0  0  0  0  0  0  0  0
   62.9210   33.8460   46.7860 C   0  0  0  0  0  0  0  0  0  0  0  0
   63.3068   33.3087   45.9071 H   0  0  0  0  0  0  0  0  0  0  0  0
   62.9847   34.9319   46.6226 H   0  0  0  0  0  0  0  0  0  0  0  0
   63.7580   33.4790   48.0070 C   0  0  0  0  0  0  0  0  0  0  0  0
   63.1988   33.7242   48.9220 H   0  0  0  0  0  0  0  0  0  0  0  0
   63.9788   32.4015   47.9898 H   0  0  0  0  0  0  0  0  0  0  0  0
   64.7001   34.0466   47.9898 H   0  0  0  0  0  0  0  0  0  0  0  0
   60.4690   34.4960   47.1180 C   0  0  0  0  0  0  0  0  0  0  0  0
   60.8937   35.4832   46.8835 H   0  0  0  0  0  0  0  0  0  0  0  0
   60.0772   34.4894   48.1458 H   0  0  0  0  0  0  0  0  0  0  0  0
   59.3200   34.1930   46.1420 C   0  0  0  0  0  0  0  0  0  0  0  0
   59.6065   34.5440   45.1397 H   0  0  0  0  0  0  0  0  0  0  0  0
   58.4225   34.7115   46.5103 H   0  0  0  0  0  0  0  0  0  0  0  0
   58.0900   28.8550   45.3550 C   0  0  0  0  0  0  0  0  0  0  0  0
   59.5190   28.6560   45.7750 C   0  0  0  0  0  0  0  0  0  0  0  0
   59.5806   28.6474   46.8732 H   0  0  0  0  0  0  0  0  0  0  0  0
   59.8874   27.6979   45.3796 H   0  0  0  0  0  0  0  0  0  0  0  0
   60.1351   29.4770   45.3796 H   0  0  0  0  0  0  0  0  0  0  0  0
   54.8600   25.9750   45.6750 N   0  0  0  0  0  0  0  0  0  0  0  0
  1  2  1  0
  2  3  1  0
  2  4  2  0
  4  5  1  0
  5  6  1  0
  6  7  2  0
  6  8  1  0
  8  9  2  0
  9 10  1  0
  9 11  1  0
 11 12  1  0
 12 13  1  0
 13 14  2  0
 13 15  1  0
 15 16  1  0
 16 17  1  0
 16 18  1  0
 16 19  1  0
 19 20  2  0
 19 21  1  0
 21 22  1  0
 22 23  1  0
 22 24  1  0
 22 25  1  0
 25 26  2  0
 25 27  1  0
 27 28  1  0
 28 29  1  0
 28 30  1  0
 28 31  1  0
 31 32  1  0
 31 33  1  0
 31 34  1  0
 27 35  1  0
 35 36  1  0
 35 37  1  0
 35 38  1  0
 38 39  1  0
 38 40  1  0
 15 41  1  0
 41 42  1  0
 42 43  1  0
 42 44  1  0
 42 45  1  0
  8 46  1  0
 46  4  1  0
 41 11  2  0
 38 21  1  0
M  CHG  3   5  -1  12  -1  46  -1
M  END
>  <UniqueID>  (42) 
38

>  <SMILES>  (42) 
C=c1[n-]c(=O)/c(=C/c2[n-]c(=O)n(CC(=O)N3CCN(CC)C(=O)C3)c2C)[n-]1

>  <Energy>  (42) 
105.73747177356567

>  <Genealogy>  (42) 
C=c1[n-]c(=O)c(=Cc2[n-]c(=O)n(CC(=O)N3CCN(CC)C(=O)C3)c2C)[n-]1 (protonated)
C=c1[n-]c(=O)/c(=C/c2[n-]c(=O)n(CC(=O)N3CCN(CC)C(=O)C3)c2C)[n-]1 (cis-trans isomerization)
C=c1[n-]c(=O)/c(=C/c2[n-]c(=O)n(CC(=O)N3CCN(CC)C(=O)C3)c2C)[n-]1 (3D coordinates assigned)
C=c1[n-]c(=O)/c(=C/c2[n-]c(=O)n(CC(=O)N3CCN(CC)C(=O)C3)c2C)[n-]1 (nonaromatic ring conformer: 105.73747177356567 kcal/mol)

>  <smiles>  (42) 
C=c1[nH]c(=O)c(=Cc2[nH]c(=O)n(CC(=O)N3CCN(CC)C(=O)C3)c2C)[nH]1

>  <score_type>  (42) 
oracle

>  <origin>  (42) 
adg

>  <m_score__min__energy>  (42) 
-13.640000000000001

>  <m_primary>  (42) 
energy

$$$$
43:0
     RDKit          3D

 68 72  0  0  0  0  0  0  0  0999 V2000
   54.6040   24.8800   45.6210 C   0  0  0  0  0  0  0  0  0  0  0  0
   55.7670   23.9920   45.4450 N   0  0  0  0  0  0  0  0  0  0  0  0
   56.3820   23.6320   46.7400 C   0  0  0  0  0  0  0  0  0  0  0  0
   57.0760   24.8350   47.3950 C   0  0  0  0  0  0  0  0  0  0  0  0
   57.8190   25.6040   46.3990 N   0  0  0  0  0  0  0  0  0  0  0  0
   58.4700   26.8180   46.7940 C   0  0  0  0  0  0  0  0  0  0  0  0
   59.3640   26.8000   47.8710 C   0  0  0  0  0  0  0  0  0  0  0  0
   60.0000   27.9750   48.2740 C   0  0  0  0  0  0  0  0  0  0  0  0
   59.7460   29.1810   47.6070 C   0  0  0  0  0  0  0  0  0  0  0  0
   60.5040   30.6770   48.1640 S   0  0  0  0  0  0  0  0  0  0  0  0
   60.2880   31.7510   47.1330 O   0  0  0  0  0  0  0  0  0  0  0  0
   61.9850   30.4600   48.3090 O   0  0  0  0  0  0  0  0  0  0  0  0
   59.8560   31.1960   49.7040 N   0  0  0  0  0  0  0  0  0  0  0  0
   59.8920   30.1110   50.7130 C   0  0  0  0  0  0  0  0  0  0  0  0
   58.4950   29.5080   50.9660 C   0  0  0  0  0  0  0  0  0  0  0  0
   57.5270   30.4650   51.3850 O   0  0  0  0  0  0  0  0  0  0  0  0
   57.7450   31.7710   50.8620 C   0  0  0  0  0  0  0  0  0  0  0  0
   58.5130   31.7840   49.5320 C   0  0  0  0  0  0  0  0  0  0  0  0
   58.8660   29.1950   46.5160 C   0  0  0  0  0  0  0  0  0  0  0  0
   58.2270   28.0140   46.0990 C   0  0  0  0  0  0  0  0  0  0  0  0
   57.2680   28.0130   45.0330 N   0  0  0  0  0  0  0  0  0  0  0  0
   56.3850   29.0760   44.6580 C   0  0  0  0  0  0  0  0  0  0  0  0
   55.1430   28.9670   44.8530 O   0  0  0  0  0  0  0  0  0  0  0  0
   56.9430   30.3260   44.0930 C   0  0  0  0  0  0  0  0  0  0  0  0
   56.9460   30.5580   42.7090 C   0  0  0  0  0  0  0  0  0  0  0  0
   57.4560   31.7150   42.2050 N   0  0  0  0  0  0  0  0  0  0  0  0
   57.9760   32.6790   43.0110 C   0  0  0  0  0  0  0  0  0  0  0  0
   58.0010   32.5020   44.4030 C   0  0  0  0  0  0  0  0  0  0  0  0
   58.5400   33.5530   45.3000 C   0  0  0  0  0  0  0  0  0  0  0  0
   59.3580   34.5720   44.7770 C   0  0  0  0  0  0  0  0  0  0  0  0
   59.8670   35.5720   45.6110 C   0  0  0  0  0  0  0  0  0  0  0  0
   59.5620   35.5700   46.9740 C   0  0  0  0  0  0  0  0  0  0  0  0
   58.7470   34.5670   47.5050 C   0  0  0  0  0  0  0  0  0  0  0  0
   58.2360   33.5610   46.6770 C   0  0  0  0  0  0  0  0  0  0  0  0
   57.4110   32.6260   47.2140 F   0  0  0  0  0  0  0  0  0  0  0  0
   57.4760   31.3140   44.9360 C   0  0  0  0  0  0  0  0  0  0  0  0
   58.0560   25.0420   45.0690 C   0  0  0  0  0  0  0  0  0  0  0  0
   56.7340   24.5410   44.4540 C   0  0  0  0  0  0  0  0  0  0  0  0
   54.4131   25.0258   46.6945 H   0  0  0  0  0  0  0  0  0  0  0  0
   54.8105   25.8524   45.1500 H   0  0  0  0  0  0  0  0  0  0  0  0
   53.7204   24.4247   45.1500 H   0  0  0  0  0  0  0  0  0  0  0  0
   55.5974   23.2618   47.4163 H   0  0  0  0  0  0  0  0  0  0  0  0
   57.1414   22.8580   46.5548 H   0  0  0  0  0  0  0  0  0  0  0  0
   56.3169   25.4820   47.8589 H   0  0  0  0  0  0  0  0  0  0  0  0
   57.7793   24.4676   48.1569 H   0  0  0  0  0  0  0  0  0  0  0  0
   59.5657   25.8574   48.4009 H   0  0  0  0  0  0  0  0  0  0  0  0
   60.7039   27.9544   49.1191 H   0  0  0  0  0  0  0  0  0  0  0  0
   60.5622   29.3156   50.3549 H   0  0  0  0  0  0  0  0  0  0  0  0
   60.2524   30.5402   51.6595 H   0  0  0  0  0  0  0  0  0  0  0  0
   58.1430   29.0432   50.0332 H   0  0  0  0  0  0  0  0  0  0  0  0
   58.6020   28.7792   51.7830 H   0  0  0  0  0  0  0  0  0  0  0  0
   56.7671   32.2489   50.7029 H   0  0  0  0  0  0  0  0  0  0  0  0
   58.3624   32.3114   51.5946 H   0  0  0  0  0  0  0  0  0  0  0  0
   57.9548   31.1992   48.7861 H   0  0  0  0  0  0  0  0  0  0  0  0
   58.6214   32.8253   49.1943 H   0  0  0  0  0  0  0  0  0  0  0  0
   58.6738   30.1373   45.9819 H   0  0  0  0  0  0  0  0  0  0  0  0
   56.5335   29.7999   42.0270 H   0  0  0  0  0  0  0  0  0  0  0  0
   57.4350   31.8750   41.1740 H   0  0  0  0  0  0  0  0  0  0  0  0
   58.3792   33.6024   42.5696 H   0  0  0  0  0  0  0  0  0  0  0  0
   59.5987   34.5817   43.7037 H   0  0  0  0  0  0  0  0  0  0  0  0
   60.5087   36.3616   45.1931 H   0  0  0  0  0  0  0  0  0  0  0  0
   59.9631   36.3575   47.6289 H   0  0  0  0  0  0  0  0  0  0  0  0
   58.5060   34.5680   48.5783 H   0  0  0  0  0  0  0  0  0  0  0  0
   57.4824   31.1558   46.0245 H   0  0  0  0  0  0  0  0  0  0  0  0
   58.4870   25.8179   44.4192 H   0  0  0  0  0  0  0  0  0  0  0  0
   58.7517   24.1946   45.1584 H   0  0  0  0  0  0  0  0  0  0  0  0
   56.2543   25.3838   43.9348 H   0  0  0  0  0  0  0  0  0  0  0  0
   56.9947   23.7145   43.7766 H   0  0  0  0  0  0  0  0  0  0  0  0
  1  2  1  0
  2  3  1  0
  3  4  1  0
  4  5  1  0
  5  6  1  0
  6  7  2  0
  7  8  1  0
  8  9  2  0
  9 10  1  0
 10 11  2  0
 10 12  2  0
 10 13  1  0
 13 14  1  0
 14 15  1  0
 15 16  1  0
 16 17  1  0
 17 18  1  0
  9 19  1  0
 19 20  2  0
 20 21  1  0
 21 22  1  0
 22 23  2  0
 22 24  1  0
 24 25  2  0
 25 26  1  0
 26 27  2  0
 27 28  1  0
 28 29  1  0
 29 30  2  0
 30 31  1  0
 31 32  2  0
 32 33  1  0
 33 34  2  0
 34 35  1  0
 28 36  2  0
  5 37  1  0
 37 38  1  0
 38  2  1  0
 20  6  1  0
 36 24  1  0
 18 13  1  0
 34 29  1  0
  1 39  1  0
  1 40  1  0
  1 41  1  0
  3 42  1  0
  3 43  1  0
  4 44  1  0
  4 45  1  0
  7 46  1  0
  8 47  1  0
 14 48  1  0
 14 49  1  0
 15 50  1  0
 15 51  1  0
 17 52  1  0
 17 53  1  0
 18 54  1  0
 18 55  1  0
 19 56  1  0
 25 57  1  0
 26 58  1  0
 27 59  1  0
 30 60  1  0
 31 61  1  0
 32 62  1  0
 33 63  1  0
 36 64  1  0
 37 65  1  0
 37 66  1  0
 38 67  1  0
 38 68  1  0
M  CHG  2  21  -1  26   1
M  END
>  <UniqueID>  (43) 
39

>  <SMILES>  (43) 
CN1CCN(c2ccc(S(=O)(=O)N3CCOCC3)cc2[N-]C(=O)c2c[nH+]cc(-c3ccccc3F)c2)CC1

>  <Energy>  (43) 
106.13632269638116

>  <Genealogy>  (43) 
CN1CCN(c2ccc(S(=O)(=O)N3CCOCC3)cc2[N-]C(=O)c2c[nH+]cc(-c3ccccc3F)c2)CC1 (protonated)
CN1CCN(c2ccc(S(=O)(=O)N3CCOCC3)cc2[N-]C(=O)c2c[nH+]cc(-c3ccccc3F)c2)CC1 (3D coordinates assigned)
CN1CCN(c2ccc(S(=O)(=O)N3CCOCC3)cc2[N-]C(=O)c2c[nH+]cc(-c3ccccc3F)c2)CC1 (nonaromatic ring conformer: 106.13632269638116 kcal/mol)

>  <smiles>  (43) 
CN1CCN(c2ccc(S(=O)(=O)N3CCOCC3)cc2NC(=O)c2cncc(-c3ccccc3F)c2)CC1

>  <score_type>  (43) 
oracle

>  <origin>  (43) 
adg

>  <m_score__min__energy>  (43) 
-9.7599999999999998

>  <m_primary>  (43) 
energy

$$$$
44:0
     RDKit          3D

 48 50  0  0  0  0  0  0  0  0999 V2000
   60.4920   28.6900   48.2660 C   0  0  0  0  0  0  0  0  0  0  0  0
   59.6350   29.5860   47.4810 N   0  0  0  0  0  0  0  0  0  0  0  0
   58.9060   30.6720   48.1500 C   0  0  0  0  0  0  0  0  0  0  0  0
   59.4080   32.0180   47.6970 C   0  0  0  0  0  0  0  0  0  0  0  0
   58.5090   33.0720   47.4560 C   0  0  0  0  0  0  0  0  0  0  0  0
   58.9770   34.3100   47.0090 C   0  0  0  0  0  0  0  0  0  0  0  0
   60.3450   34.5100   46.8010 C   0  0  0  0  0  0  0  0  0  0  0  0
   61.2470   33.4690   47.0400 C   0  0  0  0  0  0  0  0  0  0  0  0
   62.9630   33.7210   46.7790 Cl  0  0  0  0  0  0  0  0  0  0  0  0
   60.7820   32.2260   47.4870 C   0  0  0  0  0  0  0  0  0  0  0  0
   59.4910   29.3890   46.0580 C   0  0  0  0  0  0  0  0  0  0  0  0
   60.4120   28.8320   45.4020 O   0  0  0  0  0  0  0  0  0  0  0  0
   58.2640   29.8040   45.3450 C   0  0  0  0  0  0  0  0  0  0  0  0
   58.1720   31.1260   44.8830 C   0  0  0  0  0  0  0  0  0  0  0  0
   57.0210   31.5690   44.2290 C   0  0  0  0  0  0  0  0  0  0  0  0
   55.9490   30.6980   44.0360 C   0  0  0  0  0  0  0  0  0  0  0  0
   56.0270   29.3800   44.4890 C   0  0  0  0  0  0  0  0  0  0  0  0
   57.1800   28.9160   45.1430 C   0  0  0  0  0  0  0  0  0  0  0  0
   57.2630   27.2270   45.6600 S   0  0  0  0  0  0  0  0  0  0  0  0
   58.0700   27.1150   46.9240 O   0  0  0  0  0  0  0  0  0  0  0  0
   57.9200   26.4190   44.5800 O   0  0  0  0  0  0  0  0  0  0  0  0
   55.6520   26.6700   45.9820 N   0  0  0  0  0  0  0  0  0  0  0  0
   55.1740   25.3700   45.6270 C   0  0  0  0  0  0  0  0  0  0  0  0
   53.9320   25.1630   45.6250 O   0  0  0  0  0  0  0  0  0  0  0  0
   56.0930   24.2890   45.2190 C   0  0  0  0  0  0  0  0  0  0  0  0
   55.6570   23.2930   44.3300 C   0  0  0  0  0  0  0  0  0  0  0  0
   56.5480   22.2990   43.9230 C   0  0  0  0  0  0  0  0  0  0  0  0
   57.8600   22.3090   44.3910 C   0  0  0  0  0  0  0  0  0  0  0  0
   58.2680   23.3240   45.2580 C   0  0  0  0  0  0  0  0  0  0  0  0
   57.3890   24.2870   45.6460 N   0  0  0  0  0  0  0  0  0  0  0  0
   60.3227   28.8670   49.3384 H   0  0  0  0  0  0  0  0  0  0  0  0
   60.2488   27.6449   48.0240 H   0  0  0  0  0  0  0  0  0  0  0  0
   61.5469   28.8865   48.0240 H   0  0  0  0  0  0  0  0  0  0  0  0
   57.8357   30.5879   47.9103 H   0  0  0  0  0  0  0  0  0  0  0  0
   59.0658   30.5852   49.2349 H   0  0  0  0  0  0  0  0  0  0  0  0
   57.4319   32.9209   47.6203 H   0  0  0  0  0  0  0  0  0  0  0  0
   58.2677   35.1293   46.8203 H   0  0  0  0  0  0  0  0  0  0  0  0
   60.7114   35.4858   46.4495 H   0  0  0  0  0  0  0  0  0  0  0  0
   61.4948   31.4094   47.6744 H   0  0  0  0  0  0  0  0  0  0  0  0
   59.0129   31.8181   45.0373 H   0  0  0  0  0  0  0  0  0  0  0  0
   56.9595   32.6055   43.8657 H   0  0  0  0  0  0  0  0  0  0  0  0
   55.0404   31.0503   43.5259 H   0  0  0  0  0  0  0  0  0  0  0  0
   55.1778   28.6986   44.3323 H   0  0  0  0  0  0  0  0  0  0  0  0
   54.6219   23.2964   43.9577 H   0  0  0  0  0  0  0  0  0  0  0  0
   56.2149   21.5090   43.2339 H   0  0  0  0  0  0  0  0  0  0  0  0
   58.5669   21.5254   44.0806 H   0  0  0  0  0  0  0  0  0  0  0  0
   59.3035   23.3452   45.6286 H   0  0  0  0  0  0  0  0  0  0  0  0
   57.7370   25.0570   46.2600 H   0  0  0  0  0  0  0  0  0  0  0  0
  1  2  1  0
  2  3  1  0
  3  4  1  0
  4  5  2  0
  5  6  1  0
  6  7  2  0
  7  8  1  0
  8  9  1  0
  8 10  2  0
  2 11  1  0
 11 12  2  0
 11 13  1  0
 13 14  2  0
 14 15  1  0
 15 16  2  0
 16 17  1  0
 17 18  2  0
 18 19  1  0
 19 20  2  0
 19 21  2  0
 19 22  1  0
 22 23  1  0
 23 24  2  0
 23 25  1  0
 25 26  2  0
 26 27  1  0
 27 28  2  0
 28 29  1  0
 29 30  2  0
 10  4  1  0
 18 13  1  0
 30 25  1  0
  1 31  1  0
  1 32  1  0
  1 33  1  0
  3 34  1  0
  3 35  1  0
  5 36  1  0
  6 37  1  0
  7 38  1  0
 10 39  1  0
 14 40  1  0
 15 41  1  0
 16 42  1  0
 17 43  1  0
 26 44  1  0
 27 45  1  0
 28 46  1  0
 29 47  1  0
 30 48  1  0
M  CHG  2  22  -1  30   1
M  END
>  <UniqueID>  (44) 
40

>  <SMILES>  (44) 
CN(Cc1cccc(Cl)c1)C(=O)c1ccccc1S(=O)(=O)[N-]C(=O)c1cccc[nH+]1

>  <Energy>  (44) 
60.06429441334234

>  <Genealogy>  (44) 
CN(Cc1cccc(Cl)c1)C(=O)c1ccccc1S(=O)(=O)[N-]C(=O)c1cccc[nH+]1 (protonated)
CN(Cc1cccc(Cl)c1)C(=O)c1ccccc1S(=O)(=O)[N-]C(=O)c1cccc[nH+]1 (3D coordinates assigned)
CN(Cc1cccc(Cl)c1)C(=O)c1ccccc1S(=O)(=O)[N-]C(=O)c1cccc[nH+]1 (optimized conformer: 60.06429441334234 kcal/mol)

>  <smiles>  (44) 
CN(Cc1cccc(Cl)c1)C(=O)c1ccccc1S(=O)(=O)NC(=O)c1ccccn1

>  <score_type>  (44) 
oracle

>  <origin>  (44) 
adg

>  <m_score__min__energy>  (44) 
-9.1899999999999995

>  <m_primary>  (44) 
energy

$$$$
45:0
     RDKit          3D

 56 58  0  0  0  0  0  0  0  0999 V2000
   56.5310   22.2920   42.6220 C   0  0  0  0  0  0  0  0  0  0  0  0
   56.9060   23.2830   43.7320 C   0  0  0  0  0  0  0  0  0  0  0  0
   55.6700   23.6620   44.5840 C   0  0  0  0  0  0  0  0  0  0  0  0
   55.9850   23.7920   46.0860 C   0  0  0  0  0  0  0  0  0  0  0  0
   57.3020   24.4070   46.3540 N   0  0  0  0  0  0  0  0  0  0  0  0
   57.2960   26.1370   46.0800 S   0  0  0  0  0  0  0  0  0  0  0  0
   55.9190   26.6940   46.3080 O   0  0  0  0  0  0  0  0  0  0  0  0
   57.7030   26.4200   44.6600 O   0  0  0  0  0  0  0  0  0  0  0  0
   58.4290   26.9420   47.1550 C   0  0  0  0  0  0  0  0  0  0  0  0
   59.7250   26.4410   47.3230 C   0  0  0  0  0  0  0  0  0  0  0  0
   60.5930   27.0750   48.2140 C   0  0  0  0  0  0  0  0  0  0  0  0
   60.1670   28.2050   48.9270 C   0  0  0  0  0  0  0  0  0  0  0  0
   61.0980   28.9140   49.8720 C   0  0  0  0  0  0  0  0  0  0  0  0
   61.4130   30.2400   49.3540 N   0  0  0  0  0  0  0  0  0  0  0  0
   60.5130   31.0080   48.5470 C   0  0  0  0  0  0  0  0  0  0  0  0
   59.3890   31.3610   48.9970 O   0  0  0  0  0  0  0  0  0  0  0  0
   60.9220   31.4170   47.1690 C   0  0  0  0  0  0  0  0  0  0  0  0
   60.3180   30.4810   46.1570 C   0  0  0  0  0  0  0  0  0  0  0  0
   61.0230   29.3450   45.7290 C   0  0  0  0  0  0  0  0  0  0  0  0
   60.4370   28.4490   44.8310 C   0  0  0  0  0  0  0  0  0  0  0  0
   59.1400   28.6740   44.3630 C   0  0  0  0  0  0  0  0  0  0  0  0
   58.4250   29.8030   44.7860 C   0  0  0  0  0  0  0  0  0  0  0  0
   56.7730   30.0690   44.2390 S   0  0  0  0  0  0  0  0  0  0  0  0
   55.7430   28.8260   44.8640 N   0  0  0  0  0  0  0  0  0  0  0  0
   56.7400   30.0450   42.7380 O   0  0  0  0  0  0  0  0  0  0  0  0
   56.2780   31.4040   44.7270 O   0  0  0  0  0  0  0  0  0  0  0  0
   59.0140   30.7020   45.6850 C   0  0  0  0  0  0  0  0  0  0  0  0
   58.8680   28.6870   48.7070 C   0  0  0  0  0  0  0  0  0  0  0  0
   58.0370   28.0460   47.8430 N   0  0  0  0  0  0  0  0  0  0  0  0
   58.4440   23.7390   45.6800 C   0  0  0  0  0  0  0  0  0  0  0  0
   58.0320   22.7170   44.6050 C   0  0  0  0  0  0  0  0  0  0  0  0
   56.1759   21.3536   43.0729 H   0  0  0  0  0  0  0  0  0  0  0  0
   55.7341   22.7239   41.9987 H   0  0  0  0  0  0  0  0  0  0  0  0
   57.4142   22.0881   41.9987 H   0  0  0  0  0  0  0  0  0  0  0  0
   57.2747   24.2045   43.2578 H   0  0  0  0  0  0  0  0  0  0  0  0
   55.2794   24.6253   44.2241 H   0  0  0  0  0  0  0  0  0  0  0  0
   54.9354   22.8508   44.4731 H   0  0  0  0  0  0  0  0  0  0  0  0
   55.2073   24.4136   46.5537 H   0  0  0  0  0  0  0  0  0  0  0  0
   56.0082   22.7749   46.5042 H   0  0  0  0  0  0  0  0  0  0  0  0
   60.0563   25.5567   46.7588 H   0  0  0  0  0  0  0  0  0  0  0  0
   61.6125   26.6876   48.3570 H   0  0  0  0  0  0  0  0  0  0  0  0
   60.6152   29.0115   50.8556 H   0  0  0  0  0  0  0  0  0  0  0  0
   62.0267   28.3329   49.9706 H   0  0  0  0  0  0  0  0  0  0  0  0
   60.5717   32.4412   46.9733 H   0  0  0  0  0  0  0  0  0  0  0  0
   62.0184   31.3778   47.0898 H   0  0  0  0  0  0  0  0  0  0  0  0
   62.0410   29.1594   46.1021 H   0  0  0  0  0  0  0  0  0  0  0  0
   60.9976   27.5653   44.4921 H   0  0  0  0  0  0  0  0  0  0  0  0
   58.6789   27.9636   43.6610 H   0  0  0  0  0  0  0  0  0  0  0  0
   56.1310   27.9130   44.5330 H   0  0  0  0  0  0  0  0  0  0  0  0
   55.8470   28.8390   45.9030 H   0  0  0  0  0  0  0  0  0  0  0  0
   58.4521   31.5853   46.0227 H   0  0  0  0  0  0  0  0  0  0  0  0
   58.5206   29.5870   49.2356 H   0  0  0  0  0  0  0  0  0  0  0  0
   59.0626   24.5125   45.2015 H   0  0  0  0  0  0  0  0  0  0  0  0
   58.9863   23.1797   46.4566 H   0  0  0  0  0  0  0  0  0  0  0  0
   58.9013   22.4875   43.9712 H   0  0  0  0  0  0  0  0  0  0  0  0
   57.6734   21.8030   45.1009 H   0  0  0  0  0  0  0  0  0  0  0  0
  1  2  1  0
  2  3  1  0
  3  4  1  0
  4  5  1  0
  5  6  1  0
  6  7  2  0
  6  8  2  0
  6  9  1  0
  9 10  2  0
 10 11  1  0
 11 12  2  0
 12 13  1  0
 13 14  1  0
 14 15  1  0
 15 16  2  0
 15 17  1  0
 17 18  1  0
 18 19  2  0
 19 20  1  0
 20 21  2  0
 21 22  1  0
 22 23  1  0
 23 24  1  0
 23 25  2  0
 23 26  2  0
 22 27  2  0
 12 28  1  0
 28 29  2  0
  5 30  1  0
 30 31  1  0
 31  2  1  0
 29  9  1  0
 27 18  1  0
  1 32  1  0
  1 33  1  0
  1 34  1  0
  2 35  1  0
  3 36  1  0
  3 37  1  0
  4 38  1  0
  4 39  1  0
 10 40  1  0
 11 41  1  0
 13 42  1  0
 13 43  1  0
 17 44  1  0
 17 45  1  0
 19 46  1  0
 20 47  1  0
 21 48  1  0
 24 49  1  0
 24 50  1  0
 27 51  1  0
 28 52  1  0
 30 53  1  0
 30 54  1  0
 31 55  1  0
 31 56  1  0
M  CHG  1  14  -1
M  END
>  <UniqueID>  (45) 
41

>  <SMILES>  (45) 
CC1CCN(S(=O)(=O)c2ccc(C[N-]C(=O)Cc3cccc(S(N)(=O)=O)c3)cn2)CC1

>  <Energy>  (45) 
56.89785473743037

>  <Genealogy>  (45) 
CC1CCN(S(=O)(=O)c2ccc(C[N-]C(=O)Cc3cccc(S(N)(=O)=O)c3)cn2)CC1 (protonated)
CC1CCN(S(=O)(=O)c2ccc(C[N-]C(=O)Cc3cccc(S(N)(=O)=O)c3)cn2)CC1 (3D coordinates assigned)
CC1CCN(S(=O)(=O)c2ccc(C[N-]C(=O)Cc3cccc(S(N)(=O)=O)c3)cn2)CC1 (nonaromatic ring conformer: 56.89785473743037 kcal/mol)

>  <smiles>  (45) 
CC1CCN(S(=O)(=O)c2ccc(CNC(=O)Cc3cccc(S(N)(=O)=O)c3)cn2)CC1

>  <score_type>  (45) 
oracle

>  <origin>  (45) 
adg

>  <m_score__min__energy>  (45) 
-11.880000000000001

>  <m_primary>  (45) 
energy

$$$$
46:0
     RDKit          3D

 54 57  0  0  0  0  0  0  0  0999 V2000
   60.3930   27.5960   47.6680 C   0  0  0  0  0  0  0  0  0  0  0  0
   59.3190   28.0800   46.7850 N   0  0  0  0  0  0  0  0  0  0  0  0
   58.2560   27.0670   46.6640 C   0  0  0  0  0  0  0  0  0  0  0  0
   57.0280   27.6910   45.9970 C   0  0  0  0  0  0  0  0  0  0  0  0
   57.4010   28.6430   44.9340 N   0  0  0  0  0  0  0  0  0  0  0  0
   56.3380   29.4170   44.3200 C   0  0  0  0  0  0  0  0  0  0  0  0
   55.1570   29.3050   44.7540 O   0  0  0  0  0  0  0  0  0  0  0  0
   56.5830   30.4040   43.2070 C   0  0  0  0  0  0  0  0  0  0  0  0
   57.2200   31.6770   43.7150 C   0  0  0  0  0  0  0  0  0  0  0  0
   57.7670   32.4680   42.9010 O   0  0  0  0  0  0  0  0  0  0  0  0
   57.2480   32.0170   45.1100 N   0  0  0  0  0  0  0  0  0  0  0  0
   58.2820   32.0430   45.9000 C   0  0  0  0  0  0  0  0  0  0  0  0
   58.5770   31.0810   46.8060 N   0  0  0  0  0  0  0  0  0  0  0  0
   59.6970   31.4050   47.5020 C   0  0  0  0  0  0  0  0  0  0  0  0
   60.2560   30.6210   48.5060 C   0  0  0  0  0  0  0  0  0  0  0  0
   61.4130   31.0780   49.1610 C   0  0  0  0  0  0  0  0  0  0  0  0
   62.0090   32.3140   48.8090 C   0  0  0  0  0  0  0  0  0  0  0  0
   63.2240   32.7980   49.5180 C   0  0  0  0  0  0  0  0  0  0  0  0
   64.5020   32.3300   49.1520 C   0  0  0  0  0  0  0  0  0  0  0  0
   65.6440   32.7810   49.8200 C   0  0  0  0  0  0  0  0  0  0  0  0
   65.5310   33.7050   50.8650 C   0  0  0  0  0  0  0  0  0  0  0  0
   66.9780   34.2880   51.6880 S   0  0  0  0  0  0  0  0  0  0  0  0
   67.2960   33.2880   53.0700 N   0  0  0  0  0  0  0  0  0  0  0  0
   66.7780   35.7130   52.1350 O   0  0  0  0  0  0  0  0  0  0  0  0
   68.1520   34.2390   50.7490 O   0  0  0  0  0  0  0  0  0  0  0  0
   64.2630   34.1870   51.2270 C   0  0  0  0  0  0  0  0  0  0  0  0
   63.1170   33.7320   50.5650 C   0  0  0  0  0  0  0  0  0  0  0  0
   61.4250   33.0880   47.7800 C   0  0  0  0  0  0  0  0  0  0  0  0
   60.2770   32.6110   47.1550 C   0  0  0  0  0  0  0  0  0  0  0  0
   59.3790   33.3250   45.9320 S   0  0  0  0  0  0  0  0  0  0  0  0
   58.7700   28.6300   44.3740 C   0  0  0  0  0  0  0  0  0  0  0  0
   59.8640   28.4110   45.4510 C   0  0  0  0  0  0  0  0  0  0  0  0
   60.0934   27.7310   48.7178 H   0  0  0  0  0  0  0  0  0  0  0  0
   60.5750   26.5288   47.4730 H   0  0  0  0  0  0  0  0  0  0  0  0
   61.3130   28.1665   47.4730 H   0  0  0  0  0  0  0  0  0  0  0  0
   58.9240   28.9530   47.2140 H   0  0  0  0  0  0  0  0  0  0  0  0
   58.6180   26.2273   46.0526 H   0  0  0  0  0  0  0  0  0  0  0  0
   57.9828   26.7017   47.6650 H   0  0  0  0  0  0  0  0  0  0  0  0
   56.4167   26.8892   45.5573 H   0  0  0  0  0  0  0  0  0  0  0  0
   56.4670   28.2426   46.7658 H   0  0  0  0  0  0  0  0  0  0  0  0
   57.2507   29.9438   42.4638 H   0  0  0  0  0  0  0  0  0  0  0  0
   55.6118   30.6627   42.7599 H   0  0  0  0  0  0  0  0  0  0  0  0
   59.8001   29.6590   48.7830 H   0  0  0  0  0  0  0  0  0  0  0  0
   61.8618   30.4672   49.9581 H   0  0  0  0  0  0  0  0  0  0  0  0
   64.6017   31.6028   48.3327 H   0  0  0  0  0  0  0  0  0  0  0  0
   66.6354   32.4082   49.5232 H   0  0  0  0  0  0  0  0  0  0  0  0
   68.3320   33.2650   53.2020 H   0  0  0  0  0  0  0  0  0  0  0  0
   64.1697   34.9267   52.0358 H   0  0  0  0  0  0  0  0  0  0  0  0
   62.1271   34.1066   50.8648 H   0  0  0  0  0  0  0  0  0  0  0  0
   61.8694   34.0483   47.4795 H   0  0  0  0  0  0  0  0  0  0  0  0
   58.8385   27.8182   43.6348 H   0  0  0  0  0  0  0  0  0  0  0  0
   58.9487   29.6157   43.9197 H   0  0  0  0  0  0  0  0  0  0  0  0
   60.5132   27.5850   45.1252 H   0  0  0  0  0  0  0  0  0  0  0  0
   60.4139   29.3584   45.5516 H   0  0  0  0  0  0  0  0  0  0  0  0
  1  2  1  0
  2  3  1  0
  3  4  1  0
  4  5  1  0
  5  6  1  0
  6  7  2  0
  6  8  1  0
  8  9  1  0
  9 10  2  0
  9 11  1  0
 11 12  2  3
 12 13  1  0
 13 14  1  0
 14 15  2  0
 15 16  1  0
 16 17  2  0
 17 18  1  0
 18 19  2  0
 19 20  1  0
 20 21  2  0
 21 22  1  0
 22 23  1  0
 22 24  2  0
 22 25  2  0
 21 26  1  0
 26 27  2  0
 17 28  1  0
 28 29  2  0
 29 30  1  0
  5 31  1  0
 31 32  1  0
 32  2  1  0
 30 12  1  0
 29 14  1  0
 27 18  1  0
  1 33  1  0
  1 34  1  0
  1 35  1  0
  2 36  1  0
  3 37  1  0
  3 38  1  0
  4 39  1  0
  4 40  1  0
  8 41  1  0
  8 42  1  0
 15 43  1  0
 16 44  1  0
 19 45  1  0
 20 46  1  0
 23 47  1  0
 26 48  1  0
 27 49  1  0
 28 50  1  0
 31 51  1  0
 31 52  1  0
 32 53  1  0
 32 54  1  0
M  CHG  3   2   1  13  -1  23  -1
M  END
>  <UniqueID>  (46) 
42

>  <SMILES>  (46) 
C[NH+]1CCN(C(=O)CC(=O)N=c2[n-]c3ccc(-c4ccc(S([NH-])(=O)=O)cc4)cc3s2)CC1

>  <Energy>  (46) 
107.18480736839095

>  <Genealogy>  (46) 
C[NH+]1CCN(C(=O)CC(=O)N=c2[n-]c3ccc(-c4ccc(S([NH-])(=O)=O)cc4)cc3s2)CC1 (protonated)
C[NH+]1CCN(C(=O)CC(=O)N=c2[n-]c3ccc(-c4ccc(S([NH-])(=O)=O)cc4)cc3s2)CC1 (3D coordinates assigned)
C[NH+]1CCN(C(=O)CC(=O)N=c2[n-]c3ccc(-c4ccc(S([NH-])(=O)=O)cc4)cc3s2)CC1 (nonaromatic ring conformer: 107.18480736839095 kcal/mol)

>  <smiles>  (46) 
CN1CCN(C(=O)CC(=O)N=c2[nH]c3ccc(-c4ccc(S(N)(=O)=O)cc4)cc3s2)CC1

>  <score_type>  (46) 
oracle

>  <origin>  (46) 
adg

>  <m_score__min__energy>  (46) 
-9.9000000000000004

>  <m_primary>  (46) 
energy

$$$$
47:0
     RDKit          3D

 48 51  0  0  1  0  0  0  0  0999 V2000
   56.9550   24.3990   42.7700 N   0  0  0  0  0  0  0  0  0  0  0  0
   56.1640   23.3230   43.8350 S   0  0  0  0  0  0  0  0  0  0  0  0
   54.7230   23.6790   44.0530 O   0  0  0  0  0  0  0  0  0  0  0  0
   56.2680   21.9050   43.3680 O   0  0  0  0  0  0  0  0  0  0  0  0
   56.9880   23.4360   45.4190 C   0  0  0  0  0  0  0  0  0  0  0  0
   57.5490   24.8070   45.6160 C   0  0  0  0  0  0  0  0  0  0  0  0
   56.7470   25.9090   45.3880 C   0  0  0  0  0  0  0  0  0  0  0  0
   57.2240   27.2140   45.5580 C   0  0  0  0  0  0  0  0  0  0  0  0
   56.3120   28.2540   45.2950 N   0  0  0  0  0  0  0  0  0  0  0  0
   56.6480   29.3190   44.6430 C   0  0  0  0  0  0  0  0  0  0  0  0
   57.1030   30.4120   45.2880 N   0  0  0  0  0  0  0  0  0  0  0  0
   57.4590   31.5350   44.6190 C   0  0  0  0  0  0  0  0  0  0  0  0
   57.9430   32.6990   45.2940 N   0  0  0  0  0  0  0  0  0  0  0  0
   58.4140   33.9990   44.9300 C   0  0  0  0  0  0  0  0  0  0  0  0
   58.1810   34.4760   46.3540 C   0  0  0  0  0  0  0  0  0  0  0  0
   59.2820   35.0810   46.9570 O   0  0  0  0  0  0  0  0  0  0  0  0
   60.4210   34.3900   47.2700 C   0  0  0  0  0  0  0  0  0  0  0  0
   61.3690   33.9330   46.4080 C   0  0  0  0  0  0  0  0  0  0  0  0
   62.4870   33.2420   46.8360 C   0  0  0  0  0  0  0  0  0  0  0  0
   62.6960   32.9800   48.1830 C   0  0  0  0  0  0  0  0  0  0  0  0
   63.7820   32.3050   48.6330 F   0  0  0  0  0  0  0  0  0  0  0  0
   61.7480   33.4350   49.0660 C   0  0  0  0  0  0  0  0  0  0  0  0
   60.6350   34.1230   48.6300 C   0  0  0  0  0  0  0  0  0  0  0  0
   59.7200   34.5540   49.5610 F   0  0  0  0  0  0  0  0  0  0  0  0
   58.1450   32.9980   46.6990 C   0  0  0  0  0  0  0  0  0  0  0  0
   57.3450   31.5340   43.2710 N   0  0  0  0  0  0  0  0  0  0  0  0
   56.8890   30.4500   42.5790 C   0  0  0  0  0  0  0  0  0  0  0  0
   56.5450   29.3450   43.3010 N   0  0  0  0  0  0  0  0  0  0  0  0
   58.5270   27.3990   45.9640 C   0  0  0  0  0  0  0  0  0  0  0  0
   59.2880   26.2690   46.1790 C   0  0  0  0  0  0  0  0  0  0  0  0
   58.8190   25.0190   46.0130 N   0  0  0  0  0  0  0  0  0  0  0  0
   56.9970   24.0810   41.7970 H   0  0  0  0  0  0  0  0  0  0  0  0
   56.6910   25.3870   42.8610 H   0  0  0  0  0  0  0  0  0  0  0  0
   56.2653   23.2213   46.2200 H   0  0  0  0  0  0  0  0  0  0  0  0
   57.8102   22.7058   45.4471 H   0  0  0  0  0  0  0  0  0  0  0  0
   55.7067   25.7568   45.0645 H   0  0  0  0  0  0  0  0  0  0  0  0
   59.4673   34.0237   44.6139 H   0  0  0  0  0  0  0  0  0  0  0  0
   57.9680   34.5371   44.0806 H   0  0  0  0  0  0  0  0  0  0  0  0
   57.3936   35.2065   46.5912 H   0  0  0  0  0  0  0  0  0  0  0  0
   61.2412   34.1201   45.3316 H   0  0  0  0  0  0  0  0  0  0  0  0
   63.2234   32.8939   46.0968 H   0  0  0  0  0  0  0  0  0  0  0  0
   61.8788   33.2472   50.1419 H   0  0  0  0  0  0  0  0  0  0  0  0
   59.0856   32.6071   47.1143 H   0  0  0  0  0  0  0  0  0  0  0  0
   57.4541   32.6130   47.4635 H   0  0  0  0  0  0  0  0  0  0  0  0
   56.8023   30.4666   41.4825 H   0  0  0  0  0  0  0  0  0  0  0  0
   56.1910   28.5080   42.7570 H   0  0  0  0  0  0  0  0  0  0  0  0
   58.9436   28.4064   46.1107 H   0  0  0  0  0  0  0  0  0  0  0  0
   60.3316   26.3963   46.5027 H   0  0  0  0  0  0  0  0  0  0  0  0
  1  2  1  0
  2  3  2  0
  2  4  2  0
  2  5  1  0
  5  6  1  0
  6  7  2  0
  7  8  1  0
  8  9  1  0
  9 10  2  0
 10 11  1  0
 11 12  2  0
 12 13  1  0
 13 14  1  0
 14 15  1  0
 15 16  1  0
 16 17  1  0
 17 18  2  0
 18 19  1  0
 19 20  2  0
 20 21  1  0
 20 22  1  0
 22 23  2  0
 23 24  1  0
 15 25  1  0
 12 26  1  0
 26 27  2  0
 27 28  1  0
  8 29  2  0
 29 30  1  0
 30 31  2  0
 31  6  1  0
 28 10  1  0
 25 13  1  0
 23 17  1  0
  1 32  1  0
  1 33  1  0
  5 34  1  0
  5 35  1  0
  7 36  1  0
 14 37  1  0
 14 38  1  0
 15 39  1  0
 18 40  1  0
 19 41  1  0
 22 42  1  0
 25 43  1  0
 25 44  1  0
 27 45  1  0
 28 46  1  0
 29 47  1  0
 30 48  1  0
M  END
>  <smiles>  (47) 
NS(=O)(=O)Cc1cc(N=c2nc(N3CC(Oc4ccc(F)cc4F)C3)nc[nH]2)ccn1

>  <score_type>  (47) 
oracle

>  <origin>  (47) 
adg

>  <m_score__min__energy>  (47) 
-9.4399999999999995

>  <m_primary>  (47) 
energy

$$$$
48:0
     RDKit          3D

 60 63  0  0  0  0  0  0  0  0999 V2000
   57.7990   33.4430   45.5020 C   0  0  0  0  0  0  0  0  0  0  0  0
   58.0830   32.1130   46.2040 C   0  0  0  0  0  0  0  0  0  0  0  0
   59.2670   31.4200   45.6290 N   0  0  2  0  0  0  0  0  0  0  0  0
   58.9100   30.1470   45.0150 C   0  0  0  0  0  0  0  0  0  0  0  0
   59.8070   29.3210   44.6800 O   0  0  0  0  0  0  0  0  0  0  0  0
   57.5020   29.8240   44.6970 C   0  0  0  0  0  0  0  0  0  0  0  0
   56.7460   30.3510   43.6670 C   0  0  0  0  0  0  0  0  0  0  0  0
   55.4950   29.7860   43.7950 C   0  0  0  0  0  0  0  0  0  0  0  0
   55.4810   28.9670   44.8230 O   0  0  0  0  0  0  0  0  0  0  0  0
   56.6670   28.9650   45.3860 C   0  0  0  0  0  0  0  0  0  0  0  0
   60.3780   31.2260   46.6140 C   0  0  0  0  0  0  0  0  0  0  0  0
   60.5620   32.4690   47.5330 C   0  0  0  0  0  0  0  0  0  0  0  0
   60.9510   32.0840   48.9590 C   0  0  0  0  0  0  0  0  0  0  0  0
   59.9210   31.1910   49.5010 N   0  0  0  0  0  0  0  0  0  0  0  0
   58.9420   31.7680   50.3800 C   0  0  0  0  0  0  0  0  0  0  0  0
   58.2380   32.7260   49.9550 O   0  0  0  0  0  0  0  0  0  0  0  0
   58.8140   31.3410   51.7540 N   0  0  0  0  0  0  0  0  0  0  0  0
   58.8330   29.9300   52.1150 C   0  0  0  0  0  0  0  0  0  0  0  0
   57.4170   29.3680   51.9990 C   0  0  0  0  0  0  0  0  0  0  0  0
   56.3710   30.2970   52.4930 N   0  0  0  0  0  0  0  0  0  0  0  0
   55.0200   29.7800   52.5840 C   0  0  0  0  0  0  0  0  0  0  0  0
   54.8190   28.5360   52.4550 O   0  0  0  0  0  0  0  0  0  0  0  0
   53.8360   30.6990   52.8060 C   0  0  0  0  0  0  0  0  0  0  0  0
   52.4840   30.1520   52.3690 C   0  0  0  0  0  0  0  0  0  0  0  0
   53.1690   31.2360   51.5470 C   0  0  0  0  0  0  0  0  0  0  0  0
   56.5870   31.7590   52.6320 C   0  0  0  0  0  0  0  0  0  0  0  0
   58.0590   32.1600   52.6930 C   0  0  0  0  0  0  0  0  0  0  0  0
   59.5810   29.9620   48.7590 C   0  0  0  0  0  0  0  0  0  0  0  0
   60.3070   29.8730   47.4000 C   0  0  0  0  0  0  0  0  0  0  0  0
   57.6316   34.2268   46.2554 H   0  0  0  0  0  0  0  0  0  0  0  0
   58.6590   33.7166   44.8730 H   0  0  0  0  0  0  0  0  0  0  0  0
   56.9023   33.3415   44.8730 H   0  0  0  0  0  0  0  0  0  0  0  0
   58.2687   32.3072   47.2707 H   0  0  0  0  0  0  0  0  0  0  0  0
   57.2076   31.4618   46.0642 H   0  0  0  0  0  0  0  0  0  0  0  0
   59.6310   32.0340   44.8630 H   0  0  0  0  0  0  0  0  0  0  0  0
   57.0743   31.0717   42.9036 H   0  0  0  0  0  0  0  0  0  0  0  0
   54.6379   29.9898   43.1363 H   0  0  0  0  0  0  0  0  0  0  0  0
   56.9515   28.3724   46.2680 H   0  0  0  0  0  0  0  0  0  0  0  0
   61.2977   31.1377   46.0170 H   0  0  0  0  0  0  0  0  0  0  0  0
   61.3524   33.1070   47.1109 H   0  0  0  0  0  0  0  0  0  0  0  0
   59.5991   32.9989   47.5786 H   0  0  0  0  0  0  0  0  0  0  0  0
   61.9223   31.5677   48.9514 H   0  0  0  0  0  0  0  0  0  0  0  0
   61.0316   32.9864   49.5828 H   0  0  0  0  0  0  0  0  0  0  0  0
   59.5033   29.3842   51.4347 H   0  0  0  0  0  0  0  0  0  0  0  0
   59.1951   29.8153   53.1474 H   0  0  0  0  0  0  0  0  0  0  0  0
   57.2153   29.1473   50.9404 H   0  0  0  0  0  0  0  0  0  0  0  0
   57.3734   28.4666   52.6279 H   0  0  0  0  0  0  0  0  0  0  0  0
   54.2344   31.1475   53.7280 H   0  0  0  0  0  0  0  0  0  0  0  0
   52.4065   29.1284   51.9737 H   0  0  0  0  0  0  0  0  0  0  0  0
   51.4983   30.0428   52.8450 H   0  0  0  0  0  0  0  0  0  0  0  0
   53.5862   30.9953   50.5581 H   0  0  0  0  0  0  0  0  0  0  0  0
   52.8831   32.2340   51.1834 H   0  0  0  0  0  0  0  0  0  0  0  0
   56.1259   32.2616   51.7690 H   0  0  0  0  0  0  0  0  0  0  0  0
   56.1321   32.0613   53.5868 H   0  0  0  0  0  0  0  0  0  0  0  0
   58.1634   33.2213   52.4232 H   0  0  0  0  0  0  0  0  0  0  0  0
   58.4436   32.0065   53.7121 H   0  0  0  0  0  0  0  0  0  0  0  0
   59.8653   29.0917   49.3686 H   0  0  0  0  0  0  0  0  0  0  0  0
   58.4993   29.9799   48.5599 H   0  0  0  0  0  0  0  0  0  0  0  0
   61.3350   29.5262   47.5813 H   0  0  0  0  0  0  0  0  0  0  0  0
   59.7235   29.1788   46.7775 H   0  0  0  0  0  0  0  0  0  0  0  0
  1  2  1  0
  2  3  1  0
  3  4  1  0
  4  5  2  0
  4  6  1  0
  6  7  1  0
  7  8  2  0
  8  9  1  0
  9 10  1  0
  3 11  1  0
 11 12  1  0
 12 13  1  0
 13 14  1  0
 14 15  1  0
 15 16  2  0
 15 17  1  0
 17 18  1  0
 18 19  1  0
 19 20  1  0
 20 21  1  0
 21 22  2  0
 21 23  1  0
 23 24  1  0
 24 25  1  0
 20 26  1  0
 26 27  1  0
 14 28  1  0
 28 29  1  0
 10  6  2  0
 29 11  1  0
 27 17  1  0
 25 23  1  0
  1 30  1  0
  1 31  1  0
  1 32  1  0
  2 33  1  0
  2 34  1  0
  3 35  1  6
  7 36  1  0
  8 37  1  0
 10 38  1  0
 11 39  1  0
 12 40  1  0
 12 41  1  0
 13 42  1  0
 13 43  1  0
 18 44  1  0
 18 45  1  0
 19 46  1  0
 19 47  1  0
 23 48  1  0
 24 49  1  0
 24 50  1  0
 25 51  1  0
 25 52  1  0
 26 53  1  0
 26 54  1  0
 27 55  1  0
 27 56  1  0
 28 57  1  0
 28 58  1  0
 29 59  1  0
 29 60  1  0
M  CHG  1   3   1
M  END
>  <UniqueID>  (48) 
43

>  <SMILES>  (48) 
CC[N@H+](C(=O)c1ccoc1)C1CCN(C(=O)N2CCN(C(=O)C3CC3)CC2)CC1

>  <Energy>  (48) 
376.718819382142

>  <Genealogy>  (48) 
CC[NH+](C(=O)c1ccoc1)C1CCN(C(=O)N2CCN(C(=O)C3CC3)CC2)CC1 (protonated)
CC[N@H+](C(=O)c1ccoc1)C1CCN(C(=O)N2CCN(C(=O)C3CC3)CC2)CC1 (chirality)
CC[N@H+](C(=O)c1ccoc1)C1CCN(C(=O)N2CCN(C(=O)C3CC3)CC2)CC1 (3D coordinates assigned)
CC[N@H+](C(=O)c1ccoc1)C1CCN(C(=O)N2CCN(C(=O)C3CC3)CC2)CC1 (nonaromatic ring conformer: 376.718819382142 kcal/mol)

>  <smiles>  (48) 
CCN(C(=O)c1ccoc1)C1CCN(C(=O)N2CCN(C(=O)C3CC3)CC2)CC1

>  <score_type>  (48) 
oracle

>  <origin>  (48) 
adg

>  <m_score__min__energy>  (48) 
-6.2199999999999998

>  <m_primary>  (48) 
energy

$$$$
49:0
     RDKit          3D

 53 56  0  0  0  0  0  0  0  0999 V2000
   56.4009   30.3629   42.6995 H   0  0  0  0  0  0  0  0  0  0  0  0
   56.6510   29.4440   43.2500 C   0  0  0  0  0  0  0  0  0  0  0  0
   56.3468   28.4645   42.8524 H   0  0  0  0  0  0  0  0  0  0  0  0
   57.3280   29.5180   44.4080 C   0  0  0  0  0  0  0  0  0  0  0  0
   57.7230   28.4480   45.2280 C   0  0  0  0  0  0  0  0  0  0  0  0
   57.7010   27.1160   45.0200 C   0  0  0  0  0  0  0  0  0  0  0  0
   58.0917   26.7514   44.0585 H   0  0  0  0  0  0  0  0  0  0  0  0
   57.2000   26.1080   45.9670 C   0  0  0  0  0  0  0  0  0  0  0  0
   57.9490   25.0980   46.4460 N   0  0  0  0  0  0  0  0  0  0  0  0
   57.0630   24.3580   47.1510 C   0  0  0  0  0  0  0  0  0  0  0  0
   57.3950   23.3110   47.7700 O   0  0  0  0  0  0  0  0  0  0  0  0
   55.7930   24.8180   47.1270 N   0  0  0  0  0  0  0  0  0  0  0  0
   55.8930   25.9170   46.3610 C   0  0  0  0  0  0  0  0  0  0  0  0
   54.8060   26.7070   45.9990 O   0  0  0  0  0  0  0  0  0  0  0  0
   58.1870   29.0130   46.4030 C   0  0  0  0  0  0  0  0  0  0  0  0
   58.5347   28.4725   47.2957 H   0  0  0  0  0  0  0  0  0  0  0  0
   58.1310   30.3840   46.2430 C   0  0  0  0  0  0  0  0  0  0  0  0
   58.5360   31.3660   47.3090 C   0  0  0  0  0  0  0  0  0  0  0  0
   58.4680   32.3853   46.9011 H   0  0  0  0  0  0  0  0  0  0  0  0
   57.8596   31.2433   48.1677 H   0  0  0  0  0  0  0  0  0  0  0  0
   59.9430   31.1190   47.7760 C   0  0  0  0  0  0  0  0  0  0  0  0
   60.2550   29.9890   48.2460 O   0  0  0  0  0  0  0  0  0  0  0  0
   60.9210   32.1690   47.6910 N   0  0  0  0  0  0  0  0  0  0  0  0
   60.7310   32.9640   47.0390 H   0  0  0  0  0  0  0  0  0  0  0  0
   62.1850   32.1530   48.3800 C   0  0  0  0  0  0  0  0  0  0  0  0
   62.4070   31.3180   49.4910 C   0  0  0  0  0  0  0  0  0  0  0  0
   61.6135   30.6355   49.8293 H   0  0  0  0  0  0  0  0  0  0  0  0
   63.6300   31.3510   50.1670 C   0  0  0  0  0  0  0  0  0  0  0  0
   63.7980   30.6830   51.0247 H   0  0  0  0  0  0  0  0  0  0  0  0
   64.6460   32.2310   49.7590 C   0  0  0  0  0  0  0  0  0  0  0  0
   65.9050   32.2610   50.4600 N   0  0  0  0  0  0  0  0  0  0  0  0
   66.4470   31.0210   51.0320 C   0  0  0  0  0  0  0  0  0  0  0  0
   65.6650   30.5229   51.6240 H   0  0  0  0  0  0  0  0  0  0  0  0
   66.7769   30.3648   50.2131 H   0  0  0  0  0  0  0  0  0  0  0  0
   67.6430   31.3280   51.9340 C   0  0  0  0  0  0  0  0  0  0  0  0
   67.8057   30.4895   52.6271 H   0  0  0  0  0  0  0  0  0  0  0  0
   68.5430   31.4706   51.3178 H   0  0  0  0  0  0  0  0  0  0  0  0
   67.3810   32.5050   52.6700 O   0  0  0  0  0  0  0  0  0  0  0  0
   67.4790   33.6390   51.8240 C   0  0  0  0  0  0  0  0  0  0  0  0
   67.0775   34.5096   52.3634 H   0  0  0  0  0  0  0  0  0  0  0  0
   68.5422   33.7558   51.5673 H   0  0  0  0  0  0  0  0  0  0  0  0
   66.7070   33.4930   50.4900 C   0  0  0  0  0  0  0  0  0  0  0  0
   66.0378   34.3575   50.3686 H   0  0  0  0  0  0  0  0  0  0  0  0
   67.4406   33.4456   49.6717 H   0  0  0  0  0  0  0  0  0  0  0  0
   64.4200   33.0730   48.6580 C   0  0  0  0  0  0  0  0  0  0  0  0
   65.2093   33.7637   48.3264 H   0  0  0  0  0  0  0  0  0  0  0  0
   63.1970   33.0380   47.9810 C   0  0  0  0  0  0  0  0  0  0  0  0
   63.0272   33.7109   47.1275 H   0  0  0  0  0  0  0  0  0  0  0  0
   57.6090   30.6940   45.0300 N   0  0  0  0  0  0  0  0  0  0  0  0
   57.2930   32.0370   44.5250 C   0  0  0  0  0  0  0  0  0  0  0  0
   57.1325   32.7192   45.3729 H   0  0  0  0  0  0  0  0  0  0  0  0
   58.1292   32.4044   43.9120 H   0  0  0  0  0  0  0  0  0  0  0  0
   56.3807   31.9930   43.9120 H   0  0  0  0  0  0  0  0  0  0  0  0
  1  2  1  0
  2  3  1  0
  2  4  2  0
  4  5  1  0
  5  6  2  0
  6  7  1  0
  6  8  1  0
  8  9  1  0
  9 10  1  0
 10 11  2  0
 10 12  1  0
 12 13  1  0
 13 14  1  0
  5 15  1  0
 15 16  1  0
 15 17  2  0
 17 18  1  0
 18 19  1  0
 18 20  1  0
 18 21  1  0
 21 22  2  0
 21 23  1  0
 23 24  1  0
 23 25  1  0
 25 26  2  0
 26 27  1  0
 26 28  1  0
 28 29  1  0
 28 30  2  0
 30 31  1  0
 31 32  1  0
 32 33  1  0
 32 34  1  0
 32 35  1  0
 35 36  1  0
 35 37  1  0
 35 38  1  0
 38 39  1  0
 39 40  1  0
 39 41  1  0
 39 42  1  0
 42 43  1  0
 42 44  1  0
 30 45  1  0
 45 46  1  0
 45 47  2  0
 47 48  1  0
 17 49  1  0
 49 50  1  0
 50 51  1  0
 50 52  1  0
 50 53  1  0
 49  4  1  0
 13  8  2  0
 47 25  1  0
 42 31  1  0
M  CHG  3   9  -1  12  -1  14  -1
M  END
>  <UniqueID>  (49) 
44

>  <SMILES>  (49) 
C=c1/c(=C\c2[n-]c(=O)[n-]c2[O-])cc(CC(=O)Nc2ccc(N3CCOCC3)cc2)n1C

>  <Energy>  (49) 
139.86784763159542

>  <Genealogy>  (49) 
C=c1c(=Cc2[n-]c(=O)[n-]c2[O-])cc(CC(=O)Nc2ccc(N3CCOCC3)cc2)n1C (protonated)
C=c1/c(=C\c2[n-]c(=O)[n-]c2[O-])cc(CC(=O)Nc2ccc(N3CCOCC3)cc2)n1C (cis-trans isomerization)
C=c1/c(=C\c2[n-]c(=O)[n-]c2[O-])cc(CC(=O)Nc2ccc(N3CCOCC3)cc2)n1C (3D coordinates assigned)
C=c1/c(=C\c2[n-]c(=O)[n-]c2[O-])cc(CC(=O)Nc2ccc(N3CCOCC3)cc2)n1C (nonaromatic ring conformer: 139.86784763159542 kcal/mol)

>  <smiles>  (49) 
C=c1c(=Cc2[nH]c(=O)[nH]c2O)cc(CC(=O)Nc2ccc(N3CCOCC3)cc2)n1C

>  <score_type>  (49) 
oracle

>  <origin>  (49) 
adg

>  <m_score__min__energy>  (49) 
-17.41

>  <m_primary>  (49) 
energy

$$$$
50:0
     RDKit          3D

 49 51  0  0  0  0  0  0  0  0999 V2000
   59.5983   28.0266   46.8972 H   0  0  0  0  0  0  0  0  0  0  0  0
   59.7840   29.0930   47.0930 C   0  0  0  0  0  0  0  0  0  0  0  0
   60.1360   29.4650   48.4890 C   0  0  0  0  0  0  0  0  0  0  0  0
   61.1390   28.9080   49.0200 O   0  0  0  0  0  0  0  0  0  0  0  0
   59.4830   30.5510   49.1540 N   0  0  0  0  0  0  0  0  0  0  0  0
   59.7470   31.8290   48.9950 C   0  0  0  0  0  0  0  0  0  0  0  0
   61.1420   32.3990   49.2060 C   0  0  0  0  0  0  0  0  0  0  0  0
   61.2160   33.5590   49.7000 O   0  0  0  0  0  0  0  0  0  0  0  0
   62.3670   31.7190   48.7710 N   0  0  0  0  0  0  0  0  0  0  0  0
   62.3060   30.7140   49.0280 H   0  0  0  0  0  0  0  0  0  0  0  0
   62.6060   31.8550   47.3270 C   0  0  0  0  0  0  0  0  0  0  0  0
   63.1099   30.9562   46.9420 H   0  0  0  0  0  0  0  0  0  0  0  0
   61.6570   31.9714   46.7831 H   0  0  0  0  0  0  0  0  0  0  0  0
   63.4920   33.0720   47.1320 C   0  0  0  0  0  0  0  0  0  0  0  0
   64.2646   32.8691   46.3757 H   0  0  0  0  0  0  0  0  0  0  0  0
   62.9210   33.9428   46.7775 H   0  0  0  0  0  0  0  0  0  0  0  0
   64.1300   33.3260   48.4920 C   0  0  0  0  0  0  0  0  0  0  0  0
   65.2259   33.2647   48.4198 H   0  0  0  0  0  0  0  0  0  0  0  0
   63.8892   34.3289   48.8744 H   0  0  0  0  0  0  0  0  0  0  0  0
   63.5980   32.2370   49.3990 C   0  0  0  0  0  0  0  0  0  0  0  0
   64.3401   31.4311   49.4979 H   0  0  0  0  0  0  0  0  0  0  0  0
   63.3913   32.6293   50.4057 H   0  0  0  0  0  0  0  0  0  0  0  0
   58.5320   32.7080   48.7230 C   0  0  0  0  0  0  0  0  0  0  0  0
   57.6357   32.0729   48.7805 H   0  0  0  0  0  0  0  0  0  0  0  0
   58.5631   33.5052   49.4803 H   0  0  0  0  0  0  0  0  0  0  0  0
   58.5180   33.4100   47.3870 C   0  0  0  0  0  0  0  0  0  0  0  0
   59.6590   34.0970   46.9350 C   0  0  0  0  0  0  0  0  0  0  0  0
   60.5545   34.1508   47.5716 H   0  0  0  0  0  0  0  0  0  0  0  0
   59.6590   34.7120   45.6790 C   0  0  0  0  0  0  0  0  0  0  0  0
   60.5498   35.2579   45.3348 H   0  0  0  0  0  0  0  0  0  0  0  0
   58.5270   34.6340   44.8590 C   0  0  0  0  0  0  0  0  0  0  0  0
   58.5322   35.1112   43.8679 H   0  0  0  0  0  0  0  0  0  0  0  0
   57.3900   33.9500   45.2990 C   0  0  0  0  0  0  0  0  0  0  0  0
   56.5048   33.8824   44.6495 H   0  0  0  0  0  0  0  0  0  0  0  0
   57.3750   33.3500   46.5660 C   0  0  0  0  0  0  0  0  0  0  0  0
   56.4708   32.8325   46.9189 H   0  0  0  0  0  0  0  0  0  0  0  0
   59.6700   29.9270   46.0480 C   0  0  0  0  0  0  0  0  0  0  0  0
   60.5358   30.5636   45.8133 H   0  0  0  0  0  0  0  0  0  0  0  0
   58.4800   30.0600   45.1890 C   0  0  0  0  0  0  0  0  0  0  0  0
   57.3430   29.2530   45.3800 C   0  0  0  0  0  0  0  0  0  0  0  0
   57.3217   28.5116   46.1924 H   0  0  0  0  0  0  0  0  0  0  0  0
   56.2400   29.3980   44.5320 C   0  0  0  0  0  0  0  0  0  0  0  0
   55.3431   28.7804   44.6877 H   0  0  0  0  0  0  0  0  0  0  0  0
   56.2750   30.3270   43.4860 C   0  0  0  0  0  0  0  0  0  0  0  0
   55.4232   30.4068   42.7946 H   0  0  0  0  0  0  0  0  0  0  0  0
   57.3910   31.1550   43.3170 C   0  0  0  0  0  0  0  0  0  0  0  0
   57.4026   31.9069   42.5142 H   0  0  0  0  0  0  0  0  0  0  0  0
   58.4880   31.0250   44.1680 C   0  0  0  0  0  0  0  0  0  0  0  0
   59.3623   31.6800   44.0395 H   0  0  0  0  0  0  0  0  0  0  0  0
  1  2  1  0
  2  3  1  0
  3  4  2  0
  3  5  1  0
  5  6  2  0
  6  7  1  0
  7  8  2  0
  7  9  1  0
  9 10  1  0
  9 11  1  0
 11 12  1  0
 11 13  1  0
 11 14  1  0
 14 15  1  0
 14 16  1  0
 14 17  1  0
 17 18  1  0
 17 19  1  0
 17 20  1  0
 20 21  1  0
 20 22  1  0
  6 23  1  0
 23 24  1  0
 23 25  1  0
 23 26  1  0
 26 27  2  0
 27 28  1  0
 27 29  1  0
 29 30  1  0
 29 31  2  0
 31 32  1  0
 31 33  1  0
 33 34  1  0
 33 35  2  0
 35 36  1  0
  2 37  2  3
 37 38  1  0
 37 39  1  0
 39 40  2  0
 40 41  1  0
 40 42  1  0
 42 43  1  0
 42 44  2  0
 44 45  1  0
 44 46  1  0
 46 47  1  0
 46 48  2  0
 48 49  1  0
 20  9  1  0
 35 26  1  0
 48 39  1  0
M  CHG  1   9   1
M  END
>  <UniqueID>  (50) 
45

>  <SMILES>  (50) 
O=C(C=Cc1ccccc1)/N=C(/Cc1ccccc1)C(=O)[NH+]1CCCC1

>  <Energy>  (50) 
86.29844037404067

>  <Genealogy>  (50) 
O=C(C=Cc1ccccc1)N=C(Cc1ccccc1)C(=O)[NH+]1CCCC1 (protonated)
O=C(C=Cc1ccccc1)/N=C(/Cc1ccccc1)C(=O)[NH+]1CCCC1 (cis-trans isomerization)
O=C(C=Cc1ccccc1)/N=C(/Cc1ccccc1)C(=O)[NH+]1CCCC1 (3D coordinates assigned)
O=C(C=Cc1ccccc1)/N=C(/Cc1ccccc1)C(=O)[NH+]1CCCC1 (nonaromatic ring conformer: 86.29844037404067 kcal/mol)

>  <smiles>  (50) 
O=C(C=Cc1ccccc1)N=C(Cc1ccccc1)C(=O)N1CCCC1

>  <score_type>  (50) 
oracle

>  <origin>  (50) 
adg

>  <m_score__min__energy>  (50) 
-7.0999999999999996

>  <m_primary>  (50) 
energy

$$$$
51:0
     RDKit          3D

 64 68  0  0  0  0  0  0  0  0999 V2000
   63.3620   31.7120   51.6530 C   0  0  0  0  0  0  0  0  0  0  0  0
   63.8950   33.0140   51.0450 C   0  0  1  0  0  0  0  0  0  0  0  0
   65.3890   33.2410   51.3840 C   0  0  0  0  0  0  0  0  0  0  0  0
   66.2900   32.1270   50.9130 C   0  0  0  0  0  0  0  0  0  0  0  0
   66.9480   32.2490   49.8450 O   0  0  0  0  0  0  0  0  0  0  0  0
   66.4520   30.9400   51.7100 N   0  0  0  0  0  0  0  0  0  0  0  0
   67.2880   30.9610   52.9080 C   0  0  0  0  0  0  0  0  0  0  0  0
   68.5590   30.1570   52.6290 C   0  0  0  0  0  0  0  0  0  0  0  0
   68.2550   28.8220   51.9830 C   0  0  0  0  0  0  0  0  0  0  0  0
   69.2380   27.8180   51.9970 C   0  0  0  0  0  0  0  0  0  0  0  0
   69.0100   26.5980   51.3540 C   0  0  0  0  0  0  0  0  0  0  0  0
   67.8080   26.3710   50.6850 C   0  0  0  0  0  0  0  0  0  0  0  0
   66.8260   27.3650   50.6510 C   0  0  0  0  0  0  0  0  0  0  0  0
   67.0450   28.6010   51.2810 C   0  0  0  0  0  0  0  0  0  0  0  0
   65.9470   29.6370   51.2630 C   0  0  0  0  0  0  0  0  0  0  0  0
   63.6490   33.0410   49.5510 C   0  0  0  0  0  0  0  0  0  0  0  0
   64.4980   32.5000   48.6520 N   0  0  0  0  0  0  0  0  0  0  0  0
   64.0240   32.7280   47.4360 N   0  0  0  0  0  0  0  0  0  0  0  0
   62.8700   33.3990   47.6170 C   0  0  0  0  0  0  0  0  0  0  0  0
   62.6020   33.6070   48.9110 N   0  0  0  0  0  0  0  0  0  0  0  0
   61.5070   34.4570   49.3670 C   0  0  0  0  0  0  0  0  0  0  0  0
   60.2810   34.2670   48.4530 C   0  0  0  0  0  0  0  0  0  0  0  0
   60.6280   34.1190   47.0220 N   0  0  0  0  0  0  0  0  0  0  0  0
   59.5570   34.1550   46.0640 C   0  0  0  0  0  0  0  0  0  0  0  0
   59.1960   35.2630   45.5830 O   0  0  0  0  0  0  0  0  0  0  0  0
   58.8610   32.9150   45.6500 C   0  0  0  0  0  0  0  0  0  0  0  0
   58.1530   32.8630   44.4370 C   0  0  0  0  0  0  0  0  0  0  0  0
   57.4840   31.6970   44.0560 C   0  0  0  0  0  0  0  0  0  0  0  0
   57.5220   30.5610   44.8760 C   0  0  0  0  0  0  0  0  0  0  0  0
   56.6730   29.0890   44.4100 S   0  0  0  0  0  0  0  0  0  0  0  0
   54.9660   29.3480   44.4930 N   0  0  0  0  0  0  0  0  0  0  0  0
   57.0320   28.7050   43.0030 O   0  0  0  0  0  0  0  0  0  0  0  0
   57.0630   27.9720   45.3380 O   0  0  0  0  0  0  0  0  0  0  0  0
   58.2490   30.5990   46.0710 C   0  0  0  0  0  0  0  0  0  0  0  0
   58.9220   31.7640   46.4530 C   0  0  0  0  0  0  0  0  0  0  0  0
   62.0140   33.9640   46.5380 C   0  0  0  0  0  0  0  0  0  0  0  0
   63.3904   31.7813   52.7505 H   0  0  0  0  0  0  0  0  0  0  0  0
   62.3254   31.5504   51.3225 H   0  0  0  0  0  0  0  0  0  0  0  0
   63.9877   30.8699   51.3225 H   0  0  0  0  0  0  0  0  0  0  0  0
   63.3408   33.8495   51.4974 H   0  0  0  0  0  0  0  0  0  0  0  0
   65.7154   34.1774   50.9079 H   0  0  0  0  0  0  0  0  0  0  0  0
   65.4692   33.2796   52.4804 H   0  0  0  0  0  0  0  0  0  0  0  0
   67.5531   31.9991   53.1569 H   0  0  0  0  0  0  0  0  0  0  0  0
   66.7424   30.5202   53.7553 H   0  0  0  0  0  0  0  0  0  0  0  0
   69.2063   30.7382   51.9557 H   0  0  0  0  0  0  0  0  0  0  0  0
   69.0568   29.9637   53.5907 H   0  0  0  0  0  0  0  0  0  0  0  0
   70.1917   27.9930   52.5165 H   0  0  0  0  0  0  0  0  0  0  0  0
   69.7816   25.8143   51.3759 H   0  0  0  0  0  0  0  0  0  0  0  0
   67.6322   25.4081   50.1831 H   0  0  0  0  0  0  0  0  0  0  0  0
   65.8765   27.1782   50.1280 H   0  0  0  0  0  0  0  0  0  0  0  0
   65.5587   29.7331   50.2383 H   0  0  0  0  0  0  0  0  0  0  0  0
   65.1478   29.3153   51.9470 H   0  0  0  0  0  0  0  0  0  0  0  0
   65.3940   32.0020   48.8520 H   0  0  0  0  0  0  0  0  0  0  0  0
   61.2389   34.1846   50.3985 H   0  0  0  0  0  0  0  0  0  0  0  0
   61.8259   35.5092   49.3316 H   0  0  0  0  0  0  0  0  0  0  0  0
   59.7428   33.3636   48.7759 H   0  0  0  0  0  0  0  0  0  0  0  0
   59.6660   35.1744   48.5443 H   0  0  0  0  0  0  0  0  0  0  0  0
   58.1254   33.7468   43.7827 H   0  0  0  0  0  0  0  0  0  0  0  0
   56.9253   31.6705   43.1088 H   0  0  0  0  0  0  0  0  0  0  0  0
   54.7060   29.3550   45.5050 H   0  0  0  0  0  0  0  0  0  0  0  0
   58.2914   29.7073   46.7138 H   0  0  0  0  0  0  0  0  0  0  0  0
   59.5023   31.7791   47.3874 H   0  0  0  0  0  0  0  0  0  0  0  0
   62.0238   33.2854   45.6723 H   0  0  0  0  0  0  0  0  0  0  0  0
   62.4062   34.9489   46.2445 H   0  0  0  0  0  0  0  0  0  0  0  0
  1  2  1  0
  2  3  1  0
  3  4  1  0
  4  5  2  0
  4  6  1  0
  6  7  1  0
  7  8  1  0
  8  9  1  0
  9 10  2  0
 10 11  1  0
 11 12  2  0
 12 13  1  0
 13 14  2  0
 14 15  1  0
  2 16  1  0
 16 17  2  0
 17 18  1  0
 18 19  2  0
 19 20  1  0
 20 21  1  0
 21 22  1  0
 22 23  1  0
 23 24  1  0
 24 25  2  0
 24 26  1  0
 26 27  2  0
 27 28  1  0
 28 29  2  0
 29 30  1  0
 30 31  1  0
 30 32  2  0
 30 33  2  0
 29 34  1  0
 34 35  2  0
 23 36  1  0
 15  6  1  0
 20 16  1  0
 35 26  1  0
 14  9  1  0
 36 19  1  0
  1 37  1  0
  1 38  1  0
  1 39  1  0
  2 40  1  1
  3 41  1  0
  3 42  1  0
  7 43  1  0
  7 44  1  0
  8 45  1  0
  8 46  1  0
 10 47  1  0
 11 48  1  0
 12 49  1  0
 13 50  1  0
 15 51  1  0
 15 52  1  0
 17 53  1  0
 21 54  1  0
 21 55  1  0
 22 56  1  0
 22 57  1  0
 27 58  1  0
 28 59  1  0
 31 60  1  0
 34 61  1  0
 35 62  1  0
 36 63  1  0
 36 64  1  0
M  CHG  2  17   1  31  -1
M  END
>  <UniqueID>  (51) 
46

>  <SMILES>  (51) 
C[C@@H](CC(=O)N1CCc2ccccc2C1)c1[nH+]nc2n1CCN(C(=O)c1ccc(S([NH-])(=O)=O)cc1)C2

>  <Energy>  (51) 
117.99135920503093

>  <Genealogy>  (51) 
CC(CC(=O)N1CCc2ccccc2C1)c1[nH+]nc2n1CCN(C(=O)c1ccc(S([NH-])(=O)=O)cc1)C2 (protonated)
C[C@@H](CC(=O)N1CCc2ccccc2C1)c1[nH+]nc2n1CCN(C(=O)c1ccc(S([NH-])(=O)=O)cc1)C2 (chirality)
C[C@@H](CC(=O)N1CCc2ccccc2C1)c1[nH+]nc2n1CCN(C(=O)c1ccc(S([NH-])(=O)=O)cc1)C2 (3D coordinates assigned)
C[C@@H](CC(=O)N1CCc2ccccc2C1)c1[nH+]nc2n1CCN(C(=O)c1ccc(S([NH-])(=O)=O)cc1)C2 (nonaromatic ring conformer: 117.99135920503093 kcal/mol)

>  <smiles>  (51) 
CC(CC(=O)N1CCc2ccccc2C1)c1nnc2n1CCN(C(=O)c1ccc(S(N)(=O)=O)cc1)C2

>  <score_type>  (51) 
oracle

>  <origin>  (51) 
adg

>  <m_score__min__energy>  (51) 
-11.92

>  <m_primary>  (51) 
energy

$$$$
52:0
     RDKit          3D

 74 76  0  0  0  0  0  0  0  0999 V2000
   64.7160   32.7130   49.1030 C   0  0  0  0  0  0  0  0  0  0  0  0
   63.4690   32.9370   48.2350 C   0  0  0  0  0  0  0  0  0  0  0  0
   63.8910   33.1140   46.7680 C   0  0  0  0  0  0  0  0  0  0  0  0
   62.4700   31.7590   48.4210 C   0  0  0  0  0  0  0  0  0  0  0  0
   61.0990   32.2070   48.7770 N   0  0  1  0  0  0  0  0  0  0  0  0
   61.0530   33.0780   49.9790 C   0  0  0  0  0  0  0  0  0  0  0  0
   59.6320   33.4710   50.4560 C   0  0  0  0  0  0  0  0  0  0  0  0
   58.4810   32.5220   50.0040 C   0  0  2  0  0  0  0  0  0  0  0  0
   58.7640   31.0600   50.4010 C   0  0  0  0  0  0  0  0  0  0  0  0
   58.5250   30.1650   49.2690 N   0  0  0  0  0  0  0  0  0  0  0  0
   59.5220   29.4340   48.5410 C   0  0  0  0  0  0  0  0  0  0  0  0
   60.7070   29.4480   48.9680 O   0  0  0  0  0  0  0  0  0  0  0  0
   59.2170   28.6810   47.3070 C   0  0  0  0  0  0  0  0  0  0  0  0
   59.9500   28.9020   46.1300 C   0  0  0  0  0  0  0  0  0  0  0  0
   59.6330   28.2030   44.9620 C   0  0  0  0  0  0  0  0  0  0  0  0
   58.5780   27.2870   44.9560 C   0  0  0  0  0  0  0  0  0  0  0  0
   57.8310   27.0690   46.1200 C   0  0  0  0  0  0  0  0  0  0  0  0
   56.4780   25.9420   46.0970 S   0  0  0  0  0  0  0  0  0  0  0  0
   56.6610   24.8290   44.7240 C   0  0  0  0  0  0  0  0  0  0  0  0
   56.4460   25.1580   47.3800 O   0  0  0  0  0  0  0  0  0  0  0  0
   55.1840   26.6970   45.9620 O   0  0  0  0  0  0  0  0  0  0  0  0
   58.1440   27.7770   47.2890 C   0  0  0  0  0  0  0  0  0  0  0  0
   58.1660   32.5890   48.5640 N   0  0  0  0  0  0  0  0  0  0  0  0
   59.0600   33.4760   47.8050 C   0  0  2  0  0  0  0  0  0  0  0  0
   58.3950   33.8220   46.4560 C   0  0  0  0  0  0  0  0  0  0  0  0
   57.0250   33.1350   46.2930 C   0  0  0  0  0  0  0  0  0  0  0  0
   56.9380   32.3940   45.0170 N   0  0  0  0  0  0  0  0  0  0  0  0
   57.7170   33.0670   43.9430 C   0  0  0  0  0  0  0  0  0  0  0  0
   58.0250   32.1420   42.7460 C   0  0  0  0  0  0  0  0  0  0  0  0
   57.0330   30.9820   42.6740 C   0  0  0  0  0  0  0  0  0  0  0  0
   57.0700   30.1500   43.9660 C   0  0  0  0  0  0  0  0  0  0  0  0
   57.3970   31.0030   45.2060 C   0  0  0  0  0  0  0  0  0  0  0  0
   60.4150   32.8030   47.6440 C   0  0  0  0  0  0  0  0  0  0  0  0
   60.9050   32.6920   46.5270 O   0  0  0  0  0  0  0  0  0  0  0  0
   64.4368   32.7632   50.1658 H   0  0  0  0  0  0  0  0  0  0  0  0
   65.1434   31.7237   48.8825 H   0  0  0  0  0  0  0  0  0  0  0  0
   65.4610   33.4917   48.8825 H   0  0  0  0  0  0  0  0  0  0  0  0
   62.9511   33.8551   48.5495 H   0  0  0  0  0  0  0  0  0  0  0  0
   64.9047   33.5392   46.7268 H   0  0  0  0  0  0  0  0  0  0  0  0
   63.8826   32.1365   46.2636 H   0  0  0  0  0  0  0  0  0  0  0  0
   63.1878   33.7930   46.2636 H   0  0  0  0  0  0  0  0  0  0  0  0
   62.4194   31.1913   47.4802 H   0  0  0  0  0  0  0  0  0  0  0  0
   62.8404   31.1439   49.2544 H   0  0  0  0  0  0  0  0  0  0  0  0
   60.5560   31.3570   49.0560 H   0  0  0  0  0  0  0  0  0  0  0  0
   61.5538   32.5479   50.8025 H   0  0  0  0  0  0  0  0  0  0  0  0
   61.5496   34.0173   49.6941 H   0  0  0  0  0  0  0  0  0  0  0  0
   59.6389   33.4940   51.5557 H   0  0  0  0  0  0  0  0  0  0  0  0
   59.4181   34.4446   49.9909 H   0  0  0  0  0  0  0  0  0  0  0  0
   57.5940   32.8905   50.5402 H   0  0  0  0  0  0  0  0  0  0  0  0
   59.8128   30.9682   50.7196 H   0  0  0  0  0  0  0  0  0  0  0  0
   58.0909   30.7789   51.2244 H   0  0  0  0  0  0  0  0  0  0  0  0
   60.7766   29.6278   46.1272 H   0  0  0  0  0  0  0  0  0  0  0  0
   60.2157   28.3745   44.0449 H   0  0  0  0  0  0  0  0  0  0  0  0
   58.3339   26.7364   44.0356 H   0  0  0  0  0  0  0  0  0  0  0  0
   56.8288   23.8086   45.0990 H   0  0  0  0  0  0  0  0  0  0  0  0
   55.7475   24.8490   44.1115 H   0  0  0  0  0  0  0  0  0  0  0  0
   57.5200   25.1404   44.1115 H   0  0  0  0  0  0  0  0  0  0  0  0
   57.5443   27.6227   48.1982 H   0  0  0  0  0  0  0  0  0  0  0  0
   58.1460   31.6290   48.1410 H   0  0  0  0  0  0  0  0  0  0  0  0
   59.2309   34.4223   48.3392 H   0  0  0  0  0  0  0  0  0  0  0  0
   58.2547   34.9115   46.3986 H   0  0  0  0  0  0  0  0  0  0  0  0
   59.0529   33.4619   45.6513 H   0  0  0  0  0  0  0  0  0  0  0  0
   56.8768   32.4315   47.1255 H   0  0  0  0  0  0  0  0  0  0  0  0
   56.2471   33.9127   46.2937 H   0  0  0  0  0  0  0  0  0  0  0  0
   57.1387   33.9291   43.5792 H   0  0  0  0  0  0  0  0  0  0  0  0
   58.6804   33.3706   44.3785 H   0  0  0  0  0  0  0  0  0  0  0  0
   57.9622   32.7260   41.8159 H   0  0  0  0  0  0  0  0  0  0  0  0
   59.0357   31.7281   42.8769 H   0  0  0  0  0  0  0  0  0  0  0  0
   56.0186   31.3834   42.5327 H   0  0  0  0  0  0  0  0  0  0  0  0
   57.3098   30.3337   41.8296 H   0  0  0  0  0  0  0  0  0  0  0  0
   56.0865   29.6790   44.1109 H   0  0  0  0  0  0  0  0  0  0  0  0
   57.8656   29.3982   43.8575 H   0  0  0  0  0  0  0  0  0  0  0  0
   56.8932   30.5724   46.0839 H   0  0  0  0  0  0  0  0  0  0  0  0
   58.4867   31.0069   45.3559 H   0  0  0  0  0  0  0  0  0  0  0  0
  1  2  1  0
  2  3  1  0
  2  4  1  0
  4  5  1  0
  5  6  1  0
  6  7  1  0
  7  8  1  0
  8  9  1  0
  9 10  1  0
 10 11  1  0
 11 12  2  0
 11 13  1  0
 13 14  2  0
 14 15  1  0
 15 16  2  0
 16 17  1  0
 17 18  1  0
 18 19  1  0
 18 20  2  0
 18 21  2  0
 17 22  2  0
  8 23  1  0
 23 24  1  0
 24 25  1  0
 25 26  1  0
 26 27  1  0
 27 28  1  0
 28 29  1  0
 29 30  1  0
 30 31  1  0
 31 32  1  0
 24 33  1  0
 33 34  2  0
 33  5  1  0
 22 13  1  0
 32 27  1  0
  1 35  1  0
  1 36  1  0
  1 37  1  0
  2 38  1  0
  3 39  1  0
  3 40  1  0
  3 41  1  0
  4 42  1  0
  4 43  1  0
  5 44  1  1
  6 45  1  0
  6 46  1  0
  7 47  1  0
  7 48  1  0
  8 49  1  1
  9 50  1  0
  9 51  1  0
 14 52  1  0
 15 53  1  0
 16 54  1  0
 19 55  1  0
 19 56  1  0
 19 57  1  0
 22 58  1  0
 23 59  1  0
 24 60  1  1
 25 61  1  0
 25 62  1  0
 26 63  1  0
 26 64  1  0
 28 65  1  0
 28 66  1  0
 29 67  1  0
 29 68  1  0
 30 69  1  0
 30 70  1  0
 31 71  1  0
 31 72  1  0
 32 73  1  0
 32 74  1  0
M  CHG  2   5   1  10  -1
M  END
>  <UniqueID>  (52) 
47

>  <SMILES>  (52) 
CC(C)C[N@H+]1CC[C@H](C[N-]C(=O)c2cccc(S(C)(=O)=O)c2)NC(CCN2CCCCC2)C1=O

>  <Energy>  (52) 
90.75530836253223

>  <Genealogy>  (52) 
CC(C)C[NH+]1CCC(C[N-]C(=O)c2cccc(S(C)(=O)=O)c2)NC(CCN2CCCCC2)C1=O (protonated)
CC(C)C[N@H+]1CC[C@H](C[N-]C(=O)c2cccc(S(C)(=O)=O)c2)NC(CCN2CCCCC2)C1=O (chirality)
CC(C)C[N@H+]1CC[C@H](C[N-]C(=O)c2cccc(S(C)(=O)=O)c2)NC(CCN2CCCCC2)C1=O (3D coordinates assigned)
CC(C)C[N@H+]1CC[C@H](C[N-]C(=O)c2cccc(S(C)(=O)=O)c2)NC(CCN2CCCCC2)C1=O (nonaromatic ring conformer: 90.75530836253223 kcal/mol)

>  <smiles>  (52) 
CC(C)CN1CCC(CNC(=O)c2cccc(S(C)(=O)=O)c2)NC(CCN2CCCCC2)C1=O

>  <score_type>  (52) 
oracle

>  <origin>  (52) 
adg

>  <m_score__min__energy>  (52) 
-8.2300000000000004

>  <m_primary>  (52) 
energy

$$$$
53:0
     RDKit          3D

 61 64  0  0  0  0  0  0  0  0999 V2000
   58.6530   27.2590   46.9940 C   0  0  0  0  0  0  0  0  0  0  0  0
   57.4450   27.3720   46.0970 C   0  0  0  0  0  0  0  0  0  0  0  0
   56.3310   26.4620   46.4470 C   0  0  0  0  0  0  0  0  0  0  0  0
   55.1660   26.7080   46.0360 O   0  0  0  0  0  0  0  0  0  0  0  0
   56.5660   25.2930   47.1630 O   0  0  0  0  0  0  0  0  0  0  0  0
   57.3760   28.2250   45.0190 C   0  0  0  0  0  0  0  0  0  0  0  0
   56.3510   29.3390   44.9840 C   0  0  0  0  0  0  0  0  0  0  0  0
   57.1690   30.8350   44.4590 S   0  0  0  0  0  0  0  0  0  0  0  0
   56.3110   32.0370   44.7350 O   0  0  0  0  0  0  0  0  0  0  0  0
   57.4290   30.7520   42.9810 O   0  0  0  0  0  0  0  0  0  0  0  0
   58.6710   30.9720   45.3310 N   0  0  0  0  0  0  0  0  0  0  0  0
   59.0480   32.2520   45.8570 C   0  0  0  0  0  0  0  0  0  0  0  0
   58.8880   33.4050   45.0780 C   0  0  0  0  0  0  0  0  0  0  0  0
   59.2690   34.6520   45.5820 C   0  0  0  0  0  0  0  0  0  0  0  0
   59.8160   34.7520   46.8630 C   0  0  0  0  0  0  0  0  0  0  0  0
   59.9850   33.6040   47.6480 C   0  0  0  0  0  0  0  0  0  0  0  0
   60.7080   33.7410   49.2480 S   0  0  0  0  0  0  0  0  0  0  0  0
   59.6440   33.8980   50.2990 O   0  0  0  0  0  0  0  0  0  0  0  0
   61.5990   34.9500   49.2810 O   0  0  0  0  0  0  0  0  0  0  0  0
   61.6270   32.3090   49.5850 N   0  0  0  0  0  0  0  0  0  0  0  0
   61.0700   31.0630   49.9660 C   0  0  0  0  0  0  0  0  0  0  0  0
   59.7290   30.6730   49.8770 C   0  0  0  0  0  0  0  0  0  0  0  0
   59.3820   29.3810   50.3060 C   0  0  0  0  0  0  0  0  0  0  0  0
   60.3680   28.5130   50.8120 C   0  0  0  0  0  0  0  0  0  0  0  0
   61.7060   28.9320   50.8930 C   0  0  0  0  0  0  0  0  0  0  0  0
   62.0280   30.2190   50.4580 C   0  0  0  0  0  0  0  0  0  0  0  0
   63.3620   30.8810   50.4570 C   0  0  0  0  0  0  0  0  0  0  0  0
   63.0690   32.2850   49.8480 C   0  0  1  0  0  0  0  0  0  0  0  0
   63.8540   32.5090   48.5530 C   0  0  0  0  0  0  0  0  0  0  0  0
   59.5990   32.3540   47.1420 C   0  0  0  0  0  0  0  0  0  0  0  0
   59.4960   29.8000   45.6700 C   0  0  0  0  0  0  0  0  0  0  0  0
   59.6800   28.7920   44.5130 C   0  0  0  0  0  0  0  0  0  0  0  0
   58.3920   28.2860   43.9650 N   0  0  1  0  0  0  0  0  0  0  0  0
   58.5310   27.0460   43.1720 C   0  0  0  0  0  0  0  0  0  0  0  0
   58.3327   27.2890   48.0459 H   0  0  0  0  0  0  0  0  0  0  0  0
   59.1698   26.3086   46.7950 H   0  0  0  0  0  0  0  0  0  0  0  0
   59.3371   28.0971   46.7950 H   0  0  0  0  0  0  0  0  0  0  0  0
   55.5492   29.0848   44.2751 H   0  0  0  0  0  0  0  0  0  0  0  0
   55.9082   29.4786   45.9812 H   0  0  0  0  0  0  0  0  0  0  0  0
   58.4614   33.3291   44.0669 H   0  0  0  0  0  0  0  0  0  0  0  0
   59.1378   35.5557   44.9687 H   0  0  0  0  0  0  0  0  0  0  0  0
   60.1149   35.7347   47.2567 H   0  0  0  0  0  0  0  0  0  0  0  0
   58.9665   31.3601   49.4815 H   0  0  0  0  0  0  0  0  0  0  0  0
   58.3358   29.0464   50.2463 H   0  0  0  0  0  0  0  0  0  0  0  0
   60.0893   27.5024   51.1453 H   0  0  0  0  0  0  0  0  0  0  0  0
   62.4825   28.2616   51.2901 H   0  0  0  0  0  0  0  0  0  0  0  0
   63.7576   30.9704   51.4795 H   0  0  0  0  0  0  0  0  0  0  0  0
   64.1199   30.3181   49.8925 H   0  0  0  0  0  0  0  0  0  0  0  0
   63.3759   33.0861   50.5365 H   0  0  0  0  0  0  0  0  0  0  0  0
   64.8857   32.8034   48.7959 H   0  0  0  0  0  0  0  0  0  0  0  0
   63.8666   31.5786   47.9663 H   0  0  0  0  0  0  0  0  0  0  0  0
   63.3738   33.3060   47.9663 H   0  0  0  0  0  0  0  0  0  0  0  0
   59.7291   31.4505   47.7557 H   0  0  0  0  0  0  0  0  0  0  0  0
   60.4903   30.1565   45.9770 H   0  0  0  0  0  0  0  0  0  0  0  0
   58.9659   29.2644   46.4714 H   0  0  0  0  0  0  0  0  0  0  0  0
   60.2340   29.2878   43.7023 H   0  0  0  0  0  0  0  0  0  0  0  0
   60.2254   27.9265   44.9174 H   0  0  0  0  0  0  0  0  0  0  0  0
   58.0580   28.9760   43.2500 H   0  0  0  0  0  0  0  0  0  0  0  0
   58.6274   26.1857   43.8506 H   0  0  0  0  0  0  0  0  0  0  0  0
   57.6419   26.9148   42.5377 H   0  0  0  0  0  0  0  0  0  0  0  0
   59.4270   27.1149   42.5377 H   0  0  0  0  0  0  0  0  0  0  0  0
  1  2  1  0
  2  3  1  0
  3  4  2  0
  3  5  1  0
  2  6  2  3
  6  7  1  0
  7  8  1  0
  8  9  2  0
  8 10  2  0
  8 11  1  0
 11 12  1  0
 12 13  2  0
 13 14  1  0
 14 15  2  0
 15 16  1  0
 16 17  1  0
 17 18  2  0
 17 19  2  0
 17 20  1  0
 20 21  1  0
 21 22  2  0
 22 23  1  0
 23 24  2  0
 24 25  1  0
 25 26  2  0
 26 27  1  0
 27 28  1  0
 28 29  1  0
 16 30  2  0
 11 31  1  0
 31 32  1  0
 32 33  1  0
 33 34  1  0
 33  6  1  0
 30 12  1  0
 28 20  1  0
 26 21  1  0
  1 35  1  0
  1 36  1  0
  1 37  1  0
  7 38  1  0
  7 39  1  0
 13 40  1  0
 14 41  1  0
 15 42  1  0
 22 43  1  0
 23 44  1  0
 24 45  1  0
 25 46  1  0
 27 47  1  0
 27 48  1  0
 28 49  1  1
 29 50  1  0
 29 51  1  0
 29 52  1  0
 30 53  1  0
 31 54  1  0
 31 55  1  0
 32 56  1  0
 32 57  1  0
 33 58  1  6
 34 59  1  0
 34 60  1  0
 34 61  1  0
M  CHG  2   5  -1  33   1
M  END
>  <UniqueID>  (53) 
48

>  <SMILES>  (53) 
CC(C(=O)[O-])=C1CS(=O)(=O)N(c2cccc(S(=O)(=O)N3c4ccccc4C[C@H]3C)c2)CC[N@H+]1C

>  <Energy>  (53) 
107.28642794557254

>  <Genealogy>  (53) 
CC(C(=O)[O-])=C1CS(=O)(=O)N(c2cccc(S(=O)(=O)N3c4ccccc4CC3C)c2)CC[NH+]1C (protonated)
CC(C(=O)[O-])=C1CS(=O)(=O)N(c2cccc(S(=O)(=O)N3c4ccccc4C[C@H]3C)c2)CC[N@H+]1C (chirality)
CC(C(=O)[O-])=C1CS(=O)(=O)N(c2cccc(S(=O)(=O)N3c4ccccc4C[C@H]3C)c2)CC[N@H+]1C (3D coordinates assigned)
CC(C(=O)[O-])=C1CS(=O)(=O)N(c2cccc(S(=O)(=O)N3c4ccccc4C[C@H]3C)c2)CC[N@H+]1C (nonaromatic ring conformer: 107.28642794557254 kcal/mol)

>  <smiles>  (53) 
CC(C(=O)O)=C1CS(=O)(=O)N(c2cccc(S(=O)(=O)N3c4ccccc4CC3C)c2)CCN1C

>  <score_type>  (53) 
oracle

>  <origin>  (53) 
adg

>  <m_score__min__energy>  (53) 
-9.5

>  <m_primary>  (53) 
energy

$$$$
54:0
     RDKit          3D

 37 39  0  0  0  0  0  0  0  0999 V2000
   55.2940   27.3930   53.8820 C   0  0  0  0  0  0  0  0  0  0  0  0
   54.9180   28.6120   53.4890 C   0  0  0  0  0  0  0  0  0  0  0  0
   53.6170   28.9660   53.3840 N   0  0  0  0  0  0  0  0  0  0  0  0
   53.6380   30.2420   52.9400 C   0  0  0  0  0  0  0  0  0  0  0  0
   52.5080   30.9280   52.6960 C   0  0  0  0  0  0  0  0  0  0  0  0
   51.8530   31.0870   51.3830 C   0  0  0  0  0  0  0  0  0  0  0  0
   51.8910   30.1950   50.3770 N   0  0  0  0  0  0  0  0  0  0  0  0
   51.2510   30.8300   49.3700 C   0  0  0  0  0  0  0  0  0  0  0  0
   51.0710   30.3000   48.2420 O   0  0  0  0  0  0  0  0  0  0  0  0
   50.8280   32.0770   49.6640 N   0  0  0  0  0  0  0  0  0  0  0  0
   51.2280   32.2270   50.9380 C   0  0  0  0  0  0  0  0  0  0  0  0
   51.0270   33.3860   51.6770 O   0  0  0  0  0  0  0  0  0  0  0  0
   54.9610   30.6220   52.7680 C   0  0  0  0  0  0  0  0  0  0  0  0
   55.3810   31.7100   52.2920 O   0  0  0  0  0  0  0  0  0  0  0  0
   55.7670   29.6080   53.1320 N   0  0  0  0  0  0  0  0  0  0  0  0
   57.2330   29.5820   53.0470 C   0  0  0  0  0  0  0  0  0  0  0  0
   57.7290   30.3110   51.8210 C   0  0  0  0  0  0  0  0  0  0  0  0
   57.7790   29.6940   50.7210 O   0  0  0  0  0  0  0  0  0  0  0  0
   58.1610   31.6900   51.8880 N   0  0  0  0  0  0  0  0  0  0  0  0
   58.0480   32.4540   53.1400 C   0  0  0  0  0  0  0  0  0  0  0  0
   59.0190   33.6400   53.1410 C   0  0  0  0  0  0  0  0  0  0  0  0
   58.8900   34.3990   51.9560 O   0  0  0  0  0  0  0  0  0  0  0  0
   59.3040   33.6190   50.8540 C   0  0  0  0  0  0  0  0  0  0  0  0
   58.3560   32.4380   50.6360 C   0  0  0  0  0  0  0  0  0  0  0  0
   56.3630   27.1439   53.9547 H   0  0  0  0  0  0  0  0  0  0  0  0
   54.5349   26.6376   54.1332 H   0  0  0  0  0  0  0  0  0  0  0  0
   52.0263   31.4168   53.5557 H   0  0  0  0  0  0  0  0  0  0  0  0
   57.6516   30.0635   53.9430 H   0  0  0  0  0  0  0  0  0  0  0  0
   57.5564   28.5328   52.9792 H   0  0  0  0  0  0  0  0  0  0  0  0
   57.0192   32.8297   53.2421 H   0  0  0  0  0  0  0  0  0  0  0  0
   58.2980   31.7918   53.9820 H   0  0  0  0  0  0  0  0  0  0  0  0
   58.8007   34.2833   54.0062 H   0  0  0  0  0  0  0  0  0  0  0  0
   60.0468   33.2524   53.1997 H   0  0  0  0  0  0  0  0  0  0  0  0
   59.3115   34.2467   49.9507 H   0  0  0  0  0  0  0  0  0  0  0  0
   60.3119   33.2284   51.0579 H   0  0  0  0  0  0  0  0  0  0  0  0
   57.3839   32.8151   50.2855 H   0  0  0  0  0  0  0  0  0  0  0  0
   58.7967   31.7643   49.8864 H   0  0  0  0  0  0  0  0  0  0  0  0
  1  2  2  0
  2  3  1  0
  3  4  1  0
  4  5  2  3
  5  6  1  0
  6  7  1  0
  7  8  1  0
  8  9  2  0
  8 10  1  0
 10 11  1  0
 11 12  1  0
  4 13  1  0
 13 14  2  0
 13 15  1  0
 15 16  1  0
 16 17  1  0
 17 18  2  0
 17 19  1  0
 19 20  1  0
 20 21  1  0
 21 22  1  0
 22 23  1  0
 23 24  1  0
 15  2  1  0
 24 19  1  0
 11  6  2  0
  1 25  1  0
  1 26  1  0
  5 27  1  0
 16 28  1  0
 16 29  1  0
 20 30  1  0
 20 31  1  0
 21 32  1  0
 21 33  1  0
 23 34  1  0
 23 35  1  0
 24 36  1  0
 24 37  1  0
M  CHG  4   3  -1   7  -1  10  -1  12  -1
M  END
>  <UniqueID>  (54) 
49

>  <SMILES>  (54) 
C=c1[n-]c(=Cc2[n-]c(=O)[n-]c2[O-])c(=O)n1CC(=O)N1CCOCC1

>  <Energy>  (54) 
108.07003781343631

>  <Genealogy>  (54) 
C=c1[n-]c(=Cc2[n-]c(=O)[n-]c2[O-])c(=O)n1CC(=O)N1CCOCC1 (protonated)
C=c1[n-]c(=Cc2[n-]c(=O)[n-]c2[O-])c(=O)n1CC(=O)N1CCOCC1 (3D coordinates assigned)
C=c1[n-]c(=Cc2[n-]c(=O)[n-]c2[O-])c(=O)n1CC(=O)N1CCOCC1 (nonaromatic ring conformer: 108.07003781343631 kcal/mol)

>  <smiles>  (54) 
C=c1[nH]c(=Cc2[nH]c(=O)[nH]c2O)c(=O)n1CC(=O)N1CCOCC1

>  <score_type>  (54) 
oracle

>  <origin>  (54) 
adg

>  <m_score__min__energy>  (54) 
-16.879999999999999

>  <m_primary>  (54) 
energy

$$$$
55:0
     RDKit          3D

 41 43  0  0  0  0  0  0  0  0999 V2000
   54.3690   28.0180   52.8690 C   0  0  0  0  0  0  0  0  0  0  0  0
   54.7980   29.2250   52.4960 C   0  0  0  0  0  0  0  0  0  0  0  0
   56.0800   29.5070   52.4210 O   0  0  0  0  0  0  0  0  0  0  0  0
   56.2250   30.7800   52.1350 C   0  0  0  0  0  0  0  0  0  0  0  0
   57.5420   31.4280   51.9720 C   0  0  0  0  0  0  0  0  0  0  0  0
   58.2910   31.5180   52.9850 O   0  0  0  0  0  0  0  0  0  0  0  0
   58.0040   31.8830   50.6760 N   0  0  0  0  0  0  0  0  0  0  0  0
   59.0320   32.9340   50.8170 C   0  0  0  0  0  0  0  0  0  0  0  0
   59.4780   33.4520   49.4450 C   0  0  0  0  0  0  0  0  0  0  0  0
   59.8670   32.3360   48.5700 N   0  0  0  0  0  0  0  0  0  0  0  0
   60.8580   32.5180   47.5300 C   0  0  0  0  0  0  0  0  0  0  0  0
   61.5480   33.8320   47.3140 C   0  0  0  0  0  0  0  0  0  0  0  0
   61.1750   31.5500   46.7850 O   0  0  0  0  0  0  0  0  0  0  0  0
   58.9710   31.1700   48.5100 C   0  0  0  0  0  0  0  0  0  0  0  0
   58.5430   30.7400   49.9170 C   0  0  0  0  0  0  0  0  0  0  0  0
   54.9840   31.3780   52.0090 C   0  0  0  0  0  0  0  0  0  0  0  0
   54.0520   30.3750   52.2050 C   0  0  0  0  0  0  0  0  0  0  0  0
   52.7230   30.5710   52.1040 C   0  0  0  0  0  0  0  0  0  0  0  0
   52.0050   30.9560   50.8820 C   0  0  0  0  0  0  0  0  0  0  0  0
   51.8750   30.1540   49.8110 N   0  0  0  0  0  0  0  0  0  0  0  0
   51.0430   30.8470   49.0020 C   0  0  0  0  0  0  0  0  0  0  0  0
   50.6890   30.4210   47.8720 O   0  0  0  0  0  0  0  0  0  0  0  0
   50.6120   32.0230   49.5040 N   0  0  0  0  0  0  0  0  0  0  0  0
   51.2180   32.0710   50.7010 C   0  0  0  0  0  0  0  0  0  0  0  0
   51.0340   33.0980   51.6200 O   0  0  0  0  0  0  0  0  0  0  0  0
   53.2902   27.8102   52.9229 H   0  0  0  0  0  0  0  0  0  0  0  0
   55.0941   27.2307   53.1226 H   0  0  0  0  0  0  0  0  0  0  0  0
   57.1970   32.2980   50.1540 H   0  0  0  0  0  0  0  0  0  0  0  0
   58.6154   33.7692   51.3991 H   0  0  0  0  0  0  0  0  0  0  0  0
   59.9048   32.5046   51.3307 H   0  0  0  0  0  0  0  0  0  0  0  0
   58.6476   34.0033   48.9797 H   0  0  0  0  0  0  0  0  0  0  0  0
   60.3460   34.1137   49.5816 H   0  0  0  0  0  0  0  0  0  0  0  0
   61.7861   34.2855   48.2875 H   0  0  0  0  0  0  0  0  0  0  0  0
   62.4772   33.6696   46.7481 H   0  0  0  0  0  0  0  0  0  0  0  0
   60.8868   34.5047   46.7481 H   0  0  0  0  0  0  0  0  0  0  0  0
   58.0769   31.4319   47.9253 H   0  0  0  0  0  0  0  0  0  0  0  0
   59.5085   30.3363   48.0346 H   0  0  0  0  0  0  0  0  0  0  0  0
   57.7677   29.9639   49.8360 H   0  0  0  0  0  0  0  0  0  0  0  0
   59.4238   30.3498   50.4481 H   0  0  0  0  0  0  0  0  0  0  0  0
   54.7796   32.4376   51.7959 H   0  0  0  0  0  0  0  0  0  0  0  0
   52.1237   30.4305   53.0157 H   0  0  0  0  0  0  0  0  0  0  0  0
  1  2  2  0
  2  3  1  0
  3  4  1  0
  4  5  1  0
  5  6  2  0
  5  7  1  0
  7  8  1  0
  8  9  1  0
  9 10  1  0
 10 11  1  0
 11 12  1  0
 11 13  2  0
 10 14  1  0
 14 15  1  0
  4 16  2  0
 16 17  1  0
 17 18  2  3
 18 19  1  0
 19 20  1  0
 20 21  1  0
 21 22  2  0
 21 23  1  0
 23 24  1  0
 24 25  1  0
 17  2  1  0
 24 19  2  0
 15  7  1  0
  1 26  1  0
  1 27  1  0
  7 28  1  0
  8 29  1  0
  8 30  1  0
  9 31  1  0
  9 32  1  0
 12 33  1  0
 12 34  1  0
 12 35  1  0
 14 36  1  0
 14 37  1  0
 15 38  1  0
 15 39  1  0
 16 40  1  0
 18 41  1  0
M  CHG  4   7   1  20  -1  23  -1  25  -1
M  END
>  <UniqueID>  (55) 
50

>  <SMILES>  (55) 
C=c1oc(C(=O)[NH+]2CCN(C(C)=O)CC2)cc1=Cc1[n-]c(=O)[n-]c1[O-]

>  <Energy>  (55) 
112.09730860222923

>  <Genealogy>  (55) 
C=c1oc(C(=O)[NH+]2CCN(C(C)=O)CC2)cc1=Cc1[n-]c(=O)[n-]c1[O-] (protonated)
C=c1oc(C(=O)[NH+]2CCN(C(C)=O)CC2)cc1=Cc1[n-]c(=O)[n-]c1[O-] (3D coordinates assigned)
C=c1oc(C(=O)[NH+]2CCN(C(C)=O)CC2)cc1=Cc1[n-]c(=O)[n-]c1[O-] (nonaromatic ring conformer: 112.09730860222923 kcal/mol)

>  <smiles>  (55) 
C=c1oc(C(=O)N2CCN(C(C)=O)CC2)cc1=Cc1[nH]c(=O)[nH]c1O

>  <score_type>  (55) 
oracle

>  <origin>  (55) 
adg

>  <m_score__min__energy>  (55) 
-15.529999999999999

>  <m_primary>  (55) 
energy

$$$$
56:0
     RDKit          3D

 46 49  0  0  1  0  0  0  0  0999 V2000
   59.2900   34.9430   47.2800 C   0  0  0  0  0  0  0  0  0  0  0  0
   58.8420   34.2370   46.2570 C   0  0  0  0  0  0  0  0  0  0  0  0
   59.3640   34.2840   44.9600 C   0  0  0  0  0  0  0  0  0  0  0  0
   58.6740   33.4390   44.1690 N   0  0  0  0  0  0  0  0  0  0  0  0
   57.7230   32.8580   44.9490 C   0  0  0  0  0  0  0  0  0  0  0  0
   56.8500   31.9580   44.4860 C   0  0  0  0  0  0  0  0  0  0  0  0
   57.0720   30.5380   44.7920 C   0  0  0  0  0  0  0  0  0  0  0  0
   56.3270   29.4470   44.3320 C   0  0  0  0  0  0  0  0  0  0  0  0
   55.2260   29.5170   43.4880 O   0  0  0  0  0  0  0  0  0  0  0  0
   56.8760   28.3380   44.8560 N   0  0  0  0  0  0  0  0  0  0  0  0
   57.9340   28.6890   45.6250 C   0  0  0  0  0  0  0  0  0  0  0  0
   58.8120   27.9000   46.3660 C   0  0  0  0  0  0  0  0  0  0  0  0
   59.8180   28.5260   47.0700 C   0  0  0  0  0  0  0  0  0  0  0  0
   59.9670   29.9010   47.0490 C   0  0  0  0  0  0  0  0  0  0  0  0
   61.0710   30.4910   47.8290 C   0  0  0  0  0  0  0  0  0  0  0  0
   61.1850   30.1900   49.1760 C   0  0  0  0  0  0  0  0  0  0  0  0
   62.2370   30.7720   49.8490 C   0  0  0  0  0  0  0  0  0  0  0  0
   62.3700   30.4790   51.2160 O   0  0  0  0  0  0  0  0  0  0  0  0
   63.5940   30.7720   51.8770 C   0  0  0  0  0  0  0  0  0  0  0  0
   63.1500   31.6130   49.2560 C   0  0  0  0  0  0  0  0  0  0  0  0
   63.0180   31.8970   47.9170 C   0  0  0  0  0  0  0  0  0  0  0  0
   63.8750   32.7290   47.2130 O   0  0  0  0  0  0  0  0  0  0  0  0
   63.4170   33.9500   46.6800 C   0  0  0  0  0  0  0  0  0  0  0  0
   61.9780   31.3320   47.2190 C   0  0  0  0  0  0  0  0  0  0  0  0
   59.1020   30.6910   46.3190 C   0  0  0  0  0  0  0  0  0  0  0  0
   58.0740   30.0730   45.5990 C   0  0  0  0  0  0  0  0  0  0  0  0
   57.8320   33.3450   46.2060 N   0  0  0  0  0  0  0  0  0  0  0  0
   58.8165   34.8416   48.2677 H   0  0  0  0  0  0  0  0  0  0  0  0
   60.1365   35.6322   47.1440 H   0  0  0  0  0  0  0  0  0  0  0  0
   60.2065   34.9128   44.6363 H   0  0  0  0  0  0  0  0  0  0  0  0
   55.9826   32.2740   43.8878 H   0  0  0  0  0  0  0  0  0  0  0  0
   55.1710   29.0290   42.6040 H   0  0  0  0  0  0  0  0  0  0  0  0
   56.5650   27.3440   44.7140 H   0  0  0  0  0  0  0  0  0  0  0  0
   58.7048   26.8055   46.3884 H   0  0  0  0  0  0  0  0  0  0  0  0
   60.5183   27.9184   47.6620 H   0  0  0  0  0  0  0  0  0  0  0  0
   60.4730   29.5214   49.6820 H   0  0  0  0  0  0  0  0  0  0  0  0
   63.4407   30.7353   52.9657 H   0  0  0  0  0  0  0  0  0  0  0  0
   64.3533   30.0302   51.5884 H   0  0  0  0  0  0  0  0  0  0  0  0
   63.9351   31.7772   51.5884 H   0  0  0  0  0  0  0  0  0  0  0  0
   63.9712   32.0506   49.8426 H   0  0  0  0  0  0  0  0  0  0  0  0
   63.1600   34.6352   47.5013 H   0  0  0  0  0  0  0  0  0  0  0  0
   64.2076   34.3995   46.0613 H   0  0  0  0  0  0  0  0  0  0  0  0
   62.5258   33.7687   46.0613 H   0  0  0  0  0  0  0  0  0  0  0  0
   61.8662   31.5559   46.1478 H   0  0  0  0  0  0  0  0  0  0  0  0
   59.2186   31.7847   46.3037 H   0  0  0  0  0  0  0  0  0  0  0  0
   57.2200   33.0730   47.0290 H   0  0  0  0  0  0  0  0  0  0  0  0
  1  2  2  0
  2  3  1  0
  3  4  2  0
  4  5  1  0
  5  6  2  0
  6  7  1  0
  7  8  2  0
  8  9  1  0
  8 10  1  0
 10 11  1  0
 11 12  2  0
 12 13  1  0
 13 14  2  0
 14 15  1  0
 15 16  2  0
 16 17  1  0
 17 18  1  0
 18 19  1  0
 17 20  2  0
 20 21  1  0
 21 22  1  0
 22 23  1  0
 21 24  2  0
 14 25  1  0
 25 26  2  0
  5 27  1  0
 27  2  1  0
 26  7  1  0
 26 11  1  0
 24 15  1  0
  1 28  1  0
  1 29  1  0
  3 30  1  0
  6 31  1  0
  9 32  1  0
 10 33  1  0
 12 34  1  0
 13 35  1  0
 16 36  1  0
 19 37  1  0
 19 38  1  0
 19 39  1  0
 20 40  1  0
 23 41  1  0
 23 42  1  0
 23 43  1  0
 24 44  1  0
 25 45  1  0
 27 46  1  0
M  END
>  <smiles>  (56) 
C=c1cnc(=Cc2c(O)[nH]c3ccc(-c4cc(OC)cc(OC)c4)cc23)[nH]1

>  <score_type>  (56) 
oracle

>  <origin>  (56) 
adg

>  <m_score__min__energy>  (56) 
-8.3800000000000008

>  <m_primary>  (56) 
energy

$$$$
57:0
     RDKit          3D

 64 68  0  0  0  0  0  0  0  0999 V2000
   59.3170   33.8320   52.3120 C   0  0  0  0  0  0  0  0  0  0  0  0
   59.2380   32.6020   51.5340 N   0  0  0  0  0  0  0  0  0  0  0  0
   58.6080   32.4280   50.3560 C   0  0  0  0  0  0  0  0  0  0  0  0
   58.8090   31.1910   49.8620 N   0  0  0  0  0  0  0  0  0  0  0  0
   59.6060   30.5690   50.7600 C   0  0  0  0  0  0  0  0  0  0  0  0
   60.1660   29.2070   50.6250 C   0  0  0  0  0  0  0  0  0  0  0  0
   60.0490   28.5700   49.4270 N   0  0  0  0  0  0  0  0  0  0  0  0
   60.5350   27.3170   49.2310 C   0  0  0  0  0  0  0  0  0  0  0  0
   60.3590   26.7450   48.0750 N   0  0  0  0  0  0  0  0  0  0  0  0
   59.6170   27.2580   46.9540 C   0  0  0  0  0  0  0  0  0  0  0  0
   58.2500   26.9660   46.8660 C   0  0  0  0  0  0  0  0  0  0  0  0
   57.4860   27.4600   45.8030 C   0  0  0  0  0  0  0  0  0  0  0  0
   58.0800   28.2650   44.8190 C   0  0  0  0  0  0  0  0  0  0  0  0
   57.2530   28.8080   43.6830 C   0  0  0  0  0  0  0  0  0  0  0  0
   56.1510   29.6900   44.1840 C   0  0  0  0  0  0  0  0  0  0  0  0
   55.1590   29.1850   44.7770 O   0  0  0  0  0  0  0  0  0  0  0  0
   56.2960   31.1130   44.0970 N   0  0  0  0  0  0  0  0  0  0  0  0
   57.1930   31.9140   44.8790 C   0  0  0  0  0  0  0  0  0  0  0  0
   57.4420   33.2330   44.4780 C   0  0  0  0  0  0  0  0  0  0  0  0
   58.2920   34.0510   45.2260 C   0  0  0  0  0  0  0  0  0  0  0  0
   58.8860   33.5650   46.4000 C   0  0  0  0  0  0  0  0  0  0  0  0
   59.9390   34.6090   47.3600 S   0  0  0  0  0  0  0  0  0  0  0  0
   59.3400   34.7900   48.7270 O   0  0  0  0  0  0  0  0  0  0  0  0
   60.0200   35.9610   46.7060 O   0  0  0  0  0  0  0  0  0  0  0  0
   61.5480   33.9470   47.5150 N   0  0  0  0  0  0  0  0  0  0  0  0
   62.0430   34.1130   48.8900 C   0  0  0  0  0  0  0  0  0  0  0  0
   63.4400   33.4720   49.0370 C   0  0  0  0  0  0  0  0  0  0  0  0
   63.8800   32.8840   47.8270 O   0  0  0  0  0  0  0  0  0  0  0  0
   62.9470   31.9060   47.4030 C   0  0  0  0  0  0  0  0  0  0  0  0
   61.5570   32.5240   47.1420 C   0  0  0  0  0  0  0  0  0  0  0  0
   58.6230   32.2520   46.8160 C   0  0  0  0  0  0  0  0  0  0  0  0
   57.7770   31.4310   46.0620 C   0  0  0  0  0  0  0  0  0  0  0  0
   59.4380   28.6020   44.9330 C   0  0  0  0  0  0  0  0  0  0  0  0
   60.2010   28.1070   45.9950 C   0  0  0  0  0  0  0  0  0  0  0  0
   61.1480   26.6680   50.2580 N   0  0  0  0  0  0  0  0  0  0  0  0
   61.3050   27.2630   51.4680 C   0  0  0  0  0  0  0  0  0  0  0  0
   60.8200   28.5530   51.6820 C   0  0  0  0  0  0  0  0  0  0  0  0
   61.0300   29.1520   52.8810 F   0  0  0  0  0  0  0  0  0  0  0  0
   59.8830   31.4500   51.7890 C   0  0  0  0  0  0  0  0  0  0  0  0
   59.3014   33.5890   53.3847 H   0  0  0  0  0  0  0  0  0  0  0  0
   60.2509   34.3601   52.0692 H   0  0  0  0  0  0  0  0  0  0  0  0
   58.4583   34.4752   52.0692 H   0  0  0  0  0  0  0  0  0  0  0  0
   58.0037   33.2010   49.8587 H   0  0  0  0  0  0  0  0  0  0  0  0
   58.4640   30.8360   48.9450 H   0  0  0  0  0  0  0  0  0  0  0  0
   57.7737   26.3439   47.6381 H   0  0  0  0  0  0  0  0  0  0  0  0
   56.4153   27.2163   45.7384 H   0  0  0  0  0  0  0  0  0  0  0  0
   57.9026   29.3915   43.0140 H   0  0  0  0  0  0  0  0  0  0  0  0
   56.8019   27.9603   43.1463 H   0  0  0  0  0  0  0  0  0  0  0  0
   56.9652   33.6270   43.5684 H   0  0  0  0  0  0  0  0  0  0  0  0
   58.4961   35.0794   44.8933 H   0  0  0  0  0  0  0  0  0  0  0  0
   62.1092   35.1856   49.1249 H   0  0  0  0  0  0  0  0  0  0  0  0
   61.3471   33.6179   49.5833 H   0  0  0  0  0  0  0  0  0  0  0  0
   64.1583   34.2493   49.3367 H   0  0  0  0  0  0  0  0  0  0  0  0
   63.3737   32.6797   49.7971 H   0  0  0  0  0  0  0  0  0  0  0  0
   63.3121   31.4429   46.4744 H   0  0  0  0  0  0  0  0  0  0  0  0
   62.8464   31.1565   48.2019 H   0  0  0  0  0  0  0  0  0  0  0  0
   61.3130   32.4282   46.0737 H   0  0  0  0  0  0  0  0  0  0  0  0
   60.8109   31.9918   47.7504 H   0  0  0  0  0  0  0  0  0  0  0  0
   59.0830   31.8662   47.7377 H   0  0  0  0  0  0  0  0  0  0  0  0
   57.5686   30.4041   46.3967 H   0  0  0  0  0  0  0  0  0  0  0  0
   59.9040   29.2585   44.1834 H   0  0  0  0  0  0  0  0  0  0  0  0
   61.2625   28.3823   46.0815 H   0  0  0  0  0  0  0  0  0  0  0  0
   61.8158   26.7266   52.2813 H   0  0  0  0  0  0  0  0  0  0  0  0
   60.5191   31.2446   52.6626 H   0  0  0  0  0  0  0  0  0  0  0  0
  1  2  1  0
  2  3  1  0
  3  4  2  0
  4  5  1  0
  5  6  1  0
  6  7  2  0
  7  8  1  0
  8  9  2  3
  9 10  1  0
 10 11  2  0
 11 12  1  0
 12 13  2  0
 13 14  1  0
 14 15  1  0
 15 16  2  0
 15 17  1  0
 17 18  1  0
 18 19  2  0
 19 20  1  0
 20 21  2  0
 21 22  1  0
 22 23  2  0
 22 24  2  0
 22 25  1  0
 25 26  1  0
 26 27  1  0
 27 28  1  0
 28 29  1  0
 29 30  1  0
 21 31  1  0
 31 32  2  0
 13 33  1  0
 33 34  2  0
  8 35  1  0
 35 36  1  0
 36 37  2  0
 37 38  1  0
  5 39  2  0
 39  2  1  0
 37  6  1  0
 34 10  1  0
 32 18  1  0
 30 25  1  0
  1 40  1  0
  1 41  1  0
  1 42  1  0
  3 43  1  0
  4 44  1  0
 11 45  1  0
 12 46  1  0
 14 47  1  0
 14 48  1  0
 19 49  1  0
 20 50  1  0
 26 51  1  0
 26 52  1  0
 27 53  1  0
 27 54  1  0
 29 55  1  0
 29 56  1  0
 30 57  1  0
 30 58  1  0
 31 59  1  0
 32 60  1  0
 33 61  1  0
 34 62  1  0
 36 63  1  0
 39 64  1  0
M  CHG  3   4   1  17  -1  35  -1
M  END
>  <UniqueID>  (57) 
51

>  <SMILES>  (57) 
Cn1c[nH+]c(-c2nc(=Nc3ccc(CC(=O)[N-]c4ccc(S(=O)(=O)N5CCOCC5)cc4)cc3)[n-]cc2F)c1

>  <Energy>  (57) 
118.15400710796862

>  <Genealogy>  (57) 
Cn1c[nH+]c(-c2nc(=Nc3ccc(CC(=O)[N-]c4ccc(S(=O)(=O)N5CCOCC5)cc4)cc3)[n-]cc2F)c1 (protonated)
Cn1c[nH+]c(-c2nc(=Nc3ccc(CC(=O)[N-]c4ccc(S(=O)(=O)N5CCOCC5)cc4)cc3)[n-]cc2F)c1 (3D coordinates assigned)
Cn1c[nH+]c(-c2nc(=Nc3ccc(CC(=O)[N-]c4ccc(S(=O)(=O)N5CCOCC5)cc4)cc3)[n-]cc2F)c1 (nonaromatic ring conformer: 118.15400710796862 kcal/mol)

>  <smiles>  (57) 
Cn1cnc(-c2nc(=Nc3ccc(CC(=O)Nc4ccc(S(=O)(=O)N5CCOCC5)cc4)cc3)[nH]cc2F)c1

>  <score_type>  (57) 
oracle

>  <origin>  (57) 
adg

>  <m_score__min__energy>  (57) 
-11.02

>  <m_primary>  (57) 
energy

$$$$
58:0
     RDKit          3D

 59 62  0  0  0  0  0  0  0  0999 V2000
   59.6960   36.0460   46.2610 O   0  0  0  0  0  0  0  0  0  0  0  0
   59.6610   34.8350   46.5990 C   0  0  0  0  0  0  0  0  0  0  0  0
   59.9560   34.4770   48.0330 C   0  0  0  0  0  0  0  0  0  0  0  0
   61.3510   33.9190   48.1590 C   0  0  0  0  0  0  0  0  0  0  0  0
   62.0250   33.4110   47.0350 C   0  0  0  0  0  0  0  0  0  0  0  0
   63.3120   32.8750   47.1650 C   0  0  0  0  0  0  0  0  0  0  0  0
   63.9300   32.8300   48.4170 C   0  0  0  0  0  0  0  0  0  0  0  0
   63.2640   33.3240   49.5430 C   0  0  0  0  0  0  0  0  0  0  0  0
   61.9800   33.8660   49.4160 C   0  0  0  0  0  0  0  0  0  0  0  0
   59.3890   33.8490   45.5940 N   0  0  0  0  0  0  0  0  0  0  0  0
   58.6960   32.2810   45.8620 S   0  0  0  0  0  0  0  0  0  0  0  0
   59.7910   31.3180   46.2190 O   0  0  0  0  0  0  0  0  0  0  0  0
   57.7270   32.3470   47.0080 O   0  0  0  0  0  0  0  0  0  0  0  0
   57.9040   31.7110   44.3870 C   0  0  0  0  0  0  0  0  0  0  0  0
   58.0290   32.4490   43.1990 C   0  0  0  0  0  0  0  0  0  0  0  0
   57.4060   32.0080   42.0290 C   0  0  0  0  0  0  0  0  0  0  0  0
   56.6600   30.8300   42.0340 C   0  0  0  0  0  0  0  0  0  0  0  0
   56.5180   30.0940   43.2120 C   0  0  0  0  0  0  0  0  0  0  0  0
   57.1400   30.5270   44.4010 C   0  0  0  0  0  0  0  0  0  0  0  0
   57.0180   29.7840   45.6240 N   0  0  0  0  0  0  0  0  0  0  0  0
   57.8920   28.3390   46.0160 S   0  0  0  0  0  0  0  0  0  0  0  0
   56.9130   27.2280   46.2660 O   0  0  0  0  0  0  0  0  0  0  0  0
   58.7670   27.9700   44.8520 O   0  0  0  0  0  0  0  0  0  0  0  0
   58.8590   28.5820   47.4660 C   0  0  0  0  0  0  0  0  0  0  0  0
   59.9950   27.7950   47.6950 C   0  0  0  0  0  0  0  0  0  0  0  0
   60.7540   27.9760   48.8560 C   0  0  0  0  0  0  0  0  0  0  0  0
   60.3910   28.9530   49.7890 C   0  0  0  0  0  0  0  0  0  0  0  0
   61.1520   29.1320   50.8920 F   0  0  0  0  0  0  0  0  0  0  0  0
   59.2580   29.7550   49.5630 C   0  0  0  0  0  0  0  0  0  0  0  0
   58.8740   30.7640   50.5140 N   0  0  0  0  0  0  0  0  0  0  0  0
   59.1620   32.1740   50.2210 C   0  0  0  0  0  0  0  0  0  0  0  0
   58.7340   33.0690   51.3900 C   0  0  0  0  0  0  0  0  0  0  0  0
   57.4090   32.6680   51.8800 N   0  0  0  0  0  0  0  0  0  0  0  0
   57.3910   31.2950   52.4320 C   0  0  0  0  0  0  0  0  0  0  0  0
   58.4950   30.3720   51.8750 C   0  0  0  0  0  0  0  0  0  0  0  0
   58.4970   29.5650   48.3970 C   0  0  0  0  0  0  0  0  0  0  0  0
   59.8685   35.3786   48.6570 H   0  0  0  0  0  0  0  0  0  0  0  0
   59.2356   33.7154   48.3662 H   0  0  0  0  0  0  0  0  0  0  0  0
   61.5390   33.4346   46.0485 H   0  0  0  0  0  0  0  0  0  0  0  0
   63.8376   32.4885   46.2793 H   0  0  0  0  0  0  0  0  0  0  0  0
   64.9401   32.4061   48.5171 H   0  0  0  0  0  0  0  0  0  0  0  0
   63.7497   33.2866   50.5293 H   0  0  0  0  0  0  0  0  0  0  0  0
   61.4596   34.2529   50.3045 H   0  0  0  0  0  0  0  0  0  0  0  0
   58.6193   33.3772   43.1896 H   0  0  0  0  0  0  0  0  0  0  0  0
   57.5042   32.5914   41.1016 H   0  0  0  0  0  0  0  0  0  0  0  0
   56.1820   30.4795   41.1073 H   0  0  0  0  0  0  0  0  0  0  0  0
   55.9181   29.1720   43.2125 H   0  0  0  0  0  0  0  0  0  0  0  0
   60.2911   27.0324   46.9596 H   0  0  0  0  0  0  0  0  0  0  0  0
   61.6391   27.3481   49.0359 H   0  0  0  0  0  0  0  0  0  0  0  0
   60.2421   32.2941   50.0509 H   0  0  0  0  0  0  0  0  0  0  0  0
   58.5990   32.4709   49.3239 H   0  0  0  0  0  0  0  0  0  0  0  0
   59.4661   32.9755   52.2056 H   0  0  0  0  0  0  0  0  0  0  0  0
   58.6870   34.1120   51.0437 H   0  0  0  0  0  0  0  0  0  0  0  0
   56.7320   32.7190   51.0800 H   0  0  0  0  0  0  0  0  0  0  0  0
   57.5149   31.3607   53.5230 H   0  0  0  0  0  0  0  0  0  0  0  0
   56.4295   30.8495   52.1369 H   0  0  0  0  0  0  0  0  0  0  0  0
   59.3790   30.4357   52.5265 H   0  0  0  0  0  0  0  0  0  0  0  0
   58.1085   29.3425   51.8472 H   0  0  0  0  0  0  0  0  0  0  0  0
   57.6117   30.1917   48.2139 H   0  0  0  0  0  0  0  0  0  0  0  0
  1  2  2  0
  2  3  1  0
  3  4  1  0
  4  5  2  0
  5  6  1  0
  6  7  2  0
  7  8  1  0
  8  9  2  0
  2 10  1  0
 10 11  1  0
 11 12  2  0
 11 13  2  0
 11 14  1  0
 14 15  2  0
 15 16  1  0
 16 17  2  0
 17 18  1  0
 18 19  2  0
 19 20  1  0
 20 21  1  0
 21 22  2  0
 21 23  2  0
 21 24  1  0
 24 25  2  0
 25 26  1  0
 26 27  2  0
 27 28  1  0
 27 29  1  0
 29 30  1  0
 30 31  1  0
 31 32  1  0
 32 33  1  0
 33 34  1  0
 34 35  1  0
 29 36  2  0
  9  4  1  0
 19 14  1  0
 36 24  1  0
 35 30  1  0
  3 37  1  0
  3 38  1  0
  5 39  1  0
  6 40  1  0
  7 41  1  0
  8 42  1  0
  9 43  1  0
 15 44  1  0
 16 45  1  0
 17 46  1  0
 18 47  1  0
 25 48  1  0
 26 49  1  0
 31 50  1  0
 31 51  1  0
 32 52  1  0
 32 53  1  0
 33 54  1  0
 34 55  1  0
 34 56  1  0
 35 57  1  0
 35 58  1  0
 36 59  1  0
M  CHG  2  10  -1  20  -1
M  END
>  <UniqueID>  (58) 
52

>  <SMILES>  (58) 
O=C(Cc1ccccc1)[N-]S(=O)(=O)c1ccccc1[N-]S(=O)(=O)c1ccc(F)c(N2CCNCC2)c1

>  <Energy>  (58) 
76.49189850307283

>  <Genealogy>  (58) 
O=C(Cc1ccccc1)[N-]S(=O)(=O)c1ccccc1[N-]S(=O)(=O)c1ccc(F)c(N2CCNCC2)c1 (protonated)
O=C(Cc1ccccc1)[N-]S(=O)(=O)c1ccccc1[N-]S(=O)(=O)c1ccc(F)c(N2CCNCC2)c1 (3D coordinates assigned)
O=C(Cc1ccccc1)[N-]S(=O)(=O)c1ccccc1[N-]S(=O)(=O)c1ccc(F)c(N2CCNCC2)c1 (nonaromatic ring conformer: 76.49189850307283 kcal/mol)

>  <smiles>  (58) 
O=C(Cc1ccccc1)NS(=O)(=O)c1ccccc1NS(=O)(=O)c1ccc(F)c(N2CCNCC2)c1

>  <score_type>  (58) 
oracle

>  <origin>  (58) 
adg

>  <m_score__min__energy>  (58) 
-13.970000000000001

>  <m_primary>  (58) 
energy

$$$$
59:0
     RDKit          3D

 35 36  0  0  0  0  0  0  0  0999 V2000
   54.8780   22.9610   48.3060 C   0  0  0  0  0  0  0  0  0  0  0  0
   55.9950   22.5580   47.4000 C   0  0  0  0  0  0  0  0  0  0  0  0
   56.9710   21.6980   47.7550 N   0  0  0  0  0  0  0  0  0  0  0  0
   57.7790   21.5950   46.7380 O   0  0  0  0  0  0  0  0  0  0  0  0
   57.3830   22.3470   45.7380 C   0  0  0  0  0  0  0  0  0  0  0  0
   58.0920   22.4510   44.4290 C   0  0  0  0  0  0  0  0  0  0  0  0
   56.2280   23.0010   46.1120 C   0  0  0  0  0  0  0  0  0  0  0  0
   55.2760   24.1200   45.1370 S   0  0  0  0  0  0  0  0  0  0  0  0
   55.8730   24.2640   43.7650 O   0  0  0  0  0  0  0  0  0  0  0  0
   53.8870   23.5660   44.9930 O   0  0  0  0  0  0  0  0  0  0  0  0
   55.1880   25.6720   45.9230 N   0  0  0  0  0  0  0  0  0  0  0  0
   56.3660   25.9200   46.7570 C   0  0  0  0  0  0  0  0  0  0  0  0
   57.3760   26.7650   46.0380 C   0  0  0  0  0  0  0  0  0  0  0  0
   58.2260   27.4130   46.7060 O   0  0  0  0  0  0  0  0  0  0  0  0
   57.4020   26.8050   44.6060 N   0  0  0  0  0  0  0  0  0  0  0  0
   58.3410   27.6620   43.8870 C   0  0  0  0  0  0  0  0  0  0  0  0
   58.0050   29.1060   44.0920 C   0  0  0  0  0  0  0  0  0  0  0  0
   56.9040   29.7660   43.5620 C   0  0  0  0  0  0  0  0  0  0  0  0
   56.8140   31.1010   43.9740 C   0  0  0  0  0  0  0  0  0  0  0  0
   57.8350   31.4900   44.8320 C   0  0  0  0  0  0  0  0  0  0  0  0
   58.8480   30.1720   45.0810 S   0  0  0  0  0  0  0  0  0  0  0  0
   55.1955   22.8464   49.3529 H   0  0  0  0  0  0  0  0  0  0  0  0
   54.6127   24.0115   48.1162 H   0  0  0  0  0  0  0  0  0  0  0  0
   54.0031   22.3218   48.1162 H   0  0  0  0  0  0  0  0  0  0  0  0
   59.1663   22.6086   44.6054 H   0  0  0  0  0  0  0  0  0  0  0  0
   57.9465   21.5219   43.8584 H   0  0  0  0  0  0  0  0  0  0  0  0
   57.6858   23.2992   43.8584 H   0  0  0  0  0  0  0  0  0  0  0  0
   56.0524   26.4396   47.6744 H   0  0  0  0  0  0  0  0  0  0  0  0
   56.8311   24.9524   46.9968 H   0  0  0  0  0  0  0  0  0  0  0  0
   56.7240   26.2110   44.0750 H   0  0  0  0  0  0  0  0  0  0  0  0
   59.3592   27.4723   44.2576 H   0  0  0  0  0  0  0  0  0  0  0  0
   58.2763   27.4335   42.8129 H   0  0  0  0  0  0  0  0  0  0  0  0
   56.1774   29.2889   42.8879 H   0  0  0  0  0  0  0  0  0  0  0  0
   56.0104   31.7782   43.6489 H   0  0  0  0  0  0  0  0  0  0  0  0
   57.9593   32.4900   45.2732 H   0  0  0  0  0  0  0  0  0  0  0  0
  1  2  1  0
  2  3  2  0
  3  4  1  0
  4  5  1  0
  5  6  1  0
  5  7  2  0
  7  8  1  0
  8  9  2  0
  8 10  2  0
  8 11  1  0
 11 12  1  0
 12 13  1  0
 13 14  2  0
 13 15  1  0
 15 16  1  0
 16 17  1  0
 17 18  2  0
 18 19  1  0
 19 20  2  0
 20 21  1  0
  7  2  1  0
 21 17  1  0
  1 22  1  0
  1 23  1  0
  1 24  1  0
  6 25  1  0
  6 26  1  0
  6 27  1  0
 12 28  1  0
 12 29  1  0
 15 30  1  0
 16 31  1  0
 16 32  1  0
 18 33  1  0
 19 34  1  0
 20 35  1  0
M  CHG  1  11  -1
M  END
>  <UniqueID>  (59) 
53

>  <SMILES>  (59) 
Cc1noc(C)c1S(=O)(=O)[N-]CC(=O)NCc1cccs1

>  <Energy>  (59) 
81.24016619461962

>  <Genealogy>  (59) 
Cc1noc(C)c1S(=O)(=O)[N-]CC(=O)NCc1cccs1 (protonated)
Cc1noc(C)c1S(=O)(=O)[N-]CC(=O)NCc1cccs1 (3D coordinates assigned)
Cc1noc(C)c1S(=O)(=O)[N-]CC(=O)NCc1cccs1 (optimized conformer: 81.24016619461962 kcal/mol)

>  <smiles>  (59) 
Cc1noc(C)c1S(=O)(=O)NCC(=O)NCc1cccs1

>  <score_type>  (59) 
oracle

>  <origin>  (59) 
adg

>  <m_score__min__energy>  (59) 
-9.1099999999999994

>  <m_primary>  (59) 
energy

$$$$
60:0
     RDKit          3D

 52 54  0  0  0  0  0  0  0  0999 V2000
   58.4160   32.2210   49.6730 C   0  0  0  0  0  0  0  0  0  0  0  0
   58.9960   31.1840   50.6290 C   0  0  0  0  0  0  0  0  0  0  0  0
   60.4650   30.9610   50.3550 C   0  0  0  0  0  0  0  0  0  0  0  0
   61.2620   31.6120   51.0160 O   0  0  0  0  0  0  0  0  0  0  0  0
   60.9740   30.0020   49.3800 N   0  0  0  0  0  0  0  0  0  0  0  0
   61.3720   30.6020   48.0830 C   0  0  0  0  0  0  0  0  0  0  0  0
   60.2320   30.7250   47.0610 C   0  0  0  0  0  0  0  0  0  0  0  0
   59.4230   29.5070   47.0280 N   0  0  0  0  0  0  0  0  0  0  0  0
   58.8290   29.0960   45.7880 C   0  0  0  0  0  0  0  0  0  0  0  0
   59.2680   27.9130   45.1760 C   0  0  0  0  0  0  0  0  0  0  0  0
   58.7030   27.4880   43.9710 C   0  0  0  0  0  0  0  0  0  0  0  0
   57.6910   28.2390   43.3720 C   0  0  0  0  0  0  0  0  0  0  0  0
   57.2520   29.4250   43.9670 C   0  0  0  0  0  0  0  0  0  0  0  0
   57.8350   29.8770   45.1630 C   0  0  0  0  0  0  0  0  0  0  0  0
   57.3940   31.0940   45.7800 N   0  0  0  0  0  0  0  0  0  0  0  0
   57.6050   32.4270   45.2940 C   0  0  0  0  0  0  0  0  0  0  0  0
   57.3850   32.6650   44.0770 O   0  0  0  0  0  0  0  0  0  0  0  0
   57.9700   33.5630   46.2070 C   0  0  0  0  0  0  0  0  0  0  0  0
   59.2680   34.6210   45.4720 S   0  0  0  0  0  0  0  0  0  0  0  0
   60.5020   34.2980   46.7360 C   0  0  0  0  0  0  0  0  0  0  0  0
   60.1850   34.4760   48.0880 C   0  0  0  0  0  0  0  0  0  0  0  0
   61.1420   34.2160   49.0740 C   0  0  0  0  0  0  0  0  0  0  0  0
   62.4180   33.7660   48.7100 C   0  0  0  0  0  0  0  0  0  0  0  0
   63.7260   33.4160   50.0560 Br  0  0  0  0  0  0  0  0  0  0  0  0
   62.7310   33.5750   47.3600 C   0  0  0  0  0  0  0  0  0  0  0  0
   61.7730   33.8360   46.3740 C   0  0  0  0  0  0  0  0  0  0  0  0
   58.9760   28.9120   48.2870 C   0  0  0  0  0  0  0  0  0  0  0  0
   60.1470   28.7800   49.2630 C   0  0  0  0  0  0  0  0  0  0  0  0
   57.9592   33.0377   50.2512 H   0  0  0  0  0  0  0  0  0  0  0  0
   59.2191   32.6250   49.0391 H   0  0  0  0  0  0  0  0  0  0  0  0
   57.6514   31.7482   49.0391 H   0  0  0  0  0  0  0  0  0  0  0  0
   58.8721   31.5382   51.6630 H   0  0  0  0  0  0  0  0  0  0  0  0
   58.4626   30.2332   50.4823 H   0  0  0  0  0  0  0  0  0  0  0  0
   61.8790   29.6600   49.7870 H   0  0  0  0  0  0  0  0  0  0  0  0
   61.7688   31.6093   48.2779 H   0  0  0  0  0  0  0  0  0  0  0  0
   62.1168   29.9242   47.6405 H   0  0  0  0  0  0  0  0  0  0  0  0
   59.5910   31.5750   47.3379 H   0  0  0  0  0  0  0  0  0  0  0  0
   60.6706   30.8811   46.0644 H   0  0  0  0  0  0  0  0  0  0  0  0
   60.0623   27.3159   45.6478 H   0  0  0  0  0  0  0  0  0  0  0  0
   59.0559   26.5615   43.4945 H   0  0  0  0  0  0  0  0  0  0  0  0
   57.2379   27.8970   42.4298 H   0  0  0  0  0  0  0  0  0  0  0  0
   56.4461   30.0075   43.4967 H   0  0  0  0  0  0  0  0  0  0  0  0
   57.0743   34.1735   46.3940 H   0  0  0  0  0  0  0  0  0  0  0  0
   58.3584   33.1410   47.1456 H   0  0  0  0  0  0  0  0  0  0  0  0
   59.1809   34.8212   48.3753 H   0  0  0  0  0  0  0  0  0  0  0  0
   60.8931   34.3647   50.1351 H   0  0  0  0  0  0  0  0  0  0  0  0
   63.7316   33.2192   47.0732 H   0  0  0  0  0  0  0  0  0  0  0  0
   62.0188   33.6780   45.3135 H   0  0  0  0  0  0  0  0  0  0  0  0
   58.2017   29.5521   48.7351 H   0  0  0  0  0  0  0  0  0  0  0  0
   58.5688   27.9108   48.0825 H   0  0  0  0  0  0  0  0  0  0  0  0
   59.7430   28.5392   50.2574 H   0  0  0  0  0  0  0  0  0  0  0  0
   60.8020   27.9890   48.8690 H   0  0  0  0  0  0  0  0  0  0  0  0
  1  2  1  0
  2  3  1  0
  3  4  2  0
  3  5  1  0
  5  6  1  0
  6  7  1  0
  7  8  1  0
  8  9  1  0
  9 10  2  0
 10 11  1  0
 11 12  2  0
 12 13  1  0
 13 14  2  0
 14 15  1  0
 15 16  1  0
 16 17  2  0
 16 18  1  0
 18 19  1  0
 19 20  1  0
 20 21  2  0
 21 22  1  0
 22 23  2  0
 23 24  1  0
 23 25  1  0
 25 26  2  0
  8 27  1  0
 27 28  1  0
 28  5  1  0
 14  9  1  0
 26 20  1  0
  1 29  1  0
  1 30  1  0
  1 31  1  0
  2 32  1  0
  2 33  1  0
  5 34  1  0
  6 35  1  0
  6 36  1  0
  7 37  1  0
  7 38  1  0
 10 39  1  0
 11 40  1  0
 12 41  1  0
 13 42  1  0
 18 43  1  0
 18 44  1  0
 21 45  1  0
 22 46  1  0
 25 47  1  0
 26 48  1  0
 27 49  1  0
 27 50  1  0
 28 51  1  0
 28 52  1  0
M  CHG  2   5   1  15  -1
M  END
>  <UniqueID>  (60) 
54

>  <SMILES>  (60) 
CCC(=O)[NH+]1CCN(c2ccccc2[N-]C(=O)CSc2ccc(Br)cc2)CC1

>  <Energy>  (60) 
65.93392998624277

>  <Genealogy>  (60) 
CCC(=O)[NH+]1CCN(c2ccccc2[N-]C(=O)CSc2ccc(Br)cc2)CC1 (protonated)
CCC(=O)[NH+]1CCN(c2ccccc2[N-]C(=O)CSc2ccc(Br)cc2)CC1 (3D coordinates assigned)
CCC(=O)[NH+]1CCN(c2ccccc2[N-]C(=O)CSc2ccc(Br)cc2)CC1 (nonaromatic ring conformer: 65.93392998624277 kcal/mol)

>  <smiles>  (60) 
CCC(=O)N1CCN(c2ccccc2NC(=O)CSc2ccc(Br)cc2)CC1

>  <score_type>  (60) 
oracle

>  <origin>  (60) 
adg

>  <m_score__min__energy>  (60) 
-9.2799999999999994

>  <m_primary>  (60) 
energy

$$$$
61:0
     RDKit          3D

 38 40  0  0  0  0  0  0  0  0999 V2000
   55.0600   26.2940   45.7570 N   0  0  0  0  0  0  0  0  0  0  0  0
   55.2990   24.9090   46.0000 C   0  0  0  0  0  0  0  0  0  0  0  0
   54.4910   24.2520   46.7090 O   0  0  0  0  0  0  0  0  0  0  0  0
   56.5290   24.2650   45.4920 C   0  0  0  0  0  0  0  0  0  0  0  0
   56.3670   23.1000   44.7240 C   0  0  0  0  0  0  0  0  0  0  0  0
   57.4600   22.2930   44.4200 C   0  0  0  0  0  0  0  0  0  0  0  0
   58.7180   22.6470   44.8950 C   0  0  0  0  0  0  0  0  0  0  0  0
   58.8810   23.7990   45.5930 N   0  0  0  0  0  0  0  0  0  0  0  0
   57.8510   24.6450   45.8740 C   0  0  0  0  0  0  0  0  0  0  0  0
   58.1570   25.7750   46.4570 N   0  0  0  0  0  0  0  0  0  0  0  0
   58.4140   27.0620   45.8760 C   0  0  0  0  0  0  0  0  0  0  0  0
   59.7280   27.5200   45.6950 C   0  0  0  0  0  0  0  0  0  0  0  0
   59.9600   28.7960   45.1820 C   0  0  0  0  0  0  0  0  0  0  0  0
   58.8870   29.6360   44.8730 C   0  0  0  0  0  0  0  0  0  0  0  0
   57.5630   29.2080   45.0880 C   0  0  0  0  0  0  0  0  0  0  0  0
   56.4250   30.1040   44.7770 C   0  0  0  0  0  0  0  0  0  0  0  0
   55.2430   29.6730   44.8660 O   0  0  0  0  0  0  0  0  0  0  0  0
   56.6650   31.4740   44.4250 N   0  0  0  0  0  0  0  0  0  0  0  0
   57.4560   32.4220   45.1580 C   0  0  0  0  0  0  0  0  0  0  0  0
   57.8590   33.6000   44.5150 C   0  0  0  0  0  0  0  0  0  0  0  0
   58.6120   34.5580   45.2010 C   0  0  0  0  0  0  0  0  0  0  0  0
   58.9560   34.3520   46.5390 C   0  0  0  0  0  0  0  0  0  0  0  0
   58.5380   33.1910   47.1960 C   0  0  0  0  0  0  0  0  0  0  0  0
   57.7850   32.2300   46.5140 C   0  0  0  0  0  0  0  0  0  0  0  0
   57.3400   27.9190   45.6080 C   0  0  0  0  0  0  0  0  0  0  0  0
   54.7740   26.9330   46.5310 H   0  0  0  0  0  0  0  0  0  0  0  0
   55.3670   22.8227   44.3593 H   0  0  0  0  0  0  0  0  0  0  0  0
   57.3299   21.3861   43.8112 H   0  0  0  0  0  0  0  0  0  0  0  0
   59.5815   21.9927   44.7048 H   0  0  0  0  0  0  0  0  0  0  0  0
   60.5766   26.8715   45.9582 H   0  0  0  0  0  0  0  0  0  0  0  0
   60.9914   29.1424   45.0201 H   0  0  0  0  0  0  0  0  0  0  0  0
   59.0778   30.6373   44.4594 H   0  0  0  0  0  0  0  0  0  0  0  0
   57.5814   33.7721   43.4646 H   0  0  0  0  0  0  0  0  0  0  0  0
   58.9339   35.4752   44.6862 H   0  0  0  0  0  0  0  0  0  0  0  0
   59.5552   35.1026   47.0752 H   0  0  0  0  0  0  0  0  0  0  0  0
   58.8021   33.0330   48.2521 H   0  0  0  0  0  0  0  0  0  0  0  0
   57.4491   31.3227   47.0374 H   0  0  0  0  0  0  0  0  0  0  0  0
   56.3118   27.5819   45.8057 H   0  0  0  0  0  0  0  0  0  0  0  0
  1  2  1  0
  2  3  2  0
  2  4  1  0
  4  5  2  0
  5  6  1  0
  6  7  2  0
  7  8  1  0
  8  9  1  0
  9 10  2  3
 10 11  1  0
 11 12  2  0
 12 13  1  0
 13 14  2  0
 14 15  1  0
 15 16  1  0
 16 17  2  0
 16 18  1  0
 18 19  1  0
 19 20  2  0
 20 21  1  0
 21 22  2  0
 22 23  1  0
 23 24  2  0
 15 25  2  0
  9  4  1  0
 25 11  1  0
 24 19  1  0
  1 26  1  0
  5 27  1  0
  6 28  1  0
  7 29  1  0
 12 30  1  0
 13 31  1  0
 14 32  1  0
 20 33  1  0
 21 34  1  0
 22 35  1  0
 23 36  1  0
 24 37  1  0
 25 38  1  0
M  CHG  3   1  -1   8  -1  18  -1
M  END
>  <UniqueID>  (61) 
55

>  <SMILES>  (61) 
[NH-]C(=O)c1ccc[n-]c1=Nc1cccc(C(=O)[N-]c2ccccc2)c1

>  <Energy>  (61) 
66.61030216493644

>  <Genealogy>  (61) 
[NH-]C(=O)c1ccc[n-]c1=Nc1cccc(C(=O)[N-]c2ccccc2)c1 (protonated)
[NH-]C(=O)c1ccc[n-]c1=Nc1cccc(C(=O)[N-]c2ccccc2)c1 (3D coordinates assigned)
[NH-]C(=O)c1ccc[n-]c1=Nc1cccc(C(=O)[N-]c2ccccc2)c1 (optimized conformer: 66.61030216493644 kcal/mol)

>  <smiles>  (61) 
NC(=O)c1ccc[nH]c1=Nc1cccc(C(=O)Nc2ccccc2)c1

>  <score_type>  (61) 
oracle

>  <origin>  (61) 
adg

>  <m_score__min__energy>  (61) 
-14.75

>  <m_primary>  (61) 
energy

$$$$
62:0
     RDKit          3D

 56 58  0  0  0  0  0  0  0  0999 V2000
   64.1715   32.8933   49.2895 H   0  0  0  0  0  0  0  0  0  0  0  0
   63.2800   32.5290   48.7580 C   0  0  0  0  0  0  0  0  0  0  0  0
   62.9150   33.1210   47.5430 C   0  0  0  0  0  0  0  0  0  0  0  0
   63.7550   34.2160   46.9540 C   0  0  0  0  0  0  0  0  0  0  0  0
   64.2080   34.8066   47.7639 H   0  0  0  0  0  0  0  0  0  0  0  0
   64.5490   33.7754   46.3331 H   0  0  0  0  0  0  0  0  0  0  0  0
   63.1238   34.8687   46.3331 H   0  0  0  0  0  0  0  0  0  0  0  0
   61.8010   32.6410   46.8500 C   0  0  0  0  0  0  0  0  0  0  0  0
   61.5287   33.0835   45.8804 H   0  0  0  0  0  0  0  0  0  0  0  0
   61.0310   31.6040   47.3790 C   0  0  0  0  0  0  0  0  0  0  0  0
   59.9390   31.1790   46.6910 N   0  0  0  0  0  0  0  0  0  0  0  0
   59.1490   30.1810   47.1630 C   0  0  0  0  0  0  0  0  0  0  0  0
   58.1030   29.7870   46.5000 N   0  0  0  0  0  0  0  0  0  0  0  0
   57.9350   28.4380   45.9640 C   0  0  0  0  0  0  0  0  0  0  0  0
   58.5791   28.3111   45.0814 H   0  0  0  0  0  0  0  0  0  0  0  0
   58.2152   27.7007   46.7308 H   0  0  0  0  0  0  0  0  0  0  0  0
   56.5080   28.2330   45.5730 C   0  0  0  0  0  0  0  0  0  0  0  0
   56.0080   27.0750   45.6160 O   0  0  0  0  0  0  0  0  0  0  0  0
   55.7200   29.3500   45.1490 N   0  0  0  0  0  0  0  0  0  0  0  0
   55.4750   29.6770   43.7490 C   0  0  0  0  0  0  0  0  0  0  0  0
   55.7506   28.8168   43.1212 H   0  0  0  0  0  0  0  0  0  0  0  0
   54.4086   29.9121   43.6164 H   0  0  0  0  0  0  0  0  0  0  0  0
   56.3110   30.8940   43.3360 C   0  0  0  0  0  0  0  0  0  0  0  0
   56.3391   30.9350   42.2371 H   0  0  0  0  0  0  0  0  0  0  0  0
   55.8278   31.7738   43.7861 H   0  0  0  0  0  0  0  0  0  0  0  0
   57.7710   30.8760   43.8580 C   0  0  0  0  0  0  0  0  0  0  0  0
   57.9165   29.9321   44.4038 H   0  0  0  0  0  0  0  0  0  0  0  0
   58.3964   30.9943   42.9609 H   0  0  0  0  0  0  0  0  0  0  0  0
   58.1800   31.9870   44.7640 N   0  0  0  0  0  0  0  0  0  0  0  0
   58.8850   31.5640   45.4170 H   0  0  0  0  0  0  0  0  0  0  0  0
   57.0870   32.5060   45.6170 C   0  0  0  0  0  0  0  0  0  0  0  0
   56.3631   33.0435   44.9868 H   0  0  0  0  0  0  0  0  0  0  0  0
   56.6028   31.6569   46.1215 H   0  0  0  0  0  0  0  0  0  0  0  0
   57.6350   33.4710   46.6930 C   0  0  0  0  0  0  0  0  0  0  0  0
   56.9232   34.2998   46.8214 H   0  0  0  0  0  0  0  0  0  0  0  0
   57.7586   32.9020   47.6262 H   0  0  0  0  0  0  0  0  0  0  0  0
   58.9550   34.0290   46.3220 N   0  0  0  0  0  0  0  0  0  0  0  0
   59.2610   35.2130   47.1380 C   0  0  0  0  0  0  0  0  0  0  0  0
   59.1933   34.9510   48.2042 H   0  0  0  0  0  0  0  0  0  0  0  0
   60.2789   35.5622   46.9102 H   0  0  0  0  0  0  0  0  0  0  0  0
   58.5398   36.0117   46.9102 H   0  0  0  0  0  0  0  0  0  0  0  0
   58.9980   34.3630   44.8890 C   0  0  0  0  0  0  0  0  0  0  0  0
   58.1580   35.0299   44.6448 H   0  0  0  0  0  0  0  0  0  0  0  0
   59.9502   34.8653   44.6632 H   0  0  0  0  0  0  0  0  0  0  0  0
   58.8910   33.0760   44.0450 C   0  0  0  0  0  0  0  0  0  0  0  0
   58.3432   33.3049   43.1190 H   0  0  0  0  0  0  0  0  0  0  0  0
   59.9124   32.7275   43.8321 H   0  0  0  0  0  0  0  0  0  0  0  0
   59.4530   29.5870   48.3420 N   0  0  0  0  0  0  0  0  0  0  0  0
   60.5320   29.9610   49.0770 C   0  0  0  0  0  0  0  0  0  0  0  0
   60.7520   29.3610   50.1620 O   0  0  0  0  0  0  0  0  0  0  0  0
   61.3760   31.0050   48.6170 C   0  0  0  0  0  0  0  0  0  0  0  0
   62.5280   31.4770   49.3120 C   0  0  0  0  0  0  0  0  0  0  0  0
   62.9840   30.9020   50.6310 C   0  0  0  0  0  0  0  0  0  0  0  0
   62.5316   31.4724   51.4556 H   0  0  0  0  0  0  0  0  0  0  0  0
   62.6726   29.8492   50.6993 H   0  0  0  0  0  0  0  0  0  0  0  0
   64.0800   30.9654   50.6993 H   0  0  0  0  0  0  0  0  0  0  0  0
  1  2  1  0
  2  3  2  0
  3  4  1  0
  4  5  1  0
  4  6  1  0
  4  7  1  0
  3  8  1  0
  8  9  1  0
  8 10  2  0
 10 11  1  0
 11 12  1  0
 12 13  2  0
 13 14  1  0
 14 15  1  0
 14 16  1  0
 14 17  1  0
 17 18  2  0
 17 19  1  0
 19 20  1  0
 20 21  1  0
 20 22  1  0
 20 23  1  0
 23 24  1  0
 23 25  1  0
 23 26  1  0
 26 27  1  0
 26 28  1  0
 26 29  1  0
 29 30  1  0
 29 31  1  0
 31 32  1  0
 31 33  1  0
 31 34  1  0
 34 35  1  0
 34 36  1  0
 34 37  1  0
 37 38  1  0
 38 39  1  0
 38 40  1  0
 38 41  1  0
 37 42  1  0
 42 43  1  0
 42 44  1  0
 42 45  1  0
 45 46  1  0
 45 47  1  0
 12 48  1  0
 48 49  1  0
 49 50  2  0
 49 51  1  0
 51 52  2  0
 52 53  1  0
 53 54  1  0
 53 55  1  0
 53 56  1  0
 52  2  1  0
 51 10  1  0
 45 29  1  0
M  CHG  4  11  -1  19  -1  29   1  48  -1
M  END
>  <UniqueID>  (62) 
56

>  <SMILES>  (62) 
Cc1cc(C)c2c(=O)[n-]/c(=N/CC(=O)[N-]CCC[NH+]3CCN(C)CC3)[n-]c2c1

>  <Energy>  (62) 
72.73407549097202

>  <Genealogy>  (62) 
Cc1cc(C)c2c(=O)[n-]c(=NCC(=O)[N-]CCC[NH+]3CCN(C)CC3)[n-]c2c1 (protonated)
Cc1cc(C)c2c(=O)[n-]/c(=N/CC(=O)[N-]CCC[NH+]3CCN(C)CC3)[n-]c2c1 (cis-trans isomerization)
Cc1cc(C)c2c(=O)[n-]/c(=N/CC(=O)[N-]CCC[NH+]3CCN(C)CC3)[n-]c2c1 (3D coordinates assigned)
Cc1cc(C)c2c(=O)[n-]/c(=N/CC(=O)[N-]CCC[NH+]3CCN(C)CC3)[n-]c2c1 (nonaromatic ring conformer: 72.73407549097202 kcal/mol)

>  <smiles>  (62) 
Cc1cc(C)c2c(=O)[nH]c(=NCC(=O)NCCCN3CCN(C)CC3)[nH]c2c1

>  <score_type>  (62) 
oracle

>  <origin>  (62) 
adg

>  <m_score__min__energy>  (62) 
-11.33

>  <m_primary>  (62) 
energy

$$$$
63:0
     RDKit          3D

 66 70  0  0  1  0  0  0  0  0999 V2000
   56.7990   29.4300   43.2680 C   0  0  0  0  0  0  0  0  0  0  0  0
   57.5210   28.6960   44.3300 C   0  0  0  0  0  0  0  0  0  0  0  0
   56.9140   28.1660   45.4490 C   0  0  0  0  0  0  0  0  0  0  0  0
   57.6440   27.4830   46.4240 C   0  0  0  0  0  0  0  0  0  0  0  0
   59.0130   27.3160   46.2940 C   0  0  0  0  0  0  0  0  0  0  0  0
   59.8410   26.6290   47.2890 C   0  0  0  0  0  0  0  0  0  0  0  0
   60.4220   27.5870   48.1900 N   0  0  0  0  0  0  0  0  0  0  0  0
   60.7340   27.3620   49.5470 C   0  0  0  0  0  0  0  0  0  0  0  0
   60.5260   26.2750   50.1210 O   0  0  0  0  0  0  0  0  0  0  0  0
   61.3340   28.4310   50.3580 C   0  0  0  0  0  0  0  0  0  0  0  0
   61.3290   29.7730   50.0230 C   0  0  0  0  0  0  0  0  0  0  0  0
   61.9850   30.4160   51.0520 C   0  0  0  0  0  0  0  0  0  0  0  0
   62.2300   31.6720   51.1530 N   0  0  0  0  0  0  0  0  0  0  0  0
   63.2680   32.2390   51.9450 C   0  0  0  0  0  0  0  0  0  0  0  0
   64.4320   32.5200   51.0690 C   0  0  0  0  0  0  0  0  0  0  0  0
   65.7370   32.3320   51.4630 C   0  0  0  0  0  0  0  0  0  0  0  0
   66.5070   32.6930   50.4260 N   0  0  0  0  0  0  0  0  0  0  0  0
   65.7900   33.1000   49.3980 N   0  0  0  0  0  0  0  0  0  0  0  0
   64.4870   32.9970   49.7850 C   0  0  0  0  0  0  0  0  0  0  0  0
   63.4000   33.3350   48.8950 C   0  0  0  0  0  0  0  0  0  0  0  0
   62.3060   33.9910   49.4710 C   0  0  0  0  0  0  0  0  0  0  0  0
   61.2070   34.3650   48.7370 C   0  0  0  0  0  0  0  0  0  0  0  0
   61.1490   34.1010   47.3900 C   0  0  0  0  0  0  0  0  0  0  0  0
   59.9650   34.5250   46.6410 C   0  0  0  0  0  0  0  0  0  0  0  0
   59.9700   35.7400   46.2640 O   0  0  0  0  0  0  0  0  0  0  0  0
   58.8830   33.6430   46.3530 N   0  0  0  0  0  0  0  0  0  0  0  0
   58.9430   32.2680   46.8060 C   0  0  0  0  0  0  0  0  0  0  0  0
   58.3210   31.4030   45.7300 C   0  0  0  0  0  0  0  0  0  0  0  0
   57.0220   31.8970   45.5260 O   0  0  0  0  0  0  0  0  0  0  0  0
   57.0420   33.1110   44.8820 C   0  0  0  0  0  0  0  0  0  0  0  0
   57.7670   34.1920   45.6160 C   0  0  0  0  0  0  0  0  0  0  0  0
   62.2200   33.4500   46.7850 C   0  0  0  0  0  0  0  0  0  0  0  0
   63.3320   33.0760   47.5550 C   0  0  0  0  0  0  0  0  0  0  0  0
   62.3700   29.5050   51.9690 N   0  0  0  0  0  0  0  0  0  0  0  0
   61.9720   28.3140   51.5400 N   0  0  0  0  0  0  0  0  0  0  0  0
   59.5970   27.8530   45.1730 C   0  0  0  0  0  0  0  0  0  0  0  0
   58.8790   28.5340   44.1950 C   0  0  0  0  0  0  0  0  0  0  0  0
   56.0979   30.1428   43.7266 H   0  0  0  0  0  0  0  0  0  0  0  0
   57.5214   29.9764   42.6438 H   0  0  0  0  0  0  0  0  0  0  0  0
   56.2408   28.7167   42.6438 H   0  0  0  0  0  0  0  0  0  0  0  0
   55.8279   28.2842   45.5768 H   0  0  0  0  0  0  0  0  0  0  0  0
   57.1267   27.0735   47.3042 H   0  0  0  0  0  0  0  0  0  0  0  0
   59.2170   25.9247   47.8587 H   0  0  0  0  0  0  0  0  0  0  0  0
   60.6453   26.0825   46.7747 H   0  0  0  0  0  0  0  0  0  0  0  0
   60.6400   28.5570   47.8100 H   0  0  0  0  0  0  0  0  0  0  0  0
   60.8928   30.2318   49.1235 H   0  0  0  0  0  0  0  0  0  0  0  0
   62.9151   33.1744   52.4038 H   0  0  0  0  0  0  0  0  0  0  0  0
   63.5579   31.5384   52.7420 H   0  0  0  0  0  0  0  0  0  0  0  0
   66.0815   31.9584   52.4386 H   0  0  0  0  0  0  0  0  0  0  0  0
   67.5650   32.6450   50.4640 H   0  0  0  0  0  0  0  0  0  0  0  0
   62.3271   34.2146   50.5478 H   0  0  0  0  0  0  0  0  0  0  0  0
   60.3687   34.8787   49.2303 H   0  0  0  0  0  0  0  0  0  0  0  0
   59.9900   31.9715   46.9667 H   0  0  0  0  0  0  0  0  0  0  0  0
   58.4016   32.1508   47.7564 H   0  0  0  0  0  0  0  0  0  0  0  0
   58.9051   31.4732   44.8005 H   0  0  0  0  0  0  0  0  0  0  0  0
   58.3028   30.3448   46.0299 H   0  0  0  0  0  0  0  0  0  0  0  0
   57.5287   32.9734   43.9052 H   0  0  0  0  0  0  0  0  0  0  0  0
   55.9949   33.4378   44.7997 H   0  0  0  0  0  0  0  0  0  0  0  0
   58.1397   34.9330   44.8935 H   0  0  0  0  0  0  0  0  0  0  0  0
   57.0730   34.6685   46.3240 H   0  0  0  0  0  0  0  0  0  0  0  0
   62.1950   33.2295   45.7076 H   0  0  0  0  0  0  0  0  0  0  0  0
   64.1719   32.5602   47.0665 H   0  0  0  0  0  0  0  0  0  0  0  0
   62.8810   29.6710   52.8540 H   0  0  0  0  0  0  0  0  0  0  0  0
   62.1240   27.3960   52.0390 H   0  0  0  0  0  0  0  0  0  0  0  0
   60.6833   27.7394   45.0422 H   0  0  0  0  0  0  0  0  0  0  0  0
   59.3976   28.9422   43.3150 H   0  0  0  0  0  0  0  0  0  0  0  0
  1  2  1  0
  2  3  2  0
  3  4  1  0
  4  5  2  0
  5  6  1  0
  6  7  1  0
  7  8  1  0
  8  9  2  0
  8 10  1  0
 10 11  2  0
 11 12  1  0
 12 13  2  0
 13 14  1  0
 14 15  1  0
 15 16  2  0
 16 17  1  0
 17 18  1  0
 18 19  2  0
 19 20  1  0
 20 21  2  0
 21 22  1  0
 22 23  2  0
 23 24  1  0
 24 25  2  0
 24 26  1  0
 26 27  1  0
 27 28  1  0
 28 29  1  0
 29 30  1  0
 30 31  1  0
 23 32  1  0
 32 33  2  0
 12 34  1  0
 34 35  1  0
  5 36  1  0
 36 37  2  0
 37  2  1  0
 35 10  1  0
 19 15  1  0
 33 20  1  0
 31 26  1  0
  1 38  1  0
  1 39  1  0
  1 40  1  0
  3 41  1  0
  4 42  1  0
  6 43  1  0
  6 44  1  0
  7 45  1  0
 11 46  1  0
 14 47  1  0
 14 48  1  0
 16 49  1  0
 17 50  1  0
 21 51  1  0
 22 52  1  0
 27 53  1  0
 27 54  1  0
 28 55  1  0
 28 56  1  0
 30 57  1  0
 30 58  1  0
 31 59  1  0
 31 60  1  0
 32 61  1  0
 33 62  1  0
 34 63  1  0
 35 64  1  0
 36 65  1  0
 37 66  1  0
M  END
>  <smiles>  (63) 
Cc1ccc(CNC(=O)c2cc(=NCc3c[nH]nc3-c3ccc(C(=O)N4CCOCC4)cc3)[nH][nH]2)cc1

>  <score_type>  (63) 
oracle

>  <origin>  (63) 
adg

>  <m_score__min__energy>  (63) 
-8.8900000000000006

>  <m_primary>  (63) 
energy

$$$$
64:0
     RDKit          3D

 36 38  0  0  0  0  0  0  0  0999 V2000
   56.2300   32.3340   52.3240 O   0  0  0  0  0  0  0  0  0  0  0  0
   56.3740   31.1080   52.0680 C   0  0  0  0  0  0  0  0  0  0  0  0
   57.7550   30.5050   52.1070 C   0  0  0  0  0  0  0  0  0  0  0  0
   58.7430   31.4210   51.5330 N   0  0  0  0  0  0  0  0  0  0  0  0
   59.4690   32.3520   52.1820 C   0  0  0  0  0  0  0  0  0  0  0  0
   59.4380   32.5610   53.5550 O   0  0  0  0  0  0  0  0  0  0  0  0
   60.2310   33.0610   51.2780 C   0  0  0  0  0  0  0  0  0  0  0  0
   59.9780   32.5700   50.0450 N   0  0  0  0  0  0  0  0  0  0  0  0
   60.5530   33.0290   48.8040 C   0  0  0  0  0  0  0  0  0  0  0  0
   61.8760   32.6890   48.4680 C   0  0  0  0  0  0  0  0  0  0  0  0
   62.4350   33.1280   47.2640 C   0  0  0  0  0  0  0  0  0  0  0  0
   61.6790   33.9030   46.3820 C   0  0  0  0  0  0  0  0  0  0  0  0
   60.3620   34.2380   46.7010 C   0  0  0  0  0  0  0  0  0  0  0  0
   59.7980   33.8030   47.9040 C   0  0  0  0  0  0  0  0  0  0  0  0
   59.0650   31.5880   50.2330 C   0  0  0  0  0  0  0  0  0  0  0  0
   58.5460   30.9200   49.2980 O   0  0  0  0  0  0  0  0  0  0  0  0
   55.2030   30.2950   51.9280 N   0  0  0  0  0  0  0  0  0  0  0  0
   53.8730   30.6530   52.3230 C   0  0  0  0  0  0  0  0  0  0  0  0
   53.3850   30.2070   53.5580 C   0  0  0  0  0  0  0  0  0  0  0  0
   52.1030   30.5710   53.9820 C   0  0  0  0  0  0  0  0  0  0  0  0
   51.3100   31.3990   53.1850 C   0  0  0  0  0  0  0  0  0  0  0  0
   51.8020   31.8760   51.9660 C   0  0  0  0  0  0  0  0  0  0  0  0
   51.0230   32.7160   51.1820 O   0  0  0  0  0  0  0  0  0  0  0  0
   53.0840   31.5120   51.5390 C   0  0  0  0  0  0  0  0  0  0  0  0
   58.0256   30.2925   53.1518 H   0  0  0  0  0  0  0  0  0  0  0  0
   57.7500   29.5782   51.5146 H   0  0  0  0  0  0  0  0  0  0  0  0
   60.9229   33.8817   51.5182 H   0  0  0  0  0  0  0  0  0  0  0  0
   62.4742   32.0742   49.1565 H   0  0  0  0  0  0  0  0  0  0  0  0
   63.4721   32.8625   47.0111 H   0  0  0  0  0  0  0  0  0  0  0  0
   62.1212   34.2494   45.4362 H   0  0  0  0  0  0  0  0  0  0  0  0
   59.7664   34.8458   46.0040 H   0  0  0  0  0  0  0  0  0  0  0  0
   58.7585   34.0673   48.1481 H   0  0  0  0  0  0  0  0  0  0  0  0
   54.0125   29.5681   54.1967 H   0  0  0  0  0  0  0  0  0  0  0  0
   51.7186   30.2043   54.9452 H   0  0  0  0  0  0  0  0  0  0  0  0
   50.2982   31.6761   53.5160 H   0  0  0  0  0  0  0  0  0  0  0  0
   53.4754   31.8994   50.5868 H   0  0  0  0  0  0  0  0  0  0  0  0
  1  2  2  0
  2  3  1  0
  3  4  1  0
  4  5  1  0
  5  6  1  0
  5  7  2  0
  7  8  1  0
  8  9  1  0
  9 10  2  0
 10 11  1  0
 11 12  2  0
 12 13  1  0
 13 14  2  0
  8 15  1  0
 15 16  2  0
  2 17  1  0
 17 18  1  0
 18 19  2  0
 19 20  1  0
 20 21  2  0
 21 22  1  0
 22 23  1  0
 22 24  2  0
 15  4  1  0
 24 18  1  0
 14  9  1  0
  3 25  1  0
  3 26  1  0
  7 27  1  0
 10 28  1  0
 11 29  1  0
 12 30  1  0
 13 31  1  0
 14 32  1  0
 19 33  1  0
 20 34  1  0
 21 35  1  0
 24 36  1  0
M  CHG  3   6  -1  17  -1  23  -1
M  END
>  <UniqueID>  (64) 
57

>  <SMILES>  (64) 
O=C(Cn1c([O-])cn(-c2ccccc2)c1=O)[N-]c1cccc([O-])c1

>  <Energy>  (64) 
82.68133698809325

>  <Genealogy>  (64) 
O=C(Cn1c([O-])cn(-c2ccccc2)c1=O)[N-]c1cccc([O-])c1 (protonated)
O=C(Cn1c([O-])cn(-c2ccccc2)c1=O)[N-]c1cccc([O-])c1 (3D coordinates assigned)
O=C(Cn1c([O-])cn(-c2ccccc2)c1=O)[N-]c1cccc([O-])c1 (optimized conformer: 82.68133698809325 kcal/mol)

>  <smiles>  (64) 
O=C(Cn1c(O)cn(-c2ccccc2)c1=O)Nc1cccc(O)c1

>  <score_type>  (64) 
oracle

>  <origin>  (64) 
adg

>  <m_score__min__energy>  (64) 
-14.029999999999999

>  <m_primary>  (64) 
energy

$$$$
65:0
     RDKit          3D

 55 58  0  0  0  0  0  0  0  0999 V2000
   61.1680   27.9620   50.0240 O   0  0  0  0  0  0  0  0  0  0  0  0
   60.4860   28.1690   48.9830 C   0  0  0  0  0  0  0  0  0  0  0  0
   59.8520   27.0150   48.2690 C   0  0  0  0  0  0  0  0  0  0  0  0
   59.0450   27.5110   47.1390 N   0  0  0  0  0  0  0  0  0  0  0  0
   59.7940   27.4600   45.8710 C   0  0  0  0  0  0  0  0  0  0  0  0
   59.0610   28.3190   44.8390 C   0  0  0  0  0  0  0  0  0  0  0  0
   57.6020   28.1780   44.9780 N   0  0  0  0  0  0  0  0  0  0  0  0
   56.7050   29.1700   44.4310 C   0  0  0  0  0  0  0  0  0  0  0  0
   55.5260   29.2590   44.8720 O   0  0  0  0  0  0  0  0  0  0  0  0
   57.1370   30.1340   43.3490 C   0  0  0  0  0  0  0  0  0  0  0  0
   57.0030   31.5940   43.8040 C   0  0  0  0  0  0  0  0  0  0  0  0
   57.8160   31.8590   45.0400 C   0  0  0  0  0  0  0  0  0  0  0  0
   57.9570   31.0150   46.1380 C   0  0  0  0  0  0  0  0  0  0  0  0
   58.6960   31.6120   47.1030 N   0  0  0  0  0  0  0  0  0  0  0  0
   59.0130   32.8290   46.6280 C   0  0  0  0  0  0  0  0  0  0  0  0
   59.7440   33.8250   47.2760 C   0  0  0  0  0  0  0  0  0  0  0  0
   59.9320   35.0460   46.6020 C   0  0  0  0  0  0  0  0  0  0  0  0
   59.3880   35.2440   45.3130 C   0  0  0  0  0  0  0  0  0  0  0  0
   58.6520   34.2210   44.6840 C   0  0  0  0  0  0  0  0  0  0  0  0
   58.4880   33.0190   45.3750 C   0  0  0  0  0  0  0  0  0  0  0  0
   57.0720   26.9880   45.6640 C   0  0  0  0  0  0  0  0  0  0  0  0
   57.7740   26.7630   47.0230 C   0  0  0  0  0  0  0  0  0  0  0  0
   60.2900   29.5030   48.4970 N   0  0  0  0  0  0  0  0  0  0  0  0
   60.9780   30.6390   49.0380 C   0  0  0  0  0  0  0  0  0  0  0  0
   62.2710   30.9350   48.5740 C   0  0  0  0  0  0  0  0  0  0  0  0
   62.9830   32.0130   49.1070 C   0  0  0  0  0  0  0  0  0  0  0  0
   62.4190   32.7930   50.1180 C   0  0  0  0  0  0  0  0  0  0  0  0
   63.4050   34.2520   50.8590 Br  0  0  0  0  0  0  0  0  0  0  0  0
   61.1400   32.4960   50.5990 C   0  0  0  0  0  0  0  0  0  0  0  0
   60.4150   31.4210   50.0700 C   0  0  0  0  0  0  0  0  0  0  0  0
   58.8490   31.0380   50.7740 Cl  0  0  0  0  0  0  0  0  0  0  0  0
   60.6369   26.3436   47.8906 H   0  0  0  0  0  0  0  0  0  0  0  0
   59.2021   26.4677   48.9676 H   0  0  0  0  0  0  0  0  0  0  0  0
   60.8105   27.8512   46.0246 H   0  0  0  0  0  0  0  0  0  0  0  0
   59.8631   26.4212   45.5158 H   0  0  0  0  0  0  0  0  0  0  0  0
   59.3365   29.3735   44.9874 H   0  0  0  0  0  0  0  0  0  0  0  0
   59.3519   27.9835   43.8326 H   0  0  0  0  0  0  0  0  0  0  0  0
   58.1882   29.9352   43.0932 H   0  0  0  0  0  0  0  0  0  0  0  0
   56.4844   29.9852   42.4761 H   0  0  0  0  0  0  0  0  0  0  0  0
   57.3531   32.2542   42.9968 H   0  0  0  0  0  0  0  0  0  0  0  0
   55.9456   31.7890   44.0362 H   0  0  0  0  0  0  0  0  0  0  0  0
   57.5282   30.0047   46.2115 H   0  0  0  0  0  0  0  0  0  0  0  0
   58.9520   31.2110   48.0320 H   0  0  0  0  0  0  0  0  0  0  0  0
   60.1599   33.6613   48.2811 H   0  0  0  0  0  0  0  0  0  0  0  0
   60.5065   35.8519   47.0820 H   0  0  0  0  0  0  0  0  0  0  0  0
   59.5403   36.2036   44.7973 H   0  0  0  0  0  0  0  0  0  0  0  0
   58.2210   34.3643   43.6822 H   0  0  0  0  0  0  0  0  0  0  0  0
   55.9940   27.1240   45.8358 H   0  0  0  0  0  0  0  0  0  0  0  0
   57.2573   26.1097   45.0282 H   0  0  0  0  0  0  0  0  0  0  0  0
   57.0982   27.0904   47.8268 H   0  0  0  0  0  0  0  0  0  0  0  0
   58.0103   25.6916   47.1019 H   0  0  0  0  0  0  0  0  0  0  0  0
   59.5100   29.6730   47.8220 H   0  0  0  0  0  0  0  0  0  0  0  0
   62.7251   30.3149   47.7871 H   0  0  0  0  0  0  0  0  0  0  0  0
   63.9892   32.2472   48.7293 H   0  0  0  0  0  0  0  0  0  0  0  0
   60.7005   33.1109   51.3982 H   0  0  0  0  0  0  0  0  0  0  0  0
  1  2  2  0
  2  3  1  0
  3  4  1  0
  4  5  1  0
  5  6  1  0
  6  7  1  0
  7  8  1  0
  8  9  2  0
  8 10  1  0
 10 11  1  0
 11 12  1  0
 12 13  2  0
 13 14  1  0
 14 15  1  0
 15 16  2  0
 16 17  1  0
 17 18  2  0
 18 19  1  0
 19 20  2  0
  7 21  1  0
 21 22  1  0
  2 23  1  0
 23 24  1  0
 24 25  2  0
 25 26  1  0
 26 27  2  0
 27 28  1  0
 27 29  1  0
 29 30  2  0
 30 31  1  0
 22  4  1  0
 30 24  1  0
 20 12  1  0
 20 15  1  0
  3 32  1  0
  3 33  1  0
  5 34  1  0
  5 35  1  0
  6 36  1  0
  6 37  1  0
 10 38  1  0
 10 39  1  0
 11 40  1  0
 11 41  1  0
 13 42  1  0
 14 43  1  0
 16 44  1  0
 17 45  1  0
 18 46  1  0
 19 47  1  0
 21 48  1  0
 21 49  1  0
 22 50  1  0
 22 51  1  0
 23 52  1  0
 25 53  1  0
 26 54  1  0
 29 55  1  0
M  END
>  <UniqueID>  (65) 
58

>  <SMILES>  (65) 
O=C(CN1CCN(C(=O)CCc2c[nH]c3ccccc23)CC1)Nc1ccc(Br)cc1Cl

>  <Energy>  (65) 
98.40600607666968

>  <Genealogy>  (65) 
O=C(CN1CCN(C(=O)CCc2c[nH]c3ccccc23)CC1)Nc1ccc(Br)cc1Cl (3D coordinates assigned)
O=C(CN1CCN(C(=O)CCc2c[nH]c3ccccc23)CC1)Nc1ccc(Br)cc1Cl (nonaromatic ring conformer: 98.40600607666968 kcal/mol)

>  <smiles>  (65) 
O=C(CN1CCN(C(=O)CCc2c[nH]c3ccccc23)CC1)Nc1ccc(Br)cc1Cl

>  <score_type>  (65) 
oracle

>  <origin>  (65) 
adg

>  <m_score__min__energy>  (65) 
-10.130000000000001

>  <m_primary>  (65) 
energy

$$$$
66:0
     RDKit          3D

 46 50  0  0  0  0  0  0  0  0999 V2000
   58.5570   33.8018   43.6992 H   0  0  0  0  0  0  0  0  0  0  0  0
   58.1720   33.1080   44.4610 C   0  0  0  0  0  0  0  0  0  0  0  0
   58.3294   33.3210   45.5286 H   0  0  0  0  0  0  0  0  0  0  0  0
   57.5140   32.0080   44.0900 C   0  0  0  0  0  0  0  0  0  0  0  0
   57.0200   31.1220   44.9860 N   0  0  0  0  0  0  0  0  0  0  0  0
   56.4400   30.1620   44.2320 C   0  0  0  0  0  0  0  0  0  0  0  0
   55.8390   29.0890   44.7680 C   0  0  0  0  0  0  0  0  0  0  0  0
   54.7729   28.9327   44.5467 H   0  0  0  0  0  0  0  0  0  0  0  0
   56.5140   28.1060   45.6340 C   0  0  0  0  0  0  0  0  0  0  0  0
   56.0420   26.8480   45.9780 C   0  0  0  0  0  0  0  0  0  0  0  0
   54.7960   26.3470   45.6210 O   0  0  0  0  0  0  0  0  0  0  0  0
   56.9360   26.1450   46.7130 N   0  0  0  0  0  0  0  0  0  0  0  0
   57.9980   26.9700   46.8110 C   0  0  0  0  0  0  0  0  0  0  0  0
   59.1990   26.7020   47.4620 C   0  0  0  0  0  0  0  0  0  0  0  0
   59.3549   25.7502   47.9909 H   0  0  0  0  0  0  0  0  0  0  0  0
   60.2070   27.6810   47.4250 C   0  0  0  0  0  0  0  0  0  0  0  0
   61.1568   27.5033   47.9507 H   0  0  0  0  0  0  0  0  0  0  0  0
   60.0140   28.8950   46.7180 C   0  0  0  0  0  0  0  0  0  0  0  0
   61.0540   29.8860   46.7250 N   0  0  0  0  0  0  0  0  0  0  0  0
   61.9390   29.6790   46.2090 H   0  0  0  0  0  0  0  0  0  0  0  0
   60.9240   31.1740   47.3460 C   0  0  0  0  0  0  0  0  0  0  0  0
   59.7900   31.7180   47.4330 O   0  0  0  0  0  0  0  0  0  0  0  0
   62.1190   31.9040   47.8210 C   0  0  0  0  0  0  0  0  0  0  0  0
   62.6650   32.9630   47.0630 C   0  0  0  0  0  0  0  0  0  0  0  0
   62.1939   33.2505   46.1115 H   0  0  0  0  0  0  0  0  0  0  0  0
   63.7750   33.6360   47.5000 N   0  0  0  0  0  0  0  0  0  0  0  0
   64.3930   33.3290   48.6760 C   0  0  0  0  0  0  0  0  0  0  0  0
   65.2861   33.8801   49.0055 H   0  0  0  0  0  0  0  0  0  0  0  0
   63.8640   32.3010   49.4470 C   0  0  0  0  0  0  0  0  0  0  0  0
   62.7570   31.6080   49.0360 C   0  0  0  0  0  0  0  0  0  0  0  0
   62.4550   30.7090   50.0430 C   0  0  0  0  0  0  0  0  0  0  0  0
   61.6218   29.9912   50.0670 H   0  0  0  0  0  0  0  0  0  0  0  0
   63.4270   30.9040   51.0190 C   0  0  0  0  0  0  0  0  0  0  0  0
   63.4871   30.3421   51.9627 H   0  0  0  0  0  0  0  0  0  0  0  0
   64.2870   31.8780   50.6490 N   0  0  0  0  0  0  0  0  0  0  0  0
   65.0990   32.2400   51.1970 H   0  0  0  0  0  0  0  0  0  0  0  0
   58.7800   29.1350   46.0700 C   0  0  0  0  0  0  0  0  0  0  0  0
   58.6067   30.0676   45.5130 H   0  0  0  0  0  0  0  0  0  0  0  0
   57.7890   28.1580   46.1560 C   0  0  0  0  0  0  0  0  0  0  0  0
   56.6190   30.4820   42.8960 C   0  0  0  0  0  0  0  0  0  0  0  0
   56.2770   29.7860   41.9020 O   0  0  0  0  0  0  0  0  0  0  0  0
   57.2770   31.6500   42.8050 N   0  0  0  0  0  0  0  0  0  0  0  0
   57.6970   32.3370   41.5820 C   0  0  0  0  0  0  0  0  0  0  0  0
   58.2540   33.2481   41.8461 H   0  0  0  0  0  0  0  0  0  0  0  0
   58.3426   31.6710   40.9906 H   0  0  0  0  0  0  0  0  0  0  0  0
   56.8100   32.6080   40.9906 H   0  0  0  0  0  0  0  0  0  0  0  0
  1  2  1  0
  2  3  1  0
  2  4  2  0
  4  5  1  0
  5  6  1  0
  6  7  2  0
  7  8  1  0
  7  9  1  0
  9 10  2  0
 10 11  1  0
 10 12  1  0
 12 13  1  0
 13 14  2  0
 14 15  1  0
 14 16  1  0
 16 17  1  0
 16 18  2  0
 18 19  1  0
 19 20  1  0
 19 21  1  0
 21 22  2  0
 21 23  1  0
 23 24  2  0
 24 25  1  0
 24 26  1  0
 26 27  2  0
 27 28  1  0
 27 29  1  0
 29 30  2  0
 30 31  1  0
 31 32  1  0
 31 33  2  0
 33 34  1  0
 33 35  1  0
 35 36  1  0
 18 37  1  0
 37 38  1  0
 37 39  2  0
  6 40  1  0
 40 41  2  0
 40 42  1  0
 42 43  1  0
 43 44  1  0
 43 45  1  0
 43 46  1  0
 42  4  1  0
 39  9  1  0
 39 13  1  0
 30 23  1  0
 35 29  1  0
M  CHG  3   5  -1  11  -1  12  -1
M  END
>  <UniqueID>  (66) 
59

>  <SMILES>  (66) 
C=c1[n-]/c(=C/c2c([O-])[n-]c3ccc(NC(=O)c4cncc5[nH]ccc45)cc23)c(=O)n1C

>  <Energy>  (66) 
165.27604535639676

>  <Genealogy>  (66) 
C=c1[n-]c(=Cc2c([O-])[n-]c3ccc(NC(=O)c4cncc5[nH]ccc45)cc23)c(=O)n1C (protonated)
C=c1[n-]/c(=C/c2c([O-])[n-]c3ccc(NC(=O)c4cncc5[nH]ccc45)cc23)c(=O)n1C (cis-trans isomerization)
C=c1[n-]/c(=C/c2c([O-])[n-]c3ccc(NC(=O)c4cncc5[nH]ccc45)cc23)c(=O)n1C (3D coordinates assigned)
C=c1[n-]/c(=C/c2c([O-])[n-]c3ccc(NC(=O)c4cncc5[nH]ccc45)cc23)c(=O)n1C (optimized conformer: 165.27604535639676 kcal/mol)

>  <smiles>  (66) 
C=c1[nH]c(=Cc2c(O)[nH]c3ccc(NC(=O)c4cncc5[nH]ccc45)cc23)c(=O)n1C

>  <score_type>  (66) 
oracle

>  <origin>  (66) 
adg

>  <m_score__min__energy>  (66) 
-15.18

>  <m_primary>  (66) 
energy

$$$$
67:0
     RDKit          3D

 67 70  0  0  0  0  0  0  0  0999 V2000
   60.7870   26.4890   50.3370 C   0  0  0  0  0  0  0  0  0  0  0  0
   60.4740   27.6380   49.3840 C   0  0  0  0  0  0  0  0  0  0  0  0
   60.9640   28.9430   49.9540 C   0  0  0  0  0  0  0  0  0  0  0  0
   61.8430   28.9090   50.8590 O   0  0  0  0  0  0  0  0  0  0  0  0
   60.5020   30.2150   49.4490 N   0  0  0  0  0  0  0  0  0  0  0  0
   61.2750   31.4360   49.7280 C   0  0  0  0  0  0  0  0  0  0  0  0
   61.2620   32.3680   48.5130 C   0  0  0  0  0  0  0  0  0  0  0  0
   59.9070   32.5270   47.9730 N   0  0  0  0  0  0  0  0  0  0  0  0
   59.6740   33.4670   46.9150 C   0  0  0  0  0  0  0  0  0  0  0  0
   60.1410   34.7810   47.0520 C   0  0  0  0  0  0  0  0  0  0  0  0
   59.9240   35.7160   46.0390 C   0  0  0  0  0  0  0  0  0  0  0  0
   59.2470   35.3420   44.8770 C   0  0  0  0  0  0  0  0  0  0  0  0
   58.7820   34.0330   44.7260 C   0  0  0  0  0  0  0  0  0  0  0  0
   58.9780   33.0850   45.7470 C   0  0  0  0  0  0  0  0  0  0  0  0
   58.5530   31.7210   45.5740 N   0  0  0  0  0  0  0  0  0  0  0  0
   57.2640   31.3520   45.0560 C   0  0  0  0  0  0  0  0  0  0  0  0
   56.3720   32.2270   44.8910 O   0  0  0  0  0  0  0  0  0  0  0  0
   56.9540   29.9350   44.7700 C   0  0  0  0  0  0  0  0  0  0  0  0
   55.7660   29.5300   44.8600 O   0  0  0  0  0  0  0  0  0  0  0  0
   57.9630   29.0200   44.3250 N   0  0  0  0  0  0  0  0  0  0  0  0
   58.4990   27.9200   45.0750 C   0  0  0  0  0  0  0  0  0  0  0  0
   59.7900   27.9660   45.6310 C   0  0  0  0  0  0  0  0  0  0  0  0
   60.2610   26.8990   46.4000 C   0  0  0  0  0  0  0  0  0  0  0  0
   59.4440   25.7890   46.6350 C   0  0  0  0  0  0  0  0  0  0  0  0
   58.1510   25.7400   46.0990 C   0  0  0  0  0  0  0  0  0  0  0  0
   57.1030   24.3660   46.4520 S   0  0  0  0  0  0  0  0  0  0  0  0
   57.3550   23.8800   47.8530 O   0  0  0  0  0  0  0  0  0  0  0  0
   55.6710   24.8100   46.3480 O   0  0  0  0  0  0  0  0  0  0  0  0
   57.4070   23.0830   45.3060 N   0  0  0  0  0  0  0  0  0  0  0  0
   56.4510   21.9790   45.5230 C   0  0  0  0  0  0  0  0  0  0  0  0
   56.3440   21.0990   44.2670 C   0  0  0  0  0  0  0  0  0  0  0  0
   55.9050   21.7940   43.1040 O   0  0  0  0  0  0  0  0  0  0  0  0
   56.1110   23.1980   43.1630 C   0  0  0  0  0  0  0  0  0  0  0  0
   57.3940   23.5930   43.9150 C   0  0  0  0  0  0  0  0  0  0  0  0
   57.6810   26.8110   45.3270 C   0  0  0  0  0  0  0  0  0  0  0  0
   58.7840   31.7690   48.5290 C   0  0  0  0  0  0  0  0  0  0  0  0
   59.1980   30.3140   48.7670 C   0  0  0  0  0  0  0  0  0  0  0  0
   60.6919   26.8380   51.3758 H   0  0  0  0  0  0  0  0  0  0  0  0
   60.0808   25.6641   50.1612 H   0  0  0  0  0  0  0  0  0  0  0  0
   61.8140   26.1362   50.1612 H   0  0  0  0  0  0  0  0  0  0  0  0
   60.9709   27.4545   48.4199 H   0  0  0  0  0  0  0  0  0  0  0  0
   59.3847   27.6974   49.2433 H   0  0  0  0  0  0  0  0  0  0  0  0
   60.8306   31.9571   50.5888 H   0  0  0  0  0  0  0  0  0  0  0  0
   62.3152   31.1556   49.9504 H   0  0  0  0  0  0  0  0  0  0  0  0
   61.6448   33.3542   48.8146 H   0  0  0  0  0  0  0  0  0  0  0  0
   61.8960   31.9250   47.7308 H   0  0  0  0  0  0  0  0  0  0  0  0
   60.6816   35.0771   47.9630 H   0  0  0  0  0  0  0  0  0  0  0  0
   60.2865   36.7479   46.1562 H   0  0  0  0  0  0  0  0  0  0  0  0
   59.0792   36.0795   44.0783 H   0  0  0  0  0  0  0  0  0  0  0  0
   58.2593   33.7418   43.8029 H   0  0  0  0  0  0  0  0  0  0  0  0
   59.1870   30.9620   45.9100 H   0  0  0  0  0  0  0  0  0  0  0  0
   60.4302   28.8440   45.4600 H   0  0  0  0  0  0  0  0  0  0  0  0
   61.2765   26.9322   46.8214 H   0  0  0  0  0  0  0  0  0  0  0  0
   59.8178   24.9517   47.2426 H   0  0  0  0  0  0  0  0  0  0  0  0
   56.7956   21.3635   46.3670 H   0  0  0  0  0  0  0  0  0  0  0  0
   55.4610   22.4059   45.7415 H   0  0  0  0  0  0  0  0  0  0  0  0
   57.3360   20.6714   44.0596 H   0  0  0  0  0  0  0  0  0  0  0  0
   55.5860   20.3314   44.4820 H   0  0  0  0  0  0  0  0  0  0  0  0
   56.1752   23.5851   42.1354 H   0  0  0  0  0  0  0  0  0  0  0  0
   55.2632   23.6291   43.7156 H   0  0  0  0  0  0  0  0  0  0  0  0
   58.2607   23.1799   43.3781 H   0  0  0  0  0  0  0  0  0  0  0  0
   57.4358   24.6914   43.9577 H   0  0  0  0  0  0  0  0  0  0  0  0
   56.6613   26.7806   44.9155 H   0  0  0  0  0  0  0  0  0  0  0  0
   58.4772   32.2209   49.4838 H   0  0  0  0  0  0  0  0  0  0  0  0
   57.9457   31.7931   47.8172 H   0  0  0  0  0  0  0  0  0  0  0  0
   58.4340   29.8246   49.3888 H   0  0  0  0  0  0  0  0  0  0  0  0
   59.2888   29.8220   47.7873 H   0  0  0  0  0  0  0  0  0  0  0  0
  1  2  1  0
  2  3  1  0
  3  4  2  0
  3  5  1  0
  5  6  1  0
  6  7  1  0
  7  8  1  0
  8  9  1  0
  9 10  2  0
 10 11  1  0
 11 12  2  0
 12 13  1  0
 13 14  2  0
 14 15  1  0
 15 16  1  0
 16 17  2  0
 16 18  1  0
 18 19  2  0
 18 20  1  0
 20 21  1  0
 21 22  2  0
 22 23  1  0
 23 24  2  0
 24 25  1  0
 25 26  1  0
 26 27  2  0
 26 28  2  0
 26 29  1  0
 29 30  1  0
 30 31  1  0
 31 32  1  0
 32 33  1  0
 33 34  1  0
 25 35  2  0
  8 36  1  0
 36 37  1  0
 37  5  1  0
 14  9  1  0
 35 21  1  0
 34 29  1  0
  1 38  1  0
  1 39  1  0
  1 40  1  0
  2 41  1  0
  2 42  1  0
  6 43  1  0
  6 44  1  0
  7 45  1  0
  7 46  1  0
 10 47  1  0
 11 48  1  0
 12 49  1  0
 13 50  1  0
 15 51  1  0
 22 52  1  0
 23 53  1  0
 24 54  1  0
 30 55  1  0
 30 56  1  0
 31 57  1  0
 31 58  1  0
 33 59  1  0
 33 60  1  0
 34 61  1  0
 34 62  1  0
 35 63  1  0
 36 64  1  0
 36 65  1  0
 37 66  1  0
 37 67  1  0
M  CHG  1  20  -1
M  END
>  <UniqueID>  (67) 
60

>  <SMILES>  (67) 
CCC(=O)N1CCN(c2ccccc2NC(=O)C(=O)[N-]c2cccc(S(=O)(=O)N3CCOCC3)c2)CC1

>  <Energy>  (67) 
91.82907797719626

>  <Genealogy>  (67) 
CCC(=O)N1CCN(c2ccccc2NC(=O)C(=O)[N-]c2cccc(S(=O)(=O)N3CCOCC3)c2)CC1 (protonated)
CCC(=O)N1CCN(c2ccccc2NC(=O)C(=O)[N-]c2cccc(S(=O)(=O)N3CCOCC3)c2)CC1 (3D coordinates assigned)
CCC(=O)N1CCN(c2ccccc2NC(=O)C(=O)[N-]c2cccc(S(=O)(=O)N3CCOCC3)c2)CC1 (nonaromatic ring conformer: 91.82907797719626 kcal/mol)

>  <smiles>  (67) 
CCC(=O)N1CCN(c2ccccc2NC(=O)C(=O)Nc2cccc(S(=O)(=O)N3CCOCC3)c2)CC1

>  <score_type>  (67) 
oracle

>  <origin>  (67) 
adg

>  <m_score__min__energy>  (67) 
-11.550000000000001

>  <m_primary>  (67) 
energy

$$$$
68:0
     RDKit          3D

 72 75  0  0  0  0  0  0  0  0999 V2000
   60.7540   27.8050   45.6960 C   0  0  0  0  0  0  0  0  0  0  0  0
   59.8130   27.6630   46.6370 C   0  0  0  0  0  0  0  0  0  0  0  0
   59.9650   28.3160   47.9640 C   0  0  0  0  0  0  0  0  0  0  0  0
   59.1450   28.0610   48.8890 O   0  0  0  0  0  0  0  0  0  0  0  0
   61.0360   29.2380   48.2050 N   0  0  0  0  0  0  0  0  0  0  0  0
   61.3300   29.7510   49.5420 C   0  0  0  0  0  0  0  0  0  0  0  0
   60.5720   31.0360   49.7890 C   0  0  0  0  0  0  0  0  0  0  0  0
   59.2850   30.9270   50.3490 C   0  0  0  0  0  0  0  0  0  0  0  0
   58.5550   32.0650   50.6890 C   0  0  0  0  0  0  0  0  0  0  0  0
   59.1030   33.3300   50.4900 C   0  0  0  0  0  0  0  0  0  0  0  0
   60.3810   33.4610   49.9460 C   0  0  0  0  0  0  0  0  0  0  0  0
   61.1310   32.3280   49.5830 C   0  0  0  0  0  0  0  0  0  0  0  0
   62.5250   32.5500   49.0430 C   0  0  0  0  0  0  0  0  0  0  0  0
   62.6080   32.2870   47.2710 S   0  0  0  0  0  0  0  0  0  0  0  0
   62.8200   33.8120   46.3700 C   0  0  0  0  0  0  0  0  0  0  0  0
   61.3290   31.6440   46.8200 O   0  0  0  0  0  0  0  0  0  0  0  0
   63.7490   31.3620   46.9560 O   0  0  0  0  0  0  0  0  0  0  0  0
   58.6690   26.7530   46.3790 C   0  0  0  0  0  0  0  0  0  0  0  0
   58.9080   25.3720   46.4810 C   0  0  0  0  0  0  0  0  0  0  0  0
   57.8660   24.4570   46.3590 C   0  0  0  0  0  0  0  0  0  0  0  0
   56.5660   24.9050   46.1620 C   0  0  0  0  0  0  0  0  0  0  0  0
   56.2950   26.2710   46.0720 C   0  0  0  0  0  0  0  0  0  0  0  0
   54.9720   26.6760   45.9420 O   0  0  0  0  0  0  0  0  0  0  0  0
   57.3430   27.2210   46.1360 C   0  0  0  0  0  0  0  0  0  0  0  0
   57.0160   28.7050   45.9970 C   0  0  0  0  0  0  0  0  0  0  0  0
   57.5620   29.3480   44.7780 N   0  0  0  0  0  0  0  0  0  0  0  0
   56.6060   30.0880   43.9330 C   0  0  0  0  0  0  0  0  0  0  0  0
   56.6410   31.6130   44.1650 C   0  0  0  0  0  0  0  0  0  0  0  0
   57.4640   31.9530   45.3460 N   0  0  0  0  0  0  0  0  0  0  0  0
   57.4180   33.3840   45.7610 C   0  0  0  0  0  0  0  0  0  0  0  0
   57.9540   33.6630   47.1750 C   0  0  0  0  0  0  0  0  0  0  0  0
   59.3200   34.3020   46.9890 C   0  0  0  0  0  0  0  0  0  0  0  0
   59.2580   35.0250   45.6550 C   0  0  0  0  0  0  0  0  0  0  0  0
   58.2270   34.2850   44.8100 C   0  0  0  0  0  0  0  0  0  0  0  0
   58.8500   31.4820   45.1560 C   0  0  0  0  0  0  0  0  0  0  0  0
   58.8990   29.9630   44.8850 C   0  0  0  0  0  0  0  0  0  0  0  0
   60.6314   27.3175   44.7176 H   0  0  0  0  0  0  0  0  0  0  0  0
   61.6500   28.4092   45.9010 H   0  0  0  0  0  0  0  0  0  0  0  0
   61.6300   29.5490   47.4030 H   0  0  0  0  0  0  0  0  0  0  0  0
   61.0310   29.0034   50.2915 H   0  0  0  0  0  0  0  0  0  0  0  0
   62.4089   29.9512   49.6194 H   0  0  0  0  0  0  0  0  0  0  0  0
   58.8499   29.9314   50.5205 H   0  0  0  0  0  0  0  0  0  0  0  0
   57.5457   31.9639   51.1146 H   0  0  0  0  0  0  0  0  0  0  0  0
   58.5273   34.2270   50.7621 H   0  0  0  0  0  0  0  0  0  0  0  0
   60.8078   34.4641   49.7990 H   0  0  0  0  0  0  0  0  0  0  0  0
   62.8310   33.5833   49.2635 H   0  0  0  0  0  0  0  0  0  0  0  0
   63.1963   31.8249   49.5262 H   0  0  0  0  0  0  0  0  0  0  0  0
   62.9357   34.6443   47.0799 H   0  0  0  0  0  0  0  0  0  0  0  0
   63.7171   33.7424   45.7373 H   0  0  0  0  0  0  0  0  0  0  0  0
   61.9379   33.9897   45.7373 H   0  0  0  0  0  0  0  0  0  0  0  0
   59.9311   25.0095   46.6594 H   0  0  0  0  0  0  0  0  0  0  0  0
   58.0723   23.3782   46.4187 H   0  0  0  0  0  0  0  0  0  0  0  0
   55.7447   24.1782   46.0764 H   0  0  0  0  0  0  0  0  0  0  0  0
   55.9216   28.8147   45.9814 H   0  0  0  0  0  0  0  0  0  0  0  0
   57.4892   29.2089   46.8526 H   0  0  0  0  0  0  0  0  0  0  0  0
   56.8460   29.8896   42.8780 H   0  0  0  0  0  0  0  0  0  0  0  0
   55.5972   29.7405   44.2006 H   0  0  0  0  0  0  0  0  0  0  0  0
   57.0678   32.1018   43.2768 H   0  0  0  0  0  0  0  0  0  0  0  0
   55.6134   31.9631   44.3426 H   0  0  0  0  0  0  0  0  0  0  0  0
   56.3426   33.6138   45.7331 H   0  0  0  0  0  0  0  0  0  0  0  0
   57.2811   34.3493   47.7099 H   0  0  0  0  0  0  0  0  0  0  0  0
   58.0196   32.7398   47.7695 H   0  0  0  0  0  0  0  0  0  0  0  0
   59.5240   35.0143   47.8020 H   0  0  0  0  0  0  0  0  0  0  0  0
   60.1246   33.5521   47.0070 H   0  0  0  0  0  0  0  0  0  0  0  0
   58.9486   36.0702   45.8031 H   0  0  0  0  0  0  0  0  0  0  0  0
   60.2416   35.0371   45.1626 H   0  0  0  0  0  0  0  0  0  0  0  0
   57.5592   35.0052   44.3147 H   0  0  0  0  0  0  0  0  0  0  0  0
   58.7199   33.6855   44.0305 H   0  0  0  0  0  0  0  0  0  0  0  0
   59.2936   32.0123   44.3004 H   0  0  0  0  0  0  0  0  0  0  0  0
   59.4136   31.6865   46.0783 H   0  0  0  0  0  0  0  0  0  0  0  0
   59.4383   29.7935   43.9414 H   0  0  0  0  0  0  0  0  0  0  0  0
   59.4066   29.4945   45.7411 H   0  0  0  0  0  0  0  0  0  0  0  0
  1  2  2  0
  2  3  1  0
  3  4  2  0
  3  5  1  0
  5  6  1  0
  6  7  1  0
  7  8  2  0
  8  9  1  0
  9 10  2  0
 10 11  1  0
 11 12  2  0
 12 13  1  0
 13 14  1  0
 14 15  1  0
 14 16  2  0
 14 17  2  0
  2 18  1  0
 18 19  2  0
 19 20  1  0
 20 21  2  0
 21 22  1  0
 22 23  1  0
 22 24  2  0
 24 25  1  0
 25 26  1  0
 26 27  1  0
 27 28  1  0
 28 29  1  0
 29 30  1  0
 30 31  1  0
 31 32  1  0
 32 33  1  0
 33 34  1  0
 29 35  1  0
 35 36  1  0
 12  7  1  0
 24 18  1  0
 36 26  1  0
 34 30  1  0
  1 37  1  0
  1 38  1  0
  5 39  1  0
  6 40  1  0
  6 41  1  0
  8 42  1  0
  9 43  1  0
 10 44  1  0
 11 45  1  0
 13 46  1  0
 13 47  1  0
 15 48  1  0
 15 49  1  0
 15 50  1  0
 19 51  1  0
 20 52  1  0
 21 53  1  0
 25 54  1  0
 25 55  1  0
 27 56  1  0
 27 57  1  0
 28 58  1  0
 28 59  1  0
 30 60  1  0
 31 61  1  0
 31 62  1  0
 32 63  1  0
 32 64  1  0
 33 65  1  0
 33 66  1  0
 34 67  1  0
 34 68  1  0
 35 69  1  0
 35 70  1  0
 36 71  1  0
 36 72  1  0
M  CHG  1  23  -1
M  END
>  <UniqueID>  (68) 
61

>  <SMILES>  (68) 
C=C(C(=O)NCc1ccccc1CS(C)(=O)=O)c1cccc([O-])c1CN1CCN(C2CCCC2)CC1

>  <Energy>  (68) 
93.82538531225543

>  <Genealogy>  (68) 
C=C(C(=O)NCc1ccccc1CS(C)(=O)=O)c1cccc([O-])c1CN1CCN(C2CCCC2)CC1 (protonated)
C=C(C(=O)NCc1ccccc1CS(C)(=O)=O)c1cccc([O-])c1CN1CCN(C2CCCC2)CC1 (3D coordinates assigned)
C=C(C(=O)NCc1ccccc1CS(C)(=O)=O)c1cccc([O-])c1CN1CCN(C2CCCC2)CC1 (nonaromatic ring conformer: 93.82538531225543 kcal/mol)

>  <smiles>  (68) 
C=C(C(=O)NCc1ccccc1CS(C)(=O)=O)c1cccc(O)c1CN1CCN(C2CCCC2)CC1

>  <score_type>  (68) 
oracle

>  <origin>  (68) 
adg

>  <m_score__min__energy>  (68) 
-14.779999999999999

>  <m_primary>  (68) 
energy

$$$$
69:0
     RDKit          3D

 43 45  0  0  0  0  0  0  0  0999 V2000
   58.1290   27.9020   43.8190 C   0  0  0  0  0  0  0  0  0  0  0  0
   57.3660   28.9550   43.5300 C   0  0  0  0  0  0  0  0  0  0  0  0
   56.7060   29.7680   44.5780 C   0  0  0  0  0  0  0  0  0  0  0  0
   55.4990   29.5350   44.8680 O   0  0  0  0  0  0  0  0  0  0  0  0
   57.4120   30.8240   45.2710 N   0  0  0  0  0  0  0  0  0  0  0  0
   58.4310   30.4590   46.2680 C   0  0  0  0  0  0  0  0  0  0  0  0
   58.5810   31.5460   47.3300 C   0  0  0  0  0  0  0  0  0  0  0  0
   58.8700   32.8760   46.6830 C   0  0  0  0  0  0  0  0  0  0  0  0
   59.7100   33.8470   47.2840 C   0  0  0  0  0  0  0  0  0  0  0  0
   60.3770   33.6270   48.6250 C   0  0  0  0  0  0  0  0  0  0  0  0
   61.4250   32.6820   48.5180 O   0  0  0  0  0  0  0  0  0  0  0  0
   62.6700   33.3350   48.3900 C   0  0  0  0  0  0  0  0  0  0  0  0
   63.6480   32.6850   49.3230 C   0  0  0  0  0  0  0  0  0  0  0  0
   64.9850   33.1070   49.3630 C   0  0  0  0  0  0  0  0  0  0  0  0
   65.8830   32.4600   50.2130 C   0  0  0  0  0  0  0  0  0  0  0  0
   65.4480   31.3980   51.0040 C   0  0  0  0  0  0  0  0  0  0  0  0
   64.1140   30.9930   50.9310 C   0  0  0  0  0  0  0  0  0  0  0  0
   63.2480   31.6330   50.0980 N   0  0  0  0  0  0  0  0  0  0  0  0
   59.9080   35.0690   46.6210 C   0  0  0  0  0  0  0  0  0  0  0  0
   59.2810   35.3240   45.4450 N   0  0  0  0  0  0  0  0  0  0  0  0
   58.4500   34.4210   44.8660 C   0  0  0  0  0  0  0  0  0  0  0  0
   58.2250   33.1770   45.4690 C   0  0  0  0  0  0  0  0  0  0  0  0
   57.2230   32.2270   44.8560 C   0  0  0  0  0  0  0  0  0  0  0  0
   58.6006   27.3257   43.0094 H   0  0  0  0  0  0  0  0  0  0  0  0
   58.2875   27.6088   44.8673 H   0  0  0  0  0  0  0  0  0  0  0  0
   57.2207   29.2309   42.4751 H   0  0  0  0  0  0  0  0  0  0  0  0
   58.1342   29.5191   46.7564 H   0  0  0  0  0  0  0  0  0  0  0  0
   59.3955   30.3413   45.7523 H   0  0  0  0  0  0  0  0  0  0  0  0
   57.6480   31.6192   47.9081 H   0  0  0  0  0  0  0  0  0  0  0  0
   59.4174   31.2830   47.9942 H   0  0  0  0  0  0  0  0  0  0  0  0
   60.7883   34.5820   48.9838 H   0  0  0  0  0  0  0  0  0  0  0  0
   59.6272   33.2422   49.3319 H   0  0  0  0  0  0  0  0  0  0  0  0
   63.0304   33.2465   47.3545 H   0  0  0  0  0  0  0  0  0  0  0  0
   62.5633   34.4010   48.6396 H   0  0  0  0  0  0  0  0  0  0  0  0
   65.3228   33.9407   48.7299 H   0  0  0  0  0  0  0  0  0  0  0  0
   66.9321   32.7875   50.2587 H   0  0  0  0  0  0  0  0  0  0  0  0
   66.1486   30.8843   51.6788 H   0  0  0  0  0  0  0  0  0  0  0  0
   63.7614   30.1539   51.5487 H   0  0  0  0  0  0  0  0  0  0  0  0
   62.2570   31.3030   50.0550 H   0  0  0  0  0  0  0  0  0  0  0  0
   60.5765   35.8252   47.0583 H   0  0  0  0  0  0  0  0  0  0  0  0
   57.9502   34.6674   43.9176 H   0  0  0  0  0  0  0  0  0  0  0  0
   56.2134   32.5455   45.1547 H   0  0  0  0  0  0  0  0  0  0  0  0
   57.3668   32.2642   43.7661 H   0  0  0  0  0  0  0  0  0  0  0  0
  1  2  2  0
  2  3  1  0
  3  4  2  0
  3  5  1  0
  5  6  1  0
  6  7  1  0
  7  8  1  0
  8  9  2  0
  9 10  1  0
 10 11  1  0
 11 12  1  0
 12 13  1  0
 13 14  2  0
 14 15  1  0
 15 16  2  0
 16 17  1  0
 17 18  2  0
  9 19  1  0
 19 20  2  0
 20 21  1  0
 21 22  2  0
 22 23  1  0
 23  5  1  0
 22  8  1  0
 18 13  1  0
  1 24  1  0
  1 25  1  0
  2 26  1  0
  6 27  1  0
  6 28  1  0
  7 29  1  0
  7 30  1  0
 10 31  1  0
 10 32  1  0
 12 33  1  0
 12 34  1  0
 14 35  1  0
 15 36  1  0
 16 37  1  0
 17 38  1  0
 18 39  1  0
 19 40  1  0
 21 41  1  0
 23 42  1  0
 23 43  1  0
M  CHG  1  18   1
M  END
>  <UniqueID>  (69) 
62

>  <SMILES>  (69) 
C=CC(=O)N1CCc2c(COCc3cccc[nH+]3)cncc2C1

>  <Energy>  (69) 
49.89232438663472

>  <Genealogy>  (69) 
C=CC(=O)N1CCc2c(COCc3cccc[nH+]3)cncc2C1 (protonated)
C=CC(=O)N1CCc2c(COCc3cccc[nH+]3)cncc2C1 (3D coordinates assigned)
C=CC(=O)N1CCc2c(COCc3cccc[nH+]3)cncc2C1 (nonaromatic ring conformer: 49.89232438663472 kcal/mol)

>  <smiles>  (69) 
C=CC(=O)N1CCc2c(COCc3ccccn3)cncc2C1

>  <score_type>  (69) 
oracle

>  <origin>  (69) 
adg

>  <m_score__min__energy>  (69) 
-6.0999999999999996

>  <m_primary>  (69) 
energy

$$$$
70:0
     RDKit          3D

 52 55  0  0  0  0  0  0  0  0999 V2000
   60.5440   26.6040   46.2830 O   0  0  0  0  0  0  0  0  0  0  0  0
   59.8740   27.5910   46.6950 C   0  0  0  0  0  0  0  0  0  0  0  0
   60.4620   28.5290   47.6070 N   0  0  0  0  0  0  0  0  0  0  0  0
   60.2880   28.5630   49.0330 C   0  0  0  0  0  0  0  0  0  0  0  0
   61.0960   27.7900   49.8830 C   0  0  0  0  0  0  0  0  0  0  0  0
   60.8990   27.8190   51.2640 C   0  0  0  0  0  0  0  0  0  0  0  0
   61.9110   26.8440   52.3140 Cl  0  0  0  0  0  0  0  0  0  0  0  0
   59.8840   28.6050   51.8100 C   0  0  0  0  0  0  0  0  0  0  0  0
   59.0450   29.3700   50.9800 C   0  0  0  0  0  0  0  0  0  0  0  0
   57.9490   30.1770   51.5750 C   0  0  0  0  0  0  0  0  0  0  0  0
   57.8740   31.5630   51.3780 C   0  0  0  0  0  0  0  0  0  0  0  0
   56.8260   32.2650   51.9680 C   0  0  0  0  0  0  0  0  0  0  0  0
   55.9040   31.6060   52.7130 N   0  0  0  0  0  0  0  0  0  0  0  0
   55.9780   30.2640   52.9010 C   0  0  0  0  0  0  0  0  0  0  0  0
   55.0970   29.6260   53.6130 N   0  0  0  0  0  0  0  0  0  0  0  0
   53.6840   29.3310   53.3260 C   0  0  1  0  0  0  0  0  0  0  0  0
   52.6970   30.1950   54.1500 C   0  0  0  0  0  0  0  0  0  0  0  0
   52.1450   31.4270   53.4200 C   0  0  0  0  0  0  0  0  0  0  0  0
   51.6530   31.0750   52.0100 C   0  0  1  0  0  0  0  0  0  0  0  0
   51.0840   32.2940   51.3390 C   0  0  0  0  0  0  0  0  0  0  0  0
   51.0130   32.3490   50.0820 O   0  0  0  0  0  0  0  0  0  0  0  0
   50.6320   33.3680   52.0970 O   0  0  0  0  0  0  0  0  0  0  0  0
   52.7970   30.4920   51.1720 C   0  0  0  0  0  0  0  0  0  0  0  0
   53.3750   29.2220   51.8120 C   0  0  0  0  0  0  0  0  0  0  0  0
   56.9960   29.5660   52.3320 N   0  0  0  0  0  0  0  0  0  0  0  0
   59.2480   29.3420   49.5820 C   0  0  0  0  0  0  0  0  0  0  0  0
   58.4260   30.1080   48.7500 O   0  0  0  0  0  0  0  0  0  0  0  0
   58.4970   27.8100   46.1920 C   0  0  0  0  0  0  0  0  0  0  0  0
   58.1600   29.0060   45.5340 C   0  0  0  0  0  0  0  0  0  0  0  0
   56.8570   29.1940   45.0670 C   0  0  0  0  0  0  0  0  0  0  0  0
   55.9200   28.2260   45.2450 N   0  0  0  0  0  0  0  0  0  0  0  0
   56.2140   27.0590   45.8770 C   0  0  0  0  0  0  0  0  0  0  0  0
   55.3190   26.1860   46.0240 O   0  0  0  0  0  0  0  0  0  0  0  0
   57.5050   26.8280   46.3620 C   0  0  0  0  0  0  0  0  0  0  0  0
   61.8891   27.1578   49.4572 H   0  0  0  0  0  0  0  0  0  0  0  0
   59.7385   28.6266   52.9001 H   0  0  0  0  0  0  0  0  0  0  0  0
   58.6274   32.0852   50.7700 H   0  0  0  0  0  0  0  0  0  0  0  0
   56.7460   33.3534   51.8299 H   0  0  0  0  0  0  0  0  0  0  0  0
   53.5010   28.3118   53.6971 H   0  0  0  0  0  0  0  0  0  0  0  0
   51.8463   29.5598   54.4379 H   0  0  0  0  0  0  0  0  0  0  0  0
   53.2679   30.5778   55.0088 H   0  0  0  0  0  0  0  0  0  0  0  0
   51.3049   31.8382   53.9989 H   0  0  0  0  0  0  0  0  0  0  0  0
   52.9563   32.1640   53.3272 H   0  0  0  0  0  0  0  0  0  0  0  0
   50.8614   30.3159   52.0950 H   0  0  0  0  0  0  0  0  0  0  0  0
   52.4159   30.2453   50.1700 H   0  0  0  0  0  0  0  0  0  0  0  0
   53.5983   31.2433   51.1132 H   0  0  0  0  0  0  0  0  0  0  0  0
   52.6487   28.4082   51.6702 H   0  0  0  0  0  0  0  0  0  0  0  0
   54.3393   29.0403   51.3150 H   0  0  0  0  0  0  0  0  0  0  0  0
   58.5330   30.1300   47.7440 H   0  0  0  0  0  0  0  0  0  0  0  0
   58.9183   29.7893   45.3878 H   0  0  0  0  0  0  0  0  0  0  0  0
   56.5884   30.1289   44.5534 H   0  0  0  0  0  0  0  0  0  0  0  0
   57.7432   25.8837   46.8735 H   0  0  0  0  0  0  0  0  0  0  0  0
  1  2  2  0
  2  3  1  0
  3  4  1  0
  4  5  2  0
  5  6  1  0
  6  7  1  0
  6  8  2  0
  8  9  1  0
  9 10  1  0
 10 11  2  0
 11 12  1  0
 12 13  2  0
 13 14  1  0
 14 15  2  3
 15 16  1  0
 16 17  1  0
 17 18  1  0
 18 19  1  0
 19 20  1  0
 20 21  2  0
 20 22  1  0
 19 23  1  0
 23 24  1  0
 14 25  1  0
  9 26  2  0
 26 27  1  0
  2 28  1  0
 28 29  1  0
 29 30  2  0
 30 31  1  0
 31 32  1  0
 32 33  2  0
 32 34  1  0
 26  4  1  0
 34 28  2  0
 25 10  1  0
 24 16  1  0
  5 35  1  0
  8 36  1  0
 11 37  1  0
 12 38  1  0
 16 39  1  1
 17 40  1  0
 17 41  1  0
 18 42  1  0
 18 43  1  0
 19 44  1  1
 23 45  1  0
 23 46  1  0
 24 47  1  0
 24 48  1  0
 27 49  1  0
 29 50  1  0
 30 51  1  0
 34 52  1  0
M  CHG  4   3  -1  22  -1  25  -1  31  -1
M  END
>  <UniqueID>  (70) 
63

>  <SMILES>  (70) 
O=C([N-]c1cc(Cl)cc(-c2ccnc(=NC3CCC(C(=O)[O-])CC3)[n-]2)c1O)c1cc[n-]c(=O)c1

>  <Energy>  (70) 
71.4730705142868

>  <Genealogy>  (70) 
O=C([N-]c1cc(Cl)cc(-c2ccnc(=NC3CCC(C(=O)[O-])CC3)[n-]2)c1O)c1cc[n-]c(=O)c1 (protonated)
O=C([N-]c1cc(Cl)cc(-c2ccnc(=NC3CCC(C(=O)[O-])CC3)[n-]2)c1O)c1cc[n-]c(=O)c1 (3D coordinates assigned)
O=C([N-]c1cc(Cl)cc(-c2ccnc(=NC3CCC(C(=O)[O-])CC3)[n-]2)c1O)c1cc[n-]c(=O)c1 (nonaromatic ring conformer: 71.4730705142868 kcal/mol)

>  <smiles>  (70) 
O=C(Nc1cc(Cl)cc(-c2ccnc(=NC3CCC(C(=O)O)CC3)[nH]2)c1O)c1cc[nH]c(=O)c1

>  <score_type>  (70) 
oracle

>  <origin>  (70) 
adg

>  <m_score__min__energy>  (70) 
-16.890000000000001

>  <m_primary>  (70) 
energy

$$$$
71:0
     RDKit          3D

 69 72  0  0  0  0  0  0  0  0999 V2000
   57.7730   31.8890   53.0170 C   0  0  0  0  0  0  0  0  0  0  0  0
   58.7070   30.7370   52.7950 C   0  0  0  0  0  0  0  0  0  0  0  0
   58.9260   29.9430   53.7540 O   0  0  0  0  0  0  0  0  0  0  0  0
   59.3430   30.5090   51.5180 N   0  0  0  0  0  0  0  0  0  0  0  0
   60.5240   29.6310   51.4700 C   0  0  0  0  0  0  0  0  0  0  0  0
   61.1530   29.6040   50.0730 C   0  0  0  0  0  0  0  0  0  0  0  0
   60.1040   29.4030   49.0660 N   0  0  0  0  0  0  0  0  0  0  0  0
   60.1150   28.2230   48.2360 C   0  0  0  0  0  0  0  0  0  0  0  0
   60.6780   27.1720   48.6500 O   0  0  0  0  0  0  0  0  0  0  0  0
   59.4430   28.1970   46.9190 C   0  0  0  0  0  0  0  0  0  0  0  0
   58.1160   27.7480   46.8170 C   0  0  0  0  0  0  0  0  0  0  0  0
   57.4660   27.7430   45.5810 C   0  0  0  0  0  0  0  0  0  0  0  0
   58.1270   28.1820   44.4290 C   0  0  0  0  0  0  0  0  0  0  0  0
   57.4140   28.1940   43.2210 O   0  0  0  0  0  0  0  0  0  0  0  0
   56.6430   29.2940   42.7490 C   0  0  0  0  0  0  0  0  0  0  0  0
   56.8340   30.4590   43.6650 C   0  0  0  0  0  0  0  0  0  0  0  0
   55.9310   30.7490   44.5000 O   0  0  0  0  0  0  0  0  0  0  0  0
   58.0180   31.2630   43.5690 N   0  0  0  0  0  0  0  0  0  0  0  0
   58.4070   32.1960   44.6300 C   0  0  0  0  0  0  0  0  0  0  0  0
   57.6250   33.5180   44.4790 C   0  0  0  0  0  0  0  0  0  0  0  0
   57.3280   34.1990   45.8320 C   0  0  0  0  0  0  0  0  0  0  0  0
   58.3920   33.9750   46.8360 N   0  0  0  0  0  0  0  0  0  0  0  0
   59.6420   34.7060   46.5300 C   0  0  0  0  0  0  0  0  0  0  0  0
   60.8070   34.1120   47.2790 C   0  0  0  0  0  0  0  0  0  0  0  0
   60.8570   34.1950   48.6790 C   0  0  0  0  0  0  0  0  0  0  0  0
   61.9580   33.6870   49.3740 C   0  0  0  0  0  0  0  0  0  0  0  0
   63.0160   33.1010   48.6780 C   0  0  0  0  0  0  0  0  0  0  0  0
   62.9720   33.0120   47.2840 C   0  0  0  0  0  0  0  0  0  0  0  0
   61.8710   33.5120   46.5850 C   0  0  0  0  0  0  0  0  0  0  0  0
   58.6180   32.5330   47.1320 C   0  0  0  0  0  0  0  0  0  0  0  0
   58.1630   31.5760   46.0090 C   0  0  0  0  0  0  0  0  0  0  0  0
   59.4690   28.5940   44.5200 C   0  0  0  0  0  0  0  0  0  0  0  0
   60.1240   28.5930   45.7570 C   0  0  0  0  0  0  0  0  0  0  0  0
   58.9050   30.2600   49.0970 C   0  0  0  0  0  0  0  0  0  0  0  0
   58.9080   31.2150   50.3010 C   0  0  0  0  0  0  0  0  0  0  0  0
   57.6413   32.0514   54.0969 H   0  0  0  0  0  0  0  0  0  0  0  0
   58.1939   32.7959   52.5584 H   0  0  0  0  0  0  0  0  0  0  0  0
   56.7986   31.6647   52.5584 H   0  0  0  0  0  0  0  0  0  0  0  0
   61.2704   29.9976   52.1901 H   0  0  0  0  0  0  0  0  0  0  0  0
   60.2026   28.6095   51.7214 H   0  0  0  0  0  0  0  0  0  0  0  0
   61.6649   30.5590   49.8832 H   0  0  0  0  0  0  0  0  0  0  0  0
   61.8791   28.7798   50.0145 H   0  0  0  0  0  0  0  0  0  0  0  0
   57.5860   27.3985   47.7153 H   0  0  0  0  0  0  0  0  0  0  0  0
   56.4260   27.3911   45.5128 H   0  0  0  0  0  0  0  0  0  0  0  0
   56.9723   29.5656   41.7352 H   0  0  0  0  0  0  0  0  0  0  0  0
   55.5793   29.0151   42.7239 H   0  0  0  0  0  0  0  0  0  0  0  0
   58.7130   31.0370   42.8180 H   0  0  0  0  0  0  0  0  0  0  0  0
   59.4823   32.4095   44.5393 H   0  0  0  0  0  0  0  0  0  0  0  0
   58.2187   34.2082   43.8616 H   0  0  0  0  0  0  0  0  0  0  0  0
   56.6587   33.2780   44.0115 H   0  0  0  0  0  0  0  0  0  0  0  0
   57.2254   35.2814   45.6650 H   0  0  0  0  0  0  0  0  0  0  0  0
   56.4023   33.7561   46.2280 H   0  0  0  0  0  0  0  0  0  0  0  0
   59.8396   34.6458   45.4496 H   0  0  0  0  0  0  0  0  0  0  0  0
   59.5218   35.7546   46.8397 H   0  0  0  0  0  0  0  0  0  0  0  0
   60.0274   34.6611   49.2308 H   0  0  0  0  0  0  0  0  0  0  0  0
   61.9906   33.7492   50.4718 H   0  0  0  0  0  0  0  0  0  0  0  0
   63.8850   32.7090   49.2268 H   0  0  0  0  0  0  0  0  0  0  0  0
   63.8055   32.5476   46.7366 H   0  0  0  0  0  0  0  0  0  0  0  0
   61.8369   33.4358   45.4882 H   0  0  0  0  0  0  0  0  0  0  0  0
   59.6943   32.3802   47.3001 H   0  0  0  0  0  0  0  0  0  0  0  0
   58.0095   32.2934   48.0165 H   0  0  0  0  0  0  0  0  0  0  0  0
   58.7284   30.6356   46.0862 H   0  0  0  0  0  0  0  0  0  0  0  0
   57.0854   31.3871   46.1236 H   0  0  0  0  0  0  0  0  0  0  0  0
   60.0054   28.9180   43.6160 H   0  0  0  0  0  0  0  0  0  0  0  0
   61.1773   28.9040   45.8189 H   0  0  0  0  0  0  0  0  0  0  0  0
   58.8703   30.8550   48.1724 H   0  0  0  0  0  0  0  0  0  0  0  0
   58.0241   29.6071   49.1847 H   0  0  0  0  0  0  0  0  0  0  0  0
   59.5971   32.0486   50.1002 H   0  0  0  0  0  0  0  0  0  0  0  0
   57.8876   31.5955   50.4559 H   0  0  0  0  0  0  0  0  0  0  0  0
  1  2  1  0
  2  3  2  0
  2  4  1  0
  4  5  1  0
  5  6  1  0
  6  7  1  0
  7  8  1  0
  8  9  2  0
  8 10  1  0
 10 11  2  0
 11 12  1  0
 12 13  2  0
 13 14  1  0
 14 15  1  0
 15 16  1  0
 16 17  2  0
 16 18  1  0
 18 19  1  0
 19 20  1  0
 20 21  1  0
 21 22  1  0
 22 23  1  0
 23 24  1  0
 24 25  2  0
 25 26  1  0
 26 27  2  0
 27 28  1  0
 28 29  2  0
 22 30  1  0
 30 31  1  0
 13 32  1  0
 32 33  2  0
  7 34  1  0
 34 35  1  0
 35  4  1  0
 33 10  1  0
 31 19  1  0
 29 24  1  0
  1 36  1  0
  1 37  1  0
  1 38  1  0
  5 39  1  0
  5 40  1  0
  6 41  1  0
  6 42  1  0
 11 43  1  0
 12 44  1  0
 15 45  1  0
 15 46  1  0
 18 47  1  0
 19 48  1  0
 20 49  1  0
 20 50  1  0
 21 51  1  0
 21 52  1  0
 23 53  1  0
 23 54  1  0
 25 55  1  0
 26 56  1  0
 27 57  1  0
 28 58  1  0
 29 59  1  0
 30 60  1  0
 30 61  1  0
 31 62  1  0
 31 63  1  0
 32 64  1  0
 33 65  1  0
 34 66  1  0
 34 67  1  0
 35 68  1  0
 35 69  1  0
M  END
>  <UniqueID>  (71) 
64

>  <SMILES>  (71) 
CC(=O)N1CCN(C(=O)c2ccc(OCC(=O)NC3CCN(Cc4ccccc4)CC3)cc2)CC1

>  <Energy>  (71) 
82.9211772287777

>  <Genealogy>  (71) 
CC(=O)N1CCN(C(=O)c2ccc(OCC(=O)NC3CCN(Cc4ccccc4)CC3)cc2)CC1 (3D coordinates assigned)
CC(=O)N1CCN(C(=O)c2ccc(OCC(=O)NC3CCN(Cc4ccccc4)CC3)cc2)CC1 (nonaromatic ring conformer: 82.9211772287777 kcal/mol)

>  <smiles>  (71) 
CC(=O)N1CCN(C(=O)c2ccc(OCC(=O)NC3CCN(Cc4ccccc4)CC3)cc2)CC1

>  <score_type>  (71) 
oracle

>  <origin>  (71) 
adg

>  <m_score__min__energy>  (71) 
-9.6699999999999999

>  <m_primary>  (71) 
energy

$$$$
72:0
     RDKit          3D

 56 59  0  0  0  0  0  0  0  0999 V2000
   63.1720   29.7170   51.9100 C   0  0  0  0  0  0  0  0  0  0  0  0
   62.3950   30.7310   51.2810 O   0  0  0  0  0  0  0  0  0  0  0  0
   62.1840   30.8440   49.8970 C   0  0  0  0  0  0  0  0  0  0  0  0
   61.1280   30.1530   49.2710 C   0  0  0  0  0  0  0  0  0  0  0  0
   60.9060   30.2710   47.8940 C   0  0  0  0  0  0  0  0  0  0  0  0
   59.7990   29.5200   47.2640 C   0  0  0  0  0  0  0  0  0  0  0  0
   58.6310   29.2730   47.8930 N   0  0  0  0  0  0  0  0  0  0  0  0
   57.8790   28.5690   47.0580 N   0  0  0  0  0  0  0  0  0  0  0  0
   58.5950   28.4040   45.9320 C   0  0  0  0  0  0  0  0  0  0  0  0
   57.9960   27.4930   44.5040 S   0  0  0  0  0  0  0  0  0  0  0  0
   57.3820   28.9770   43.6350 C   0  0  0  0  0  0  0  0  0  0  0  0
   56.3020   29.6620   44.4270 C   0  0  0  0  0  0  0  0  0  0  0  0
   55.5050   28.9620   45.1060 O   0  0  0  0  0  0  0  0  0  0  0  0
   56.2030   31.0910   44.5050 N   0  0  0  0  0  0  0  0  0  0  0  0
   57.2390   31.9820   44.9340 C   0  0  0  0  0  0  0  0  0  0  0  0
   57.8970   32.8280   44.0230 C   0  0  0  0  0  0  0  0  0  0  0  0
   58.8890   33.7090   44.4690 C   0  0  0  0  0  0  0  0  0  0  0  0
   59.2090   33.7670   45.8280 C   0  0  0  0  0  0  0  0  0  0  0  0
   58.5530   32.9280   46.7390 C   0  0  0  0  0  0  0  0  0  0  0  0
   57.5520   32.0580   46.2980 C   0  0  0  0  0  0  0  0  0  0  0  0
   58.9140   32.9790   48.0900 O   0  0  0  0  0  0  0  0  0  0  0  0
   60.1070   33.6450   48.5090 C   0  0  0  0  0  0  0  0  0  0  0  0
   60.3140   34.9290   47.6960 C   0  0  0  0  0  0  0  0  0  0  0  0
   60.1770   34.6590   46.2990 O   0  0  0  0  0  0  0  0  0  0  0  0
   59.7990   29.0030   46.0150 N   0  0  0  0  0  0  0  0  0  0  0  0
   60.8360   29.0640   44.9860 C   0  0  0  0  0  0  0  0  0  0  0  0
   61.7710   31.0560   47.1250 C   0  0  0  0  0  0  0  0  0  0  0  0
   62.8290   31.7580   47.7280 C   0  0  0  0  0  0  0  0  0  0  0  0
   63.7030   32.5650   46.9800 O   0  0  0  0  0  0  0  0  0  0  0  0
   63.3680   33.8440   46.4470 C   0  0  0  0  0  0  0  0  0  0  0  0
   63.0390   31.6610   49.1140 C   0  0  0  0  0  0  0  0  0  0  0  0
   64.1150   32.4000   49.6410 O   0  0  0  0  0  0  0  0  0  0  0  0
   64.0360   33.4550   50.5930 C   0  0  0  0  0  0  0  0  0  0  0  0
   63.0934   29.8195   53.0024 H   0  0  0  0  0  0  0  0  0  0  0  0
   62.7985   28.7278   51.6068 H   0  0  0  0  0  0  0  0  0  0  0  0
   64.2243   29.8204   51.6068 H   0  0  0  0  0  0  0  0  0  0  0  0
   60.4681   29.5112   49.8732 H   0  0  0  0  0  0  0  0  0  0  0  0
   58.2172   29.6773   43.4864 H   0  0  0  0  0  0  0  0  0  0  0  0
   56.9609   28.6655   42.6677 H   0  0  0  0  0  0  0  0  0  0  0  0
   57.6310   32.7971   42.9561 H   0  0  0  0  0  0  0  0  0  0  0  0
   59.4158   34.3546   43.7509 H   0  0  0  0  0  0  0  0  0  0  0  0
   57.0094   31.4324   47.0220 H   0  0  0  0  0  0  0  0  0  0  0  0
   60.0243   33.9004   49.5757 H   0  0  0  0  0  0  0  0  0  0  0  0
   60.9655   32.9767   48.3467 H   0  0  0  0  0  0  0  0  0  0  0  0
   59.5629   35.6741   47.9970 H   0  0  0  0  0  0  0  0  0  0  0  0
   61.3259   35.3151   47.8883 H   0  0  0  0  0  0  0  0  0  0  0  0
   61.8246   29.1222   45.4648 H   0  0  0  0  0  0  0  0  0  0  0  0
   60.7845   28.1613   44.3596 H   0  0  0  0  0  0  0  0  0  0  0  0
   60.6790   29.9545   44.3596 H   0  0  0  0  0  0  0  0  0  0  0  0
   61.6219   31.1248   46.0373 H   0  0  0  0  0  0  0  0  0  0  0  0
   63.1836   34.5481   47.2718 H   0  0  0  0  0  0  0  0  0  0  0  0
   64.1998   34.2130   45.8290 H   0  0  0  0  0  0  0  0  0  0  0  0
   62.4621   33.7579   45.8290 H   0  0  0  0  0  0  0  0  0  0  0  0
   64.0674   33.0350   51.6092 H   0  0  0  0  0  0  0  0  0  0  0  0
   64.8854   34.1398   50.4528 H   0  0  0  0  0  0  0  0  0  0  0  0
   63.0941   34.0056   50.4528 H   0  0  0  0  0  0  0  0  0  0  0  0
  1  2  1  0
  2  3  1  0
  3  4  2  0
  4  5  1  0
  5  6  1  0
  6  7  2  0
  7  8  1  0
  8  9  2  0
  9 10  1  0
 10 11  1  0
 11 12  1  0
 12 13  2  0
 12 14  1  0
 14 15  1  0
 15 16  2  0
 16 17  1  0
 17 18  2  0
 18 19  1  0
 19 20  2  0
 19 21  1  0
 21 22  1  0
 22 23  1  0
 23 24  1  0
  9 25  1  0
 25 26  1  0
  5 27  2  0
 27 28  1  0
 28 29  1  0
 29 30  1  0
 28 31  2  0
 31 32  1  0
 32 33  1  0
 31  3  1  0
 25  6  1  0
 20 15  1  0
 24 18  1  0
  1 34  1  0
  1 35  1  0
  1 36  1  0
  4 37  1  0
 11 38  1  0
 11 39  1  0
 16 40  1  0
 17 41  1  0
 20 42  1  0
 22 43  1  0
 22 44  1  0
 23 45  1  0
 23 46  1  0
 26 47  1  0
 26 48  1  0
 26 49  1  0
 27 50  1  0
 30 51  1  0
 30 52  1  0
 30 53  1  0
 33 54  1  0
 33 55  1  0
 33 56  1  0
M  CHG  1  14  -1
M  END
>  <UniqueID>  (72) 
65

>  <SMILES>  (72) 
COc1cc(-c2nnc(SCC(=O)[N-]c3ccc4c(c3)OCCO4)n2C)cc(OC)c1OC

>  <Energy>  (72) 
101.67583885395062

>  <Genealogy>  (72) 
COc1cc(-c2nnc(SCC(=O)[N-]c3ccc4c(c3)OCCO4)n2C)cc(OC)c1OC (protonated)
COc1cc(-c2nnc(SCC(=O)[N-]c3ccc4c(c3)OCCO4)n2C)cc(OC)c1OC (3D coordinates assigned)
COc1cc(-c2nnc(SCC(=O)[N-]c3ccc4c(c3)OCCO4)n2C)cc(OC)c1OC (nonaromatic ring conformer: 101.67583885395062 kcal/mol)

>  <smiles>  (72) 
COc1cc(-c2nnc(SCC(=O)Nc3ccc4c(c3)OCCO4)n2C)cc(OC)c1OC

>  <score_type>  (72) 
oracle

>  <origin>  (72) 
adg

>  <m_score__min__energy>  (72) 
-9.8200000000000003

>  <m_primary>  (72) 
energy

$$$$
73:0
     RDKit          3D

 58 61  0  0  0  0  0  0  0  0999 V2000
   55.3700   26.7020   45.9390 N   0  0  0  0  0  0  0  0  0  0  0  0
   57.0050   27.2660   45.9770 S   0  0  0  0  0  0  0  0  0  0  0  0
   57.4650   27.3670   47.4040 O   0  0  0  0  0  0  0  0  0  0  0  0
   57.8910   26.2950   45.2510 O   0  0  0  0  0  0  0  0  0  0  0  0
   57.1020   28.8500   45.2110 C   0  0  0  0  0  0  0  0  0  0  0  0
   56.6420   29.0250   43.9000 C   0  0  0  0  0  0  0  0  0  0  0  0
   56.7310   30.2760   43.2860 C   0  0  0  0  0  0  0  0  0  0  0  0
   57.2870   31.3580   43.9740 C   0  0  0  0  0  0  0  0  0  0  0  0
   57.7580   31.2000   45.2910 C   0  0  0  0  0  0  0  0  0  0  0  0
   58.3520   32.3460   46.0240 C   0  0  0  0  0  0  0  0  0  0  0  0
   58.5520   33.5790   45.3790 C   0  0  0  0  0  0  0  0  0  0  0  0
   59.1130   34.6550   46.0700 C   0  0  0  0  0  0  0  0  0  0  0  0
   59.4660   34.5200   47.4150 C   0  0  0  0  0  0  0  0  0  0  0  0
   59.2580   33.3020   48.0900 C   0  0  0  0  0  0  0  0  0  0  0  0
   59.6190   33.1130   49.5240 C   0  0  0  0  0  0  0  0  0  0  0  0
   58.6800   33.0900   50.3710 O   0  0  0  0  0  0  0  0  0  0  0  0
   60.9830   32.9580   49.9980 N   0  0  0  0  0  0  0  0  0  0  0  0
   61.9370   33.8340   49.2840 C   0  0  0  0  0  0  0  0  0  0  0  0
   63.3050   33.7840   49.9720 C   0  0  0  0  0  0  0  0  0  0  0  0
   63.7040   32.4000   50.2700 N   0  0  0  0  0  0  0  0  0  0  0  0
   65.0010   32.1270   50.8470 C   0  0  0  0  0  0  0  0  0  0  0  0
   65.2930   30.9600   51.2210 O   0  0  0  0  0  0  0  0  0  0  0  0
   66.0020   33.1520   50.9590 N   0  0  0  0  0  0  0  0  0  0  0  0
   67.2100   33.0860   50.1350 C   0  0  0  0  0  0  0  0  0  0  0  0
   68.4170   33.4550   51.0010 C   0  0  0  0  0  0  0  0  0  0  0  0
   68.2180   34.7110   51.6280 O   0  0  0  0  0  0  0  0  0  0  0  0
   67.1380   34.6260   52.5460 C   0  0  0  0  0  0  0  0  0  0  0  0
   65.8210   34.3190   51.8240 C   0  0  0  0  0  0  0  0  0  0  0  0
   62.8840   31.2950   49.7490 C   0  0  0  0  0  0  0  0  0  0  0  0
   61.3870   31.5250   50.0360 C   0  0  0  0  0  0  0  0  0  0  0  0
   58.7160   32.2160   47.3770 C   0  0  0  0  0  0  0  0  0  0  0  0
   57.6630   29.9350   45.9030 C   0  0  0  0  0  0  0  0  0  0  0  0
   54.8970   27.0820   46.7890 H   0  0  0  0  0  0  0  0  0  0  0  0
   56.2094   28.1747   43.3524 H   0  0  0  0  0  0  0  0  0  0  0  0
   56.3626   30.4102   42.2583 H   0  0  0  0  0  0  0  0  0  0  0  0
   57.3570   32.3398   43.4829 H   0  0  0  0  0  0  0  0  0  0  0  0
   58.2649   33.6969   44.3237 H   0  0  0  0  0  0  0  0  0  0  0  0
   59.2775   35.6122   45.5536 H   0  0  0  0  0  0  0  0  0  0  0  0
   59.9099   35.3720   47.9508 H   0  0  0  0  0  0  0  0  0  0  0  0
   60.9810   33.2930   50.9920 H   0  0  0  0  0  0  0  0  0  0  0  0
   62.0390   33.4911   48.2438 H   0  0  0  0  0  0  0  0  0  0  0  0
   61.5612   34.8677   49.2992 H   0  0  0  0  0  0  0  0  0  0  0  0
   64.0561   34.2385   49.3092 H   0  0  0  0  0  0  0  0  0  0  0  0
   63.2367   34.3371   50.9204 H   0  0  0  0  0  0  0  0  0  0  0  0
   67.3345   32.0661   49.7421 H   0  0  0  0  0  0  0  0  0  0  0  0
   67.1264   33.7869   49.2914 H   0  0  0  0  0  0  0  0  0  0  0  0
   68.5568   32.6840   51.7730 H   0  0  0  0  0  0  0  0  0  0  0  0
   69.3077   33.5173   50.3585 H   0  0  0  0  0  0  0  0  0  0  0  0
   67.3452   33.8250   53.2709 H   0  0  0  0  0  0  0  0  0  0  0  0
   67.0378   35.5948   53.0573 H   0  0  0  0  0  0  0  0  0  0  0  0
   65.0363   34.1082   52.5655 H   0  0  0  0  0  0  0  0  0  0  0  0
   65.5249   35.1858   51.2149 H   0  0  0  0  0  0  0  0  0  0  0  0
   63.0330   31.2199   48.6617 H   0  0  0  0  0  0  0  0  0  0  0  0
   63.1948   30.3660   50.2494 H   0  0  0  0  0  0  0  0  0  0  0  0
   60.8010   30.9790   49.2820 H   0  0  0  0  0  0  0  0  0  0  0  0
   61.1966   31.1645   51.0577 H   0  0  0  0  0  0  0  0  0  0  0  0
   58.5748   31.2508   47.8854 H   0  0  0  0  0  0  0  0  0  0  0  0
   58.0309   29.7962   46.9303 H   0  0  0  0  0  0  0  0  0  0  0  0
  1  2  1  0
  2  3  2  0
  2  4  2  0
  2  5  1  0
  5  6  2  0
  6  7  1  0
  7  8  2  0
  8  9  1  0
  9 10  1  0
 10 11  2  0
 11 12  1  0
 12 13  2  0
 13 14  1  0
 14 15  1  0
 15 16  2  0
 15 17  1  0
 17 18  1  0
 18 19  1  0
 19 20  1  0
 20 21  1  0
 21 22  2  0
 21 23  1  0
 23 24  1  0
 24 25  1  0
 25 26  1  0
 26 27  1  0
 27 28  1  0
 20 29  1  0
 29 30  1  0
 14 31  2  0
  9 32  2  0
 32  5  1  0
 31 10  1  0
 30 17  1  0
 28 23  1  0
  1 33  1  0
  6 34  1  0
  7 35  1  0
  8 36  1  0
 11 37  1  0
 12 38  1  0
 13 39  1  0
 17 40  1  0
 18 41  1  0
 18 42  1  0
 19 43  1  0
 19 44  1  0
 24 45  1  0
 24 46  1  0
 25 47  1  0
 25 48  1  0
 27 49  1  0
 27 50  1  0
 28 51  1  0
 28 52  1  0
 29 53  1  0
 29 54  1  0
 30 55  1  0
 30 56  1  0
 31 57  1  0
 32 58  1  0
M  CHG  2   1  -1  17   1
M  END
>  <UniqueID>  (73) 
66

>  <SMILES>  (73) 
[NH-]S(=O)(=O)c1cccc(-c2cccc(C(=O)[NH+]3CCN(C(=O)N4CCOCC4)CC3)c2)c1

>  <Energy>  (73) 
87.0328286378737

>  <Genealogy>  (73) 
[NH-]S(=O)(=O)c1cccc(-c2cccc(C(=O)[NH+]3CCN(C(=O)N4CCOCC4)CC3)c2)c1 (protonated)
[NH-]S(=O)(=O)c1cccc(-c2cccc(C(=O)[NH+]3CCN(C(=O)N4CCOCC4)CC3)c2)c1 (3D coordinates assigned)
[NH-]S(=O)(=O)c1cccc(-c2cccc(C(=O)[NH+]3CCN(C(=O)N4CCOCC4)CC3)c2)c1 (nonaromatic ring conformer: 87.0328286378737 kcal/mol)

>  <smiles>  (73) 
NS(=O)(=O)c1cccc(-c2cccc(C(=O)N3CCN(C(=O)N4CCOCC4)CC3)c2)c1

>  <score_type>  (73) 
oracle

>  <origin>  (73) 
adg

>  <m_score__min__energy>  (73) 
-11.5

>  <m_primary>  (73) 
energy

$$$$
74:0
     RDKit          3D

 47 49  0  0  0  0  0  0  0  0999 V2000
   60.5560   27.1570   49.1740 C   0  0  0  0  0  0  0  0  0  0  0  0
   60.5640   28.0680   50.4100 C   0  0  0  0  0  0  0  0  0  0  0  0
   60.3660   29.5000   50.0990 N   0  0  0  0  0  0  0  0  0  0  0  0
   60.8450   29.8830   48.7460 C   0  0  0  0  0  0  0  0  0  0  0  0
   59.9980   30.9790   48.0750 C   0  0  0  0  0  0  0  0  0  0  0  0
   59.5560   31.9740   49.0630 N   0  0  0  0  0  0  0  0  0  0  0  0
   59.6510   33.3860   48.7960 C   0  0  0  0  0  0  0  0  0  0  0  0
   59.9510   34.1750   49.7330 O   0  0  0  0  0  0  0  0  0  0  0  0
   59.4110   33.9480   47.4520 C   0  0  0  0  0  0  0  0  0  0  0  0
   59.8800   35.2240   47.0960 C   0  0  0  0  0  0  0  0  0  0  0  0
   59.6470   35.7050   45.8070 C   0  0  0  0  0  0  0  0  0  0  0  0
   58.9610   34.9170   44.8830 C   0  0  0  0  0  0  0  0  0  0  0  0
   58.5190   33.6430   45.2620 C   0  0  0  0  0  0  0  0  0  0  0  0
   57.8020   32.7620   44.2820 C   0  0  0  0  0  0  0  0  0  0  0  0
   57.5790   31.4380   44.8560 N   0  0  0  0  0  0  0  0  0  0  0  0
   57.1970   30.3090   44.0530 C   0  0  0  0  0  0  0  0  0  0  0  0
   57.0810   30.4390   42.8060 O   0  0  0  0  0  0  0  0  0  0  0  0
   56.9410   28.9880   44.6560 C   0  0  0  0  0  0  0  0  0  0  0  0
   57.8490   27.9460   44.7730 C   0  0  0  0  0  0  0  0  0  0  0  0
   57.1800   26.9180   45.3980 C   0  0  0  0  0  0  0  0  0  0  0  0
   55.9080   27.3890   45.6290 C   0  0  0  0  0  0  0  0  0  0  0  0
   54.8980   26.6630   46.2450 O   0  0  0  0  0  0  0  0  0  0  0  0
   55.7460   28.6480   45.1830 N   0  0  0  0  0  0  0  0  0  0  0  0
   58.7610   33.1930   46.5230 N   0  0  0  0  0  0  0  0  0  0  0  0
   59.0120   31.5260   50.3520 C   0  0  0  0  0  0  0  0  0  0  0  0
   59.0220   30.0000   50.4440 C   0  0  0  0  0  0  0  0  0  0  0  0
   60.5468   26.1047   49.4942 H   0  0  0  0  0  0  0  0  0  0  0  0
   59.6596   27.3647   48.5712 H   0  0  0  0  0  0  0  0  0  0  0  0
   61.4559   27.3490   48.5712 H   0  0  0  0  0  0  0  0  0  0  0  0
   59.7568   27.7449   51.0838 H   0  0  0  0  0  0  0  0  0  0  0  0
   61.5593   27.9752   50.8691 H   0  0  0  0  0  0  0  0  0  0  0  0
   61.8786   30.2488   48.8346 H   0  0  0  0  0  0  0  0  0  0  0  0
   60.7688   28.9865   48.1132 H   0  0  0  0  0  0  0  0  0  0  0  0
   60.6015   31.4798   47.3037 H   0  0  0  0  0  0  0  0  0  0  0  0
   59.1106   30.5121   47.6228 H   0  0  0  0  0  0  0  0  0  0  0  0
   60.4260   35.8383   47.8271 H   0  0  0  0  0  0  0  0  0  0  0  0
   60.0041   36.7050   45.5198 H   0  0  0  0  0  0  0  0  0  0  0  0
   58.7690   35.2922   43.8669 H   0  0  0  0  0  0  0  0  0  0  0  0
   56.8322   33.2154   44.0291 H   0  0  0  0  0  0  0  0  0  0  0  0
   58.4188   32.6592   43.3770 H   0  0  0  0  0  0  0  0  0  0  0  0
   57.7430   31.3210   45.8790 H   0  0  0  0  0  0  0  0  0  0  0  0
   58.8954   27.9419   44.4339 H   0  0  0  0  0  0  0  0  0  0  0  0
   57.5791   25.9266   45.6585 H   0  0  0  0  0  0  0  0  0  0  0  0
   59.6250   31.9405   51.1659 H   0  0  0  0  0  0  0  0  0  0  0  0
   57.9733   31.8778   50.4380 H   0  0  0  0  0  0  0  0  0  0  0  0
   58.7671   29.6919   51.4688 H   0  0  0  0  0  0  0  0  0  0  0  0
   58.2828   29.5836   49.7438 H   0  0  0  0  0  0  0  0  0  0  0  0
  1  2  1  0
  2  3  1  0
  3  4  1  0
  4  5  1  0
  5  6  1  0
  6  7  1  0
  7  8  2  0
  7  9  1  0
  9 10  2  0
 10 11  1  0
 11 12  2  0
 12 13  1  0
 13 14  1  0
 14 15  1  0
 15 16  1  0
 16 17  2  0
 16 18  1  0
 18 19  2  0
 19 20  1  0
 20 21  2  0
 21 22  1  0
 21 23  1  0
 13 24  2  0
  6 25  1  0
 25 26  1  0
 26  3  1  0
 24  9  1  0
 23 18  1  0
  1 27  1  0
  1 28  1  0
  1 29  1  0
  2 30  1  0
  2 31  1  0
  4 32  1  0
  4 33  1  0
  5 34  1  0
  5 35  1  0
 10 36  1  0
 11 37  1  0
 12 38  1  0
 14 39  1  0
 14 40  1  0
 15 41  1  0
 19 42  1  0
 20 43  1  0
 25 44  1  0
 25 45  1  0
 26 46  1  0
 26 47  1  0
M  CHG  2  22  -1  23  -1
M  END
>  <UniqueID>  (74) 
67

>  <SMILES>  (74) 
CCN1CCN(C(=O)c2cccc(CNC(=O)c3ccc([O-])[n-]3)n2)CC1

>  <Energy>  (74) 
81.3266839884157

>  <Genealogy>  (74) 
CCN1CCN(C(=O)c2cccc(CNC(=O)c3ccc([O-])[n-]3)n2)CC1 (protonated)
CCN1CCN(C(=O)c2cccc(CNC(=O)c3ccc([O-])[n-]3)n2)CC1 (3D coordinates assigned)
CCN1CCN(C(=O)c2cccc(CNC(=O)c3ccc([O-])[n-]3)n2)CC1 (nonaromatic ring conformer: 81.3266839884157 kcal/mol)

>  <smiles>  (74) 
CCN1CCN(C(=O)c2cccc(CNC(=O)c3ccc(O)[nH]3)n2)CC1

>  <score_type>  (74) 
oracle

>  <origin>  (74) 
adg

>  <m_score__min__energy>  (74) 
-14.51

>  <m_primary>  (74) 
energy

$$$$
75:0
     RDKit          3D

 65 68  0  0  0  0  0  0  0  0999 V2000
   59.1080   32.8760   48.9780 C   0  0  0  0  0  0  0  0  0  0  0  0
   58.7260   33.1960   47.5630 C   0  0  0  0  0  0  0  0  0  0  0  0
   59.2950   34.3000   46.9160 C   0  0  0  0  0  0  0  0  0  0  0  0
   58.9620   34.5870   45.5910 C   0  0  0  0  0  0  0  0  0  0  0  0
   58.0720   33.7650   44.8960 C   0  0  0  0  0  0  0  0  0  0  0  0
   57.5190   32.6300   45.5220 C   0  0  0  0  0  0  0  0  0  0  0  0
   56.6510   31.7450   44.8590 O   0  0  0  0  0  0  0  0  0  0  0  0
   57.0580   30.6790   44.0000 C   0  0  0  0  0  0  0  0  0  0  0  0
   56.4690   29.3720   44.4380 C   0  0  0  0  0  0  0  0  0  0  0  0
   55.2960   29.3470   44.8950 O   0  0  0  0  0  0  0  0  0  0  0  0
   57.2620   28.1820   44.3790 N   0  0  0  0  0  0  0  0  0  0  0  0
   57.4480   27.0370   45.6690 S   0  0  0  0  0  0  0  0  0  0  0  0
   58.0080   25.7580   45.1140 O   0  0  0  0  0  0  0  0  0  0  0  0
   56.0960   26.7530   46.2620 O   0  0  0  0  0  0  0  0  0  0  0  0
   58.5120   27.6290   46.9440 C   0  0  0  0  0  0  0  0  0  0  0  0
   58.4550   28.9670   47.3530 C   0  0  0  0  0  0  0  0  0  0  0  0
   59.3030   29.4330   48.3630 C   0  0  0  0  0  0  0  0  0  0  0  0
   60.2320   28.5640   48.9670 C   0  0  0  0  0  0  0  0  0  0  0  0
   61.0910   29.0090   50.0320 N   0  0  0  0  0  0  0  0  0  0  0  0
   61.8230   30.2470   50.0130 C   0  0  0  0  0  0  0  0  0  0  0  0
   61.9500   30.9040   48.9430 O   0  0  0  0  0  0  0  0  0  0  0  0
   62.4660   30.7590   51.2680 C   0  0  0  0  0  0  0  0  0  0  0  0
   63.9630   30.8410   51.0950 C   0  0  0  0  0  0  0  0  0  0  0  0
   64.7710   29.8960   51.7540 C   0  0  0  0  0  0  0  0  0  0  0  0
   66.1620   29.9460   51.6430 C   0  0  0  0  0  0  0  0  0  0  0  0
   66.7660   30.9400   50.8730 C   0  0  0  0  0  0  0  0  0  0  0  0
   65.9800   31.8840   50.2090 C   0  0  0  0  0  0  0  0  0  0  0  0
   64.5830   31.8460   50.3110 C   0  0  0  0  0  0  0  0  0  0  0  0
   63.8170   32.8280   49.5990 N   0  0  0  0  0  0  0  0  0  0  0  0
   63.0810   33.8570   50.3370 C   0  0  0  0  0  0  0  0  0  0  0  0
   61.8210   34.2430   49.5570 C   0  0  0  0  0  0  0  0  0  0  0  0
   62.1420   34.5720   48.2190 O   0  0  0  0  0  0  0  0  0  0  0  0
   62.6240   33.4230   47.5450 C   0  0  0  0  0  0  0  0  0  0  0  0
   63.9550   32.9540   48.1480 C   0  0  0  0  0  0  0  0  0  0  0  0
   60.2620   27.2190   48.5760 C   0  0  0  0  0  0  0  0  0  0  0  0
   59.4180   26.7550   47.5640 C   0  0  0  0  0  0  0  0  0  0  0  0
   57.8510   32.3580   46.8560 C   0  0  0  0  0  0  0  0  0  0  0  0
   58.4515   33.4259   49.6683 H   0  0  0  0  0  0  0  0  0  0  0  0
   58.9996   31.7952   49.1516 H   0  0  0  0  0  0  0  0  0  0  0  0
   60.1531   33.1722   49.1516 H   0  0  0  0  0  0  0  0  0  0  0  0
   60.0069   34.9434   47.4538 H   0  0  0  0  0  0  0  0  0  0  0  0
   59.4020   35.4634   45.0927 H   0  0  0  0  0  0  0  0  0  0  0  0
   57.8019   34.0043   43.8569 H   0  0  0  0  0  0  0  0  0  0  0  0
   56.7237   30.8972   42.9750 H   0  0  0  0  0  0  0  0  0  0  0  0
   58.1542   30.5977   44.0427 H   0  0  0  0  0  0  0  0  0  0  0  0
   57.7400   29.6548   46.8778 H   0  0  0  0  0  0  0  0  0  0  0  0
   59.2440   30.4826   48.6868 H   0  0  0  0  0  0  0  0  0  0  0  0
   61.2460   28.3600   50.8360 H   0  0  0  0  0  0  0  0  0  0  0  0
   62.0717   31.7605   51.4949 H   0  0  0  0  0  0  0  0  0  0  0  0
   62.2390   30.0681   52.0933 H   0  0  0  0  0  0  0  0  0  0  0  0
   64.3017   29.1094   52.3632 H   0  0  0  0  0  0  0  0  0  0  0  0
   66.7820   29.2010   52.1632 H   0  0  0  0  0  0  0  0  0  0  0  0
   67.8620   30.9802   50.7888 H   0  0  0  0  0  0  0  0  0  0  0  0
   66.4615   32.6639   49.6008 H   0  0  0  0  0  0  0  0  0  0  0  0
   62.7952   33.4660   51.3246 H   0  0  0  0  0  0  0  0  0  0  0  0
   63.7193   34.7438   50.4640 H   0  0  0  0  0  0  0  0  0  0  0  0
   61.1195   33.3957   49.5621 H   0  0  0  0  0  0  0  0  0  0  0  0
   61.3632   35.1206   50.0368 H   0  0  0  0  0  0  0  0  0  0  0  0
   61.8830   32.6150   47.6350 H   0  0  0  0  0  0  0  0  0  0  0  0
   62.7871   33.6778   46.4874 H   0  0  0  0  0  0  0  0  0  0  0  0
   64.2277   31.9782   47.7197 H   0  0  0  0  0  0  0  0  0  0  0  0
   64.7405   33.6887   47.9174 H   0  0  0  0  0  0  0  0  0  0  0  0
   60.9557   26.5227   49.0698 H   0  0  0  0  0  0  0  0  0  0  0  0
   59.4638   25.7011   47.2522 H   0  0  0  0  0  0  0  0  0  0  0  0
   57.4204   31.4771   47.3546 H   0  0  0  0  0  0  0  0  0  0  0  0
  1  2  1  0
  2  3  2  0
  3  4  1  0
  4  5  2  0
  5  6  1  0
  6  7  1  0
  7  8  1  0
  8  9  1  0
  9 10  2  0
  9 11  1  0
 11 12  1  0
 12 13  2  0
 12 14  2  0
 12 15  1  0
 15 16  2  0
 16 17  1  0
 17 18  2  0
 18 19  1  0
 19 20  1  0
 20 21  2  0
 20 22  1  0
 22 23  1  0
 23 24  2  0
 24 25  1  0
 25 26  2  0
 26 27  1  0
 27 28  2  0
 28 29  1  0
 29 30  1  0
 30 31  1  0
 31 32  1  0
 32 33  1  0
 33 34  1  0
 18 35  1  0
 35 36  2  0
  6 37  2  0
 37  2  1  0
 36 15  1  0
 28 23  1  0
 34 29  1  0
  1 38  1  0
  1 39  1  0
  1 40  1  0
  3 41  1  0
  4 42  1  0
  5 43  1  0
  8 44  1  0
  8 45  1  0
 16 46  1  0
 17 47  1  0
 19 48  1  0
 22 49  1  0
 22 50  1  0
 24 51  1  0
 25 52  1  0
 26 53  1  0
 27 54  1  0
 30 55  1  0
 30 56  1  0
 31 57  1  0
 31 58  1  0
 33 59  1  0
 33 60  1  0
 34 61  1  0
 34 62  1  0
 35 63  1  0
 36 64  1  0
 37 65  1  0
M  CHG  1  11  -1
M  END
>  <UniqueID>  (75) 
68

>  <SMILES>  (75) 
Cc1cccc(OCC(=O)[N-]S(=O)(=O)c2ccc(NC(=O)Cc3ccccc3N3CCOCC3)cc2)c1

>  <Energy>  (75) 
79.92450354064398

>  <Genealogy>  (75) 
Cc1cccc(OCC(=O)[N-]S(=O)(=O)c2ccc(NC(=O)Cc3ccccc3N3CCOCC3)cc2)c1 (protonated)
Cc1cccc(OCC(=O)[N-]S(=O)(=O)c2ccc(NC(=O)Cc3ccccc3N3CCOCC3)cc2)c1 (3D coordinates assigned)
Cc1cccc(OCC(=O)[N-]S(=O)(=O)c2ccc(NC(=O)Cc3ccccc3N3CCOCC3)cc2)c1 (nonaromatic ring conformer: 79.92450354064398 kcal/mol)

>  <smiles>  (75) 
Cc1cccc(OCC(=O)NS(=O)(=O)c2ccc(NC(=O)Cc3ccccc3N3CCOCC3)cc2)c1

>  <score_type>  (75) 
oracle

>  <origin>  (75) 
adg

>  <m_score__min__energy>  (75) 
-11.24

>  <m_primary>  (75) 
energy

$$$$
76:0
     RDKit          3D

 70 74  0  0  0  0  0  0  0  0999 V2000
   58.1820   27.7990   43.5520 O   0  0  0  0  0  0  0  0  0  0  0  0
   57.3890   28.5800   44.1450 C   0  0  0  0  0  0  0  0  0  0  0  0
   56.8500   29.7150   43.4590 N   0  0  0  0  0  0  0  0  0  0  0  0
   56.1380   30.8050   44.1250 C   0  0  0  0  0  0  0  0  0  0  0  0
   57.1140   31.7680   44.7500 C   0  0  0  0  0  0  0  0  0  0  0  0
   58.4450   31.3820   44.9660 C   0  0  0  0  0  0  0  0  0  0  0  0
   59.3130   32.2130   45.6770 C   0  0  0  0  0  0  0  0  0  0  0  0
   58.8660   33.4430   46.1720 C   0  0  0  0  0  0  0  0  0  0  0  0
   59.9210   34.4010   47.2070 S   0  0  0  0  0  0  0  0  0  0  0  0
   60.2440   35.6970   46.5180 O   0  0  0  0  0  0  0  0  0  0  0  0
   59.2300   34.7020   48.5100 O   0  0  0  0  0  0  0  0  0  0  0  0
   61.3890   33.4990   47.4860 N   0  0  0  0  0  0  0  0  0  0  0  0
   61.9670   33.8200   48.7890 C   0  0  0  0  0  0  0  0  0  0  0  0
   63.4560   33.5340   48.6810 C   0  0  0  0  0  0  0  0  0  0  0  0
   63.7610   33.5840   47.1910 C   0  0  0  0  0  0  0  0  0  0  0  0
   62.4230   33.8350   46.5090 C   0  0  0  0  0  0  0  0  0  0  0  0
   57.5460   33.8480   45.9280 C   0  0  0  0  0  0  0  0  0  0  0  0
   56.6770   33.0190   45.2150 C   0  0  0  0  0  0  0  0  0  0  0  0
   56.9840   28.3110   45.4920 N   0  0  0  0  0  0  0  0  0  0  0  0
   57.1370   27.0030   46.0590 C   0  0  0  0  0  0  0  0  0  0  0  0
   56.0150   26.1680   46.1520 C   0  0  0  0  0  0  0  0  0  0  0  0
   56.1390   24.8690   46.6500 C   0  0  0  0  0  0  0  0  0  0  0  0
   57.3850   24.3980   47.0690 C   0  0  0  0  0  0  0  0  0  0  0  0
   58.5070   25.2290   47.0000 C   0  0  0  0  0  0  0  0  0  0  0  0
   58.3920   26.5430   46.5180 C   0  0  0  0  0  0  0  0  0  0  0  0
   59.5890   27.4100   46.4670 C   0  0  0  0  0  0  0  0  0  0  0  0
   60.6800   26.8930   46.1040 O   0  0  0  0  0  0  0  0  0  0  0  0
   59.5340   28.8160   46.8070 N   0  0  0  0  0  0  0  0  0  0  0  0
   60.7140   29.6790   46.6250 C   0  0  0  0  0  0  0  0  0  0  0  0
   61.1680   30.2750   47.9760 C   0  0  0  0  0  0  0  0  0  0  0  0
   60.5090   29.5930   49.1020 N   0  0  0  0  0  0  0  0  0  0  0  0
   61.2890   29.1760   50.2440 C   0  0  0  0  0  0  0  0  0  0  0  0
   62.3500   29.7880   50.5390 O   0  0  0  0  0  0  0  0  0  0  0  0
   60.8520   28.0270   51.1100 C   0  0  0  0  0  0  0  0  0  0  0  0
   61.9700   27.1320   51.6200 C   0  0  0  0  0  0  0  0  0  0  0  0
   61.0830   26.6600   50.4870 C   0  0  0  0  0  0  0  0  0  0  0  0
   59.0360   29.4650   49.1040 C   0  0  0  0  0  0  0  0  0  0  0  0
   58.4880   29.3680   47.6730 C   0  0  0  0  0  0  0  0  0  0  0  0
   55.5234   31.3406   43.3865 H   0  0  0  0  0  0  0  0  0  0  0  0
   55.4992   30.3828   44.9148 H   0  0  0  0  0  0  0  0  0  0  0  0
   58.8067   30.4202   44.5735 H   0  0  0  0  0  0  0  0  0  0  0  0
   60.3532   31.8992   45.8488 H   0  0  0  0  0  0  0  0  0  0  0  0
   61.7998   34.8805   49.0284 H   0  0  0  0  0  0  0  0  0  0  0  0
   61.5036   33.2232   49.5884 H   0  0  0  0  0  0  0  0  0  0  0  0
   64.0362   34.2975   49.2200 H   0  0  0  0  0  0  0  0  0  0  0  0
   63.7230   32.5634   49.1245 H   0  0  0  0  0  0  0  0  0  0  0  0
   64.4641   34.4005   46.9699 H   0  0  0  0  0  0  0  0  0  0  0  0
   64.2295   32.6530   46.8393 H   0  0  0  0  0  0  0  0  0  0  0  0
   62.3388   34.8916   46.2149 H   0  0  0  0  0  0  0  0  0  0  0  0
   62.3212   33.2275   45.5976 H   0  0  0  0  0  0  0  0  0  0  0  0
   57.1937   34.8217   46.2993 H   0  0  0  0  0  0  0  0  0  0  0  0
   55.6460   33.3474   45.0169 H   0  0  0  0  0  0  0  0  0  0  0  0
   56.2930   28.9630   45.9350 H   0  0  0  0  0  0  0  0  0  0  0  0
   55.0303   26.5382   45.8306 H   0  0  0  0  0  0  0  0  0  0  0  0
   55.2552   24.2170   46.7121 H   0  0  0  0  0  0  0  0  0  0  0  0
   57.4837   23.3722   47.4537 H   0  0  0  0  0  0  0  0  0  0  0  0
   59.4873   24.8508   47.3257 H   0  0  0  0  0  0  0  0  0  0  0  0
   61.5348   29.0833   46.1990 H   0  0  0  0  0  0  0  0  0  0  0  0
   60.4484   30.5029   45.9463 H   0  0  0  0  0  0  0  0  0  0  0  0
   62.2575   30.1582   48.0727 H   0  0  0  0  0  0  0  0  0  0  0  0
   60.8907   31.3392   48.0003 H   0  0  0  0  0  0  0  0  0  0  0  0
   60.0040   28.5482   51.5782 H   0  0  0  0  0  0  0  0  0  0  0  0
   63.0193   27.3968   51.4229 H   0  0  0  0  0  0  0  0  0  0  0  0
   62.2558   26.7290   52.6028 H   0  0  0  0  0  0  0  0  0  0  0  0
   61.4885   26.5821   49.4674 H   0  0  0  0  0  0  0  0  0  0  0  0
   60.4585   25.7725   50.3071 H   0  0  0  0  0  0  0  0  0  0  0  0
   58.7549   28.5576   49.6587 H   0  0  0  0  0  0  0  0  0  0  0  0
   58.6082   30.3584   49.5823 H   0  0  0  0  0  0  0  0  0  0  0  0
   57.6079   28.7084   47.6573 H   0  0  0  0  0  0  0  0  0  0  0  0
   58.1926   30.3656   47.3157 H   0  0  0  0  0  0  0  0  0  0  0  0
  1  2  2  0
  2  3  1  0
  3  4  1  0
  4  5  1  0
  5  6  2  0
  6  7  1  0
  7  8  2  0
  8  9  1  0
  9 10  2  0
  9 11  2  0
  9 12  1  0
 12 13  1  0
 13 14  1  0
 14 15  1  0
 15 16  1  0
  8 17  1  0
 17 18  2  0
  2 19  1  0
 19 20  1  0
 20 21  2  0
 21 22  1  0
 22 23  2  0
 23 24  1  0
 24 25  2  0
 25 26  1  0
 26 27  2  0
 26 28  1  0
 28 29  1  0
 29 30  1  0
 30 31  1  0
 31 32  1  0
 32 33  2  0
 32 34  1  0
 34 35  1  0
 35 36  1  0
 31 37  1  0
 37 38  1  0
 18  5  1  0
 25 20  1  0
 38 28  1  0
 16 12  1  0
 36 34  1  0
  4 39  1  0
  4 40  1  0
  6 41  1  0
  7 42  1  0
 13 43  1  0
 13 44  1  0
 14 45  1  0
 14 46  1  0
 15 47  1  0
 15 48  1  0
 16 49  1  0
 16 50  1  0
 17 51  1  0
 18 52  1  0
 19 53  1  0
 21 54  1  0
 22 55  1  0
 23 56  1  0
 24 57  1  0
 29 58  1  0
 29 59  1  0
 30 60  1  0
 30 61  1  0
 34 62  1  0
 35 63  1  0
 35 64  1  0
 36 65  1  0
 36 66  1  0
 37 67  1  0
 37 68  1  0
 38 69  1  0
 38 70  1  0
M  CHG  1   3  -1
M  END
>  <UniqueID>  (76) 
69

>  <SMILES>  (76) 
O=C([N-]Cc1ccc(S(=O)(=O)N2CCCC2)cc1)Nc1ccccc1C(=O)N1CCN(C(=O)C2CC2)CC1

>  <Energy>  (76) 
356.9320362783202

>  <Genealogy>  (76) 
O=C([N-]Cc1ccc(S(=O)(=O)N2CCCC2)cc1)Nc1ccccc1C(=O)N1CCN(C(=O)C2CC2)CC1 (protonated)
O=C([N-]Cc1ccc(S(=O)(=O)N2CCCC2)cc1)Nc1ccccc1C(=O)N1CCN(C(=O)C2CC2)CC1 (3D coordinates assigned)
O=C([N-]Cc1ccc(S(=O)(=O)N2CCCC2)cc1)Nc1ccccc1C(=O)N1CCN(C(=O)C2CC2)CC1 (nonaromatic ring conformer: 356.9320362783202 kcal/mol)

>  <smiles>  (76) 
O=C(NCc1ccc(S(=O)(=O)N2CCCC2)cc1)Nc1ccccc1C(=O)N1CCN(C(=O)C2CC2)CC1

>  <score_type>  (76) 
oracle

>  <origin>  (76) 
adg

>  <m_score__min__energy>  (76) 
-12.06

>  <m_primary>  (76) 
energy

$$$$
77:0
     RDKit          3D

 44 47  0  0  0  0  0  0  0  0999 V2000
   59.6640   24.1820   45.9750 O   0  0  0  0  0  0  0  0  0  0  0  0
   58.5050   24.4850   45.5900 C   0  0  0  0  0  0  0  0  0  0  0  0
   58.0620   25.8850   45.4960 C   0  0  0  0  0  0  0  0  0  0  0  0
   59.1190   27.1440   45.1380 S   0  0  0  0  0  0  0  0  0  0  0  0
   57.9540   28.3410   45.3500 C   0  0  0  0  0  0  0  0  0  0  0  0
   58.1660   29.7620   45.2130 N   0  0  0  0  0  0  0  0  0  0  0  0
   58.1670   30.3960   43.8860 C   0  0  0  0  0  0  0  0  0  0  0  0
   57.5390   31.7840   43.9600 C   0  0  0  0  0  0  0  0  0  0  0  0
   58.2220   32.6120   45.0070 C   0  0  0  0  0  0  0  0  0  0  0  0
   58.3100   34.0030   44.8560 C   0  0  0  0  0  0  0  0  0  0  0  0
   58.9050   34.7830   45.8480 C   0  0  0  0  0  0  0  0  0  0  0  0
   59.4070   34.1920   47.0120 C   0  0  0  0  0  0  0  0  0  0  0  0
   59.9800   35.0290   47.9860 O   0  0  0  0  0  0  0  0  0  0  0  0
   60.5410   34.5920   49.2240 C   0  0  0  0  0  0  0  0  0  0  0  0
   61.9310   34.0600   49.0270 C   0  0  0  0  0  0  0  0  0  0  0  0
   62.7760   33.8430   50.1250 C   0  0  0  0  0  0  0  0  0  0  0  0
   64.0620   33.3400   49.9120 C   0  0  0  0  0  0  0  0  0  0  0  0
   64.4940   33.0700   48.6110 C   0  0  0  0  0  0  0  0  0  0  0  0
   63.6300   33.3100   47.5410 C   0  0  0  0  0  0  0  0  0  0  0  0
   62.3810   33.7970   47.7690 N   0  0  0  0  0  0  0  0  0  0  0  0
   59.3170   32.7970   47.1680 C   0  0  0  0  0  0  0  0  0  0  0  0
   58.7220   32.0030   46.1740 C   0  0  0  0  0  0  0  0  0  0  0  0
   58.5820   30.5170   46.4080 C   0  0  0  0  0  0  0  0  0  0  0  0
   56.7610   27.8030   45.6920 N   0  0  0  0  0  0  0  0  0  0  0  0
   56.7990   26.4450   45.7690 C   0  0  0  0  0  0  0  0  0  0  0  0
   55.5660   25.6950   46.0700 C   0  0  0  0  0  0  0  0  0  0  0  0
   55.5990   24.4670   46.3410 O   0  0  0  0  0  0  0  0  0  0  0  0
   54.3370   26.3360   45.9770 O   0  0  0  0  0  0  0  0  0  0  0  0
   57.8045   23.6821   45.3165 H   0  0  0  0  0  0  0  0  0  0  0  0
   59.2032   30.4855   43.5278 H   0  0  0  0  0  0  0  0  0  0  0  0
   57.5801   29.7751   43.1932 H   0  0  0  0  0  0  0  0  0  0  0  0
   57.6397   32.2798   42.9833 H   0  0  0  0  0  0  0  0  0  0  0  0
   56.4761   31.6810   44.2241 H   0  0  0  0  0  0  0  0  0  0  0  0
   57.9080   34.4818   43.9509 H   0  0  0  0  0  0  0  0  0  0  0  0
   58.9799   35.8722   45.7135 H   0  0  0  0  0  0  0  0  0  0  0  0
   60.5765   35.4411   49.9224 H   0  0  0  0  0  0  0  0  0  0  0  0
   59.9114   33.7859   49.6288 H   0  0  0  0  0  0  0  0  0  0  0  0
   62.4295   34.0668   51.1447 H   0  0  0  0  0  0  0  0  0  0  0  0
   64.7317   33.1573   50.7653 H   0  0  0  0  0  0  0  0  0  0  0  0
   65.5039   32.6726   48.4318 H   0  0  0  0  0  0  0  0  0  0  0  0
   63.9601   33.1049   46.5119 H   0  0  0  0  0  0  0  0  0  0  0  0
   59.7164   32.3235   48.0770 H   0  0  0  0  0  0  0  0  0  0  0  0
   59.5537   30.1260   46.7440 H   0  0  0  0  0  0  0  0  0  0  0  0
   57.7911   30.3850   47.1610 H   0  0  0  0  0  0  0  0  0  0  0  0
  1  2  2  0
  2  3  1  0
  3  4  1  0
  4  5  1  0
  5  6  1  0
  6  7  1  0
  7  8  1  0
  8  9  1  0
  9 10  2  0
 10 11  1  0
 11 12  2  0
 12 13  1  0
 13 14  1  0
 14 15  1  0
 15 16  2  0
 16 17  1  0
 17 18  2  0
 18 19  1  0
 19 20  2  0
 12 21  1  0
 21 22  2  0
 22 23  1  0
  5 24  2  0
 24 25  1  0
 25 26  1  0
 26 27  2  0
 26 28  1  0
 25  3  2  0
 23  6  1  0
 22  9  1  0
 20 15  1  0
  2 29  1  0
  7 30  1  0
  7 31  1  0
  8 32  1  0
  8 33  1  0
 10 34  1  0
 11 35  1  0
 14 36  1  0
 14 37  1  0
 16 38  1  0
 17 39  1  0
 18 40  1  0
 19 41  1  0
 21 42  1  0
 23 43  1  0
 23 44  1  0
M  CHG  1  28  -1
M  END
>  <UniqueID>  (77) 
70

>  <SMILES>  (77) 
O=Cc1sc(N2CCc3ccc(OCc4ccccn4)cc3C2)nc1C(=O)[O-]

>  <Energy>  (77) 
83.88933819726506

>  <Genealogy>  (77) 
O=Cc1sc(N2CCc3ccc(OCc4ccccn4)cc3C2)nc1C(=O)[O-] (protonated)
O=Cc1sc(N2CCc3ccc(OCc4ccccn4)cc3C2)nc1C(=O)[O-] (3D coordinates assigned)
O=Cc1sc(N2CCc3ccc(OCc4ccccn4)cc3C2)nc1C(=O)[O-] (nonaromatic ring conformer: 83.88933819726506 kcal/mol)

>  <smiles>  (77) 
O=Cc1sc(N2CCc3ccc(OCc4ccccn4)cc3C2)nc1C(=O)O

>  <score_type>  (77) 
oracle

>  <origin>  (77) 
adg

>  <m_score__min__energy>  (77) 
-11.35

>  <m_primary>  (77) 
energy

$$$$
78:0
     RDKit          3D

 46 48  0  0  0  0  0  0  0  0999 V2000
   66.7570   33.0510   50.3490 C   0  0  0  0  0  0  0  0  0  0  0  0
   65.4480   33.4650   50.0270 O   0  0  0  0  0  0  0  0  0  0  0  0
   64.7430   32.4120   49.3970 C   0  0  0  0  0  0  0  0  0  0  0  0
   63.4750   32.9250   48.7670 C   0  0  0  0  0  0  0  0  0  0  0  0
   62.4010   33.3220   49.5770 C   0  0  0  0  0  0  0  0  0  0  0  0
   61.2310   33.8240   49.0010 C   0  0  0  0  0  0  0  0  0  0  0  0
   61.1220   33.9500   47.6050 C   0  0  0  0  0  0  0  0  0  0  0  0
   59.8880   34.4890   46.9850 C   0  0  0  0  0  0  0  0  0  0  0  0
   59.8900   35.6580   46.5170 O   0  0  0  0  0  0  0  0  0  0  0  0
   58.6970   33.7000   46.8530 N   0  0  0  0  0  0  0  0  0  0  0  0
   58.6390   32.2730   46.7110 C   0  0  0  0  0  0  0  0  0  0  0  0
   59.3420   31.4200   47.5760 C   0  0  0  0  0  0  0  0  0  0  0  0
   59.2560   30.0360   47.4210 C   0  0  0  0  0  0  0  0  0  0  0  0
   58.4580   29.4820   46.4090 C   0  0  0  0  0  0  0  0  0  0  0  0
   58.3770   28.0570   46.2860 N   0  0  0  0  0  0  0  0  0  0  0  0
   57.1370   27.3090   46.4460 C   0  0  0  0  0  0  0  0  0  0  0  0
   57.4690   25.9710   45.8840 C   0  0  0  0  0  0  0  0  0  0  0  0
   58.7120   25.9430   45.4180 C   0  0  0  0  0  0  0  0  0  0  0  0
   59.3860   27.2560   45.6080 C   0  0  0  0  0  0  0  0  0  0  0  0
   57.7370   30.3330   45.5430 C   0  0  0  0  0  0  0  0  0  0  0  0
   56.7260   29.6900   44.2410 S   0  0  0  0  0  0  0  0  0  0  0  0
   55.1440   29.3220   44.8350 N   0  0  0  0  0  0  0  0  0  0  0  0
   57.3510   28.4410   43.6890 O   0  0  0  0  0  0  0  0  0  0  0  0
   56.5860   30.7080   43.1440 O   0  0  0  0  0  0  0  0  0  0  0  0
   57.8250   31.7240   45.7160 C   0  0  0  0  0  0  0  0  0  0  0  0
   62.1940   33.5400   46.7960 C   0  0  0  0  0  0  0  0  0  0  0  0
   63.3650   33.0380   47.3730 C   0  0  0  0  0  0  0  0  0  0  0  0
   66.8716   33.0148   51.4424 H   0  0  0  0  0  0  0  0  0  0  0  0
   66.9394   32.0513   49.9279 H   0  0  0  0  0  0  0  0  0  0  0  0
   67.4811   33.7640   49.9279 H   0  0  0  0  0  0  0  0  0  0  0  0
   65.3791   31.9665   48.6180 H   0  0  0  0  0  0  0  0  0  0  0  0
   64.4827   31.6572   50.1537 H   0  0  0  0  0  0  0  0  0  0  0  0
   62.4801   33.2378   50.6709 H   0  0  0  0  0  0  0  0  0  0  0  0
   60.3899   34.1225   49.6440 H   0  0  0  0  0  0  0  0  0  0  0  0
   59.9629   31.8441   48.3789 H   0  0  0  0  0  0  0  0  0  0  0  0
   59.8179   29.3747   48.0971 H   0  0  0  0  0  0  0  0  0  0  0  0
   56.8572   27.2323   47.5071 H   0  0  0  0  0  0  0  0  0  0  0  0
   56.2799   27.7848   45.9470 H   0  0  0  0  0  0  0  0  0  0  0  0
   56.7755   25.1175   45.8582 H   0  0  0  0  0  0  0  0  0  0  0  0
   59.1820   25.0642   44.9524 H   0  0  0  0  0  0  0  0  0  0  0  0
   60.2874   27.1497   46.2295 H   0  0  0  0  0  0  0  0  0  0  0  0
   59.7276   27.7045   44.6635 H   0  0  0  0  0  0  0  0  0  0  0  0
   55.2590   28.6560   45.6330 H   0  0  0  0  0  0  0  0  0  0  0  0
   57.2457   32.3902   45.0598 H   0  0  0  0  0  0  0  0  0  0  0  0
   62.1123   33.6141   45.7015 H   0  0  0  0  0  0  0  0  0  0  0  0
   64.2035   32.7304   46.7309 H   0  0  0  0  0  0  0  0  0  0  0  0
  1  2  1  0
  2  3  1  0
  3  4  1  0
  4  5  2  0
  5  6  1  0
  6  7  2  0
  7  8  1  0
  8  9  2  0
  8 10  1  0
 10 11  1  0
 11 12  2  0
 12 13  1  0
 13 14  2  0
 14 15  1  0
 15 16  1  0
 16 17  1  0
 17 18  2  0
 18 19  1  0
 14 20  1  0
 20 21  1  0
 21 22  1  0
 21 23  2  0
 21 24  2  0
 20 25  2  0
  7 26  1  0
 26 27  2  0
 27  4  1  0
 25 11  1  0
 19 15  1  0
  1 28  1  0
  1 29  1  0
  1 30  1  0
  3 31  1  0
  3 32  1  0
  5 33  1  0
  6 34  1  0
 12 35  1  0
 13 36  1  0
 16 37  1  0
 16 38  1  0
 17 39  1  0
 18 40  1  0
 19 41  1  0
 19 42  1  0
 22 43  1  0
 25 44  1  0
 26 45  1  0
 27 46  1  0
M  CHG  2  10  -1  22  -1
M  END
>  <UniqueID>  (78) 
71

>  <SMILES>  (78) 
COCc1ccc(C(=O)[N-]c2ccc(N3CC=CC3)c(S([NH-])(=O)=O)c2)cc1

>  <Energy>  (78) 
68.59238811099517

>  <Genealogy>  (78) 
COCc1ccc(C(=O)[N-]c2ccc(N3CC=CC3)c(S([NH-])(=O)=O)c2)cc1 (protonated)
COCc1ccc(C(=O)[N-]c2ccc(N3CC=CC3)c(S([NH-])(=O)=O)c2)cc1 (3D coordinates assigned)
COCc1ccc(C(=O)[N-]c2ccc(N3CC=CC3)c(S([NH-])(=O)=O)c2)cc1 (nonaromatic ring conformer: 68.59238811099517 kcal/mol)

>  <smiles>  (78) 
COCc1ccc(C(=O)Nc2ccc(N3CC=CC3)c(S(N)(=O)=O)c2)cc1

>  <score_type>  (78) 
oracle

>  <origin>  (78) 
adg

>  <m_score__min__energy>  (78) 
-12.550000000000001

>  <m_primary>  (78) 
energy

$$$$
79:0
     RDKit          3D

 52 54  0  0  0  0  0  0  0  0999 V2000
   68.8040   35.8110   51.6850 C   0  0  0  0  0  0  0  0  0  0  0  0
   67.3190   35.7160   51.8680 C   0  0  0  0  0  0  0  0  0  0  0  0
   66.7030   36.7270   52.3060 O   0  0  0  0  0  0  0  0  0  0  0  0
   66.5840   34.5140   51.5480 N   0  0  0  0  0  0  0  0  0  0  0  0
   67.2270   33.3760   50.8650 C   0  0  0  0  0  0  0  0  0  0  0  0
   66.2660   32.7290   49.8570 C   0  0  0  0  0  0  0  0  0  0  0  0
   64.9050   32.5960   50.3990 N   0  0  0  0  0  0  0  0  0  0  0  0
   63.8320   32.1850   49.5310 C   0  0  0  0  0  0  0  0  0  0  0  0
   62.8690   31.2640   49.9750 C   0  0  0  0  0  0  0  0  0  0  0  0
   61.8410   30.8490   49.1230 C   0  0  0  0  0  0  0  0  0  0  0  0
   61.7500   31.3540   47.8190 C   0  0  0  0  0  0  0  0  0  0  0  0
   60.7020   30.8840   46.9540 N   0  0  0  0  0  0  0  0  0  0  0  0
   59.4590   31.5810   46.7470 C   0  0  0  0  0  0  0  0  0  0  0  0
   59.1950   32.6130   47.4240 O   0  0  0  0  0  0  0  0  0  0  0  0
   58.4710   31.1080   45.7490 C   0  0  0  0  0  0  0  0  0  0  0  0
   58.3090   31.8100   44.5410 C   0  0  0  0  0  0  0  0  0  0  0  0
   57.3850   31.3770   43.5900 C   0  0  0  0  0  0  0  0  0  0  0  0
   56.6050   30.2460   43.8330 C   0  0  0  0  0  0  0  0  0  0  0  0
   56.7380   29.5370   45.0330 C   0  0  0  0  0  0  0  0  0  0  0  0
   55.9060   28.3870   45.2410 N   0  0  0  0  0  0  0  0  0  0  0  0
   56.4330   26.8470   45.8390 S   0  0  0  0  0  0  0  0  0  0  0  0
   57.4360   26.0220   44.6200 C   0  0  0  0  0  0  0  0  0  0  0  0
   55.2240   26.0010   46.1220 O   0  0  0  0  0  0  0  0  0  0  0  0
   57.2040   27.0270   47.1170 O   0  0  0  0  0  0  0  0  0  0  0  0
   57.6660   29.9780   45.9940 C   0  0  0  0  0  0  0  0  0  0  0  0
   62.7300   32.2520   47.3630 C   0  0  0  0  0  0  0  0  0  0  0  0
   63.7570   32.6680   48.2140 C   0  0  0  0  0  0  0  0  0  0  0  0
   64.6400   32.9850   51.7880 C   0  0  0  0  0  0  0  0  0  0  0  0
   65.2010   34.3860   52.0380 C   0  0  0  0  0  0  0  0  0  0  0  0
   69.2935   35.8423   52.6696 H   0  0  0  0  0  0  0  0  0  0  0  0
   69.1614   34.9339   51.1256 H   0  0  0  0  0  0  0  0  0  0  0  0
   69.0467   36.7265   51.1256 H   0  0  0  0  0  0  0  0  0  0  0  0
   68.1206   33.7336   50.3325 H   0  0  0  0  0  0  0  0  0  0  0  0
   67.5045   32.6245   51.6188 H   0  0  0  0  0  0  0  0  0  0  0  0
   66.2282   33.3529   48.9518 H   0  0  0  0  0  0  0  0  0  0  0  0
   66.6410   31.7201   49.6301 H   0  0  0  0  0  0  0  0  0  0  0  0
   62.9239   30.8668   50.9993 H   0  0  0  0  0  0  0  0  0  0  0  0
   61.0978   30.1204   49.4791 H   0  0  0  0  0  0  0  0  0  0  0  0
   60.8530   29.9610   46.4900 H   0  0  0  0  0  0  0  0  0  0  0  0
   58.9152   32.7067   44.3449 H   0  0  0  0  0  0  0  0  0  0  0  0
   57.2709   31.9290   42.6454 H   0  0  0  0  0  0  0  0  0  0  0  0
   55.8807   29.9091   43.0768 H   0  0  0  0  0  0  0  0  0  0  0  0
   58.1906   25.4013   45.1252 H   0  0  0  0  0  0  0  0  0  0  0  0
   56.7979   25.3840   43.9910 H   0  0  0  0  0  0  0  0  0  0  0  0
   57.9389   26.7712   43.9910 H   0  0  0  0  0  0  0  0  0  0  0  0
   57.7640   29.4354   46.9458 H   0  0  0  0  0  0  0  0  0  0  0  0
   62.6883   32.6294   46.3306 H   0  0  0  0  0  0  0  0  0  0  0  0
   64.5129   33.3794   47.8499 H   0  0  0  0  0  0  0  0  0  0  0  0
   63.5549   32.9864   51.9683 H   0  0  0  0  0  0  0  0  0  0  0  0
   65.1225   32.2686   52.4691 H   0  0  0  0  0  0  0  0  0  0  0  0
   64.5691   35.1211   51.5181 H   0  0  0  0  0  0  0  0  0  0  0  0
   65.2035   34.5660   53.1232 H   0  0  0  0  0  0  0  0  0  0  0  0
  1  2  1  0
  2  3  2  0
  2  4  1  0
  4  5  1  0
  5  6  1  0
  6  7  1  0
  7  8  1  0
  8  9  2  0
  9 10  1  0
 10 11  2  0
 11 12  1  0
 12 13  1  0
 13 14  2  0
 13 15  1  0
 15 16  2  0
 16 17  1  0
 17 18  2  0
 18 19  1  0
 19 20  1  0
 20 21  1  0
 21 22  1  0
 21 23  2  0
 21 24  2  0
 19 25  2  0
 11 26  1  0
 26 27  2  0
  7 28  1  0
 28 29  1  0
 29  4  1  0
 27  8  1  0
 25 15  1  0
  1 30  1  0
  1 31  1  0
  1 32  1  0
  5 33  1  0
  5 34  1  0
  6 35  1  0
  6 36  1  0
  9 37  1  0
 10 38  1  0
 12 39  1  0
 16 40  1  0
 17 41  1  0
 18 42  1  0
 22 43  1  0
 22 44  1  0
 22 45  1  0
 25 46  1  0
 26 47  1  0
 27 48  1  0
 28 49  1  0
 28 50  1  0
 29 51  1  0
 29 52  1  0
M  CHG  1  20  -1
M  END
>  <UniqueID>  (79) 
72

>  <SMILES>  (79) 
CC(=O)N1CCN(c2ccc(NC(=O)c3cccc([N-]S(C)(=O)=O)c3)cc2)CC1

>  <Energy>  (79) 
62.86869278779119

>  <Genealogy>  (79) 
CC(=O)N1CCN(c2ccc(NC(=O)c3cccc([N-]S(C)(=O)=O)c3)cc2)CC1 (protonated)
CC(=O)N1CCN(c2ccc(NC(=O)c3cccc([N-]S(C)(=O)=O)c3)cc2)CC1 (3D coordinates assigned)
CC(=O)N1CCN(c2ccc(NC(=O)c3cccc([N-]S(C)(=O)=O)c3)cc2)CC1 (nonaromatic ring conformer: 62.86869278779119 kcal/mol)

>  <smiles>  (79) 
CC(=O)N1CCN(c2ccc(NC(=O)c3cccc(NS(C)(=O)=O)c3)cc2)CC1

>  <score_type>  (79) 
oracle

>  <origin>  (79) 
adg

>  <m_score__min__energy>  (79) 
-10.09

>  <m_primary>  (79) 
energy

$$$$
80:0
     RDKit          3D

 91 96  0  0  0  0  0  0  0  0999 V2000
   58.2120   32.2670   43.5670 O   0  0  0  0  0  0  0  0  0  0  0  0
   58.3260   31.8170   44.7410 C   0  0  0  0  0  0  0  0  0  0  0  0
   58.6830   32.7450   45.8320 C   0  0  0  0  0  0  0  0  0  0  0  0
   59.1070   34.0490   45.5360 C   0  0  0  0  0  0  0  0  0  0  0  0
   59.4180   34.9370   46.5670 C   0  0  0  0  0  0  0  0  0  0  0  0
   59.3120   34.5340   47.8990 C   0  0  0  0  0  0  0  0  0  0  0  0
   58.9130   33.2210   48.2190 C   0  0  0  0  0  0  0  0  0  0  0  0
   58.7800   32.8050   49.6420 C   0  0  0  0  0  0  0  0  0  0  0  0
   59.2720   33.6210   50.6720 C   0  0  0  0  0  0  0  0  0  0  0  0
   59.0850   33.2490   52.0030 C   0  0  0  0  0  0  0  0  0  0  0  0
   58.4270   32.0940   52.3230 N   0  0  0  0  0  0  0  0  0  0  0  0
   58.2400   31.7560   53.7440 C   0  0  0  0  0  0  0  0  0  0  0  0
   59.6000   31.5720   54.4340 C   0  0  0  0  0  0  0  0  0  0  0  0
   60.5010   30.5940   53.7140 C   0  0  0  0  0  0  0  0  0  0  0  0
   60.0590   29.5180   53.3300 O   0  0  0  0  0  0  0  0  0  0  0  0
   61.8910   30.9300   53.4690 N   0  0  1  0  0  0  0  0  0  0  0  0
   62.4810   29.9350   52.5370 C   0  0  0  0  0  0  0  0  0  0  0  0
   63.7770   30.4520   51.9000 C   0  0  0  0  0  0  0  0  0  0  0  0
   63.5640   31.7580   51.0720 C   0  0  1  0  0  0  0  0  0  0  0  0
   63.6680   31.4560   49.6080 N   0  0  0  0  0  0  0  0  0  0  0  0
   62.4170   31.1910   48.8380 C   0  0  0  0  0  0  0  0  0  0  0  0
   61.8540   32.4190   48.0840 C   0  0  0  0  0  0  0  0  0  0  0  0
   62.3220   33.7320   48.7010 C   0  0  0  0  0  0  0  0  0  0  0  0
   63.8570   33.8090   48.7250 C   0  0  0  0  0  0  0  0  0  0  0  0
   64.5280   32.4270   48.8890 C   0  0  0  0  0  0  0  0  0  0  0  0
   62.2390   32.4520   51.4950 C   0  0  0  0  0  0  0  0  0  0  0  0
   62.0270   32.3410   53.0130 C   0  0  0  0  0  0  0  0  0  0  0  0
   57.9780   31.2560   51.3310 C   0  0  0  0  0  0  0  0  0  0  0  0
   57.4070   30.1670   51.6160 O   0  0  0  0  0  0  0  0  0  0  0  0
   58.1420   31.6030   49.9860 C   0  0  0  0  0  0  0  0  0  0  0  0
   58.6180   32.3250   47.1720 C   0  0  0  0  0  0  0  0  0  0  0  0
   58.1010   30.4140   44.9960 N   0  0  0  0  0  0  0  0  0  0  0  0
   58.7410   29.7430   46.1310 C   0  0  0  0  0  0  0  0  0  0  0  0
   59.0950   28.3100   45.7490 C   0  0  0  0  0  0  0  0  0  0  0  0
   57.8940   27.5860   45.2620 N   0  0  0  0  0  0  0  0  0  0  0  0
   58.2160   26.1320   45.0870 C   0  0  0  0  0  0  0  0  0  0  0  0
   57.0900   25.2810   44.4460 C   0  0  0  0  0  0  0  0  0  0  0  0
   55.8640   25.1560   45.3810 C   0  0  0  0  0  0  0  0  0  0  0  0
   56.0830   25.7630   46.6420 O   0  0  0  0  0  0  0  0  0  0  0  0
   57.2240   25.1950   47.2590 C   0  0  0  0  0  0  0  0  0  0  0  0
   58.5180   25.4920   46.4660 C   0  0  0  0  0  0  0  0  0  0  0  0
   57.4040   28.2590   44.0320 C   0  0  0  0  0  0  0  0  0  0  0  0
   57.0070   29.7120   44.3240 C   0  0  0  0  0  0  0  0  0  0  0  0
   59.1946   34.3727   44.4884 H   0  0  0  0  0  0  0  0  0  0  0  0
   59.7481   35.9589   46.3287 H   0  0  0  0  0  0  0  0  0  0  0  0
   59.5416   35.2466   48.7049 H   0  0  0  0  0  0  0  0  0  0  0  0
   59.8044   34.5527   50.4300 H   0  0  0  0  0  0  0  0  0  0  0  0
   59.4720   33.8934   52.8061 H   0  0  0  0  0  0  0  0  0  0  0  0
   57.6887   32.5683   54.2403 H   0  0  0  0  0  0  0  0  0  0  0  0
   57.6734   30.8159   53.8156 H   0  0  0  0  0  0  0  0  0  0  0  0
   60.1058   32.5479   54.4774 H   0  0  0  0  0  0  0  0  0  0  0  0
   59.4072   31.1641   55.4372 H   0  0  0  0  0  0  0  0  0  0  0  0
   62.4090   30.8470   54.3760 H   0  0  0  0  0  0  0  0  0  0  0  0
   61.7542   29.7182   51.7403 H   0  0  0  0  0  0  0  0  0  0  0  0
   62.7197   29.0275   53.1110 H   0  0  0  0  0  0  0  0  0  0  0  0
   64.1756   29.6737   51.2327 H   0  0  0  0  0  0  0  0  0  0  0  0
   64.4766   30.6870   52.7157 H   0  0  0  0  0  0  0  0  0  0  0  0
   64.3598   32.4864   51.2867 H   0  0  0  0  0  0  0  0  0  0  0  0
   62.6282   30.4025   48.1006 H   0  0  0  0  0  0  0  0  0  0  0  0
   61.6532   30.8992   49.5739 H   0  0  0  0  0  0  0  0  0  0  0  0
   62.1909   32.3784   47.0376 H   0  0  0  0  0  0  0  0  0  0  0  0
   60.7565   32.3846   48.1504 H   0  0  0  0  0  0  0  0  0  0  0  0
   61.9284   34.5699   48.1068 H   0  0  0  0  0  0  0  0  0  0  0  0
   61.9506   33.7871   49.7349 H   0  0  0  0  0  0  0  0  0  0  0  0
   64.2004   34.2556   47.7802 H   0  0  0  0  0  0  0  0  0  0  0  0
   64.1424   34.4188   49.5949 H   0  0  0  0  0  0  0  0  0  0  0  0
   64.7545   32.0248   47.8905 H   0  0  0  0  0  0  0  0  0  0  0  0
   65.4407   32.5691   49.4864 H   0  0  0  0  0  0  0  0  0  0  0  0
   61.3973   31.9692   50.9768 H   0  0  0  0  0  0  0  0  0  0  0  0
   62.2953   33.5164   51.2231 H   0  0  0  0  0  0  0  0  0  0  0  0
   61.1116   32.8883   53.2821 H   0  0  0  0  0  0  0  0  0  0  0  0
   62.9132   32.7672   53.5059 H   0  0  0  0  0  0  0  0  0  0  0  0
   57.7705   30.9330   49.1967 H   0  0  0  0  0  0  0  0  0  0  0  0
   58.3344   31.2881   47.4053 H   0  0  0  0  0  0  0  0  0  0  0  0
   59.6578   30.2849   46.4064 H   0  0  0  0  0  0  0  0  0  0  0  0
   58.0477   29.7313   46.9849 H   0  0  0  0  0  0  0  0  0  0  0  0
   59.8548   28.3253   44.9538 H   0  0  0  0  0  0  0  0  0  0  0  0
   59.4843   27.7923   46.6381 H   0  0  0  0  0  0  0  0  0  0  0  0
   59.0773   26.1230   44.4028 H   0  0  0  0  0  0  0  0  0  0  0  0
   56.7743   25.7574   43.5061 H   0  0  0  0  0  0  0  0  0  0  0  0
   57.4857   24.2711   44.2628 H   0  0  0  0  0  0  0  0  0  0  0  0
   55.0019   25.6414   44.9001 H   0  0  0  0  0  0  0  0  0  0  0  0
   55.6798   24.0850   45.5515 H   0  0  0  0  0  0  0  0  0  0  0  0
   57.3246   25.6115   48.2721 H   0  0  0  0  0  0  0  0  0  0  0  0
   57.0866   24.1041   47.2899 H   0  0  0  0  0  0  0  0  0  0  0  0
   59.1424   26.1840   47.0503 H   0  0  0  0  0  0  0  0  0  0  0  0
   59.0385   24.5385   46.2930 H   0  0  0  0  0  0  0  0  0  0  0  0
   58.2011   28.2488   43.2740 H   0  0  0  0  0  0  0  0  0  0  0  0
   56.5182   27.7196   43.6654 H   0  0  0  0  0  0  0  0  0  0  0  0
   56.7764   30.2221   43.3771 H   0  0  0  0  0  0  0  0  0  0  0  0
   56.1240   29.7159   44.9800 H   0  0  0  0  0  0  0  0  0  0  0  0
  1  2  2  0
  2  3  1  0
  3  4  2  0
  4  5  1  0
  5  6  2  0
  6  7  1  0
  7  8  1  0
  8  9  1  0
  9 10  2  0
 10 11  1  0
 11 12  1  0
 12 13  1  0
 13 14  1  0
 14 15  2  0
 14 16  1  0
 16 17  1  0
 17 18  1  0
 18 19  1  0
 19 20  1  0
 20 21  1  0
 21 22  1  0
 22 23  1  0
 23 24  1  0
 24 25  1  0
 19 26  1  0
 26 27  1  0
 11 28  1  0
 28 29  2  0
 28 30  1  0
  7 31  2  0
  2 32  1  0
 32 33  1  0
 33 34  1  0
 34 35  1  0
 35 36  1  0
 36 37  1  0
 37 38  1  0
 38 39  1  0
 39 40  1  0
 40 41  1  0
 35 42  1  0
 42 43  1  0
 31  3  1  0
 43 32  1  0
 30  8  2  0
 41 36  1  0
 27 16  1  0
 25 20  1  0
  4 44  1  0
  5 45  1  0
  6 46  1  0
  9 47  1  0
 10 48  1  0
 12 49  1  0
 12 50  1  0
 13 51  1  0
 13 52  1  0
 16 53  1  1
 17 54  1  0
 17 55  1  0
 18 56  1  0
 18 57  1  0
 19 58  1  1
 21 59  1  0
 21 60  1  0
 22 61  1  0
 22 62  1  0
 23 63  1  0
 23 64  1  0
 24 65  1  0
 24 66  1  0
 25 67  1  0
 25 68  1  0
 26 69  1  0
 26 70  1  0
 27 71  1  0
 27 72  1  0
 30 73  1  0
 31 74  1  0
 33 75  1  0
 33 76  1  0
 34 77  1  0
 34 78  1  0
 36 79  1  0
 37 80  1  0
 37 81  1  0
 38 82  1  0
 38 83  1  0
 40 84  1  0
 40 85  1  0
 41 86  1  0
 41 87  1  0
 42 88  1  0
 42 89  1  0
 43 90  1  0
 43 91  1  0
M  CHG  1  16   1
M  END
>  <UniqueID>  (80) 
73

>  <SMILES>  (80) 
O=C(c1cccc(-c2ccn(CCC(=O)[NH+]3CCC(N4CCCCC4)CC3)c(=O)c2)c1)N1CCN(C2CCOCC2)CC1

>  <Energy>  (80) 
149.56393346285506

>  <Genealogy>  (80) 
O=C(c1cccc(-c2ccn(CCC(=O)[NH+]3CCC(N4CCCCC4)CC3)c(=O)c2)c1)N1CCN(C2CCOCC2)CC1 (protonated)
O=C(c1cccc(-c2ccn(CCC(=O)[NH+]3CCC(N4CCCCC4)CC3)c(=O)c2)c1)N1CCN(C2CCOCC2)CC1 (3D coordinates assigned)
O=C(c1cccc(-c2ccn(CCC(=O)[NH+]3CCC(N4CCCCC4)CC3)c(=O)c2)c1)N1CCN(C2CCOCC2)CC1 (nonaromatic ring conformer: 149.56393346285506 kcal/mol)

>  <smiles>  (80) 
O=C(CCn1ccc(-c2cccc(C(=O)N3CCN(C4CCOCC4)CC3)c2)cc1=O)N1CCC(N2CCCCC2)CC1

>  <score_type>  (80) 
oracle

>  <origin>  (80) 
adg

>  <m_score__min__energy>  (80) 
-9.5

>  <m_primary>  (80) 
energy

$$$$
81:0
     RDKit          3D

 58 60  0  0  0  0  0  0  0  0999 V2000
   58.7290   31.5290   49.9720 C   0  0  0  0  0  0  0  0  0  0  0  0
   58.7790   31.8210   48.5820 O   0  0  0  0  0  0  0  0  0  0  0  0
   59.4520   31.0150   47.6610 C   0  0  0  0  0  0  0  0  0  0  0  0
   60.4220   30.3090   48.0370 O   0  0  0  0  0  0  0  0  0  0  0  0
   59.0490   31.0420   46.2390 C   0  0  0  0  0  0  0  0  0  0  0  0
   59.2330   29.9960   45.3400 C   0  0  0  0  0  0  0  0  0  0  0  0
   59.8060   28.6460   45.6490 C   0  0  0  0  0  0  0  0  0  0  0  0
   58.7080   30.3090   44.1420 N   0  0  0  0  0  0  0  0  0  0  0  0
   58.1880   31.5450   44.2400 C   0  0  0  0  0  0  0  0  0  0  0  0
   57.4170   32.1840   43.1250 C   0  0  0  0  0  0  0  0  0  0  0  0
   58.3710   32.0450   45.5310 C   0  0  0  0  0  0  0  0  0  0  0  0
   57.8040   33.6280   46.1180 S   0  0  0  0  0  0  0  0  0  0  0  0
   57.1210   34.3440   44.9890 O   0  0  0  0  0  0  0  0  0  0  0  0
   56.7760   33.4430   47.1970 O   0  0  0  0  0  0  0  0  0  0  0  0
   59.0980   34.6560   46.7010 N   0  0  0  0  0  0  0  0  0  0  0  0
   60.3240   34.5680   45.8890 C   0  0  0  0  0  0  0  0  0  0  0  0
   61.3090   33.4790   46.3710 C   0  0  0  0  0  0  0  0  0  0  0  0
   61.3850   33.3300   47.8530 N   0  0  0  0  0  0  0  0  0  0  0  0
   62.7820   33.1550   48.3190 C   0  0  0  0  0  0  0  0  0  0  0  0
   62.8610   32.2240   49.5070 C   0  0  0  0  0  0  0  0  0  0  0  0
   61.8410   31.5450   49.8120 O   0  0  0  0  0  0  0  0  0  0  0  0
   64.0420   32.1390   50.3280 N   0  0  0  0  0  0  0  0  0  0  0  0
   63.8720   32.0740   51.7850 C   0  0  0  0  0  0  0  0  0  0  0  0
   65.1390   31.5550   52.4720 C   0  0  0  0  0  0  0  0  0  0  0  0
   66.2810   32.2250   51.9890 O   0  0  0  0  0  0  0  0  0  0  0  0
   66.4890   31.8750   50.6370 C   0  0  0  0  0  0  0  0  0  0  0  0
   65.3650   32.4170   49.7490 C   0  0  0  0  0  0  0  0  0  0  0  0
   60.7670   34.4670   48.5630 C   0  0  0  0  0  0  0  0  0  0  0  0
   59.2920   34.5970   48.1640 C   0  0  0  0  0  0  0  0  0  0  0  0
   58.8873   32.4534   50.5468 H   0  0  0  0  0  0  0  0  0  0  0  0
   57.7452   31.1054   50.2225 H   0  0  0  0  0  0  0  0  0  0  0  0
   59.5158   30.8022   50.2225 H   0  0  0  0  0  0  0  0  0  0  0  0
   59.8626   28.5126   46.7394 H   0  0  0  0  0  0  0  0  0  0  0  0
   59.1612   27.8664   45.2172 H   0  0  0  0  0  0  0  0  0  0  0  0
   60.8147   28.5682   45.2172 H   0  0  0  0  0  0  0  0  0  0  0  0
   58.6680   29.6880   43.3040 H   0  0  0  0  0  0  0  0  0  0  0  0
   56.6343   32.8327   43.5452 H   0  0  0  0  0  0  0  0  0  0  0  0
   58.0985   32.7857   42.5057 H   0  0  0  0  0  0  0  0  0  0  0  0
   56.9523   31.4026   42.5057 H   0  0  0  0  0  0  0  0  0  0  0  0
   60.0381   34.3433   44.8509 H   0  0  0  0  0  0  0  0  0  0  0  0
   60.8416   35.5343   45.9808 H   0  0  0  0  0  0  0  0  0  0  0  0
   60.9929   32.5158   45.9441 H   0  0  0  0  0  0  0  0  0  0  0  0
   62.3094   33.7892   46.0348 H   0  0  0  0  0  0  0  0  0  0  0  0
   60.8460   32.4710   48.1190 H   0  0  0  0  0  0  0  0  0  0  0  0
   63.3824   32.7369   47.4976 H   0  0  0  0  0  0  0  0  0  0  0  0
   63.1672   34.1383   48.6269 H   0  0  0  0  0  0  0  0  0  0  0  0
   63.6460   33.0815   52.1644 H   0  0  0  0  0  0  0  0  0  0  0  0
   63.0481   31.3798   52.0072 H   0  0  0  0  0  0  0  0  0  0  0  0
   65.0551   31.7211   53.5561 H   0  0  0  0  0  0  0  0  0  0  0  0
   65.2425   30.4814   52.2558 H   0  0  0  0  0  0  0  0  0  0  0  0
   67.4478   32.2959   50.3002 H   0  0  0  0  0  0  0  0  0  0  0  0
   66.4996   30.7779   50.5573 H   0  0  0  0  0  0  0  0  0  0  0  0
   65.4871   33.5049   49.6413 H   0  0  0  0  0  0  0  0  0  0  0  0
   65.4262   31.9184   48.7704 H   0  0  0  0  0  0  0  0  0  0  0  0
   60.8373   34.3003   49.6480 H   0  0  0  0  0  0  0  0  0  0  0  0
   61.2967   35.3922   48.2920 H   0  0  0  0  0  0  0  0  0  0  0  0
   58.7438   33.7278   48.5565 H   0  0  0  0  0  0  0  0  0  0  0  0
   58.9166   35.5408   48.5862 H   0  0  0  0  0  0  0  0  0  0  0  0
  1  2  1  0
  2  3  1  0
  3  4  2  0
  3  5  1  0
  5  6  2  0
  6  7  1  0
  6  8  1  0
  8  9  1  0
  9 10  1  0
  9 11  2  0
 11 12  1  0
 12 13  2  0
 12 14  2  0
 12 15  1  0
 15 16  1  0
 16 17  1  0
 17 18  1  0
 18 19  1  0
 19 20  1  0
 20 21  2  0
 20 22  1  0
 22 23  1  0
 23 24  1  0
 24 25  1  0
 25 26  1  0
 26 27  1  0
 18 28  1  0
 28 29  1  0
 11  5  1  0
 29 15  1  0
 27 22  1  0
  1 30  1  0
  1 31  1  0
  1 32  1  0
  7 33  1  0
  7 34  1  0
  7 35  1  0
  8 36  1  0
 10 37  1  0
 10 38  1  0
 10 39  1  0
 16 40  1  0
 16 41  1  0
 17 42  1  0
 17 43  1  0
 18 44  1  0
 19 45  1  0
 19 46  1  0
 23 47  1  0
 23 48  1  0
 24 49  1  0
 24 50  1  0
 26 51  1  0
 26 52  1  0
 27 53  1  0
 27 54  1  0
 28 55  1  0
 28 56  1  0
 29 57  1  0
 29 58  1  0
M  CHG  1  18   1
M  END
>  <UniqueID>  (81) 
74

>  <SMILES>  (81) 
COC(=O)c1c(C)[nH]c(C)c1S(=O)(=O)N1CC[NH+](CC(=O)N2CCOCC2)CC1

>  <Energy>  (81) 
96.24964800626552

>  <Genealogy>  (81) 
COC(=O)c1c(C)[nH]c(C)c1S(=O)(=O)N1CC[NH+](CC(=O)N2CCOCC2)CC1 (protonated)
COC(=O)c1c(C)[nH]c(C)c1S(=O)(=O)N1CC[NH+](CC(=O)N2CCOCC2)CC1 (3D coordinates assigned)
COC(=O)c1c(C)[nH]c(C)c1S(=O)(=O)N1CC[NH+](CC(=O)N2CCOCC2)CC1 (nonaromatic ring conformer: 96.24964800626552 kcal/mol)

>  <smiles>  (81) 
COC(=O)c1c(C)[nH]c(C)c1S(=O)(=O)N1CCN(CC(=O)N2CCOCC2)CC1

>  <score_type>  (81) 
oracle

>  <origin>  (81) 
adg

>  <m_score__min__energy>  (81) 
-6.4800000000000004

>  <m_primary>  (81) 
energy

$$$$
82:0
     RDKit          3D

 53 56  0  0  0  0  0  0  0  0999 V2000
   59.6460   35.2790   46.5780 C   0  0  0  0  0  0  0  0  0  0  0  0
   58.9010   34.4800   45.5510 C   0  0  0  0  0  0  0  0  0  0  0  0
   58.3610   35.0930   44.5900 O   0  0  0  0  0  0  0  0  0  0  0  0
   58.7830   32.9990   45.6410 C   0  0  0  0  0  0  0  0  0  0  0  0
   57.8910   32.3100   44.7970 C   0  0  0  0  0  0  0  0  0  0  0  0
   57.7690   30.9210   44.8700 C   0  0  0  0  0  0  0  0  0  0  0  0
   58.5330   30.1810   45.7880 C   0  0  0  0  0  0  0  0  0  0  0  0
   58.4080   28.7440   45.8570 N   0  0  0  0  0  0  0  0  0  0  0  0
   59.1800   27.9970   46.8660 C   0  0  0  0  0  0  0  0  0  0  0  0
   58.6140   26.5920   47.0800 C   0  0  0  0  0  0  0  0  0  0  0  0
   58.4410   25.9190   45.7890 N   0  0  0  0  0  0  0  0  0  0  0  0
   58.8960   24.5670   45.6250 C   0  0  0  0  0  0  0  0  0  0  0  0
   60.0820   24.2750   45.9380 O   0  0  0  0  0  0  0  0  0  0  0  0
   57.9950   23.5110   45.1060 C   0  0  0  0  0  0  0  0  0  0  0  0
   58.4890   22.5010   44.2640 C   0  0  0  0  0  0  0  0  0  0  0  0
   57.6350   21.5110   43.7720 C   0  0  0  0  0  0  0  0  0  0  0  0
   56.2780   21.5300   44.0980 C   0  0  0  0  0  0  0  0  0  0  0  0
   55.7600   22.5560   44.9060 C   0  0  0  0  0  0  0  0  0  0  0  0
   54.3740   22.5930   45.2730 N   0  0  0  0  0  0  0  0  0  0  0  0
   53.5360   23.7570   45.2700 C   0  0  0  0  0  0  0  0  0  0  0  0
   54.0250   24.8590   45.6300 O   0  0  0  0  0  0  0  0  0  0  0  0
   52.1390   23.7140   44.8060 C   0  0  0  0  0  0  0  0  0  0  0  0
   51.3390   24.7990   44.4910 C   0  0  0  0  0  0  0  0  0  0  0  0
   50.1190   24.2690   44.1300 C   0  0  0  0  0  0  0  0  0  0  0  0
   50.2440   22.9000   44.2510 C   0  0  0  0  0  0  0  0  0  0  0  0
   51.4570   22.6010   44.6580 O   0  0  0  0  0  0  0  0  0  0  0  0
   56.6240   23.5320   45.4180 C   0  0  0  0  0  0  0  0  0  0  0  0
   57.9120   26.6530   44.6320 C   0  0  0  0  0  0  0  0  0  0  0  0
   57.4120   28.0470   45.0290 C   0  0  0  0  0  0  0  0  0  0  0  0
   59.4260   30.8660   46.6300 C   0  0  0  0  0  0  0  0  0  0  0  0
   59.5510   32.2560   46.5570 C   0  0  0  0  0  0  0  0  0  0  0  0
   59.3438   34.9548   47.5848 H   0  0  0  0  0  0  0  0  0  0  0  0
   60.7273   35.1217   46.4513 H   0  0  0  0  0  0  0  0  0  0  0  0
   59.4135   36.3467   46.4513 H   0  0  0  0  0  0  0  0  0  0  0  0
   57.2837   32.8721   44.0723 H   0  0  0  0  0  0  0  0  0  0  0  0
   57.0673   30.4005   44.2017 H   0  0  0  0  0  0  0  0  0  0  0  0
   60.2235   27.9140   46.5279 H   0  0  0  0  0  0  0  0  0  0  0  0
   59.1187   28.5420   47.8195 H   0  0  0  0  0  0  0  0  0  0  0  0
   59.3089   26.0105   47.7037 H   0  0  0  0  0  0  0  0  0  0  0  0
   57.6377   26.6685   47.5810 H   0  0  0  0  0  0  0  0  0  0  0  0
   59.5544   22.4896   43.9905 H   0  0  0  0  0  0  0  0  0  0  0  0
   58.0330   20.7145   43.1261 H   0  0  0  0  0  0  0  0  0  0  0  0
   55.6123   20.7395   43.7213 H   0  0  0  0  0  0  0  0  0  0  0  0
   51.6187   25.8624   44.5223 H   0  0  0  0  0  0  0  0  0  0  0  0
   49.2256   24.8252   43.8099 H   0  0  0  0  0  0  0  0  0  0  0  0
   49.4489   22.1700   44.0389 H   0  0  0  0  0  0  0  0  0  0  0  0
   56.2262   24.3230   46.0708 H   0  0  0  0  0  0  0  0  0  0  0  0
   58.7095   26.7599   43.8820 H   0  0  0  0  0  0  0  0  0  0  0  0
   57.0624   26.0859   44.2237 H   0  0  0  0  0  0  0  0  0  0  0  0
   57.2246   28.6355   44.1187 H   0  0  0  0  0  0  0  0  0  0  0  0
   56.4854   27.9361   45.6114 H   0  0  0  0  0  0  0  0  0  0  0  0
   60.0327   30.3022   47.3539 H   0  0  0  0  0  0  0  0  0  0  0  0
   60.2569   32.7747   47.2223 H   0  0  0  0  0  0  0  0  0  0  0  0
  1  2  1  0
  2  3  2  0
  2  4  1  0
  4  5  2  0
  5  6  1  0
  6  7  2  0
  7  8  1  0
  8  9  1  0
  9 10  1  0
 10 11  1  0
 11 12  1  0
 12 13  2  0
 12 14  1  0
 14 15  2  0
 15 16  1  0
 16 17  2  0
 17 18  1  0
 18 19  1  0
 19 20  1  0
 20 21  2  0
 20 22  1  0
 22 23  2  0
 23 24  1  0
 24 25  2  0
 25 26  1  0
 18 27  2  0
 11 28  1  0
 28 29  1  0
  7 30  1  0
 30 31  2  0
 31  4  1  0
 29  8  1  0
 27 14  1  0
 26 22  1  0
  1 32  1  0
  1 33  1  0
  1 34  1  0
  5 35  1  0
  6 36  1  0
  9 37  1  0
  9 38  1  0
 10 39  1  0
 10 40  1  0
 15 41  1  0
 16 42  1  0
 17 43  1  0
 23 44  1  0
 24 45  1  0
 25 46  1  0
 27 47  1  0
 28 48  1  0
 28 49  1  0
 29 50  1  0
 29 51  1  0
 30 52  1  0
 31 53  1  0
M  CHG  1  19  -1
M  END
>  <UniqueID>  (82) 
75

>  <SMILES>  (82) 
CC(=O)c1ccc(N2CCN(C(=O)c3cccc([N-]C(=O)c4ccco4)c3)CC2)cc1

>  <Energy>  (82) 
97.23207579225488

>  <Genealogy>  (82) 
CC(=O)c1ccc(N2CCN(C(=O)c3cccc([N-]C(=O)c4ccco4)c3)CC2)cc1 (protonated)
CC(=O)c1ccc(N2CCN(C(=O)c3cccc([N-]C(=O)c4ccco4)c3)CC2)cc1 (3D coordinates assigned)
CC(=O)c1ccc(N2CCN(C(=O)c3cccc([N-]C(=O)c4ccco4)c3)CC2)cc1 (nonaromatic ring conformer: 97.23207579225488 kcal/mol)

>  <smiles>  (82) 
CC(=O)c1ccc(N2CCN(C(=O)c3cccc(NC(=O)c4ccco4)c3)CC2)cc1

>  <score_type>  (82) 
oracle

>  <origin>  (82) 
adg

>  <m_score__min__energy>  (82) 
-10.41

>  <m_primary>  (82) 
energy

$$$$
83:0
     RDKit          3D

 45 47  0  0  0  0  0  0  0  0999 V2000
   61.1680   28.5860   44.8210 C   0  0  0  0  0  0  0  0  0  0  0  0
   60.1630   28.7320   45.8190 O   0  0  0  0  0  0  0  0  0  0  0  0
   59.1930   27.7610   46.1230 C   0  0  0  0  0  0  0  0  0  0  0  0
   59.3350   26.8890   47.2230 C   0  0  0  0  0  0  0  0  0  0  0  0
   58.3440   25.9470   47.5080 C   0  0  0  0  0  0  0  0  0  0  0  0
   57.2030   25.8650   46.7090 C   0  0  0  0  0  0  0  0  0  0  0  0
   57.0510   26.7210   45.6170 C   0  0  0  0  0  0  0  0  0  0  0  0
   58.0470   27.6630   45.3070 C   0  0  0  0  0  0  0  0  0  0  0  0
   57.8500   28.6010   44.1430 C   0  0  0  0  0  0  0  0  0  0  0  0
   58.3830   29.9270   44.4540 N   0  0  0  0  0  0  0  0  0  0  0  0
   57.5210   31.0030   44.8540 C   0  0  0  0  0  0  0  0  0  0  0  0
   56.2720   30.8310   44.8480 O   0  0  0  0  0  0  0  0  0  0  0  0
   58.0920   32.3090   45.2730 C   0  0  0  0  0  0  0  0  0  0  0  0
   57.8350   33.4440   44.4790 C   0  0  0  0  0  0  0  0  0  0  0  0
   58.2820   34.7060   44.8720 C   0  0  0  0  0  0  0  0  0  0  0  0
   58.9820   34.8590   46.0660 C   0  0  0  0  0  0  0  0  0  0  0  0
   59.2560   33.7480   46.8620 C   0  0  0  0  0  0  0  0  0  0  0  0
   58.8460   32.4650   46.4660 C   0  0  0  0  0  0  0  0  0  0  0  0
   59.2380   31.0750   47.5480 S   0  0  0  0  0  0  0  0  0  0  0  0
   60.8920   31.6770   47.9500 C   0  0  0  0  0  0  0  0  0  0  0  0
   61.9780   31.3130   47.1380 C   0  0  0  0  0  0  0  0  0  0  0  0
   63.2640   31.7750   47.4290 C   0  0  0  0  0  0  0  0  0  0  0  0
   63.4800   32.5930   48.5380 C   0  0  0  0  0  0  0  0  0  0  0  0
   62.4110   32.9460   49.3660 C   0  0  0  0  0  0  0  0  0  0  0  0
   61.1170   32.4890   49.0820 C   0  0  0  0  0  0  0  0  0  0  0  0
   60.0420   32.8410   49.9770 C   0  0  0  0  0  0  0  0  0  0  0  0
   59.1790   33.1220   50.6940 N   0  0  0  0  0  0  0  0  0  0  0  0
   62.1462   28.4439   45.3037 H   0  0  0  0  0  0  0  0  0  0  0  0
   60.9380   27.7118   44.1941 H   0  0  0  0  0  0  0  0  0  0  0  0
   61.1962   29.4895   44.1941 H   0  0  0  0  0  0  0  0  0  0  0  0
   60.2303   26.9513   47.8591 H   0  0  0  0  0  0  0  0  0  0  0  0
   58.4633   25.2677   48.3649 H   0  0  0  0  0  0  0  0  0  0  0  0
   56.4225   25.1250   46.9399 H   0  0  0  0  0  0  0  0  0  0  0  0
   56.1459   26.6579   44.9951 H   0  0  0  0  0  0  0  0  0  0  0  0
   58.3723   28.1989   43.2624 H   0  0  0  0  0  0  0  0  0  0  0  0
   56.7729   28.6909   43.9386 H   0  0  0  0  0  0  0  0  0  0  0  0
   59.4060   30.1090   44.3430 H   0  0  0  0  0  0  0  0  0  0  0  0
   57.2755   33.3340   43.5383 H   0  0  0  0  0  0  0  0  0  0  0  0
   58.0810   35.5817   44.2374 H   0  0  0  0  0  0  0  0  0  0  0  0
   59.3190   35.8575   46.3813 H   0  0  0  0  0  0  0  0  0  0  0  0
   59.7989   33.8778   47.8099 H   0  0  0  0  0  0  0  0  0  0  0  0
   61.8154   30.6603   46.2677 H   0  0  0  0  0  0  0  0  0  0  0  0
   64.1079   31.4931   46.7822 H   0  0  0  0  0  0  0  0  0  0  0  0
   64.4925   32.9605   48.7610 H   0  0  0  0  0  0  0  0  0  0  0  0
   62.5859   33.5850   50.2441 H   0  0  0  0  0  0  0  0  0  0  0  0
  1  2  1  0
  2  3  1  0
  3  4  2  0
  4  5  1  0
  5  6  2  0
  6  7  1  0
  7  8  2  0
  8  9  1  0
  9 10  1  0
 10 11  1  0
 11 12  2  0
 11 13  1  0
 13 14  2  0
 14 15  1  0
 15 16  2  0
 16 17  1  0
 17 18  2  0
 18 19  1  0
 19 20  1  0
 20 21  2  0
 21 22  1  0
 22 23  2  0
 23 24  1  0
 24 25  2  0
 25 26  1  0
 26 27  3  0
  8  3  1  0
 18 13  1  0
 25 20  1  0
  1 28  1  0
  1 29  1  0
  1 30  1  0
  4 31  1  0
  5 32  1  0
  6 33  1  0
  7 34  1  0
  9 35  1  0
  9 36  1  0
 10 37  1  0
 14 38  1  0
 15 39  1  0
 16 40  1  0
 17 41  1  0
 21 42  1  0
 22 43  1  0
 23 44  1  0
 24 45  1  0
M  END
>  <UniqueID>  (83) 
76

>  <SMILES>  (83) 
COc1ccccc1CNC(=O)c1ccccc1Sc1ccccc1C#N

>  <Energy>  (83) 
48.3666714911174

>  <Genealogy>  (83) 
COc1ccccc1CNC(=O)c1ccccc1Sc1ccccc1C#N (3D coordinates assigned)
COc1ccccc1CNC(=O)c1ccccc1Sc1ccccc1C#N (optimized conformer: 48.3666714911174 kcal/mol)

>  <smiles>  (83) 
COc1ccccc1CNC(=O)c1ccccc1Sc1ccccc1C#N

>  <score_type>  (83) 
oracle

>  <origin>  (83) 
adg

>  <m_score__min__energy>  (83) 
-7.7800000000000002

>  <m_primary>  (83) 
energy

$$$$
