0:0
     RDKit          3D

 35 38  0  0  0  0  0  0  0  0999 V2000
   56.5720   23.2060   43.4630 C   0  0  0  0  0  0  0  0  0  0  0  0
   57.0550   24.6040   43.8330 C   0  0  0  0  0  0  0  0  0  0  0  0
   57.3940   24.6690   45.2170 O   0  0  0  0  0  0  0  0  0  0  0  0
   57.0630   25.7500   46.0420 C   0  0  0  0  0  0  0  0  0  0  0  0
   55.8650   25.9560   46.3740 O   0  0  0  0  0  0  0  0  0  0  0  0
   58.1310   26.6410   46.5240 C   0  0  0  0  0  0  0  0  0  0  0  0
   59.2440   26.2490   47.2680 C   0  0  0  0  0  0  0  0  0  0  0  0
   60.0330   27.3120   47.5490 N   0  0  0  0  0  0  0  0  0  0  0  0
   59.4280   28.3730   46.9910 C   0  0  0  0  0  0  0  0  0  0  0  0
   59.8780   29.6600   47.0270 N   0  0  0  0  0  0  0  0  0  0  0  0
   59.1170   30.6000   46.3960 C   0  0  0  0  0  0  0  0  0  0  0  0
   57.9300   30.2760   45.7400 C   0  0  0  0  0  0  0  0  0  0  0  0
   57.4580   28.9590   45.6960 C   0  0  0  0  0  0  0  0  0  0  0  0
   58.2570   28.0090   46.3510 C   0  0  0  0  0  0  0  0  0  0  0  0
   57.3780   31.5070   45.1820 C   0  0  0  0  0  0  0  0  0  0  0  0
   56.3130   31.6220   44.5180 O   0  0  0  0  0  0  0  0  0  0  0  0
   58.3050   32.5800   45.5430 C   0  0  0  0  0  0  0  0  0  0  0  0
   58.2510   33.9450   45.2600 C   0  0  0  0  0  0  0  0  0  0  0  0
   59.2900   34.7610   45.7380 C   0  0  0  0  0  0  0  0  0  0  0  0
   60.3540   34.2080   46.4810 C   0  0  0  0  0  0  0  0  0  0  0  0
   60.3910   32.8290   46.7560 C   0  0  0  0  0  0  0  0  0  0  0  0
   59.3500   32.0370   46.2730 C   0  0  0  0  0  0  0  0  0  0  0  0
   56.3737   22.6319   44.3801 H   0  0  0  0  0  0  0  0  0  0  0  0
   55.6480   23.2820   42.8710 H   0  0  0  0  0  0  0  0  0  0  0  0
   57.3458   22.6954   42.8710 H   0  0  0  0  0  0  0  0  0  0  0  0
   57.9424   24.8506   43.2316 H   0  0  0  0  0  0  0  0  0  0  0  0
   56.2469   25.3227   43.6321 H   0  0  0  0  0  0  0  0  0  0  0  0
   59.4521   25.2160   47.5835 H   0  0  0  0  0  0  0  0  0  0  0  0
   60.9270   27.3050   48.0890 H   0  0  0  0  0  0  0  0  0  0  0  0
   60.7650   29.9130   47.5150 H   0  0  0  0  0  0  0  0  0  0  0  0
   56.5239   28.6869   45.1827 H   0  0  0  0  0  0  0  0  0  0  0  0
   57.4190   34.3701   44.6794 H   0  0  0  0  0  0  0  0  0  0  0  0
   59.2736   35.8412   45.5309 H   0  0  0  0  0  0  0  0  0  0  0  0
   61.1605   34.8598   46.8479 H   0  0  0  0  0  0  0  0  0  0  0  0
   61.2164   32.3887   47.3347 H   0  0  0  0  0  0  0  0  0  0  0  0
  1  2  1  0
  2  3  1  0
  3  4  1  0
  4  5  2  0
  4  6  1  0
  6  7  2  0
  7  8  1  0
  8  9  1  0
  9 10  2  0
 10 11  1  0
 11 12  2  0
 12 13  1  0
 13 14  2  0
 12 15  1  0
 15 16  2  0
 15 17  1  0
 17 18  2  0
 18 19  1  0
 19 20  2  0
 20 21  1  0
 21 22  2  0
 14  6  1  0
 22 17  1  0
 14  9  1  0
 22 11  1  0
  1 23  1  0
  1 24  1  0
  1 25  1  0
  2 26  1  0
  2 27  1  0
  7 28  1  0
  8 29  1  0
 10 30  1  0
 13 31  1  0
 18 32  1  0
 19 33  1  0
 20 34  1  0
 21 35  1  0
M  CHG  1  10   1
M  END
>  <UniqueID>  (1) 
1

>  <SMILES>  (1) 
CCOC(=O)c1c[nH]c2[nH+]c3c(cc12)C(=O)c1ccccc1-3

>  <Energy>  (1) 
104.09311959149022

>  <Genealogy>  (1) 
CCOC(=O)c1c[nH]c2[nH+]c3c(cc12)C(=O)c1ccccc1-3 (protonated)
CCOC(=O)c1c[nH]c2[nH+]c3c(cc12)C(=O)c1ccccc1-3 (3D coordinates assigned)
CCOC(=O)c1c[nH]c2[nH+]c3c(cc12)C(=O)c1ccccc1-3 (nonaromatic ring conformer: 104.09311959149022 kcal/mol)

>  <smiles>  (1) 
CCOC(=O)c1c[nH]c2nc3c(cc12)C(=O)c1ccccc1-3

>  <score_type>  (1) 
oracle

>  <origin>  (1) 
adg

>  <m_score__min__energy>  (1) 
-6.0199999999999996

>  <m_primary>  (1) 
energy

$$$$
1:0
     RDKit          3D

 53 57  0  0  1  0  0  0  0  0999 V2000
   56.2850   29.7060   42.7410 C   0  0  0  0  0  0  0  0  0  0  0  0
   57.2670   29.2730   43.7970 C   0  0  0  0  0  0  0  0  0  0  0  0
   57.8800   28.0410   43.6470 C   0  0  0  0  0  0  0  0  0  0  0  0
   58.7870   27.6350   44.6170 C   0  0  0  0  0  0  0  0  0  0  0  0
   59.0770   28.4480   45.7200 C   0  0  0  0  0  0  0  0  0  0  0  0
   58.4410   29.6870   45.8420 C   0  0  0  0  0  0  0  0  0  0  0  0
   57.5370   30.1010   44.8830 C   0  0  0  0  0  0  0  0  0  0  0  0
   59.2830   33.6800   48.1370 N   0  0  0  0  0  0  0  0  0  0  0  0
   58.7190   33.5880   46.9630 C   0  0  0  0  0  0  0  0  0  0  0  0
   57.5750   33.4360   44.5450 N   0  0  0  0  0  0  0  0  0  0  0  0
   58.2070   34.5800   44.8570 C   0  0  0  0  0  0  0  0  0  0  0  0
   58.7990   34.6680   46.1000 C   0  0  0  0  0  0  0  0  0  0  0  0
   57.4910   32.3820   45.3750 C   0  0  0  0  0  0  0  0  0  0  0  0
   56.8530   31.3470   44.9430 N   0  0  0  0  0  0  0  0  0  0  0  0
   59.7580   32.5010   48.7650 C   0  0  0  0  0  0  0  0  0  0  0  0
   60.9110   31.7920   48.5460 C   0  0  0  0  0  0  0  0  0  0  0  0
   61.9570   32.1220   47.5600 C   0  0  0  0  0  0  0  0  0  0  0  0
   61.8810   33.5880   47.1420 C   0  0  0  0  0  0  0  0  0  0  0  0
   63.2900   33.8420   46.6180 C   0  0  0  0  0  0  0  0  0  0  0  0
   64.1310   33.1490   47.6670 C   0  0  0  0  0  0  0  0  0  0  0  0
   63.3460   31.9310   48.0970 C   0  0  0  0  0  0  0  0  0  0  0  0
   60.9550   30.7400   49.3660 N   0  0  0  0  0  0  0  0  0  0  0  0
   59.8470   30.7450   50.1240 N   0  0  0  0  0  0  0  0  0  0  0  0
   59.4950   29.8660   51.0780 C   0  0  0  0  0  0  0  0  0  0  0  0
   58.3000   30.0390   51.7600 C   0  0  0  0  0  0  0  0  0  0  0  0
   57.5180   31.1140   51.4260 C   0  0  0  0  0  0  0  0  0  0  0  0
   57.9000   32.0090   50.4410 C   0  0  0  0  0  0  0  0  0  0  0  0
   59.0960   31.8080   49.7810 C   0  0  0  0  0  0  0  0  0  0  0  0
   58.0640   32.4590   46.5850 N   0  0  0  0  0  0  0  0  0  0  0  0
   55.3803   30.1049   43.2231 H   0  0  0  0  0  0  0  0  0  0  0  0
   56.7410   30.4865   42.1142 H   0  0  0  0  0  0  0  0  0  0  0  0
   56.0163   28.8429   42.1142 H   0  0  0  0  0  0  0  0  0  0  0  0
   57.6545   27.4002   42.7818 H   0  0  0  0  0  0  0  0  0  0  0  0
   59.2855   26.6595   44.5175 H   0  0  0  0  0  0  0  0  0  0  0  0
   59.7973   28.1153   46.4819 H   0  0  0  0  0  0  0  0  0  0  0  0
   58.6610   30.3340   46.7040 H   0  0  0  0  0  0  0  0  0  0  0  0
   57.1280   33.3950   43.5820 H   0  0  0  0  0  0  0  0  0  0  0  0
   58.2509   35.4178   44.1456 H   0  0  0  0  0  0  0  0  0  0  0  0
   59.3277   35.5842   46.4017 H   0  0  0  0  0  0  0  0  0  0  0  0
   61.7710   31.4395   46.7176 H   0  0  0  0  0  0  0  0  0  0  0  0
   61.1283   33.7405   46.3545 H   0  0  0  0  0  0  0  0  0  0  0  0
   61.5813   34.2659   47.9548 H   0  0  0  0  0  0  0  0  0  0  0  0
   63.4363   33.3930   45.6245 H   0  0  0  0  0  0  0  0  0  0  0  0
   63.5322   34.9061   46.4799 H   0  0  0  0  0  0  0  0  0  0  0  0
   65.0998   32.8481   47.2418 H   0  0  0  0  0  0  0  0  0  0  0  0
   64.3392   33.8137   48.5183 H   0  0  0  0  0  0  0  0  0  0  0  0
   63.7957   31.0190   47.6776 H   0  0  0  0  0  0  0  0  0  0  0  0
   63.3428   31.8199   49.1914 H   0  0  0  0  0  0  0  0  0  0  0  0
   60.1503   29.0152   51.3161 H   0  0  0  0  0  0  0  0  0  0  0  0
   57.9890   29.3346   52.5455 H   0  0  0  0  0  0  0  0  0  0  0  0
   56.5649   31.2693   51.9527 H   0  0  0  0  0  0  0  0  0  0  0  0
   57.2602   32.8673   50.1881 H   0  0  0  0  0  0  0  0  0  0  0  0
   58.0020   31.6530   47.2220 H   0  0  0  0  0  0  0  0  0  0  0  0
  1  2  1  0
  2  3  2  0
  3  4  1  0
  4  5  2  0
  5  6  1  0
  6  7  2  0
  7  8  1  0
  8  9  2  0
  9 10  1  0
 10 11  1  0
 11 12  2  0
 12 13  1  0
 13 14  2  0
 14 15  1  0
 15 16  1  0
 16 17  1  0
 17 18  1  0
 18 19  1  0
 19 20  1  0
 20 21  1  0
 16 22  2  0
 22 23  1  0
 23 24  1  0
 24 25  2  0
 25 26  1  0
 26 27  2  0
 27 28  1  0
 13 29  1  0
  7  2  1  0
 29  9  1  0
 28 15  2  0
 21 17  1  0
 28 23  1  0
  1 30  1  0
  1 31  1  0
  1 32  1  0
  3 33  1  0
  4 34  1  0
  5 35  1  0
  6 36  1  0
 10 37  1  0
 11 38  1  0
 12 39  1  0
 17 40  1  0
 18 41  1  0
 18 42  1  0
 19 43  1  0
 19 44  1  0
 20 45  1  0
 20 46  1  0
 21 47  1  0
 21 48  1  0
 24 49  1  0
 25 50  1  0
 26 51  1  0
 27 52  1  0
 29 53  1  0
M  END
>  <smiles>  (2) 
Cc1ccccc1N=c1[nH]ccc(=Nc2c(C3CCCC3)nn3ccccc23)[nH]1

>  <score_type>  (2) 
oracle

>  <origin>  (2) 
adg

>  <m_score__min__energy>  (2) 
-9.1500000000000004

>  <m_primary>  (2) 
energy

$$$$
2:0
     RDKit          3D

 58 61  0  0  0  0  0  0  0  0999 V2000
   59.6098   25.3537   46.7409 H   0  0  0  0  0  0  0  0  0  0  0  0
   59.4560   26.4350   46.6100 C   0  0  0  0  0  0  0  0  0  0  0  0
   60.1260   27.3110   47.4000 N   0  0  0  0  0  0  0  0  0  0  0  0
   59.9560   28.6550   47.2900 C   0  0  0  0  0  0  0  0  0  0  0  0
   60.7150   29.5450   48.1290 N   0  0  0  0  0  0  0  0  0  0  0  0
   61.0410   30.3680   47.5710 H   0  0  0  0  0  0  0  0  0  0  0  0
   61.5670   29.0520   48.4860 H   0  0  0  0  0  0  0  0  0  0  0  0
   59.8920   29.9960   49.2230 C   0  0  0  0  0  0  0  0  0  0  0  0
   59.1340   31.1730   49.1040 C   0  0  0  0  0  0  0  0  0  0  0  0
   59.1945   31.7707   48.1826 H   0  0  0  0  0  0  0  0  0  0  0  0
   58.3030   31.5900   50.1490 C   0  0  0  0  0  0  0  0  0  0  0  0
   57.7178   32.5161   50.0493 H   0  0  0  0  0  0  0  0  0  0  0  0
   58.2150   30.8300   51.3220 C   0  0  0  0  0  0  0  0  0  0  0  0
   57.3570   31.2570   52.3950 C   0  0  0  0  0  0  0  0  0  0  0  0
   56.6670   31.6000   53.2580 N   0  0  0  0  0  0  0  0  0  0  0  0
   58.9610   29.6520   51.4460 C   0  0  0  0  0  0  0  0  0  0  0  0
   58.8923   29.0532   52.3662 H   0  0  0  0  0  0  0  0  0  0  0  0
   59.7930   29.2350   50.4030 C   0  0  0  0  0  0  0  0  0  0  0  0
   60.3739   28.3065   50.5050 H   0  0  0  0  0  0  0  0  0  0  0  0
   59.0700   29.1640   46.3300 C   0  0  0  0  0  0  0  0  0  0  0  0
   58.9244   30.2504   46.2382 H   0  0  0  0  0  0  0  0  0  0  0  0
   58.3670   28.2870   45.4840 C   0  0  0  0  0  0  0  0  0  0  0  0
   57.5280   28.7220   44.5830 N   0  0  0  0  0  0  0  0  0  0  0  0
   56.6360   29.8850   44.6750 C   0  0  1  0  0  0  0  0  0  0  0  0
   56.2240   29.9420   45.6933 H   0  0  0  0  0  0  0  0  0  0  0  0
   57.3890   31.1720   44.3990 C   0  0  0  0  0  0  0  0  0  0  0  0
   58.0430   31.2930   43.3290 O   0  0  0  0  0  0  0  0  0  0  0  0
   57.2670   32.3150   45.2570 N   0  0  0  0  0  0  0  0  0  0  0  0
   58.3450   33.0360   45.8640 C   0  0  0  0  0  0  0  0  0  0  0  0
   58.2160   34.3930   46.2010 C   0  0  0  0  0  0  0  0  0  0  0  0
   57.2830   34.9290   45.9727 H   0  0  0  0  0  0  0  0  0  0  0  0
   59.2710   35.0640   46.8260 C   0  0  0  0  0  0  0  0  0  0  0  0
   59.1711   36.1307   47.0752 H   0  0  0  0  0  0  0  0  0  0  0  0
   60.4510   34.3850   47.1350 C   0  0  0  0  0  0  0  0  0  0  0  0
   61.2831   34.9191   47.6170 H   0  0  0  0  0  0  0  0  0  0  0  0
   60.5750   33.0230   46.8310 C   0  0  0  0  0  0  0  0  0  0  0  0
   61.7840   32.3160   47.1620 C   0  0  0  0  0  0  0  0  0  0  0  0
   62.7560   31.7480   47.4290 N   0  0  0  0  0  0  0  0  0  0  0  0
   59.5170   32.3490   46.2060 C   0  0  0  0  0  0  0  0  0  0  0  0
   59.6073   31.2756   45.9830 H   0  0  0  0  0  0  0  0  0  0  0  0
   55.5160   29.7200   43.6500 C   0  0  0  0  0  0  0  0  0  0  0  0
   54.5585   29.5789   44.1727 H   0  0  0  0  0  0  0  0  0  0  0  0
   55.4605   30.6197   43.0195 H   0  0  0  0  0  0  0  0  0  0  0  0
   55.7223   28.8426   43.0195 H   0  0  0  0  0  0  0  0  0  0  0  0
   58.5690   26.8980   45.6280 C   0  0  0  0  0  0  0  0  0  0  0  0
   57.8710   25.9170   44.7670 C   0  0  0  0  0  0  0  0  0  0  0  0
   57.1400   24.8030   45.1460 C   0  0  0  0  0  0  0  0  0  0  0  0
   56.9000   24.3100   46.5370 C   0  0  0  0  0  0  0  0  0  0  0  0
   57.2635   25.0566   47.2584 H   0  0  0  0  0  0  0  0  0  0  0  0
   55.8224   24.1485   46.6880 H   0  0  0  0  0  0  0  0  0  0  0  0
   57.4375   23.3622   46.6880 H   0  0  0  0  0  0  0  0  0  0  0  0
   56.6570   24.1920   44.0470 N   0  0  0  0  0  0  0  0  0  0  0  0
   57.0470   24.8880   43.0170 O   0  0  0  0  0  0  0  0  0  0  0  0
   57.7680   25.9220   43.3880 C   0  0  0  0  0  0  0  0  0  0  0  0
   58.3500   26.9210   42.4420 C   0  0  0  0  0  0  0  0  0  0  0  0
   58.8234   27.7337   43.0125 H   0  0  0  0  0  0  0  0  0  0  0  0
   59.1036   26.4304   41.8085 H   0  0  0  0  0  0  0  0  0  0  0  0
   57.5515   27.3346   41.8085 H   0  0  0  0  0  0  0  0  0  0  0  0
  1  2  1  0
  2  3  1  0
  3  4  1  0
  4  5  1  0
  5  6  1  0
  5  7  1  0
  5  8  1  0
  8  9  2  0
  9 10  1  0
  9 11  1  0
 11 12  1  0
 11 13  2  0
 13 14  1  0
 14 15  3  0
 13 16  1  0
 16 17  1  0
 16 18  2  0
 18 19  1  0
  4 20  2  0
 20 21  1  0
 20 22  1  0
 22 23  2  0
 23 24  1  0
 24 25  1  1
 24 26  1  0
 26 27  2  0
 26 28  1  0
 28 29  1  0
 29 30  2  0
 30 31  1  0
 30 32  1  0
 32 33  1  0
 32 34  2  0
 34 35  1  0
 34 36  1  0
 36 37  1  0
 37 38  3  0
 36 39  2  0
 39 40  1  0
 24 41  1  0
 41 42  1  0
 41 43  1  0
 41 44  1  0
 22 45  1  0
 45 46  1  0
 46 47  1  0
 47 48  1  0
 48 49  1  0
 48 50  1  0
 48 51  1  0
 47 52  2  0
 52 53  1  0
 53 54  1  0
 54 55  1  0
 55 56  1  0
 55 57  1  0
 55 58  1  0
 45  2  2  0
 54 46  2  0
 18  8  1  0
 39 29  1  0
M  CHG  3   3  -1   5   1  28  -1
M  END
>  <UniqueID>  (3) 
2

>  <SMILES>  (3) 
Cc1noc(C)c1-c1c[n-]c([NH2+]c2ccc(C#N)cc2)c/c1=N\[C@H](C)C(=O)[N-]c1cccc(C#N)c1

>  <Energy>  (3) 
101.38792085435178

>  <Genealogy>  (3) 
Cc1noc(C)c1-c1c[n-]c([NH2+]c2ccc(C#N)cc2)cc1=NC(C)C(=O)[N-]c1cccc(C#N)c1 (protonated)
Cc1noc(C)c1-c1c[n-]c([NH2+]c2ccc(C#N)cc2)cc1=N[C@H](C)C(=O)[N-]c1cccc(C#N)c1 (chirality)
Cc1noc(C)c1-c1c[n-]c([NH2+]c2ccc(C#N)cc2)c/c1=N\[C@H](C)C(=O)[N-]c1cccc(C#N)c1 (cis-trans isomerization)
Cc1noc(C)c1-c1c[n-]c([NH2+]c2ccc(C#N)cc2)c/c1=N\[C@H](C)C(=O)[N-]c1cccc(C#N)c1 (3D coordinates assigned)
Cc1noc(C)c1-c1c[n-]c([NH2+]c2ccc(C#N)cc2)c/c1=N\[C@H](C)C(=O)[N-]c1cccc(C#N)c1 (optimized conformer: 101.38792085435178 kcal/mol)

>  <smiles>  (3) 
Cc1noc(C)c1-c1c[nH]c(Nc2ccc(C#N)cc2)cc1=NC(C)C(=O)Nc1cccc(C#N)c1

>  <score_type>  (3) 
oracle

>  <origin>  (3) 
adg

>  <m_score__min__energy>  (3) 
-9.8800000000000008

>  <m_primary>  (3) 
energy

$$$$
3:0
     RDKit          3D

 45 47  0  0  1  0  0  0  0  0999 V2000
   64.9770   33.0630   48.9000 N   0  0  0  0  0  0  0  0  0  0  0  0
   63.5560   33.1650   49.8690 S   0  0  0  0  0  0  0  0  0  0  0  0
   63.4050   31.9430   50.6970 O   0  0  0  0  0  0  0  0  0  0  0  0
   63.7260   34.3610   50.7640 O   0  0  0  0  0  0  0  0  0  0  0  0
   62.1720   33.4700   48.8270 C   0  0  0  0  0  0  0  0  0  0  0  0
   62.3830   33.4800   47.4640 C   0  0  0  0  0  0  0  0  0  0  0  0
   61.3150   33.7160   46.6160 C   0  0  0  0  0  0  0  0  0  0  0  0
   60.0370   33.9430   47.1090 C   0  0  0  0  0  0  0  0  0  0  0  0
   56.6990   25.9730   46.7030 N   0  0  0  0  0  0  0  0  0  0  0  0
   56.9640   27.1590   46.2990 C   0  0  0  0  0  0  0  0  0  0  0  0
   58.2970   32.0280   45.8340 N   0  0  0  0  0  0  0  0  0  0  0  0
   57.8690   31.0420   44.9920 C   0  0  0  0  0  0  0  0  0  0  0  0
   57.6160   29.6960   45.4730 C   0  0  0  0  0  0  0  0  0  0  0  0
   58.5210   28.9620   46.2100 C   0  0  0  0  0  0  0  0  0  0  0  0
   58.1970   27.6870   46.6260 C   0  0  0  0  0  0  0  0  0  0  0  0
   58.5310   33.2750   45.3890 C   0  0  0  0  0  0  0  0  0  0  0  0
   58.9360   34.1890   46.2080 N   0  0  0  0  0  0  0  0  0  0  0  0
   56.4490   24.8730   45.8060 C   0  0  0  0  0  0  0  0  0  0  0  0
   54.9370   24.7770   45.6070 C   0  0  0  0  0  0  0  0  0  0  0  0
   54.2830   25.9490   45.9590 O   0  0  0  0  0  0  0  0  0  0  0  0
   58.3660   33.6490   44.1070 N   0  0  0  0  0  0  0  0  0  0  0  0
   57.9450   32.7130   43.2380 C   0  0  0  0  0  0  0  0  0  0  0  0
   57.6980   31.4200   43.6770 C   0  0  0  0  0  0  0  0  0  0  0  0
   56.4030   29.1110   45.1780 C   0  0  0  0  0  0  0  0  0  0  0  0
   56.0860   27.8730   45.5820 N   0  0  0  0  0  0  0  0  0  0  0  0
   59.8600   33.9270   48.4790 C   0  0  0  0  0  0  0  0  0  0  0  0
   60.9050   33.6940   49.3590 C   0  0  0  0  0  0  0  0  0  0  0  0
   65.7330   32.6340   49.4430 H   0  0  0  0  0  0  0  0  0  0  0  0
   64.7740   32.6040   47.9880 H   0  0  0  0  0  0  0  0  0  0  0  0
   63.3888   33.3024   47.0556 H   0  0  0  0  0  0  0  0  0  0  0  0
   61.4821   33.7239   45.5288 H   0  0  0  0  0  0  0  0  0  0  0  0
   59.5003   29.3925   46.4661 H   0  0  0  0  0  0  0  0  0  0  0  0
   58.9152   27.0961   47.2134 H   0  0  0  0  0  0  0  0  0  0  0  0
   56.9440   25.0556   44.8408 H   0  0  0  0  0  0  0  0  0  0  0  0
   56.8451   23.9354   46.2230 H   0  0  0  0  0  0  0  0  0  0  0  0
   54.7328   24.5627   44.5476 H   0  0  0  0  0  0  0  0  0  0  0  0
   54.5625   23.9743   46.2593 H   0  0  0  0  0  0  0  0  0  0  0  0
   54.7870   26.3170   46.7420 H   0  0  0  0  0  0  0  0  0  0  0  0
   58.5590   34.6390   43.7880 H   0  0  0  0  0  0  0  0  0  0  0  0
   57.7965   32.9723   42.1794 H   0  0  0  0  0  0  0  0  0  0  0  0
   57.3535   30.6698   42.9500 H   0  0  0  0  0  0  0  0  0  0  0  0
   55.6687   29.6809   44.5898 H   0  0  0  0  0  0  0  0  0  0  0  0
   55.1550   27.5100   45.3170 H   0  0  0  0  0  0  0  0  0  0  0  0
   58.8537   34.1056   48.8859 H   0  0  0  0  0  0  0  0  0  0  0  0
   60.7382   33.6863   50.4463 H   0  0  0  0  0  0  0  0  0  0  0  0
  1  2  1  0
  2  3  2  0
  2  4  2  0
  2  5  1  0
  5  6  2  0
  6  7  1  0
  7  8  2  0
  8  9  1  0
  9 10  2  0
 10 11  1  0
 11 12  2  0
 12 13  1  0
 13 14  1  0
 14 15  2  0
 15 16  1  0
 16 17  2  0
 17 18  1  0
 18 19  1  0
 19 20  1  0
 16 21  1  0
 21 22  1  0
 12 23  1  0
 23 24  2  0
 24 25  1  0
  8 26  1  0
 26 27  2  0
 27  5  1  0
 25 10  1  0
 22 13  2  0
  1 28  1  0
  1 29  1  0
  6 30  1  0
  7 31  1  0
 14 32  1  0
 15 33  1  0
 18 34  1  0
 18 35  1  0
 19 36  1  0
 19 37  1  0
 20 38  1  0
 21 39  1  0
 22 40  1  0
 23 41  1  0
 24 42  1  0
 25 43  1  0
 26 44  1  0
 27 45  1  0
M  END
>  <smiles>  (4) 
NS(=O)(=O)c1ccc(N=c2nc(-c3ccc(=NCCO)[nH]c3)cc[nH]2)cc1

>  <score_type>  (4) 
oracle

>  <origin>  (4) 
adg

>  <m_score__min__energy>  (4) 
-8.8200000000000003

>  <m_primary>  (4) 
energy

$$$$
4:0
     RDKit          3D

 66 69  0  0  0  0  0  0  0  0999 V2000
   57.3392   23.3628   43.8993 H   0  0  0  0  0  0  0  0  0  0  0  0
   57.5990   24.2220   44.5350 C   0  0  0  0  0  0  0  0  0  0  0  0
   58.0230   24.0180   45.8090 N   0  0  0  0  0  0  0  0  0  0  0  0
   58.3540   25.0490   46.6310 C   0  0  0  0  0  0  0  0  0  0  0  0
   58.6912   24.8457   47.6581 H   0  0  0  0  0  0  0  0  0  0  0  0
   58.2660   26.3770   46.1700 C   0  0  0  0  0  0  0  0  0  0  0  0
   58.5910   27.4820   46.9830 C   0  0  0  0  0  0  0  0  0  0  0  0
   58.9800   27.3050   48.2130 N   0  0  0  0  0  0  0  0  0  0  0  0
   60.2920   27.6750   48.7450 C   0  0  0  0  0  0  0  0  0  0  0  0
   60.6689   26.8512   49.3690 H   0  0  0  0  0  0  0  0  0  0  0  0
   60.9648   27.8661   47.8960 H   0  0  0  0  0  0  0  0  0  0  0  0
   60.2200   28.9590   49.6010 C   0  0  0  0  0  0  0  0  0  0  0  0
   60.2580   28.6729   50.6625 H   0  0  0  0  0  0  0  0  0  0  0  0
   61.4390   29.8690   49.3390 C   0  0  0  0  0  0  0  0  0  0  0  0
   62.3427   29.3828   49.7350 H   0  0  0  0  0  0  0  0  0  0  0  0
   61.5311   30.0281   48.2545 H   0  0  0  0  0  0  0  0  0  0  0  0
   61.2630   31.2340   50.0210 C   0  0  0  0  0  0  0  0  0  0  0  0
   61.3229   31.0905   51.1100 H   0  0  0  0  0  0  0  0  0  0  0  0
   62.0608   31.8913   49.6449 H   0  0  0  0  0  0  0  0  0  0  0  0
   59.9670   31.8880   49.7020 N   0  0  0  0  0  0  0  0  0  0  0  0
   60.0860   33.3090   49.3120 C   0  0  0  0  0  0  0  0  0  0  0  0
   59.3618   33.5079   48.5083 H   0  0  0  0  0  0  0  0  0  0  0  0
   59.8916   33.9025   50.2175 H   0  0  0  0  0  0  0  0  0  0  0  0
   61.4670   33.7060   48.8180 C   0  0  0  0  0  0  0  0  0  0  0  0
   62.1200   34.5820   49.4470 O   0  0  0  0  0  0  0  0  0  0  0  0
   62.0140   33.1640   47.5950 N   0  0  0  0  0  0  0  0  0  0  0  0
   61.2290   32.2590   46.7490 C   0  0  0  0  0  0  0  0  0  0  0  0
   60.6408   31.5808   47.3847 H   0  0  0  0  0  0  0  0  0  0  0  0
   60.5503   32.8472   46.1139 H   0  0  0  0  0  0  0  0  0  0  0  0
   61.9072   31.6702   46.1139 H   0  0  0  0  0  0  0  0  0  0  0  0
   63.3690   33.5530   47.1880 C   0  0  0  0  0  0  0  0  0  0  0  0
   63.9841   33.7296   48.0827 H   0  0  0  0  0  0  0  0  0  0  0  0
   63.8172   32.7472   46.5881 H   0  0  0  0  0  0  0  0  0  0  0  0
   63.3215   34.4738   46.5881 H   0  0  0  0  0  0  0  0  0  0  0  0
   59.0580   31.1180   48.8300 C   0  0  0  0  0  0  0  0  0  0  0  0
   58.0813   31.6223   48.7891 H   0  0  0  0  0  0  0  0  0  0  0  0
   59.4950   31.0587   47.8223 H   0  0  0  0  0  0  0  0  0  0  0  0
   58.8710   29.6990   49.3750 C   0  0  0  0  0  0  0  0  0  0  0  0
   58.3373   29.7585   50.3350 H   0  0  0  0  0  0  0  0  0  0  0  0
   58.3011   29.1287   48.6267 H   0  0  0  0  0  0  0  0  0  0  0  0
   58.4900   28.7390   46.4690 N   0  0  0  0  0  0  0  0  0  0  0  0
   58.0810   28.9920   45.1960 C   0  0  0  0  0  0  0  0  0  0  0  0
   57.9950   30.4010   44.7320 C   0  0  0  0  0  0  0  0  0  0  0  0
   57.7780   30.6750   43.3690 C   0  0  0  0  0  0  0  0  0  0  0  0
   57.6790   29.8439   42.6552 H   0  0  0  0  0  0  0  0  0  0  0  0
   57.6870   31.9950   42.9130 C   0  0  0  0  0  0  0  0  0  0  0  0
   57.4730   32.2610   41.5130 C   0  0  0  0  0  0  0  0  0  0  0  0
   57.3010   32.4740   40.3890 N   0  0  0  0  0  0  0  0  0  0  0  0
   57.8020   33.0570   43.8160 C   0  0  0  0  0  0  0  0  0  0  0  0
   57.7386   34.0939   43.4544 H   0  0  0  0  0  0  0  0  0  0  0  0
   57.9980   32.8030   45.1820 C   0  0  0  0  0  0  0  0  0  0  0  0
   58.1290   33.9420   46.1580 C   0  0  0  0  0  0  0  0  0  0  0  0
   58.6739   33.5953   47.0485 H   0  0  0  0  0  0  0  0  0  0  0  0
   57.1234   34.2871   46.4403 H   0  0  0  0  0  0  0  0  0  0  0  0
   58.8340   35.0170   45.5700 O   0  0  0  0  0  0  0  0  0  0  0  0
   59.9810   35.3240   46.3320 C   0  0  0  0  0  0  0  0  0  0  0  0
   59.7380   35.2590   47.4029 H   0  0  0  0  0  0  0  0  0  0  0  0
   60.7819   34.6086   46.0936 H   0  0  0  0  0  0  0  0  0  0  0  0
   60.3174   36.3438   46.0936 H   0  0  0  0  0  0  0  0  0  0  0  0
   58.0960   31.4780   45.6340 C   0  0  0  0  0  0  0  0  0  0  0  0
   58.2534   31.2784   46.7042 H   0  0  0  0  0  0  0  0  0  0  0  0
   57.7330   27.9170   44.3640 C   0  0  0  0  0  0  0  0  0  0  0  0
   57.3858   28.1028   43.3369 H   0  0  0  0  0  0  0  0  0  0  0  0
   57.8300   26.6060   44.8480 C   0  0  0  0  0  0  0  0  0  0  0  0
   57.4920   25.5190   44.0300 C   0  0  0  0  0  0  0  0  0  0  0  0
   57.1456   25.6865   42.9995 H   0  0  0  0  0  0  0  0  0  0  0  0
  1  2  1  0
  2  3  2  0
  3  4  1  0
  4  5  1  0
  4  6  2  0
  6  7  1  0
  7  8  2  0
  8  9  1  0
  9 10  1  0
  9 11  1  0
  9 12  1  0
 12 13  1  0
 12 14  1  0
 14 15  1  0
 14 16  1  0
 14 17  1  0
 17 18  1  0
 17 19  1  0
 17 20  1  0
 20 21  1  0
 21 22  1  0
 21 23  1  0
 21 24  1  0
 24 25  2  0
 24 26  1  0
 26 27  1  0
 27 28  1  0
 27 29  1  0
 27 30  1  0
 26 31  1  0
 31 32  1  0
 31 33  1  0
 31 34  1  0
 20 35  1  0
 35 36  1  0
 35 37  1  0
 35 38  1  0
 38 39  1  0
 38 40  1  0
  7 41  1  0
 41 42  1  0
 42 43  1  0
 43 44  2  0
 44 45  1  0
 44 46  1  0
 46 47  1  0
 47 48  3  0
 46 49  2  0
 49 50  1  0
 49 51  1  0
 51 52  1  0
 52 53  1  0
 52 54  1  0
 52 55  1  0
 55 56  1  0
 56 57  1  0
 56 58  1  0
 56 59  1  0
 51 60  2  0
 60 61  1  0
 42 62  2  0
 62 63  1  0
 62 64  1  0
 64 65  2  0
 65 66  1  0
 65  2  1  0
 64  6  1  0
 38 12  1  0
 60 43  1  0
M  CHG  1  41  -1
M  END
>  <UniqueID>  (5) 
3

>  <SMILES>  (5) 
COCc1cc(C#N)cc(-c2cc3ccncc3/c(=N/CC3CCN(CC(=O)N(C)C)CC3)[n-]2)c1

>  <Energy>  (5) 
86.53643460239473

>  <Genealogy>  (5) 
COCc1cc(C#N)cc(-c2cc3ccncc3c(=NCC3CCN(CC(=O)N(C)C)CC3)[n-]2)c1 (protonated)
COCc1cc(C#N)cc(-c2cc3ccncc3/c(=N/CC3CCN(CC(=O)N(C)C)CC3)[n-]2)c1 (cis-trans isomerization)
COCc1cc(C#N)cc(-c2cc3ccncc3/c(=N/CC3CCN(CC(=O)N(C)C)CC3)[n-]2)c1 (3D coordinates assigned)
COCc1cc(C#N)cc(-c2cc3ccncc3/c(=N/CC3CCN(CC(=O)N(C)C)CC3)[n-]2)c1 (nonaromatic ring conformer: 86.53643460239473 kcal/mol)

>  <smiles>  (5) 
COCc1cc(C#N)cc(-c2cc3ccncc3c(=NCC3CCN(CC(=O)N(C)C)CC3)[nH]2)c1

>  <score_type>  (5) 
oracle

>  <origin>  (5) 
adg

>  <m_score__min__energy>  (5) 
-10.880000000000001

>  <m_primary>  (5) 
energy

$$$$
5:0
     RDKit          3D

 60 63  0  0  0  0  0  0  0  0999 V2000
   56.4020   30.1060   42.8190 C   0  0  0  0  0  0  0  0  0  0  0  0
   57.6390   30.2680   43.5640 N   0  0  0  0  0  0  0  0  0  0  0  0
   57.6610   31.1660   44.6290 C   0  0  0  0  0  0  0  0  0  0  0  0
   56.5820   31.8040   44.8960 O   0  0  0  0  0  0  0  0  0  0  0  0
   58.7900   31.4670   45.4860 C   0  0  0  0  0  0  0  0  0  0  0  0
   58.9710   32.7680   45.8830 C   0  0  0  0  0  0  0  0  0  0  0  0
   60.0490   33.1170   46.6840 C   0  0  0  0  0  0  0  0  0  0  0  0
   60.9920   32.2320   47.1300 C   0  0  0  0  0  0  0  0  0  0  0  0
   62.0970   32.5200   47.9530 N   0  0  0  0  0  0  0  0  0  0  0  0
   62.5840   31.9090   49.1220 C   0  0  0  0  0  0  0  0  0  0  0  0
   61.6410   31.5590   50.1880 C   0  0  0  0  0  0  0  0  0  0  0  0
   61.9540   30.9790   51.3870 C   0  0  0  0  0  0  0  0  0  0  0  0
   60.9590   30.6370   52.3100 C   0  0  0  0  0  0  0  0  0  0  0  0
   59.6420   30.8970   51.9910 C   0  0  0  0  0  0  0  0  0  0  0  0
   58.6080   30.6180   52.8030 N   0  0  0  0  0  0  0  0  0  0  0  0
   57.3500   30.8950   52.4480 C   0  0  0  0  0  0  0  0  0  0  0  0
   56.3390   30.6260   53.2390 N   0  0  0  0  0  0  0  0  0  0  0  0
   57.0310   31.4720   51.2530 N   0  0  0  0  0  0  0  0  0  0  0  0
   58.0260   31.7730   50.4000 C   0  0  0  0  0  0  0  0  0  0  0  0
   57.7890   32.3260   49.2330 N   0  0  0  0  0  0  0  0  0  0  0  0
   59.3350   31.4800   50.7820 C   0  0  0  0  0  0  0  0  0  0  0  0
   60.3180   31.7880   49.9320 N   0  0  0  0  0  0  0  0  0  0  0  0
   60.7830   30.8970   46.7090 C   0  0  0  0  0  0  0  0  0  0  0  0
   59.7180   30.5480   45.9180 C   0  0  0  0  0  0  0  0  0  0  0  0
   59.5240   29.1390   45.5350 C   0  0  0  0  0  0  0  0  0  0  0  0
   60.0600   28.7430   44.4850 O   0  0  0  0  0  0  0  0  0  0  0  0
   58.7410   28.3150   46.3750 N   0  0  0  0  0  0  0  0  0  0  0  0
   58.4450   26.9540   46.1580 C   0  0  0  0  0  0  0  0  0  0  0  0
   58.3770   26.1400   47.2760 C   0  0  0  0  0  0  0  0  0  0  0  0
   58.0820   24.8030   47.1650 C   0  0  0  0  0  0  0  0  0  0  0  0
   57.8410   24.2030   45.9610 C   0  0  0  0  0  0  0  0  0  0  0  0
   57.4630   22.4960   45.8390 S   0  0  0  0  0  0  0  0  0  0  0  0
   58.8540   21.5820   45.3520 N   0  0  0  0  0  0  0  0  0  0  0  0
   56.4250   22.3590   44.7740 O   0  0  0  0  0  0  0  0  0  0  0  0
   57.0060   21.9460   47.1540 O   0  0  0  0  0  0  0  0  0  0  0  0
   57.9050   25.0050   44.8340 C   0  0  0  0  0  0  0  0  0  0  0  0
   58.2060   26.3680   44.9520 C   0  0  0  0  0  0  0  0  0  0  0  0
   55.5626   29.9961   43.5214 H   0  0  0  0  0  0  0  0  0  0  0  0
   56.2368   30.9902   42.1858 H   0  0  0  0  0  0  0  0  0  0  0  0
   56.4701   29.2091   42.1858 H   0  0  0  0  0  0  0  0  0  0  0  0
   58.5050   29.7410   43.3360 H   0  0  0  0  0  0  0  0  0  0  0  0
   58.2558   33.5404   45.5637 H   0  0  0  0  0  0  0  0  0  0  0  0
   60.1518   34.1717   46.9789 H   0  0  0  0  0  0  0  0  0  0  0  0
   62.6770   33.3720   47.6110 H   0  0  0  0  0  0  0  0  0  0  0  0
   63.0830   30.9780   48.8149 H   0  0  0  0  0  0  0  0  0  0  0  0
   63.2208   32.6818   49.5772 H   0  0  0  0  0  0  0  0  0  0  0  0
   63.0077   30.7776   51.6302 H   0  0  0  0  0  0  0  0  0  0  0  0
   61.2217   30.1702   53.2707 H   0  0  0  0  0  0  0  0  0  0  0  0
   58.7940   30.1760   53.7320 H   0  0  0  0  0  0  0  0  0  0  0  0
   56.3590   30.7090   54.2570 H   0  0  0  0  0  0  0  0  0  0  0  0
   56.0510   31.6880   50.9770 H   0  0  0  0  0  0  0  0  0  0  0  0
   58.6520   32.5150   48.6510 H   0  0  0  0  0  0  0  0  0  0  0  0
   61.4934   30.1187   47.0245 H   0  0  0  0  0  0  0  0  0  0  0  0
   58.3520   28.7920   47.2420 H   0  0  0  0  0  0  0  0  0  0  0  0
   58.5625   26.5716   48.2706 H   0  0  0  0  0  0  0  0  0  0  0  0
   58.0381   24.1927   48.0791 H   0  0  0  0  0  0  0  0  0  0  0  0
   58.5590   20.5930   45.2200 H   0  0  0  0  0  0  0  0  0  0  0  0
   59.2320   21.9800   44.4580 H   0  0  0  0  0  0  0  0  0  0  0  0
   57.7186   24.5697   43.8412 H   0  0  0  0  0  0  0  0  0  0  0  0
   58.2507   26.9844   44.0420 H   0  0  0  0  0  0  0  0  0  0  0  0
  1  2  1  0
  2  3  1  0
  3  4  2  0
  3  5  1  0
  5  6  2  0
  6  7  1  0
  7  8  2  0
  8  9  1  0
  9 10  1  0
 10 11  1  0
 11 12  2  0
 12 13  1  0
 13 14  2  0
 14 15  1  0
 15 16  1  0
 16 17  2  3
 16 18  1  0
 18 19  1  0
 19 20  2  3
 19 21  1  0
 21 22  2  0
  8 23  1  0
 23 24  2  0
 24 25  1  0
 25 26  2  0
 25 27  1  0
 27 28  1  0
 28 29  2  0
 29 30  1  0
 30 31  2  0
 31 32  1  0
 32 33  1  0
 32 34  2  0
 32 35  2  0
 31 36  1  0
 36 37  2  0
 24  5  1  0
 37 28  1  0
 22 11  1  0
 21 14  1  0
  1 38  1  0
  1 39  1  0
  1 40  1  0
  2 41  1  0
  6 42  1  0
  7 43  1  0
  9 44  1  0
 10 45  1  0
 10 46  1  0
 12 47  1  0
 13 48  1  0
 15 49  1  0
 17 50  1  0
 18 51  1  0
 20 52  1  0
 23 53  1  0
 27 54  1  0
 29 55  1  0
 30 56  1  0
 33 57  1  0
 33 58  1  0
 36 59  1  0
 37 60  1  0
M  END
>  <smiles>  (6) 
CNC(=O)c1ccc(NCc2ccc3[nH]c(=N)[nH]c(=N)c3n2)cc1C(=O)Nc1ccc(S(N)(=O)=O)cc1

>  <score_type>  (6) 
oracle

>  <origin>  (6) 
adg

>  <m_score__min__energy>  (6) 
-9.8000000000000007

>  <m_primary>  (6) 
energy

$$$$
6:0
     RDKit          3D

 60 63  0  0  0  0  0  0  0  0999 V2000
   58.1520   32.3490   41.9170 C   0  0  0  0  0  0  0  0  0  0  0  0
   57.9230   32.1510   43.3090 O   0  0  0  0  0  0  0  0  0  0  0  0
   57.6080   30.9140   43.8910 C   0  0  0  0  0  0  0  0  0  0  0  0
   56.2940   30.5610   44.2480 C   0  0  0  0  0  0  0  0  0  0  0  0
   56.0330   29.3110   44.8130 C   0  0  0  0  0  0  0  0  0  0  0  0
   57.0740   28.4120   45.0450 C   0  0  0  0  0  0  0  0  0  0  0  0
   58.3970   28.7560   44.7180 C   0  0  0  0  0  0  0  0  0  0  0  0
   59.5260   27.7780   44.9730 C   0  0  0  0  0  0  0  0  0  0  0  0
   60.2340   28.0000   46.2540 N   0  0  0  0  0  0  0  0  0  0  0  0
   60.5490   29.4200   46.5460 C   0  0  0  0  0  0  0  0  0  0  0  0
   59.6850   29.9990   47.6740 C   0  0  0  0  0  0  0  0  0  0  0  0
   59.7760   29.1570   48.8740 N   0  0  0  0  0  0  0  0  0  0  0  0
   59.5150   29.7000   50.1820 C   0  0  0  0  0  0  0  0  0  0  0  0
   60.1010   29.2130   51.1870 O   0  0  0  0  0  0  0  0  0  0  0  0
   58.5300   30.8250   50.3850 C   0  0  0  0  0  0  0  0  0  0  0  0
   59.1900   32.2080   50.2220 C   0  0  0  0  0  0  0  0  0  0  0  0
   59.3020   32.7370   48.7910 C   0  0  0  0  0  0  0  0  0  0  0  0
   58.1540   32.9100   48.0070 C   0  0  0  0  0  0  0  0  0  0  0  0
   58.2310   33.4690   46.7360 C   0  0  0  0  0  0  0  0  0  0  0  0
   57.1590   33.6330   46.0920 O   0  0  0  0  0  0  0  0  0  0  0  0
   59.4380   33.8370   46.1980 N   0  0  0  0  0  0  0  0  0  0  0  0
   59.4730   34.4740   44.8660 C   0  0  0  0  0  0  0  0  0  0  0  0
   60.6080   33.5810   46.8880 C   0  0  0  0  0  0  0  0  0  0  0  0
   61.8760   33.8630   46.3200 C   0  0  0  0  0  0  0  0  0  0  0  0
   63.0520   33.5700   47.0040 C   0  0  0  0  0  0  0  0  0  0  0  0
   63.0020   32.9770   48.2590 C   0  0  0  0  0  0  0  0  0  0  0  0
   61.7750   32.6890   48.8490 C   0  0  0  0  0  0  0  0  0  0  0  0
   60.5610   33.0020   48.1930 C   0  0  0  0  0  0  0  0  0  0  0  0
   60.1670   27.7490   48.7370 C   0  0  0  0  0  0  0  0  0  0  0  0
   59.6870   27.2140   47.3850 C   0  0  0  0  0  0  0  0  0  0  0  0
   58.6480   30.0030   44.1180 C   0  0  0  0  0  0  0  0  0  0  0  0
   58.9775   33.0628   41.7791 H   0  0  0  0  0  0  0  0  0  0  0  0
   58.4151   31.3892   41.4485 H   0  0  0  0  0  0  0  0  0  0  0  0
   57.2402   32.7480   41.4485 H   0  0  0  0  0  0  0  0  0  0  0  0
   55.4705   31.2710   44.0818 H   0  0  0  0  0  0  0  0  0  0  0  0
   55.0016   29.0339   45.0764 H   0  0  0  0  0  0  0  0  0  0  0  0
   56.8582   27.4279   45.4865 H   0  0  0  0  0  0  0  0  0  0  0  0
   59.1079   26.7606   44.9801 H   0  0  0  0  0  0  0  0  0  0  0  0
   60.2638   27.9258   44.1706 H   0  0  0  0  0  0  0  0  0  0  0  0
   61.6064   29.4925   46.8403 H   0  0  0  0  0  0  0  0  0  0  0  0
   60.3390   30.0006   45.6356 H   0  0  0  0  0  0  0  0  0  0  0  0
   60.0365   31.0130   47.9155 H   0  0  0  0  0  0  0  0  0  0  0  0
   58.6375   30.0310   47.3398 H   0  0  0  0  0  0  0  0  0  0  0  0
   57.7224   30.7276   49.6445 H   0  0  0  0  0  0  0  0  0  0  0  0
   58.1403   30.7538   51.4112 H   0  0  0  0  0  0  0  0  0  0  0  0
   58.5999   32.9323   50.8026 H   0  0  0  0  0  0  0  0  0  0  0  0
   60.2253   32.0839   50.5725 H   0  0  0  0  0  0  0  0  0  0  0  0
   57.1761   32.5987   48.4031 H   0  0  0  0  0  0  0  0  0  0  0  0
   59.5330   35.5661   44.9833 H   0  0  0  0  0  0  0  0  0  0  0  0
   60.3528   34.1159   44.3113 H   0  0  0  0  0  0  0  0  0  0  0  0
   58.5592   34.2145   44.3113 H   0  0  0  0  0  0  0  0  0  0  0  0
   61.9312   34.3212   45.3215 H   0  0  0  0  0  0  0  0  0  0  0  0
   64.0246   33.8089   46.5491 H   0  0  0  0  0  0  0  0  0  0  0  0
   63.9353   32.7342   48.7882 H   0  0  0  0  0  0  0  0  0  0  0  0
   61.7485   32.2112   49.8395 H   0  0  0  0  0  0  0  0  0  0  0  0
   61.2622   27.6654   48.7963 H   0  0  0  0  0  0  0  0  0  0  0  0
   59.7095   27.1615   49.5466 H   0  0  0  0  0  0  0  0  0  0  0  0
   60.0113   26.1681   47.2810 H   0  0  0  0  0  0  0  0  0  0  0  0
   58.5903   27.2937   47.3567 H   0  0  0  0  0  0  0  0  0  0  0  0
   59.6744   30.2666   43.8230 H   0  0  0  0  0  0  0  0  0  0  0  0
  1  2  1  0
  2  3  1  0
  3  4  2  0
  4  5  1  0
  5  6  2  0
  6  7  1  0
  7  8  1  0
  8  9  1  0
  9 10  1  0
 10 11  1  0
 11 12  1  0
 12 13  1  0
 13 14  2  0
 13 15  1  0
 15 16  1  0
 16 17  1  0
 17 18  2  0
 18 19  1  0
 19 20  2  0
 19 21  1  0
 21 22  1  0
 21 23  1  0
 23 24  2  0
 24 25  1  0
 25 26  2  0
 26 27  1  0
 27 28  2  0
 12 29  1  0
 29 30  1  0
  7 31  2  0
 31  3  1  0
 30  9  1  0
 28 17  1  0
 28 23  1  0
  1 32  1  0
  1 33  1  0
  1 34  1  0
  4 35  1  0
  5 36  1  0
  6 37  1  0
  8 38  1  0
  8 39  1  0
 10 40  1  0
 10 41  1  0
 11 42  1  0
 11 43  1  0
 15 44  1  0
 15 45  1  0
 16 46  1  0
 16 47  1  0
 18 48  1  0
 22 49  1  0
 22 50  1  0
 22 51  1  0
 24 52  1  0
 25 53  1  0
 26 54  1  0
 27 55  1  0
 29 56  1  0
 29 57  1  0
 30 58  1  0
 30 59  1  0
 31 60  1  0
M  END
>  <UniqueID>  (7) 
4

>  <SMILES>  (7) 
COc1cccc(CN2CCN(C(=O)CCc3cc(=O)n(C)c4ccccc34)CC2)c1

>  <Energy>  (7) 
85.1554007336656

>  <Genealogy>  (7) 
COc1cccc(CN2CCN(C(=O)CCc3cc(=O)n(C)c4ccccc34)CC2)c1 (3D coordinates assigned)
COc1cccc(CN2CCN(C(=O)CCc3cc(=O)n(C)c4ccccc34)CC2)c1 (nonaromatic ring conformer: 85.1554007336656 kcal/mol)

>  <smiles>  (7) 
COc1cccc(CN2CCN(C(=O)CCc3cc(=O)n(C)c4ccccc34)CC2)c1

>  <score_type>  (7) 
oracle

>  <origin>  (7) 
adg

>  <m_score__min__energy>  (7) 
-9.8499999999999996

>  <m_primary>  (7) 
energy

$$$$
7:0
     RDKit          3D

 60 65  0  0  0  0  0  0  0  0999 V2000
   56.9825   26.4557   44.2302 H   0  0  0  0  0  0  0  0  0  0  0  0
   57.5470   27.1190   44.9020 C   0  0  0  0  0  0  0  0  0  0  0  0
   58.1040   26.5790   45.9940 C   0  0  0  0  0  0  0  0  0  0  0  0
   58.0223   25.4930   46.1487 H   0  0  0  0  0  0  0  0  0  0  0  0
   58.8260   27.3910   47.0010 C   0  0  0  0  0  0  0  0  0  0  0  0
   58.1850   28.5230   47.5370 C   0  0  0  0  0  0  0  0  0  0  0  0
   57.1572   28.7659   47.2293 H   0  0  0  0  0  0  0  0  0  0  0  0
   58.8450   29.3400   48.4570 C   0  0  0  0  0  0  0  0  0  0  0  0
   58.3316   30.2170   48.8781 H   0  0  0  0  0  0  0  0  0  0  0  0
   60.1590   29.0470   48.8460 C   0  0  0  0  0  0  0  0  0  0  0  0
   60.8610   29.8800   49.7780 N   0  0  0  0  0  0  0  0  0  0  0  0
   60.8480   31.1840   49.9290 C   0  0  0  0  0  0  0  0  0  0  0  0
   59.9980   31.8770   50.8470 C   0  0  0  0  0  0  0  0  0  0  0  0
   58.8120   31.3210   51.3920 C   0  0  0  0  0  0  0  0  0  0  0  0
   58.4821   30.3231   51.0674 H   0  0  0  0  0  0  0  0  0  0  0  0
   58.0580   32.0220   52.3340 C   0  0  0  0  0  0  0  0  0  0  0  0
   57.1654   31.5572   52.7780 H   0  0  0  0  0  0  0  0  0  0  0  0
   58.4330   33.3100   52.7140 C   0  0  0  0  0  0  0  0  0  0  0  0
   57.8652   33.8409   53.4922 H   0  0  0  0  0  0  0  0  0  0  0  0
   59.5290   33.9260   52.1070 C   0  0  0  0  0  0  0  0  0  0  0  0
   59.8000   34.9558   52.3829 H   0  0  0  0  0  0  0  0  0  0  0  0
   60.2880   33.2370   51.1450 C   0  0  0  0  0  0  0  0  0  0  0  0
   61.2670   33.8980   50.4670 N   0  0  0  0  0  0  0  0  0  0  0  0
   61.4500   34.9060   50.6890 H   0  0  0  0  0  0  0  0  0  0  0  0
   61.9620   33.3090   49.4570 C   0  0  0  0  0  0  0  0  0  0  0  0
   62.8900   34.0590   48.7150 C   0  0  0  0  0  0  0  0  0  0  0  0
   63.0399   35.1240   48.9460 H   0  0  0  0  0  0  0  0  0  0  0  0
   63.6220   33.4650   47.6890 C   0  0  0  0  0  0  0  0  0  0  0  0
   64.3380   34.0639   47.1070 H   0  0  0  0  0  0  0  0  0  0  0  0
   63.4480   32.1120   47.3990 C   0  0  0  0  0  0  0  0  0  0  0  0
   64.0348   31.6434   46.5952 H   0  0  0  0  0  0  0  0  0  0  0  0
   62.5300   31.3500   48.1270 C   0  0  0  0  0  0  0  0  0  0  0  0
   62.4012   30.2827   47.8939 H   0  0  0  0  0  0  0  0  0  0  0  0
   61.7650   31.9390   49.1610 C   0  0  0  0  0  0  0  0  0  0  0  0
   60.7680   27.8790   48.3840 C   0  0  0  0  0  0  0  0  0  0  0  0
   61.7719   27.6088   48.7434 H   0  0  0  0  0  0  0  0  0  0  0  0
   60.1130   27.0490   47.4680 C   0  0  0  0  0  0  0  0  0  0  0  0
   60.7430   25.8800   47.0530 O   0  0  0  0  0  0  0  0  0  0  0  0
   57.6430   28.5550   44.5410 C   0  0  0  0  0  0  0  0  0  0  0  0
   56.4520   29.2700   44.3210 C   0  0  0  0  0  0  0  0  0  0  0  0
   55.4850   28.7512   44.3969 H   0  0  0  0  0  0  0  0  0  0  0  0
   56.4820   30.6320   44.0070 C   0  0  0  0  0  0  0  0  0  0  0  0
   55.5434   31.1783   43.8320 H   0  0  0  0  0  0  0  0  0  0  0  0
   57.7080   31.2980   43.9160 C   0  0  0  0  0  0  0  0  0  0  0  0
   57.7470   33.0450   43.5170 S   0  0  0  0  0  0  0  0  0  0  0  0
   58.3800   33.4960   45.1310 C   0  0  0  0  0  0  0  0  0  0  0  0
   59.2830   34.5660   45.2550 C   0  0  0  0  0  0  0  0  0  0  0  0
   59.5916   35.1330   44.3643 H   0  0  0  0  0  0  0  0  0  0  0  0
   59.7880   34.9080   46.5130 C   0  0  0  0  0  0  0  0  0  0  0  0
   60.4990   35.7415   46.6115 H   0  0  0  0  0  0  0  0  0  0  0  0
   59.3910   34.1930   47.6440 C   0  0  0  0  0  0  0  0  0  0  0  0
   59.7948   34.4585   48.6322 H   0  0  0  0  0  0  0  0  0  0  0  0
   58.4790   33.1380   47.5210 C   0  0  0  0  0  0  0  0  0  0  0  0
   58.0830   32.4500   48.6230 F   0  0  0  0  0  0  0  0  0  0  0  0
   57.9740   32.7880   46.2660 C   0  0  0  0  0  0  0  0  0  0  0  0
   57.2589   31.9576   46.1714 H   0  0  0  0  0  0  0  0  0  0  0  0
   58.9000   30.6020   44.1460 C   0  0  0  0  0  0  0  0  0  0  0  0
   59.8634   31.1285   44.0775 H   0  0  0  0  0  0  0  0  0  0  0  0
   58.8720   29.2380   44.4630 C   0  0  0  0  0  0  0  0  0  0  0  0
   59.8122   28.6990   44.6515 H   0  0  0  0  0  0  0  0  0  0  0  0
  1  2  1  0
  2  3  2  0
  3  4  1  0
  3  5  1  0
  5  6  2  0
  6  7  1  0
  6  8  1  0
  8  9  1  0
  8 10  2  0
 10 11  1  0
 11 12  2  3
 12 13  1  0
 13 14  2  0
 14 15  1  0
 14 16  1  0
 16 17  1  0
 16 18  2  0
 18 19  1  0
 18 20  1  0
 20 21  1  0
 20 22  2  0
 22 23  1  0
 23 24  1  0
 23 25  1  0
 25 26  2  0
 26 27  1  0
 26 28  1  0
 28 29  1  0
 28 30  2  0
 30 31  1  0
 30 32  1  0
 32 33  1  0
 32 34  2  0
 10 35  1  0
 35 36  1  0
 35 37  2  0
 37 38  1  0
  2 39  1  0
 39 40  2  0
 40 41  1  0
 40 42  1  0
 42 43  1  0
 42 44  2  0
 44 45  1  0
 45 46  1  0
 46 47  2  0
 47 48  1  0
 47 49  1  0
 49 50  1  0
 49 51  2  0
 51 52  1  0
 51 53  1  0
 53 54  1  0
 53 55  2  0
 55 56  1  0
 44 57  1  0
 57 58  1  0
 57 59  2  0
 59 60  1  0
 37  5  1  0
 59 39  1  0
 34 12  1  0
 55 46  1  0
 22 13  1  0
 34 25  1  0
M  CHG  1  38  -1
M  END
>  <UniqueID>  (8) 
5

>  <SMILES>  (8) 
[O-]c1cc(N=c2c3ccccc3[nH]c3ccccc23)ccc1/C=C/c1ccc(Sc2cccc(F)c2)cc1

>  <Energy>  (8) 
101.05604398375604

>  <Genealogy>  (8) 
[O-]c1cc(N=c2c3ccccc3[nH]c3ccccc23)ccc1C=Cc1ccc(Sc2cccc(F)c2)cc1 (protonated)
[O-]c1cc(N=c2c3ccccc3[nH]c3ccccc23)ccc1/C=C/c1ccc(Sc2cccc(F)c2)cc1 (cis-trans isomerization)
[O-]c1cc(N=c2c3ccccc3[nH]c3ccccc23)ccc1/C=C/c1ccc(Sc2cccc(F)c2)cc1 (3D coordinates assigned)
[O-]c1cc(N=c2c3ccccc3[nH]c3ccccc23)ccc1/C=C/c1ccc(Sc2cccc(F)c2)cc1 (optimized conformer: 101.05604398375604 kcal/mol)

>  <smiles>  (8) 
Oc1cc(N=c2c3ccccc3[nH]c3ccccc23)ccc1C=Cc1ccc(Sc2cccc(F)c2)cc1

>  <score_type>  (8) 
oracle

>  <origin>  (8) 
adg

>  <m_score__min__energy>  (8) 
-12.74

>  <m_primary>  (8) 
energy

$$$$
8:0
     RDKit          3D

 43 45  0  0  0  0  0  0  0  0999 V2000
   55.1877   29.0897   45.1603 H   0  0  0  0  0  0  0  0  0  0  0  0
   56.2680   29.1860   44.9770 C   0  0  0  0  0  0  0  0  0  0  0  0
   57.0870   28.2930   45.5740 C   0  0  0  0  0  0  0  0  0  0  0  0
   56.5550   26.9760   46.0030 C   0  0  0  0  0  0  0  0  0  0  0  0
   57.3310   26.0590   46.3850 O   0  0  0  0  0  0  0  0  0  0  0  0
   55.1860   26.7370   45.9970 O   0  0  0  0  0  0  0  0  0  0  0  0
   58.5310   28.5650   45.7640 C   0  0  0  0  0  0  0  0  0  0  0  0
   59.7750   27.8500   44.8840 S   0  0  0  0  0  0  0  0  0  0  0  0
   60.9920   28.6750   45.7070 C   0  0  0  0  0  0  0  0  0  0  0  0
   62.0733   28.5810   45.5285 H   0  0  0  0  0  0  0  0  0  0  0  0
   60.3870   29.4950   46.6510 C   0  0  0  0  0  0  0  0  0  0  0  0
   60.9623   30.1453   47.3264 H   0  0  0  0  0  0  0  0  0  0  0  0
   59.0300   29.4320   46.6760 N   0  0  0  0  0  0  0  0  0  0  0  0
   58.4440   30.0080   47.3210 H   0  0  0  0  0  0  0  0  0  0  0  0
   56.7200   30.2860   44.0930 C   0  0  0  0  0  0  0  0  0  0  0  0
   56.5770   30.1880   42.6970 C   0  0  0  0  0  0  0  0  0  0  0  0
   56.1089   29.2951   42.2570 H   0  0  0  0  0  0  0  0  0  0  0  0
   57.0250   31.2160   41.8670 C   0  0  0  0  0  0  0  0  0  0  0  0
   56.8938   31.1391   40.7776 H   0  0  0  0  0  0  0  0  0  0  0  0
   57.6390   32.3410   42.4170 C   0  0  0  0  0  0  0  0  0  0  0  0
   57.9893   33.1512   41.7606 H   0  0  0  0  0  0  0  0  0  0  0  0
   57.8100   32.4410   43.7990 C   0  0  0  0  0  0  0  0  0  0  0  0
   58.3004   33.3280   44.2264 H   0  0  0  0  0  0  0  0  0  0  0  0
   57.3580   31.4120   44.6500 C   0  0  0  0  0  0  0  0  0  0  0  0
   57.5140   31.4810   46.0450 O   0  0  0  0  0  0  0  0  0  0  0  0
   57.5020   32.6850   46.8050 C   0  0  0  0  0  0  0  0  0  0  0  0
   56.9238   32.5326   47.7283 H   0  0  0  0  0  0  0  0  0  0  0  0
   57.0379   33.4908   46.2174 H   0  0  0  0  0  0  0  0  0  0  0  0
   58.9130   33.0580   47.1510 C   0  0  0  0  0  0  0  0  0  0  0  0
   59.3680   32.9520   48.4740 C   0  0  0  0  0  0  0  0  0  0  0  0
   58.6775   32.6265   49.2660 H   0  0  0  0  0  0  0  0  0  0  0  0
   60.6940   33.2580   48.7900 C   0  0  0  0  0  0  0  0  0  0  0  0
   61.0383   33.1817   49.8320 H   0  0  0  0  0  0  0  0  0  0  0  0
   61.5880   33.6610   47.7910 C   0  0  0  0  0  0  0  0  0  0  0  0
   62.9100   33.9570   48.1600 O   0  0  0  0  0  0  0  0  0  0  0  0
   64.0010   33.0520   48.0330 C   0  0  0  0  0  0  0  0  0  0  0  0
   64.3533   32.7598   49.0332 H   0  0  0  0  0  0  0  0  0  0  0  0
   63.6731   32.1571   47.4838 H   0  0  0  0  0  0  0  0  0  0  0  0
   64.8199   33.5396   47.4838 H   0  0  0  0  0  0  0  0  0  0  0  0
   61.1370   33.7510   46.4610 C   0  0  0  0  0  0  0  0  0  0  0  0
   61.8313   34.0635   45.6671 H   0  0  0  0  0  0  0  0  0  0  0  0
   59.8110   33.4450   46.1450 C   0  0  0  0  0  0  0  0  0  0  0  0
   59.4691   33.5079   45.1014 H   0  0  0  0  0  0  0  0  0  0  0  0
  1  2  1  0
  2  3  2  0
  3  4  1  0
  4  5  2  0
  4  6  1  0
  3  7  1  0
  7  8  1  0
  8  9  1  0
  9 10  1  0
  9 11  2  0
 11 12  1  0
 11 13  1  0
 13 14  1  0
  2 15  1  0
 15 16  2  0
 16 17  1  0
 16 18  1  0
 18 19  1  0
 18 20  2  0
 20 21  1  0
 20 22  1  0
 22 23  1  0
 22 24  2  0
 24 25  1  0
 25 26  1  0
 26 27  1  0
 26 28  1  0
 26 29  1  0
 29 30  2  0
 30 31  1  0
 30 32  1  0
 32 33  1  0
 32 34  2  0
 34 35  1  0
 35 36  1  0
 36 37  1  0
 36 38  1  0
 36 39  1  0
 34 40  1  0
 40 41  1  0
 40 42  2  0
 42 43  1  0
 13  7  2  0
 24 15  1  0
 42 29  1  0
M  CHG  2   6  -1  13   1
M  END
>  <UniqueID>  (9) 
6

>  <SMILES>  (9) 
COc1ccc(COc2ccccc2/C=C(/C(=O)[O-])c2[nH+]ccs2)cc1

>  <Energy>  (9) 
83.66750459088182

>  <Genealogy>  (9) 
COc1ccc(COc2ccccc2C=C(C(=O)[O-])c2[nH+]ccs2)cc1 (protonated)
COc1ccc(COc2ccccc2/C=C(/C(=O)[O-])c2[nH+]ccs2)cc1 (cis-trans isomerization)
COc1ccc(COc2ccccc2/C=C(/C(=O)[O-])c2[nH+]ccs2)cc1 (3D coordinates assigned)
COc1ccc(COc2ccccc2/C=C(/C(=O)[O-])c2[nH+]ccs2)cc1 (optimized conformer: 83.66750459088182 kcal/mol)

>  <smiles>  (9) 
COc1ccc(COc2ccccc2C=C(C(=O)O)c2nccs2)cc1

>  <score_type>  (9) 
oracle

>  <origin>  (9) 
adg

>  <m_score__min__energy>  (9) 
-8.8900000000000006

>  <m_primary>  (9) 
energy

$$$$
9:0
     RDKit          3D

 62 65  0  0  0  0  0  0  0  0999 V2000
   64.6820   32.3145   51.2011 H   0  0  0  0  0  0  0  0  0  0  0  0
   64.0690   32.5010   50.3070 C   0  0  0  0  0  0  0  0  0  0  0  0
   62.9230   31.8000   50.1120 N   0  0  0  0  0  0  0  0  0  0  0  0
   62.1290   31.9960   49.0220 C   0  0  0  0  0  0  0  0  0  0  0  0
   60.9120   31.2390   48.9040 N   0  0  0  0  0  0  0  0  0  0  0  0
   59.6710   31.7190   49.5160 C   0  0  0  0  0  0  0  0  0  0  0  0
   59.7645   31.6828   50.6114 H   0  0  0  0  0  0  0  0  0  0  0  0
   59.4822   32.7550   49.1981 H   0  0  0  0  0  0  0  0  0  0  0  0
   58.8342   31.0797   49.1981 H   0  0  0  0  0  0  0  0  0  0  0  0
   60.9600   29.8980   48.3220 C   0  0  0  0  0  0  0  0  0  0  0  0
   60.9868   29.1494   49.1276 H   0  0  0  0  0  0  0  0  0  0  0  0
   60.0671   29.7359   47.7004 H   0  0  0  0  0  0  0  0  0  0  0  0
   61.8622   29.8002   47.7004 H   0  0  0  0  0  0  0  0  0  0  0  0
   62.5060   32.9410   48.0390 C   0  0  0  0  0  0  0  0  0  0  0  0
   61.7330   33.0930   46.8340 N   0  0  0  0  0  0  0  0  0  0  0  0
   62.0950   32.7040   45.9340 H   0  0  0  0  0  0  0  0  0  0  0  0
   60.1900   33.8830   46.7740 S   0  0  0  0  0  0  0  0  0  0  0  0
   59.7560   34.2350   48.1690 O   0  0  0  0  0  0  0  0  0  0  0  0
   60.3120   35.1510   45.9740 O   0  0  0  0  0  0  0  0  0  0  0  0
   59.0020   32.7990   46.0580 C   0  0  0  0  0  0  0  0  0  0  0  0
   57.9550   33.2920   45.2740 C   0  0  0  0  0  0  0  0  0  0  0  0
   57.8533   34.3750   45.1104 H   0  0  0  0  0  0  0  0  0  0  0  0
   57.0630   32.4340   44.7140 N   0  0  0  0  0  0  0  0  0  0  0  0
   57.1470   31.0850   44.8870 C   0  0  0  0  0  0  0  0  0  0  0  0
   56.1930   30.2410   44.3070 O   0  0  0  0  0  0  0  0  0  0  0  0
   56.3340   29.6970   43.0010 C   0  0  0  0  0  0  0  0  0  0  0  0
   56.6094   28.6345   43.0741 H   0  0  0  0  0  0  0  0  0  0  0  0
   55.3814   29.7924   42.4592 H   0  0  0  0  0  0  0  0  0  0  0  0
   57.1203   30.2431   42.4592 H   0  0  0  0  0  0  0  0  0  0  0  0
   58.1880   30.5440   45.6680 C   0  0  0  0  0  0  0  0  0  0  0  0
   58.3190   29.0830   45.8790 C   0  0  0  0  0  0  0  0  0  0  0  0
   57.1810   28.3030   46.1360 C   0  0  0  0  0  0  0  0  0  0  0  0
   56.1887   28.7776   46.1489 H   0  0  0  0  0  0  0  0  0  0  0  0
   57.2930   26.9290   46.3760 C   0  0  0  0  0  0  0  0  0  0  0  0
   56.0950   26.1690   46.6080 N   0  0  0  0  0  0  0  0  0  0  0  0
   55.5840   25.2680   45.8210 C   0  0  0  0  0  0  0  0  0  0  0  0
   56.3730   24.3710   45.1680 N   0  0  0  0  0  0  0  0  0  0  0  0
   55.8420   23.4080   44.3680 C   0  0  0  0  0  0  0  0  0  0  0  0
   56.7410   22.4500   43.6440 C   0  0  0  0  0  0  0  0  0  0  0  0
   58.0600   22.6480   44.0150 F   0  0  0  0  0  0  0  0  0  0  0  0
   56.3840   21.1490   43.9480 F   0  0  0  0  0  0  0  0  0  0  0  0
   56.6260   22.6480   42.2790 F   0  0  0  0  0  0  0  0  0  0  0  0
   54.4530   23.3390   44.2080 C   0  0  0  0  0  0  0  0  0  0  0  0
   53.9998   22.5778   43.5559 H   0  0  0  0  0  0  0  0  0  0  0  0
   53.6560   24.2560   44.8930 C   0  0  0  0  0  0  0  0  0  0  0  0
   52.5614   24.2181   44.7912 H   0  0  0  0  0  0  0  0  0  0  0  0
   54.2330   25.1960   45.6860 N   0  0  0  0  0  0  0  0  0  0  0  0
   58.5570   26.3180   46.3050 C   0  0  0  0  0  0  0  0  0  0  0  0
   58.6490   25.2331   46.4614 H   0  0  0  0  0  0  0  0  0  0  0  0
   59.7020   27.0830   46.0360 C   0  0  0  0  0  0  0  0  0  0  0  0
   61.0530   26.4330   46.0140 C   0  0  0  0  0  0  0  0  0  0  0  0
   61.3971   26.2675   47.0456 H   0  0  0  0  0  0  0  0  0  0  0  0
   60.9871   25.4680   45.4901 H   0  0  0  0  0  0  0  0  0  0  0  0
   61.7659   27.0867   45.4901 H   0  0  0  0  0  0  0  0  0  0  0  0
   59.5810   28.4670   45.8470 C   0  0  0  0  0  0  0  0  0  0  0  0
   60.4810   29.0749   45.6724 H   0  0  0  0  0  0  0  0  0  0  0  0
   59.1110   31.4210   46.2560 C   0  0  0  0  0  0  0  0  0  0  0  0
   59.9260   31.0209   46.8771 H   0  0  0  0  0  0  0  0  0  0  0  0
   63.6900   33.6730   48.2400 C   0  0  0  0  0  0  0  0  0  0  0  0
   64.0033   34.4210   47.4968 H   0  0  0  0  0  0  0  0  0  0  0  0
   64.4690   33.4560   49.3760 C   0  0  0  0  0  0  0  0  0  0  0  0
   65.3912   34.0341   49.5352 H   0  0  0  0  0  0  0  0  0  0  0  0
  1  2  1  0
  2  3  2  0
  3  4  1  0
  4  5  1  0
  5  6  1  0
  6  7  1  0
  6  8  1  0
  6  9  1  0
  5 10  1  0
 10 11  1  0
 10 12  1  0
 10 13  1  0
  4 14  2  0
 14 15  1  0
 15 16  1  0
 15 17  1  0
 17 18  2  0
 17 19  2  0
 17 20  1  0
 20 21  2  0
 21 22  1  0
 21 23  1  0
 23 24  2  0
 24 25  1  0
 25 26  1  0
 26 27  1  0
 26 28  1  0
 26 29  1  0
 24 30  1  0
 30 31  1  0
 31 32  2  0
 32 33  1  0
 32 34  1  0
 34 35  1  0
 35 36  2  0
 36 37  1  0
 37 38  2  0
 38 39  1  0
 39 40  1  0
 39 41  1  0
 39 42  1  0
 38 43  1  0
 43 44  1  0
 43 45  2  0
 45 46  1  0
 45 47  1  0
 34 48  2  0
 48 49  1  0
 48 50  1  0
 50 51  1  0
 51 52  1  0
 51 53  1  0
 51 54  1  0
 50 55  2  0
 55 56  1  0
 30 57  2  0
 57 58  1  0
 14 59  1  0
 59 60  1  0
 59 61  2  0
 61 62  1  0
 61  2  1  0
 57 20  1  0
 55 31  1  0
 47 36  1  0
M  CHG  1  47  -1
M  END
>  <UniqueID>  (10) 
7

>  <SMILES>  (10) 
COc1ncc(S(=O)(=O)Nc2cccnc2N(C)C)cc1-c1cc(C)cc(/N=c2\nc(C(F)(F)F)cc[n-]2)c1

>  <Energy>  (10) 
83.67618599292251

>  <Genealogy>  (10) 
COc1ncc(S(=O)(=O)Nc2cccnc2N(C)C)cc1-c1cc(C)cc(N=c2nc(C(F)(F)F)cc[n-]2)c1 (protonated)
COc1ncc(S(=O)(=O)Nc2cccnc2N(C)C)cc1-c1cc(C)cc(/N=c2\nc(C(F)(F)F)cc[n-]2)c1 (cis-trans isomerization)
COc1ncc(S(=O)(=O)Nc2cccnc2N(C)C)cc1-c1cc(C)cc(/N=c2\nc(C(F)(F)F)cc[n-]2)c1 (3D coordinates assigned)
COc1ncc(S(=O)(=O)Nc2cccnc2N(C)C)cc1-c1cc(C)cc(/N=c2\nc(C(F)(F)F)cc[n-]2)c1 (optimized conformer: 83.67618599292251 kcal/mol)

>  <smiles>  (10) 
COc1ncc(S(=O)(=O)Nc2cccnc2N(C)C)cc1-c1cc(C)cc(N=c2nc(C(F)(F)F)cc[nH]2)c1

>  <score_type>  (10) 
oracle

>  <origin>  (10) 
adg

>  <m_score__min__energy>  (10) 
-10.880000000000001

>  <m_primary>  (10) 
energy

$$$$
10:0
     RDKit          3D

 54 56  0  0  0  0  0  0  0  0999 V2000
   57.3520   21.1670   42.9860 C   0  0  0  0  0  0  0  0  0  0  0  0
   56.9690   22.2630   43.9350 C   0  0  0  0  0  0  0  0  0  0  0  0
   57.7850   22.5590   45.0380 C   0  0  0  0  0  0  0  0  0  0  0  0
   57.4480   23.6030   45.9040 C   0  0  0  0  0  0  0  0  0  0  0  0
   56.3050   24.3800   45.6660 C   0  0  0  0  0  0  0  0  0  0  0  0
   55.9250   25.4800   46.6120 C   0  0  0  0  0  0  0  0  0  0  0  0
   55.5000   26.6510   45.8540 N   0  0  0  0  0  0  0  0  0  0  0  0
   56.3180   27.8020   45.6120 C   0  0  0  0  0  0  0  0  0  0  0  0
   55.8170   28.7880   45.0100 O   0  0  0  0  0  0  0  0  0  0  0  0
   57.7110   27.8830   46.0890 C   0  0  0  0  0  0  0  0  0  0  0  0
   58.6390   26.9040   45.7050 C   0  0  0  0  0  0  0  0  0  0  0  0
   59.9680   26.9940   46.1230 C   0  0  0  0  0  0  0  0  0  0  0  0
   60.3790   28.0580   46.9300 C   0  0  0  0  0  0  0  0  0  0  0  0
   59.4560   29.0310   47.3400 C   0  0  0  0  0  0  0  0  0  0  0  0
   59.9820   30.3980   48.3280 S   0  0  0  0  0  0  0  0  0  0  0  0
   59.1900   30.4150   49.6060 O   0  0  0  0  0  0  0  0  0  0  0  0
   61.4330   30.2270   48.6820 O   0  0  0  0  0  0  0  0  0  0  0  0
   59.7850   31.9190   47.4810 N   0  0  0  0  0  0  0  0  0  0  0  0
   59.5600   31.7080   46.0320 C   0  0  0  0  0  0  0  0  0  0  0  0
   58.1010   31.9270   45.6080 C   0  0  0  0  0  0  0  0  0  0  0  0
   57.5750   33.2490   46.0230 N   0  0  0  0  0  0  0  0  0  0  0  0
   57.3710   34.1690   44.8930 C   0  0  0  0  0  0  0  0  0  0  0  0
   58.2160   33.8520   47.2240 C   0  0  2  0  0  0  0  0  0  0  0  0
   59.3110   34.8980   46.9140 C   0  0  0  0  0  0  0  0  0  0  0  0
   58.7600   32.7480   48.1480 C   0  0  0  0  0  0  0  0  0  0  0  0
   58.1180   28.9250   46.9350 C   0  0  0  0  0  0  0  0  0  0  0  0
   55.4930   24.0880   44.5590 C   0  0  0  0  0  0  0  0  0  0  0  0
   55.8290   23.0440   43.6930 C   0  0  0  0  0  0  0  0  0  0  0  0
   57.6622   20.2794   43.5569 H   0  0  0  0  0  0  0  0  0  0  0  0
   56.4895   20.9125   42.3525 H   0  0  0  0  0  0  0  0  0  0  0  0
   58.1853   21.5051   42.3525 H   0  0  0  0  0  0  0  0  0  0  0  0
   58.6936   21.9668   45.2216 H   0  0  0  0  0  0  0  0  0  0  0  0
   58.0826   23.8163   46.7768 H   0  0  0  0  0  0  0  0  0  0  0  0
   55.0997   25.1409   47.2554 H   0  0  0  0  0  0  0  0  0  0  0  0
   56.7928   25.7428   47.2347 H   0  0  0  0  0  0  0  0  0  0  0  0
   58.3188   26.0628   45.0727 H   0  0  0  0  0  0  0  0  0  0  0  0
   60.6930   26.2257   45.8164 H   0  0  0  0  0  0  0  0  0  0  0  0
   61.4303   28.1327   47.2449 H   0  0  0  0  0  0  0  0  0  0  0  0
   60.1956   32.4110   45.4736 H   0  0  0  0  0  0  0  0  0  0  0  0
   59.8104   30.6598   45.8117 H   0  0  0  0  0  0  0  0  0  0  0  0
   58.0383   31.8519   44.5124 H   0  0  0  0  0  0  0  0  0  0  0  0
   57.4924   31.1573   46.1051 H   0  0  0  0  0  0  0  0  0  0  0  0
   57.1477   35.1759   45.2756 H   0  0  0  0  0  0  0  0  0  0  0  0
   58.2832   34.2039   44.2793 H   0  0  0  0  0  0  0  0  0  0  0  0
   56.5295   33.8150   44.2793 H   0  0  0  0  0  0  0  0  0  0  0  0
   57.4208   34.4133   47.7364 H   0  0  0  0  0  0  0  0  0  0  0  0
   59.7211   35.2898   47.8565 H   0  0  0  0  0  0  0  0  0  0  0  0
   60.1159   34.4248   46.3325 H   0  0  0  0  0  0  0  0  0  0  0  0
   58.8752   35.7237   46.3325 H   0  0  0  0  0  0  0  0  0  0  0  0
   59.2071   33.2177   49.0365 H   0  0  0  0  0  0  0  0  0  0  0  0
   57.9205   32.0923   48.4224 H   0  0  0  0  0  0  0  0  0  0  0  0
   57.3819   29.6645   47.2833 H   0  0  0  0  0  0  0  0  0  0  0  0
   54.5875   24.6840   44.3722 H   0  0  0  0  0  0  0  0  0  0  0  0
   55.1968   22.8336   42.8177 H   0  0  0  0  0  0  0  0  0  0  0  0
  1  2  1  0
  2  3  2  0
  3  4  1  0
  4  5  2  0
  5  6  1  0
  6  7  1  0
  7  8  1  0
  8  9  2  0
  8 10  1  0
 10 11  2  0
 11 12  1  0
 12 13  2  0
 13 14  1  0
 14 15  1  0
 15 16  2  0
 15 17  2  0
 15 18  1  0
 18 19  1  0
 19 20  1  0
 20 21  1  0
 21 22  1  0
 21 23  1  0
 23 24  1  0
 23 25  1  0
 14 26  2  0
  5 27  1  0
 27 28  2  0
 28  2  1  0
 26 10  1  0
 25 18  1  0
  1 29  1  0
  1 30  1  0
  1 31  1  0
  3 32  1  0
  4 33  1  0
  6 34  1  0
  6 35  1  0
 11 36  1  0
 12 37  1  0
 13 38  1  0
 19 39  1  0
 19 40  1  0
 20 41  1  0
 20 42  1  0
 22 43  1  0
 22 44  1  0
 22 45  1  0
 23 46  1  1
 24 47  1  0
 24 48  1  0
 24 49  1  0
 25 50  1  0
 25 51  1  0
 26 52  1  0
 27 53  1  0
 28 54  1  0
M  CHG  1   7  -1
M  END
>  <UniqueID>  (11) 
8

>  <SMILES>  (11) 
Cc1ccc(C[N-]C(=O)c2cccc(S(=O)(=O)N3CCN(C)[C@H](C)C3)c2)cc1

>  <Energy>  (11) 
70.27269640573995

>  <Genealogy>  (11) 
Cc1ccc(C[N-]C(=O)c2cccc(S(=O)(=O)N3CCN(C)C(C)C3)c2)cc1 (protonated)
Cc1ccc(C[N-]C(=O)c2cccc(S(=O)(=O)N3CCN(C)[C@H](C)C3)c2)cc1 (chirality)
Cc1ccc(C[N-]C(=O)c2cccc(S(=O)(=O)N3CCN(C)[C@H](C)C3)c2)cc1 (3D coordinates assigned)
Cc1ccc(C[N-]C(=O)c2cccc(S(=O)(=O)N3CCN(C)[C@H](C)C3)c2)cc1 (nonaromatic ring conformer: 70.27269640573995 kcal/mol)

>  <smiles>  (11) 
Cc1ccc(CNC(=O)c2cccc(S(=O)(=O)N3CCN(C)C(C)C3)c2)cc1

>  <score_type>  (11) 
oracle

>  <origin>  (11) 
adg

>  <m_score__min__energy>  (11) 
-10.720000000000001

>  <m_primary>  (11) 
energy

$$$$
11:0
     RDKit          3D

 35 37  0  0  0  0  0  0  0  0999 V2000
   57.6760   25.1080   46.3200 C   0  0  0  0  0  0  0  0  0  0  0  0
   57.6970   26.3600   46.9980 O   0  0  0  0  0  0  0  0  0  0  0  0
   57.5030   27.6050   46.3790 C   0  0  0  0  0  0  0  0  0  0  0  0
   58.4680   28.6320   46.4370 C   0  0  0  0  0  0  0  0  0  0  0  0
   58.2320   29.8740   45.8100 C   0  0  0  0  0  0  0  0  0  0  0  0
   59.1600   30.9450   45.8410 C   0  0  0  0  0  0  0  0  0  0  0  0
   60.4170   30.9080   46.6240 C   0  0  0  0  0  0  0  0  0  0  0  0
   61.0860   29.8410   46.6900 O   0  0  0  0  0  0  0  0  0  0  0  0
   60.8570   32.0770   47.3320 N   0  0  0  0  0  0  0  0  0  0  0  0
   61.9850   32.0630   48.2180 C   0  0  0  0  0  0  0  0  0  0  0  0
   61.9580   31.2250   49.3420 C   0  0  0  0  0  0  0  0  0  0  0  0
   63.0420   31.1900   50.2240 C   0  0  0  0  0  0  0  0  0  0  0  0
   64.1660   31.9820   49.9810 C   0  0  0  0  0  0  0  0  0  0  0  0
   64.2150   32.8000   48.8500 C   0  0  0  0  0  0  0  0  0  0  0  0
   63.1330   32.8420   47.9610 C   0  0  0  0  0  0  0  0  0  0  0  0
   63.2820   33.8110   46.5000 Cl  0  0  0  0  0  0  0  0  0  0  0  0
   58.8640   32.1110   45.1220 C   0  0  0  0  0  0  0  0  0  0  0  0
   57.6580   32.2030   44.4270 C   0  0  0  0  0  0  0  0  0  0  0  0
   57.3790   33.2530   43.7900 O   0  0  0  0  0  0  0  0  0  0  0  0
   56.7970   31.1930   44.4360 O   0  0  0  0  0  0  0  0  0  0  0  0
   57.0300   30.0570   45.0830 C   0  0  0  0  0  0  0  0  0  0  0  0
   56.0770   29.0360   45.0340 C   0  0  0  0  0  0  0  0  0  0  0  0
   56.3090   27.8210   45.6810 C   0  0  0  0  0  0  0  0  0  0  0  0
   55.3480   26.8180   45.6200 O   0  0  0  0  0  0  0  0  0  0  0  0
   57.6623   24.2919   47.0574 H   0  0  0  0  0  0  0  0  0  0  0  0
   56.7767   25.0475   45.6894 H   0  0  0  0  0  0  0  0  0  0  0  0
   58.5728   25.0174   45.6894 H   0  0  0  0  0  0  0  0  0  0  0  0
   59.4123   28.4634   46.9754 H   0  0  0  0  0  0  0  0  0  0  0  0
   60.4690   33.0040   47.0450 H   0  0  0  0  0  0  0  0  0  0  0  0
   61.0788   30.5915   49.5308 H   0  0  0  0  0  0  0  0  0  0  0  0
   63.0095   30.5384   51.1096 H   0  0  0  0  0  0  0  0  0  0  0  0
   65.0140   31.9617   50.6813 H   0  0  0  0  0  0  0  0  0  0  0  0
   65.1070   33.4139   48.6564 H   0  0  0  0  0  0  0  0  0  0  0  0
   59.5777   32.9479   45.1058 H   0  0  0  0  0  0  0  0  0  0  0  0
   55.1381   29.1908   44.4821 H   0  0  0  0  0  0  0  0  0  0  0  0
  1  2  1  0
  2  3  1  0
  3  4  2  0
  4  5  1  0
  5  6  1  0
  6  7  1  0
  7  8  2  0
  7  9  1  0
  9 10  1  0
 10 11  2  0
 11 12  1  0
 12 13  2  0
 13 14  1  0
 14 15  2  0
 15 16  1  0
  6 17  2  0
 17 18  1  0
 18 19  2  0
 18 20  1  0
 20 21  1  0
 21 22  1  0
 22 23  2  0
 23 24  1  0
 23  3  1  0
 21  5  2  0
 15 10  1  0
  1 25  1  0
  1 26  1  0
  1 27  1  0
  4 28  1  0
  9 29  1  0
 11 30  1  0
 12 31  1  0
 13 32  1  0
 14 33  1  0
 17 34  1  0
 22 35  1  0
M  CHG  1  24  -1
M  END
>  <UniqueID>  (12) 
9

>  <SMILES>  (12) 
COc1cc2c(C(=O)Nc3ccccc3Cl)cc(=O)oc2cc1[O-]

>  <Energy>  (12) 
54.412055717828544

>  <Genealogy>  (12) 
COc1cc2c(C(=O)Nc3ccccc3Cl)cc(=O)oc2cc1[O-] (protonated)
COc1cc2c(C(=O)Nc3ccccc3Cl)cc(=O)oc2cc1[O-] (3D coordinates assigned)
COc1cc2c(C(=O)Nc3ccccc3Cl)cc(=O)oc2cc1[O-] (optimized conformer: 54.412055717828544 kcal/mol)

>  <smiles>  (12) 
COc1cc2c(C(=O)Nc3ccccc3Cl)cc(=O)oc2cc1O

>  <score_type>  (12) 
oracle

>  <origin>  (12) 
adg

>  <m_score__min__energy>  (12) 
-10.26

>  <m_primary>  (12) 
energy

$$$$
12:0
     RDKit          3D

 49 51  0  0  0  0  0  0  0  0999 V2000
   56.2860   22.5560   42.9890 C   0  0  0  0  0  0  0  0  0  0  0  0
   56.0830   22.9760   44.4440 C   0  0  0  0  0  0  0  0  0  0  0  0
   57.2570   23.7020   44.9510 N   0  0  0  0  0  0  0  0  0  0  0  0
   58.2480   22.9770   45.7650 C   0  0  0  0  0  0  0  0  0  0  0  0
   59.2840   22.2930   44.8770 C   0  0  0  0  0  0  0  0  0  0  0  0
   57.4300   25.1080   44.6550 C   0  0  0  0  0  0  0  0  0  0  0  0
   57.2950   26.0780   45.6620 C   0  0  0  0  0  0  0  0  0  0  0  0
   57.4760   27.4340   45.3740 C   0  0  0  0  0  0  0  0  0  0  0  0
   57.7840   27.8490   44.0680 C   0  0  0  0  0  0  0  0  0  0  0  0
   58.0150   29.2330   43.7530 N   0  0  0  0  0  0  0  0  0  0  0  0
   57.3240   30.3250   44.3760 C   0  0  0  0  0  0  0  0  0  0  0  0
   56.1590   30.1580   44.8310 O   0  0  0  0  0  0  0  0  0  0  0  0
   57.9400   31.6660   44.4240 C   0  0  0  0  0  0  0  0  0  0  0  0
   58.5750   32.2940   45.4880 C   0  0  0  0  0  0  0  0  0  0  0  0
   58.6570   31.8430   46.8930 C   0  0  0  0  0  0  0  0  0  0  0  0
   58.4490   32.7620   47.9340 C   0  0  0  0  0  0  0  0  0  0  0  0
   58.5180   32.3450   49.2670 C   0  0  0  0  0  0  0  0  0  0  0  0
   58.7800   31.0070   49.5710 C   0  0  0  0  0  0  0  0  0  0  0  0
   58.9650   30.0810   48.5410 C   0  0  0  0  0  0  0  0  0  0  0  0
   58.8940   30.4930   47.2070 C   0  0  0  0  0  0  0  0  0  0  0  0
   59.0830   33.4700   45.0650 N   0  0  0  0  0  0  0  0  0  0  0  0
   58.7820   33.5900   43.8040 O   0  0  0  0  0  0  0  0  0  0  0  0
   58.1040   32.5520   43.3740 C   0  0  0  0  0  0  0  0  0  0  0  0
   57.6260   32.3900   41.9680 C   0  0  0  0  0  0  0  0  0  0  0  0
   57.9340   26.8820   43.0640 C   0  0  0  0  0  0  0  0  0  0  0  0
   57.7510   25.5270   43.3510 C   0  0  0  0  0  0  0  0  0  0  0  0
   56.7645   21.5660   42.9565 H   0  0  0  0  0  0  0  0  0  0  0  0
   55.3112   22.5089   42.4815 H   0  0  0  0  0  0  0  0  0  0  0  0
   56.9285   23.2906   42.4815 H   0  0  0  0  0  0  0  0  0  0  0  0
   55.2000   23.6287   44.5103 H   0  0  0  0  0  0  0  0  0  0  0  0
   55.9399   22.0715   45.0534 H   0  0  0  0  0  0  0  0  0  0  0  0
   58.7577   23.6889   46.4309 H   0  0  0  0  0  0  0  0  0  0  0  0
   57.7258   22.2082   46.3534 H   0  0  0  0  0  0  0  0  0  0  0  0
   60.0364   21.7962   45.5072 H   0  0  0  0  0  0  0  0  0  0  0  0
   58.7863   21.5454   44.2419 H   0  0  0  0  0  0  0  0  0  0  0  0
   59.7760   23.0444   44.2419 H   0  0  0  0  0  0  0  0  0  0  0  0
   57.0444   25.7676   46.6871 H   0  0  0  0  0  0  0  0  0  0  0  0
   57.3766   28.1808   46.1755 H   0  0  0  0  0  0  0  0  0  0  0  0
   58.7060   29.4600   43.0010 H   0  0  0  0  0  0  0  0  0  0  0  0
   58.2308   33.8145   47.7000 H   0  0  0  0  0  0  0  0  0  0  0  0
   58.3656   33.0723   50.0780 H   0  0  0  0  0  0  0  0  0  0  0  0
   58.8406   30.6826   50.6203 H   0  0  0  0  0  0  0  0  0  0  0  0
   59.1668   29.0264   48.7802 H   0  0  0  0  0  0  0  0  0  0  0  0
   59.0241   29.7577   46.3993 H   0  0  0  0  0  0  0  0  0  0  0  0
   56.5842   32.0369   41.9733 H   0  0  0  0  0  0  0  0  0  0  0  0
   57.6826   33.3575   41.4477 H   0  0  0  0  0  0  0  0  0  0  0  0
   58.2592   31.6563   41.4477 H   0  0  0  0  0  0  0  0  0  0  0  0
   58.1978   27.1926   42.0423 H   0  0  0  0  0  0  0  0  0  0  0  0
   57.8589   24.7809   42.5499 H   0  0  0  0  0  0  0  0  0  0  0  0
  1  2  1  0
  2  3  1  0
  3  4  1  0
  4  5  1  0
  3  6  1  0
  6  7  2  0
  7  8  1  0
  8  9  2  0
  9 10  1  0
 10 11  1  0
 11 12  2  0
 11 13  1  0
 13 14  1  0
 14 15  1  0
 15 16  2  0
 16 17  1  0
 17 18  2  0
 18 19  1  0
 19 20  2  0
 14 21  2  0
 21 22  1  0
 22 23  1  0
 23 24  1  0
  9 25  1  0
 25 26  2  0
 26  6  1  0
 23 13  2  0
 20 15  1  0
  1 27  1  0
  1 28  1  0
  1 29  1  0
  2 30  1  0
  2 31  1  0
  4 32  1  0
  4 33  1  0
  5 34  1  0
  5 35  1  0
  5 36  1  0
  7 37  1  0
  8 38  1  0
 10 39  1  0
 16 40  1  0
 17 41  1  0
 18 42  1  0
 19 43  1  0
 20 44  1  0
 24 45  1  0
 24 46  1  0
 24 47  1  0
 25 48  1  0
 26 49  1  0
M  END
>  <UniqueID>  (13) 
10

>  <SMILES>  (13) 
CCN(CC)c1ccc(NC(=O)c2c(-c3ccccc3)noc2C)cc1

>  <Energy>  (13) 
86.98354294771309

>  <Genealogy>  (13) 
CCN(CC)c1ccc(NC(=O)c2c(-c3ccccc3)noc2C)cc1 (3D coordinates assigned)
CCN(CC)c1ccc(NC(=O)c2c(-c3ccccc3)noc2C)cc1 (optimized conformer: 86.98354294771309 kcal/mol)

>  <smiles>  (13) 
CCN(CC)c1ccc(NC(=O)c2c(-c3ccccc3)noc2C)cc1

>  <score_type>  (13) 
oracle

>  <origin>  (13) 
adg

>  <m_score__min__energy>  (13) 
-7.8200000000000003

>  <m_primary>  (13) 
energy

$$$$
13:0
     RDKit          3D

 35 37  0  0  0  0  0  0  0  0999 V2000
   59.8120   30.0760   48.3270 O   0  0  0  0  0  0  0  0  0  0  0  0
   60.2850   30.5020   47.2390 C   0  0  0  0  0  0  0  0  0  0  0  0
   59.7790   30.0150   45.9850 N   0  0  0  0  0  0  0  0  0  0  0  0
   58.6090   29.4950   45.7320 C   0  0  0  0  0  0  0  0  0  0  0  0
   58.2490   28.1840   46.1080 C   0  0  0  0  0  0  0  0  0  0  0  0
   56.9790   27.6980   45.7880 C   0  0  0  0  0  0  0  0  0  0  0  0
   56.0970   28.4780   45.1080 N   0  0  0  0  0  0  0  0  0  0  0  0
   56.4240   29.7380   44.7150 C   0  0  0  0  0  0  0  0  0  0  0  0
   57.6830   30.2630   45.0130 C   0  0  0  0  0  0  0  0  0  0  0  0
   61.2890   31.5920   47.2490 C   0  0  0  0  0  0  0  0  0  0  0  0
   62.5790   31.3180   47.7400 C   0  0  0  0  0  0  0  0  0  0  0  0
   63.5770   32.2930   47.7060 C   0  0  0  0  0  0  0  0  0  0  0  0
   63.3050   33.5560   47.1840 C   0  0  0  0  0  0  0  0  0  0  0  0
   62.0280   33.8560   46.7080 C   0  0  0  0  0  0  0  0  0  0  0  0
   61.0050   32.8920   46.7460 C   0  0  0  0  0  0  0  0  0  0  0  0
   59.6450   33.2930   46.3130 C   0  0  0  0  0  0  0  0  0  0  0  0
   58.5430   33.0910   47.1610 C   0  0  0  0  0  0  0  0  0  0  0  0
   57.2580   33.4590   46.7480 C   0  0  0  0  0  0  0  0  0  0  0  0
   57.0640   34.0220   45.4830 C   0  0  0  0  0  0  0  0  0  0  0  0
   58.1520   34.2160   44.6290 C   0  0  0  0  0  0  0  0  0  0  0  0
   59.4370   33.8480   45.0380 C   0  0  0  0  0  0  0  0  0  0  0  0
   58.9642   27.5479   46.6501 H   0  0  0  0  0  0  0  0  0  0  0  0
   56.6912   26.6795   46.0876 H   0  0  0  0  0  0  0  0  0  0  0  0
   55.1520   28.0990   44.8750 H   0  0  0  0  0  0  0  0  0  0  0  0
   55.6940   30.3459   44.1603 H   0  0  0  0  0  0  0  0  0  0  0  0
   57.9479   31.2786   44.6837 H   0  0  0  0  0  0  0  0  0  0  0  0
   62.8033   30.3244   48.1552 H   0  0  0  0  0  0  0  0  0  0  0  0
   64.5811   32.0638   48.0923 H   0  0  0  0  0  0  0  0  0  0  0  0
   64.0979   34.3175   47.1471 H   0  0  0  0  0  0  0  0  0  0  0  0
   61.8197   34.8558   46.2993 H   0  0  0  0  0  0  0  0  0  0  0  0
   58.6913   32.6415   48.1540 H   0  0  0  0  0  0  0  0  0  0  0  0
   56.3999   33.3053   47.4188 H   0  0  0  0  0  0  0  0  0  0  0  0
   56.0534   34.3125   45.1600 H   0  0  0  0  0  0  0  0  0  0  0  0
   57.9976   34.6587   43.6339 H   0  0  0  0  0  0  0  0  0  0  0  0
   60.2900   33.9934   44.3588 H   0  0  0  0  0  0  0  0  0  0  0  0
  1  2  2  0
  2  3  1  0
  3  4  2  3
  4  5  1  0
  5  6  2  0
  6  7  1  0
  7  8  1  0
  8  9  2  0
  2 10  1  0
 10 11  2  0
 11 12  1  0
 12 13  2  0
 13 14  1  0
 14 15  2  0
 15 16  1  0
 16 17  2  0
 17 18  1  0
 18 19  2  0
 19 20  1  0
 20 21  2  0
  9  4  1  0
 15 10  1  0
 21 16  1  0
  5 22  1  0
  6 23  1  0
  7 24  1  0
  8 25  1  0
  9 26  1  0
 11 27  1  0
 12 28  1  0
 13 29  1  0
 14 30  1  0
 17 31  1  0
 18 32  1  0
 19 33  1  0
 20 34  1  0
 21 35  1  0
M  END
>  <UniqueID>  (14) 
11

>  <SMILES>  (14) 
O=C(N=c1cc[nH]cc1)c1ccccc1-c1ccccc1

>  <Energy>  (14) 
56.02771244586048

>  <Genealogy>  (14) 
O=C(N=c1cc[nH]cc1)c1ccccc1-c1ccccc1 (3D coordinates assigned)
O=C(N=c1cc[nH]cc1)c1ccccc1-c1ccccc1 (optimized conformer: 56.02771244586048 kcal/mol)

>  <smiles>  (14) 
O=C(N=c1cc[nH]cc1)c1ccccc1-c1ccccc1

>  <score_type>  (14) 
oracle

>  <origin>  (14) 
adg

>  <m_score__min__energy>  (14) 
-7.7699999999999996

>  <m_primary>  (14) 
energy

$$$$
14:0
     RDKit          3D

 46 50  0  0  1  0  0  0  0  0999 V2000
   57.0880   24.4620   43.7020 C   0  0  0  0  0  0  0  0  0  0  0  0
   56.5470   25.1980   45.2540 S   0  0  0  0  0  0  0  0  0  0  0  0
   57.4550   26.6850   45.6650 C   0  0  0  0  0  0  0  0  0  0  0  0
   58.6690   26.6460   46.2470 N   0  0  0  0  0  0  0  0  0  0  0  0
   59.2950   27.8110   46.5270 C   0  0  0  0  0  0  0  0  0  0  0  0
   60.4280   27.7390   47.0710 O   0  0  0  0  0  0  0  0  0  0  0  0
   58.7140   29.0270   46.2300 C   0  0  0  0  0  0  0  0  0  0  0  0
   57.4980   29.0380   45.6460 C   0  0  0  0  0  0  0  0  0  0  0  0
   57.1170   30.2840   45.4410 N   0  0  0  0  0  0  0  0  0  0  0  0
   58.1350   31.0780   45.9140 C   0  0  0  0  0  0  0  0  0  0  0  0
   59.1170   30.3330   46.3990 N   0  0  0  0  0  0  0  0  0  0  0  0
   60.3420   30.7620   46.9820 C   0  0  2  0  0  0  0  0  0  0  0  0
   60.3820   30.2590   48.4080 C   0  0  0  0  0  0  0  0  0  0  0  0
   61.2050   29.3270   48.7060 O   0  0  0  0  0  0  0  0  0  0  0  0
   59.5100   30.8090   49.4350 C   0  0  0  0  0  0  0  0  0  0  0  0
   58.4890   30.1030   50.0320 C   0  0  0  0  0  0  0  0  0  0  0  0
   57.6740   30.6420   51.0160 C   0  0  0  0  0  0  0  0  0  0  0  0
   57.9080   31.9560   51.4060 C   0  0  0  0  0  0  0  0  0  0  0  0
   57.1460   32.5580   52.3710 F   0  0  0  0  0  0  0  0  0  0  0  0
   58.9230   32.6920   50.8270 C   0  0  0  0  0  0  0  0  0  0  0  0
   59.7020   32.1070   49.8560 C   0  0  0  0  0  0  0  0  0  0  0  0
   60.6850   32.1750   47.0260 C   0  0  0  0  0  0  0  0  0  0  0  0
   59.3060   33.2960   46.9590 S   0  0  1  0  0  4  0  0  0  0  0  0
   59.5550   34.7060   45.8800 C   0  0  0  0  0  0  0  0  0  0  0  0
   58.4840   34.6050   44.8560 C   0  0  0  0  0  0  0  0  0  0  0  0
   57.4760   33.5740   45.2070 C   0  0  0  0  0  0  0  0  0  0  0  0
   58.1420   32.4950   45.8810 N   0  0  0  0  0  0  0  0  0  0  0  0
   56.8980   27.8630   45.3780 N   0  0  0  0  0  0  0  0  0  0  0  0
   57.7275   23.5920   43.9120 H   0  0  0  0  0  0  0  0  0  0  0  0
   56.2098   24.1403   43.1230 H   0  0  0  0  0  0  0  0  0  0  0  0
   57.6572   25.2042   43.1230 H   0  0  0  0  0  0  0  0  0  0  0  0
   61.0832   30.3444   46.2847 H   0  0  0  0  0  0  0  0  0  0  0  0
   58.3122   29.0649   49.7139 H   0  0  0  0  0  0  0  0  0  0  0  0
   56.8682   30.0491   51.4734 H   0  0  0  0  0  0  0  0  0  0  0  0
   59.1059   33.7312   51.1379 H   0  0  0  0  0  0  0  0  0  0  0  0
   60.5090   32.6978   49.3981 H   0  0  0  0  0  0  0  0  0  0  0  0
   61.2303   32.3630   47.9627 H   0  0  0  0  0  0  0  0  0  0  0  0
   61.2799   32.3712   46.1218 H   0  0  0  0  0  0  0  0  0  0  0  0
   58.7710   33.6000   48.1790 H   0  0  0  0  0  0  0  0  0  0  0  0
   59.4617   35.6454   46.4447 H   0  0  0  0  0  0  0  0  0  0  0  0
   60.5579   34.7065   45.4281 H   0  0  0  0  0  0  0  0  0  0  0  0
   57.9808   35.5794   44.7709 H   0  0  0  0  0  0  0  0  0  0  0  0
   58.9506   34.3141   43.9033 H   0  0  0  0  0  0  0  0  0  0  0  0
   56.7139   34.0107   45.8691 H   0  0  0  0  0  0  0  0  0  0  0  0
   56.9846   33.2024   44.2957 H   0  0  0  0  0  0  0  0  0  0  0  0
   55.9580   27.8920   44.9270 H   0  0  0  0  0  0  0  0  0  0  0  0
  1  2  1  0
  2  3  1  0
  3  4  2  0
  4  5  1  0
  5  6  2  0
  5  7  1  0
  7  8  2  0
  8  9  1  0
  9 10  2  0
 10 11  1  0
 11 12  1  0
 12 13  1  0
 13 14  2  0
 13 15  1  0
 15 16  2  0
 16 17  1  0
 17 18  2  0
 18 19  1  0
 18 20  1  0
 20 21  2  0
 12 22  1  0
 22 23  1  0
 23 24  1  0
 24 25  1  0
 25 26  1  0
 26 27  1  0
  8 28  1  0
 28  3  1  0
 11  7  1  0
 21 15  1  0
 27 23  1  0
 27 10  1  0
  1 29  1  0
  1 30  1  0
  1 31  1  0
 12 32  1  6
 16 33  1  0
 17 34  1  0
 20 35  1  0
 21 36  1  0
 22 37  1  0
 22 38  1  0
 23 39  1  6
 24 40  1  0
 24 41  1  0
 25 42  1  0
 25 43  1  0
 26 44  1  0
 26 45  1  0
 28 46  1  0
M  END
>  <smiles>  (15) 
CSc1nc(=O)c2c(nc3n2C(C(=O)c2ccc(F)cc2)C[SH]2CCCN32)[nH]1

>  <score_type>  (15) 
oracle

>  <origin>  (15) 
adg

>  <m_score__min__energy>  (15) 
-7.6699999999999999

>  <m_primary>  (15) 
energy

$$$$
15:0
     RDKit          3D

 50 53  0  0  0  0  0  0  0  0999 V2000
   63.5780   33.8800   47.1050 C   0  0  0  0  0  0  0  0  0  0  0  0
   62.6890   32.7490   47.5300 C   0  0  0  0  0  0  0  0  0  0  0  0
   63.0110   31.9830   48.6610 C   0  0  0  0  0  0  0  0  0  0  0  0
   62.2080   30.8990   49.0280 C   0  0  0  0  0  0  0  0  0  0  0  0
   61.0880   30.5580   48.2580 C   0  0  0  0  0  0  0  0  0  0  0  0
   60.1310   29.1410   48.6730 S   0  0  0  0  0  0  0  0  0  0  0  0
   60.8390   27.8990   48.2060 O   0  0  0  0  0  0  0  0  0  0  0  0
   59.9640   29.0630   50.1650 O   0  0  0  0  0  0  0  0  0  0  0  0
   58.5220   29.2470   47.9110 C   0  0  0  0  0  0  0  0  0  0  0  0
   58.3060   28.0940   46.9740 C   0  0  0  0  0  0  0  0  0  0  0  0
   58.2770   26.8080   47.4160 N   0  0  0  0  0  0  0  0  0  0  0  0
   58.0870   26.1030   46.2860 C   0  0  0  0  0  0  0  0  0  0  0  0
   57.9690   24.7210   46.1630 C   0  0  0  0  0  0  0  0  0  0  0  0
   57.7610   24.1940   44.8750 C   0  0  0  0  0  0  0  0  0  0  0  0
   57.6730   25.0520   43.7570 C   0  0  0  0  0  0  0  0  0  0  0  0
   57.7980   26.4450   43.9150 C   0  0  0  0  0  0  0  0  0  0  0  0
   58.0110   26.9350   45.2060 C   0  0  0  0  0  0  0  0  0  0  0  0
   58.1620   28.2040   45.6240 N   0  0  0  0  0  0  0  0  0  0  0  0
   58.1150   29.4260   44.8140 C   0  0  0  0  0  0  0  0  0  0  0  0
   56.7450   30.0380   44.8740 C   0  0  0  0  0  0  0  0  0  0  0  0
   55.7590   29.3090   45.1610 O   0  0  0  0  0  0  0  0  0  0  0  0
   56.5350   31.4430   44.6770 N   0  0  0  0  0  0  0  0  0  0  0  0
   57.4510   32.4790   45.0550 C   0  0  0  0  0  0  0  0  0  0  0  0
   57.4520   32.9360   46.3790 C   0  0  0  0  0  0  0  0  0  0  0  0
   58.3310   33.9480   46.7760 C   0  0  0  0  0  0  0  0  0  0  0  0
   59.1980   34.5260   45.8450 C   0  0  0  0  0  0  0  0  0  0  0  0
   59.1820   34.0980   44.5140 C   0  0  0  0  0  0  0  0  0  0  0  0
   58.3100   33.0790   44.1150 C   0  0  0  0  0  0  0  0  0  0  0  0
   58.2820   32.7060   42.8110 F   0  0  0  0  0  0  0  0  0  0  0  0
   60.7760   31.3100   47.1170 C   0  0  0  0  0  0  0  0  0  0  0  0
   61.5720   32.4010   46.7560 C   0  0  0  0  0  0  0  0  0  0  0  0
   63.9769   34.3875   47.9957 H   0  0  0  0  0  0  0  0  0  0  0  0
   64.4106   33.4859   46.5038 H   0  0  0  0  0  0  0  0  0  0  0  0
   62.9984   34.5960   46.5038 H   0  0  0  0  0  0  0  0  0  0  0  0
   63.8978   32.2363   49.2605 H   0  0  0  0  0  0  0  0  0  0  0  0
   62.4563   30.3117   49.9244 H   0  0  0  0  0  0  0  0  0  0  0  0
   57.7491   29.2271   48.6934 H   0  0  0  0  0  0  0  0  0  0  0  0
   58.4603   30.1852   47.3401 H   0  0  0  0  0  0  0  0  0  0  0  0
   58.0361   24.0638   47.0425 H   0  0  0  0  0  0  0  0  0  0  0  0
   57.6663   23.1067   44.7382 H   0  0  0  0  0  0  0  0  0  0  0  0
   57.5056   24.6288   42.7556 H   0  0  0  0  0  0  0  0  0  0  0  0
   57.7304   27.1241   43.0523 H   0  0  0  0  0  0  0  0  0  0  0  0
   58.8514   30.1460   45.2002 H   0  0  0  0  0  0  0  0  0  0  0  0
   58.3484   29.1724   43.7694 H   0  0  0  0  0  0  0  0  0  0  0  0
   56.7576   32.4964   47.1101 H   0  0  0  0  0  0  0  0  0  0  0  0
   58.3401   34.2894   47.8216 H   0  0  0  0  0  0  0  0  0  0  0  0
   59.8935   35.3181   46.1594 H   0  0  0  0  0  0  0  0  0  0  0  0
   59.8559   34.5630   43.7794 H   0  0  0  0  0  0  0  0  0  0  0  0
   59.9029   31.0411   46.5043 H   0  0  0  0  0  0  0  0  0  0  0  0
   61.3213   32.9893   45.8610 H   0  0  0  0  0  0  0  0  0  0  0  0
  1  2  1  0
  2  3  2  0
  3  4  1  0
  4  5  2  0
  5  6  1  0
  6  7  2  0
  6  8  2  0
  6  9  1  0
  9 10  1  0
 10 11  2  0
 11 12  1  0
 12 13  2  0
 13 14  1  0
 14 15  2  0
 15 16  1  0
 16 17  2  0
 17 18  1  0
 18 19  1  0
 19 20  1  0
 20 21  2  0
 20 22  1  0
 22 23  1  0
 23 24  2  0
 24 25  1  0
 25 26  2  0
 26 27  1  0
 27 28  2  0
 28 29  1  0
  5 30  1  0
 30 31  2  0
 31  2  1  0
 18 10  1  0
 28 23  1  0
 17 12  1  0
  1 32  1  0
  1 33  1  0
  1 34  1  0
  3 35  1  0
  4 36  1  0
  9 37  1  0
  9 38  1  0
 13 39  1  0
 14 40  1  0
 15 41  1  0
 16 42  1  0
 19 43  1  0
 19 44  1  0
 24 45  1  0
 25 46  1  0
 26 47  1  0
 27 48  1  0
 30 49  1  0
 31 50  1  0
M  CHG  1  22  -1
M  END
>  <UniqueID>  (16) 
12

>  <SMILES>  (16) 
Cc1ccc(S(=O)(=O)Cc2nc3ccccc3n2CC(=O)[N-]c2ccccc2F)cc1

>  <Energy>  (16) 
86.02753526311892

>  <Genealogy>  (16) 
Cc1ccc(S(=O)(=O)Cc2nc3ccccc3n2CC(=O)[N-]c2ccccc2F)cc1 (protonated)
Cc1ccc(S(=O)(=O)Cc2nc3ccccc3n2CC(=O)[N-]c2ccccc2F)cc1 (3D coordinates assigned)
Cc1ccc(S(=O)(=O)Cc2nc3ccccc3n2CC(=O)[N-]c2ccccc2F)cc1 (optimized conformer: 86.02753526311892 kcal/mol)

>  <smiles>  (16) 
Cc1ccc(S(=O)(=O)Cc2nc3ccccc3n2CC(=O)Nc2ccccc2F)cc1

>  <score_type>  (16) 
oracle

>  <origin>  (16) 
adg

>  <m_score__min__energy>  (16) 
-11.6

>  <m_primary>  (16) 
energy

$$$$
16:0
     RDKit          3D

 33 34  0  0  0  0  0  0  0  0999 V2000
   54.5990   29.3550   45.1720 H   0  0  0  0  0  0  0  0  0  0  0  0
   55.5290   28.8800   45.1350 N   0  0  0  0  0  0  0  0  0  0  0  0
   56.6520   30.0210   44.4840 S   0  0  0  0  0  0  0  0  0  0  0  0
   56.1680   31.4170   44.7640 O   0  0  0  0  0  0  0  0  0  0  0  0
   56.7480   29.8340   42.9960 O   0  0  0  0  0  0  0  0  0  0  0  0
   58.2320   29.7790   45.2220 C   0  0  0  0  0  0  0  0  0  0  0  0
   59.2570   29.1500   44.5050 C   0  0  0  0  0  0  0  0  0  0  0  0
   59.0810   28.8219   43.4699 H   0  0  0  0  0  0  0  0  0  0  0  0
   60.5030   28.9380   45.1010 C   0  0  0  0  0  0  0  0  0  0  0  0
   61.3051   28.4419   44.5348 H   0  0  0  0  0  0  0  0  0  0  0  0
   60.7320   29.3550   46.4150 C   0  0  0  0  0  0  0  0  0  0  0  0
   61.7114   29.1782   46.8836 H   0  0  0  0  0  0  0  0  0  0  0  0
   59.7140   30.0000   47.1400 C   0  0  0  0  0  0  0  0  0  0  0  0
   59.8970   30.4200   48.5010 N   0  0  0  0  0  0  0  0  0  0  0  0
   60.9850   31.1980   49.0190 C   0  0  0  0  0  0  0  0  0  0  0  0
   62.0810   30.6480   49.3090 O   0  0  0  0  0  0  0  0  0  0  0  0
   60.8600   32.6570   49.1710 C   0  0  0  0  0  0  0  0  0  0  0  0
   60.7291   33.0760   50.1796 H   0  0  0  0  0  0  0  0  0  0  0  0
   60.9000   33.4930   48.1240 C   0  0  0  0  0  0  0  0  0  0  0  0
   61.8356   34.0386   47.9320 H   0  0  0  0  0  0  0  0  0  0  0  0
   59.7550   33.7250   47.2090 C   0  0  0  0  0  0  0  0  0  0  0  0
   59.9970   34.3420   45.9690 C   0  0  0  0  0  0  0  0  0  0  0  0
   61.0200   34.6458   45.7022 H   0  0  0  0  0  0  0  0  0  0  0  0
   58.9500   34.5730   45.0720 C   0  0  0  0  0  0  0  0  0  0  0  0
   59.1502   35.0647   44.1086 H   0  0  0  0  0  0  0  0  0  0  0  0
   57.6500   34.1800   45.3980 C   0  0  0  0  0  0  0  0  0  0  0  0
   56.6360   34.4020   44.5260 F   0  0  0  0  0  0  0  0  0  0  0  0
   57.3960   33.5520   46.6190 C   0  0  0  0  0  0  0  0  0  0  0  0
   56.3722   33.2395   46.8725 H   0  0  0  0  0  0  0  0  0  0  0  0
   58.4400   33.3190   47.5210 C   0  0  0  0  0  0  0  0  0  0  0  0
   58.2347   32.8169   48.4780 H   0  0  0  0  0  0  0  0  0  0  0  0
   58.4610   30.1870   46.5430 C   0  0  0  0  0  0  0  0  0  0  0  0
   57.6491   30.6585   47.1162 H   0  0  0  0  0  0  0  0  0  0  0  0
  1  2  1  0
  2  3  1  0
  3  4  2  0
  3  5  2  0
  3  6  1  0
  6  7  2  0
  7  8  1  0
  7  9  1  0
  9 10  1  0
  9 11  2  0
 11 12  1  0
 11 13  1  0
 13 14  1  0
 14 15  1  0
 15 16  2  0
 15 17  1  0
 17 18  1  0
 17 19  2  0
 19 20  1  0
 19 21  1  0
 21 22  2  0
 22 23  1  0
 22 24  1  0
 24 25  1  0
 24 26  2  0
 26 27  1  0
 26 28  1  0
 28 29  1  0
 28 30  2  0
 30 31  1  0
 13 32  2  0
 32 33  1  0
 32  6  1  0
 30 21  1  0
M  CHG  2   2  -1  14  -1
M  END
>  <UniqueID>  (17) 
13

>  <SMILES>  (17) 
[NH-]S(=O)(=O)c1cccc([N-]C(=O)/C=C/c2ccc(F)cc2)c1

>  <Energy>  (17) 
38.26545374179314

>  <Genealogy>  (17) 
[NH-]S(=O)(=O)c1cccc([N-]C(=O)C=Cc2ccc(F)cc2)c1 (protonated)
[NH-]S(=O)(=O)c1cccc([N-]C(=O)/C=C/c2ccc(F)cc2)c1 (cis-trans isomerization)
[NH-]S(=O)(=O)c1cccc([N-]C(=O)/C=C/c2ccc(F)cc2)c1 (3D coordinates assigned)
[NH-]S(=O)(=O)c1cccc([N-]C(=O)/C=C/c2ccc(F)cc2)c1 (optimized conformer: 38.26545374179314 kcal/mol)

>  <smiles>  (17) 
NS(=O)(=O)c1cccc(NC(=O)C=Cc2ccc(F)cc2)c1

>  <score_type>  (17) 
oracle

>  <origin>  (17) 
adg

>  <m_score__min__energy>  (17) 
-12.66

>  <m_primary>  (17) 
energy

$$$$
17:0
     RDKit          3D

 39 40  0  0  0  0  0  0  0  0999 V2000
   60.2560   28.3960   44.6790 N   0  0  0  0  0  0  0  0  0  0  0  0
   60.6680   27.8770   45.9840 C   0  0  1  0  0  0  0  0  0  0  0  0
   60.2410   28.8550   47.1020 C   0  0  0  0  0  0  0  0  0  0  0  0
   59.5600   30.0390   46.5730 N   0  0  0  0  0  0  0  0  0  0  0  0
   59.0920   31.0780   47.4410 C   0  0  0  0  0  0  0  0  0  0  0  0
   59.3910   31.0680   48.6660 O   0  0  0  0  0  0  0  0  0  0  0  0
   58.1990   32.1540   46.9070 C   0  0  0  0  0  0  0  0  0  0  0  0
   57.8550   31.8670   45.4760 C   0  0  0  0  0  0  0  0  0  0  0  0
   58.1020   32.8190   44.4750 C   0  0  0  0  0  0  0  0  0  0  0  0
   57.7220   32.5440   43.1600 C   0  0  0  0  0  0  0  0  0  0  0  0
   57.0970   31.3330   42.8560 C   0  0  0  0  0  0  0  0  0  0  0  0
   56.8620   30.4110   43.8780 C   0  0  0  0  0  0  0  0  0  0  0  0
   57.2370   30.6970   45.1530 N   0  0  0  0  0  0  0  0  0  0  0  0
   60.1030   26.4490   46.1800 C   0  0  0  0  0  0  0  0  0  0  0  0
   58.5970   26.4050   46.1000 C   0  0  0  0  0  0  0  0  0  0  0  0
   57.8980   25.2540   46.4990 C   0  0  0  0  0  0  0  0  0  0  0  0
   56.5020   25.2270   46.4520 C   0  0  0  0  0  0  0  0  0  0  0  0
   55.7920   26.3490   46.0110 C   0  0  0  0  0  0  0  0  0  0  0  0
   54.4040   26.3200   45.9660 O   0  0  0  0  0  0  0  0  0  0  0  0
   56.4810   27.5000   45.6180 C   0  0  0  0  0  0  0  0  0  0  0  0
   57.8780   27.5300   45.6630 C   0  0  0  0  0  0  0  0  0  0  0  0
   61.1050   28.4900   44.0760 H   0  0  0  0  0  0  0  0  0  0  0  0
   59.6530   27.6800   44.2120 H   0  0  0  0  0  0  0  0  0  0  0  0
   61.7642   27.7998   46.0335 H   0  0  0  0  0  0  0  0  0  0  0  0
   59.5593   28.3318   47.7887 H   0  0  0  0  0  0  0  0  0  0  0  0
   61.1507   29.1927   47.6200 H   0  0  0  0  0  0  0  0  0  0  0  0
   59.3630   30.1210   45.5510 H   0  0  0  0  0  0  0  0  0  0  0  0
   57.2757   32.1915   47.5038 H   0  0  0  0  0  0  0  0  0  0  0  0
   58.7200   33.1209   46.9677 H   0  0  0  0  0  0  0  0  0  0  0  0
   58.5903   33.7727   44.7240 H   0  0  0  0  0  0  0  0  0  0  0  0
   57.9146   33.2797   42.3652 H   0  0  0  0  0  0  0  0  0  0  0  0
   56.7932   31.1078   41.8231 H   0  0  0  0  0  0  0  0  0  0  0  0
   56.3729   29.4522   43.6512 H   0  0  0  0  0  0  0  0  0  0  0  0
   60.5166   25.7960   45.3974 H   0  0  0  0  0  0  0  0  0  0  0  0
   60.3933   26.1109   47.1857 H   0  0  0  0  0  0  0  0  0  0  0  0
   58.4517   24.3706   46.8498 H   0  0  0  0  0  0  0  0  0  0  0  0
   55.9599   24.3216   46.7624 H   0  0  0  0  0  0  0  0  0  0  0  0
   55.9234   28.3832   45.2729 H   0  0  0  0  0  0  0  0  0  0  0  0
   58.4165   28.4384   45.3549 H   0  0  0  0  0  0  0  0  0  0  0  0
  1  2  1  0
  2  3  1  0
  3  4  1  0
  4  5  1  0
  5  6  2  0
  5  7  1  0
  7  8  1  0
  8  9  2  0
  9 10  1  0
 10 11  2  0
 11 12  1  0
 12 13  2  0
  2 14  1  0
 14 15  1  0
 15 16  2  0
 16 17  1  0
 17 18  2  0
 18 19  1  0
 18 20  1  0
 20 21  2  0
 13  8  1  0
 21 15  1  0
  1 22  1  0
  1 23  1  0
  2 24  1  6
  3 25  1  0
  3 26  1  0
  4 27  1  0
  7 28  1  0
  7 29  1  0
  9 30  1  0
 10 31  1  0
 11 32  1  0
 12 33  1  0
 14 34  1  0
 14 35  1  0
 16 36  1  0
 17 37  1  0
 20 38  1  0
 21 39  1  0
M  CHG  1  19  -1
M  END
>  <UniqueID>  (18) 
14

>  <SMILES>  (18) 
N[C@@H](CNC(=O)Cc1ccccn1)Cc1ccc([O-])cc1

>  <Energy>  (18) 
29.525918521897417

>  <Genealogy>  (18) 
NC(CNC(=O)Cc1ccccn1)Cc1ccc([O-])cc1 (protonated)
N[C@@H](CNC(=O)Cc1ccccn1)Cc1ccc([O-])cc1 (chirality)
N[C@@H](CNC(=O)Cc1ccccn1)Cc1ccc([O-])cc1 (3D coordinates assigned)
N[C@@H](CNC(=O)Cc1ccccn1)Cc1ccc([O-])cc1 (optimized conformer: 29.525918521897417 kcal/mol)

>  <smiles>  (18) 
NC(CNC(=O)Cc1ccccn1)Cc1ccc(O)cc1

>  <score_type>  (18) 
oracle

>  <origin>  (18) 
adg

>  <m_score__min__energy>  (18) 
-10.16

>  <m_primary>  (18) 
energy

$$$$
18:0
     RDKit          3D

 76 79  0  0  0  0  0  0  0  0999 V2000
   63.7342   34.8414   45.7230 H   0  0  0  0  0  0  0  0  0  0  0  0
   63.2870   33.9820   46.2440 C   0  0  0  0  0  0  0  0  0  0  0  0
   62.4747   33.4126   45.7687 H   0  0  0  0  0  0  0  0  0  0  0  0
   63.7290   33.6310   47.4500 C   0  0  0  0  0  0  0  0  0  0  0  0
   64.5422   34.2153   47.9053 H   0  0  0  0  0  0  0  0  0  0  0  0
   63.1710   32.4890   48.2000 C   0  0  0  0  0  0  0  0  0  0  0  0
   63.7970   32.0130   49.1860 O   0  0  0  0  0  0  0  0  0  0  0  0
   61.8920   31.9520   47.8260 N   0  0  0  0  0  0  0  0  0  0  0  0
   61.2690   32.5480   47.2370 H   0  0  0  0  0  0  0  0  0  0  0  0
   61.3700   30.6970   48.2930 C   0  0  0  0  0  0  0  0  0  0  0  0
   61.5380   30.3390   49.6410 C   0  0  0  0  0  0  0  0  0  0  0  0
   62.0526   31.0269   50.3280 H   0  0  0  0  0  0  0  0  0  0  0  0
   61.0570   29.1170   50.1160 C   0  0  0  0  0  0  0  0  0  0  0  0
   61.2144   28.8355   51.1677 H   0  0  0  0  0  0  0  0  0  0  0  0
   60.3760   28.2520   49.2560 C   0  0  0  0  0  0  0  0  0  0  0  0
   60.0129   27.2828   49.6286 H   0  0  0  0  0  0  0  0  0  0  0  0
   60.1530   28.6150   47.9170 C   0  0  0  0  0  0  0  0  0  0  0  0
   59.4780   27.7410   46.9960 N   0  0  0  0  0  0  0  0  0  0  0  0
   58.3080   27.9340   46.4640 C   0  0  0  0  0  0  0  0  0  0  0  0
   57.3730   26.9570   46.5550 N   0  0  0  0  0  0  0  0  0  0  0  0
   56.1690   27.0880   45.9380 C   0  0  0  0  0  0  0  0  0  0  0  0
   55.2630   26.1550   46.0040 N   0  0  0  0  0  0  0  0  0  0  0  0
   55.4500   24.7280   45.9680 C   0  0  0  0  0  0  0  0  0  0  0  0
   54.7300   23.9930   45.0230 C   0  0  0  0  0  0  0  0  0  0  0  0
   54.0501   24.5119   44.3313 H   0  0  0  0  0  0  0  0  0  0  0  0
   54.8660   22.6060   44.9490 C   0  0  0  0  0  0  0  0  0  0  0  0
   54.2973   22.0385   44.1976 H   0  0  0  0  0  0  0  0  0  0  0  0
   55.7200   21.9380   45.8240 C   0  0  0  0  0  0  0  0  0  0  0  0
   55.8027   20.8421   45.7779 H   0  0  0  0  0  0  0  0  0  0  0  0
   56.4730   22.6540   46.7610 C   0  0  0  0  0  0  0  0  0  0  0  0
   57.3280   21.9250   47.6530 N   0  0  0  0  0  0  0  0  0  0  0  0
   56.9860   21.5490   49.3120 S   0  0  0  0  0  0  0  0  0  0  0  0
   57.7290   22.5110   50.1910 O   0  0  0  0  0  0  0  0  0  0  0  0
   57.4440   20.1560   49.6330 O   0  0  0  0  0  0  0  0  0  0  0  0
   55.2410   21.7000   49.6250 C   0  0  0  0  0  0  0  0  0  0  0  0
   55.0632   21.7154   50.7104 H   0  0  0  0  0  0  0  0  0  0  0  0
   54.8679   22.6338   49.1790 H   0  0  0  0  0  0  0  0  0  0  0  0
   54.7131   20.8442   49.1790 H   0  0  0  0  0  0  0  0  0  0  0  0
   56.3630   24.0570   46.8040 C   0  0  0  0  0  0  0  0  0  0  0  0
   56.9950   24.6332   47.4958 H   0  0  0  0  0  0  0  0  0  0  0  0
   55.8960   28.2260   45.2510 N   0  0  0  0  0  0  0  0  0  0  0  0
   56.8230   29.2160   45.1620 C   0  0  0  0  0  0  0  0  0  0  0  0
   56.5830   30.2990   44.4900 N   0  0  0  0  0  0  0  0  0  0  0  0
   57.5860   31.3030   44.1440 C   0  0  0  0  0  0  0  0  0  0  0  0
   58.5836   30.8397   44.1540 H   0  0  0  0  0  0  0  0  0  0  0  0
   57.3686   31.6996   43.1413 H   0  0  0  0  0  0  0  0  0  0  0  0
   57.5500   32.4510   45.1570 C   0  0  0  0  0  0  0  0  0  0  0  0
   56.6017   32.9965   45.0419 H   0  0  0  0  0  0  0  0  0  0  0  0
   57.6406   32.0180   46.1641 H   0  0  0  0  0  0  0  0  0  0  0  0
   58.7120   33.4310   44.9570 C   0  0  0  0  0  0  0  0  0  0  0  0
   59.2572   33.1662   44.0390 H   0  0  0  0  0  0  0  0  0  0  0  0
   58.3112   34.4520   44.8734 H   0  0  0  0  0  0  0  0  0  0  0  0
   59.6230   33.3680   46.0940 N   0  0  0  0  0  0  0  0  0  0  0  0
   59.5820   34.2630   47.2090 C   0  0  0  0  0  0  0  0  0  0  0  0
   59.5540   35.5080   47.0120 O   0  0  0  0  0  0  0  0  0  0  0  0
   59.5710   33.7290   48.5940 C   0  0  0  0  0  0  0  0  0  0  0  0
   60.4860   34.1980   49.5520 C   0  0  0  0  0  0  0  0  0  0  0  0
   61.1896   35.0021   49.2905 H   0  0  0  0  0  0  0  0  0  0  0  0
   60.5050   33.6460   50.8360 C   0  0  0  0  0  0  0  0  0  0  0  0
   61.2181   34.0249   51.5829 H   0  0  0  0  0  0  0  0  0  0  0  0
   59.6250   32.6170   51.1770 C   0  0  0  0  0  0  0  0  0  0  0  0
   59.6545   32.1801   52.1861 H   0  0  0  0  0  0  0  0  0  0  0  0
   58.7030   32.1400   50.2330 C   0  0  0  0  0  0  0  0  0  0  0  0
   57.8160   31.0530   50.5310 N   0  0  0  0  0  0  0  0  0  0  0  0
   57.6390   30.3490   52.1070 S   0  0  0  0  0  0  0  0  0  0  0  0
   58.8690   29.5560   52.4530 O   0  0  0  0  0  0  0  0  0  0  0  0
   56.4570   29.4170   52.0900 O   0  0  0  0  0  0  0  0  0  0  0  0
   57.3770   31.6240   53.3200 C   0  0  0  0  0  0  0  0  0  0  0  0
   57.4653   31.1942   54.3287 H   0  0  0  0  0  0  0  0  0  0  0  0
   58.1316   32.4138   53.1906 H   0  0  0  0  0  0  0  0  0  0  0  0
   56.3721   32.0523   53.1906 H   0  0  0  0  0  0  0  0  0  0  0  0
   58.6630   32.7150   48.9570 C   0  0  0  0  0  0  0  0  0  0  0  0
   57.9135   32.3708   48.2292 H   0  0  0  0  0  0  0  0  0  0  0  0
   58.0290   29.0630   45.7610 N   0  0  0  0  0  0  0  0  0  0  0  0
   60.6660   29.8290   47.4400 C   0  0  0  0  0  0  0  0  0  0  0  0
   60.5161   30.1059   46.3860 H   0  0  0  0  0  0  0  0  0  0  0  0
  1  2  1  0
  2  3  1  0
  2  4  2  0
  4  5  1  0
  4  6  1  0
  6  7  2  0
  6  8  1  0
  8  9  1  0
  8 10  1  0
 10 11  2  0
 11 12  1  0
 11 13  1  0
 13 14  1  0
 13 15  2  0
 15 16  1  0
 15 17  1  0
 17 18  1  0
 18 19  2  3
 19 20  1  0
 20 21  1  0
 21 22  2  3
 22 23  1  0
 23 24  2  0
 24 25  1  0
 24 26  1  0
 26 27  1  0
 26 28  2  0
 28 29  1  0
 28 30  1  0
 30 31  1  0
 31 32  1  0
 32 33  2  0
 32 34  2  0
 32 35  1  0
 35 36  1  0
 35 37  1  0
 35 38  1  0
 30 39  2  0
 39 40  1  0
 21 41  1  0
 41 42  1  0
 42 43  2  0
 43 44  1  0
 44 45  1  0
 44 46  1  0
 44 47  1  0
 47 48  1  0
 47 49  1  0
 47 50  1  0
 50 51  1  0
 50 52  1  0
 50 53  1  0
 53 54  1  0
 54 55  2  0
 54 56  1  0
 56 57  2  0
 57 58  1  0
 57 59  1  0
 59 60  1  0
 59 61  2  0
 61 62  1  0
 61 63  1  0
 63 64  1  0
 64 65  1  0
 65 66  2  0
 65 67  2  0
 65 68  1  0
 68 69  1  0
 68 70  1  0
 68 71  1  0
 63 72  2  0
 72 73  1  0
 42 74  1  0
 17 75  2  0
 75 76  1  0
 75 10  1  0
 74 19  1  0
 39 23  1  0
 72 56  1  0
M  CHG  6  20  -1  31  -1  41  -1  53  -1  64  -1  74  -1
M  END
>  <UniqueID>  (19) 
15

>  <SMILES>  (19) 
C=CC(=O)Nc1cccc(N=c2[n-]c(=Nc3cccc([N-]S(C)(=O)=O)c3)[n-]/c(=N\CCC[N-]C(=O)c3cccc([N-]S(C)(=O)=O)c3)[n-]2)c1

>  <Energy>  (19) 
84.708242161654

>  <Genealogy>  (19) 
C=CC(=O)Nc1cccc(N=c2[n-]c(=NCCC[N-]C(=O)c3cccc([N-]S(C)(=O)=O)c3)[n-]c(=Nc3cccc([N-]S(C)(=O)=O)c3)[n-]2)c1 (protonated)
C=CC(=O)Nc1cccc(N=c2[n-]c(=Nc3cccc([N-]S(C)(=O)=O)c3)[n-]/c(=N\CCC[N-]C(=O)c3cccc([N-]S(C)(=O)=O)c3)[n-]2)c1 (cis-trans isomerization)
C=CC(=O)Nc1cccc(N=c2[n-]c(=Nc3cccc([N-]S(C)(=O)=O)c3)[n-]/c(=N\CCC[N-]C(=O)c3cccc([N-]S(C)(=O)=O)c3)[n-]2)c1 (3D coordinates assigned)
C=CC(=O)Nc1cccc(N=c2[n-]c(=Nc3cccc([N-]S(C)(=O)=O)c3)[n-]/c(=N\CCC[N-]C(=O)c3cccc([N-]S(C)(=O)=O)c3)[n-]2)c1 (optimized conformer: 84.708242161654 kcal/mol)

>  <smiles>  (19) 
C=CC(=O)Nc1cccc(N=c2[nH]c(=NCCCNC(=O)c3cccc(NS(C)(=O)=O)c3)[nH]c(=Nc3cccc(NS(C)(=O)=O)c3)[nH]2)c1

>  <score_type>  (19) 
oracle

>  <origin>  (19) 
adg

>  <m_score__min__energy>  (19) 
-19.210000000000001

>  <m_primary>  (19) 
energy

$$$$
19:0
     RDKit          3D

 33 35  0  0  0  0  0  0  0  0999 V2000
   54.7870   26.3800   46.0020 O   0  0  0  0  0  0  0  0  0  0  0  0
   55.2240   25.1980   45.9790 C   0  0  0  0  0  0  0  0  0  0  0  0
   54.3170   24.1470   46.0490 O   0  0  0  0  0  0  0  0  0  0  0  0
   56.6790   24.9420   45.8370 C   0  0  0  0  0  0  0  0  0  0  0  0
   57.1080   23.6340   45.5420 C   0  0  0  0  0  0  0  0  0  0  0  0
   58.4680   23.3310   45.4600 C   0  0  0  0  0  0  0  0  0  0  0  0
   59.4210   24.3240   45.6740 C   0  0  0  0  0  0  0  0  0  0  0  0
   59.0180   25.6300   45.9510 C   0  0  0  0  0  0  0  0  0  0  0  0
   57.6540   25.9610   46.0150 C   0  0  0  0  0  0  0  0  0  0  0  0
   57.2960   27.3850   46.2150 C   0  0  0  0  0  0  0  0  0  0  0  0
   57.6610   27.9570   47.2750 O   0  0  0  0  0  0  0  0  0  0  0  0
   56.5440   28.1390   45.2480 N   0  0  0  0  0  0  0  0  0  0  0  0
   56.8240   29.3300   44.8060 C   0  0  0  0  0  0  0  0  0  0  0  0
   57.3760   30.3100   45.5520 N   0  0  0  0  0  0  0  0  0  0  0  0
   57.5570   31.4580   44.8430 C   0  0  0  0  0  0  0  0  0  0  0  0
   58.1730   32.6580   45.4710 C   0  0  0  0  0  0  0  0  0  0  0  0
   58.3190   32.7750   46.8690 C   0  0  0  0  0  0  0  0  0  0  0  0
   58.8950   33.9200   47.4290 C   0  0  0  0  0  0  0  0  0  0  0  0
   59.3310   34.9610   46.6090 C   0  0  0  0  0  0  0  0  0  0  0  0
   59.1940   34.8600   45.2240 C   0  0  0  0  0  0  0  0  0  0  0  0
   58.6200   33.7200   44.6570 C   0  0  0  0  0  0  0  0  0  0  0  0
   57.1240   31.3830   43.5130 C   0  0  0  0  0  0  0  0  0  0  0  0
   56.5120   29.8370   43.2410 S   0  0  0  0  0  0  0  0  0  0  0  0
   56.3632   22.8421   45.3743 H   0  0  0  0  0  0  0  0  0  0  0  0
   58.7881   22.3050   45.2257 H   0  0  0  0  0  0  0  0  0  0  0  0
   60.4920   24.0780   45.6245 H   0  0  0  0  0  0  0  0  0  0  0  0
   59.7758   26.4090   46.1211 H   0  0  0  0  0  0  0  0  0  0  0  0
   57.9774   31.9598   47.5237 H   0  0  0  0  0  0  0  0  0  0  0  0
   59.0047   34.0000   48.5206 H   0  0  0  0  0  0  0  0  0  0  0  0
   59.7822   35.8603   47.0536 H   0  0  0  0  0  0  0  0  0  0  0  0
   59.5389   35.6802   44.5772 H   0  0  0  0  0  0  0  0  0  0  0  0
   58.5153   33.6494   43.5643 H   0  0  0  0  0  0  0  0  0  0  0  0
   57.1748   32.1949   42.7725 H   0  0  0  0  0  0  0  0  0  0  0  0
  1  2  2  0
  2  3  1  0
  2  4  1  0
  4  5  2  0
  5  6  1  0
  6  7  2  0
  7  8  1  0
  8  9  2  0
  9 10  1  0
 10 11  2  0
 10 12  1  0
 12 13  2  3
 13 14  1  0
 14 15  1  0
 15 16  1  0
 16 17  2  0
 17 18  1  0
 18 19  2  0
 19 20  1  0
 20 21  2  0
 15 22  2  0
 22 23  1  0
  9  4  1  0
 23 13  1  0
 21 16  1  0
  5 24  1  0
  6 25  1  0
  7 26  1  0
  8 27  1  0
 17 28  1  0
 18 29  1  0
 19 30  1  0
 20 31  1  0
 21 32  1  0
 22 33  1  0
M  CHG  2   3  -1  14  -1
M  END
>  <UniqueID>  (20) 
16

>  <SMILES>  (20) 
O=C([O-])c1ccccc1C(=O)N=c1[n-]c(-c2ccccc2)cs1

>  <Energy>  (20) 
79.53418651493679

>  <Genealogy>  (20) 
O=C([O-])c1ccccc1C(=O)N=c1[n-]c(-c2ccccc2)cs1 (protonated)
O=C([O-])c1ccccc1C(=O)N=c1[n-]c(-c2ccccc2)cs1 (3D coordinates assigned)
O=C([O-])c1ccccc1C(=O)N=c1[n-]c(-c2ccccc2)cs1 (optimized conformer: 79.53418651493679 kcal/mol)

>  <smiles>  (20) 
O=C(O)c1ccccc1C(=O)N=c1[nH]c(-c2ccccc2)cs1

>  <score_type>  (20) 
oracle

>  <origin>  (20) 
adg

>  <m_score__min__energy>  (20) 
-12.640000000000001

>  <m_primary>  (20) 
energy

$$$$
20:0
     RDKit          3D

 59 63  0  0  0  0  0  0  0  0999 V2000
   58.1310   32.3440   41.3990 C   0  0  0  0  0  0  0  0  0  0  0  0
   57.4100   31.5870   42.2310 C   0  0  0  0  0  0  0  0  0  0  0  0
   57.9020   31.2330   43.6150 C   0  0  0  0  0  0  0  0  0  0  0  0
   57.1060   30.1420   44.2330 N   0  0  1  0  0  0  0  0  0  0  0  0
   56.9970   28.9590   43.3290 C   0  0  0  0  0  0  0  0  0  0  0  0
   57.9660   27.8600   43.8040 C   0  0  0  0  0  0  0  0  0  0  0  0
   58.5950   28.4790   45.0330 C   0  0  2  0  0  0  0  0  0  0  0  0
   60.1200   28.6400   44.9570 C   0  0  0  0  0  0  0  0  0  0  0  0
   59.4850   27.8170   46.0890 C   0  0  2  0  0  0  0  0  0  0  0  0
   59.6460   26.2860   45.9620 C   0  0  0  0  0  0  0  0  0  0  0  0
   58.9970   25.6470   47.0260 O   0  0  0  0  0  0  0  0  0  0  0  0
   59.5220   28.5260   47.4650 C   0  0  0  0  0  0  0  0  0  0  0  0
   60.1530   27.9290   48.5860 C   0  0  0  0  0  0  0  0  0  0  0  0
   60.7810   26.6940   48.5010 O   0  0  0  0  0  0  0  0  0  0  0  0
   60.1690   28.5720   49.8230 C   0  0  0  0  0  0  0  0  0  0  0  0
   59.6020   29.8410   49.9820 C   0  0  0  0  0  0  0  0  0  0  0  0
   59.6090   30.5120   51.2150 O   0  0  0  0  0  0  0  0  0  0  0  0
   58.4460   30.8160   51.9780 C   0  0  0  0  0  0  0  0  0  0  0  0
   59.0260   30.4800   48.8800 C   0  0  0  0  0  0  0  0  0  0  0  0
   58.5230   31.7750   49.0450 O   0  0  0  0  0  0  0  0  0  0  0  0
   59.3120   32.9360   48.7880 C   0  0  0  0  0  0  0  0  0  0  0  0
   58.9600   33.5230   47.4490 C   0  0  0  0  0  0  0  0  0  0  0  0
   59.9670   34.0320   46.6130 C   0  0  0  0  0  0  0  0  0  0  0  0
   59.6510   34.5060   45.3370 C   0  0  0  0  0  0  0  0  0  0  0  0
   58.3290   34.4680   44.8840 C   0  0  0  0  0  0  0  0  0  0  0  0
   57.3230   33.9530   45.7050 C   0  0  0  0  0  0  0  0  0  0  0  0
   57.6350   33.4790   46.9830 C   0  0  0  0  0  0  0  0  0  0  0  0
   58.9560   29.8310   47.6290 C   0  0  0  0  0  0  0  0  0  0  0  0
   58.3570   30.5830   46.4520 C   0  0  0  0  0  0  0  0  0  0  0  0
   57.6990   29.6000   45.4770 C   0  0  1  0  0  0  0  0  0  0  0  0
   57.7435   32.5833   40.3977 H   0  0  0  0  0  0  0  0  0  0  0  0
   59.1121   32.7280   41.7153 H   0  0  0  0  0  0  0  0  0  0  0  0
   56.4310   31.2110   41.8991 H   0  0  0  0  0  0  0  0  0  0  0  0
   58.9513   30.9101   43.5458 H   0  0  0  0  0  0  0  0  0  0  0  0
   57.7981   32.1263   44.2484 H   0  0  0  0  0  0  0  0  0  0  0  0
   56.1470   30.5040   44.4530 H   0  0  0  0  0  0  0  0  0  0  0  0
   55.9667   28.5742   43.3510 H   0  0  0  0  0  0  0  0  0  0  0  0
   57.2549   29.2569   42.3020 H   0  0  0  0  0  0  0  0  0  0  0  0
   57.4247   26.9367   44.0579 H   0  0  0  0  0  0  0  0  0  0  0  0
   58.7000   27.5653   43.0396 H   0  0  0  0  0  0  0  0  0  0  0  0
   60.6879   28.1356   44.1614 H   0  0  0  0  0  0  0  0  0  0  0  0
   60.8117   29.4939   44.9082 H   0  0  0  0  0  0  0  0  0  0  0  0
   59.2047   25.9507   45.0118 H   0  0  0  0  0  0  0  0  0  0  0  0
   60.7160   26.0318   45.9862 H   0  0  0  0  0  0  0  0  0  0  0  0
   59.5270   25.8550   47.8400 H   0  0  0  0  0  0  0  0  0  0  0  0
   60.6343   28.0742   50.6866 H   0  0  0  0  0  0  0  0  0  0  0  0
   58.6842   30.7537   53.0501 H   0  0  0  0  0  0  0  0  0  0  0  0
   58.1048   31.8335   51.7367 H   0  0  0  0  0  0  0  0  0  0  0  0
   57.6505   30.0956   51.7367 H   0  0  0  0  0  0  0  0  0  0  0  0
   59.1231   33.6836   49.5725 H   0  0  0  0  0  0  0  0  0  0  0  0
   60.3746   32.6518   48.7848 H   0  0  0  0  0  0  0  0  0  0  0  0
   61.0091   34.0577   46.9641 H   0  0  0  0  0  0  0  0  0  0  0  0
   60.4429   34.9092   44.6887 H   0  0  0  0  0  0  0  0  0  0  0  0
   58.0808   34.8439   43.8804 H   0  0  0  0  0  0  0  0  0  0  0  0
   56.2839   33.9203   45.3456 H   0  0  0  0  0  0  0  0  0  0  0  0
   56.8410   33.0705   47.6254 H   0  0  0  0  0  0  0  0  0  0  0  0
   57.6002   31.2913   46.8202 H   0  0  0  0  0  0  0  0  0  0  0  0
   59.1568   31.1274   45.9286 H   0  0  0  0  0  0  0  0  0  0  0  0
   56.8820   29.2589   46.1298 H   0  0  0  0  0  0  0  0  0  0  0  0
  1  2  2  0
  2  3  1  0
  3  4  1  0
  4  5  1  0
  5  6  1  0
  7  6  1  6
  7  8  1  0
  8  9  1  0
  9 10  1  1
 10 11  1  0
  9 12  1  0
 12 13  2  0
 13 14  1  0
 13 15  1  0
 15 16  2  0
 16 17  1  0
 17 18  1  0
 16 19  1  0
 19 20  1  0
 20 21  1  0
 21 22  1  0
 22 23  2  0
 23 24  1  0
 24 25  2  0
 25 26  1  0
 26 27  2  0
 19 28  2  0
 28 29  1  0
 29 30  1  0
 30  4  1  0
  9  7  1  0
 28 12  1  0
 30  7  1  0
 27 22  1  0
  1 31  1  0
  1 32  1  0
  2 33  1  0
  3 34  1  0
  3 35  1  0
  4 36  1  1
  5 37  1  0
  5 38  1  0
  6 39  1  0
  6 40  1  0
  8 41  1  0
  8 42  1  0
 10 43  1  0
 10 44  1  0
 11 45  1  0
 15 46  1  0
 18 47  1  0
 18 48  1  0
 18 49  1  0
 21 50  1  0
 21 51  1  0
 23 52  1  0
 24 53  1  0
 25 54  1  0
 26 55  1  0
 27 56  1  0
 29 57  1  0
 29 58  1  0
 30 59  1  1
M  CHG  2   4   1  14  -1
M  END
>  <UniqueID>  (21) 
17

>  <SMILES>  (21) 
C=CC[N@H+]1CC[C@]23CC2(CO)c2c([O-])cc(OC)c(OCc4ccccc4)c2CC13

>  <Energy>  (21) 
367.723946767967

>  <Genealogy>  (21) 
C=CC[NH+]1CCC23CC2(CO)c2c([O-])cc(OC)c(OCc4ccccc4)c2CC13 (protonated)
C=CC[N@H+]1CC[C@]23CC2(CO)c2c([O-])cc(OC)c(OCc4ccccc4)c2CC13 (chirality)
C=CC[N@H+]1CC[C@]23CC2(CO)c2c([O-])cc(OC)c(OCc4ccccc4)c2CC13 (3D coordinates assigned)
C=CC[N@H+]1CC[C@]23CC2(CO)c2c([O-])cc(OC)c(OCc4ccccc4)c2CC13 (nonaromatic ring conformer: 367.723946767967 kcal/mol)

>  <smiles>  (21) 
C=CCN1CCC23CC2(CO)c2c(O)cc(OC)c(OCc4ccccc4)c2CC13

>  <score_type>  (21) 
oracle

>  <origin>  (21) 
adg

>  <m_score__min__energy>  (21) 
-8.0399999999999991

>  <m_primary>  (21) 
energy

$$$$
21:0
     RDKit          3D

 49 53  0  0  0  0  0  0  0  0999 V2000
   58.5880   30.6750   47.8970 O   0  0  0  0  0  0  0  0  0  0  0  0
   59.6470   30.8590   47.2180 C   0  0  0  0  0  0  0  0  0  0  0  0
   59.5850   30.6910   45.8300 N   0  0  0  0  0  0  0  0  0  0  0  0
   58.3130   30.3180   45.2680 C   0  0  0  0  0  0  0  0  0  0  0  0
   57.5560   31.2920   44.5760 C   0  0  0  0  0  0  0  0  0  0  0  0
   58.0920   32.6100   44.5250 C   0  0  0  0  0  0  0  0  0  0  0  0
   58.5180   32.9990   43.3580 O   0  0  0  0  0  0  0  0  0  0  0  0
   58.2500   33.5930   45.5120 N   0  0  0  0  0  0  0  0  0  0  0  0
   58.8920   34.8870   45.1420 C   0  0  0  0  0  0  0  0  0  0  0  0
   59.7140   35.2060   46.3590 C   0  0  0  0  0  0  0  0  0  0  0  0
   59.2000   34.3420   47.4950 C   0  0  0  0  0  0  0  0  0  0  0  0
   57.9190   33.7820   46.8880 C   0  0  0  0  0  0  0  0  0  0  0  0
   56.3660   30.8420   44.0760 C   0  0  0  0  0  0  0  0  0  0  0  0
   55.8960   29.5480   44.2090 C   0  0  0  0  0  0  0  0  0  0  0  0
   56.6590   28.6170   44.8930 C   0  0  0  0  0  0  0  0  0  0  0  0
   57.8740   29.0280   45.4180 C   0  0  0  0  0  0  0  0  0  0  0  0
   58.6680   28.0270   46.1370 C   0  0  0  0  0  0  0  0  0  0  0  0
   59.4050   27.0260   45.6240 N   0  0  0  0  0  0  0  0  0  0  0  0
   59.9970   26.3200   46.5710 C   0  0  0  0  0  0  0  0  0  0  0  0
   59.6330   26.8840   47.7760 C   0  0  0  0  0  0  0  0  0  0  0  0
   58.8110   27.9360   47.4840 N   0  0  0  0  0  0  0  0  0  0  0  0
   60.8350   31.2290   47.9730 C   0  0  0  0  0  0  0  0  0  0  0  0
   61.1960   30.6740   49.2020 C   0  0  0  0  0  0  0  0  0  0  0  0
   62.3430   31.2760   49.5830 N   0  0  0  0  0  0  0  0  0  0  0  0
   62.7280   32.1640   48.6870 C   0  0  0  0  0  0  0  0  0  0  0  0
   63.8140   33.0160   48.6330 C   0  0  0  0  0  0  0  0  0  0  0  0
   63.9560   33.8320   47.5810 N   0  0  0  0  0  0  0  0  0  0  0  0
   63.0470   33.8060   46.6060 C   0  0  0  0  0  0  0  0  0  0  0  0
   61.9630   32.9800   46.6270 N   0  0  0  0  0  0  0  0  0  0  0  0
   61.8110   32.1590   47.6750 C   0  0  0  0  0  0  0  0  0  0  0  0
   60.4350   30.8390   45.2600 H   0  0  0  0  0  0  0  0  0  0  0  0
   59.5282   34.7742   44.2517 H   0  0  0  0  0  0  0  0  0  0  0  0
   58.1696   35.6752   44.8835 H   0  0  0  0  0  0  0  0  0  0  0  0
   60.7735   34.9817   46.1661 H   0  0  0  0  0  0  0  0  0  0  0  0
   59.6303   36.2726   46.6147 H   0  0  0  0  0  0  0  0  0  0  0  0
   59.9110   33.5407   47.7450 H   0  0  0  0  0  0  0  0  0  0  0  0
   59.0512   34.8833   48.4410 H   0  0  0  0  0  0  0  0  0  0  0  0
   57.6462   32.8268   47.3604 H   0  0  0  0  0  0  0  0  0  0  0  0
   57.0541   34.4465   47.0307 H   0  0  0  0  0  0  0  0  0  0  0  0
   55.7375   31.5601   43.5289 H   0  0  0  0  0  0  0  0  0  0  0  0
   54.9263   29.2616   43.7759 H   0  0  0  0  0  0  0  0  0  0  0  0
   56.3109   27.5808   45.0162 H   0  0  0  0  0  0  0  0  0  0  0  0
   60.6539   25.4497   46.4263 H   0  0  0  0  0  0  0  0  0  0  0  0
   59.9439   26.5516   48.7774 H   0  0  0  0  0  0  0  0  0  0  0  0
   58.3850   28.5430   48.2260 H   0  0  0  0  0  0  0  0  0  0  0  0
   60.6502   29.8950   49.7545 H   0  0  0  0  0  0  0  0  0  0  0  0
   62.8260   31.0320   50.4940 H   0  0  0  0  0  0  0  0  0  0  0  0
   64.5547   33.0240   49.4462 H   0  0  0  0  0  0  0  0  0  0  0  0
   63.1776   34.4807   45.7471 H   0  0  0  0  0  0  0  0  0  0  0  0
  1  2  2  0
  2  3  1  0
  3  4  1  0
  4  5  1  0
  5  6  1  0
  6  7  2  0
  6  8  1  0
  8  9  1  0
  9 10  1  0
 10 11  1  0
 11 12  1  0
  5 13  2  0
 13 14  1  0
 14 15  2  0
 15 16  1  0
 16 17  1  0
 17 18  2  0
 18 19  1  0
 19 20  2  0
 20 21  1  0
  2 22  1  0
 22 23  2  0
 23 24  1  0
 24 25  1  0
 25 26  2  0
 26 27  1  0
 27 28  2  0
 28 29  1  0
 29 30  2  0
 16  4  2  0
 21 17  1  0
 30 22  1  0
 12  8  1  0
 30 25  1  0
  3 31  1  0
  9 32  1  0
  9 33  1  0
 10 34  1  0
 10 35  1  0
 11 36  1  0
 11 37  1  0
 12 38  1  0
 12 39  1  0
 13 40  1  0
 14 41  1  0
 15 42  1  0
 19 43  1  0
 20 44  1  0
 21 45  1  0
 23 46  1  0
 24 47  1  0
 26 48  1  0
 28 49  1  0
M  END
>  <smiles>  (22) 
O=C(Nc1c(C(=O)N2CCCC2)cccc1-c1ncc[nH]1)c1c[nH]c2cncnc12

>  <score_type>  (22) 
oracle

>  <origin>  (22) 
adg

>  <m_score__min__energy>  (22) 
-8.9100000000000001

>  <m_primary>  (22) 
energy

$$$$
22:0
     RDKit          3D

 51 55  0  0  0  0  0  0  0  0999 V2000
   57.2315   31.5922   40.9587 H   0  0  0  0  0  0  0  0  0  0  0  0
   57.2710   31.5970   42.0580 C   0  0  0  0  0  0  0  0  0  0  0  0
   57.7630   32.6800   42.7140 N   0  0  0  0  0  0  0  0  0  0  0  0
   57.8300   32.7200   44.0700 C   0  0  0  0  0  0  0  0  0  0  0  0
   58.2372   33.6096   44.5727 H   0  0  0  0  0  0  0  0  0  0  0  0
   57.3830   31.6340   44.8290 C   0  0  0  0  0  0  0  0  0  0  0  0
   57.4464   31.6626   45.9268 H   0  0  0  0  0  0  0  0  0  0  0  0
   56.8500   30.5010   44.1780 C   0  0  0  0  0  0  0  0  0  0  0  0
   56.4240   29.4440   44.8150 N   0  0  0  0  0  0  0  0  0  0  0  0
   57.1780   28.4830   45.5670 C   0  0  0  0  0  0  0  0  0  0  0  0
   57.7880   28.8250   46.7330 N   0  0  0  0  0  0  0  0  0  0  0  0
   58.4390   27.8900   47.4690 C   0  0  0  0  0  0  0  0  0  0  0  0
   59.0470   28.2500   48.5610 N   0  0  0  0  0  0  0  0  0  0  0  0
   59.1020   29.5750   49.1180 C   0  0  0  0  0  0  0  0  0  0  0  0
   58.7250   29.8410   50.4650 C   0  0  0  0  0  0  0  0  0  0  0  0
   58.4012   29.0130   51.1128 H   0  0  0  0  0  0  0  0  0  0  0  0
   58.7620   31.1520   50.9770 C   0  0  0  0  0  0  0  0  0  0  0  0
   58.4868   31.3638   52.0207 H   0  0  0  0  0  0  0  0  0  0  0  0
   59.1590   32.1700   50.1160 C   0  0  0  0  0  0  0  0  0  0  0  0
   59.2580   33.4840   50.3800 N   0  0  0  0  0  0  0  0  0  0  0  0
   59.6550   34.0790   49.2590 N   0  0  0  0  0  0  0  0  0  0  0  0
   59.8070   33.1500   48.2850 C   0  0  0  0  0  0  0  0  0  0  0  0
   60.1242   33.3434   47.2496 H   0  0  0  0  0  0  0  0  0  0  0  0
   59.4950   31.9240   48.8190 C   0  0  0  0  0  0  0  0  0  0  0  0
   59.4700   30.6440   48.2740 C   0  0  0  0  0  0  0  0  0  0  0  0
   59.7288   30.4711   47.2190 H   0  0  0  0  0  0  0  0  0  0  0  0
   58.4760   26.6040   47.0320 N   0  0  0  0  0  0  0  0  0  0  0  0
   57.8480   26.2430   45.8830 C   0  0  0  0  0  0  0  0  0  0  0  0
   57.8740   24.8690   45.4440 N   0  0  0  0  0  0  0  0  0  0  0  0
   56.6780   24.2370   44.8680 C   0  0  0  0  0  0  0  0  0  0  0  0
   56.1859   23.6212   45.6352 H   0  0  0  0  0  0  0  0  0  0  0  0
   55.9880   25.0195   44.5194 H   0  0  0  0  0  0  0  0  0  0  0  0
   57.0760   23.3470   43.6780 C   0  0  2  0  0  0  0  0  0  0  0  0
   57.5071   23.9994   42.9043 H   0  0  0  0  0  0  0  0  0  0  0  0
   55.8890   22.6820   43.1380 N   0  0  0  0  0  0  0  0  0  0  0  0
   55.0390   23.1920   43.4690 H   0  0  0  0  0  0  0  0  0  0  0  0
   55.9040   22.7420   42.0930 H   0  0  0  0  0  0  0  0  0  0  0  0
   58.1900   22.3220   44.0350 C   0  0  0  0  0  0  0  0  0  0  0  0
   57.7469   21.3152   44.0411 H   0  0  0  0  0  0  0  0  0  0  0  0
   58.9799   22.4275   43.2767 H   0  0  0  0  0  0  0  0  0  0  0  0
   58.8450   22.5740   45.4070 C   0  0  1  0  0  0  0  0  0  0  0  0
   58.1499   22.2367   46.1900 H   0  0  0  0  0  0  0  0  0  0  0  0
   60.0860   21.8030   45.5210 N   0  0  0  0  0  0  0  0  0  0  0  0
   59.9040   20.8110   45.2450 H   0  0  0  0  0  0  0  0  0  0  0  0
   60.7820   22.1920   44.8440 H   0  0  0  0  0  0  0  0  0  0  0  0
   59.1000   24.0770   45.6400 C   0  0  0  0  0  0  0  0  0  0  0  0
   59.4593   24.2233   46.6693 H   0  0  0  0  0  0  0  0  0  0  0  0
   59.8507   24.4168   44.9113 H   0  0  0  0  0  0  0  0  0  0  0  0
   57.1900   27.1880   45.1610 N   0  0  0  0  0  0  0  0  0  0  0  0
   56.8150   30.4890   42.7770 C   0  0  0  0  0  0  0  0  0  0  0  0
   56.4288   29.6079   42.2437 H   0  0  0  0  0  0  0  0  0  0  0  0
  1  2  1  0
  2  3  1  0
  3  4  1  0
  4  5  1  0
  4  6  2  0
  6  7  1  0
  6  8  1  0
  8  9  2  3
  9 10  1  0
 10 11  2  0
 11 12  1  0
 12 13  2  0
 13 14  1  0
 14 15  2  0
 15 16  1  0
 15 17  1  0
 17 18  1  0
 17 19  2  0
 19 20  1  0
 20 21  1  0
 21 22  2  0
 22 23  1  0
 22 24  1  0
 24 25  2  0
 25 26  1  0
 12 27  1  0
 27 28  2  0
 28 29  1  0
 29 30  1  0
 30 31  1  0
 30 32  1  0
 30 33  1  0
 33 34  1  6
 33 35  1  0
 35 36  1  0
 35 37  1  0
 33 38  1  0
 38 39  1  0
 38 40  1  0
 38 41  1  0
 41 42  1  1
 41 43  1  0
 43 44  1  0
 43 45  1  0
 41 46  1  0
 46 47  1  0
 46 48  1  0
 28 49  1  0
  8 50  1  0
 50 51  1  0
 50  2  2  0
 49 10  1  0
 25 14  1  0
 46 29  1  0
 24 19  1  0
M  CHG  3   3  -1  20  -1  49  -1
M  END
>  <UniqueID>  (23) 
18

>  <SMILES>  (23) 
N[C@@H]1C[C@@H](N)CN(c2n/c(=N\c3ccc4[n-]ncc4c3)nc(N=c3cc[n-]cc3)[n-]2)C1

>  <Energy>  (23) 
111.30578548377673

>  <Genealogy>  (23) 
NC1CC(N)CN(c2nc(=Nc3ccc4[n-]ncc4c3)nc(N=c3cc[n-]cc3)[n-]2)C1 (protonated)
N[C@@H]1C[C@@H](N)CN(c2nc(=Nc3ccc4[n-]ncc4c3)nc(N=c3cc[n-]cc3)[n-]2)C1 (chirality)
N[C@@H]1C[C@@H](N)CN(c2n/c(=N\c3ccc4[n-]ncc4c3)nc(N=c3cc[n-]cc3)[n-]2)C1 (cis-trans isomerization)
N[C@@H]1C[C@@H](N)CN(c2n/c(=N\c3ccc4[n-]ncc4c3)nc(N=c3cc[n-]cc3)[n-]2)C1 (3D coordinates assigned)
N[C@@H]1C[C@@H](N)CN(c2n/c(=N\c3ccc4[n-]ncc4c3)nc(N=c3cc[n-]cc3)[n-]2)C1 (nonaromatic ring conformer: 111.30578548377673 kcal/mol)

>  <smiles>  (23) 
NC1CC(N)CN(c2nc(=Nc3ccc4[nH]ncc4c3)nc(N=c3cc[nH]cc3)[nH]2)C1

>  <score_type>  (23) 
oracle

>  <origin>  (23) 
adg

>  <m_score__min__energy>  (23) 
-11.41

>  <m_primary>  (23) 
energy

$$$$
23:0
     RDKit          3D

 41 43  0  0  0  0  0  0  0  0999 V2000
   58.5850   25.0800   46.7370 N   0  0  0  0  0  0  0  0  0  0  0  0
   57.8790   24.3910   45.6940 C   0  0  0  0  0  0  0  0  0  0  0  0
   58.4980   23.2910   45.0770 C   0  0  0  0  0  0  0  0  0  0  0  0
   57.8180   22.5380   44.1200 C   0  0  0  0  0  0  0  0  0  0  0  0
   56.5120   22.8720   43.7670 C   0  0  0  0  0  0  0  0  0  0  0  0
   55.8870   23.9720   44.3580 C   0  0  0  0  0  0  0  0  0  0  0  0
   56.5620   24.7550   45.3120 C   0  0  0  0  0  0  0  0  0  0  0  0
   55.8810   25.9540   45.8530 C   0  0  0  0  0  0  0  0  0  0  0  0
   54.6250   25.9670   45.9690 O   0  0  0  0  0  0  0  0  0  0  0  0
   56.6630   27.0540   46.3380 N   0  0  0  0  0  0  0  0  0  0  0  0
   57.0680   28.2080   45.5890 C   0  0  0  0  0  0  0  0  0  0  0  0
   58.4280   28.5310   45.5370 C   0  0  0  0  0  0  0  0  0  0  0  0
   58.8690   29.6360   44.8020 C   0  0  0  0  0  0  0  0  0  0  0  0
   57.9480   30.4260   44.0870 C   0  0  0  0  0  0  0  0  0  0  0  0
   58.3340   31.5430   43.3300 O   0  0  0  0  0  0  0  0  0  0  0  0
   57.8530   32.8740   43.5180 C   0  0  0  0  0  0  0  0  0  0  0  0
   58.3100   33.4270   44.8420 C   0  0  0  0  0  0  0  0  0  0  0  0
   59.2790   34.4430   44.8840 C   0  0  0  0  0  0  0  0  0  0  0  0
   59.6990   34.9670   46.1110 C   0  0  0  0  0  0  0  0  0  0  0  0
   59.1470   34.4870   47.3030 C   0  0  0  0  0  0  0  0  0  0  0  0
   58.1730   33.4850   47.2680 C   0  0  0  0  0  0  0  0  0  0  0  0
   57.7510   32.9590   46.0430 C   0  0  0  0  0  0  0  0  0  0  0  0
   56.5910   30.0900   44.1250 C   0  0  0  0  0  0  0  0  0  0  0  0
   56.1490   28.9850   44.8610 C   0  0  0  0  0  0  0  0  0  0  0  0
   58.0940   25.7870   47.3270 H   0  0  0  0  0  0  0  0  0  0  0  0
   59.6170   24.9980   46.8550 H   0  0  0  0  0  0  0  0  0  0  0  0
   59.5285   23.0211   45.3512 H   0  0  0  0  0  0  0  0  0  0  0  0
   58.3133   21.6793   43.6432 H   0  0  0  0  0  0  0  0  0  0  0  0
   55.9728   22.2685   43.0220 H   0  0  0  0  0  0  0  0  0  0  0  0
   54.8557   24.2290   44.0745 H   0  0  0  0  0  0  0  0  0  0  0  0
   59.1569   27.9105   46.0789 H   0  0  0  0  0  0  0  0  0  0  0  0
   59.9393   29.8891   44.7822 H   0  0  0  0  0  0  0  0  0  0  0  0
   58.2360   33.5133   42.7089 H   0  0  0  0  0  0  0  0  0  0  0  0
   56.7532   32.8561   43.5047 H   0  0  0  0  0  0  0  0  0  0  0  0
   59.7094   34.8283   43.9479 H   0  0  0  0  0  0  0  0  0  0  0  0
   60.4639   35.7571   46.1384 H   0  0  0  0  0  0  0  0  0  0  0  0
   59.4792   34.8979   48.2678 H   0  0  0  0  0  0  0  0  0  0  0  0
   57.7377   33.1096   48.2058 H   0  0  0  0  0  0  0  0  0  0  0  0
   56.9787   32.1761   46.0196 H   0  0  0  0  0  0  0  0  0  0  0  0
   55.8634   30.7008   43.5705 H   0  0  0  0  0  0  0  0  0  0  0  0
   55.0806   28.7235   44.8702 H   0  0  0  0  0  0  0  0  0  0  0  0
  1  2  1  0
  2  3  2  0
  3  4  1  0
  4  5  2  0
  5  6  1  0
  6  7  2  0
  7  8  1  0
  8  9  2  0
  8 10  1  0
 10 11  1  0
 11 12  2  0
 12 13  1  0
 13 14  2  0
 14 15  1  0
 15 16  1  0
 16 17  1  0
 17 18  2  0
 18 19  1  0
 19 20  2  0
 20 21  1  0
 21 22  2  0
 14 23  1  0
 23 24  2  0
  7  2  1  0
 24 11  1  0
 22 17  1  0
  1 25  1  0
  1 26  1  0
  3 27  1  0
  4 28  1  0
  5 29  1  0
  6 30  1  0
 12 31  1  0
 13 32  1  0
 16 33  1  0
 16 34  1  0
 18 35  1  0
 19 36  1  0
 20 37  1  0
 21 38  1  0
 22 39  1  0
 23 40  1  0
 24 41  1  0
M  CHG  1  10  -1
M  END
>  <UniqueID>  (24) 
19

>  <SMILES>  (24) 
Nc1ccccc1C(=O)[N-]c1ccc(OCc2ccccc2)cc1

>  <Energy>  (24) 
52.15010033167572

>  <Genealogy>  (24) 
Nc1ccccc1C(=O)[N-]c1ccc(OCc2ccccc2)cc1 (protonated)
Nc1ccccc1C(=O)[N-]c1ccc(OCc2ccccc2)cc1 (3D coordinates assigned)
Nc1ccccc1C(=O)[N-]c1ccc(OCc2ccccc2)cc1 (optimized conformer: 52.15010033167572 kcal/mol)

>  <smiles>  (24) 
Nc1ccccc1C(=O)Nc1ccc(OCc2ccccc2)cc1

>  <score_type>  (24) 
oracle

>  <origin>  (24) 
adg

>  <m_score__min__energy>  (24) 
-10.82

>  <m_primary>  (24) 
energy

$$$$
24:0
     RDKit          3D

 51 55  0  0  0  0  0  0  0  0999 V2000
   57.5160   25.7670   47.0320 C   0  0  0  0  0  0  0  0  0  0  0  0
   57.7380   26.2170   45.6340 C   0  0  0  0  0  0  0  0  0  0  0  0
   57.5640   25.2940   44.6190 C   0  0  0  0  0  0  0  0  0  0  0  0
   57.7660   25.6990   43.2960 C   0  0  0  0  0  0  0  0  0  0  0  0
   58.1380   27.0170   43.0190 C   0  0  0  0  0  0  0  0  0  0  0  0
   58.3000   27.9050   44.0820 C   0  0  0  0  0  0  0  0  0  0  0  0
   58.6460   29.2180   44.1470 N   0  0  0  0  0  0  0  0  0  0  0  0
   58.6740   29.6590   45.3910 C   0  0  0  0  0  0  0  0  0  0  0  0
   58.9770   30.9540   45.9770 C   0  0  0  0  0  0  0  0  0  0  0  0
   60.1580   31.1200   46.7120 C   0  0  0  0  0  0  0  0  0  0  0  0
   60.5020   32.3170   47.2890 C   0  0  0  0  0  0  0  0  0  0  0  0
   61.7380   32.4520   48.0480 C   0  0  0  0  0  0  0  0  0  0  0  0
   62.8390   33.1470   47.5910 C   0  0  0  0  0  0  0  0  0  0  0  0
   64.0070   33.2500   48.3550 C   0  0  0  0  0  0  0  0  0  0  0  0
   63.9730   32.6150   49.5790 C   0  0  0  0  0  0  0  0  0  0  0  0
   65.1070   32.6660   50.4170 N   0  0  0  0  0  0  0  0  0  0  0  0
   66.0560   31.5480   50.4810 C   0  0  0  0  0  0  0  0  0  0  0  0
   67.3700   32.0120   51.0790 C   0  0  0  0  0  0  0  0  0  0  0  0
   67.6090   33.2770   50.4970 O   0  0  0  0  0  0  0  0  0  0  0  0
   66.8500   34.1920   51.2110 C   0  0  0  0  0  0  0  0  0  0  0  0
   65.4100   33.8030   51.2580 C   0  0  0  0  0  0  0  0  0  0  0  0
   62.8970   31.9360   50.0270 N   0  0  0  0  0  0  0  0  0  0  0  0
   61.7700   31.8320   49.2970 C   0  0  0  0  0  0  0  0  0  0  0  0
   59.6600   33.3930   47.1470 C   0  0  0  0  0  0  0  0  0  0  0  0
   58.5360   33.2430   46.4510 N   0  0  0  0  0  0  0  0  0  0  0  0
   58.1600   32.0650   45.8600 C   0  0  0  0  0  0  0  0  0  0  0  0
   57.1180   32.0340   45.2490 N   0  0  0  0  0  0  0  0  0  0  0  0
   58.3330   28.5900   46.1640 N   0  0  0  0  0  0  0  0  0  0  0  0
   58.1040   27.5230   45.3890 C   0  0  0  0  0  0  0  0  0  0  0  0
   57.8931   26.5313   47.7275 H   0  0  0  0  0  0  0  0  0  0  0  0
   56.4398   25.6156   47.2019 H   0  0  0  0  0  0  0  0  0  0  0  0
   58.0507   24.8209   47.2019 H   0  0  0  0  0  0  0  0  0  0  0  0
   57.2716   24.2587   44.8485 H   0  0  0  0  0  0  0  0  0  0  0  0
   57.6321   24.9805   42.4739 H   0  0  0  0  0  0  0  0  0  0  0  0
   58.3000   27.3478   41.9825 H   0  0  0  0  0  0  0  0  0  0  0  0
   58.8520   29.7640   43.3090 H   0  0  0  0  0  0  0  0  0  0  0  0
   60.8338   30.2603   46.8310 H   0  0  0  0  0  0  0  0  0  0  0  0
   62.7977   33.6309   46.6040 H   0  0  0  0  0  0  0  0  0  0  0  0
   64.8922   33.8001   48.0032 H   0  0  0  0  0  0  0  0  0  0  0  0
   65.6339   30.7481   51.1071 H   0  0  0  0  0  0  0  0  0  0  0  0
   66.2371   31.1714   49.4635 H   0  0  0  0  0  0  0  0  0  0  0  0
   67.2882   32.0986   52.1725 H   0  0  0  0  0  0  0  0  0  0  0  0
   68.1879   31.3039   50.8799 H   0  0  0  0  0  0  0  0  0  0  0  0
   67.2367   34.2497   52.2392 H   0  0  0  0  0  0  0  0  0  0  0  0
   66.9241   35.1657   50.7047 H   0  0  0  0  0  0  0  0  0  0  0  0
   65.1480   33.5514   52.2963 H   0  0  0  0  0  0  0  0  0  0  0  0
   64.8250   34.6560   50.8837 H   0  0  0  0  0  0  0  0  0  0  0  0
   60.9003   31.2744   49.6747 H   0  0  0  0  0  0  0  0  0  0  0  0
   59.9109   34.3629   47.6013 H   0  0  0  0  0  0  0  0  0  0  0  0
   57.9140   34.0860   46.3620 H   0  0  0  0  0  0  0  0  0  0  0  0
   56.3090   31.9620   44.7570 H   0  0  0  0  0  0  0  0  0  0  0  0
  1  2  1  0
  2  3  2  0
  3  4  1  0
  4  5  2  0
  5  6  1  0
  6  7  1  0
  7  8  1  0
  8  9  1  0
  9 10  2  0
 10 11  1  0
 11 12  1  0
 12 13  2  0
 13 14  1  0
 14 15  2  0
 15 16  1  0
 16 17  1  0
 17 18  1  0
 18 19  1  0
 19 20  1  0
 20 21  1  0
 15 22  1  0
 22 23  2  0
 11 24  2  0
 24 25  1  0
 25 26  1  0
 26 27  2  3
  8 28  2  0
 28 29  1  0
 29  2  1  0
 29  6  2  0
 26  9  1  0
 23 12  1  0
 21 16  1  0
  1 30  1  0
  1 31  1  0
  1 32  1  0
  3 33  1  0
  4 34  1  0
  5 35  1  0
  7 36  1  0
 10 37  1  0
 13 38  1  0
 14 39  1  0
 17 40  1  0
 17 41  1  0
 18 42  1  0
 18 43  1  0
 20 44  1  0
 20 45  1  0
 21 46  1  0
 21 47  1  0
 23 48  1  0
 24 49  1  0
 25 50  1  0
 27 51  1  0
M  END
>  <smiles>  (25) 
Cc1cccc2[nH]c(-c3cc(-c4ccc(N5CCOCC5)nc4)c[nH]c3=N)nc12

>  <score_type>  (25) 
oracle

>  <origin>  (25) 
adg

>  <m_score__min__energy>  (25) 
-7.9100000000000001

>  <m_primary>  (25) 
energy

$$$$
25:0
     RDKit          3D

 40 42  0  0  0  0  0  0  0  0999 V2000
   57.2808   30.9192   52.5174 H   0  0  0  0  0  0  0  0  0  0  0  0
   57.7570   30.9670   51.5270 C   0  0  0  0  0  0  0  0  0  0  0  0
   58.0980   29.8220   50.8820 N   0  0  0  0  0  0  0  0  0  0  0  0
   58.6950   29.8550   49.6630 C   0  0  0  0  0  0  0  0  0  0  0  0
   58.9900   28.7330   49.0710 N   0  0  0  0  0  0  0  0  0  0  0  0
   59.1050   28.5110   47.6540 C   0  0  0  0  0  0  0  0  0  0  0  0
   60.1540   29.1260   46.9640 C   0  0  0  0  0  0  0  0  0  0  0  0
   60.8808   29.7440   47.5115 H   0  0  0  0  0  0  0  0  0  0  0  0
   60.2840   28.9600   45.5840 C   0  0  0  0  0  0  0  0  0  0  0  0
   61.1207   29.4355   45.0512 H   0  0  0  0  0  0  0  0  0  0  0  0
   59.3550   28.1920   44.8770 C   0  0  0  0  0  0  0  0  0  0  0  0
   59.4680   28.0598   43.7908 H   0  0  0  0  0  0  0  0  0  0  0  0
   58.2760   27.5870   45.5470 C   0  0  0  0  0  0  0  0  0  0  0  0
   57.2830   26.8110   44.8510 N   0  0  0  0  0  0  0  0  0  0  0  0
   57.0060   27.0980   43.8860 H   0  0  0  0  0  0  0  0  0  0  0  0
   56.4020   25.4870   45.5480 S   0  0  0  0  0  0  0  0  0  0  0  0
   55.0460   25.9520   45.9990 O   0  0  0  0  0  0  0  0  0  0  0  0
   57.1580   24.9770   46.7420 O   0  0  0  0  0  0  0  0  0  0  0  0
   56.2470   24.1630   44.3690 C   0  0  0  0  0  0  0  0  0  0  0  0
   56.1352   23.2078   44.9029 H   0  0  0  0  0  0  0  0  0  0  0  0
   55.3630   24.3358   43.7377 H   0  0  0  0  0  0  0  0  0  0  0  0
   57.1471   24.1270   43.7377 H   0  0  0  0  0  0  0  0  0  0  0  0
   58.1510   27.7670   46.9350 C   0  0  0  0  0  0  0  0  0  0  0  0
   57.2971   27.3210   47.4660 H   0  0  0  0  0  0  0  0  0  0  0  0
   58.9360   31.0550   49.0650 N   0  0  0  0  0  0  0  0  0  0  0  0
   58.6010   32.2280   49.6630 C   0  0  0  0  0  0  0  0  0  0  0  0
   58.9000   33.4300   49.0070 O   0  0  0  0  0  0  0  0  0  0  0  0
   58.8610   33.6340   47.6210 C   0  0  0  0  0  0  0  0  0  0  0  0
   59.3720   34.8030   47.0260 C   0  0  0  0  0  0  0  0  0  0  0  0
   59.8298   35.5825   47.6527 H   0  0  0  0  0  0  0  0  0  0  0  0
   59.2990   34.9760   45.6390 C   0  0  0  0  0  0  0  0  0  0  0  0
   59.7089   35.8860   45.1766 H   0  0  0  0  0  0  0  0  0  0  0  0
   58.7060   33.9940   44.8410 C   0  0  0  0  0  0  0  0  0  0  0  0
   58.6536   34.1294   43.7506 H   0  0  0  0  0  0  0  0  0  0  0  0
   58.1790   32.8390   45.4280 C   0  0  0  0  0  0  0  0  0  0  0  0
   57.3580   31.5040   44.3380 Br  0  0  0  0  0  0  0  0  0  0  0  0
   58.2520   32.6650   46.8150 C   0  0  0  0  0  0  0  0  0  0  0  0
   57.8277   31.7603   47.2749 H   0  0  0  0  0  0  0  0  0  0  0  0
   58.0100   32.2020   50.9350 C   0  0  0  0  0  0  0  0  0  0  0  0
   57.7519   33.1370   51.4537 H   0  0  0  0  0  0  0  0  0  0  0  0
  1  2  1  0
  2  3  1  0
  3  4  1  0
  4  5  2  0
  5  6  1  0
  6  7  2  0
  7  8  1  0
  7  9  1  0
  9 10  1  0
  9 11  2  0
 11 12  1  0
 11 13  1  0
 13 14  1  0
 14 15  1  0
 14 16  1  0
 16 17  2  0
 16 18  2  0
 16 19  1  0
 19 20  1  0
 19 21  1  0
 19 22  1  0
 13 23  2  0
 23 24  1  0
  4 25  1  0
 25 26  2  0
 26 27  1  0
 27 28  1  0
 28 29  2  0
 29 30  1  0
 29 31  1  0
 31 32  1  0
 31 33  2  0
 33 34  1  0
 33 35  1  0
 35 36  1  0
 35 37  2  0
 37 38  1  0
 26 39  1  0
 39 40  1  0
 39  2  2  0
 23  6  1  0
 37 28  1  0
M  CHG  1   3  -1
M  END
>  <UniqueID>  (26) 
20

>  <SMILES>  (26) 
CS(=O)(=O)Nc1cccc(/N=c2\nc(Oc3cccc(Br)c3)cc[n-]2)c1

>  <Energy>  (26) 
55.14402682783903

>  <Genealogy>  (26) 
CS(=O)(=O)Nc1cccc(N=c2nc(Oc3cccc(Br)c3)cc[n-]2)c1 (protonated)
CS(=O)(=O)Nc1cccc(/N=c2\nc(Oc3cccc(Br)c3)cc[n-]2)c1 (cis-trans isomerization)
CS(=O)(=O)Nc1cccc(/N=c2\nc(Oc3cccc(Br)c3)cc[n-]2)c1 (3D coordinates assigned)
CS(=O)(=O)Nc1cccc(/N=c2\nc(Oc3cccc(Br)c3)cc[n-]2)c1 (optimized conformer: 55.14402682783903 kcal/mol)

>  <smiles>  (26) 
CS(=O)(=O)Nc1cccc(N=c2nc(Oc3cccc(Br)c3)cc[nH]2)c1

>  <score_type>  (26) 
oracle

>  <origin>  (26) 
adg

>  <m_score__min__energy>  (26) 
-10.56

>  <m_primary>  (26) 
energy

$$$$
26:0
     RDKit          3D

 38 39  0  0  0  0  0  0  0  0999 V2000
   59.5580   34.9790   45.6580 C   0  0  0  0  0  0  0  0  0  0  0  0
   58.7440   33.8890   45.0440 C   0  0  0  0  0  0  0  0  0  0  0  0
   58.7980   33.5510   43.7370 N   0  0  0  0  0  0  0  0  0  0  0  0
   57.9470   32.5820   43.5570 O   0  0  0  0  0  0  0  0  0  0  0  0
   57.3480   32.2770   44.6860 C   0  0  0  0  0  0  0  0  0  0  0  0
   56.4350   31.3670   44.8170 N   0  0  0  0  0  0  0  0  0  0  0  0
   56.7350   29.6930   44.4910 S   0  0  0  0  0  0  0  0  0  0  0  0
   56.9500   29.5100   43.0140 O   0  0  0  0  0  0  0  0  0  0  0  0
   55.5650   28.8570   44.9300 O   0  0  0  0  0  0  0  0  0  0  0  0
   58.1740   29.1820   45.3710 C   0  0  0  0  0  0  0  0  0  0  0  0
   59.2400   30.0630   45.6180 C   0  0  0  0  0  0  0  0  0  0  0  0
   60.2870   29.4930   46.3280 C   0  0  0  0  0  0  0  0  0  0  0  0
   59.8890   27.8940   46.6490 S   0  0  0  0  0  0  0  0  0  0  0  0
   58.3860   27.8990   45.8940 C   0  0  0  0  0  0  0  0  0  0  0  0
   57.5020   26.7190   45.8280 C   0  0  0  0  0  0  0  0  0  0  0  0
   56.4780   26.6380   46.5560 O   0  0  0  0  0  0  0  0  0  0  0  0
   57.8170   25.6580   44.9190 N   0  0  0  0  0  0  0  0  0  0  0  0
   57.2660   24.3120   45.0210 C   0  0  0  0  0  0  0  0  0  0  0  0
   55.9010   24.2140   44.3310 C   0  0  0  0  0  0  0  0  0  0  0  0
   54.5520   24.3210   45.5000 S   0  0  0  0  0  0  0  0  0  0  0  0
   54.0150   25.9580   45.6360 N   0  0  0  0  0  0  0  0  0  0  0  0
   55.0000   23.8300   46.8470 O   0  0  0  0  0  0  0  0  0  0  0  0
   53.4150   23.4660   45.0170 O   0  0  0  0  0  0  0  0  0  0  0  0
   57.8330   33.0760   45.6940 C   0  0  0  0  0  0  0  0  0  0  0  0
   57.3740   33.1500   47.1170 C   0  0  0  0  0  0  0  0  0  0  0  0
   59.5027   34.9049   46.7541 H   0  0  0  0  0  0  0  0  0  0  0  0
   60.6052   34.8803   45.3362 H   0  0  0  0  0  0  0  0  0  0  0  0
   59.1660   35.9551   45.3362 H   0  0  0  0  0  0  0  0  0  0  0  0
   59.2443   31.1096   45.2793 H   0  0  0  0  0  0  0  0  0  0  0  0
   61.2157   30.0003   46.6282 H   0  0  0  0  0  0  0  0  0  0  0  0
   57.9599   23.6039   44.5443 H   0  0  0  0  0  0  0  0  0  0  0  0
   57.1341   24.0712   46.0862 H   0  0  0  0  0  0  0  0  0  0  0  0
   55.8093   25.0364   43.6063 H   0  0  0  0  0  0  0  0  0  0  0  0
   55.8416   23.2358   43.8314 H   0  0  0  0  0  0  0  0  0  0  0  0
   54.7710   26.5610   45.2400 H   0  0  0  0  0  0  0  0  0  0  0  0
   58.2348   33.0112   47.7876 H   0  0  0  0  0  0  0  0  0  0  0  0
   56.9179   34.1333   47.3045 H   0  0  0  0  0  0  0  0  0  0  0  0
   56.6320   32.3599   47.3045 H   0  0  0  0  0  0  0  0  0  0  0  0
  1  2  1  0
  2  3  1  0
  3  4  1  0
  4  5  1  0
  5  6  2  3
  6  7  1  0
  7  8  2  0
  7  9  2  0
  7 10  1  0
 10 11  1  0
 11 12  2  0
 12 13  1  0
 13 14  1  0
 14 15  1  0
 15 16  2  0
 15 17  1  0
 17 18  1  0
 18 19  1  0
 19 20  1  0
 20 21  1  0
 20 22  2  0
 20 23  2  0
  5 24  1  0
 24 25  1  0
 24  2  2  0
 14 10  2  0
  1 26  1  0
  1 27  1  0
  1 28  1  0
 11 29  1  0
 12 30  1  0
 18 31  1  0
 18 32  1  0
 19 33  1  0
 19 34  1  0
 21 35  1  0
 25 36  1  0
 25 37  1  0
 25 38  1  0
M  CHG  3   3  -1  17  -1  21  -1
M  END
>  <UniqueID>  (27) 
21

>  <SMILES>  (27) 
Cc1[n-]oc(=NS(=O)(=O)c2ccsc2C(=O)[N-]CCS([NH-])(=O)=O)c1C

>  <Energy>  (27) 
88.38653802090678

>  <Genealogy>  (27) 
Cc1[n-]oc(=NS(=O)(=O)c2ccsc2C(=O)[N-]CCS([NH-])(=O)=O)c1C (protonated)
Cc1[n-]oc(=NS(=O)(=O)c2ccsc2C(=O)[N-]CCS([NH-])(=O)=O)c1C (3D coordinates assigned)
Cc1[n-]oc(=NS(=O)(=O)c2ccsc2C(=O)[N-]CCS([NH-])(=O)=O)c1C (optimized conformer: 88.38653802090678 kcal/mol)

>  <smiles>  (27) 
Cc1[nH]oc(=NS(=O)(=O)c2ccsc2C(=O)NCCS(N)(=O)=O)c1C

>  <score_type>  (27) 
oracle

>  <origin>  (27) 
adg

>  <m_score__min__energy>  (27) 
-13.4

>  <m_primary>  (27) 
energy

$$$$
27:0
     RDKit          3D

 79 83  0  0  0  0  0  0  0  0999 V2000
   56.3966   32.4915   44.0825 H   0  0  0  0  0  0  0  0  0  0  0  0
   56.9920   31.8340   44.7330 C   0  0  0  0  0  0  0  0  0  0  0  0
   56.7120   30.5140   44.7940 N   0  0  0  0  0  0  0  0  0  0  0  0
   57.4200   29.6610   45.5760 C   0  0  0  0  0  0  0  0  0  0  0  0
   57.0670   28.3070   45.5660 C   0  0  0  0  0  0  0  0  0  0  0  0
   56.2263   27.9658   44.9440 H   0  0  0  0  0  0  0  0  0  0  0  0
   57.7720   27.3910   46.3370 C   0  0  0  0  0  0  0  0  0  0  0  0
   57.3250   25.6960   46.3160 Cl  0  0  0  0  0  0  0  0  0  0  0  0
   58.8450   27.8190   47.1140 C   0  0  0  0  0  0  0  0  0  0  0  0
   59.4108   27.0896   47.7122 H   0  0  0  0  0  0  0  0  0  0  0  0
   59.2090   29.1680   47.1400 C   0  0  0  0  0  0  0  0  0  0  0  0
   60.0601   29.4855   47.7603 H   0  0  0  0  0  0  0  0  0  0  0  0
   58.5010   30.1360   46.3810 C   0  0  0  0  0  0  0  0  0  0  0  0
   58.7900   31.5490   46.3400 C   0  0  0  0  0  0  0  0  0  0  0  0
   59.6960   32.1840   47.0420 N   0  0  0  0  0  0  0  0  0  0  0  0
   59.6840   33.4630   47.7420 C   0  0  0  0  0  0  0  0  0  0  0  0
   59.9783   33.3080   48.7905 H   0  0  0  0  0  0  0  0  0  0  0  0
   58.6711   33.8900   47.7001 H   0  0  0  0  0  0  0  0  0  0  0  0
   60.6640   34.4260   47.0780 C   0  0  0  0  0  0  0  0  0  0  0  0
   61.2851   34.8986   47.8532 H   0  0  0  0  0  0  0  0  0  0  0  0
   60.0902   35.1863   46.5278 H   0  0  0  0  0  0  0  0  0  0  0  0
   61.5360   33.7180   46.1280 N   0  0  0  0  0  0  0  0  0  0  0  0
   61.3990   32.6850   46.2320 H   0  0  0  0  0  0  0  0  0  0  0  0
   62.9540   34.0440   46.3610 C   0  0  0  0  0  0  0  0  0  0  0  0
   63.0139   35.0481   46.8063 H   0  0  0  0  0  0  0  0  0  0  0  0
   63.4664   33.9936   45.3889 H   0  0  0  0  0  0  0  0  0  0  0  0
   63.6560   33.0470   47.3030 C   0  0  0  0  0  0  0  0  0  0  0  0
   63.9458   33.5627   48.2304 H   0  0  0  0  0  0  0  0  0  0  0  0
   64.5521   32.6468   46.8062 H   0  0  0  0  0  0  0  0  0  0  0  0
   62.7430   31.9390   47.6250 N   0  0  0  0  0  0  0  0  0  0  0  0
   61.7570   32.2740   47.4820 H   0  0  0  0  0  0  0  0  0  0  0  0
   62.8780   31.5330   49.0320 C   0  0  0  0  0  0  0  0  0  0  0  0
   62.5977   32.3749   49.6821 H   0  0  0  0  0  0  0  0  0  0  0  0
   63.9214   31.2428   49.2245 H   0  0  0  0  0  0  0  0  0  0  0  0
   61.9650   30.3420   49.3250 C   0  0  0  0  0  0  0  0  0  0  0  0
   62.5807   29.4775   49.6141 H   0  0  0  0  0  0  0  0  0  0  0  0
   61.3837   30.1110   48.4202 H   0  0  0  0  0  0  0  0  0  0  0  0
   61.0150   30.6640   50.4390 C   0  0  0  0  0  0  0  0  0  0  0  0
   61.4020   31.3970   51.3890 O   0  0  0  0  0  0  0  0  0  0  0  0
   59.6640   30.1920   50.3990 N   0  0  0  0  0  0  0  0  0  0  0  0
   59.4490   29.3260   49.8450 H   0  0  0  0  0  0  0  0  0  0  0  0
   58.6320   30.7610   51.2190 C   0  0  0  0  0  0  0  0  0  0  0  0
   58.2310   32.0840   50.9880 C   0  0  0  0  0  0  0  0  0  0  0  0
   58.7320   32.6779   50.2094 H   0  0  0  0  0  0  0  0  0  0  0  0
   57.2010   32.6540   51.7380 C   0  0  0  0  0  0  0  0  0  0  0  0
   56.9029   33.6974   51.5578 H   0  0  0  0  0  0  0  0  0  0  0  0
   56.5490   31.9020   52.7160 C   0  0  0  0  0  0  0  0  0  0  0  0
   55.7211   32.3472   53.2873 H   0  0  0  0  0  0  0  0  0  0  0  0
   56.9440   30.5820   52.9740 C   0  0  0  0  0  0  0  0  0  0  0  0
   56.1990   29.8090   53.9270 N   0  0  0  0  0  0  0  0  0  0  0  0
   56.5750   29.7630   54.9000 H   0  0  0  0  0  0  0  0  0  0  0  0
   54.8230   29.4420   53.7120 C   0  0  0  0  0  0  0  0  0  0  0  0
   54.4030   28.1320   53.9860 C   0  0  0  0  0  0  0  0  0  0  0  0
   55.1411   27.3724   54.2830 H   0  0  0  0  0  0  0  0  0  0  0  0
   53.0510   27.7850   53.8840 C   0  0  0  0  0  0  0  0  0  0  0  0
   52.7345   26.7501   54.0810 H   0  0  0  0  0  0  0  0  0  0  0  0
   52.1020   28.7480   53.5330 C   0  0  0  0  0  0  0  0  0  0  0  0
   51.0396   28.4713   53.4645 H   0  0  0  0  0  0  0  0  0  0  0  0
   52.4990   30.0650   53.2680 C   0  0  0  0  0  0  0  0  0  0  0  0
   51.5030   31.0440   52.9400 N   0  0  0  0  0  0  0  0  0  0  0  0
   51.3580   31.7040   51.6680 C   0  0  0  0  0  0  0  0  0  0  0  0
   51.2330   32.9600   51.6480 O   0  0  0  0  0  0  0  0  0  0  0  0
   51.3820   30.9670   50.3900 C   0  0  0  0  0  0  0  0  0  0  0  0
   50.6520   31.4550   48.9520 S   0  0  0  0  0  0  0  0  0  0  0  0
   51.2060   30.1760   48.0180 C   0  0  0  0  0  0  0  0  0  0  0  0
   51.0060   30.0264   46.9467 H   0  0  0  0  0  0  0  0  0  0  0  0
   51.9610   29.3380   48.8300 C   0  0  0  0  0  0  0  0  0  0  0  0
   52.4419   28.4193   48.4630 H   0  0  0  0  0  0  0  0  0  0  0  0
   52.0530   29.7710   50.1580 C   0  0  0  0  0  0  0  0  0  0  0  0
   52.6000   29.2215   50.9383 H   0  0  0  0  0  0  0  0  0  0  0  0
   53.8650   30.3890   53.3050 C   0  0  0  0  0  0  0  0  0  0  0  0
   54.1908   31.3978   53.0115 H   0  0  0  0  0  0  0  0  0  0  0  0
   58.0280   30.0190   52.2620 C   0  0  0  0  0  0  0  0  0  0  0  0
   58.5290   28.6420   52.6150 C   0  0  0  0  0  0  0  0  0  0  0  0
   58.5678   28.5353   53.7091 H   0  0  0  0  0  0  0  0  0  0  0  0
   57.8484   27.8858   52.1968 H   0  0  0  0  0  0  0  0  0  0  0  0
   59.5364   28.5000   52.1968 H   0  0  0  0  0  0  0  0  0  0  0  0
   58.0290   32.3630   45.4890 C   0  0  0  0  0  0  0  0  0  0  0  0
   58.2572   33.4368   45.4194 H   0  0  0  0  0  0  0  0  0  0  0  0
  1  2  1  0
  2  3  1  0
  3  4  1  0
  4  5  2  0
  5  6  1  0
  5  7  1  0
  7  8  1  0
  7  9  2  0
  9 10  1  0
  9 11  1  0
 11 12  1  0
 11 13  2  0
 13 14  1  0
 14 15  2  0
 15 16  1  0
 16 17  1  0
 16 18  1  0
 16 19  1  0
 19 20  1  0
 19 21  1  0
 19 22  1  0
 22 23  1  0
 22 24  1  0
 24 25  1  0
 24 26  1  0
 24 27  1  0
 27 28  1  0
 27 29  1  0
 27 30  1  0
 30 31  1  0
 30 32  1  0
 32 33  1  0
 32 34  1  0
 32 35  1  0
 35 36  1  0
 35 37  1  0
 35 38  1  0
 38 39  2  0
 38 40  1  0
 40 41  1  0
 40 42  1  0
 42 43  2  0
 43 44  1  0
 43 45  1  0
 45 46  1  0
 45 47  2  0
 47 48  1  0
 47 49  1  0
 49 50  1  0
 50 51  1  0
 50 52  1  0
 52 53  2  0
 53 54  1  0
 53 55  1  0
 55 56  1  0
 55 57  2  0
 57 58  1  0
 57 59  1  0
 59 60  1  0
 60 61  1  0
 61 62  2  0
 61 63  1  0
 63 64  1  0
 64 65  1  0
 65 66  1  0
 65 67  2  0
 67 68  1  0
 67 69  1  0
 69 70  1  0
 59 71  2  0
 71 72  1  0
 49 73  2  0
 73 74  1  0
 74 75  1  0
 74 76  1  0
 74 77  1  0
 14 78  1  0
 78 79  1  0
 78  2  2  0
 13  4  1  0
 73 42  1  0
 71 52  1  0
 69 63  2  0
M  CHG  2   3  -1  60  -1
M  END
>  <UniqueID>  (28) 
22

>  <SMILES>  (28) 
Cc1c(NC(=O)CCNCCNCC/N=c2/cc[n-]c3cc(Cl)ccc23)cccc1Nc1cccc([N-]C(=O)c2cccs2)c1

>  <Energy>  (28) 
134.90211960785354

>  <Genealogy>  (28) 
Cc1c(NC(=O)CCNCCNCCN=c2cc[n-]c3cc(Cl)ccc23)cccc1Nc1cccc([N-]C(=O)c2cccs2)c1 (protonated)
Cc1c(NC(=O)CCNCCNCC/N=c2/cc[n-]c3cc(Cl)ccc23)cccc1Nc1cccc([N-]C(=O)c2cccs2)c1 (cis-trans isomerization)
Cc1c(NC(=O)CCNCCNCC/N=c2/cc[n-]c3cc(Cl)ccc23)cccc1Nc1cccc([N-]C(=O)c2cccs2)c1 (3D coordinates assigned)
Cc1c(NC(=O)CCNCCNCC/N=c2/cc[n-]c3cc(Cl)ccc23)cccc1Nc1cccc([N-]C(=O)c2cccs2)c1 (optimized conformer: 134.90211960785354 kcal/mol)

>  <smiles>  (28) 
Cc1c(NC(=O)CCNCCNCCN=c2cc[nH]c3cc(Cl)ccc23)cccc1Nc1cccc(NC(=O)c2cccs2)c1

>  <score_type>  (28) 
oracle

>  <origin>  (28) 
adg

>  <m_score__min__energy>  (28) 
-11.699999999999999

>  <m_primary>  (28) 
energy

$$$$
28:0
     RDKit          3D

 34 35  0  0  0  0  0  0  0  0999 V2000
   55.9990   23.6160   44.5330 C   0  0  0  0  0  0  0  0  0  0  0  0
   55.6750   23.2520   45.9740 C   0  0  0  0  0  0  0  0  0  0  0  0
   55.8230   24.4290   46.8220 N   0  0  0  0  0  0  0  0  0  0  0  0
   55.8820   25.7820   46.3530 C   0  0  0  0  0  0  0  0  0  0  0  0
   54.8160   26.3360   45.9780 O   0  0  0  0  0  0  0  0  0  0  0  0
   57.1500   26.5340   46.2630 C   0  0  0  0  0  0  0  0  0  0  0  0
   58.3790   26.0600   46.7500 C   0  0  0  0  0  0  0  0  0  0  0  0
   59.4270   26.9590   46.5920 C   0  0  0  0  0  0  0  0  0  0  0  0
   58.8340   28.3530   45.8640 S   0  0  0  0  0  0  0  0  0  0  0  0
   57.2390   27.8240   45.7470 C   0  0  0  0  0  0  0  0  0  0  0  0
   56.1410   28.5470   45.1760 N   0  0  0  0  0  0  0  0  0  0  0  0
   56.1890   29.8670   44.6230 C   0  0  0  0  0  0  0  0  0  0  0  0
   55.1410   30.5560   44.4900 O   0  0  0  0  0  0  0  0  0  0  0  0
   57.4990   30.4140   44.1520 C   0  0  0  0  0  0  0  0  0  0  0  0
   57.8040   31.7030   44.8630 C   0  0  0  0  0  0  0  0  0  0  0  0
   58.1340   31.6980   46.2290 C   0  0  0  0  0  0  0  0  0  0  0  0
   58.4530   32.8940   46.8810 C   0  0  0  0  0  0  0  0  0  0  0  0
   58.4560   34.0980   46.1720 C   0  0  0  0  0  0  0  0  0  0  0  0
   58.1420   34.1100   44.8100 C   0  0  0  0  0  0  0  0  0  0  0  0
   57.8230   32.9160   44.1550 C   0  0  0  0  0  0  0  0  0  0  0  0
   56.7303   24.4376   44.5179 H   0  0  0  0  0  0  0  0  0  0  0  0
   56.4214   22.7397   44.0195 H   0  0  0  0  0  0  0  0  0  0  0  0
   55.0796   23.9340   44.0195 H   0  0  0  0  0  0  0  0  0  0  0  0
   54.6398   22.8851   46.0348 H   0  0  0  0  0  0  0  0  0  0  0  0
   56.3652   22.4668   46.3160 H   0  0  0  0  0  0  0  0  0  0  0  0
   58.5008   25.0697   47.2132 H   0  0  0  0  0  0  0  0  0  0  0  0
   60.4708   26.7869   46.8933 H   0  0  0  0  0  0  0  0  0  0  0  0
   58.2951   29.6847   44.3627 H   0  0  0  0  0  0  0  0  0  0  0  0
   57.4429   30.6033   43.0699 H   0  0  0  0  0  0  0  0  0  0  0  0
   58.1415   30.7504   46.7876 H   0  0  0  0  0  0  0  0  0  0  0  0
   58.7016   32.8865   47.9525 H   0  0  0  0  0  0  0  0  0  0  0  0
   58.7058   35.0377   46.6864 H   0  0  0  0  0  0  0  0  0  0  0  0
   58.1458   35.0586   44.2532 H   0  0  0  0  0  0  0  0  0  0  0  0
   57.5860   32.9270   43.0809 H   0  0  0  0  0  0  0  0  0  0  0  0
  1  2  1  0
  2  3  1  0
  3  4  1  0
  4  5  2  0
  4  6  1  0
  6  7  1  0
  7  8  2  0
  8  9  1  0
  9 10  1  0
 10 11  1  0
 11 12  1  0
 12 13  2  0
 12 14  1  0
 14 15  1  0
 15 16  2  0
 16 17  1  0
 17 18  2  0
 18 19  1  0
 19 20  2  0
 10  6  2  0
 20 15  1  0
  1 21  1  0
  1 22  1  0
  1 23  1  0
  2 24  1  0
  2 25  1  0
  7 26  1  0
  8 27  1  0
 14 28  1  0
 14 29  1  0
 16 30  1  0
 17 31  1  0
 18 32  1  0
 19 33  1  0
 20 34  1  0
M  CHG  2   3  -1  11  -1
M  END
>  <UniqueID>  (29) 
23

>  <SMILES>  (29) 
CC[N-]C(=O)c1ccsc1[N-]C(=O)Cc1ccccc1

>  <Energy>  (29) 
59.693741716821386

>  <Genealogy>  (29) 
CC[N-]C(=O)c1ccsc1[N-]C(=O)Cc1ccccc1 (protonated)
CC[N-]C(=O)c1ccsc1[N-]C(=O)Cc1ccccc1 (3D coordinates assigned)
CC[N-]C(=O)c1ccsc1[N-]C(=O)Cc1ccccc1 (optimized conformer: 59.693741716821386 kcal/mol)

>  <smiles>  (29) 
CCNC(=O)c1ccsc1NC(=O)Cc1ccccc1

>  <score_type>  (29) 
oracle

>  <origin>  (29) 
adg

>  <m_score__min__energy>  (29) 
-11.609999999999999

>  <m_primary>  (29) 
energy

$$$$
29:0
     RDKit          3D

 49 51  0  0  0  0  0  0  0  0999 V2000
   57.0920   20.9710   42.9930 C   0  0  0  0  0  0  0  0  0  0  0  0
   55.9100   21.7340   43.2190 O   0  0  0  0  0  0  0  0  0  0  0  0
   55.8750   22.9530   43.9130 C   0  0  0  0  0  0  0  0  0  0  0  0
   54.7790   23.3390   44.7070 C   0  0  0  0  0  0  0  0  0  0  0  0
   54.7970   24.5630   45.3830 C   0  0  0  0  0  0  0  0  0  0  0  0
   55.8950   25.4240   45.2680 C   0  0  0  0  0  0  0  0  0  0  0  0
   55.8810   26.6560   46.0040 N   0  0  0  0  0  0  0  0  0  0  0  0
   57.0220   27.4420   46.3760 C   0  0  0  0  0  0  0  0  0  0  0  0
   57.8050   27.0340   47.2760 O   0  0  0  0  0  0  0  0  0  0  0  0
   57.3090   28.7110   45.6660 C   0  0  0  0  0  0  0  0  0  0  0  0
   56.3300   29.3170   44.8590 C   0  0  0  0  0  0  0  0  0  0  0  0
   56.6010   30.5150   44.1920 C   0  0  0  0  0  0  0  0  0  0  0  0
   57.8550   31.1330   44.3210 C   0  0  0  0  0  0  0  0  0  0  0  0
   58.1300   32.4560   43.6460 C   0  0  0  0  0  0  0  0  0  0  0  0
   57.8310   33.6320   44.4970 N   0  0  0  0  0  0  0  0  0  0  0  0
   57.0070   33.3640   45.6940 C   0  0  0  0  0  0  0  0  0  0  0  0
   57.8270   33.2700   46.9960 C   0  0  0  0  0  0  0  0  0  0  0  0
   59.2560   33.0930   46.7060 N   0  0  0  0  0  0  0  0  0  0  0  0
   60.0120   32.8800   47.9490 C   0  0  0  0  0  0  0  0  0  0  0  0
   59.7740   34.2670   45.9850 C   0  0  0  0  0  0  0  0  0  0  0  0
   58.9540   34.5670   44.7110 C   0  0  0  0  0  0  0  0  0  0  0  0
   58.8410   30.5190   45.1070 C   0  0  0  0  0  0  0  0  0  0  0  0
   58.5710   29.3240   45.7760 C   0  0  0  0  0  0  0  0  0  0  0  0
   56.9960   25.0310   44.4880 C   0  0  0  0  0  0  0  0  0  0  0  0
   56.9780   23.8080   43.8120 C   0  0  0  0  0  0  0  0  0  0  0  0
   57.5344   20.6855   43.9588 H   0  0  0  0  0  0  0  0  0  0  0  0
   56.8400   20.0647   42.4229 H   0  0  0  0  0  0  0  0  0  0  0  0
   57.8142   21.5739   42.4229 H   0  0  0  0  0  0  0  0  0  0  0  0
   53.9058   22.6760   44.7961 H   0  0  0  0  0  0  0  0  0  0  0  0
   53.9410   24.8519   46.0106 H   0  0  0  0  0  0  0  0  0  0  0  0
   55.3426   28.8443   44.7517 H   0  0  0  0  0  0  0  0  0  0  0  0
   55.8266   30.9767   43.5618 H   0  0  0  0  0  0  0  0  0  0  0  0
   59.1938   32.4897   43.3682 H   0  0  0  0  0  0  0  0  0  0  0  0
   57.4659   32.5149   42.7711 H   0  0  0  0  0  0  0  0  0  0  0  0
   56.2744   34.1775   45.8018 H   0  0  0  0  0  0  0  0  0  0  0  0
   56.5255   32.3865   45.5434 H   0  0  0  0  0  0  0  0  0  0  0  0
   57.6893   34.1948   47.5755 H   0  0  0  0  0  0  0  0  0  0  0  0
   57.4753   32.3999   47.5698 H   0  0  0  0  0  0  0  0  0  0  0  0
   59.3566   33.0646   48.8130 H   0  0  0  0  0  0  0  0  0  0  0  0
   60.3789   31.8435   47.9820 H   0  0  0  0  0  0  0  0  0  0  0  0
   60.8660   33.5725   47.9820 H   0  0  0  0  0  0  0  0  0  0  0  0
   59.7298   35.1415   46.6508 H   0  0  0  0  0  0  0  0  0  0  0  0
   60.8093   34.0520   45.6819 H   0  0  0  0  0  0  0  0  0  0  0  0
   58.5477   35.5861   44.7909 H   0  0  0  0  0  0  0  0  0  0  0  0
   59.6353   34.4543   43.8548 H   0  0  0  0  0  0  0  0  0  0  0  0
   59.8345   30.9826   45.1969 H   0  0  0  0  0  0  0  0  0  0  0  0
   59.3516   28.8573   46.3947 H   0  0  0  0  0  0  0  0  0  0  0  0
   57.8747   25.6881   44.4093 H   0  0  0  0  0  0  0  0  0  0  0  0
   57.8396   23.5146   43.1943 H   0  0  0  0  0  0  0  0  0  0  0  0
  1  2  1  0
  2  3  1  0
  3  4  2  0
  4  5  1  0
  5  6  2  0
  6  7  1  0
  7  8  1  0
  8  9  2  0
  8 10  1  0
 10 11  2  0
 11 12  1  0
 12 13  2  0
 13 14  1  0
 14 15  1  0
 15 16  1  0
 16 17  1  0
 17 18  1  0
 18 19  1  0
 18 20  1  0
 20 21  1  0
 13 22  1  0
 22 23  2  0
  6 24  1  0
 24 25  2  0
 25  3  1  0
 23 10  1  0
 21 15  1  0
  1 26  1  0
  1 27  1  0
  1 28  1  0
  4 29  1  0
  5 30  1  0
 11 31  1  0
 12 32  1  0
 14 33  1  0
 14 34  1  0
 16 35  1  0
 16 36  1  0
 17 37  1  0
 17 38  1  0
 19 39  1  0
 19 40  1  0
 19 41  1  0
 20 42  1  0
 20 43  1  0
 21 44  1  0
 21 45  1  0
 22 46  1  0
 23 47  1  0
 24 48  1  0
 25 49  1  0
M  CHG  1   7  -1
M  END
>  <UniqueID>  (30) 
24

>  <SMILES>  (30) 
COc1ccc([N-]C(=O)c2ccc(CN3CCN(C)CC3)cc2)cc1

>  <Energy>  (30) 
66.53608819169014

>  <Genealogy>  (30) 
COc1ccc([N-]C(=O)c2ccc(CN3CCN(C)CC3)cc2)cc1 (protonated)
COc1ccc([N-]C(=O)c2ccc(CN3CCN(C)CC3)cc2)cc1 (3D coordinates assigned)
COc1ccc([N-]C(=O)c2ccc(CN3CCN(C)CC3)cc2)cc1 (nonaromatic ring conformer: 66.53608819169014 kcal/mol)

>  <smiles>  (30) 
COc1ccc(NC(=O)c2ccc(CN3CCN(C)CC3)cc2)cc1

>  <score_type>  (30) 
oracle

>  <origin>  (30) 
adg

>  <m_score__min__energy>  (30) 
-10.140000000000001

>  <m_primary>  (30) 
energy

$$$$
30:0
     RDKit          3D

 40 41  0  0  0  0  0  0  0  0999 V2000
   58.1960   26.4170   44.5280 O   0  0  0  0  0  0  0  0  0  0  0  0
   57.2010   26.3430   45.2980 C   0  0  0  0  0  0  0  0  0  0  0  0
   56.8420   27.4670   46.1150 N   0  0  0  0  0  0  0  0  0  0  0  0
   57.7360   28.6130   46.2790 C   0  0  0  0  0  0  0  0  0  0  0  0
   57.4770   29.6960   45.2190 C   0  0  0  0  0  0  0  0  0  0  0  0
   58.7590   30.1730   44.5150 C   0  0  0  0  0  0  0  0  0  0  0  0
   58.4870   31.3000   43.6120 N   0  0  0  0  0  0  0  0  0  0  0  0
   57.4440   32.1880   44.1440 C   0  0  0  0  0  0  0  0  0  0  0  0
   58.0610   33.1590   45.1120 C   0  0  0  0  0  0  0  0  0  0  0  0
   57.8780   32.9970   46.4950 C   0  0  0  0  0  0  0  0  0  0  0  0
   58.5070   33.8630   47.3960 C   0  0  0  0  0  0  0  0  0  0  0  0
   59.3270   34.8900   46.9220 C   0  0  0  0  0  0  0  0  0  0  0  0
   59.5200   35.0530   45.5480 C   0  0  0  0  0  0  0  0  0  0  0  0
   58.8950   34.1880   44.6440 C   0  0  0  0  0  0  0  0  0  0  0  0
   56.3880   25.1090   45.3240 C   0  0  0  0  0  0  0  0  0  0  0  0
   56.9960   23.8710   45.0560 C   0  0  0  0  0  0  0  0  0  0  0  0
   56.2380   22.6980   45.0470 C   0  0  0  0  0  0  0  0  0  0  0  0
   54.8680   22.7470   45.3140 C   0  0  0  0  0  0  0  0  0  0  0  0
   54.2570   23.9680   45.6040 C   0  0  0  0  0  0  0  0  0  0  0  0
   55.0100   25.1470   45.6220 C   0  0  0  0  0  0  0  0  0  0  0  0
   54.3870   26.3410   45.9680 O   0  0  0  0  0  0  0  0  0  0  0  0
   55.8920   27.4790   46.5460 H   0  0  0  0  0  0  0  0  0  0  0  0
   57.5787   29.0472   47.2774 H   0  0  0  0  0  0  0  0  0  0  0  0
   58.7707   28.2590   46.1601 H   0  0  0  0  0  0  0  0  0  0  0  0
   56.7932   29.2868   44.4607 H   0  0  0  0  0  0  0  0  0  0  0  0
   57.0459   30.5650   45.7377 H   0  0  0  0  0  0  0  0  0  0  0  0
   59.4876   30.4912   45.2752 H   0  0  0  0  0  0  0  0  0  0  0  0
   59.1569   29.3392   43.9180 H   0  0  0  0  0  0  0  0  0  0  0  0
   58.1420   30.9120   42.7030 H   0  0  0  0  0  0  0  0  0  0  0  0
   56.9763   32.7418   43.3166 H   0  0  0  0  0  0  0  0  0  0  0  0
   56.6800   31.5889   44.6611 H   0  0  0  0  0  0  0  0  0  0  0  0
   57.2374   32.1858   46.8714 H   0  0  0  0  0  0  0  0  0  0  0  0
   58.3558   33.7352   48.4780 H   0  0  0  0  0  0  0  0  0  0  0  0
   59.8209   35.5706   47.6310 H   0  0  0  0  0  0  0  0  0  0  0  0
   60.1647   35.8631   45.1765 H   0  0  0  0  0  0  0  0  0  0  0  0
   59.0570   34.3138   43.5633 H   0  0  0  0  0  0  0  0  0  0  0  0
   58.0759   23.8253   44.8520 H   0  0  0  0  0  0  0  0  0  0  0  0
   56.7208   21.7339   44.8293 H   0  0  0  0  0  0  0  0  0  0  0  0
   54.2706   21.8235   45.2957 H   0  0  0  0  0  0  0  0  0  0  0  0
   53.1789   24.0034   45.8193 H   0  0  0  0  0  0  0  0  0  0  0  0
  1  2  2  0
  2  3  1  0
  3  4  1  0
  4  5  1  0
  5  6  1  0
  6  7  1  0
  7  8  1  0
  8  9  1  0
  9 10  2  0
 10 11  1  0
 11 12  2  0
 12 13  1  0
 13 14  2  0
  2 15  1  0
 15 16  2  0
 16 17  1  0
 17 18  2  0
 18 19  1  0
 19 20  2  0
 20 21  1  0
 14  9  1  0
 20 15  1  0
  3 22  1  0
  4 23  1  0
  4 24  1  0
  5 25  1  0
  5 26  1  0
  6 27  1  0
  6 28  1  0
  7 29  1  0
  8 30  1  0
  8 31  1  0
 10 32  1  0
 11 33  1  0
 12 34  1  0
 13 35  1  0
 14 36  1  0
 16 37  1  0
 17 38  1  0
 18 39  1  0
 19 40  1  0
M  CHG  1  21  -1
M  END
>  <UniqueID>  (31) 
25

>  <SMILES>  (31) 
O=C(NCCCNCc1ccccc1)c1ccccc1[O-]

>  <Energy>  (31) 
35.78853290820529

>  <Genealogy>  (31) 
O=C(NCCCNCc1ccccc1)c1ccccc1[O-] (protonated)
O=C(NCCCNCc1ccccc1)c1ccccc1[O-] (3D coordinates assigned)
O=C(NCCCNCc1ccccc1)c1ccccc1[O-] (optimized conformer: 35.78853290820529 kcal/mol)

>  <smiles>  (31) 
O=C(NCCCNCc1ccccc1)c1ccccc1O

>  <score_type>  (31) 
oracle

>  <origin>  (31) 
adg

>  <m_score__min__energy>  (31) 
-11.550000000000001

>  <m_primary>  (31) 
energy

$$$$
31:0
     RDKit          3D

 30 31  0  0  0  0  0  0  0  0999 V2000
   56.1430   29.4480   45.0060 N   0  0  0  0  0  0  0  0  0  0  0  0
   56.7360   30.4210   44.1360 C   0  0  0  0  0  0  0  0  0  0  0  0
   56.4320   30.3870   42.7650 C   0  0  0  0  0  0  0  0  0  0  0  0
   56.9970   31.3180   41.8920 C   0  0  0  0  0  0  0  0  0  0  0  0
   57.8760   32.2870   42.3750 C   0  0  0  0  0  0  0  0  0  0  0  0
   58.1860   32.3340   43.7360 C   0  0  0  0  0  0  0  0  0  0  0  0
   57.6080   31.4180   44.6270 C   0  0  0  0  0  0  0  0  0  0  0  0
   58.0100   31.5490   46.3780 S   0  0  0  0  0  0  0  0  0  0  0  0
   57.5890   33.3230   46.5270 C   0  0  0  0  0  0  0  0  0  0  0  0
   58.7880   34.1910   46.2490 C   0  0  0  0  0  0  0  0  0  0  0  0
   58.7310   34.9680   45.2570 O   0  0  0  0  0  0  0  0  0  0  0  0
   60.0530   34.1110   47.0320 C   0  0  0  0  0  0  0  0  0  0  0  0
   60.0850   34.3040   48.4290 C   0  0  0  0  0  0  0  0  0  0  0  0
   61.2830   34.1740   49.1370 C   0  0  0  0  0  0  0  0  0  0  0  0
   62.4650   33.8600   48.4650 C   0  0  0  0  0  0  0  0  0  0  0  0
   62.4540   33.6830   47.0810 C   0  0  0  0  0  0  0  0  0  0  0  0
   61.2590   33.8120   46.3670 C   0  0  0  0  0  0  0  0  0  0  0  0
   55.8450   29.7130   45.9720 H   0  0  0  0  0  0  0  0  0  0  0  0
   56.0010   28.4570   44.7160 H   0  0  0  0  0  0  0  0  0  0  0  0
   55.7440   29.6215   42.3768 H   0  0  0  0  0  0  0  0  0  0  0  0
   56.7485   31.2874   40.8209 H   0  0  0  0  0  0  0  0  0  0  0  0
   58.3255   33.0149   41.6835 H   0  0  0  0  0  0  0  0  0  0  0  0
   58.8874   33.0937   44.1112 H   0  0  0  0  0  0  0  0  0  0  0  0
   56.7951   33.5655   45.8053 H   0  0  0  0  0  0  0  0  0  0  0  0
   57.2495   33.5159   47.5553 H   0  0  0  0  0  0  0  0  0  0  0  0
   59.1593   34.5590   48.9657 H   0  0  0  0  0  0  0  0  0  0  0  0
   61.2942   34.3196   50.2273 H   0  0  0  0  0  0  0  0  0  0  0  0
   63.4050   33.7521   49.0261 H   0  0  0  0  0  0  0  0  0  0  0  0
   63.3871   33.4416   46.5509 H   0  0  0  0  0  0  0  0  0  0  0  0
   61.2601   33.6788   45.2751 H   0  0  0  0  0  0  0  0  0  0  0  0
  1  2  1  0
  2  3  2  0
  3  4  1  0
  4  5  2  0
  5  6  1  0
  6  7  2  0
  7  8  1  0
  8  9  1  0
  9 10  1  0
 10 11  2  0
 10 12  1  0
 12 13  2  0
 13 14  1  0
 14 15  2  0
 15 16  1  0
 16 17  2  0
  7  2  1  0
 17 12  1  0
  1 18  1  0
  1 19  1  0
  3 20  1  0
  4 21  1  0
  5 22  1  0
  6 23  1  0
  9 24  1  0
  9 25  1  0
 13 26  1  0
 14 27  1  0
 15 28  1  0
 16 29  1  0
 17 30  1  0
M  END
>  <UniqueID>  (32) 
26

>  <SMILES>  (32) 
Nc1ccccc1SCC(=O)c1ccccc1

>  <Energy>  (32) 
27.184122782825614

>  <Genealogy>  (32) 
Nc1ccccc1SCC(=O)c1ccccc1 (3D coordinates assigned)
Nc1ccccc1SCC(=O)c1ccccc1 (optimized conformer: 27.184122782825614 kcal/mol)

>  <smiles>  (32) 
Nc1ccccc1SCC(=O)c1ccccc1

>  <score_type>  (32) 
oracle

>  <origin>  (32) 
adg

>  <m_score__min__energy>  (32) 
-7.7699999999999996

>  <m_primary>  (32) 
energy

$$$$
32:0
     RDKit          3D

 42 44  0  0  0  0  0  0  0  0999 V2000
   61.6710   30.2650   47.9390 O   0  0  0  0  0  0  0  0  0  0  0  0
   60.4510   29.9970   48.1110 C   0  0  0  0  0  0  0  0  0  0  0  0
   59.6660   30.7980   49.0090 N   0  0  0  0  0  0  0  0  0  0  0  0
   60.0770   32.1350   49.4250 C   0  0  0  0  0  0  0  0  0  0  0  0
   60.0540   33.0650   48.2440 C   0  0  0  0  0  0  0  0  0  0  0  0
   58.8670   33.7210   47.8780 C   0  0  0  0  0  0  0  0  0  0  0  0
   58.8560   34.6050   46.7950 C   0  0  0  0  0  0  0  0  0  0  0  0
   60.0300   34.8420   46.0720 C   0  0  0  0  0  0  0  0  0  0  0  0
   61.2170   34.2050   46.4390 C   0  0  0  0  0  0  0  0  0  0  0  0
   61.2340   33.3270   47.5290 C   0  0  0  0  0  0  0  0  0  0  0  0
   59.8510   28.8500   47.3920 C   0  0  0  0  0  0  0  0  0  0  0  0
   60.4070   27.5670   47.5220 C   0  0  0  0  0  0  0  0  0  0  0  0
   59.8440   26.4820   46.8450 C   0  0  0  0  0  0  0  0  0  0  0  0
   58.7380   26.6700   46.0140 C   0  0  0  0  0  0  0  0  0  0  0  0
   58.1960   27.9480   45.8380 C   0  0  0  0  0  0  0  0  0  0  0  0
   57.0740   28.1090   44.9580 N   0  0  0  0  0  0  0  0  0  0  0  0
   56.3450   29.3240   44.7260 C   0  0  0  0  0  0  0  0  0  0  0  0
   55.1400   29.3810   45.0850 O   0  0  0  0  0  0  0  0  0  0  0  0
   56.9540   30.4930   44.0480 C   0  0  0  0  0  0  0  0  0  0  0  0
   56.9260   30.5740   42.6440 C   0  0  0  0  0  0  0  0  0  0  0  0
   57.4870   31.6710   41.9870 C   0  0  0  0  0  0  0  0  0  0  0  0
   58.0850   32.6970   42.7210 C   0  0  0  0  0  0  0  0  0  0  0  0
   58.1330   32.6220   44.1150 C   0  0  0  0  0  0  0  0  0  0  0  0
   57.5800   31.5240   44.7810 C   0  0  0  0  0  0  0  0  0  0  0  0
   57.6920   31.4510   46.1310 F   0  0  0  0  0  0  0  0  0  0  0  0
   58.7390   29.0320   46.5510 C   0  0  0  0  0  0  0  0  0  0  0  0
   58.7400   30.4480   49.3380 H   0  0  0  0  0  0  0  0  0  0  0  0
   59.3857   32.5063   50.1958 H   0  0  0  0  0  0  0  0  0  0  0  0
   61.0976   32.0909   49.8329 H   0  0  0  0  0  0  0  0  0  0  0  0
   57.9427   33.5385   48.4457 H   0  0  0  0  0  0  0  0  0  0  0  0
   57.9234   35.1146   46.5111 H   0  0  0  0  0  0  0  0  0  0  0  0
   60.0179   35.5304   45.2141 H   0  0  0  0  0  0  0  0  0  0  0  0
   62.1399   34.3934   45.8709 H   0  0  0  0  0  0  0  0  0  0  0  0
   62.1747   32.8406   47.8265 H   0  0  0  0  0  0  0  0  0  0  0  0
   61.2902   27.4154   48.1600 H   0  0  0  0  0  0  0  0  0  0  0  0
   60.2735   25.4767   46.9672 H   0  0  0  0  0  0  0  0  0  0  0  0
   58.2905   25.8094   45.4952 H   0  0  0  0  0  0  0  0  0  0  0  0
   56.4589   29.7676   42.0596 H   0  0  0  0  0  0  0  0  0  0  0  0
   57.4577   31.7269   40.8888 H   0  0  0  0  0  0  0  0  0  0  0  0
   58.5184   33.5644   42.2016 H   0  0  0  0  0  0  0  0  0  0  0  0
   58.6077   33.4299   44.6911 H   0  0  0  0  0  0  0  0  0  0  0  0
   58.2897   30.0310   46.4498 H   0  0  0  0  0  0  0  0  0  0  0  0
  1  2  2  0
  2  3  1  0
  3  4  1  0
  4  5  1  0
  5  6  2  0
  6  7  1  0
  7  8  2  0
  8  9  1  0
  9 10  2  0
  2 11  1  0
 11 12  2  0
 12 13  1  0
 13 14  2  0
 14 15  1  0
 15 16  1  0
 16 17  1  0
 17 18  2  0
 17 19  1  0
 19 20  2  0
 20 21  1  0
 21 22  2  0
 22 23  1  0
 23 24  2  0
 24 25  1  0
 15 26  2  0
 10  5  1  0
 26 11  1  0
 24 19  1  0
  3 27  1  0
  4 28  1  0
  4 29  1  0
  6 30  1  0
  7 31  1  0
  8 32  1  0
  9 33  1  0
 10 34  1  0
 12 35  1  0
 13 36  1  0
 14 37  1  0
 20 38  1  0
 21 39  1  0
 22 40  1  0
 23 41  1  0
 26 42  1  0
M  CHG  1  16  -1
M  END
>  <UniqueID>  (33) 
27

>  <SMILES>  (33) 
O=C(NCc1ccccc1)c1cccc([N-]C(=O)c2ccccc2F)c1

>  <Energy>  (33) 
50.01099793330192

>  <Genealogy>  (33) 
O=C(NCc1ccccc1)c1cccc([N-]C(=O)c2ccccc2F)c1 (protonated)
O=C(NCc1ccccc1)c1cccc([N-]C(=O)c2ccccc2F)c1 (3D coordinates assigned)
O=C(NCc1ccccc1)c1cccc([N-]C(=O)c2ccccc2F)c1 (optimized conformer: 50.01099793330192 kcal/mol)

>  <smiles>  (33) 
O=C(NCc1ccccc1)c1cccc(NC(=O)c2ccccc2F)c1

>  <score_type>  (33) 
oracle

>  <origin>  (33) 
adg

>  <m_score__min__energy>  (33) 
-11.58

>  <m_primary>  (33) 
energy

$$$$
33:0
     RDKit          3D

 44 46  0  0  0  0  0  0  0  0999 V2000
   65.2010   33.0950   49.3610 C   0  0  0  0  0  0  0  0  0  0  0  0
   63.9490   32.3430   49.5070 N   0  0  0  0  0  0  0  0  0  0  0  0
   63.8700   31.2860   50.5230 C   0  0  0  0  0  0  0  0  0  0  0  0
   62.8060   32.6410   48.6600 C   0  0  0  0  0  0  0  0  0  0  0  0
   62.9730   33.2090   47.3820 C   0  0  0  0  0  0  0  0  0  0  0  0
   61.8680   33.4910   46.5780 C   0  0  0  0  0  0  0  0  0  0  0  0
   60.5740   33.1850   47.0350 C   0  0  0  0  0  0  0  0  0  0  0  0
   59.3210   33.5310   46.2230 C   0  0  0  0  0  0  0  0  0  0  0  0
   59.6790   34.1840   44.8630 C   0  0  0  0  0  0  0  0  0  0  0  0
   58.5140   34.5580   47.0480 C   0  0  0  0  0  0  0  0  0  0  0  0
   58.5130   32.2480   45.9270 C   0  0  0  0  0  0  0  0  0  0  0  0
   58.8120   31.1160   46.5990 C   0  0  0  0  0  0  0  0  0  0  0  0
   58.1150   29.8490   46.3330 C   0  0  0  0  0  0  0  0  0  0  0  0
   58.4840   28.6640   46.9860 C   0  0  0  0  0  0  0  0  0  0  0  0
   57.7750   27.4830   46.7430 C   0  0  0  0  0  0  0  0  0  0  0  0
   56.6910   27.4860   45.8570 C   0  0  0  0  0  0  0  0  0  0  0  0
   55.9830   26.3130   45.6210 O   0  0  0  0  0  0  0  0  0  0  0  0
   56.3200   28.6690   45.2100 C   0  0  0  0  0  0  0  0  0  0  0  0
   57.0370   29.8470   45.4430 C   0  0  0  0  0  0  0  0  0  0  0  0
   56.6680   31.0340   44.8120 O   0  0  0  0  0  0  0  0  0  0  0  0
   57.5100   32.1900   44.7770 C   0  0  0  0  0  0  0  0  0  0  0  0
   60.4340   32.6670   48.2880 N   0  0  0  0  0  0  0  0  0  0  0  0
   61.4910   32.3840   49.0910 C   0  0  0  0  0  0  0  0  0  0  0  0
   65.6022   33.3360   50.3565 H   0  0  0  0  0  0  0  0  0  0  0  0
   65.9320   32.4864   48.8086 H   0  0  0  0  0  0  0  0  0  0  0  0
   65.0071   34.0262   48.8086 H   0  0  0  0  0  0  0  0  0  0  0  0
   63.9038   31.7377   51.5254 H   0  0  0  0  0  0  0  0  0  0  0  0
   62.9279   30.7311   50.4024 H   0  0  0  0  0  0  0  0  0  0  0  0
   64.7192   30.5973   50.4024 H   0  0  0  0  0  0  0  0  0  0  0  0
   63.9852   33.4326   47.0139 H   0  0  0  0  0  0  0  0  0  0  0  0
   62.0089   33.9516   45.5891 H   0  0  0  0  0  0  0  0  0  0  0  0
   60.2010   35.1361   45.0395 H   0  0  0  0  0  0  0  0  0  0  0  0
   60.3326   33.5078   44.2923 H   0  0  0  0  0  0  0  0  0  0  0  0
   58.7575   34.3714   44.2923 H   0  0  0  0  0  0  0  0  0  0  0  0
   58.6647   34.3663   48.1206 H   0  0  0  0  0  0  0  0  0  0  0  0
   58.8576   35.5744   46.8054 H   0  0  0  0  0  0  0  0  0  0  0  0
   57.4452   34.4646   46.8054 H   0  0  0  0  0  0  0  0  0  0  0  0
   59.5991   31.1422   47.3670 H   0  0  0  0  0  0  0  0  0  0  0  0
   59.3303   28.6633   47.6887 H   0  0  0  0  0  0  0  0  0  0  0  0
   58.0693   26.5513   47.2483 H   0  0  0  0  0  0  0  0  0  0  0  0
   55.4648   28.6730   44.5182 H   0  0  0  0  0  0  0  0  0  0  0  0
   58.0674   32.1862   43.8287 H   0  0  0  0  0  0  0  0  0  0  0  0
   56.8563   33.0695   44.8731 H   0  0  0  0  0  0  0  0  0  0  0  0
   61.3185   31.9501   50.0870 H   0  0  0  0  0  0  0  0  0  0  0  0
  1  2  1  0
  2  3  1  0
  2  4  1  0
  4  5  2  0
  5  6  1  0
  6  7  2  0
  7  8  1  0
  8  9  1  0
  8 10  1  0
  8 11  1  0
 11 12  2  0
 12 13  1  0
 13 14  2  0
 14 15  1  0
 15 16  2  0
 16 17  1  0
 16 18  1  0
 18 19  2  0
 19 20  1  0
 20 21  1  0
  7 22  1  0
 22 23  2  0
 23  4  1  0
 21 11  1  0
 19 13  1  0
  1 24  1  0
  1 25  1  0
  1 26  1  0
  3 27  1  0
  3 28  1  0
  3 29  1  0
  5 30  1  0
  6 31  1  0
  9 32  1  0
  9 33  1  0
  9 34  1  0
 10 35  1  0
 10 36  1  0
 10 37  1  0
 12 38  1  0
 14 39  1  0
 15 40  1  0
 18 41  1  0
 21 42  1  0
 21 43  1  0
 23 44  1  0
M  CHG  1  17  -1
M  END
>  <UniqueID>  (34) 
28

>  <SMILES>  (34) 
CN(C)c1ccc(C(C)(C)C2=Cc3ccc([O-])cc3OC2)nc1

>  <Energy>  (34) 
54.874729649948655

>  <Genealogy>  (34) 
CN(C)c1ccc(C(C)(C)C2=Cc3ccc([O-])cc3OC2)nc1 (protonated)
CN(C)c1ccc(C(C)(C)C2=Cc3ccc([O-])cc3OC2)nc1 (3D coordinates assigned)
CN(C)c1ccc(C(C)(C)C2=Cc3ccc([O-])cc3OC2)nc1 (nonaromatic ring conformer: 54.874729649948655 kcal/mol)

>  <smiles>  (34) 
CN(C)c1ccc(C(C)(C)C2=Cc3ccc(O)cc3OC2)nc1

>  <score_type>  (34) 
oracle

>  <origin>  (34) 
adg

>  <m_score__min__energy>  (34) 
-9.1899999999999995

>  <m_primary>  (34) 
energy

$$$$
34:0
     RDKit          3D

 37 40  0  0  0  0  0  0  0  0999 V2000
   57.5430   25.6440   44.7750 C   0  0  0  0  0  0  0  0  0  0  0  0
   56.3450   26.2520   46.0010 S   0  0  0  0  0  0  0  0  0  0  0  0
   57.4770   27.4750   46.6630 C   0  0  0  0  0  0  0  0  0  0  0  0
   58.3310   27.2420   47.6900 N   0  0  0  0  0  0  0  0  0  0  0  0
   59.0060   28.3650   47.9310 N   0  0  0  0  0  0  0  0  0  0  0  0
   59.9860   28.4980   48.9760 C   0  0  0  0  0  0  0  0  0  0  0  0
   60.4140   27.3830   49.7230 C   0  0  0  0  0  0  0  0  0  0  0  0
   61.3630   27.5350   50.7400 C   0  0  0  0  0  0  0  0  0  0  0  0
   61.8870   28.7970   51.0270 C   0  0  0  0  0  0  0  0  0  0  0  0
   61.4590   29.9120   50.3020 C   0  0  0  0  0  0  0  0  0  0  0  0
   60.5110   29.7660   49.2860 C   0  0  0  0  0  0  0  0  0  0  0  0
   58.5730   29.3030   47.0640 C   0  0  0  0  0  0  0  0  0  0  0  0
   58.9370   30.6070   47.0040 N   0  0  0  0  0  0  0  0  0  0  0  0
   58.3400   31.4120   46.0710 C   0  0  0  0  0  0  0  0  0  0  0  0
   58.7370   32.8320   45.9810 C   0  0  0  0  0  0  0  0  0  0  0  0
   58.7260   33.7170   44.5480 S   0  0  0  0  0  0  0  0  0  0  0  0
   59.2690   35.1660   45.1970 C   0  0  0  0  0  0  0  0  0  0  0  0
   59.4690   34.9800   46.5580 C   0  0  0  0  0  0  0  0  0  0  0  0
   59.1750   33.6810   47.0060 C   0  0  0  0  0  0  0  0  0  0  0  0
   59.3280   33.2810   48.4430 C   0  0  0  0  0  0  0  0  0  0  0  0
   57.3800   30.8960   45.2350 N   0  0  0  0  0  0  0  0  0  0  0  0
   56.9960   29.5880   45.3080 C   0  0  0  0  0  0  0  0  0  0  0  0
   56.1040   29.1390   44.5410 O   0  0  0  0  0  0  0  0  0  0  0  0
   57.6170   28.7830   46.2540 C   0  0  0  0  0  0  0  0  0  0  0  0
   58.4079   25.2050   45.2939 H   0  0  0  0  0  0  0  0  0  0  0  0
   57.0664   24.8787   44.1448 H   0  0  0  0  0  0  0  0  0  0  0  0
   57.8793   26.4805   44.1448 H   0  0  0  0  0  0  0  0  0  0  0  0
   59.9999   26.3874   49.5056 H   0  0  0  0  0  0  0  0  0  0  0  0
   61.6969   26.6584   51.3146 H   0  0  0  0  0  0  0  0  0  0  0  0
   62.6365   28.9133   51.8237 H   0  0  0  0  0  0  0  0  0  0  0  0
   61.8691   30.9066   50.5315 H   0  0  0  0  0  0  0  0  0  0  0  0
   60.1726   30.6491   48.7242 H   0  0  0  0  0  0  0  0  0  0  0  0
   59.4371   36.1002   44.6410 H   0  0  0  0  0  0  0  0  0  0  0  0
   59.8257   35.7779   47.2259 H   0  0  0  0  0  0  0  0  0  0  0  0
   59.0103   34.1115   49.0906 H   0  0  0  0  0  0  0  0  0  0  0  0
   58.7041   32.3982   48.6463 H   0  0  0  0  0  0  0  0  0  0  0  0
   60.3818   33.0399   48.6463 H   0  0  0  0  0  0  0  0  0  0  0  0
  1  2  1  0
  2  3  1  0
  3  4  2  0
  4  5  1  0
  5  6  1  0
  6  7  2  0
  7  8  1  0
  8  9  2  0
  9 10  1  0
 10 11  2  0
  5 12  1  0
 12 13  1  0
 13 14  1  0
 14 15  1  0
 15 16  1  0
 16 17  1  0
 17 18  2  0
 18 19  1  0
 19 20  1  0
 14 21  2  0
 21 22  1  0
 22 23  2  0
 22 24  1  0
 24  3  1  0
 11  6  1  0
 24 12  2  0
 19 15  2  0
  1 25  1  0
  1 26  1  0
  1 27  1  0
  7 28  1  0
  8 29  1  0
  9 30  1  0
 10 31  1  0
 11 32  1  0
 17 33  1  0
 18 34  1  0
 20 35  1  0
 20 36  1  0
 20 37  1  0
M  CHG  1  13  -1
M  END
>  <UniqueID>  (35) 
29

>  <SMILES>  (35) 
CSc1nn(-c2ccccc2)c2[n-]c(-c3sccc3C)nc(=O)c12

>  <Energy>  (35) 
110.23510525432816

>  <Genealogy>  (35) 
CSc1nn(-c2ccccc2)c2[n-]c(-c3sccc3C)nc(=O)c12 (protonated)
CSc1nn(-c2ccccc2)c2[n-]c(-c3sccc3C)nc(=O)c12 (3D coordinates assigned)
CSc1nn(-c2ccccc2)c2[n-]c(-c3sccc3C)nc(=O)c12 (optimized conformer: 110.23510525432816 kcal/mol)

>  <smiles>  (35) 
CSc1nn(-c2ccccc2)c2[nH]c(-c3sccc3C)nc(=O)c12

>  <score_type>  (35) 
oracle

>  <origin>  (35) 
adg

>  <m_score__min__energy>  (35) 
-8.4100000000000001

>  <m_primary>  (35) 
energy

$$$$
35:0
     RDKit          3D

 58 61  0  0  0  0  0  0  0  0999 V2000
   58.4070   28.2970   43.5640 O   0  0  0  0  0  0  0  0  0  0  0  0
   57.4730   29.2120   44.3040 S   0  0  0  0  0  0  0  0  0  0  0  0
   56.5970   29.8910   43.2890 O   0  0  0  0  0  0  0  0  0  0  0  0
   56.4670   28.3180   45.3960 N   0  0  0  0  0  0  0  0  0  0  0  0
   56.8470   27.0220   45.8730 C   0  0  0  0  0  0  0  0  0  0  0  0
   58.2020   26.7030   46.0640 C   0  0  0  0  0  0  0  0  0  0  0  0
   58.5680   25.4350   46.5270 C   0  0  0  0  0  0  0  0  0  0  0  0
   57.5870   24.4770   46.7930 C   0  0  0  0  0  0  0  0  0  0  0  0
   56.2380   24.7820   46.5910 C   0  0  0  0  0  0  0  0  0  0  0  0
   55.8660   26.0490   46.1280 C   0  0  0  0  0  0  0  0  0  0  0  0
   54.5200   26.3400   45.9390 O   0  0  0  0  0  0  0  0  0  0  0  0
   58.3780   30.4280   45.2160 C   0  0  0  0  0  0  0  0  0  0  0  0
   57.7190   31.6020   45.6140 C   0  0  0  0  0  0  0  0  0  0  0  0
   58.3840   32.5690   46.3700 C   0  0  0  0  0  0  0  0  0  0  0  0
   59.7150   32.3740   46.7520 C   0  0  0  0  0  0  0  0  0  0  0  0
   60.5480   33.5860   47.7300 S   0  0  0  0  0  0  0  0  0  0  0  0
   59.6140   34.7390   47.9770 O   0  0  0  0  0  0  0  0  0  0  0  0
   61.7210   34.1150   46.9530 O   0  0  0  0  0  0  0  0  0  0  0  0
   61.0980   32.9290   49.2650 N   0  0  0  0  0  0  0  0  0  0  0  0
   61.6510   33.9990   50.1220 C   0  0  0  0  0  0  0  0  0  0  0  0
   63.1290   33.8060   50.3400 C   0  0  0  0  0  0  0  0  0  0  0  0
   63.7790   34.4300   51.4180 C   0  0  0  0  0  0  0  0  0  0  0  0
   65.1490   34.2390   51.6210 C   0  0  0  0  0  0  0  0  0  0  0  0
   65.8770   33.4160   50.7580 C   0  0  0  0  0  0  0  0  0  0  0  0
   65.2350   32.7780   49.6930 C   0  0  0  0  0  0  0  0  0  0  0  0
   63.8650   32.9660   49.4870 C   0  0  0  0  0  0  0  0  0  0  0  0
   59.9990   32.2290   49.9600 C   0  0  0  0  0  0  0  0  0  0  0  0
   60.0110   30.7540   49.6540 C   0  0  0  0  0  0  0  0  0  0  0  0
   58.9300   30.1620   48.9770 C   0  0  0  0  0  0  0  0  0  0  0  0
   58.9460   28.7960   48.6820 C   0  0  0  0  0  0  0  0  0  0  0  0
   60.0440   28.0120   49.0480 C   0  0  0  0  0  0  0  0  0  0  0  0
   60.0570   26.6870   48.7610 F   0  0  0  0  0  0  0  0  0  0  0  0
   61.1310   28.5970   49.7040 C   0  0  0  0  0  0  0  0  0  0  0  0
   61.1190   29.9630   50.0010 C   0  0  0  0  0  0  0  0  0  0  0  0
   60.3830   31.2120   46.3520 C   0  0  0  0  0  0  0  0  0  0  0  0
   59.7250   30.2330   45.5970 C   0  0  0  0  0  0  0  0  0  0  0  0
   60.6290   28.7860   45.1710 Cl  0  0  0  0  0  0  0  0  0  0  0  0
   55.7770   28.8710   45.9520 H   0  0  0  0  0  0  0  0  0  0  0  0
   58.9774   27.4529   45.8487 H   0  0  0  0  0  0  0  0  0  0  0  0
   59.6296   25.1919   46.6818 H   0  0  0  0  0  0  0  0  0  0  0  0
   57.8763   23.4818   47.1617 H   0  0  0  0  0  0  0  0  0  0  0  0
   55.4672   24.0245   46.7964 H   0  0  0  0  0  0  0  0  0  0  0  0
   56.6690   31.7614   45.3275 H   0  0  0  0  0  0  0  0  0  0  0  0
   57.8585   33.4887   46.6666 H   0  0  0  0  0  0  0  0  0  0  0  0
   61.4829   34.9717   49.6366 H   0  0  0  0  0  0  0  0  0  0  0  0
   61.1450   33.9630   51.0981 H   0  0  0  0  0  0  0  0  0  0  0  0
   63.2076   35.0715   52.1051 H   0  0  0  0  0  0  0  0  0  0  0  0
   65.6545   34.7374   52.4613 H   0  0  0  0  0  0  0  0  0  0  0  0
   66.9557   33.2701   50.9168 H   0  0  0  0  0  0  0  0  0  0  0  0
   65.8082   32.1273   49.0162 H   0  0  0  0  0  0  0  0  0  0  0  0
   63.3611   32.4543   48.6538 H   0  0  0  0  0  0  0  0  0  0  0  0
   60.1128   32.3710   51.0448 H   0  0  0  0  0  0  0  0  0  0  0  0
   59.0439   32.6487   49.6112 H   0  0  0  0  0  0  0  0  0  0  0  0
   58.0681   30.7767   48.6783 H   0  0  0  0  0  0  0  0  0  0  0  0
   58.0930   28.3369   48.1608 H   0  0  0  0  0  0  0  0  0  0  0  0
   61.9975   27.9813   49.9871 H   0  0  0  0  0  0  0  0  0  0  0  0
   61.9809   30.4206   50.5087 H   0  0  0  0  0  0  0  0  0  0  0  0
   61.4363   31.0656   46.6334 H   0  0  0  0  0  0  0  0  0  0  0  0
  1  2  2  0
  2  3  2  0
  2  4  1  0
  4  5  1  0
  5  6  2  0
  6  7  1  0
  7  8  2  0
  8  9  1  0
  9 10  2  0
 10 11  1  0
  2 12  1  0
 12 13  2  0
 13 14  1  0
 14 15  2  0
 15 16  1  0
 16 17  2  0
 16 18  2  0
 16 19  1  0
 19 20  1  0
 20 21  1  0
 21 22  2  0
 22 23  1  0
 23 24  2  0
 24 25  1  0
 25 26  2  0
 19 27  1  0
 27 28  1  0
 28 29  2  0
 29 30  1  0
 30 31  2  0
 31 32  1  0
 31 33  1  0
 33 34  2  0
 15 35  1  0
 35 36  2  0
 36 37  1  0
 10  5  1  0
 36 12  1  0
 26 21  1  0
 34 28  1  0
  4 38  1  0
  6 39  1  0
  7 40  1  0
  8 41  1  0
  9 42  1  0
 13 43  1  0
 14 44  1  0
 20 45  1  0
 20 46  1  0
 22 47  1  0
 23 48  1  0
 24 49  1  0
 25 50  1  0
 26 51  1  0
 27 52  1  0
 27 53  1  0
 29 54  1  0
 30 55  1  0
 33 56  1  0
 34 57  1  0
 35 58  1  0
M  CHG  1  11  -1
M  END
>  <UniqueID>  (36) 
30

>  <SMILES>  (36) 
O=S(=O)(Nc1ccccc1[O-])c1ccc(S(=O)(=O)N(Cc2ccccc2)Cc2ccc(F)cc2)cc1Cl

>  <Energy>  (36) 
69.7627431722325

>  <Genealogy>  (36) 
O=S(=O)(Nc1ccccc1[O-])c1ccc(S(=O)(=O)N(Cc2ccccc2)Cc2ccc(F)cc2)cc1Cl (protonated)
O=S(=O)(Nc1ccccc1[O-])c1ccc(S(=O)(=O)N(Cc2ccccc2)Cc2ccc(F)cc2)cc1Cl (3D coordinates assigned)
O=S(=O)(Nc1ccccc1[O-])c1ccc(S(=O)(=O)N(Cc2ccccc2)Cc2ccc(F)cc2)cc1Cl (optimized conformer: 69.7627431722325 kcal/mol)

>  <smiles>  (36) 
O=S(=O)(Nc1ccccc1O)c1ccc(S(=O)(=O)N(Cc2ccccc2)Cc2ccc(F)cc2)cc1Cl

>  <score_type>  (36) 
oracle

>  <origin>  (36) 
adg

>  <m_score__min__energy>  (36) 
-14.359999999999999

>  <m_primary>  (36) 
energy

$$$$
36:0
     RDKit          3D

 38 40  0  0  0  0  0  0  0  0999 V2000
   55.1570   29.3410   44.6690 N   0  0  0  0  0  0  0  0  0  0  0  0
   56.4690   29.7060   43.6050 S   0  0  0  0  0  0  0  0  0  0  0  0
   57.3700   28.5090   43.4890 O   0  0  0  0  0  0  0  0  0  0  0  0
   55.9170   30.0360   42.2450 O   0  0  0  0  0  0  0  0  0  0  0  0
   57.3870   31.0700   44.2450 C   0  0  0  0  0  0  0  0  0  0  0  0
   57.6840   32.1660   43.4230 C   0  0  0  0  0  0  0  0  0  0  0  0
   58.4070   33.2500   43.9240 C   0  0  0  0  0  0  0  0  0  0  0  0
   58.8640   33.2420   45.2510 C   0  0  0  0  0  0  0  0  0  0  0  0
   59.6100   34.3400   45.7980 N   0  0  0  0  0  0  0  0  0  0  0  0
   60.0110   34.4920   47.1660 C   0  0  0  0  0  0  0  0  0  0  0  0
   59.1820   34.9660   47.9880 O   0  0  0  0  0  0  0  0  0  0  0  0
   61.3460   34.0610   47.6470 C   0  0  0  0  0  0  0  0  0  0  0  0
   62.2930   33.5110   46.7670 C   0  0  0  0  0  0  0  0  0  0  0  0
   63.5410   33.1070   47.2450 C   0  0  0  0  0  0  0  0  0  0  0  0
   63.8320   33.2450   48.6040 C   0  0  0  0  0  0  0  0  0  0  0  0
   64.9530   32.8880   49.0500 O   0  0  0  0  0  0  0  0  0  0  0  0
   62.9020   33.7670   49.4480 N   0  0  0  0  0  0  0  0  0  0  0  0
   61.6790   34.1670   49.0070 C   0  0  0  0  0  0  0  0  0  0  0  0
   58.5470   32.1610   46.0800 C   0  0  0  0  0  0  0  0  0  0  0  0
   57.8030   31.0730   45.5880 C   0  0  0  0  0  0  0  0  0  0  0  0
   57.5080   29.9680   46.4010 O   0  0  0  0  0  0  0  0  0  0  0  0
   58.2290   28.7650   46.4320 C   0  0  0  0  0  0  0  0  0  0  0  0
   57.5320   27.5560   46.3620 C   0  0  0  0  0  0  0  0  0  0  0  0
   58.2260   26.3450   46.4070 C   0  0  0  0  0  0  0  0  0  0  0  0
   59.6160   26.3570   46.5360 C   0  0  0  0  0  0  0  0  0  0  0  0
   60.2800   27.5390   46.6250 N   0  0  0  0  0  0  0  0  0  0  0  0
   59.6270   28.7320   46.5800 C   0  0  0  0  0  0  0  0  0  0  0  0
   55.5540   29.2920   45.6340 H   0  0  0  0  0  0  0  0  0  0  0  0
   57.3452   32.1719   42.3765 H   0  0  0  0  0  0  0  0  0  0  0  0
   58.6193   34.1135   43.2764 H   0  0  0  0  0  0  0  0  0  0  0  0
   62.0509   33.3985   45.6999 H   0  0  0  0  0  0  0  0  0  0  0  0
   64.2882   32.6839   46.5575 H   0  0  0  0  0  0  0  0  0  0  0  0
   60.9471   34.5756   49.7194 H   0  0  0  0  0  0  0  0  0  0  0  0
   58.8829   32.1615   47.1275 H   0  0  0  0  0  0  0  0  0  0  0  0
   56.4357   27.5581   46.2714 H   0  0  0  0  0  0  0  0  0  0  0  0
   57.6826   25.3908   46.3414 H   0  0  0  0  0  0  0  0  0  0  0  0
   60.1737   25.4093   46.5656 H   0  0  0  0  0  0  0  0  0  0  0  0
   60.1934   29.6716   46.6595 H   0  0  0  0  0  0  0  0  0  0  0  0
  1  2  1  0
  2  3  2  0
  2  4  2  0
  2  5  1  0
  5  6  2  0
  6  7  1  0
  7  8  2  0
  8  9  1  0
  9 10  1  0
 10 11  2  0
 10 12  1  0
 12 13  1  0
 13 14  2  0
 14 15  1  0
 15 16  2  0
 15 17  1  0
 17 18  1  0
  8 19  1  0
 19 20  2  0
 20 21  1  0
 21 22  1  0
 22 23  2  0
 23 24  1  0
 24 25  2  0
 25 26  1  0
 26 27  2  0
 20  5  1  0
 27 22  1  0
 18 12  2  0
  1 28  1  0
  6 29  1  0
  7 30  1  0
 13 31  1  0
 14 32  1  0
 18 33  1  0
 19 34  1  0
 23 35  1  0
 24 36  1  0
 25 37  1  0
 27 38  1  0
M  CHG  3   1  -1   9  -1  17  -1
M  END
>  <UniqueID>  (37) 
31

>  <SMILES>  (37) 
[NH-]S(=O)(=O)c1ccc([N-]C(=O)c2ccc(=O)[n-]c2)cc1Oc1cccnc1

>  <Energy>  (37) 
56.11577667645422

>  <Genealogy>  (37) 
[NH-]S(=O)(=O)c1ccc([N-]C(=O)c2ccc(=O)[n-]c2)cc1Oc1cccnc1 (protonated)
[NH-]S(=O)(=O)c1ccc([N-]C(=O)c2ccc(=O)[n-]c2)cc1Oc1cccnc1 (3D coordinates assigned)
[NH-]S(=O)(=O)c1ccc([N-]C(=O)c2ccc(=O)[n-]c2)cc1Oc1cccnc1 (optimized conformer: 56.11577667645422 kcal/mol)

>  <smiles>  (37) 
NS(=O)(=O)c1ccc(NC(=O)c2ccc(=O)[nH]c2)cc1Oc1cccnc1

>  <score_type>  (37) 
oracle

>  <origin>  (37) 
adg

>  <m_score__min__energy>  (37) 
-12.359999999999999

>  <m_primary>  (37) 
energy

$$$$
37:0
     RDKit          3D

 40 40  0  0  0  0  0  0  0  0999 V2000
   57.9610   32.1710   42.5040 C   0  0  0  0  0  0  0  0  0  0  0  0
   56.9260   31.1970   43.0570 C   0  0  0  0  0  0  0  0  0  0  0  0
   57.5640   29.9760   43.5470 N   0  0  0  0  0  0  0  0  0  0  0  0
   56.9020   29.1070   44.4740 C   0  0  0  0  0  0  0  0  0  0  0  0
   55.7450   29.3870   44.8920 O   0  0  0  0  0  0  0  0  0  0  0  0
   57.5550   27.8320   44.9180 C   0  0  0  0  0  0  0  0  0  0  0  0
   58.2410   28.0300   46.2720 C   0  0  0  0  0  0  0  0  0  0  0  0
   59.2230   29.5260   46.2950 S   0  0  0  0  0  0  0  0  0  0  0  0
   60.3360   29.3860   47.2960 O   0  0  0  0  0  0  0  0  0  0  0  0
   59.8260   29.7250   44.9330 O   0  0  0  0  0  0  0  0  0  0  0  0
   58.2360   30.9570   46.7290 C   0  0  0  0  0  0  0  0  0  0  0  0
   59.0260   32.2400   46.5810 C   0  0  0  0  0  0  0  0  0  0  0  0
   60.3720   32.2430   46.9870 C   0  0  0  0  0  0  0  0  0  0  0  0
   61.1680   33.3880   46.8490 C   0  0  0  0  0  0  0  0  0  0  0  0
   62.5930   33.3780   47.3160 C   0  0  0  0  0  0  0  0  0  0  0  0
   60.6010   34.5610   46.3390 C   0  0  0  0  0  0  0  0  0  0  0  0
   59.2630   34.5820   45.9460 C   0  0  0  0  0  0  0  0  0  0  0  0
   58.4620   33.4320   46.0550 C   0  0  0  0  0  0  0  0  0  0  0  0
   57.0110   33.5240   45.6650 C   0  0  0  0  0  0  0  0  0  0  0  0
   58.4837   32.6629   43.3376 H   0  0  0  0  0  0  0  0  0  0  0  0
   58.6884   31.6223   41.8878 H   0  0  0  0  0  0  0  0  0  0  0  0
   57.4574   32.9304   41.8878 H   0  0  0  0  0  0  0  0  0  0  0  0
   56.3861   31.6782   43.8859 H   0  0  0  0  0  0  0  0  0  0  0  0
   56.2306   30.9284   42.2482 H   0  0  0  0  0  0  0  0  0  0  0  0
   58.5220   29.7220   43.2160 H   0  0  0  0  0  0  0  0  0  0  0  0
   56.7911   27.0459   45.0098 H   0  0  0  0  0  0  0  0  0  0  0  0
   58.3101   27.5387   44.1738 H   0  0  0  0  0  0  0  0  0  0  0  0
   57.4725   28.0944   47.0564 H   0  0  0  0  0  0  0  0  0  0  0  0
   58.9096   27.1747   46.4493 H   0  0  0  0  0  0  0  0  0  0  0  0
   57.3577   30.9995   46.0681 H   0  0  0  0  0  0  0  0  0  0  0  0
   57.9294   30.8593   47.7809 H   0  0  0  0  0  0  0  0  0  0  0  0
   60.8078   31.3308   47.4205 H   0  0  0  0  0  0  0  0  0  0  0  0
   62.6185   33.3778   48.4157 H   0  0  0  0  0  0  0  0  0  0  0  0
   63.0966   32.4763   46.9374 H   0  0  0  0  0  0  0  0  0  0  0  0
   63.1092   34.2725   46.9374 H   0  0  0  0  0  0  0  0  0  0  0  0
   61.2130   35.4704   46.2476 H   0  0  0  0  0  0  0  0  0  0  0  0
   58.8291   35.5101   45.5457 H   0  0  0  0  0  0  0  0  0  0  0  0
   56.3894   33.5634   46.5717 H   0  0  0  0  0  0  0  0  0  0  0  0
   56.8485   34.4343   45.0692 H   0  0  0  0  0  0  0  0  0  0  0  0
   56.7348   32.6416   45.0692 H   0  0  0  0  0  0  0  0  0  0  0  0
  1  2  1  0
  2  3  1  0
  3  4  1  0
  4  5  2  0
  4  6  1  0
  6  7  1  0
  7  8  1  0
  8  9  2  0
  8 10  2  0
  8 11  1  0
 11 12  1  0
 12 13  2  0
 13 14  1  0
 14 15  1  0
 14 16  2  0
 16 17  1  0
 17 18  2  0
 18 19  1  0
 18 12  1  0
  1 20  1  0
  1 21  1  0
  1 22  1  0
  2 23  1  0
  2 24  1  0
  3 25  1  0
  6 26  1  0
  6 27  1  0
  7 28  1  0
  7 29  1  0
 11 30  1  0
 11 31  1  0
 13 32  1  0
 15 33  1  0
 15 34  1  0
 15 35  1  0
 16 36  1  0
 17 37  1  0
 19 38  1  0
 19 39  1  0
 19 40  1  0
M  END
>  <UniqueID>  (38) 
32

>  <SMILES>  (38) 
CCNC(=O)CCS(=O)(=O)Cc1cc(C)ccc1C

>  <Energy>  (38) 
21.36803395013003

>  <Genealogy>  (38) 
CCNC(=O)CCS(=O)(=O)Cc1cc(C)ccc1C (3D coordinates assigned)
CCNC(=O)CCS(=O)(=O)Cc1cc(C)ccc1C (optimized conformer: 21.36803395013003 kcal/mol)

>  <smiles>  (38) 
CCNC(=O)CCS(=O)(=O)Cc1cc(C)ccc1C

>  <score_type>  (38) 
oracle

>  <origin>  (38) 
adg

>  <m_score__min__energy>  (38) 
-7.1299999999999999

>  <m_primary>  (38) 
energy

$$$$
38:0
     RDKit          3D

 36 38  0  0  0  0  0  0  0  0999 V2000
   61.3430   30.7930   47.4660 C   0  0  0  0  0  0  0  0  0  0  0  0
   60.7400   29.6380   46.7390 C   0  0  0  0  0  0  0  0  0  0  0  0
   59.9290   28.6700   47.2910 C   0  0  0  0  0  0  0  0  0  0  0  0
   59.7060   27.8030   46.2400 C   0  0  0  0  0  0  0  0  0  0  0  0
   58.8630   26.5640   46.2580 C   0  0  0  0  0  0  0  0  0  0  0  0
   57.4140   26.8840   46.0110 C   0  0  0  0  0  0  0  0  0  0  0  0
   56.8300   27.9200   45.2860 C   0  0  0  0  0  0  0  0  0  0  0  0
   57.4800   29.0890   44.5880 C   0  0  0  0  0  0  0  0  0  0  0  0
   56.7680   29.4370   43.2620 C   0  0  0  0  0  0  0  0  0  0  0  0
   56.9830   30.9090   42.8570 C   0  0  0  0  0  0  0  0  0  0  0  0
   58.2960   31.3990   43.3070 N   0  0  0  0  0  0  0  0  0  0  0  0
   58.4090   31.4430   44.7820 C   0  0  0  0  0  0  0  0  0  0  0  0
   57.6190   30.3220   45.4930 C   0  0  0  0  0  0  0  0  0  0  0  0
   55.5220   27.7550   45.3170 O   0  0  0  0  0  0  0  0  0  0  0  0
   55.1830   26.6970   45.9950 N   0  0  0  0  0  0  0  0  0  0  0  0
   56.3270   26.1460   46.4300 C   0  0  0  0  0  0  0  0  0  0  0  0
   56.3750   25.0980   47.1260 O   0  0  0  0  0  0  0  0  0  0  0  0
   60.3440   28.2480   45.1810 O   0  0  0  0  0  0  0  0  0  0  0  0
   60.9860   29.3480   45.4470 N   0  0  0  0  0  0  0  0  0  0  0  0
   61.2573   30.6289   48.5503 H   0  0  0  0  0  0  0  0  0  0  0  0
   62.4043   30.8852   47.1918 H   0  0  0  0  0  0  0  0  0  0  0  0
   60.8119   31.7165   47.1918 H   0  0  0  0  0  0  0  0  0  0  0  0
   59.5503   28.6040   48.3216 H   0  0  0  0  0  0  0  0  0  0  0  0
   59.2171   25.8785   45.4740 H   0  0  0  0  0  0  0  0  0  0  0  0
   58.9511   26.0990   47.2510 H   0  0  0  0  0  0  0  0  0  0  0  0
   58.5021   28.7659   44.3411 H   0  0  0  0  0  0  0  0  0  0  0  0
   57.1637   28.7888   42.4662 H   0  0  0  0  0  0  0  0  0  0  0  0
   55.6889   29.2794   43.4056 H   0  0  0  0  0  0  0  0  0  0  0  0
   56.9254   30.9918   41.7616 H   0  0  0  0  0  0  0  0  0  0  0  0
   56.2017   31.5190   43.3339 H   0  0  0  0  0  0  0  0  0  0  0  0
   58.4420   32.3640   42.9280 H   0  0  0  0  0  0  0  0  0  0  0  0
   59.0480   30.7860   42.9140 H   0  0  0  0  0  0  0  0  0  0  0  0
   59.4707   31.3468   45.0531 H   0  0  0  0  0  0  0  0  0  0  0  0
   57.9801   32.4008   45.1115 H   0  0  0  0  0  0  0  0  0  0  0  0
   58.1498   30.0353   46.4128 H   0  0  0  0  0  0  0  0  0  0  0  0
   56.6130   30.6981   45.7306 H   0  0  0  0  0  0  0  0  0  0  0  0
  1  2  1  0
  2  3  1  0
  3  4  2  0
  4  5  1  0
  5  6  1  0
  6  7  2  0
  7  8  1  0
  8  9  1  0
  9 10  1  0
 10 11  1  0
 11 12  1  0
 12 13  1  0
  7 14  1  0
 14 15  1  0
 15 16  1  0
 16 17  2  0
  4 18  1  0
 18 19  1  0
 19  2  2  0
 16  6  1  0
 13  8  1  0
  1 20  1  0
  1 21  1  0
  1 22  1  0
  3 23  1  0
  5 24  1  0
  5 25  1  0
  8 26  1  0
  9 27  1  0
  9 28  1  0
 10 29  1  0
 10 30  1  0
 11 31  1  0
 11 32  1  0
 12 33  1  0
 12 34  1  0
 13 35  1  0
 13 36  1  0
M  CHG  2  11   1  15  -1
M  END
>  <UniqueID>  (39) 
33

>  <SMILES>  (39) 
Cc1cc(Cc2c(C3CC[NH2+]CC3)o[n-]c2=O)on1

>  <Energy>  (39) 
101.20587133324247

>  <Genealogy>  (39) 
Cc1cc(Cc2c(C3CC[NH2+]CC3)o[n-]c2=O)on1 (protonated)
Cc1cc(Cc2c(C3CC[NH2+]CC3)o[n-]c2=O)on1 (3D coordinates assigned)
Cc1cc(Cc2c(C3CC[NH2+]CC3)o[n-]c2=O)on1 (nonaromatic ring conformer: 101.20587133324247 kcal/mol)

>  <smiles>  (39) 
Cc1cc(Cc2c(C3CCNCC3)o[nH]c2=O)on1

>  <score_type>  (39) 
oracle

>  <origin>  (39) 
adg

>  <m_score__min__energy>  (39) 
-8.9900000000000002

>  <m_primary>  (39) 
energy

$$$$
39:0
     RDKit          3D

 59 63  0  0  0  0  0  0  0  0999 V2000
   54.2250   25.8620   45.9520 O   0  0  0  0  0  0  0  0  0  0  0  0
   54.9050   24.8750   45.5570 C   0  0  0  0  0  0  0  0  0  0  0  0
   56.3330   24.9630   45.4710 N   0  0  0  0  0  0  0  0  0  0  0  0
   57.1100   26.1540   45.2750 C   0  0  0  0  0  0  0  0  0  0  0  0
   57.7810   26.4220   44.0670 C   0  0  0  0  0  0  0  0  0  0  0  0
   58.5000   27.6110   43.9090 C   0  0  0  0  0  0  0  0  0  0  0  0
   58.5480   28.5560   44.9500 C   0  0  0  0  0  0  0  0  0  0  0  0
   59.2470   29.7660   44.8310 O   0  0  0  0  0  0  0  0  0  0  0  0
   58.7460   31.0080   45.2430 C   0  0  0  0  0  0  0  0  0  0  0  0
   58.1500   31.8410   44.2870 C   0  0  0  0  0  0  0  0  0  0  0  0
   57.6510   33.0940   44.6520 C   0  0  0  0  0  0  0  0  0  0  0  0
   57.7290   33.5230   45.9790 C   0  0  0  0  0  0  0  0  0  0  0  0
   58.3000   32.6940   46.9520 C   0  0  0  0  0  0  0  0  0  0  0  0
   58.3510   33.1080   48.2460 N   0  0  0  0  0  0  0  0  0  0  0  0
   58.8790   32.3370   49.2370 C   0  0  0  0  0  0  0  0  0  0  0  0
   58.8930   32.8330   50.5900 N   0  0  0  0  0  0  0  0  0  0  0  0
   59.8980   33.8310   50.9820 C   0  0  0  0  0  0  0  0  0  0  0  0
   60.3940   33.5640   52.4060 C   0  0  0  0  0  0  0  0  0  0  0  0
   59.2210   33.4330   53.3920 C   0  0  0  0  0  0  0  0  0  0  0  0
   58.5360   34.6530   53.5100 O   0  0  0  0  0  0  0  0  0  0  0  0
   58.2530   32.3390   52.9240 C   0  0  0  0  0  0  0  0  0  0  0  0
   57.7590   32.5940   51.4950 C   0  0  0  0  0  0  0  0  0  0  0  0
   59.3780   31.0630   48.9220 C   0  0  0  0  0  0  0  0  0  0  0  0
   59.3400   30.6090   47.6030 C   0  0  0  0  0  0  0  0  0  0  0  0
   58.8100   31.4250   46.5920 C   0  0  0  0  0  0  0  0  0  0  0  0
   57.8590   28.2960   46.1400 C   0  0  0  0  0  0  0  0  0  0  0  0
   57.1420   27.1080   46.2990 C   0  0  0  0  0  0  0  0  0  0  0  0
   54.2540   23.6820   45.1000 N   0  0  0  0  0  0  0  0  0  0  0  0
   52.8480   23.4210   45.2710 C   0  0  0  0  0  0  0  0  0  0  0  0
   51.9180   23.8550   44.3080 C   0  0  0  0  0  0  0  0  0  0  0  0
   50.5520   23.6260   44.4900 C   0  0  0  0  0  0  0  0  0  0  0  0
   50.0970   22.9740   45.6370 C   0  0  0  0  0  0  0  0  0  0  0  0
   51.0070   22.5510   46.6090 C   0  0  0  0  0  0  0  0  0  0  0  0
   50.5510   21.9210   47.7210 F   0  0  0  0  0  0  0  0  0  0  0  0
   52.3810   22.7770   46.4360 C   0  0  0  0  0  0  0  0  0  0  0  0
   53.5000   22.2100   47.6740 Cl  0  0  0  0  0  0  0  0  0  0  0  0
   57.7396   25.6933   43.2440 H   0  0  0  0  0  0  0  0  0  0  0  0
   59.0307   27.8083   42.9659 H   0  0  0  0  0  0  0  0  0  0  0  0
   58.0744   31.5062   43.2419 H   0  0  0  0  0  0  0  0  0  0  0  0
   57.1951   33.7450   43.8915 H   0  0  0  0  0  0  0  0  0  0  0  0
   57.3413   34.5134   46.2599 H   0  0  0  0  0  0  0  0  0  0  0  0
   60.7490   33.7797   50.2869 H   0  0  0  0  0  0  0  0  0  0  0  0
   59.4389   34.8300   50.9473 H   0  0  0  0  0  0  0  0  0  0  0  0
   60.9744   32.6296   52.4138 H   0  0  0  0  0  0  0  0  0  0  0  0
   61.0183   34.4132   52.7207 H   0  0  0  0  0  0  0  0  0  0  0  0
   59.6277   33.1580   54.3764 H   0  0  0  0  0  0  0  0  0  0  0  0
   58.9610   35.1510   54.2570 H   0  0  0  0  0  0  0  0  0  0  0  0
   58.7697   31.3684   52.9549 H   0  0  0  0  0  0  0  0  0  0  0  0
   57.3810   32.3422   53.5945 H   0  0  0  0  0  0  0  0  0  0  0  0
   57.1961   31.7161   51.1451 H   0  0  0  0  0  0  0  0  0  0  0  0
   57.1131   33.4844   51.4968 H   0  0  0  0  0  0  0  0  0  0  0  0
   59.7979   30.4243   49.7130 H   0  0  0  0  0  0  0  0  0  0  0  0
   59.7264   29.6093   47.3553 H   0  0  0  0  0  0  0  0  0  0  0  0
   57.8823   29.0329   46.9564 H   0  0  0  0  0  0  0  0  0  0  0  0
   56.5980   26.9205   47.2365 H   0  0  0  0  0  0  0  0  0  0  0  0
   54.8310   22.9960   44.5640 H   0  0  0  0  0  0  0  0  0  0  0  0
   52.2690   24.3779   43.4061 H   0  0  0  0  0  0  0  0  0  0  0  0
   49.8332   23.9604   43.7274 H   0  0  0  0  0  0  0  0  0  0  0  0
   49.0209   22.7930   45.7759 H   0  0  0  0  0  0  0  0  0  0  0  0
  1  2  2  0
  2  3  1  0
  3  4  1  0
  4  5  2  0
  5  6  1  0
  6  7  2  0
  7  8  1  0
  8  9  1  0
  9 10  2  0
 10 11  1  0
 11 12  2  0
 12 13  1  0
 13 14  2  0
 14 15  1  0
 15 16  1  0
 16 17  1  0
 17 18  1  0
 18 19  1  0
 19 20  1  0
 19 21  1  0
 21 22  1  0
 15 23  2  0
 23 24  1  0
 24 25  2  0
  7 26  1  0
 26 27  2  0
  2 28  1  0
 28 29  1  0
 29 30  2  0
 30 31  1  0
 31 32  2  0
 32 33  1  0
 33 34  1  0
 33 35  2  0
 35 36  1  0
 27  4  1  0
 35 29  1  0
 25  9  1  0
 25 13  1  0
 22 16  1  0
  5 37  1  0
  6 38  1  0
 10 39  1  0
 11 40  1  0
 12 41  1  0
 17 42  1  0
 17 43  1  0
 18 44  1  0
 18 45  1  0
 19 46  1  0
 20 47  1  0
 21 48  1  0
 21 49  1  0
 22 50  1  0
 22 51  1  0
 23 52  1  0
 24 53  1  0
 26 54  1  0
 27 55  1  0
 28 56  1  0
 30 57  1  0
 31 58  1  0
 32 59  1  0
M  CHG  1   3  -1
M  END
>  <UniqueID>  (40) 
34

>  <SMILES>  (40) 
O=C([N-]c1ccc(Oc2cccc3nc(N4CCC(O)CC4)ccc23)cc1)Nc1cccc(F)c1Cl

>  <Energy>  (40) 
84.40876508189015

>  <Genealogy>  (40) 
O=C([N-]c1ccc(Oc2cccc3nc(N4CCC(O)CC4)ccc23)cc1)Nc1cccc(F)c1Cl (protonated)
O=C([N-]c1ccc(Oc2cccc3nc(N4CCC(O)CC4)ccc23)cc1)Nc1cccc(F)c1Cl (3D coordinates assigned)
O=C([N-]c1ccc(Oc2cccc3nc(N4CCC(O)CC4)ccc23)cc1)Nc1cccc(F)c1Cl (nonaromatic ring conformer: 84.40876508189015 kcal/mol)

>  <smiles>  (40) 
O=C(Nc1ccc(Oc2cccc3nc(N4CCC(O)CC4)ccc23)cc1)Nc1cccc(F)c1Cl

>  <score_type>  (40) 
oracle

>  <origin>  (40) 
adg

>  <m_score__min__energy>  (40) 
-10.94

>  <m_primary>  (40) 
energy

$$$$
40:0
     RDKit          3D

 31 32  0  0  0  0  0  0  0  0999 V2000
   57.7470   28.9040   45.4130 C   0  0  0  0  0  0  0  0  0  0  0  0
   58.0710   30.2260   45.9610 N   0  0  0  0  0  0  0  0  0  0  0  0
   58.9750   30.3280   46.9820 C   0  0  0  0  0  0  0  0  0  0  0  0
   59.3080   31.5710   47.5150 C   0  0  0  0  0  0  0  0  0  0  0  0
   58.7200   32.7370   47.0050 C   0  0  0  0  0  0  0  0  0  0  0  0
   59.1030   34.0260   47.5390 N   0  0  0  0  0  0  0  0  0  0  0  0
   60.2950   34.5620   46.8590 C   0  0  0  0  0  0  0  0  0  0  0  0
   61.5730   34.0870   47.5070 C   0  0  0  0  0  0  0  0  0  0  0  0
   61.7370   34.1780   48.8990 C   0  0  0  0  0  0  0  0  0  0  0  0
   62.9040   33.6990   49.5030 C   0  0  0  0  0  0  0  0  0  0  0  0
   63.9100   33.1210   48.7250 C   0  0  0  0  0  0  0  0  0  0  0  0
   65.0400   32.6550   49.3120 F   0  0  0  0  0  0  0  0  0  0  0  0
   63.7520   33.0200   47.3390 C   0  0  0  0  0  0  0  0  0  0  0  0
   62.5870   33.4990   46.7300 C   0  0  0  0  0  0  0  0  0  0  0  0
   57.7950   32.6210   45.9460 C   0  0  0  0  0  0  0  0  0  0  0  0
   57.0190   34.0450   45.2480 Cl  0  0  0  0  0  0  0  0  0  0  0  0
   57.4840   31.3490   45.4370 C   0  0  0  0  0  0  0  0  0  0  0  0
   56.6570   31.2490   44.4870 O   0  0  0  0  0  0  0  0  0  0  0  0
   57.5738   28.1974   46.2381 H   0  0  0  0  0  0  0  0  0  0  0  0
   56.8398   28.9755   44.7950 H   0  0  0  0  0  0  0  0  0  0  0  0
   58.5845   28.5479   44.7950 H   0  0  0  0  0  0  0  0  0  0  0  0
   59.4440   29.4190   47.3865 H   0  0  0  0  0  0  0  0  0  0  0  0
   60.0343   31.6380   48.3384 H   0  0  0  0  0  0  0  0  0  0  0  0
   59.2870   33.9540   48.5670 H   0  0  0  0  0  0  0  0  0  0  0  0
   58.3130   34.7030   47.4290 H   0  0  0  0  0  0  0  0  0  0  0  0
   60.2843   34.2323   45.8096 H   0  0  0  0  0  0  0  0  0  0  0  0
   60.2638   35.6593   46.9299 H   0  0  0  0  0  0  0  0  0  0  0  0
   60.9450   34.6274   49.5161 H   0  0  0  0  0  0  0  0  0  0  0  0
   63.0299   33.7776   50.5929 H   0  0  0  0  0  0  0  0  0  0  0  0
   64.5442   32.5637   46.7273 H   0  0  0  0  0  0  0  0  0  0  0  0
   62.4638   33.4154   45.6401 H   0  0  0  0  0  0  0  0  0  0  0  0
  1  2  1  0
  2  3  1  0
  3  4  2  0
  4  5  1  0
  5  6  1  0
  6  7  1  0
  7  8  1  0
  8  9  2  0
  9 10  1  0
 10 11  2  0
 11 12  1  0
 11 13  1  0
 13 14  2  0
  5 15  2  0
 15 16  1  0
 15 17  1  0
 17 18  2  0
 17  2  1  0
 14  8  1  0
  1 19  1  0
  1 20  1  0
  1 21  1  0
  3 22  1  0
  4 23  1  0
  6 24  1  0
  6 25  1  0
  7 26  1  0
  7 27  1  0
  9 28  1  0
 10 29  1  0
 13 30  1  0
 14 31  1  0
M  CHG  1   6   1
M  END
>  <UniqueID>  (41) 
35

>  <SMILES>  (41) 
Cn1ccc([NH2+]Cc2ccc(F)cc2)c(Cl)c1=O

>  <Energy>  (41) 
35.360018468487084

>  <Genealogy>  (41) 
Cn1ccc([NH2+]Cc2ccc(F)cc2)c(Cl)c1=O (protonated)
Cn1ccc([NH2+]Cc2ccc(F)cc2)c(Cl)c1=O (3D coordinates assigned)
Cn1ccc([NH2+]Cc2ccc(F)cc2)c(Cl)c1=O (optimized conformer: 35.360018468487084 kcal/mol)

>  <smiles>  (41) 
Cn1ccc(NCc2ccc(F)cc2)c(Cl)c1=O

>  <score_type>  (41) 
oracle

>  <origin>  (41) 
adg

>  <m_score__min__energy>  (41) 
-5.1299999999999999

>  <m_primary>  (41) 
energy

$$$$
41:0
     RDKit          3D

 44 46  0  0  0  0  0  0  0  0999 V2000
   54.9380   24.7550   45.3540 C   0  0  0  0  0  0  0  0  0  0  0  0
   55.1960   25.9910   46.0080 O   0  0  0  0  0  0  0  0  0  0  0  0
   56.4160   26.6920   46.0200 C   0  0  0  0  0  0  0  0  0  0  0  0
   57.5070   26.0440   46.6090 C   0  0  0  0  0  0  0  0  0  0  0  0
   58.7600   26.6530   46.6690 C   0  0  0  0  0  0  0  0  0  0  0  0
   58.9510   27.9330   46.1380 C   0  0  0  0  0  0  0  0  0  0  0  0
   60.2520   28.5530   46.1760 N   0  0  0  0  0  0  0  0  0  0  0  0
   61.1430   28.4340   45.0170 C   0  0  0  0  0  0  0  0  0  0  0  0
   60.6960   29.2960   47.3630 C   0  0  0  0  0  0  0  0  0  0  0  0
   60.6080   30.7810   47.1110 C   0  0  0  0  0  0  0  0  0  0  0  0
   59.5350   31.3060   46.3770 C   0  0  0  0  0  0  0  0  0  0  0  0
   59.4640   32.6780   46.1170 C   0  0  0  0  0  0  0  0  0  0  0  0
   58.3980   33.2220   45.3830 C   0  0  0  0  0  0  0  0  0  0  0  0
   58.3470   34.5960   45.1360 C   0  0  0  0  0  0  0  0  0  0  0  0
   59.3540   35.4350   45.6220 C   0  0  0  0  0  0  0  0  0  0  0  0
   60.4200   34.9020   46.3520 C   0  0  0  0  0  0  0  0  0  0  0  0
   60.4850   33.5220   46.6040 C   0  0  0  0  0  0  0  0  0  0  0  0
   61.5260   32.9930   47.3100 N   0  0  0  0  0  0  0  0  0  0  0  0
   61.6120   31.6570   47.5640 C   0  0  0  0  0  0  0  0  0  0  0  0
   62.6000   31.2110   48.2100 O   0  0  0  0  0  0  0  0  0  0  0  0
   57.8660   28.5940   45.5410 C   0  0  0  0  0  0  0  0  0  0  0  0
   56.5920   27.9910   45.4750 C   0  0  0  0  0  0  0  0  0  0  0  0
   55.5100   28.6560   44.8780 O   0  0  0  0  0  0  0  0  0  0  0  0
   55.6220   29.7670   43.9930 C   0  0  0  0  0  0  0  0  0  0  0  0
   54.7740   23.9694   46.1063 H   0  0  0  0  0  0  0  0  0  0  0  0
   54.0410   24.8533   44.7249 H   0  0  0  0  0  0  0  0  0  0  0  0
   55.7994   24.4862   44.7249 H   0  0  0  0  0  0  0  0  0  0  0  0
   57.3742   25.0372   47.0319 H   0  0  0  0  0  0  0  0  0  0  0  0
   59.6033   26.1237   47.1367 H   0  0  0  0  0  0  0  0  0  0  0  0
   62.1780   28.2958   45.3629 H   0  0  0  0  0  0  0  0  0  0  0  0
   60.8407   27.5683   44.4095 H   0  0  0  0  0  0  0  0  0  0  0  0
   61.0785   29.3487   44.4095 H   0  0  0  0  0  0  0  0  0  0  0  0
   60.0542   29.0337   48.2170 H   0  0  0  0  0  0  0  0  0  0  0  0
   61.7406   29.0304   47.5828 H   0  0  0  0  0  0  0  0  0  0  0  0
   58.7461   30.6361   46.0043 H   0  0  0  0  0  0  0  0  0  0  0  0
   57.6019   32.5655   45.0019 H   0  0  0  0  0  0  0  0  0  0  0  0
   57.5123   35.0188   44.5576 H   0  0  0  0  0  0  0  0  0  0  0  0
   59.3073   36.5170   45.4295 H   0  0  0  0  0  0  0  0  0  0  0  0
   61.2111   35.5660   46.7306 H   0  0  0  0  0  0  0  0  0  0  0  0
   62.2830   33.6220   47.6640 H   0  0  0  0  0  0  0  0  0  0  0  0
   58.0114   29.5988   45.1176 H   0  0  0  0  0  0  0  0  0  0  0  0
   55.7154   30.6938   44.5780 H   0  0  0  0  0  0  0  0  0  0  0  0
   56.5121   29.6424   43.3589 H   0  0  0  0  0  0  0  0  0  0  0  0
   54.7249   29.8225   43.3589 H   0  0  0  0  0  0  0  0  0  0  0  0
  1  2  1  0
  2  3  1  0
  3  4  2  0
  4  5  1  0
  5  6  2  0
  6  7  1  0
  7  8  1  0
  7  9  1  0
  9 10  1  0
 10 11  2  0
 11 12  1  0
 12 13  2  0
 13 14  1  0
 14 15  2  0
 15 16  1  0
 16 17  2  0
 17 18  1  0
 18 19  1  0
 19 20  2  0
  6 21  1  0
 21 22  2  0
 22 23  1  0
 23 24  1  0
 22  3  1  0
 19 10  1  0
 17 12  1  0
  1 25  1  0
  1 26  1  0
  1 27  1  0
  4 28  1  0
  5 29  1  0
  8 30  1  0
  8 31  1  0
  8 32  1  0
  9 33  1  0
  9 34  1  0
 11 35  1  0
 13 36  1  0
 14 37  1  0
 15 38  1  0
 16 39  1  0
 18 40  1  0
 21 41  1  0
 24 42  1  0
 24 43  1  0
 24 44  1  0
M  END
>  <UniqueID>  (42) 
36

>  <SMILES>  (42) 
COc1ccc(N(C)Cc2cc3ccccc3[nH]c2=O)cc1OC

>  <Energy>  (42) 
54.17831466865886

>  <Genealogy>  (42) 
COc1ccc(N(C)Cc2cc3ccccc3[nH]c2=O)cc1OC (3D coordinates assigned)
COc1ccc(N(C)Cc2cc3ccccc3[nH]c2=O)cc1OC (optimized conformer: 54.17831466865886 kcal/mol)

>  <smiles>  (42) 
COc1ccc(N(C)Cc2cc3ccccc3[nH]c2=O)cc1OC

>  <score_type>  (42) 
oracle

>  <origin>  (42) 
adg

>  <m_score__min__energy>  (42) 
-7.6799999999999997

>  <m_primary>  (42) 
energy

$$$$
42:0
     RDKit          3D

 53 56  0  0  0  0  0  0  0  0999 V2000
   60.7400   28.8200   45.1930 C   0  0  0  0  0  0  0  0  0  0  0  0
   59.7110   27.8170   45.7370 C   0  0  0  0  0  0  0  0  0  0  0  0
   60.4570   26.6550   46.4180 C   0  0  0  0  0  0  0  0  0  0  0  0
   58.8520   27.3020   44.5670 C   0  0  0  0  0  0  0  0  0  0  0  0
   58.9000   28.5230   46.6870 O   0  0  0  0  0  0  0  0  0  0  0  0
   58.0950   29.6440   46.4310 C   0  0  0  0  0  0  0  0  0  0  0  0
   56.9470   29.5130   45.9280 O   0  0  0  0  0  0  0  0  0  0  0  0
   58.5970   30.9540   46.7440 N   0  0  0  0  0  0  0  0  0  0  0  0
   59.2280   31.3300   47.8910 C   0  0  0  0  0  0  0  0  0  0  0  0
   59.6430   30.3950   48.9560 C   0  0  0  0  0  0  0  0  0  0  0  0
   60.8470   30.0270   49.0180 O   0  0  0  0  0  0  0  0  0  0  0  0
   58.6760   29.9260   49.9050 N   0  0  0  0  0  0  0  0  0  0  0  0
   58.0400   30.6240   50.8010 C   0  0  0  0  0  0  0  0  0  0  0  0
   57.0910   30.0780   51.5890 N   0  0  0  0  0  0  0  0  0  0  0  0
   56.5700   30.9870   52.4570 C   0  0  0  0  0  0  0  0  0  0  0  0
   57.1080   32.2660   52.3680 C   0  0  0  0  0  0  0  0  0  0  0  0
   58.2750   32.2570   51.1580 S   0  0  0  0  0  0  0  0  0  0  0  0
   59.4950   32.7040   47.8710 C   0  0  0  0  0  0  0  0  0  0  0  0
   60.1980   33.5270   48.9210 C   0  0  0  0  0  0  0  0  0  0  0  0
   61.7000   33.4010   48.8280 C   0  0  0  0  0  0  0  0  0  0  0  0
   62.3390   33.2830   47.5790 C   0  0  0  0  0  0  0  0  0  0  0  0
   63.7280   33.1430   47.5070 C   0  0  0  0  0  0  0  0  0  0  0  0
   64.4900   33.1020   48.6770 C   0  0  0  0  0  0  0  0  0  0  0  0
   63.8640   33.1920   49.9220 C   0  0  0  0  0  0  0  0  0  0  0  0
   62.4750   33.3300   49.9990 C   0  0  0  0  0  0  0  0  0  0  0  0
   58.9950   33.1600   46.6630 C   0  0  0  0  0  0  0  0  0  0  0  0
   58.9660   34.4450   46.1160 C   0  0  0  0  0  0  0  0  0  0  0  0
   58.3540   34.6150   44.8640 C   0  0  0  0  0  0  0  0  0  0  0  0
   57.7850   33.5140   44.1920 C   0  0  0  0  0  0  0  0  0  0  0  0
   57.8270   32.2300   44.7630 C   0  0  0  0  0  0  0  0  0  0  0  0
   58.4580   32.0790   46.0060 C   0  0  0  0  0  0  0  0  0  0  0  0
   61.2485   29.3156   46.0331 H   0  0  0  0  0  0  0  0  0  0  0  0
   61.4810   28.2880   44.5782 H   0  0  0  0  0  0  0  0  0  0  0  0
   60.2272   29.5744   44.5782 H   0  0  0  0  0  0  0  0  0  0  0  0
   60.3868   26.7643   47.5103 H   0  0  0  0  0  0  0  0  0  0  0  0
   60.0028   25.7000   46.1151 H   0  0  0  0  0  0  0  0  0  0  0  0
   61.5144   26.6705   46.1151 H   0  0  0  0  0  0  0  0  0  0  0  0
   57.9718   26.7743   44.9629 H   0  0  0  0  0  0  0  0  0  0  0  0
   58.5235   28.1523   43.9512 H   0  0  0  0  0  0  0  0  0  0  0  0
   59.4472   26.6116   43.9512 H   0  0  0  0  0  0  0  0  0  0  0  0
   55.7799   30.7286   53.1774 H   0  0  0  0  0  0  0  0  0  0  0  0
   56.8203   33.1322   52.9819 H   0  0  0  0  0  0  0  0  0  0  0  0
   59.9215   34.5833   48.7879 H   0  0  0  0  0  0  0  0  0  0  0  0
   59.8868   33.1550   49.9083 H   0  0  0  0  0  0  0  0  0  0  0  0
   61.7422   33.3011   46.6551 H   0  0  0  0  0  0  0  0  0  0  0  0
   64.2219   33.0650   46.5272 H   0  0  0  0  0  0  0  0  0  0  0  0
   65.5835   32.9988   48.6176 H   0  0  0  0  0  0  0  0  0  0  0  0
   64.4644   33.1543   50.8429 H   0  0  0  0  0  0  0  0  0  0  0  0
   61.9850   33.3834   50.9824 H   0  0  0  0  0  0  0  0  0  0  0  0
   59.4094   35.2982   46.6503 H   0  0  0  0  0  0  0  0  0  0  0  0
   58.3182   35.6137   44.4044 H   0  0  0  0  0  0  0  0  0  0  0  0
   57.3045   33.6607   43.2134 H   0  0  0  0  0  0  0  0  0  0  0  0
   57.3773   31.3677   44.2489 H   0  0  0  0  0  0  0  0  0  0  0  0
  1  2  1  0
  2  3  1  0
  2  4  1  0
  2  5  1  0
  5  6  1  0
  6  7  2  0
  6  8  1  0
  8  9  1  0
  9 10  1  0
 10 11  2  0
 10 12  1  0
 12 13  2  3
 13 14  1  0
 14 15  1  0
 15 16  2  0
 16 17  1  0
  9 18  2  0
 18 19  1  0
 19 20  1  0
 20 21  2  0
 21 22  1  0
 22 23  2  0
 23 24  1  0
 24 25  2  0
 18 26  1  0
 26 27  2  0
 27 28  1  0
 28 29  2  0
 29 30  1  0
 30 31  2  0
 31  8  1  0
 17 13  1  0
 25 20  1  0
 31 26  1  0
  1 32  1  0
  1 33  1  0
  1 34  1  0
  3 35  1  0
  3 36  1  0
  3 37  1  0
  4 38  1  0
  4 39  1  0
  4 40  1  0
 15 41  1  0
 16 42  1  0
 19 43  1  0
 19 44  1  0
 21 45  1  0
 22 46  1  0
 23 47  1  0
 24 48  1  0
 25 49  1  0
 27 50  1  0
 28 51  1  0
 29 52  1  0
 30 53  1  0
M  CHG  1  14  -1
M  END
>  <UniqueID>  (43) 
37

>  <SMILES>  (43) 
CC(C)(C)OC(=O)n1c(C(=O)N=c2[n-]ccs2)c(Cc2ccccc2)c2ccccc21

>  <Energy>  (43) 
124.71042695862786

>  <Genealogy>  (43) 
CC(C)(C)OC(=O)n1c(C(=O)N=c2[n-]ccs2)c(Cc2ccccc2)c2ccccc21 (protonated)
CC(C)(C)OC(=O)n1c(C(=O)N=c2[n-]ccs2)c(Cc2ccccc2)c2ccccc21 (3D coordinates assigned)
CC(C)(C)OC(=O)n1c(C(=O)N=c2[n-]ccs2)c(Cc2ccccc2)c2ccccc21 (optimized conformer: 124.71042695862786 kcal/mol)

>  <smiles>  (43) 
CC(C)(C)OC(=O)n1c(C(=O)N=c2[nH]ccs2)c(Cc2ccccc2)c2ccccc21

>  <score_type>  (43) 
oracle

>  <origin>  (43) 
adg

>  <m_score__min__energy>  (43) 
-10.300000000000001

>  <m_primary>  (43) 
energy

$$$$
43:0
     RDKit          3D

 44 47  0  0  0  0  0  0  0  0999 V2000
   56.2700   29.7450   42.6600 C   0  0  0  0  0  0  0  0  0  0  0  0
   56.0640   30.3890   44.0270 C   0  0  0  0  0  0  0  0  0  0  0  0
   57.3150   30.4150   44.7930 N   0  0  0  0  0  0  0  0  0  0  0  0
   58.0870   31.4900   45.0550 C   0  0  0  0  0  0  0  0  0  0  0  0
   57.6540   33.1910   44.6700 S   0  0  0  0  0  0  0  0  0  0  0  0
   57.7400   33.7610   46.4030 C   0  0  0  0  0  0  0  0  0  0  0  0
   59.1580   34.0530   46.7860 C   0  0  0  0  0  0  0  0  0  0  0  0
   59.5770   35.2410   46.7480 O   0  0  0  0  0  0  0  0  0  0  0  0
   60.0330   32.9800   47.1630 N   0  0  0  0  0  0  0  0  0  0  0  0
   61.2920   33.1660   47.8320 C   0  0  0  0  0  0  0  0  0  0  0  0
   62.4930   32.8370   47.1520 C   0  0  0  0  0  0  0  0  0  0  0  0
   63.7400   32.9830   47.7850 C   0  0  0  0  0  0  0  0  0  0  0  0
   63.7510   33.4410   49.0980 C   0  0  0  0  0  0  0  0  0  0  0  0
   62.6080   33.7390   49.7650 C   0  0  0  0  0  0  0  0  0  0  0  0
   61.3550   33.6120   49.1750 C   0  0  0  0  0  0  0  0  0  0  0  0
   62.9170   34.1540   51.0460 O   0  0  0  0  0  0  0  0  0  0  0  0
   64.3440   34.1170   51.1920 C   0  0  0  0  0  0  0  0  0  0  0  0
   64.8370   33.6570   49.9260 O   0  0  0  0  0  0  0  0  0  0  0  0
   59.2670   31.1380   45.5950 N   0  0  0  0  0  0  0  0  0  0  0  0
   59.2670   29.8180   45.6930 N   0  0  0  0  0  0  0  0  0  0  0  0
   58.0840   29.3820   45.2160 C   0  0  0  0  0  0  0  0  0  0  0  0
   57.7560   27.9460   45.1200 C   0  0  0  0  0  0  0  0  0  0  0  0
   58.1440   27.1700   44.0170 C   0  0  0  0  0  0  0  0  0  0  0  0
   57.7780   25.8240   43.9630 C   0  0  0  0  0  0  0  0  0  0  0  0
   57.0200   25.2670   44.9930 C   0  0  0  0  0  0  0  0  0  0  0  0
   56.6280   26.0730   46.0630 C   0  0  0  0  0  0  0  0  0  0  0  0
   56.9950   27.3820   46.0990 N   0  0  0  0  0  0  0  0  0  0  0  0
   56.6027   28.7048   42.7911 H   0  0  0  0  0  0  0  0  0  0  0  0
   55.3225   29.7592   42.1014 H   0  0  0  0  0  0  0  0  0  0  0  0
   57.0334   30.3065   42.1014 H   0  0  0  0  0  0  0  0  0  0  0  0
   55.7064   31.4199   43.8881 H   0  0  0  0  0  0  0  0  0  0  0  0
   55.3252   29.7951   44.5850 H   0  0  0  0  0  0  0  0  0  0  0  0
   57.1387   34.6754   46.5142 H   0  0  0  0  0  0  0  0  0  0  0  0
   57.3486   32.9696   47.0591 H   0  0  0  0  0  0  0  0  0  0  0  0
   59.7600   32.0090   46.8870 H   0  0  0  0  0  0  0  0  0  0  0  0
   62.4481   32.4636   46.1183 H   0  0  0  0  0  0  0  0  0  0  0  0
   64.6758   32.7429   47.2591 H   0  0  0  0  0  0  0  0  0  0  0  0
   60.4391   33.8511   49.7353 H   0  0  0  0  0  0  0  0  0  0  0  0
   64.7353   35.1200   51.4175 H   0  0  0  0  0  0  0  0  0  0  0  0
   64.6570   33.4625   52.0188 H   0  0  0  0  0  0  0  0  0  0  0  0
   58.7313   27.6184   43.2022 H   0  0  0  0  0  0  0  0  0  0  0  0
   58.0870   25.2032   43.1091 H   0  0  0  0  0  0  0  0  0  0  0  0
   56.7346   24.2051   44.9624 H   0  0  0  0  0  0  0  0  0  0  0  0
   56.0220   25.6493   46.8774 H   0  0  0  0  0  0  0  0  0  0  0  0
  1  2  1  0
  2  3  1  0
  3  4  1  0
  4  5  1  0
  5  6  1  0
  6  7  1  0
  7  8  2  0
  7  9  1  0
  9 10  1  0
 10 11  2  0
 11 12  1  0
 12 13  2  0
 13 14  1  0
 14 15  2  0
 14 16  1  0
 16 17  1  0
 17 18  1  0
  4 19  2  0
 19 20  1  0
 20 21  2  0
 21 22  1  0
 22 23  2  0
 23 24  1  0
 24 25  2  0
 25 26  1  0
 26 27  2  0
 21  3  1  0
 27 22  1  0
 15 10  1  0
 18 13  1  0
  1 28  1  0
  1 29  1  0
  1 30  1  0
  2 31  1  0
  2 32  1  0
  6 33  1  0
  6 34  1  0
  9 35  1  0
 11 36  1  0
 12 37  1  0
 15 38  1  0
 17 39  1  0
 17 40  1  0
 23 41  1  0
 24 42  1  0
 25 43  1  0
 26 44  1  0
M  END
>  <UniqueID>  (44) 
38

>  <SMILES>  (44) 
CCn1c(SCC(=O)Nc2ccc3c(c2)OCO3)nnc1-c1ccccn1

>  <Energy>  (44) 
111.41237204385982

>  <Genealogy>  (44) 
CCn1c(SCC(=O)Nc2ccc3c(c2)OCO3)nnc1-c1ccccn1 (3D coordinates assigned)
CCn1c(SCC(=O)Nc2ccc3c(c2)OCO3)nnc1-c1ccccn1 (nonaromatic ring conformer: 111.41237204385982 kcal/mol)

>  <smiles>  (44) 
CCn1c(SCC(=O)Nc2ccc3c(c2)OCO3)nnc1-c1ccccn1

>  <score_type>  (44) 
oracle

>  <origin>  (44) 
adg

>  <m_score__min__energy>  (44) 
-8.5600000000000005

>  <m_primary>  (44) 
energy

$$$$
44:0
     RDKit          3D

 48 50  0  0  0  0  0  0  0  0999 V2000
   56.0560   24.8130   46.2960 O   0  0  0  0  0  0  0  0  0  0  0  0
   55.7340   26.0010   46.0310 C   0  0  0  0  0  0  0  0  0  0  0  0
   54.3940   26.3360   45.8910 O   0  0  0  0  0  0  0  0  0  0  0  0
   56.7830   27.0560   45.9230 C   0  0  0  0  0  0  0  0  0  0  0  0
   56.2230   28.2260   45.2630 N   0  0  0  0  0  0  0  0  0  0  0  0
   57.0130   29.1420   44.4980 C   0  0  0  0  0  0  0  0  0  0  0  0
   57.2470   28.8960   43.2830 O   0  0  0  0  0  0  0  0  0  0  0  0
   57.5180   30.3980   45.1050 C   0  0  0  0  0  0  0  0  0  0  0  0
   57.7640   30.4270   46.4910 C   0  0  0  0  0  0  0  0  0  0  0  0
   58.2690   31.5820   47.1120 C   0  0  0  0  0  0  0  0  0  0  0  0
   58.5170   31.6340   48.4910 O   0  0  0  0  0  0  0  0  0  0  0  0
   59.6630   31.1410   49.1330 C   0  0  0  0  0  0  0  0  0  0  0  0
   60.9480   31.5790   48.7620 C   0  0  0  0  0  0  0  0  0  0  0  0
   62.0740   31.1360   49.4590 C   0  0  0  0  0  0  0  0  0  0  0  0
   61.9300   30.2680   50.5430 C   0  0  0  0  0  0  0  0  0  0  0  0
   60.6580   29.8370   50.9280 C   0  0  0  0  0  0  0  0  0  0  0  0
   59.5220   30.2500   50.2180 C   0  0  0  0  0  0  0  0  0  0  0  0
   58.2280   29.7900   50.6400 N   0  0  0  0  0  0  0  0  0  0  0  0
   57.5220   30.3540   51.7560 C   0  0  0  0  0  0  0  0  0  0  0  0
   57.8360   31.4930   52.1920 O   0  0  0  0  0  0  0  0  0  0  0  0
   56.4010   29.6750   52.3330 N   0  0  0  0  0  0  0  0  0  0  0  0
   55.0510   30.1590   52.3570 C   0  0  0  0  0  0  0  0  0  0  0  0
   54.2480   30.0510   53.5040 C   0  0  0  0  0  0  0  0  0  0  0  0
   52.9450   30.5590   53.5040 C   0  0  0  0  0  0  0  0  0  0  0  0
   52.4290   31.1970   52.3620 C   0  0  0  0  0  0  0  0  0  0  0  0
   51.0510   31.7360   52.3570 C   0  0  0  0  0  0  0  0  0  0  0  0
   50.7480   32.7130   51.6210 O   0  0  0  0  0  0  0  0  0  0  0  0
   50.0710   31.1710   53.1640 O   0  0  0  0  0  0  0  0  0  0  0  0
   53.2470   31.3260   51.2260 C   0  0  0  0  0  0  0  0  0  0  0  0
   54.5490   30.8170   51.2290 C   0  0  0  0  0  0  0  0  0  0  0  0
   58.4890   32.7290   46.3500 C   0  0  0  0  0  0  0  0  0  0  0  0
   58.2360   32.7240   44.9780 C   0  0  0  0  0  0  0  0  0  0  0  0
   57.7540   31.5710   44.3470 C   0  0  0  0  0  0  0  0  0  0  0  0
   57.3900   31.6870   42.6270 Cl  0  0  0  0  0  0  0  0  0  0  0  0
   57.1304   27.3330   46.9293 H   0  0  0  0  0  0  0  0  0  0  0  0
   57.6313   26.6732   45.3367 H   0  0  0  0  0  0  0  0  0  0  0  0
   57.5578   29.5322   47.0967 H   0  0  0  0  0  0  0  0  0  0  0  0
   61.0661   32.2744   47.9180 H   0  0  0  0  0  0  0  0  0  0  0  0
   63.0761   31.4715   49.1535 H   0  0  0  0  0  0  0  0  0  0  0  0
   62.8177   29.9236   51.0938 H   0  0  0  0  0  0  0  0  0  0  0  0
   60.5471   29.1687   51.7946 H   0  0  0  0  0  0  0  0  0  0  0  0
   57.7170   29.1180   50.0240 H   0  0  0  0  0  0  0  0  0  0  0  0
   54.6458   29.5645   54.4068 H   0  0  0  0  0  0  0  0  0  0  0  0
   52.3196   30.4588   54.4033 H   0  0  0  0  0  0  0  0  0  0  0  0
   52.8599   31.8309   50.3286 H   0  0  0  0  0  0  0  0  0  0  0  0
   55.1834   30.9347   50.3381 H   0  0  0  0  0  0  0  0  0  0  0  0
   58.8642   33.6430   46.8335 H   0  0  0  0  0  0  0  0  0  0  0  0
   58.4168   33.6339   44.3869 H   0  0  0  0  0  0  0  0  0  0  0  0
  1  2  2  0
  2  3  1  0
  2  4  1  0
  4  5  1  0
  5  6  1  0
  6  7  2  0
  6  8  1  0
  8  9  2  0
  9 10  1  0
 10 11  1  0
 11 12  1  0
 12 13  2  0
 13 14  1  0
 14 15  2  0
 15 16  1  0
 16 17  2  0
 17 18  1  0
 18 19  1  0
 19 20  2  0
 19 21  1  0
 21 22  1  0
 22 23  2  0
 23 24  1  0
 24 25  2  0
 25 26  1  0
 26 27  2  0
 26 28  1  0
 25 29  1  0
 29 30  2  0
 10 31  2  0
 31 32  1  0
 32 33  2  0
 33 34  1  0
 33  8  1  0
 17 12  1  0
 30 22  1  0
  4 35  1  0
  4 36  1  0
  9 37  1  0
 13 38  1  0
 14 39  1  0
 15 40  1  0
 16 41  1  0
 18 42  1  0
 23 43  1  0
 24 44  1  0
 29 45  1  0
 30 46  1  0
 31 47  1  0
 32 48  1  0
M  CHG  4   3  -1   5  -1  21  -1  28  -1
M  END
>  <UniqueID>  (45) 
39

>  <SMILES>  (45) 
O=C([O-])C[N-]C(=O)c1cc(Oc2ccccc2NC(=O)[N-]c2ccc(C(=O)[O-])cc2)ccc1Cl

>  <Energy>  (45) 
66.79967141648432

>  <Genealogy>  (45) 
O=C([O-])C[N-]C(=O)c1cc(Oc2ccccc2NC(=O)[N-]c2ccc(C(=O)[O-])cc2)ccc1Cl (protonated)
O=C([O-])C[N-]C(=O)c1cc(Oc2ccccc2NC(=O)[N-]c2ccc(C(=O)[O-])cc2)ccc1Cl (3D coordinates assigned)
O=C([O-])C[N-]C(=O)c1cc(Oc2ccccc2NC(=O)[N-]c2ccc(C(=O)[O-])cc2)ccc1Cl (optimized conformer: 66.79967141648432 kcal/mol)

>  <smiles>  (45) 
O=C(O)CNC(=O)c1cc(Oc2ccccc2NC(=O)Nc2ccc(C(=O)O)cc2)ccc1Cl

>  <score_type>  (45) 
oracle

>  <origin>  (45) 
adg

>  <m_score__min__energy>  (45) 
-18.02

>  <m_primary>  (45) 
energy

$$$$
45:0
     RDKit          3D

 35 37  0  0  0  0  0  0  0  0999 V2000
   59.1470   31.2030   52.4400 O   0  0  0  0  0  0  0  0  0  0  0  0
   59.4490   31.9830   51.4990 C   0  0  0  0  0  0  0  0  0  0  0  0
   58.5760   32.1550   50.4210 C   0  0  0  0  0  0  0  0  0  0  0  0
   58.9320   33.0230   49.3880 C   0  0  0  0  0  0  0  0  0  0  0  0
   60.1490   33.7110   49.4340 C   0  0  0  0  0  0  0  0  0  0  0  0
   60.4890   34.5910   48.3530 N   0  0  0  0  0  0  0  0  0  0  0  0
   60.6670   34.1100   46.6970 S   0  0  0  0  0  0  0  0  0  0  0  0
   62.1250   34.1770   46.3460 O   0  0  0  0  0  0  0  0  0  0  0  0
   59.9250   35.0820   45.8250 O   0  0  0  0  0  0  0  0  0  0  0  0
   59.9600   32.4910   46.4630 C   0  0  0  0  0  0  0  0  0  0  0  0
   58.6500   32.3010   45.9570 C   0  0  0  0  0  0  0  0  0  0  0  0
   57.5640   33.6280   45.5570 Cl  0  0  0  0  0  0  0  0  0  0  0  0
   58.1520   31.0080   45.7620 C   0  0  0  0  0  0  0  0  0  0  0  0
   58.9260   29.8810   46.0680 C   0  0  0  0  0  0  0  0  0  0  0  0
   58.3900   28.5130   45.8530 C   0  0  0  0  0  0  0  0  0  0  0  0
   59.2500   27.4560   45.5000 C   0  0  0  0  0  0  0  0  0  0  0  0
   58.7420   26.1680   45.2970 C   0  0  0  0  0  0  0  0  0  0  0  0
   57.3750   25.9220   45.4440 C   0  0  0  0  0  0  0  0  0  0  0  0
   56.5120   26.9620   45.7950 C   0  0  0  0  0  0  0  0  0  0  0  0
   55.1530   26.7160   45.9450 O   0  0  0  0  0  0  0  0  0  0  0  0
   57.0140   28.2520   45.9990 C   0  0  0  0  0  0  0  0  0  0  0  0
   60.2140   30.0660   46.5900 C   0  0  0  0  0  0  0  0  0  0  0  0
   60.7280   31.3500   46.7930 C   0  0  0  0  0  0  0  0  0  0  0  0
   62.3410   31.4720   47.4930 Cl  0  0  0  0  0  0  0  0  0  0  0  0
   60.9950   33.5110   50.5390 C   0  0  0  0  0  0  0  0  0  0  0  0
   60.6270   32.6590   51.5330 N   0  0  0  0  0  0  0  0  0  0  0  0
   57.6197   31.6125   50.3874 H   0  0  0  0  0  0  0  0  0  0  0  0
   58.2531   33.1667   48.5345 H   0  0  0  0  0  0  0  0  0  0  0  0
   57.1361   30.8742   45.3619 H   0  0  0  0  0  0  0  0  0  0  0  0
   60.3276   27.6435   45.3830 H   0  0  0  0  0  0  0  0  0  0  0  0
   59.4207   25.3475   45.0211 H   0  0  0  0  0  0  0  0  0  0  0  0
   56.9782   24.9087   45.2832 H   0  0  0  0  0  0  0  0  0  0  0  0
   56.3294   29.0675   46.2752 H   0  0  0  0  0  0  0  0  0  0  0  0
   60.8282   29.1892   46.8431 H   0  0  0  0  0  0  0  0  0  0  0  0
   61.9553   34.0441   50.5996 H   0  0  0  0  0  0  0  0  0  0  0  0
  1  2  2  0
  2  3  1  0
  3  4  2  0
  4  5  1  0
  5  6  1  0
  6  7  1  0
  7  8  2  0
  7  9  2  0
  7 10  1  0
 10 11  2  0
 11 12  1  0
 11 13  1  0
 13 14  2  0
 14 15  1  0
 15 16  2  0
 16 17  1  0
 17 18  2  0
 18 19  1  0
 19 20  1  0
 19 21  2  0
 14 22  1  0
 22 23  2  0
 23 24  1  0
  5 25  2  0
 25 26  1  0
 26  2  1  0
 23 10  1  0
 21 15  1  0
  3 27  1  0
  4 28  1  0
 13 29  1  0
 16 30  1  0
 17 31  1  0
 18 32  1  0
 21 33  1  0
 22 34  1  0
 25 35  1  0
M  CHG  3   6  -1  20  -1  26  -1
M  END
>  <UniqueID>  (46) 
40

>  <SMILES>  (46) 
O=c1ccc([N-]S(=O)(=O)c2c(Cl)cc(-c3cccc([O-])c3)cc2Cl)c[n-]1

>  <Energy>  (46) 
53.14007511388416

>  <Genealogy>  (46) 
O=c1ccc([N-]S(=O)(=O)c2c(Cl)cc(-c3cccc([O-])c3)cc2Cl)c[n-]1 (protonated)
O=c1ccc([N-]S(=O)(=O)c2c(Cl)cc(-c3cccc([O-])c3)cc2Cl)c[n-]1 (3D coordinates assigned)
O=c1ccc([N-]S(=O)(=O)c2c(Cl)cc(-c3cccc([O-])c3)cc2Cl)c[n-]1 (optimized conformer: 53.14007511388416 kcal/mol)

>  <smiles>  (46) 
O=c1ccc(NS(=O)(=O)c2c(Cl)cc(-c3cccc(O)c3)cc2Cl)c[nH]1

>  <score_type>  (46) 
oracle

>  <origin>  (46) 
adg

>  <m_score__min__energy>  (46) 
-12.93

>  <m_primary>  (46) 
energy

$$$$
46:0
     RDKit          3D

 50 52  0  0  0  0  0  0  0  0999 V2000
   54.1200   25.9700   45.7790 N   0  0  0  0  0  0  0  0  0  0  0  0
   54.6740   24.3450   45.6000 S   0  0  0  0  0  0  0  0  0  0  0  0
   54.1320   23.4980   46.7180 O   0  0  0  0  0  0  0  0  0  0  0  0
   54.1790   23.7930   44.2910 O   0  0  0  0  0  0  0  0  0  0  0  0
   56.4330   24.3170   45.6410 C   0  0  0  0  0  0  0  0  0  0  0  0
   57.1260   23.1030   45.5580 C   0  0  0  0  0  0  0  0  0  0  0  0
   58.5240   23.0900   45.5580 C   0  0  0  0  0  0  0  0  0  0  0  0
   59.2350   24.2900   45.6400 C   0  0  0  0  0  0  0  0  0  0  0  0
   58.5570   25.5140   45.7370 C   0  0  0  0  0  0  0  0  0  0  0  0
   59.3140   26.7360   45.7830 N   0  0  0  0  0  0  0  0  0  0  0  0
   58.9950   27.8490   46.6350 C   0  0  0  0  0  0  0  0  0  0  0  0
   58.1790   27.7150   47.5880 O   0  0  0  0  0  0  0  0  0  0  0  0
   59.7150   29.1520   46.4640 C   0  0  0  0  0  0  0  0  0  0  0  0
   58.9030   30.0850   45.6080 C   0  0  0  0  0  0  0  0  0  0  0  0
   58.1750   29.5920   44.5150 C   0  0  0  0  0  0  0  0  0  0  0  0
   57.4260   30.4620   43.7180 C   0  0  0  0  0  0  0  0  0  0  0  0
   57.3940   31.8270   44.0090 C   0  0  0  0  0  0  0  0  0  0  0  0
   58.1050   32.3300   45.1050 C   0  0  0  0  0  0  0  0  0  0  0  0
   58.1070   34.0630   45.4210 S   0  0  0  0  0  0  0  0  0  0  0  0
   56.7440   34.6440   45.1530 O   0  0  0  0  0  0  0  0  0  0  0  0
   59.0910   34.7200   44.4960 O   0  0  0  0  0  0  0  0  0  0  0  0
   58.5770   34.3800   47.0660 N   0  0  0  0  0  0  0  0  0  0  0  0
   59.9350   34.9270   47.1390 C   0  0  0  0  0  0  0  0  0  0  0  0
   60.9440   33.8450   47.4250 C   0  0  0  0  0  0  0  0  0  0  0  0
   60.6550   32.8270   48.3510 C   0  0  0  0  0  0  0  0  0  0  0  0
   61.6100   31.8460   48.6420 C   0  0  0  0  0  0  0  0  0  0  0  0
   62.8510   31.8640   47.9970 C   0  0  0  0  0  0  0  0  0  0  0  0
   63.1340   32.8530   47.0530 C   0  0  0  0  0  0  0  0  0  0  0  0
   62.1830   33.8370   46.7600 C   0  0  0  0  0  0  0  0  0  0  0  0
   58.8510   31.4560   45.9080 C   0  0  0  0  0  0  0  0  0  0  0  0
   57.1490   25.5210   45.7220 C   0  0  0  0  0  0  0  0  0  0  0  0
   54.7930   26.5810   45.2590 H   0  0  0  0  0  0  0  0  0  0  0  0
   56.5688   22.1568   45.4926 H   0  0  0  0  0  0  0  0  0  0  0  0
   59.0647   22.1342   45.4934 H   0  0  0  0  0  0  0  0  0  0  0  0
   60.3348   24.2747   45.6284 H   0  0  0  0  0  0  0  0  0  0  0  0
   60.1960   26.7850   45.2260 H   0  0  0  0  0  0  0  0  0  0  0  0
   59.8753   29.6109   47.4508 H   0  0  0  0  0  0  0  0  0  0  0  0
   60.6826   28.9662   45.9749 H   0  0  0  0  0  0  0  0  0  0  0  0
   58.1937   28.5166   44.2843 H   0  0  0  0  0  0  0  0  0  0  0  0
   56.8605   30.0704   42.8596 H   0  0  0  0  0  0  0  0  0  0  0  0
   56.8084   32.5093   43.3753 H   0  0  0  0  0  0  0  0  0  0  0  0
   60.1821   35.4032   46.1787 H   0  0  0  0  0  0  0  0  0  0  0  0
   59.9710   35.6616   47.9570 H   0  0  0  0  0  0  0  0  0  0  0  0
   59.6744   32.8015   48.8487 H   0  0  0  0  0  0  0  0  0  0  0  0
   61.3845   31.0605   49.3783 H   0  0  0  0  0  0  0  0  0  0  0  0
   63.6046   31.0984   48.2337 H   0  0  0  0  0  0  0  0  0  0  0  0
   64.1063   32.8588   46.5386 H   0  0  0  0  0  0  0  0  0  0  0  0
   62.4055   34.6071   46.0067 H   0  0  0  0  0  0  0  0  0  0  0  0
   59.3989   31.8464   46.7783 H   0  0  0  0  0  0  0  0  0  0  0  0
   56.6068   26.4767   45.7741 H   0  0  0  0  0  0  0  0  0  0  0  0
  1  2  1  0
  2  3  2  0
  2  4  2  0
  2  5  1  0
  5  6  2  0
  6  7  1  0
  7  8  2  0
  8  9  1  0
  9 10  1  0
 10 11  1  0
 11 12  2  0
 11 13  1  0
 13 14  1  0
 14 15  2  0
 15 16  1  0
 16 17  2  0
 17 18  1  0
 18 19  1  0
 19 20  2  0
 19 21  2  0
 19 22  1  0
 22 23  1  0
 23 24  1  0
 24 25  2  0
 25 26  1  0
 26 27  2  0
 27 28  1  0
 28 29  2  0
 18 30  2  0
  9 31  2  0
 31  5  1  0
 30 14  1  0
 29 24  1  0
  1 32  1  0
  6 33  1  0
  7 34  1  0
  8 35  1  0
 10 36  1  0
 13 37  1  0
 13 38  1  0
 15 39  1  0
 16 40  1  0
 17 41  1  0
 23 42  1  0
 23 43  1  0
 25 44  1  0
 26 45  1  0
 27 46  1  0
 28 47  1  0
 29 48  1  0
 30 49  1  0
 31 50  1  0
M  CHG  2   1  -1  22  -1
M  END
>  <UniqueID>  (47) 
41

>  <SMILES>  (47) 
[NH-]S(=O)(=O)c1cccc(NC(=O)Cc2cccc(S(=O)(=O)[N-]Cc3ccccc3)c2)c1

>  <Energy>  (47) 
48.80203652009044

>  <Genealogy>  (47) 
[NH-]S(=O)(=O)c1cccc(NC(=O)Cc2cccc(S(=O)(=O)[N-]Cc3ccccc3)c2)c1 (protonated)
[NH-]S(=O)(=O)c1cccc(NC(=O)Cc2cccc(S(=O)(=O)[N-]Cc3ccccc3)c2)c1 (3D coordinates assigned)
[NH-]S(=O)(=O)c1cccc(NC(=O)Cc2cccc(S(=O)(=O)[N-]Cc3ccccc3)c2)c1 (optimized conformer: 48.80203652009044 kcal/mol)

>  <smiles>  (47) 
NS(=O)(=O)c1cccc(NC(=O)Cc2cccc(S(=O)(=O)NCc3ccccc3)c2)c1

>  <score_type>  (47) 
oracle

>  <origin>  (47) 
adg

>  <m_score__min__energy>  (47) 
-14.460000000000001

>  <m_primary>  (47) 
energy

$$$$
47:0
     RDKit          3D

 58 61  0  0  0  0  0  0  0  0999 V2000
   58.1000   26.7360   42.6240 C   0  0  0  0  0  0  0  0  0  0  0  0
   58.1700   26.8120   44.1460 C   0  0  0  0  0  0  0  0  0  0  0  0
   58.0330   28.2040   44.5950 N   0  0  0  0  0  0  0  0  0  0  0  0
   56.6990   28.7590   44.8530 C   0  0  0  0  0  0  0  0  0  0  0  0
   56.5280   30.0470   44.1130 C   0  0  0  0  0  0  0  0  0  0  0  0
   56.6640   30.0610   42.8600 O   0  0  0  0  0  0  0  0  0  0  0  0
   56.3000   31.2550   44.8490 N   0  0  0  0  0  0  0  0  0  0  0  0
   57.1860   32.3790   44.9760 C   0  0  0  0  0  0  0  0  0  0  0  0
   57.0920   33.1730   46.1280 C   0  0  0  0  0  0  0  0  0  0  0  0
   57.9250   34.2840   46.2920 C   0  0  0  0  0  0  0  0  0  0  0  0
   58.8510   34.6170   45.2990 C   0  0  0  0  0  0  0  0  0  0  0  0
   59.6570   35.6950   45.4580 F   0  0  0  0  0  0  0  0  0  0  0  0
   58.9370   33.8450   44.1380 C   0  0  0  0  0  0  0  0  0  0  0  0
   58.1040   32.7360   43.9680 C   0  0  0  0  0  0  0  0  0  0  0  0
   59.1970   28.9380   45.0180 C   0  0  0  0  0  0  0  0  0  0  0  0
   60.0560   29.2740   44.1600 O   0  0  0  0  0  0  0  0  0  0  0  0
   59.4060   29.2900   46.4420 C   0  0  0  0  0  0  0  0  0  0  0  0
   59.0870   30.5740   46.9190 C   0  0  0  0  0  0  0  0  0  0  0  0
   59.2930   30.9020   48.2610 C   0  0  0  0  0  0  0  0  0  0  0  0
   59.8240   29.9620   49.1500 C   0  0  0  0  0  0  0  0  0  0  0  0
   60.0140   30.3410   50.5210 N   0  0  0  0  0  0  0  0  0  0  0  0
   61.2680   30.5950   51.1660 C   0  0  0  0  0  0  0  0  0  0  0  0
   61.9910   29.6460   51.5700 O   0  0  0  0  0  0  0  0  0  0  0  0
   61.7420   32.0060   51.3240 C   0  0  0  0  0  0  0  0  0  0  0  0
   62.7350   32.3390   50.2530 C   0  0  0  0  0  0  0  0  0  0  0  0
   64.1030   32.0910   50.2810 C   0  0  0  0  0  0  0  0  0  0  0  0
   64.6760   32.4650   49.1130 N   0  0  0  0  0  0  0  0  0  0  0  0
   63.6780   32.9370   48.3450 C   0  0  0  0  0  0  0  0  0  0  0  0
   63.7740   33.4230   47.0410 C   0  0  0  0  0  0  0  0  0  0  0  0
   62.5900   33.8530   46.4130 C   0  0  0  0  0  0  0  0  0  0  0  0
   61.3540   33.7920   47.0950 C   0  0  0  0  0  0  0  0  0  0  0  0
   61.2880   33.2940   48.4100 C   0  0  0  0  0  0  0  0  0  0  0  0
   62.4770   32.8730   49.0050 C   0  0  0  0  0  0  0  0  0  0  0  0
   60.1000   28.6630   48.6900 C   0  0  0  0  0  0  0  0  0  0  0  0
   59.8970   28.3330   47.3470 C   0  0  0  0  0  0  0  0  0  0  0  0
   57.3822   25.9567   42.3284 H   0  0  0  0  0  0  0  0  0  0  0  0
   57.7730   27.7067   42.2231 H   0  0  0  0  0  0  0  0  0  0  0  0
   59.0943   26.4898   42.2231 H   0  0  0  0  0  0  0  0  0  0  0  0
   57.3563   26.2102   44.5770 H   0  0  0  0  0  0  0  0  0  0  0  0
   59.1438   26.4235   44.4787 H   0  0  0  0  0  0  0  0  0  0  0  0
   55.9352   28.0421   44.5173 H   0  0  0  0  0  0  0  0  0  0  0  0
   56.5883   28.9452   45.9315 H   0  0  0  0  0  0  0  0  0  0  0  0
   56.3583   32.9202   46.9076 H   0  0  0  0  0  0  0  0  0  0  0  0
   57.8517   34.8963   47.2029 H   0  0  0  0  0  0  0  0  0  0  0  0
   59.6626   34.1109   43.3552 H   0  0  0  0  0  0  0  0  0  0  0  0
   58.1649   32.1403   43.0453 H   0  0  0  0  0  0  0  0  0  0  0  0
   58.6724   31.3251   46.2305 H   0  0  0  0  0  0  0  0  0  0  0  0
   59.0353   31.9087   48.6219 H   0  0  0  0  0  0  0  0  0  0  0  0
   60.8829   32.6889   51.2486 H   0  0  0  0  0  0  0  0  0  0  0  0
   62.2228   32.1161   52.3072 H   0  0  0  0  0  0  0  0  0  0  0  0
   64.6436   31.6525   51.1327 H   0  0  0  0  0  0  0  0  0  0  0  0
   65.6850   32.3910   48.8600 H   0  0  0  0  0  0  0  0  0  0  0  0
   64.7423   33.4687   46.5211 H   0  0  0  0  0  0  0  0  0  0  0  0
   62.6272   34.2394   45.3838 H   0  0  0  0  0  0  0  0  0  0  0  0
   60.4368   34.1361   46.5948 H   0  0  0  0  0  0  0  0  0  0  0  0
   60.3312   33.2388   48.9499 H   0  0  0  0  0  0  0  0  0  0  0  0
   60.4774   27.9028   49.3898 H   0  0  0  0  0  0  0  0  0  0  0  0
   60.1234   27.3156   46.9953 H   0  0  0  0  0  0  0  0  0  0  0  0
  1  2  1  0
  2  3  1  0
  3  4  1  0
  4  5  1  0
  5  6  2  0
  5  7  1  0
  7  8  1  0
  8  9  2  0
  9 10  1  0
 10 11  2  0
 11 12  1  0
 11 13  1  0
 13 14  2  0
  3 15  1  0
 15 16  2  0
 15 17  1  0
 17 18  2  0
 18 19  1  0
 19 20  2  0
 20 21  1  0
 21 22  1  0
 22 23  2  0
 22 24  1  0
 24 25  1  0
 25 26  2  0
 26 27  1  0
 27 28  1  0
 28 29  2  0
 29 30  1  0
 30 31  2  0
 31 32  1  0
 32 33  2  0
 20 34  1  0
 34 35  2  0
 14  8  1  0
 35 17  1  0
 33 25  1  0
 33 28  1  0
  1 36  1  0
  1 37  1  0
  1 38  1  0
  2 39  1  0
  2 40  1  0
  4 41  1  0
  4 42  1  0
  9 43  1  0
 10 44  1  0
 13 45  1  0
 14 46  1  0
 18 47  1  0
 19 48  1  0
 24 49  1  0
 24 50  1  0
 26 51  1  0
 27 52  1  0
 29 53  1  0
 30 54  1  0
 31 55  1  0
 32 56  1  0
 34 57  1  0
 35 58  1  0
M  CHG  2   7  -1  21  -1
M  END
>  <UniqueID>  (48) 
42

>  <SMILES>  (48) 
CCN(CC(=O)[N-]c1ccc(F)cc1)C(=O)c1ccc([N-]C(=O)Cc2c[nH]c3ccccc23)cc1

>  <Energy>  (48) 
99.21231006184081

>  <Genealogy>  (48) 
CCN(CC(=O)[N-]c1ccc(F)cc1)C(=O)c1ccc([N-]C(=O)Cc2c[nH]c3ccccc23)cc1 (protonated)
CCN(CC(=O)[N-]c1ccc(F)cc1)C(=O)c1ccc([N-]C(=O)Cc2c[nH]c3ccccc23)cc1 (3D coordinates assigned)
CCN(CC(=O)[N-]c1ccc(F)cc1)C(=O)c1ccc([N-]C(=O)Cc2c[nH]c3ccccc23)cc1 (optimized conformer: 99.21231006184081 kcal/mol)

>  <smiles>  (48) 
CCN(CC(=O)Nc1ccc(F)cc1)C(=O)c1ccc(NC(=O)Cc2c[nH]c3ccccc23)cc1

>  <score_type>  (48) 
oracle

>  <origin>  (48) 
adg

>  <m_score__min__energy>  (48) 
-12.42

>  <m_primary>  (48) 
energy

$$$$
48:0
     RDKit          3D

 27 28  0  0  0  0  0  0  0  0999 V2000
   55.5880   26.8930   45.9980 N   0  0  0  0  0  0  0  0  0  0  0  0
   57.0090   26.7250   46.0900 C   0  0  0  0  0  0  0  0  0  0  0  0
   57.5330   25.7620   46.9660 C   0  0  0  0  0  0  0  0  0  0  0  0
   58.9130   25.5760   47.0680 C   0  0  0  0  0  0  0  0  0  0  0  0
   59.7810   26.3440   46.2910 C   0  0  0  0  0  0  0  0  0  0  0  0
   59.2720   27.3070   45.4160 C   0  0  0  0  0  0  0  0  0  0  0  0
   57.8840   27.5220   45.3210 C   0  0  0  0  0  0  0  0  0  0  0  0
   57.3400   28.4900   44.4100 N   0  0  0  0  0  0  0  0  0  0  0  0
   56.6440   29.6960   44.7550 C   0  0  0  0  0  0  0  0  0  0  0  0
   55.3850   29.7040   44.8030 O   0  0  0  0  0  0  0  0  0  0  0  0
   57.4160   30.9320   45.0330 C   0  0  0  0  0  0  0  0  0  0  0  0
   57.8260   31.1870   46.3570 C   0  0  0  0  0  0  0  0  0  0  0  0
   58.5400   32.3460   46.6760 C   0  0  0  0  0  0  0  0  0  0  0  0
   59.0740   32.6720   48.4800 Br  0  0  0  0  0  0  0  0  0  0  0  0
   58.8610   33.2640   45.6770 C   0  0  0  0  0  0  0  0  0  0  0  0
   58.4730   33.0260   44.3590 C   0  0  0  0  0  0  0  0  0  0  0  0
   57.7570   31.8690   44.0240 C   0  0  0  0  0  0  0  0  0  0  0  0
   57.3490   31.6140   42.1630 Br  0  0  0  0  0  0  0  0  0  0  0  0
   55.1540   27.5060   45.2730 H   0  0  0  0  0  0  0  0  0  0  0  0
   54.9510   26.4000   46.6630 H   0  0  0  0  0  0  0  0  0  0  0  0
   56.8524   25.1500   47.5760 H   0  0  0  0  0  0  0  0  0  0  0  0
   59.3163   24.8234   47.7615 H   0  0  0  0  0  0  0  0  0  0  0  0
   60.8676   26.1910   46.3675 H   0  0  0  0  0  0  0  0  0  0  0  0
   59.9605   27.9012   44.7972 H   0  0  0  0  0  0  0  0  0  0  0  0
   57.5811   30.4648   47.1498 H   0  0  0  0  0  0  0  0  0  0  0  0
   59.4208   34.1768   45.9288 H   0  0  0  0  0  0  0  0  0  0  0  0
   58.7313   33.7531   43.5751 H   0  0  0  0  0  0  0  0  0  0  0  0
  1  2  1  0
  2  3  2  0
  3  4  1  0
  4  5  2  0
  5  6  1  0
  6  7  2  0
  7  8  1  0
  8  9  1  0
  9 10  2  0
  9 11  1  0
 11 12  2  0
 12 13  1  0
 13 14  1  0
 13 15  2  0
 15 16  1  0
 16 17  2  0
 17 18  1  0
  7  2  1  0
 17 11  1  0
  1 19  1  0
  1 20  1  0
  3 21  1  0
  4 22  1  0
  5 23  1  0
  6 24  1  0
 12 25  1  0
 15 26  1  0
 16 27  1  0
M  CHG  1   8  -1
M  END
>  <UniqueID>  (49) 
43

>  <SMILES>  (49) 
Nc1ccccc1[N-]C(=O)c1cc(Br)ccc1Br

>  <Energy>  (49) 
36.09130325839455

>  <Genealogy>  (49) 
Nc1ccccc1[N-]C(=O)c1cc(Br)ccc1Br (protonated)
Nc1ccccc1[N-]C(=O)c1cc(Br)ccc1Br (3D coordinates assigned)
Nc1ccccc1[N-]C(=O)c1cc(Br)ccc1Br (optimized conformer: 36.09130325839455 kcal/mol)

>  <smiles>  (49) 
Nc1ccccc1NC(=O)c1cc(Br)ccc1Br

>  <score_type>  (49) 
oracle

>  <origin>  (49) 
adg

>  <m_score__min__energy>  (49) 
-9.8699999999999992

>  <m_primary>  (49) 
energy

$$$$
49:0
     RDKit          3D

 46 47  0  0  0  0  0  0  0  0999 V2000
   60.4200   30.5500   47.0940 C   0  0  0  0  0  0  0  0  0  0  0  0
   59.2710   31.2930   46.7040 O   0  0  0  0  0  0  0  0  0  0  0  0
   59.2360   32.6430   46.3030 C   0  0  0  0  0  0  0  0  0  0  0  0
   58.8600   33.0620   44.9970 C   0  0  0  0  0  0  0  0  0  0  0  0
   58.4750   32.1120   44.0400 O   0  0  0  0  0  0  0  0  0  0  0  0
   57.1740   31.5410   43.9260 C   0  0  0  0  0  0  0  0  0  0  0  0
   57.1470   30.2250   44.6350 C   0  0  0  0  0  0  0  0  0  0  0  0
   56.0420   29.7610   45.0290 O   0  0  0  0  0  0  0  0  0  0  0  0
   58.3740   29.5400   44.9330 N   0  0  0  0  0  0  0  0  0  0  0  0
   58.4440   28.1780   45.3900 C   0  0  0  0  0  0  0  0  0  0  0  0
   59.6560   27.6120   45.8260 C   0  0  0  0  0  0  0  0  0  0  0  0
   59.6930   26.2910   46.2800 C   0  0  0  0  0  0  0  0  0  0  0  0
   58.5240   25.5290   46.3200 C   0  0  0  0  0  0  0  0  0  0  0  0
   57.3050   26.0890   45.9170 C   0  0  0  0  0  0  0  0  0  0  0  0
   55.8260   25.1340   45.9630 S   0  0  0  0  0  0  0  0  0  0  0  0
   54.4590   26.1900   45.9870 N   0  0  0  0  0  0  0  0  0  0  0  0
   55.7500   24.2470   44.7530 O   0  0  0  0  0  0  0  0  0  0  0  0
   55.8180   24.2720   47.1940 O   0  0  0  0  0  0  0  0  0  0  0  0
   57.2700   27.4130   45.4550 C   0  0  0  0  0  0  0  0  0  0  0  0
   58.8850   34.4350   44.6820 C   0  0  0  0  0  0  0  0  0  0  0  0
   59.2730   35.3760   45.6330 C   0  0  0  0  0  0  0  0  0  0  0  0
   59.6370   34.9690   46.9120 C   0  0  0  0  0  0  0  0  0  0  0  0
   59.6140   33.6110   47.2590 C   0  0  0  0  0  0  0  0  0  0  0  0
   59.9860   33.2170   48.5920 N   0  0  0  0  0  0  0  0  0  0  0  0
   61.3820   33.3290   49.0150 C   0  0  0  0  0  0  0  0  0  0  0  0
   59.0020   32.6220   49.4990 C   0  0  0  0  0  0  0  0  0  0  0  0
   60.4774   30.5129   48.1919 H   0  0  0  0  0  0  0  0  0  0  0  0
   60.3478   29.5271   46.6958 H   0  0  0  0  0  0  0  0  0  0  0  0
   61.3232   31.0355   46.6958 H   0  0  0  0  0  0  0  0  0  0  0  0
   56.4349   32.2177   44.3795 H   0  0  0  0  0  0  0  0  0  0  0  0
   56.9292   31.3920   42.8640 H   0  0  0  0  0  0  0  0  0  0  0  0
   59.2620   30.0890   44.8920 H   0  0  0  0  0  0  0  0  0  0  0  0
   60.5780   28.2117   45.8094 H   0  0  0  0  0  0  0  0  0  0  0  0
   60.6463   25.8501   46.6069 H   0  0  0  0  0  0  0  0  0  0  0  0
   58.5603   24.4864   46.6688 H   0  0  0  0  0  0  0  0  0  0  0  0
   54.7750   27.0900   46.4120 H   0  0  0  0  0  0  0  0  0  0  0  0
   56.3132   27.8554   45.1408 H   0  0  0  0  0  0  0  0  0  0  0  0
   58.5950   34.7674   43.6743 H   0  0  0  0  0  0  0  0  0  0  0  0
   59.2915   36.4443   45.3715 H   0  0  0  0  0  0  0  0  0  0  0  0
   59.9451   35.7179   47.6565 H   0  0  0  0  0  0  0  0  0  0  0  0
   61.4330   33.3331   50.1138 H   0  0  0  0  0  0  0  0  0  0  0  0
   61.9532   32.4738   48.6246 H   0  0  0  0  0  0  0  0  0  0  0  0
   61.8095   34.2643   48.6246 H   0  0  0  0  0  0  0  0  0  0  0  0
   59.3053   32.8054   50.5404 H   0  0  0  0  0  0  0  0  0  0  0  0
   58.0161   33.0754   49.3189 H   0  0  0  0  0  0  0  0  0  0  0  0
   58.9456   31.5383   49.3189 H   0  0  0  0  0  0  0  0  0  0  0  0
  1  2  1  0
  2  3  1  0
  3  4  2  0
  4  5  1  0
  5  6  1  0
  6  7  1  0
  7  8  2  0
  7  9  1  0
  9 10  1  0
 10 11  2  0
 11 12  1  0
 12 13  2  0
 13 14  1  0
 14 15  1  0
 15 16  1  0
 15 17  2  0
 15 18  2  0
 14 19  2  0
  4 20  1  0
 20 21  2  0
 21 22  1  0
 22 23  2  0
 23 24  1  0
 24 25  1  0
 24 26  1  0
 23  3  1  0
 19 10  1  0
  1 27  1  0
  1 28  1  0
  1 29  1  0
  6 30  1  0
  6 31  1  0
  9 32  1  0
 11 33  1  0
 12 34  1  0
 13 35  1  0
 16 36  1  0
 19 37  1  0
 20 38  1  0
 21 39  1  0
 22 40  1  0
 25 41  1  0
 25 42  1  0
 25 43  1  0
 26 44  1  0
 26 45  1  0
 26 46  1  0
M  CHG  1  16  -1
M  END
>  <UniqueID>  (50) 
44

>  <SMILES>  (50) 
COc1c(OCC(=O)Nc2cccc(S([NH-])(=O)=O)c2)cccc1N(C)C

>  <Energy>  (50) 
52.95128297363858

>  <Genealogy>  (50) 
COc1c(OCC(=O)Nc2cccc(S([NH-])(=O)=O)c2)cccc1N(C)C (protonated)
COc1c(OCC(=O)Nc2cccc(S([NH-])(=O)=O)c2)cccc1N(C)C (3D coordinates assigned)
COc1c(OCC(=O)Nc2cccc(S([NH-])(=O)=O)c2)cccc1N(C)C (optimized conformer: 52.95128297363858 kcal/mol)

>  <smiles>  (50) 
COc1c(OCC(=O)Nc2cccc(S(N)(=O)=O)c2)cccc1N(C)C

>  <score_type>  (50) 
oracle

>  <origin>  (50) 
adg

>  <m_score__min__energy>  (50) 
-10.630000000000001

>  <m_primary>  (50) 
energy

$$$$
50:0
     RDKit          3D

 40 42  0  0  1  0  0  0  0  0999 V2000
   62.0660   31.7260   49.9330 C   0  0  0  0  0  0  0  0  0  0  0  0
   60.9630   30.7410   49.7850 C   0  0  0  0  0  0  0  0  0  0  0  0
   61.0500   29.7260   48.8770 C   0  0  0  0  0  0  0  0  0  0  0  0
   59.9940   28.8470   48.7900 C   0  0  0  0  0  0  0  0  0  0  0  0
   60.0330   27.8820   47.9580 N   0  0  0  0  0  0  0  0  0  0  0  0
   59.0400   27.5990   46.9800 C   0  0  0  0  0  0  0  0  0  0  0  0
   58.8210   26.3290   46.4850 C   0  0  0  0  0  0  0  0  0  0  0  0
   57.8390   26.1240   45.5390 C   0  0  0  0  0  0  0  0  0  0  0  0
   57.5380   24.8210   44.9640 C   0  0  0  0  0  0  0  0  0  0  0  0
   57.8310   23.6270   45.6030 C   0  0  0  0  0  0  0  0  0  0  0  0
   57.5310   22.3930   45.0250 C   0  0  0  0  0  0  0  0  0  0  0  0
   56.9250   22.3430   43.7820 C   0  0  0  0  0  0  0  0  0  0  0  0
   56.6340   21.1070   43.2260 O   0  0  0  0  0  0  0  0  0  0  0  0
   56.6240   23.5220   43.1280 C   0  0  0  0  0  0  0  0  0  0  0  0
   56.9300   24.7300   43.7160 C   0  0  0  0  0  0  0  0  0  0  0  0
   57.0990   27.2040   45.1100 C   0  0  0  0  0  0  0  0  0  0  0  0
   57.2980   28.4920   45.5900 C   0  0  0  0  0  0  0  0  0  0  0  0
   56.4840   29.5490   45.0900 N   0  0  0  0  0  0  0  0  0  0  0  0
   56.9490   30.6680   44.9040 O   0  0  0  0  0  0  0  0  0  0  0  0
   55.1580   29.3240   44.8110 O   0  0  0  0  0  0  0  0  0  0  0  0
   58.2750   28.6720   46.5260 C   0  0  0  0  0  0  0  0  0  0  0  0
   58.9000   28.9630   49.5640 N   0  0  0  0  0  0  0  0  0  0  0  0
   58.8250   29.9680   50.4540 C   0  0  0  0  0  0  0  0  0  0  0  0
   57.7750   30.0890   51.2060 N   0  0  0  0  0  0  0  0  0  0  0  0
   59.8540   30.8470   50.5580 N   0  0  0  0  0  0  0  0  0  0  0  0
   62.2611   31.9002   51.0014 H   0  0  0  0  0  0  0  0  0  0  0  0
   62.9749   31.3335   49.4535 H   0  0  0  0  0  0  0  0  0  0  0  0
   61.7784   32.6733   49.4535 H   0  0  0  0  0  0  0  0  0  0  0  0
   61.9360   29.6137   48.2348 H   0  0  0  0  0  0  0  0  0  0  0  0
   59.4273   25.4842   46.8437 H   0  0  0  0  0  0  0  0  0  0  0  0
   58.3126   23.6526   46.5916 H   0  0  0  0  0  0  0  0  0  0  0  0
   57.7758   21.4616   45.5565 H   0  0  0  0  0  0  0  0  0  0  0  0
   57.2790   20.3450   43.3730 H   0  0  0  0  0  0  0  0  0  0  0  0
   56.1411   23.4965   42.1400 H   0  0  0  0  0  0  0  0  0  0  0  0
   56.6842   25.6576   43.1782 H   0  0  0  0  0  0  0  0  0  0  0  0
   56.3166   27.0390   44.3546 H   0  0  0  0  0  0  0  0  0  0  0  0
   58.4614   29.6788   46.9280 H   0  0  0  0  0  0  0  0  0  0  0  0
   58.1270   28.2770   49.4630 H   0  0  0  0  0  0  0  0  0  0  0  0
   57.9110   29.8250   52.2170 H   0  0  0  0  0  0  0  0  0  0  0  0
   59.7530   31.5970   51.2510 H   0  0  0  0  0  0  0  0  0  0  0  0
  1  2  1  0
  2  3  2  0
  3  4  1  0
  4  5  2  0
  5  6  1  0
  6  7  2  0
  7  8  1  0
  8  9  1  0
  9 10  2  0
 10 11  1  0
 11 12  2  0
 12 13  1  0
 12 14  1  0
 14 15  2  0
  8 16  2  0
 16 17  1  0
 17 18  1  0
 18 19  2  0
 18 20  1  0
 17 21  2  0
  4 22  1  0
 22 23  1  0
 23 24  2  3
 23 25  1  0
 25  2  1  0
 21  6  1  0
 15  9  1  0
  1 26  1  0
  1 27  1  0
  1 28  1  0
  3 29  1  0
  7 30  1  0
 10 31  1  0
 11 32  1  0
 13 33  1  0
 14 34  1  0
 15 35  1  0
 16 36  1  0
 21 37  1  0
 22 38  1  0
 24 39  1  0
 25 40  1  0
M  CHG  2  18   1  20  -1
M  END
>  <smiles>  (51) 
Cc1cc(=Nc2cc(-c3ccc(O)cc3)cc([N+](=O)[O-])c2)[nH]c(=N)[nH]1

>  <score_type>  (51) 
oracle

>  <origin>  (51) 
adg

>  <m_score__min__energy>  (51) 
-7.9800000000000004

>  <m_primary>  (51) 
energy

$$$$
51:0
     RDKit          3D

 52 55  0  0  0  0  0  0  0  0999 V2000
   57.1107   28.8987   47.0016 H   0  0  0  0  0  0  0  0  0  0  0  0
   57.3950   28.3160   46.1130 C   0  0  0  0  0  0  0  0  0  0  0  0
   57.7290   27.0040   46.2410 N   0  0  0  0  0  0  0  0  0  0  0  0
   58.0980   26.2360   45.1800 C   0  0  0  0  0  0  0  0  0  0  0  0
   58.3870   24.9820   45.3910 N   0  0  0  0  0  0  0  0  0  0  0  0
   57.9150   23.8450   44.6510 C   0  0  0  0  0  0  0  0  0  0  0  0
   56.7460   23.9600   43.8870 C   0  0  0  0  0  0  0  0  0  0  0  0
   56.2195   24.9243   43.8330 H   0  0  0  0  0  0  0  0  0  0  0  0
   56.2460   22.8540   43.1930 C   0  0  0  0  0  0  0  0  0  0  0  0
   55.3390   22.9547   42.5788 H   0  0  0  0  0  0  0  0  0  0  0  0
   56.8980   21.6200   43.2790 C   0  0  0  0  0  0  0  0  0  0  0  0
   56.4090   20.5460   42.6100 F   0  0  0  0  0  0  0  0  0  0  0  0
   58.0450   21.4890   44.0670 C   0  0  0  0  0  0  0  0  0  0  0  0
   58.5518   20.5156   44.1424 H   0  0  0  0  0  0  0  0  0  0  0  0
   58.5490   22.5950   44.7600 C   0  0  0  0  0  0  0  0  0  0  0  0
   59.4431   22.4863   45.3914 H   0  0  0  0  0  0  0  0  0  0  0  0
   58.1220   26.8150   43.8950 C   0  0  0  0  0  0  0  0  0  0  0  0
   58.4010   26.2101   43.0196 H   0  0  0  0  0  0  0  0  0  0  0  0
   57.7890   28.1620   43.7420 C   0  0  0  0  0  0  0  0  0  0  0  0
   57.8229   28.6241   42.7443 H   0  0  0  0  0  0  0  0  0  0  0  0
   57.4120   28.9280   44.8520 C   0  0  0  0  0  0  0  0  0  0  0  0
   57.0730   30.3580   44.6880 C   0  0  0  0  0  0  0  0  0  0  0  0
   55.8680   30.6700   44.4690 O   0  0  0  0  0  0  0  0  0  0  0  0
   58.0740   31.3940   44.7930 N   0  0  0  0  0  0  0  0  0  0  0  0
   59.2720   31.2060   45.6310 C   0  0  0  0  0  0  0  0  0  0  0  0
   60.0730   30.7632   45.0209 H   0  0  0  0  0  0  0  0  0  0  0  0
   59.0157   30.5400   46.4682 H   0  0  0  0  0  0  0  0  0  0  0  0
   59.7550   32.5460   46.1990 C   0  0  0  0  0  0  0  0  0  0  0  0
   60.3664   33.0678   45.4480 H   0  0  0  0  0  0  0  0  0  0  0  0
   60.3643   32.3745   47.0986 H   0  0  0  0  0  0  0  0  0  0  0  0
   58.5770   33.3670   46.5380 N   0  0  0  0  0  0  0  0  0  0  0  0
   58.8770   34.4780   47.4660 C   0  0  0  0  0  0  0  0  0  0  0  0
   57.9434   34.7738   47.9669 H   0  0  0  0  0  0  0  0  0  0  0  0
   59.3067   35.2923   46.8642 H   0  0  0  0  0  0  0  0  0  0  0  0
   59.8920   34.1280   48.5210 C   0  0  0  0  0  0  0  0  0  0  0  0
   61.2680   34.2110   48.4090 C   0  0  0  0  0  0  0  0  0  0  0  0
   61.8253   34.5425   47.5204 H   0  0  0  0  0  0  0  0  0  0  0  0
   61.8060   33.8150   49.5780 N   0  0  0  0  0  0  0  0  0  0  0  0
   63.2310   33.6860   49.8620 C   0  0  0  0  0  0  0  0  0  0  0  0
   63.3881   33.6718   50.9506 H   0  0  0  0  0  0  0  0  0  0  0  0
   63.6088   32.7500   49.4248 H   0  0  0  0  0  0  0  0  0  0  0  0
   63.7707   34.5390   49.4248 H   0  0  0  0  0  0  0  0  0  0  0  0
   60.8380   33.4660   50.4110 N   0  0  0  0  0  0  0  0  0  0  0  0
   60.9840   33.0980   51.3760 H   0  0  0  0  0  0  0  0  0  0  0  0
   59.6530   33.6560   49.8010 C   0  0  0  0  0  0  0  0  0  0  0  0
   58.6636   33.4684   50.2437 H   0  0  0  0  0  0  0  0  0  0  0  0
   57.8110   33.7930   45.3430 C   0  0  0  0  0  0  0  0  0  0  0  0
   58.2519   34.7221   44.9527 H   0  0  0  0  0  0  0  0  0  0  0  0
   56.7651   33.9428   45.6490 H   0  0  0  0  0  0  0  0  0  0  0  0
   57.8290   32.7280   44.2270 C   0  0  0  0  0  0  0  0  0  0  0  0
   58.6271   32.9690   43.5094 H   0  0  0  0  0  0  0  0  0  0  0  0
   56.8523   32.7261   43.7211 H   0  0  0  0  0  0  0  0  0  0  0  0
  1  2  1  0
  2  3  1  0
  3  4  1  0
  4  5  2  0
  5  6  1  0
  6  7  2  0
  7  8  1  0
  7  9  1  0
  9 10  1  0
  9 11  2  0
 11 12  1  0
 11 13  1  0
 13 14  1  0
 13 15  2  0
 15 16  1  0
  4 17  1  0
 17 18  1  0
 17 19  2  0
 19 20  1  0
 19 21  1  0
 21 22  1  0
 22 23  2  0
 22 24  1  0
 24 25  1  0
 25 26  1  0
 25 27  1  0
 25 28  1  0
 28 29  1  0
 28 30  1  0
 28 31  1  0
 31 32  1  0
 32 33  1  0
 32 34  1  0
 32 35  1  0
 35 36  2  0
 36 37  1  0
 36 38  1  0
 38 39  1  0
 39 40  1  0
 39 41  1  0
 39 42  1  0
 38 43  1  0
 43 44  1  0
 43 45  2  0
 45 46  1  0
 31 47  1  0
 47 48  1  0
 47 49  1  0
 47 50  1  0
 50 51  1  0
 50 52  1  0
 21  2  2  0
 50 24  1  0
 15  6  1  0
 45 35  1  0
M  CHG  2   3  -1  43   1
M  END
>  <UniqueID>  (52) 
45

>  <SMILES>  (52) 
Cn1cc(CN2CCN(C(=O)c3cc/c(=N\c4ccc(F)cc4)[n-]c3)CC2)c[nH+]1

>  <Energy>  (52) 
108.40231073893442

>  <Genealogy>  (52) 
Cn1cc(CN2CCN(C(=O)c3ccc(=Nc4ccc(F)cc4)[n-]c3)CC2)c[nH+]1 (protonated)
Cn1cc(CN2CCN(C(=O)c3cc/c(=N\c4ccc(F)cc4)[n-]c3)CC2)c[nH+]1 (cis-trans isomerization)
Cn1cc(CN2CCN(C(=O)c3cc/c(=N\c4ccc(F)cc4)[n-]c3)CC2)c[nH+]1 (3D coordinates assigned)
Cn1cc(CN2CCN(C(=O)c3cc/c(=N\c4ccc(F)cc4)[n-]c3)CC2)c[nH+]1 (nonaromatic ring conformer: 108.40231073893442 kcal/mol)

>  <smiles>  (52) 
Cn1cc(CN2CCN(C(=O)c3ccc(=Nc4ccc(F)cc4)[nH]c3)CC2)cn1

>  <score_type>  (52) 
oracle

>  <origin>  (52) 
adg

>  <m_score__min__energy>  (52) 
-8.5299999999999994

>  <m_primary>  (52) 
energy

$$$$
52:0
     RDKit          3D

 28 31  0  0  0  0  0  0  0  0999 V2000
   55.1420   26.5230   46.0000 O   0  0  0  0  0  0  0  0  0  0  0  0
   56.2500   25.9250   45.9950 C   0  0  0  0  0  0  0  0  0  0  0  0
   56.2750   24.5890   46.2640 N   0  0  0  0  0  0  0  0  0  0  0  0
   57.4340   23.8800   46.2760 C   0  0  0  0  0  0  0  0  0  0  0  0
   58.6430   24.5150   46.0090 C   0  0  0  0  0  0  0  0  0  0  0  0
   58.6520   25.8800   45.7310 C   0  0  0  0  0  0  0  0  0  0  0  0
   57.4550   26.6200   45.7170 C   0  0  0  0  0  0  0  0  0  0  0  0
   57.5190   28.0800   45.4120 C   0  0  0  0  0  0  0  0  0  0  0  0
   58.0250   29.1070   46.2300 C   0  0  0  0  0  0  0  0  0  0  0  0
   57.8690   30.2340   45.5320 N   0  0  0  0  0  0  0  0  0  0  0  0
   57.3120   29.9130   44.3820 C   0  0  0  0  0  0  0  0  0  0  0  0
   57.0640   28.6010   44.2330 N   0  0  0  0  0  0  0  0  0  0  0  0
   57.0420   31.2380   43.3700 S   0  0  0  0  0  0  0  0  0  0  0  0
   57.7130   32.2810   44.5510 C   0  0  0  0  0  0  0  0  0  0  0  0
   57.8770   33.6630   44.4910 C   0  0  0  0  0  0  0  0  0  0  0  0
   58.4580   34.3120   45.5950 C   0  0  0  0  0  0  0  0  0  0  0  0
   58.8620   33.5760   46.7280 C   0  0  0  0  0  0  0  0  0  0  0  0
   58.6910   32.1820   46.7750 C   0  0  0  0  0  0  0  0  0  0  0  0
   58.1130   31.5530   45.6730 C   0  0  0  0  0  0  0  0  0  0  0  0
   55.3810   24.0880   46.4680 H   0  0  0  0  0  0  0  0  0  0  0  0
   57.4165   22.8026   46.4971 H   0  0  0  0  0  0  0  0  0  0  0  0
   59.5833   23.9442   46.0174 H   0  0  0  0  0  0  0  0  0  0  0  0
   59.6059   26.3854   45.5199 H   0  0  0  0  0  0  0  0  0  0  0  0
   58.4588   29.0028   47.2354 H   0  0  0  0  0  0  0  0  0  0  0  0
   57.5606   34.2313   43.6040 H   0  0  0  0  0  0  0  0  0  0  0  0
   58.5985   35.4028   45.5746 H   0  0  0  0  0  0  0  0  0  0  0  0
   59.3154   34.0982   47.5834 H   0  0  0  0  0  0  0  0  0  0  0  0
   59.0043   31.6033   47.6564 H   0  0  0  0  0  0  0  0  0  0  0  0
  1  2  2  0
  2  3  1  0
  3  4  1  0
  4  5  2  0
  5  6  1  0
  6  7  2  0
  7  8  1  0
  8  9  2  0
  9 10  1  0
 10 11  1  0
 11 12  2  0
 11 13  1  0
 13 14  1  0
 14 15  2  0
 15 16  1  0
 16 17  2  0
 17 18  1  0
 18 19  2  0
  7  2  1  0
 12  8  1  0
 19 14  1  0
 19 10  1  0
  3 20  1  0
  4 21  1  0
  5 22  1  0
  6 23  1  0
  9 24  1  0
 15 25  1  0
 16 26  1  0
 17 27  1  0
 18 28  1  0
M  END
>  <UniqueID>  (53) 
46

>  <SMILES>  (53) 
O=c1[nH]cccc1-c1cn2c(n1)sc1ccccc12

>  <Energy>  (53) 
121.27073377630894

>  <Genealogy>  (53) 
O=c1[nH]cccc1-c1cn2c(n1)sc1ccccc12 (3D coordinates assigned)
O=c1[nH]cccc1-c1cn2c(n1)sc1ccccc12 (optimized conformer: 121.27073377630894 kcal/mol)

>  <smiles>  (53) 
O=c1[nH]cccc1-c1cn2c(n1)sc1ccccc12

>  <score_type>  (53) 
oracle

>  <origin>  (53) 
adg

>  <m_score__min__energy>  (53) 
-7.2199999999999998

>  <m_primary>  (53) 
energy

$$$$
53:0
     RDKit          3D

 45 47  0  0  0  0  0  0  0  0999 V2000
   61.1580   30.1140   49.0750 C   0  0  0  0  0  0  0  0  0  0  0  0
   60.3790   29.5820   47.9090 C   0  0  0  0  0  0  0  0  0  0  0  0
   60.7760   29.8820   46.5980 C   0  0  0  0  0  0  0  0  0  0  0  0
   60.0290   29.4170   45.5120 C   0  0  0  0  0  0  0  0  0  0  0  0
   58.8710   28.6570   45.7160 C   0  0  0  0  0  0  0  0  0  0  0  0
   58.1590   28.2130   44.5880 O   0  0  0  0  0  0  0  0  0  0  0  0
   57.3990   29.0500   43.7160 C   0  0  0  0  0  0  0  0  0  0  0  0
   56.4160   29.8740   44.5000 C   0  0  0  0  0  0  0  0  0  0  0  0
   55.5690   29.2890   45.2250 O   0  0  0  0  0  0  0  0  0  0  0  0
   56.4460   31.3070   44.4920 N   0  0  0  0  0  0  0  0  0  0  0  0
   57.3170   32.1440   45.2640 C   0  0  0  0  0  0  0  0  0  0  0  0
   57.6840   33.3940   44.7520 C   0  0  0  0  0  0  0  0  0  0  0  0
   58.5540   34.2230   45.4650 C   0  0  0  0  0  0  0  0  0  0  0  0
   59.0770   33.8060   46.6990 C   0  0  0  0  0  0  0  0  0  0  0  0
   60.0440   34.6800   47.4490 C   0  0  0  0  0  0  0  0  0  0  0  0
   61.3770   33.9930   47.5770 C   0  0  0  0  0  0  0  0  0  0  0  0
   61.8320   33.5520   48.8280 C   0  0  0  0  0  0  0  0  0  0  0  0
   63.0870   32.9480   48.9300 C   0  0  0  0  0  0  0  0  0  0  0  0
   63.8660   32.7970   47.8260 N   0  0  0  0  0  0  0  0  0  0  0  0
   63.4540   33.2280   46.6030 C   0  0  0  0  0  0  0  0  0  0  0  0
   62.2050   33.8370   46.4560 C   0  0  0  0  0  0  0  0  0  0  0  0
   58.7420   32.5350   47.1930 C   0  0  0  0  0  0  0  0  0  0  0  0
   57.8720   31.7070   46.4790 C   0  0  0  0  0  0  0  0  0  0  0  0
   58.4610   28.3740   47.0340 C   0  0  0  0  0  0  0  0  0  0  0  0
   59.2080   28.8390   48.1200 C   0  0  0  0  0  0  0  0  0  0  0  0
   60.6826   29.7894   50.0124 H   0  0  0  0  0  0  0  0  0  0  0  0
   62.1879   29.7297   49.0339 H   0  0  0  0  0  0  0  0  0  0  0  0
   61.1748   31.2131   49.0339 H   0  0  0  0  0  0  0  0  0  0  0  0
   61.6789   30.4857   46.4236 H   0  0  0  0  0  0  0  0  0  0  0  0
   60.3540   29.6504   44.4874 H   0  0  0  0  0  0  0  0  0  0  0  0
   58.0811   29.7205   43.1727 H   0  0  0  0  0  0  0  0  0  0  0  0
   56.8458   28.4158   43.0076 H   0  0  0  0  0  0  0  0  0  0  0  0
   57.2850   33.7258   43.7821 H   0  0  0  0  0  0  0  0  0  0  0  0
   58.8302   35.2067   45.0575 H   0  0  0  0  0  0  0  0  0  0  0  0
   60.1745   35.6271   46.9049 H   0  0  0  0  0  0  0  0  0  0  0  0
   59.6439   34.8756   48.4548 H   0  0  0  0  0  0  0  0  0  0  0  0
   61.2049   33.6809   49.7225 H   0  0  0  0  0  0  0  0  0  0  0  0
   63.4466   32.5931   49.9071 H   0  0  0  0  0  0  0  0  0  0  0  0
   64.8030   32.3440   47.9200 H   0  0  0  0  0  0  0  0  0  0  0  0
   64.1063   33.0966   45.7271 H   0  0  0  0  0  0  0  0  0  0  0  0
   61.8738   34.1913   45.4687 H   0  0  0  0  0  0  0  0  0  0  0  0
   59.1667   32.1894   48.1470 H   0  0  0  0  0  0  0  0  0  0  0  0
   57.6206   30.7097   46.8692 H   0  0  0  0  0  0  0  0  0  0  0  0
   57.5490   27.7845   47.2091 H   0  0  0  0  0  0  0  0  0  0  0  0
   58.8758   28.6211   49.1458 H   0  0  0  0  0  0  0  0  0  0  0  0
  1  2  1  0
  2  3  2  0
  3  4  1  0
  4  5  2  0
  5  6  1  0
  6  7  1  0
  7  8  1  0
  8  9  2  0
  8 10  1  0
 10 11  1  0
 11 12  2  0
 12 13  1  0
 13 14  2  0
 14 15  1  0
 15 16  1  0
 16 17  2  0
 17 18  1  0
 18 19  2  0
 19 20  1  0
 20 21  2  0
 14 22  1  0
 22 23  2  0
  5 24  1  0
 24 25  2  0
 25  2  1  0
 23 11  1  0
 21 16  1  0
  1 26  1  0
  1 27  1  0
  1 28  1  0
  3 29  1  0
  4 30  1  0
  7 31  1  0
  7 32  1  0
 12 33  1  0
 13 34  1  0
 15 35  1  0
 15 36  1  0
 17 37  1  0
 18 38  1  0
 19 39  1  0
 20 40  1  0
 21 41  1  0
 22 42  1  0
 23 43  1  0
 24 44  1  0
 25 45  1  0
M  CHG  2  10  -1  19   1
M  END
>  <UniqueID>  (54) 
47

>  <SMILES>  (54) 
Cc1ccc(OCC(=O)[N-]c2ccc(Cc3cc[nH+]cc3)cc2)cc1

>  <Energy>  (54) 
49.04308754553812

>  <Genealogy>  (54) 
Cc1ccc(OCC(=O)[N-]c2ccc(Cc3cc[nH+]cc3)cc2)cc1 (protonated)
Cc1ccc(OCC(=O)[N-]c2ccc(Cc3cc[nH+]cc3)cc2)cc1 (3D coordinates assigned)
Cc1ccc(OCC(=O)[N-]c2ccc(Cc3cc[nH+]cc3)cc2)cc1 (optimized conformer: 49.04308754553812 kcal/mol)

>  <smiles>  (54) 
Cc1ccc(OCC(=O)Nc2ccc(Cc3ccncc3)cc2)cc1

>  <score_type>  (54) 
oracle

>  <origin>  (54) 
adg

>  <m_score__min__energy>  (54) 
-8.5600000000000005

>  <m_primary>  (54) 
energy

$$$$
54:0
     RDKit          3D

 52 54  0  0  0  0  0  0  0  0999 V2000
   61.3460   28.5920   44.5480 C   0  0  0  0  0  0  0  0  0  0  0  0
   60.4790   28.6140   45.6780 O   0  0  0  0  0  0  0  0  0  0  0  0
   59.1380   28.1920   45.6640 C   0  0  0  0  0  0  0  0  0  0  0  0
   58.7740   26.8630   45.9570 C   0  0  0  0  0  0  0  0  0  0  0  0
   57.4300   26.4740   45.9420 C   0  0  0  0  0  0  0  0  0  0  0  0
   56.9990   24.8010   46.2860 S   0  0  0  0  0  0  0  0  0  0  0  0
   57.7410   24.3530   47.5140 O   0  0  0  0  0  0  0  0  0  0  0  0
   55.5220   24.6950   46.5540 O   0  0  0  0  0  0  0  0  0  0  0  0
   57.4350   23.7820   44.9350 N   0  0  0  0  0  0  0  0  0  0  0  0
   56.5290   24.0390   43.7980 C   0  0  0  0  0  0  0  0  0  0  0  0
   56.5300   22.8510   42.8240 C   0  0  0  0  0  0  0  0  0  0  0  0
   56.1060   21.6230   43.4060 O   0  0  0  0  0  0  0  0  0  0  0  0
   56.2470   21.5790   44.8180 C   0  0  0  0  0  0  0  0  0  0  0  0
   57.4710   22.3560   45.3320 C   0  0  0  0  0  0  0  0  0  0  0  0
   56.4420   27.4080   45.6120 C   0  0  0  0  0  0  0  0  0  0  0  0
   56.7930   28.7260   45.3180 C   0  0  0  0  0  0  0  0  0  0  0  0
   58.1370   29.1330   45.3560 C   0  0  0  0  0  0  0  0  0  0  0  0
   58.5050   30.4840   45.0300 N   0  0  0  0  0  0  0  0  0  0  0  0
   57.5670   31.4810   44.5930 C   0  0  0  0  0  0  0  0  0  0  0  0
   56.3290   31.2450   44.5950 O   0  0  0  0  0  0  0  0  0  0  0  0
   58.0500   32.8460   44.1980 C   0  0  0  0  0  0  0  0  0  0  0  0
   58.0210   33.7700   45.3540 N   0  0  0  0  0  0  0  0  0  0  0  0
   57.7520   33.0770   46.6330 C   0  0  0  0  0  0  0  0  0  0  0  0
   58.9630   32.2360   47.1020 C   0  0  0  0  0  0  0  0  0  0  0  0
   60.1640   32.5620   46.4240 O   0  0  0  0  0  0  0  0  0  0  0  0
   60.3200   33.9620   46.3640 C   0  0  0  0  0  0  0  0  0  0  0  0
   59.2510   34.5920   45.4480 C   0  0  0  0  0  0  0  0  0  0  0  0
   62.3916   28.5655   44.8886 H   0  0  0  0  0  0  0  0  0  0  0  0
   61.1352   27.6989   43.9414 H   0  0  0  0  0  0  0  0  0  0  0  0
   61.1807   29.4946   43.9414 H   0  0  0  0  0  0  0  0  0  0  0  0
   59.5528   26.1250   46.1996 H   0  0  0  0  0  0  0  0  0  0  0  0
   55.5082   24.1940   44.1775 H   0  0  0  0  0  0  0  0  0  0  0  0
   56.8775   24.9350   43.2635 H   0  0  0  0  0  0  0  0  0  0  0  0
   55.8552   23.0886   41.9884 H   0  0  0  0  0  0  0  0  0  0  0  0
   57.5714   22.7063   42.5006 H   0  0  0  0  0  0  0  0  0  0  0  0
   55.3432   22.0108   45.2727 H   0  0  0  0  0  0  0  0  0  0  0  0
   56.3891   20.5249   45.0984 H   0  0  0  0  0  0  0  0  0  0  0  0
   57.4943   22.2944   46.4300 H   0  0  0  0  0  0  0  0  0  0  0  0
   58.3695   21.9039   44.8867 H   0  0  0  0  0  0  0  0  0  0  0  0
   55.3857   27.1024   45.5842 H   0  0  0  0  0  0  0  0  0  0  0  0
   56.0105   29.4527   45.0542 H   0  0  0  0  0  0  0  0  0  0  0  0
   59.4870   30.7880   45.2190 H   0  0  0  0  0  0  0  0  0  0  0  0
   59.0816   32.7690   43.8239 H   0  0  0  0  0  0  0  0  0  0  0  0
   57.3865   33.2412   43.4147 H   0  0  0  0  0  0  0  0  0  0  0  0
   57.5220   33.8285   47.4026 H   0  0  0  0  0  0  0  0  0  0  0  0
   56.9037   32.3942   46.4778 H   0  0  0  0  0  0  0  0  0  0  0  0
   59.1116   32.4067   48.1785 H   0  0  0  0  0  0  0  0  0  0  0  0
   58.7365   31.1830   46.8786 H   0  0  0  0  0  0  0  0  0  0  0  0
   60.2195   34.3800   47.3765 H   0  0  0  0  0  0  0  0  0  0  0  0
   61.3150   34.1892   45.9537 H   0  0  0  0  0  0  0  0  0  0  0  0
   58.9834   35.5811   45.8482 H   0  0  0  0  0  0  0  0  0  0  0  0
   59.6801   34.6641   44.4377 H   0  0  0  0  0  0  0  0  0  0  0  0
  1  2  1  0
  2  3  1  0
  3  4  2  0
  4  5  1  0
  5  6  1  0
  6  7  2  0
  6  8  2  0
  6  9  1  0
  9 10  1  0
 10 11  1  0
 11 12  1  0
 12 13  1  0
 13 14  1  0
  5 15  2  0
 15 16  1  0
 16 17  2  0
 17 18  1  0
 18 19  1  0
 19 20  2  0
 19 21  1  0
 21 22  1  0
 22 23  1  0
 23 24  1  0
 24 25  1  0
 25 26  1  0
 26 27  1  0
 17  3  1  0
 27 22  1  0
 14  9  1  0
  1 28  1  0
  1 29  1  0
  1 30  1  0
  4 31  1  0
 10 32  1  0
 10 33  1  0
 11 34  1  0
 11 35  1  0
 13 36  1  0
 13 37  1  0
 14 38  1  0
 14 39  1  0
 15 40  1  0
 16 41  1  0
 18 42  1  0
 21 43  1  0
 21 44  1  0
 23 45  1  0
 23 46  1  0
 24 47  1  0
 24 48  1  0
 26 49  1  0
 26 50  1  0
 27 51  1  0
 27 52  1  0
M  END
>  <UniqueID>  (55) 
48

>  <SMILES>  (55) 
COc1cc(S(=O)(=O)N2CCOCC2)ccc1NC(=O)CN1CCOCC1

>  <Energy>  (55) 
78.38307857756956

>  <Genealogy>  (55) 
COc1cc(S(=O)(=O)N2CCOCC2)ccc1NC(=O)CN1CCOCC1 (3D coordinates assigned)
COc1cc(S(=O)(=O)N2CCOCC2)ccc1NC(=O)CN1CCOCC1 (nonaromatic ring conformer: 78.38307857756956 kcal/mol)

>  <smiles>  (55) 
COc1cc(S(=O)(=O)N2CCOCC2)ccc1NC(=O)CN1CCOCC1

>  <score_type>  (55) 
oracle

>  <origin>  (55) 
adg

>  <m_score__min__energy>  (55) 
-8.3499999999999996

>  <m_primary>  (55) 
energy

$$$$
55:0
     RDKit          3D

 58 61  0  0  0  0  0  0  0  0999 V2000
   60.6990   29.2870   45.3380 O   0  0  0  0  0  0  0  0  0  0  0  0
   60.2660   30.1880   46.1060 C   0  0  0  0  0  0  0  0  0  0  0  0
   59.2050   31.0480   45.6670 N   0  0  0  0  0  0  0  0  0  0  0  0
   58.1230   30.6900   44.7960 C   0  0  0  0  0  0  0  0  0  0  0  0
   57.1920   29.7390   45.2350 C   0  0  0  0  0  0  0  0  0  0  0  0
   56.1340   29.3490   44.4080 C   0  0  0  0  0  0  0  0  0  0  0  0
   56.0080   29.8950   43.1290 C   0  0  0  0  0  0  0  0  0  0  0  0
   56.9460   30.8260   42.6710 C   0  0  0  0  0  0  0  0  0  0  0  0
   58.0030   31.2210   43.4980 C   0  0  0  0  0  0  0  0  0  0  0  0
   60.8720   30.3820   47.4020 N   0  0  0  0  0  0  0  0  0  0  0  0
   62.1020   31.1730   47.5590 C   0  0  0  0  0  0  0  0  0  0  0  0
   61.9240   32.2740   48.6290 C   0  0  0  0  0  0  0  0  0  0  0  0
   60.8450   31.9970   49.6110 N   0  0  0  0  0  0  0  0  0  0  0  0
   59.5760   32.6600   49.2250 C   0  0  0  0  0  0  0  0  0  0  0  0
   59.8070   34.0130   48.5350 C   0  0  0  0  0  0  0  0  0  0  0  0
   59.0310   34.0880   47.2470 C   0  0  0  0  0  0  0  0  0  0  0  0
   59.5930   34.7000   46.1140 C   0  0  0  0  0  0  0  0  0  0  0  0
   58.8850   34.7330   44.9090 C   0  0  0  0  0  0  0  0  0  0  0  0
   57.6170   34.1500   44.8240 C   0  0  0  0  0  0  0  0  0  0  0  0
   57.0580   33.5270   45.9430 C   0  0  0  0  0  0  0  0  0  0  0  0
   57.7630   33.4900   47.1500 C   0  0  0  0  0  0  0  0  0  0  0  0
   60.7210   30.5450   49.8680 C   0  0  0  0  0  0  0  0  0  0  0  0
   60.2630   29.7820   48.6020 C   0  0  2  0  0  0  0  0  0  0  0  0
   60.6160   28.2820   48.6800 C   0  0  0  0  0  0  0  0  0  0  0  0
   59.8130   27.4710   47.6950 C   0  0  0  0  0  0  0  0  0  0  0  0
   60.4350   26.4960   46.8990 C   0  0  0  0  0  0  0  0  0  0  0  0
   59.6790   25.7220   46.0120 C   0  0  0  0  0  0  0  0  0  0  0  0
   58.2970   25.9120   45.9200 C   0  0  0  0  0  0  0  0  0  0  0  0
   57.6700   26.8760   46.7130 C   0  0  0  0  0  0  0  0  0  0  0  0
   58.4230   27.6520   47.6000 C   0  0  0  0  0  0  0  0  0  0  0  0
   57.2942   29.2964   46.2368 H   0  0  0  0  0  0  0  0  0  0  0  0
   55.4003   28.6114   44.7653 H   0  0  0  0  0  0  0  0  0  0  0  0
   55.1713   29.5930   42.4819 H   0  0  0  0  0  0  0  0  0  0  0  0
   56.8525   31.2480   41.6595 H   0  0  0  0  0  0  0  0  0  0  0  0
   58.7426   31.9488   43.1327 H   0  0  0  0  0  0  0  0  0  0  0  0
   62.9217   30.5056   47.8634 H   0  0  0  0  0  0  0  0  0  0  0  0
   62.3320   31.6550   46.5973 H   0  0  0  0  0  0  0  0  0  0  0  0
   62.8717   32.3789   49.1776 H   0  0  0  0  0  0  0  0  0  0  0  0
   61.6383   33.1921   48.0947 H   0  0  0  0  0  0  0  0  0  0  0  0
   59.0289   32.0007   48.5351 H   0  0  0  0  0  0  0  0  0  0  0  0
   59.0025   32.8468   50.1449 H   0  0  0  0  0  0  0  0  0  0  0  0
   59.4769   34.8214   49.2040 H   0  0  0  0  0  0  0  0  0  0  0  0
   60.8787   34.1195   48.3111 H   0  0  0  0  0  0  0  0  0  0  0  0
   60.5929   35.1544   46.1753 H   0  0  0  0  0  0  0  0  0  0  0  0
   59.3263   35.2185   44.0261 H   0  0  0  0  0  0  0  0  0  0  0  0
   57.0595   34.1817   43.8763 H   0  0  0  0  0  0  0  0  0  0  0  0
   56.0621   33.0651   45.8742 H   0  0  0  0  0  0  0  0  0  0  0  0
   57.3236   32.9912   48.0264 H   0  0  0  0  0  0  0  0  0  0  0  0
   61.6983   30.1538   50.1871 H   0  0  0  0  0  0  0  0  0  0  0  0
   59.9646   30.3968   50.6528 H   0  0  0  0  0  0  0  0  0  0  0  0
   59.1680   29.8659   48.5387 H   0  0  0  0  0  0  0  0  0  0  0  0
   61.6860   28.1551   48.4586 H   0  0  0  0  0  0  0  0  0  0  0  0
   60.3795   27.9251   49.6933 H   0  0  0  0  0  0  0  0  0  0  0  0
   61.5214   26.3400   46.9730 H   0  0  0  0  0  0  0  0  0  0  0  0
   60.1723   24.9634   45.3866 H   0  0  0  0  0  0  0  0  0  0  0  0
   57.7033   25.3023   45.2230 H   0  0  0  0  0  0  0  0  0  0  0  0
   56.5826   27.0250   46.6397 H   0  0  0  0  0  0  0  0  0  0  0  0
   57.9249   28.4072   48.2258 H   0  0  0  0  0  0  0  0  0  0  0  0
  1  2  2  0
  2  3  1  0
  3  4  1  0
  4  5  2  0
  5  6  1  0
  6  7  2  0
  7  8  1  0
  8  9  2  0
  2 10  1  0
 10 11  1  0
 11 12  1  0
 12 13  1  0
 13 14  1  0
 14 15  1  0
 15 16  1  0
 16 17  2  0
 17 18  1  0
 18 19  2  0
 19 20  1  0
 20 21  2  0
 13 22  1  0
 22 23  1  0
 23 24  1  0
 24 25  1  0
 25 26  2  0
 26 27  1  0
 27 28  2  0
 28 29  1  0
 29 30  2  0
  9  4  1  0
 23 10  1  0
 30 25  1  0
 21 16  1  0
  5 31  1  0
  6 32  1  0
  7 33  1  0
  8 34  1  0
  9 35  1  0
 11 36  1  0
 11 37  1  0
 12 38  1  0
 12 39  1  0
 14 40  1  0
 14 41  1  0
 15 42  1  0
 15 43  1  0
 17 44  1  0
 18 45  1  0
 19 46  1  0
 20 47  1  0
 21 48  1  0
 22 49  1  0
 22 50  1  0
 23 51  1  6
 24 52  1  0
 24 53  1  0
 26 54  1  0
 27 55  1  0
 28 56  1  0
 29 57  1  0
 30 58  1  0
M  CHG  1   3  -1
M  END
>  <UniqueID>  (56) 
49

>  <SMILES>  (56) 
O=C([N-]c1ccccc1)N1CCN(CCc2ccccc2)C[C@@H]1Cc1ccccc1

>  <Energy>  (56) 
70.61151186024534

>  <Genealogy>  (56) 
O=C([N-]c1ccccc1)N1CCN(CCc2ccccc2)CC1Cc1ccccc1 (protonated)
O=C([N-]c1ccccc1)N1CCN(CCc2ccccc2)C[C@@H]1Cc1ccccc1 (chirality)
O=C([N-]c1ccccc1)N1CCN(CCc2ccccc2)C[C@@H]1Cc1ccccc1 (3D coordinates assigned)
O=C([N-]c1ccccc1)N1CCN(CCc2ccccc2)C[C@@H]1Cc1ccccc1 (nonaromatic ring conformer: 70.61151186024534 kcal/mol)

>  <smiles>  (56) 
O=C(Nc1ccccc1)N1CCN(CCc2ccccc2)CC1Cc1ccccc1

>  <score_type>  (56) 
oracle

>  <origin>  (56) 
adg

>  <m_score__min__energy>  (56) 
-10.640000000000001

>  <m_primary>  (56) 
energy

$$$$
56:0
     RDKit          3D

 50 53  0  0  0  0  0  0  0  0999 V2000
   57.0341   30.3257   42.2178 H   0  0  0  0  0  0  0  0  0  0  0  0
   57.4090   31.0520   42.9540 C   0  0  0  0  0  0  0  0  0  0  0  0
   57.7790   32.3390   42.4940 C   0  0  0  0  0  0  0  0  0  0  0  0
   57.6220   32.6460   41.0370 C   0  0  0  0  0  0  0  0  0  0  0  0
   57.1240   33.6197   40.9190 H   0  0  0  0  0  0  0  0  0  0  0  0
   58.6130   32.6808   40.5608 H   0  0  0  0  0  0  0  0  0  0  0  0
   57.0137   31.8630   40.5608 H   0  0  0  0  0  0  0  0  0  0  0  0
   58.2500   33.3310   43.3120 N   0  0  0  0  0  0  0  0  0  0  0  0
   58.4550   33.2300   44.6530 C   0  0  0  0  0  0  0  0  0  0  0  0
   58.8830   34.2330   45.3620 N   0  0  0  0  0  0  0  0  0  0  0  0
   59.7290   34.1670   46.5230 C   0  0  0  0  0  0  0  0  0  0  0  0
   59.2880   34.6030   47.7990 C   0  0  0  0  0  0  0  0  0  0  0  0
   58.2637   34.9853   47.9202 H   0  0  0  0  0  0  0  0  0  0  0  0
   60.1480   34.5510   48.9100 C   0  0  0  0  0  0  0  0  0  0  0  0
   59.8005   34.8733   49.9027 H   0  0  0  0  0  0  0  0  0  0  0  0
   61.4480   34.0840   48.7310 C   0  0  0  0  0  0  0  0  0  0  0  0
   62.3710   33.9860   49.7220 N   0  0  0  0  0  0  0  0  0  0  0  0
   63.5420   33.5040   49.2400 C   0  0  0  0  0  0  0  0  0  0  0  0
   64.9800   33.2210   50.2690 S   0  0  0  0  0  0  0  0  0  0  0  0
   64.4090   31.5970   50.8850 C   0  0  0  0  0  0  0  0  0  0  0  0
   64.4379   30.8706   50.0594 H   0  0  0  0  0  0  0  0  0  0  0  0
   65.0737   31.2837   51.7036 H   0  0  0  0  0  0  0  0  0  0  0  0
   63.0040   31.6760   51.4190 C   0  0  0  0  0  0  0  0  0  0  0  0
   62.8240   32.2360   52.5350 O   0  0  0  0  0  0  0  0  0  0  0  0
   61.8770   31.1030   50.7180 N   0  0  0  0  0  0  0  0  0  0  0  0
   60.7310   30.6140   51.4960 C   0  0  0  0  0  0  0  0  0  0  0  0
   60.9295   29.5831   51.8243 H   0  0  0  0  0  0  0  0  0  0  0  0
   60.5876   31.2682   52.3686 H   0  0  0  0  0  0  0  0  0  0  0  0
   59.4580   30.6360   50.6450 C   0  0  0  0  0  0  0  0  0  0  0  0
   58.6489   30.1314   51.1934 H   0  0  0  0  0  0  0  0  0  0  0  0
   59.1880   31.6828   50.4416 H   0  0  0  0  0  0  0  0  0  0  0  0
   59.6660   29.9740   49.4130 O   0  0  0  0  0  0  0  0  0  0  0  0
   60.6110   30.6920   48.6460 C   0  0  0  0  0  0  0  0  0  0  0  0
   60.6899   30.2329   47.6495 H   0  0  0  0  0  0  0  0  0  0  0  0
   60.2756   31.7362   48.5618 H   0  0  0  0  0  0  0  0  0  0  0  0
   61.9870   30.6720   49.3180 C   0  0  0  0  0  0  0  0  0  0  0  0
   62.3927   29.6501   49.2837 H   0  0  0  0  0  0  0  0  0  0  0  0
   62.6566   31.3615   48.7829 H   0  0  0  0  0  0  0  0  0  0  0  0
   63.4830   33.1880   47.5790 S   0  0  0  0  0  0  0  0  0  0  0  0
   61.8840   33.6870   47.4780 C   0  0  0  0  0  0  0  0  0  0  0  0
   61.0550   33.7280   46.3610 C   0  0  0  0  0  0  0  0  0  0  0  0
   61.4291   33.4235   45.3724 H   0  0  0  0  0  0  0  0  0  0  0  0
   58.0730   31.7730   45.4080 S   0  0  0  0  0  0  0  0  0  0  0  0
   57.4930   30.6530   44.2880 C   0  0  0  0  0  0  0  0  0  0  0  0
   57.0200   29.0360   44.7880 S   0  0  0  0  0  0  0  0  0  0  0  0
   55.5220   28.9560   44.8750 O   0  0  0  0  0  0  0  0  0  0  0  0
   57.6030   28.7300   46.1400 O   0  0  0  0  0  0  0  0  0  0  0  0
   57.6010   27.8780   43.6450 N   0  0  0  0  0  0  0  0  0  0  0  0
   58.2090   28.3930   42.9700 H   0  0  0  0  0  0  0  0  0  0  0  0
   56.7730   27.5380   43.1060 H   0  0  0  0  0  0  0  0  0  0  0  0
  1  2  1  0
  2  3  1  0
  3  4  1  0
  4  5  1  0
  4  6  1  0
  4  7  1  0
  3  8  2  0
  8  9  1  0
  9 10  2  0
 10 11  1  0
 11 12  2  0
 12 13  1  0
 12 14  1  0
 14 15  1  0
 14 16  2  0
 16 17  1  0
 17 18  2  0
 18 19  1  0
 19 20  1  0
 20 21  1  0
 20 22  1  0
 20 23  1  0
 23 24  2  0
 23 25  1  0
 25 26  1  0
 26 27  1  0
 26 28  1  0
 26 29  1  0
 29 30  1  0
 29 31  1  0
 29 32  1  0
 32 33  1  0
 33 34  1  0
 33 35  1  0
 33 36  1  0
 36 37  1  0
 36 38  1  0
 18 39  1  0
 39 40  1  0
 40 41  2  0
 41 42  1  0
  9 43  1  0
 43 44  1  0
 44 45  1  0
 45 46  2  0
 45 47  2  0
 45 48  1  0
 48 49  1  0
 48 50  1  0
 44  2  2  0
 41 11  1  0
 40 16  1  0
 36 25  1  0
M  END
>  <UniqueID>  (57) 
50

>  <SMILES>  (57) 
Cc1cc(S(N)(=O)=O)s/c(=N/c2ccc3nc(SCC(=O)N4CCOCC4)sc3c2)n1

>  <Energy>  (57) 
91.7894737380607

>  <Genealogy>  (57) 
Cc1cc(S(N)(=O)=O)s/c(=N/c2ccc3nc(SCC(=O)N4CCOCC4)sc3c2)n1 (cis-trans isomerization)
Cc1cc(S(N)(=O)=O)s/c(=N/c2ccc3nc(SCC(=O)N4CCOCC4)sc3c2)n1 (3D coordinates assigned)
Cc1cc(S(N)(=O)=O)s/c(=N/c2ccc3nc(SCC(=O)N4CCOCC4)sc3c2)n1 (nonaromatic ring conformer: 91.7894737380607 kcal/mol)

>  <smiles>  (57) 
Cc1cc(S(N)(=O)=O)sc(=Nc2ccc3nc(SCC(=O)N4CCOCC4)sc3c2)n1

>  <score_type>  (57) 
oracle

>  <origin>  (57) 
adg

>  <m_score__min__energy>  (57) 
-10.24

>  <m_primary>  (57) 
energy

$$$$
57:0
     RDKit          3D

 51 53  0  0  1  0  0  0  0  0999 V2000
   65.9470   35.8070   53.2860 C   0  0  0  0  0  0  0  0  0  0  0  0
   65.7580   34.4850   52.8480 O   0  0  0  0  0  0  0  0  0  0  0  0
   65.0870   34.1360   51.6820 C   0  0  0  0  0  0  0  0  0  0  0  0
   63.7700   34.5910   51.5860 C   0  0  0  0  0  0  0  0  0  0  0  0
   63.0550   34.2720   50.4460 C   0  0  0  0  0  0  0  0  0  0  0  0
   63.6470   33.5260   49.4430 C   0  0  0  0  0  0  0  0  0  0  0  0
   62.8060   33.2250   48.2470 C   0  0  0  0  0  0  0  0  0  0  0  0
   63.4000   33.7870   46.8440 S   0  0  0  0  0  0  0  0  0  0  0  0
   61.6250   32.5130   48.4400 N   0  0  0  0  0  0  0  0  0  0  0  0
   60.6660   32.1050   47.5020 C   0  0  0  0  0  0  0  0  0  0  0  0
   59.5900   32.8360   47.0690 C   0  0  0  0  0  0  0  0  0  0  0  0
   58.6730   32.3680   46.1310 C   0  0  0  0  0  0  0  0  0  0  0  0
   58.8240   31.1130   45.5920 C   0  0  0  0  0  0  0  0  0  0  0  0
   57.6880   30.5020   44.4130 S   0  0  0  0  0  0  0  0  0  0  0  0
   56.2680   30.7080   44.8380 O   0  0  0  0  0  0  0  0  0  0  0  0
   57.8820   31.3250   43.1630 O   0  0  0  0  0  0  0  0  0  0  0  0
   58.0400   28.8670   43.9850 N   0  0  0  0  0  0  0  0  0  0  0  0
   57.9380   27.9510   44.8860 C   0  0  0  0  0  0  0  0  0  0  0  0
   59.0140   27.4730   45.6040 C   0  0  0  0  0  0  0  0  0  0  0  0
   58.7620   26.4810   46.5480 C   0  0  0  0  0  0  0  0  0  0  0  0
   59.8630   26.0180   47.2560 O   0  0  0  0  0  0  0  0  0  0  0  0
   60.5920   26.9750   48.0030 C   0  0  0  0  0  0  0  0  0  0  0  0
   57.5120   26.0190   46.7380 N   0  0  0  0  0  0  0  0  0  0  0  0
   56.4760   26.5010   46.0260 C   0  0  0  0  0  0  0  0  0  0  0  0
   55.1700   26.0550   46.1890 O   0  0  0  0  0  0  0  0  0  0  0  0
   54.7110   24.8610   45.6330 C   0  0  0  0  0  0  0  0  0  0  0  0
   56.6840   27.4630   45.1020 N   0  0  0  0  0  0  0  0  0  0  0  0
   59.8910   30.3520   46.0010 C   0  0  0  0  0  0  0  0  0  0  0  0
   60.7870   30.8280   46.9270 C   0  0  0  0  0  0  0  0  0  0  0  0
   64.9470   33.0650   49.5160 C   0  0  0  0  0  0  0  0  0  0  0  0
   65.6510   33.3950   50.6710 C   0  0  0  0  0  0  0  0  0  0  0  0
   65.9506   35.8319   54.3857 H   0  0  0  0  0  0  0  0  0  0  0  0
   66.9083   36.1848   52.9075 H   0  0  0  0  0  0  0  0  0  0  0  0
   65.1301   36.4390   52.9075 H   0  0  0  0  0  0  0  0  0  0  0  0
   63.3153   35.1850   52.3925 H   0  0  0  0  0  0  0  0  0  0  0  0
   62.0145   34.6119   50.3368 H   0  0  0  0  0  0  0  0  0  0  0  0
   61.4160   32.2350   49.4520 H   0  0  0  0  0  0  0  0  0  0  0  0
   59.4434   33.8442   47.4838 H   0  0  0  0  0  0  0  0  0  0  0  0
   57.8290   33.0022   45.8220 H   0  0  0  0  0  0  0  0  0  0  0  0
   60.0302   27.8598   45.4377 H   0  0  0  0  0  0  0  0  0  0  0  0
   60.4492   26.7876   49.0775 H   0  0  0  0  0  0  0  0  0  0  0  0
   61.6610   26.8961   47.7559 H   0  0  0  0  0  0  0  0  0  0  0  0
   60.2321   27.9846   47.7559 H   0  0  0  0  0  0  0  0  0  0  0  0
   54.4420   24.1612   46.4380 H   0  0  0  0  0  0  0  0  0  0  0  0
   53.8262   25.0623   45.0113 H   0  0  0  0  0  0  0  0  0  0  0  0
   55.5028   24.4178   45.0113 H   0  0  0  0  0  0  0  0  0  0  0  0
   55.8700   27.8360   44.5470 H   0  0  0  0  0  0  0  0  0  0  0  0
   60.0306   29.3452   45.5805 H   0  0  0  0  0  0  0  0  0  0  0  0
   61.6287   30.1875   47.2292 H   0  0  0  0  0  0  0  0  0  0  0  0
   65.4000   32.4714   48.7082 H   0  0  0  0  0  0  0  0  0  0  0  0
   66.6907   33.0521   50.7777 H   0  0  0  0  0  0  0  0  0  0  0  0
  1  2  1  0
  2  3  1  0
  3  4  2  0
  4  5  1  0
  5  6  2  0
  6  7  1  0
  7  8  2  0
  7  9  1  0
  9 10  1  0
 10 11  2  0
 11 12  1  0
 12 13  2  0
 13 14  1  0
 14 15  2  0
 14 16  2  0
 14 17  1  0
 17 18  2  0
 18 19  1  0
 19 20  2  0
 20 21  1  0
 21 22  1  0
 20 23  1  0
 23 24  2  0
 24 25  1  0
 25 26  1  0
 24 27  1  0
 13 28  1  0
 28 29  2  0
  6 30  1  0
 30 31  2  0
 31  3  1  0
 29 10  1  0
 27 18  1  0
  1 32  1  0
  1 33  1  0
  1 34  1  0
  4 35  1  0
  5 36  1  0
  9 37  1  0
 11 38  1  0
 12 39  1  0
 19 40  1  0
 22 41  1  0
 22 42  1  0
 22 43  1  0
 26 44  1  0
 26 45  1  0
 26 46  1  0
 27 47  1  0
 28 48  1  0
 29 49  1  0
 30 50  1  0
 31 51  1  0
M  END
>  <smiles>  (58) 
COc1ccc(C(=S)Nc2ccc(S(=O)(=O)N=c3cc(OC)nc(OC)[nH]3)cc2)cc1

>  <score_type>  (58) 
oracle

>  <origin>  (58) 
adg

>  <m_score__min__energy>  (58) 
-8.7899999999999991

>  <m_primary>  (58) 
energy

$$$$
58:0
     RDKit          3D

 40 42  0  0  0  0  0  0  0  0999 V2000
   58.3090   34.8420   46.9820 O   0  0  0  0  0  0  0  0  0  0  0  0
   58.7840   33.6900   46.7850 C   0  0  0  0  0  0  0  0  0  0  0  0
   59.7510   33.1470   47.6960 N   0  0  0  0  0  0  0  0  0  0  0  0
   61.1790   33.2230   47.5750 C   0  0  0  0  0  0  0  0  0  0  0  0
   61.8050   33.7630   46.4360 C   0  0  0  0  0  0  0  0  0  0  0  0
   63.2000   33.8400   46.3710 C   0  0  0  0  0  0  0  0  0  0  0  0
   63.9780   33.3940   47.4420 C   0  0  0  0  0  0  0  0  0  0  0  0
   63.3620   32.8790   48.5870 C   0  0  0  0  0  0  0  0  0  0  0  0
   64.4250   32.2850   50.0580 Br  0  0  0  0  0  0  0  0  0  0  0  0
   61.9670   32.8020   48.6550 C   0  0  0  0  0  0  0  0  0  0  0  0
   58.3830   32.9210   45.5840 C   0  0  0  0  0  0  0  0  0  0  0  0
   58.5090   33.4850   44.3000 C   0  0  0  0  0  0  0  0  0  0  0  0
   58.1330   32.7600   43.1670 C   0  0  0  0  0  0  0  0  0  0  0  0
   57.6250   31.4660   43.2990 C   0  0  0  0  0  0  0  0  0  0  0  0
   57.4870   30.8910   44.5680 C   0  0  0  0  0  0  0  0  0  0  0  0
   56.8520   29.2570   44.7180 S   0  0  0  0  0  0  0  0  0  0  0  0
   57.0200   28.5070   43.4270 O   0  0  0  0  0  0  0  0  0  0  0  0
   55.3900   29.3320   45.0590 O   0  0  0  0  0  0  0  0  0  0  0  0
   57.7180   28.4200   45.9660 N   0  0  0  0  0  0  0  0  0  0  0  0
   57.7410   26.9950   46.0660 C   0  0  0  0  0  0  0  0  0  0  0  0
   58.9810   26.3470   46.1500 C   0  0  0  0  0  0  0  0  0  0  0  0
   59.0450   24.9580   46.2900 C   0  0  0  0  0  0  0  0  0  0  0  0
   57.8690   24.2050   46.3360 C   0  0  0  0  0  0  0  0  0  0  0  0
   56.6290   24.8380   46.2240 C   0  0  0  0  0  0  0  0  0  0  0  0
   56.5540   26.2280   46.0680 C   0  0  0  0  0  0  0  0  0  0  0  0
   55.2990   26.8110   45.8900 O   0  0  0  0  0  0  0  0  0  0  0  0
   57.8700   31.6160   45.7050 C   0  0  0  0  0  0  0  0  0  0  0  0
   61.1957   34.1254   45.5949 H   0  0  0  0  0  0  0  0  0  0  0  0
   63.6856   34.2527   45.4744 H   0  0  0  0  0  0  0  0  0  0  0  0
   65.0752   33.4479   47.3848 H   0  0  0  0  0  0  0  0  0  0  0  0
   61.4852   32.4084   49.5621 H   0  0  0  0  0  0  0  0  0  0  0  0
   58.9066   34.5045   44.1884 H   0  0  0  0  0  0  0  0  0  0  0  0
   58.2373   33.2094   42.1684 H   0  0  0  0  0  0  0  0  0  0  0  0
   57.3326   30.8972   42.4040 H   0  0  0  0  0  0  0  0  0  0  0  0
   59.9094   26.9353   46.1055 H   0  0  0  0  0  0  0  0  0  0  0  0
   60.0216   24.4573   46.3640 H   0  0  0  0  0  0  0  0  0  0  0  0
   57.9197   23.1132   46.4605 H   0  0  0  0  0  0  0  0  0  0  0  0
   55.7056   24.2412   46.2585 H   0  0  0  0  0  0  0  0  0  0  0  0
   55.1450   27.5930   45.2660 H   0  0  0  0  0  0  0  0  0  0  0  0
   57.7686   31.1607   46.7012 H   0  0  0  0  0  0  0  0  0  0  0  0
  1  2  2  0
  2  3  1  0
  3  4  1  0
  4  5  2  0
  5  6  1  0
  6  7  2  0
  7  8  1  0
  8  9  1  0
  8 10  2  0
  2 11  1  0
 11 12  2  0
 12 13  1  0
 13 14  2  0
 14 15  1  0
 15 16  1  0
 16 17  2  0
 16 18  2  0
 16 19  1  0
 19 20  1  0
 20 21  2  0
 21 22  1  0
 22 23  2  0
 23 24  1  0
 24 25  2  0
 25 26  1  0
 15 27  2  0
 10  4  1  0
 27 11  1  0
 25 20  1  0
  5 28  1  0
  6 29  1  0
  7 30  1  0
 10 31  1  0
 12 32  1  0
 13 33  1  0
 14 34  1  0
 21 35  1  0
 22 36  1  0
 23 37  1  0
 24 38  1  0
 26 39  1  0
 27 40  1  0
M  CHG  2   3  -1  19  -1
M  END
>  <UniqueID>  (59) 
51

>  <SMILES>  (59) 
O=C([N-]c1cccc(Br)c1)c1cccc(S(=O)(=O)[N-]c2ccccc2O)c1

>  <Energy>  (59) 
57.341627307372875

>  <Genealogy>  (59) 
O=C([N-]c1cccc(Br)c1)c1cccc(S(=O)(=O)[N-]c2ccccc2O)c1 (protonated)
O=C([N-]c1cccc(Br)c1)c1cccc(S(=O)(=O)[N-]c2ccccc2O)c1 (3D coordinates assigned)
O=C([N-]c1cccc(Br)c1)c1cccc(S(=O)(=O)[N-]c2ccccc2O)c1 (optimized conformer: 57.341627307372875 kcal/mol)

>  <smiles>  (59) 
O=C(Nc1cccc(Br)c1)c1cccc(S(=O)(=O)Nc2ccccc2O)c1

>  <score_type>  (59) 
oracle

>  <origin>  (59) 
adg

>  <m_score__min__energy>  (59) 
-12.890000000000001

>  <m_primary>  (59) 
energy

$$$$
59:0
     RDKit          3D

 46 49  0  0  0  0  0  0  0  0999 V2000
   60.0050   27.7930   49.3900 O   0  0  0  0  0  0  0  0  0  0  0  0
   59.9000   28.5840   48.4100 C   0  0  0  0  0  0  0  0  0  0  0  0
   59.2200   28.1660   47.2450 C   0  0  0  0  0  0  0  0  0  0  0  0
   58.6710   26.8750   47.1510 C   0  0  0  0  0  0  0  0  0  0  0  0
   58.0110   26.4720   45.9920 C   0  0  0  0  0  0  0  0  0  0  0  0
   57.8780   27.3490   44.9190 C   0  0  0  0  0  0  0  0  0  0  0  0
   58.4060   28.6490   44.9810 C   0  0  0  0  0  0  0  0  0  0  0  0
   58.1990   29.5530   43.8800 N   0  0  0  0  0  0  0  0  0  0  0  0
   57.0290   30.8330   43.9230 S   0  0  0  0  0  0  0  0  0  0  0  0
   56.6430   31.1970   42.5180 O   0  0  0  0  0  0  0  0  0  0  0  0
   55.8070   30.3530   44.6560 O   0  0  0  0  0  0  0  0  0  0  0  0
   57.7050   32.2460   44.7250 C   0  0  0  0  0  0  0  0  0  0  0  0
   57.4360   32.4860   46.0810 C   0  0  0  0  0  0  0  0  0  0  0  0
   57.9780   33.6060   46.7170 C   0  0  0  0  0  0  0  0  0  0  0  0
   58.7880   34.4950   46.0020 C   0  0  0  0  0  0  0  0  0  0  0  0
   59.3130   35.5810   46.6190 F   0  0  0  0  0  0  0  0  0  0  0  0
   59.0540   34.2630   44.6490 C   0  0  0  0  0  0  0  0  0  0  0  0
   58.5130   33.1420   44.0100 C   0  0  0  0  0  0  0  0  0  0  0  0
   59.0950   29.0610   46.1520 C   0  0  0  0  0  0  0  0  0  0  0  0
   59.6910   30.3280   46.2540 C   0  0  0  0  0  0  0  0  0  0  0  0
   60.3520   30.6980   47.4230 C   0  0  0  0  0  0  0  0  0  0  0  0
   60.4490   29.8400   48.4820 N   0  0  0  0  0  0  0  0  0  0  0  0
   61.1300   30.2970   49.7070 C   0  0  0  0  0  0  0  0  0  0  0  0
   60.3270   31.3790   50.3850 C   0  0  0  0  0  0  0  0  0  0  0  0
   60.9230   32.6150   50.6880 C   0  0  0  0  0  0  0  0  0  0  0  0
   60.1940   33.6100   51.3450 C   0  0  0  0  0  0  0  0  0  0  0  0
   58.8650   33.3820   51.7050 C   0  0  0  0  0  0  0  0  0  0  0  0
   58.1590   34.3480   52.3420 F   0  0  0  0  0  0  0  0  0  0  0  0
   58.2620   32.1560   51.4100 C   0  0  0  0  0  0  0  0  0  0  0  0
   58.9870   31.1550   50.7540 C   0  0  0  0  0  0  0  0  0  0  0  0
   58.3770   29.9760   50.4750 F   0  0  0  0  0  0  0  0  0  0  0  0
   58.7631   26.1789   47.9977 H   0  0  0  0  0  0  0  0  0  0  0  0
   57.5933   25.4566   45.9245 H   0  0  0  0  0  0  0  0  0  0  0  0
   57.3524   27.0194   44.0106 H   0  0  0  0  0  0  0  0  0  0  0  0
   58.7710   29.4620   43.0120 H   0  0  0  0  0  0  0  0  0  0  0  0
   56.7968   31.7907   46.6449 H   0  0  0  0  0  0  0  0  0  0  0  0
   57.7676   33.7890   47.7811 H   0  0  0  0  0  0  0  0  0  0  0  0
   59.6894   34.9627   44.0863 H   0  0  0  0  0  0  0  0  0  0  0  0
   58.7218   32.9631   42.9449 H   0  0  0  0  0  0  0  0  0  0  0  0
   59.6359   31.0301   45.4090 H   0  0  0  0  0  0  0  0  0  0  0  0
   60.8038   31.6984   47.4949 H   0  0  0  0  0  0  0  0  0  0  0  0
   61.2459   29.4469   50.3954 H   0  0  0  0  0  0  0  0  0  0  0  0
   62.1160   30.7024   49.4360 H   0  0  0  0  0  0  0  0  0  0  0  0
   61.9700   32.8005   50.4063 H   0  0  0  0  0  0  0  0  0  0  0  0
   60.6685   34.5745   51.5788 H   0  0  0  0  0  0  0  0  0  0  0  0
   57.2145   31.9776   51.6944 H   0  0  0  0  0  0  0  0  0  0  0  0
  1  2  2  0
  2  3  1  0
  3  4  2  0
  4  5  1  0
  5  6  2  0
  6  7  1  0
  7  8  1  0
  8  9  1  0
  9 10  2  0
  9 11  2  0
  9 12  1  0
 12 13  2  0
 13 14  1  0
 14 15  2  0
 15 16  1  0
 15 17  1  0
 17 18  2  0
  7 19  2  0
 19 20  1  0
 20 21  2  0
 21 22  1  0
 22 23  1  0
 23 24  1  0
 24 25  2  0
 25 26  1  0
 26 27  2  0
 27 28  1  0
 27 29  1  0
 29 30  2  0
 30 31  1  0
 22  2  1  0
 30 24  1  0
 19  3  1  0
 18 12  1  0
  4 32  1  0
  5 33  1  0
  6 34  1  0
  8 35  1  0
 13 36  1  0
 14 37  1  0
 17 38  1  0
 18 39  1  0
 20 40  1  0
 21 41  1  0
 23 42  1  0
 23 43  1  0
 25 44  1  0
 26 45  1  0
 29 46  1  0
M  END
>  <UniqueID>  (60) 
52

>  <SMILES>  (60) 
O=c1c2cccc(NS(=O)(=O)c3ccc(F)cc3)c2ccn1Cc1ccc(F)cc1F

>  <Energy>  (60) 
64.50118559850482

>  <Genealogy>  (60) 
O=c1c2cccc(NS(=O)(=O)c3ccc(F)cc3)c2ccn1Cc1ccc(F)cc1F (3D coordinates assigned)
O=c1c2cccc(NS(=O)(=O)c3ccc(F)cc3)c2ccn1Cc1ccc(F)cc1F (optimized conformer: 64.50118559850482 kcal/mol)

>  <smiles>  (60) 
O=c1c2cccc(NS(=O)(=O)c3ccc(F)cc3)c2ccn1Cc1ccc(F)cc1F

>  <score_type>  (60) 
oracle

>  <origin>  (60) 
adg

>  <m_score__min__energy>  (60) 
-9.5700000000000003

>  <m_primary>  (60) 
energy

$$$$
60:0
     RDKit          3D

 56 59  0  0  0  0  0  0  0  0999 V2000
   60.8790   26.5110   46.7160 O   0  0  0  0  0  0  0  0  0  0  0  0
   59.8100   27.1730   46.5810 C   0  0  0  0  0  0  0  0  0  0  0  0
   59.1370   27.1150   45.3010 C   0  0  0  0  0  0  0  0  0  0  0  0
   58.1520   26.1680   45.0210 C   0  0  0  0  0  0  0  0  0  0  0  0
   57.7130   26.3530   43.7700 N   0  0  0  0  0  0  0  0  0  0  0  0
   58.3970   27.3910   43.2590 C   0  0  0  0  0  0  0  0  0  0  0  0
   59.2640   27.8540   44.1940 N   0  0  0  0  0  0  0  0  0  0  0  0
   59.3710   27.9120   47.7030 N   0  0  0  0  0  0  0  0  0  0  0  0
   59.7390   27.2660   48.9670 C   0  0  0  0  0  0  0  0  0  0  0  0
   61.1030   27.7830   49.3790 C   0  0  0  0  0  0  0  0  0  0  0  0
   60.9680   29.2440   49.7510 C   0  0  0  0  0  0  0  0  0  0  0  0
   60.5680   30.1060   48.7120 N   0  0  0  0  0  0  0  0  0  0  0  0
   61.3770   31.2260   48.3940 C   0  0  0  0  0  0  0  0  0  0  0  0
   60.7940   32.4330   49.0280 C   0  0  0  0  0  0  0  0  0  0  0  0
   60.6630   32.5780   50.4100 C   0  0  0  0  0  0  0  0  0  0  0  0
   60.0870   33.8060   50.6580 C   0  0  0  0  0  0  0  0  0  0  0  0
   59.8760   34.3940   49.4220 C   0  0  0  0  0  0  0  0  0  0  0  0
   60.3130   33.5450   48.4420 N   0  0  0  0  0  0  0  0  0  0  0  0
   60.2500   33.9160   47.0500 C   0  0  0  0  0  0  0  0  0  0  0  0
   59.1480   33.2820   46.3020 C   0  0  0  0  0  0  0  0  0  0  0  0
   57.9630   33.8650   45.9620 C   0  0  0  0  0  0  0  0  0  0  0  0
   56.9580   33.2030   45.2490 C   0  0  0  0  0  0  0  0  0  0  0  0
   57.1420   31.8930   44.8520 C   0  0  0  0  0  0  0  0  0  0  0  0
   56.2600   31.1310   44.1600 O   0  0  0  0  0  0  0  0  0  0  0  0
   56.3650   29.7650   43.9860 C   0  0  0  0  0  0  0  0  0  0  0  0
   55.4980   29.0530   44.8220 F   0  0  0  0  0  0  0  0  0  0  0  0
   55.9960   29.4890   42.6550 F   0  0  0  0  0  0  0  0  0  0  0  0
   58.3540   31.3150   45.2060 C   0  0  0  0  0  0  0  0  0  0  0  0
   59.3380   31.9620   45.9040 C   0  0  0  0  0  0  0  0  0  0  0  0
   59.1840   30.1830   48.4390 C   0  0  0  0  0  0  0  0  0  0  0  0
   58.6480   29.1510   47.5000 C   0  0  0  0  0  0  0  0  0  0  0  0
   57.7938   25.3942   45.7159 H   0  0  0  0  0  0  0  0  0  0  0  0
   56.9610   25.7610   43.3150 H   0  0  0  0  0  0  0  0  0  0  0  0
   58.2736   27.7996   42.2452 H   0  0  0  0  0  0  0  0  0  0  0  0
   58.9974   27.5118   49.7413 H   0  0  0  0  0  0  0  0  0  0  0  0
   59.7665   26.1733   48.8433 H   0  0  0  0  0  0  0  0  0  0  0  0
   61.4710   27.2119   50.2441 H   0  0  0  0  0  0  0  0  0  0  0  0
   61.8167   27.6686   48.5498 H   0  0  0  0  0  0  0  0  0  0  0  0
   60.2240   29.3196   50.5577 H   0  0  0  0  0  0  0  0  0  0  0  0
   61.9768   29.5731   50.0409 H   0  0  0  0  0  0  0  0  0  0  0  0
   62.3967   31.0651   48.7738 H   0  0  0  0  0  0  0  0  0  0  0  0
   61.4172   31.3598   47.3029 H   0  0  0  0  0  0  0  0  0  0  0  0
   60.9662   31.8414   51.1686 H   0  0  0  0  0  0  0  0  0  0  0  0
   59.8435   34.2335   51.6418 H   0  0  0  0  0  0  0  0  0  0  0  0
   59.4287   35.3850   49.2549 H   0  0  0  0  0  0  0  0  0  0  0  0
   60.1243   35.0071   46.9897 H   0  0  0  0  0  0  0  0  0  0  0  0
   61.1856   33.5672   46.5884 H   0  0  0  0  0  0  0  0  0  0  0  0
   57.7887   34.9084   46.2636 H   0  0  0  0  0  0  0  0  0  0  0  0
   56.0214   33.7256   45.0046 H   0  0  0  0  0  0  0  0  0  0  0  0
   57.3945   29.4594   44.2241 H   0  0  0  0  0  0  0  0  0  0  0  0
   58.5347   30.2720   44.9068 H   0  0  0  0  0  0  0  0  0  0  0  0
   60.2751   31.4407   46.1493 H   0  0  0  0  0  0  0  0  0  0  0  0
   58.6457   30.0833   49.3931 H   0  0  0  0  0  0  0  0  0  0  0  0
   59.0315   31.1505   47.9384 H   0  0  0  0  0  0  0  0  0  0  0  0
   57.5780   28.9911   47.6986 H   0  0  0  0  0  0  0  0  0  0  0  0
   58.7740   29.4905   46.4613 H   0  0  0  0  0  0  0  0  0  0  0  0
  1  2  2  0
  2  3  1  0
  3  4  2  0
  4  5  1  0
  5  6  1  0
  6  7  2  0
  2  8  1  0
  8  9  1  0
  9 10  1  0
 10 11  1  0
 11 12  1  0
 12 13  1  0
 13 14  1  0
 14 15  2  0
 15 16  1  0
 16 17  2  0
 17 18  1  0
 18 19  1  0
 19 20  1  0
 20 21  2  0
 21 22  1  0
 22 23  2  0
 23 24  1  0
 24 25  1  0
 25 26  1  0
 25 27  1  0
 23 28  1  0
 28 29  2  0
 12 30  1  0
 30 31  1  0
  7  3  1  0
 31  8  1  0
 18 14  1  0
 29 20  1  0
  4 32  1  0
  5 33  1  0
  6 34  1  0
  9 35  1  0
  9 36  1  0
 10 37  1  0
 10 38  1  0
 11 39  1  0
 11 40  1  0
 13 41  1  0
 13 42  1  0
 15 43  1  0
 16 44  1  0
 17 45  1  0
 19 46  1  0
 19 47  1  0
 21 48  1  0
 22 49  1  0
 25 50  1  0
 28 51  1  0
 29 52  1  0
 30 53  1  0
 30 54  1  0
 31 55  1  0
 31 56  1  0
M  END
>  <smiles>  (61) 
O=C(c1c[nH]cn1)N1CCCN(Cc2cccn2Cc2ccc(OC(F)F)cc2)CC1

>  <score_type>  (61) 
oracle

>  <origin>  (61) 
adg

>  <m_score__min__energy>  (61) 
-5.6399999999999997

>  <m_primary>  (61) 
energy

$$$$
61:0
     RDKit          3D

 45 47  0  0  0  0  0  0  0  0999 V2000
   54.7720   29.3270   44.1250 N   0  0  0  0  0  0  0  0  0  0  0  0
   56.3190   30.0810   43.9710 S   0  0  0  0  0  0  0  0  0  0  0  0
   56.2490   31.4870   44.4980 O   0  0  0  0  0  0  0  0  0  0  0  0
   56.7090   30.1290   42.5200 O   0  0  0  0  0  0  0  0  0  0  0  0
   57.5150   29.1620   44.8800 C   0  0  0  0  0  0  0  0  0  0  0  0
   58.8790   29.3360   44.6230 C   0  0  0  0  0  0  0  0  0  0  0  0
   59.8310   28.6150   45.3500 C   0  0  0  0  0  0  0  0  0  0  0  0
   59.4290   27.7050   46.3430 C   0  0  0  0  0  0  0  0  0  0  0  0
   60.4440   26.9440   47.1090 C   0  0  0  0  0  0  0  0  0  0  0  0
   61.0670   26.0060   46.5460 O   0  0  0  0  0  0  0  0  0  0  0  0
   60.7830   27.2770   48.4630 N   0  0  0  0  0  0  0  0  0  0  0  0
   60.6590   28.5700   49.0720 C   0  0  0  0  0  0  0  0  0  0  0  0
   60.2440   28.7210   50.4080 C   0  0  0  0  0  0  0  0  0  0  0  0
   60.1480   29.9940   50.9730 C   0  0  0  0  0  0  0  0  0  0  0  0
   60.4820   31.1230   50.2220 C   0  0  0  0  0  0  0  0  0  0  0  0
   60.9290   30.9830   48.9000 C   0  0  0  0  0  0  0  0  0  0  0  0
   61.3830   32.4040   47.9600 S   0  0  0  0  0  0  0  0  0  0  0  0
   61.1900   33.6290   48.8120 O   0  0  0  0  0  0  0  0  0  0  0  0
   62.8430   32.3190   47.6080 O   0  0  0  0  0  0  0  0  0  0  0  0
   60.4420   32.5710   46.4910 N   0  0  0  0  0  0  0  0  0  0  0  0
   60.3950   33.9630   45.9960 C   0  0  0  0  0  0  0  0  0  0  0  0
   59.0680   34.6700   46.3210 C   0  0  0  0  0  0  0  0  0  0  0  0
   58.5170   34.1570   47.5120 O   0  0  0  0  0  0  0  0  0  0  0  0
   58.0680   32.8340   47.2990 C   0  0  0  0  0  0  0  0  0  0  0  0
   59.1150   31.9380   46.5950 C   0  0  0  0  0  0  0  0  0  0  0  0
   61.0150   29.7040   48.3320 C   0  0  0  0  0  0  0  0  0  0  0  0
   58.0570   27.5520   46.6130 C   0  0  0  0  0  0  0  0  0  0  0  0
   57.1080   28.2750   45.8840 C   0  0  0  0  0  0  0  0  0  0  0  0
   54.5140   29.3670   45.1360 H   0  0  0  0  0  0  0  0  0  0  0  0
   59.2040   30.0431   43.8456 H   0  0  0  0  0  0  0  0  0  0  0  0
   60.9016   28.7608   45.1436 H   0  0  0  0  0  0  0  0  0  0  0  0
   59.9946   27.8339   51.0087 H   0  0  0  0  0  0  0  0  0  0  0  0
   59.8082   30.1081   52.0130 H   0  0  0  0  0  0  0  0  0  0  0  0
   60.3943   32.1245   50.6684 H   0  0  0  0  0  0  0  0  0  0  0  0
   61.2166   34.5284   46.4600 H   0  0  0  0  0  0  0  0  0  0  0  0
   60.4900   33.9270   44.9007 H   0  0  0  0  0  0  0  0  0  0  0  0
   59.2516   35.7479   46.4414 H   0  0  0  0  0  0  0  0  0  0  0  0
   58.3603   34.4969   45.4969 H   0  0  0  0  0  0  0  0  0  0  0  0
   57.8248   32.3866   48.2740 H   0  0  0  0  0  0  0  0  0  0  0  0
   57.1904   32.8903   46.6382 H   0  0  0  0  0  0  0  0  0  0  0  0
   59.2168   31.0035   47.1664 H   0  0  0  0  0  0  0  0  0  0  0  0
   58.7566   31.7578   45.5708 H   0  0  0  0  0  0  0  0  0  0  0  0
   61.3654   29.5905   47.2955 H   0  0  0  0  0  0  0  0  0  0  0  0
   57.7289   26.8596   47.4022 H   0  0  0  0  0  0  0  0  0  0  0  0
   56.0371   28.1464   46.1001 H   0  0  0  0  0  0  0  0  0  0  0  0
  1  2  1  0
  2  3  2  0
  2  4  2  0
  2  5  1  0
  5  6  2  0
  6  7  1  0
  7  8  2  0
  8  9  1  0
  9 10  2  0
  9 11  1  0
 11 12  1  0
 12 13  2  0
 13 14  1  0
 14 15  2  0
 15 16  1  0
 16 17  1  0
 17 18  2  0
 17 19  2  0
 17 20  1  0
 20 21  1  0
 21 22  1  0
 22 23  1  0
 23 24  1  0
 24 25  1  0
 16 26  2  0
  8 27  1  0
 27 28  2  0
 28  5  1  0
 26 12  1  0
 25 20  1  0
  1 29  1  0
  6 30  1  0
  7 31  1  0
 13 32  1  0
 14 33  1  0
 15 34  1  0
 21 35  1  0
 21 36  1  0
 22 37  1  0
 22 38  1  0
 24 39  1  0
 24 40  1  0
 25 41  1  0
 25 42  1  0
 26 43  1  0
 27 44  1  0
 28 45  1  0
M  CHG  2   1  -1  11  -1
M  END
>  <UniqueID>  (62) 
53

>  <SMILES>  (62) 
[NH-]S(=O)(=O)c1ccc(C(=O)[N-]c2cccc(S(=O)(=O)N3CCOCC3)c2)cc1

>  <Energy>  (62) 
63.565242596820724

>  <Genealogy>  (62) 
[NH-]S(=O)(=O)c1ccc(C(=O)[N-]c2cccc(S(=O)(=O)N3CCOCC3)c2)cc1 (protonated)
[NH-]S(=O)(=O)c1ccc(C(=O)[N-]c2cccc(S(=O)(=O)N3CCOCC3)c2)cc1 (3D coordinates assigned)
[NH-]S(=O)(=O)c1ccc(C(=O)[N-]c2cccc(S(=O)(=O)N3CCOCC3)c2)cc1 (nonaromatic ring conformer: 63.565242596820724 kcal/mol)

>  <smiles>  (62) 
NS(=O)(=O)c1ccc(C(=O)Nc2cccc(S(=O)(=O)N3CCOCC3)c2)cc1

>  <score_type>  (62) 
oracle

>  <origin>  (62) 
adg

>  <m_score__min__energy>  (62) 
-12.65

>  <m_primary>  (62) 
energy

$$$$
62:0
     RDKit          3D

 45 46  0  0  0  0  0  0  0  0999 V2000
   61.4670   33.8390   49.9630 C   0  0  0  0  0  0  0  0  0  0  0  0
   60.0070   34.1710   49.6760 C   0  0  0  0  0  0  0  0  0  0  0  0
   59.6910   33.9190   48.2710 N   0  0  0  0  0  0  0  0  0  0  0  0
   59.6780   34.8780   47.3550 N   0  0  0  0  0  0  0  0  0  0  0  0
   59.3960   34.3110   46.1650 C   0  0  0  0  0  0  0  0  0  0  0  0
   59.2600   35.0680   44.8870 C   0  0  0  0  0  0  0  0  0  0  0  0
   59.2460   32.9490   46.3340 C   0  0  0  0  0  0  0  0  0  0  0  0
   58.8980   32.0030   45.3150 N   0  0  0  0  0  0  0  0  0  0  0  0
   57.5950   31.9380   44.7220 C   0  0  0  0  0  0  0  0  0  0  0  0
   56.6250   32.5450   45.2500 O   0  0  0  0  0  0  0  0  0  0  0  0
   57.3720   31.1160   43.4910 C   0  0  0  0  0  0  0  0  0  0  0  0
   56.2500   29.7220   43.8630 S   0  0  0  0  0  0  0  0  0  0  0  0
   57.4880   28.3860   43.6520 C   0  0  0  0  0  0  0  0  0  0  0  0
   58.3370   28.2020   44.8960 C   0  0  0  0  0  0  0  0  0  0  0  0
   59.5360   28.9360   44.9890 C   0  0  0  0  0  0  0  0  0  0  0  0
   60.3660   28.8170   46.1030 C   0  0  0  0  0  0  0  0  0  0  0  0
   60.0240   27.9520   47.1360 C   0  0  0  0  0  0  0  0  0  0  0  0
   58.8620   27.1860   47.0540 C   0  0  0  0  0  0  0  0  0  0  0  0
   58.0110   27.2760   45.9310 C   0  0  0  0  0  0  0  0  0  0  0  0
   56.7850   26.3840   45.8590 C   0  0  0  0  0  0  0  0  0  0  0  0
   56.9300   25.4650   44.8350 F   0  0  0  0  0  0  0  0  0  0  0  0
   55.6610   27.1540   45.6340 F   0  0  0  0  0  0  0  0  0  0  0  0
   56.5910   25.6780   47.0340 F   0  0  0  0  0  0  0  0  0  0  0  0
   59.4170   32.7260   47.6900 C   0  0  0  0  0  0  0  0  0  0  0  0
   59.2960   31.4140   48.4080 C   0  0  0  0  0  0  0  0  0  0  0  0
   61.6278   33.8024   51.0506 H   0  0  0  0  0  0  0  0  0  0  0  0
   61.7142   32.8617   49.5228 H   0  0  0  0  0  0  0  0  0  0  0  0
   62.1125   34.6133   49.5228 H   0  0  0  0  0  0  0  0  0  0  0  0
   59.3620   33.5448   50.3100 H   0  0  0  0  0  0  0  0  0  0  0  0
   59.8348   35.2354   49.8939 H   0  0  0  0  0  0  0  0  0  0  0  0
   59.0694   36.1287   45.1076 H   0  0  0  0  0  0  0  0  0  0  0  0
   60.1891   34.9756   44.3055 H   0  0  0  0  0  0  0  0  0  0  0  0
   58.4211   34.6580   44.3055 H   0  0  0  0  0  0  0  0  0  0  0  0
   59.5860   31.2520   45.0830 H   0  0  0  0  0  0  0  0  0  0  0  0
   56.9230   31.7460   42.7090 H   0  0  0  0  0  0  0  0  0  0  0  0
   58.3370   30.7191   43.1429 H   0  0  0  0  0  0  0  0  0  0  0  0
   56.9620   27.4440   43.4375 H   0  0  0  0  0  0  0  0  0  0  0  0
   58.1539   28.6652   42.8222 H   0  0  0  0  0  0  0  0  0  0  0  0
   59.8216   29.6131   44.1705 H   0  0  0  0  0  0  0  0  0  0  0  0
   61.2918   29.4078   46.1644 H   0  0  0  0  0  0  0  0  0  0  0  0
   60.6723   27.8716   48.0210 H   0  0  0  0  0  0  0  0  0  0  0  0
   58.6045   26.5018   47.8759 H   0  0  0  0  0  0  0  0  0  0  0  0
   59.3120   31.5876   49.4941 H   0  0  0  0  0  0  0  0  0  0  0  0
   58.3493   30.9288   48.1281 H   0  0  0  0  0  0  0  0  0  0  0  0
   60.1380   30.7638   48.1281 H   0  0  0  0  0  0  0  0  0  0  0  0
  1  2  1  0
  2  3  1  0
  3  4  1  0
  4  5  2  0
  5  6  1  0
  5  7  1  0
  7  8  1  0
  8  9  1  0
  9 10  2  0
  9 11  1  0
 11 12  1  0
 12 13  1  0
 13 14  1  0
 14 15  2  0
 15 16  1  0
 16 17  2  0
 17 18  1  0
 18 19  2  0
 19 20  1  0
 20 21  1  0
 20 22  1  0
 20 23  1  0
  7 24  2  0
 24 25  1  0
 24  3  1  0
 19 14  1  0
  1 26  1  0
  1 27  1  0
  1 28  1  0
  2 29  1  0
  2 30  1  0
  6 31  1  0
  6 32  1  0
  6 33  1  0
  8 34  1  0
 11 35  1  0
 11 36  1  0
 13 37  1  0
 13 38  1  0
 15 39  1  0
 16 40  1  0
 17 41  1  0
 18 42  1  0
 25 43  1  0
 25 44  1  0
 25 45  1  0
M  END
>  <UniqueID>  (63) 
54

>  <SMILES>  (63) 
CCn1nc(C)c(NC(=O)CSCc2ccccc2C(F)(F)F)c1C

>  <Energy>  (63) 
74.55687407748654

>  <Genealogy>  (63) 
CCn1nc(C)c(NC(=O)CSCc2ccccc2C(F)(F)F)c1C (3D coordinates assigned)
CCn1nc(C)c(NC(=O)CSCc2ccccc2C(F)(F)F)c1C (optimized conformer: 74.55687407748654 kcal/mol)

>  <smiles>  (63) 
CCn1nc(C)c(NC(=O)CSCc2ccccc2C(F)(F)F)c1C

>  <score_type>  (63) 
oracle

>  <origin>  (63) 
adg

>  <m_score__min__energy>  (63) 
-7.1799999999999997

>  <m_primary>  (63) 
energy

$$$$
63:0
     RDKit          3D

 47 50  0  0  0  0  0  0  0  0999 V2000
   60.0060   35.4780   46.2480 O   0  0  0  0  0  0  0  0  0  0  0  0
   59.3740   34.5190   45.7270 C   0  0  0  0  0  0  0  0  0  0  0  0
   58.1670   34.8090   44.8950 C   0  0  0  0  0  0  0  0  0  0  0  0
   56.7580   33.8450   45.5290 S   0  0  0  0  0  0  0  0  0  0  0  0
   57.3440   32.3120   44.8180 C   0  0  0  0  0  0  0  0  0  0  0  0
   58.1370   32.2380   43.7350 N   0  0  0  0  0  0  0  0  0  0  0  0
   58.3480   30.9480   43.5210 N   0  0  0  0  0  0  0  0  0  0  0  0
   57.6710   30.2890   44.4820 C   0  0  0  0  0  0  0  0  0  0  0  0
   57.6180   28.8200   44.6090 C   0  0  0  0  0  0  0  0  0  0  0  0
   58.1500   28.0040   43.5950 C   0  0  0  0  0  0  0  0  0  0  0  0
   58.1210   26.6110   43.7210 C   0  0  0  0  0  0  0  0  0  0  0  0
   57.5570   26.0200   44.8580 C   0  0  0  0  0  0  0  0  0  0  0  0
   57.5150   24.2750   45.0090 Cl  0  0  0  0  0  0  0  0  0  0  0  0
   57.0180   26.8250   45.8670 C   0  0  0  0  0  0  0  0  0  0  0  0
   57.0470   28.2190   45.7450 C   0  0  0  0  0  0  0  0  0  0  0  0
   57.0550   31.1240   45.2850 O   0  0  0  0  0  0  0  0  0  0  0  0
   59.7530   33.1600   45.9970 N   0  0  0  0  0  0  0  0  0  0  0  0
   60.9280   32.7990   46.7450 C   0  0  0  0  0  0  0  0  0  0  0  0
   62.0290   33.6750   46.7950 C   0  0  0  0  0  0  0  0  0  0  0  0
   63.1920   33.3130   47.4780 C   0  0  0  0  0  0  0  0  0  0  0  0
   63.2780   32.0710   48.1070 C   0  0  0  0  0  0  0  0  0  0  0  0
   62.2030   31.1820   48.0490 C   0  0  0  0  0  0  0  0  0  0  0  0
   61.0230   31.5290   47.3650 C   0  0  0  0  0  0  0  0  0  0  0  0
   59.8820   30.5830   47.3640 C   0  0  0  0  0  0  0  0  0  0  0  0
   58.7100   31.0480   47.4340 O   0  0  0  0  0  0  0  0  0  0  0  0
   60.0780   29.1130   47.2970 C   0  0  0  0  0  0  0  0  0  0  0  0
   59.9050   28.3040   48.4370 C   0  0  0  0  0  0  0  0  0  0  0  0
   60.1130   26.9230   48.3640 C   0  0  0  0  0  0  0  0  0  0  0  0
   60.5000   26.3360   47.1580 C   0  0  0  0  0  0  0  0  0  0  0  0
   60.6830   27.1280   46.0230 C   0  0  0  0  0  0  0  0  0  0  0  0
   60.4780   28.5090   46.0900 C   0  0  0  0  0  0  0  0  0  0  0  0
   57.9324   35.8824   44.9485 H   0  0  0  0  0  0  0  0  0  0  0  0
   58.3637   34.5321   43.8488 H   0  0  0  0  0  0  0  0  0  0  0  0
   58.5912   28.4633   42.6981 H   0  0  0  0  0  0  0  0  0  0  0  0
   58.5421   25.9789   42.9253 H   0  0  0  0  0  0  0  0  0  0  0  0
   56.5703   26.3614   46.7584 H   0  0  0  0  0  0  0  0  0  0  0  0
   56.6213   28.8473   46.5412 H   0  0  0  0  0  0  0  0  0  0  0  0
   59.1090   32.3990   45.6820 H   0  0  0  0  0  0  0  0  0  0  0  0
   61.9727   34.6518   46.2923 H   0  0  0  0  0  0  0  0  0  0  0  0
   64.0426   34.0092   47.5201 H   0  0  0  0  0  0  0  0  0  0  0  0
   64.1935   31.7917   48.6491 H   0  0  0  0  0  0  0  0  0  0  0  0
   62.2790   30.2017   48.5423 H   0  0  0  0  0  0  0  0  0  0  0  0
   59.6043   28.7615   49.3911 H   0  0  0  0  0  0  0  0  0  0  0  0
   59.9714   26.2983   49.2583 H   0  0  0  0  0  0  0  0  0  0  0  0
   60.6608   25.2493   47.1020 H   0  0  0  0  0  0  0  0  0  0  0  0
   60.9892   26.6641   45.0738 H   0  0  0  0  0  0  0  0  0  0  0  0
   60.6303   29.1280   45.1935 H   0  0  0  0  0  0  0  0  0  0  0  0
  1  2  2  0
  2  3  1  0
  3  4  1  0
  4  5  1  0
  5  6  2  0
  6  7  1  0
  7  8  2  0
  8  9  1  0
  9 10  2  0
 10 11  1  0
 11 12  2  0
 12 13  1  0
 12 14  1  0
 14 15  2  0
  8 16  1  0
  2 17  1  0
 17 18  1  0
 18 19  2  0
 19 20  1  0
 20 21  2  0
 21 22  1  0
 22 23  2  0
 23 24  1  0
 24 25  2  0
 24 26  1  0
 26 27  2  0
 27 28  1  0
 28 29  2  0
 29 30  1  0
 30 31  2  0
 16  5  1  0
 23 18  1  0
 31 26  1  0
 15  9  1  0
  3 32  1  0
  3 33  1  0
 10 34  1  0
 11 35  1  0
 14 36  1  0
 15 37  1  0
 17 38  1  0
 19 39  1  0
 20 40  1  0
 21 41  1  0
 22 42  1  0
 27 43  1  0
 28 44  1  0
 29 45  1  0
 30 46  1  0
 31 47  1  0
M  END
>  <UniqueID>  (64) 
55

>  <SMILES>  (64) 
O=C(CSc1nnc(-c2ccc(Cl)cc2)o1)Nc1ccccc1C(=O)c1ccccc1

>  <Energy>  (64) 
93.0168190565325

>  <Genealogy>  (64) 
O=C(CSc1nnc(-c2ccc(Cl)cc2)o1)Nc1ccccc1C(=O)c1ccccc1 (3D coordinates assigned)
O=C(CSc1nnc(-c2ccc(Cl)cc2)o1)Nc1ccccc1C(=O)c1ccccc1 (optimized conformer: 93.0168190565325 kcal/mol)

>  <smiles>  (64) 
O=C(CSc1nnc(-c2ccc(Cl)cc2)o1)Nc1ccccc1C(=O)c1ccccc1

>  <score_type>  (64) 
oracle

>  <origin>  (64) 
adg

>  <m_score__min__energy>  (64) 
-10.42

>  <m_primary>  (64) 
energy

$$$$
64:0
     RDKit          3D

 51 54  0  0  0  0  0  0  0  0999 V2000
   56.3260   29.5710   42.6290 C   0  0  0  0  0  0  0  0  0  0  0  0
   56.0020   30.2310   43.9690 C   0  0  0  0  0  0  0  0  0  0  0  0
   57.1540   31.1350   44.4620 C   0  0  1  0  0  0  0  0  0  0  0  0
   56.6320   32.2620   45.2450 N   0  0  0  0  0  0  0  0  0  0  0  0
   57.2760   33.5150   45.5260 C   0  0  0  0  0  0  0  0  0  0  0  0
   56.7690   34.5750   45.0750 O   0  0  0  0  0  0  0  0  0  0  0  0
   58.5370   33.5960   46.2710 C   0  0  0  0  0  0  0  0  0  0  0  0
   59.7540   33.7960   45.5700 C   0  0  0  0  0  0  0  0  0  0  0  0
   60.9790   33.8410   46.2600 C   0  0  0  0  0  0  0  0  0  0  0  0
   60.9420   33.6970   47.6450 C   0  0  0  0  0  0  0  0  0  0  0  0
   59.7670   33.5410   48.3300 C   0  0  0  0  0  0  0  0  0  0  0  0
   58.5370   33.4950   47.6790 C   0  0  0  0  0  0  0  0  0  0  0  0
   60.0180   33.4330   49.6480 N   0  0  0  0  0  0  0  0  0  0  0  0
   61.3670   33.5380   49.7290 C   0  0  0  0  0  0  0  0  0  0  0  0
   61.9580   33.6760   48.5220 N   0  0  0  0  0  0  0  0  0  0  0  0
   63.3900   33.8530   48.3060 C   0  0  0  0  0  0  0  0  0  0  0  0
   64.1630   33.4350   49.5720 C   0  0  0  0  0  0  0  0  0  0  0  0
   63.5260   33.9670   50.7930 N   0  0  0  0  0  0  0  0  0  0  0  0
   62.1710   33.4190   50.9880 C   0  0  0  0  0  0  0  0  0  0  0  0
   58.2680   30.4110   45.2070 C   0  0  0  0  0  0  0  0  0  0  0  0
   59.2870   29.6870   44.5490 C   0  0  0  0  0  0  0  0  0  0  0  0
   60.2640   29.0150   45.2850 C   0  0  0  0  0  0  0  0  0  0  0  0
   60.2420   29.0480   46.6790 C   0  0  0  0  0  0  0  0  0  0  0  0
   59.2450   29.7570   47.3550 C   0  0  0  0  0  0  0  0  0  0  0  0
   59.2620   29.7530   48.7580 O   0  0  0  0  0  0  0  0  0  0  0  0
   60.4460   29.6890   49.5480 C   0  0  0  0  0  0  0  0  0  0  0  0
   58.2610   30.4410   46.6130 C   0  0  0  0  0  0  0  0  0  0  0  0
   56.8044   28.5965   42.8064 H   0  0  0  0  0  0  0  0  0  0  0  0
   55.3972   29.4250   42.0581 H   0  0  0  0  0  0  0  0  0  0  0  0
   57.0096   30.2165   42.0581 H   0  0  0  0  0  0  0  0  0  0  0  0
   55.0950   30.8426   43.8536 H   0  0  0  0  0  0  0  0  0  0  0  0
   55.8526   29.4346   44.7129 H   0  0  0  0  0  0  0  0  0  0  0  0
   57.6343   31.5153   43.5484 H   0  0  0  0  0  0  0  0  0  0  0  0
   59.7396   33.9170   44.4768 H   0  0  0  0  0  0  0  0  0  0  0  0
   61.9300   33.9845   45.7261 H   0  0  0  0  0  0  0  0  0  0  0  0
   57.5985   33.3839   48.2420 H   0  0  0  0  0  0  0  0  0  0  0  0
   59.3350   33.2920   50.4250 H   0  0  0  0  0  0  0  0  0  0  0  0
   63.7116   33.2294   47.4589 H   0  0  0  0  0  0  0  0  0  0  0  0
   63.5967   34.9108   48.0862 H   0  0  0  0  0  0  0  0  0  0  0  0
   64.1869   32.3368   49.6303 H   0  0  0  0  0  0  0  0  0  0  0  0
   65.1816   33.8450   49.5065 H   0  0  0  0  0  0  0  0  0  0  0  0
   63.4590   35.0090   50.7100 H   0  0  0  0  0  0  0  0  0  0  0  0
   62.2472   32.3583   51.2692 H   0  0  0  0  0  0  0  0  0  0  0  0
   61.6694   33.9890   51.7840 H   0  0  0  0  0  0  0  0  0  0  0  0
   59.3106   29.6527   43.4498 H   0  0  0  0  0  0  0  0  0  0  0  0
   61.0551   28.4567   44.7631 H   0  0  0  0  0  0  0  0  0  0  0  0
   61.0145   28.5125   47.2504 H   0  0  0  0  0  0  0  0  0  0  0  0
   60.1765   29.7036   50.6144 H   0  0  0  0  0  0  0  0  0  0  0  0
   60.9893   28.7602   49.3198 H   0  0  0  0  0  0  0  0  0  0  0  0
   61.0863   30.5538   49.3198 H   0  0  0  0  0  0  0  0  0  0  0  0
   57.4778   31.0054   47.1403 H   0  0  0  0  0  0  0  0  0  0  0  0
  1  2  1  0
  2  3  1  0
  3  4  1  0
  4  5  1  0
  5  6  2  0
  5  7  1  0
  7  8  2  0
  8  9  1  0
  9 10  2  0
 10 11  1  0
 11 12  2  0
 11 13  1  0
 13 14  2  0
 14 15  1  0
 15 16  1  0
 16 17  1  0
 17 18  1  0
 18 19  1  0
  3 20  1  0
 20 21  2  0
 21 22  1  0
 22 23  2  0
 23 24  1  0
 24 25  1  0
 25 26  1  0
 24 27  2  0
 12  7  1  0
 19 14  1  0
 27 20  1  0
 15 10  1  0
  1 28  1  0
  1 29  1  0
  1 30  1  0
  2 31  1  0
  2 32  1  0
  3 33  1  6
  8 34  1  0
  9 35  1  0
 12 36  1  0
 13 37  1  0
 16 38  1  0
 16 39  1  0
 17 40  1  0
 17 41  1  0
 18 42  1  0
 19 43  1  0
 19 44  1  0
 21 45  1  0
 22 46  1  0
 23 47  1  0
 26 48  1  0
 26 49  1  0
 26 50  1  0
 27 51  1  0
M  CHG  2   4  -1  13   1
M  END
>  <UniqueID>  (65) 
56

>  <SMILES>  (65) 
CC[C@@H]([N-]C(=O)c1ccc2c(c1)[nH+]c1n2CCNC1)c1cccc(OC)c1

>  <Energy>  (65) 
98.07902244528705

>  <Genealogy>  (65) 
CCC([N-]C(=O)c1ccc2c(c1)[nH+]c1n2CCNC1)c1cccc(OC)c1 (protonated)
CC[C@@H]([N-]C(=O)c1ccc2c(c1)[nH+]c1n2CCNC1)c1cccc(OC)c1 (chirality)
CC[C@@H]([N-]C(=O)c1ccc2c(c1)[nH+]c1n2CCNC1)c1cccc(OC)c1 (3D coordinates assigned)
CC[C@@H]([N-]C(=O)c1ccc2c(c1)[nH+]c1n2CCNC1)c1cccc(OC)c1 (nonaromatic ring conformer: 98.07902244528705 kcal/mol)

>  <smiles>  (65) 
CCC(NC(=O)c1ccc2c(c1)nc1n2CCNC1)c1cccc(OC)c1

>  <score_type>  (65) 
oracle

>  <origin>  (65) 
adg

>  <m_score__min__energy>  (65) 
-8.7599999999999998

>  <m_primary>  (65) 
energy

$$$$
65:0
     RDKit          3D

 36 37  0  0  1  0  0  0  0  0999 V2000
   57.0290   31.1920   42.6920 C   0  0  0  0  0  0  0  0  0  0  0  0
   57.3690   31.0610   44.0980 N   0  0  0  0  0  0  0  0  0  0  0  0
   57.4060   32.1970   44.9790 C   0  0  0  0  0  0  0  0  0  0  0  0
   57.6650   29.7530   44.5710 C   0  0  0  0  0  0  0  0  0  0  0  0
   57.9190   29.5350   45.9050 C   0  0  0  0  0  0  0  0  0  0  0  0
   58.2120   28.3020   46.4300 C   0  0  0  0  0  0  0  0  0  0  0  0
   58.2660   27.1880   45.6210 C   0  0  0  0  0  0  0  0  0  0  0  0
   58.4520   25.9160   46.2620 C   0  0  0  0  0  0  0  0  0  0  0  0
   58.8860   24.8080   45.7570 C   0  0  0  0  0  0  0  0  0  0  0  0
   58.2040   23.8360   44.9590 C   0  0  0  0  0  0  0  0  0  0  0  0
   56.9800   23.9130   44.3600 C   0  0  0  0  0  0  0  0  0  0  0  0
   56.3940   22.8720   43.7060 N   0  0  0  0  0  0  0  0  0  0  0  0
   57.0130   21.7010   43.6200 C   0  0  0  0  0  0  0  0  0  0  0  0
   56.4710   20.7160   43.0070 N   0  0  0  0  0  0  0  0  0  0  0  0
   58.2220   21.5900   44.1980 N   0  0  0  0  0  0  0  0  0  0  0  0
   58.8360   22.5850   44.8510 C   0  0  0  0  0  0  0  0  0  0  0  0
   60.0040   22.3810   45.3750 N   0  0  0  0  0  0  0  0  0  0  0  0
   58.0090   27.3960   44.2830 C   0  0  0  0  0  0  0  0  0  0  0  0
   57.7120   28.6500   43.7490 C   0  0  0  0  0  0  0  0  0  0  0  0
   56.0064   31.5860   42.5972 H   0  0  0  0  0  0  0  0  0  0  0  0
   57.7345   31.8827   42.2070 H   0  0  0  0  0  0  0  0  0  0  0  0
   57.0887   30.2065   42.2070 H   0  0  0  0  0  0  0  0  0  0  0  0
   57.3947   31.8516   46.0233 H   0  0  0  0  0  0  0  0  0  0  0  0
   58.3234   32.7749   44.7938 H   0  0  0  0  0  0  0  0  0  0  0  0
   56.5281   32.8334   44.7938 H   0  0  0  0  0  0  0  0  0  0  0  0
   57.8854   30.3964   46.5883 H   0  0  0  0  0  0  0  0  0  0  0  0
   58.4059   28.2016   47.5081 H   0  0  0  0  0  0  0  0  0  0  0  0
   58.1889   25.8798   47.3295 H   0  0  0  0  0  0  0  0  0  0  0  0
   59.9395   24.5776   45.9737 H   0  0  0  0  0  0  0  0  0  0  0  0
   56.4370   24.8684   44.4081 H   0  0  0  0  0  0  0  0  0  0  0  0
   55.4600   22.9880   43.2690 H   0  0  0  0  0  0  0  0  0  0  0  0
   56.8800   19.7520   43.1370 H   0  0  0  0  0  0  0  0  0  0  0  0
   58.7090   20.6840   44.1360 H   0  0  0  0  0  0  0  0  0  0  0  0
   60.8510   22.1760   44.8210 H   0  0  0  0  0  0  0  0  0  0  0  0
   58.0396   26.5315   43.6035 H   0  0  0  0  0  0  0  0  0  0  0  0
   57.5156   28.7573   42.6720 H   0  0  0  0  0  0  0  0  0  0  0  0
  1  2  1  0
  2  3  1  0
  2  4  1  0
  4  5  2  0
  5  6  1  0
  6  7  2  0
  7  8  1  0
  8  9  2  0
  9 10  1  0
 10 11  2  0
 11 12  1  0
 12 13  1  0
 13 14  2  3
 13 15  1  0
 15 16  1  0
 16 17  2  3
  7 18  1  0
 18 19  2  0
 19  4  1  0
 16 10  1  0
  1 20  1  0
  1 21  1  0
  1 22  1  0
  3 23  1  0
  3 24  1  0
  3 25  1  0
  5 26  1  0
  6 27  1  0
  8 28  1  0
  9 29  1  0
 11 30  1  0
 12 31  1  0
 14 32  1  0
 15 33  1  0
 17 34  1  0
 18 35  1  0
 19 36  1  0
M  END
>  <smiles>  (66) 
CN(C)c1ccc(C=Cc2c[nH]c(=N)[nH]c2=N)cc1

>  <score_type>  (66) 
oracle

>  <origin>  (66) 
adg

>  <m_score__min__energy>  (66) 
-6.8200000000000003

>  <m_primary>  (66) 
energy

$$$$
66:0
     RDKit          3D

 41 42  0  0  0  0  0  0  0  0999 V2000
   55.1670   29.0350   44.5650 N   0  0  0  0  0  0  0  0  0  0  0  0
   56.5830   29.9960   44.3270 S   0  0  0  0  0  0  0  0  0  0  0  0
   56.8800   30.0930   42.8570 O   0  0  0  0  0  0  0  0  0  0  0  0
   56.3440   31.3800   44.8630 O   0  0  0  0  0  0  0  0  0  0  0  0
   57.9430   29.2590   45.1690 C   0  0  0  0  0  0  0  0  0  0  0  0
   58.7260   28.2890   44.5290 C   0  0  0  0  0  0  0  0  0  0  0  0
   59.8100   27.7130   45.1940 C   0  0  0  0  0  0  0  0  0  0  0  0
   60.1080   28.0900   46.5070 C   0  0  0  0  0  0  0  0  0  0  0  0
   59.3140   29.0330   47.1710 C   0  0  0  0  0  0  0  0  0  0  0  0
   59.6650   29.4010   48.5120 N   0  0  0  0  0  0  0  0  0  0  0  0
   60.3290   30.6030   48.9270 C   0  0  0  0  0  0  0  0  0  0  0  0
   60.4060   30.9040   50.1470 O   0  0  0  0  0  0  0  0  0  0  0  0
   60.9100   31.4840   47.9590 N   0  0  0  0  0  0  0  0  0  0  0  0
   60.2400   32.5640   47.2860 C   0  0  0  0  0  0  0  0  0  0  0  0
   59.6220   32.3450   46.0410 C   0  0  0  0  0  0  0  0  0  0  0  0
   59.0010   33.3940   45.3600 C   0  0  0  0  0  0  0  0  0  0  0  0
   58.2290   33.1020   43.8130 Cl  0  0  0  0  0  0  0  0  0  0  0  0
   59.0090   34.6780   45.9050 C   0  0  0  0  0  0  0  0  0  0  0  0
   59.6410   34.9180   47.1250 C   0  0  0  0  0  0  0  0  0  0  0  0
   60.2710   33.8740   47.8320 C   0  0  0  0  0  0  0  0  0  0  0  0
   60.9310   34.1780   49.1320 C   0  0  0  0  0  0  0  0  0  0  0  0
   60.2760   34.1450   50.2100 O   0  0  0  0  0  0  0  0  0  0  0  0
   62.3210   34.5280   49.1650 N   0  0  0  0  0  0  0  0  0  0  0  0
   63.3590   33.7950   48.4490 C   0  0  0  0  0  0  0  0  0  0  0  0
   63.8140   32.5760   49.2620 C   0  0  0  0  0  0  0  0  0  0  0  0
   62.6800   31.9070   49.8950 N   0  0  0  0  0  0  0  0  0  0  0  0
   58.2390   29.6310   46.4880 C   0  0  0  0  0  0  0  0  0  0  0  0
   54.7440   29.3360   45.4720 H   0  0  0  0  0  0  0  0  0  0  0  0
   58.4861   27.9808   43.5007 H   0  0  0  0  0  0  0  0  0  0  0  0
   60.4306   26.9614   44.6842 H   0  0  0  0  0  0  0  0  0  0  0  0
   60.9715   27.6431   47.0215 H   0  0  0  0  0  0  0  0  0  0  0  0
   59.6281   31.3374   45.5998 H   0  0  0  0  0  0  0  0  0  0  0  0
   58.5155   35.5035   45.3712 H   0  0  0  0  0  0  0  0  0  0  0  0
   59.6479   35.9362   47.5412 H   0  0  0  0  0  0  0  0  0  0  0  0
   62.9609   33.4565   47.4811 H   0  0  0  0  0  0  0  0  0  0  0  0
   64.2210   34.4603   48.2928 H   0  0  0  0  0  0  0  0  0  0  0  0
   64.3198   31.8662   48.5909 H   0  0  0  0  0  0  0  0  0  0  0  0
   64.4985   32.9207   50.0511 H   0  0  0  0  0  0  0  0  0  0  0  0
   62.4760   31.0230   49.3730 H   0  0  0  0  0  0  0  0  0  0  0  0
   61.8380   32.5230   49.8190 H   0  0  0  0  0  0  0  0  0  0  0  0
   57.6276   30.3943   46.9915 H   0  0  0  0  0  0  0  0  0  0  0  0
  1  2  1  0
  2  3  2  0
  2  4  2  0
  2  5  1  0
  5  6  2  0
  6  7  1  0
  7  8  2  0
  8  9  1  0
  9 10  1  0
 10 11  1  0
 11 12  2  0
 11 13  1  0
 13 14  1  0
 14 15  2  0
 15 16  1  0
 16 17  1  0
 16 18  2  0
 18 19  1  0
 19 20  2  0
 20 21  1  0
 21 22  2  0
 21 23  1  0
 23 24  1  0
 24 25  1  0
 25 26  1  0
  9 27  2  0
 27  5  1  0
 20 14  1  0
  1 28  1  0
  6 29  1  0
  7 30  1  0
  8 31  1  0
 15 32  1  0
 18 33  1  0
 19 34  1  0
 24 35  1  0
 24 36  1  0
 25 37  1  0
 25 38  1  0
 26 39  1  0
 26 40  1  0
 27 41  1  0
M  CHG  4   1  -1  10  -1  13  -1  23  -1
M  END
>  <UniqueID>  (67) 
57

>  <SMILES>  (67) 
[NH-]S(=O)(=O)c1cccc([N-]C(=O)[N-]c2cc(Cl)ccc2C(=O)[N-]CCN)c1

>  <Energy>  (67) 
46.44321375289366

>  <Genealogy>  (67) 
[NH-]S(=O)(=O)c1cccc([N-]C(=O)[N-]c2cc(Cl)ccc2C(=O)[N-]CCN)c1 (protonated)
[NH-]S(=O)(=O)c1cccc([N-]C(=O)[N-]c2cc(Cl)ccc2C(=O)[N-]CCN)c1 (3D coordinates assigned)
[NH-]S(=O)(=O)c1cccc([N-]C(=O)[N-]c2cc(Cl)ccc2C(=O)[N-]CCN)c1 (optimized conformer: 46.44321375289366 kcal/mol)

>  <smiles>  (67) 
NCCNC(=O)c1ccc(Cl)cc1NC(=O)Nc1cccc(S(N)(=O)=O)c1

>  <score_type>  (67) 
oracle

>  <origin>  (67) 
adg

>  <m_score__min__energy>  (67) 
-14.949999999999999

>  <m_primary>  (67) 
energy

$$$$
67:0
     RDKit          3D

 56 59  0  0  0  0  0  0  0  0999 V2000
   53.3990   24.4980   45.5310 C   0  0  0  0  0  0  0  0  0  0  0  0
   54.8670   24.3060   45.7960 C   0  0  0  0  0  0  0  0  0  0  0  0
   55.4010   23.0110   45.8710 C   0  0  0  0  0  0  0  0  0  0  0  0
   56.7540   22.8250   46.1500 C   0  0  0  0  0  0  0  0  0  0  0  0
   57.5870   23.9250   46.3550 C   0  0  0  0  0  0  0  0  0  0  0  0
   57.0790   25.2350   46.2830 C   0  0  0  0  0  0  0  0  0  0  0  0
   58.0000   26.3780   46.5220 C   0  0  0  0  0  0  0  0  0  0  0  0
   59.1660   26.3420   46.0410 O   0  0  0  0  0  0  0  0  0  0  0  0
   57.5690   27.5510   47.2270 N   0  0  0  0  0  0  0  0  0  0  0  0
   58.4820   28.5680   47.6690 C   0  0  0  0  0  0  0  0  0  0  0  0
   59.0720   28.4360   48.9350 C   0  0  0  0  0  0  0  0  0  0  0  0
   59.9550   29.4080   49.4230 C   0  0  0  0  0  0  0  0  0  0  0  0
   60.5700   29.2520   50.7600 C   0  0  0  0  0  0  0  0  0  0  0  0
   61.8660   28.7200   50.8600 C   0  0  0  0  0  0  0  0  0  0  0  0
   62.4790   28.5720   52.1070 C   0  0  0  0  0  0  0  0  0  0  0  0
   61.8000   28.9470   53.2680 C   0  0  0  0  0  0  0  0  0  0  0  0
   60.5070   29.4660   53.1850 C   0  0  0  0  0  0  0  0  0  0  0  0
   59.8830   29.6190   51.9400 C   0  0  0  0  0  0  0  0  0  0  0  0
   58.2240   30.2110   51.9080 Cl  0  0  0  0  0  0  0  0  0  0  0  0
   60.2820   30.5040   48.6140 C   0  0  0  0  0  0  0  0  0  0  0  0
   59.7240   30.6330   47.3410 C   0  0  0  0  0  0  0  0  0  0  0  0
   58.8200   29.6760   46.8540 C   0  0  0  0  0  0  0  0  0  0  0  0
   58.3290   29.7890   45.5050 N   0  0  0  0  0  0  0  0  0  0  0  0
   57.6640   31.0250   45.0730 C   0  0  0  0  0  0  0  0  0  0  0  0
   57.5220   31.0730   43.5450 C   0  0  0  0  0  0  0  0  0  0  0  0
   56.9810   29.8120   42.9930 N   0  0  0  0  0  0  0  0  0  0  0  0
   55.5220   29.7190   43.1800 C   0  0  0  0  0  0  0  0  0  0  0  0
   57.6760   28.5810   43.4560 C   0  0  0  0  0  0  0  0  0  0  0  0
   58.7810   28.8280   44.4960 C   0  0  0  0  0  0  0  0  0  0  0  0
   55.7010   25.4180   46.0180 C   0  0  0  0  0  0  0  0  0  0  0  0
   55.1420   26.6930   46.0040 O   0  0  0  0  0  0  0  0  0  0  0  0
   52.8599   24.5685   46.4873 H   0  0  0  0  0  0  0  0  0  0  0  0
   53.2482   25.4235   44.9560 H   0  0  0  0  0  0  0  0  0  0  0  0
   53.0152   23.6424   44.9560 H   0  0  0  0  0  0  0  0  0  0  0  0
   54.7498   22.1394   45.7091 H   0  0  0  0  0  0  0  0  0  0  0  0
   57.1664   21.8069   46.2087 H   0  0  0  0  0  0  0  0  0  0  0  0
   58.6530   23.7664   46.5754 H   0  0  0  0  0  0  0  0  0  0  0  0
   56.5550   27.8030   47.1800 H   0  0  0  0  0  0  0  0  0  0  0  0
   58.8379   27.5568   49.5532 H   0  0  0  0  0  0  0  0  0  0  0  0
   62.4030   28.4173   49.9490 H   0  0  0  0  0  0  0  0  0  0  0  0
   63.4967   28.1600   52.1740 H   0  0  0  0  0  0  0  0  0  0  0  0
   62.2845   28.8333   54.2490 H   0  0  0  0  0  0  0  0  0  0  0  0
   59.9747   29.7567   54.1027 H   0  0  0  0  0  0  0  0  0  0  0  0
   60.9824   31.2672   48.9840 H   0  0  0  0  0  0  0  0  0  0  0  0
   59.9957   31.4940   46.7126 H   0  0  0  0  0  0  0  0  0  0  0  0
   56.6637   31.0724   45.5282 H   0  0  0  0  0  0  0  0  0  0  0  0
   58.2763   31.8808   45.3934 H   0  0  0  0  0  0  0  0  0  0  0  0
   56.8430   31.8963   43.2783 H   0  0  0  0  0  0  0  0  0  0  0  0
   58.5242   31.2254   43.1179 H   0  0  0  0  0  0  0  0  0  0  0  0
   55.2904   29.7042   44.2552 H   0  0  0  0  0  0  0  0  0  0  0  0
   55.0362   30.5880   42.7122 H   0  0  0  0  0  0  0  0  0  0  0  0
   55.1505   28.7954   42.7122 H   0  0  0  0  0  0  0  0  0  0  0  0
   56.9270   27.9105   43.9026 H   0  0  0  0  0  0  0  0  0  0  0  0
   58.1677   28.1473   42.5728 H   0  0  0  0  0  0  0  0  0  0  0  0
   59.0337   27.8775   44.9887 H   0  0  0  0  0  0  0  0  0  0  0  0
   59.6655   29.2369   43.9856 H   0  0  0  0  0  0  0  0  0  0  0  0
  1  2  1  0
  2  3  2  0
  3  4  1  0
  4  5  2  0
  5  6  1  0
  6  7  1  0
  7  8  2  0
  7  9  1  0
  9 10  1  0
 10 11  2  0
 11 12  1  0
 12 13  1  0
 13 14  2  0
 14 15  1  0
 15 16  2  0
 16 17  1  0
 17 18  2  0
 18 19  1  0
 12 20  2  0
 20 21  1  0
 21 22  2  0
 22 23  1  0
 23 24  1  0
 24 25  1  0
 25 26  1  0
 26 27  1  0
 26 28  1  0
 28 29  1  0
  6 30  2  0
 30 31  1  0
 30  2  1  0
 22 10  1  0
 29 23  1  0
 18 13  1  0
  1 32  1  0
  1 33  1  0
  1 34  1  0
  3 35  1  0
  4 36  1  0
  5 37  1  0
  9 38  1  0
 11 39  1  0
 14 40  1  0
 15 41  1  0
 16 42  1  0
 17 43  1  0
 20 44  1  0
 21 45  1  0
 24 46  1  0
 24 47  1  0
 25 48  1  0
 25 49  1  0
 27 50  1  0
 27 51  1  0
 27 52  1  0
 28 53  1  0
 28 54  1  0
 29 55  1  0
 29 56  1  0
M  CHG  1  31  -1
M  END
>  <UniqueID>  (68) 
58

>  <SMILES>  (68) 
Cc1cccc(C(=O)Nc2cc(-c3ccccc3Cl)ccc2N2CCN(C)CC2)c1[O-]

>  <Energy>  (68) 
86.06878384303634

>  <Genealogy>  (68) 
Cc1cccc(C(=O)Nc2cc(-c3ccccc3Cl)ccc2N2CCN(C)CC2)c1[O-] (protonated)
Cc1cccc(C(=O)Nc2cc(-c3ccccc3Cl)ccc2N2CCN(C)CC2)c1[O-] (3D coordinates assigned)
Cc1cccc(C(=O)Nc2cc(-c3ccccc3Cl)ccc2N2CCN(C)CC2)c1[O-] (nonaromatic ring conformer: 86.06878384303634 kcal/mol)

>  <smiles>  (68) 
Cc1cccc(C(=O)Nc2cc(-c3ccccc3Cl)ccc2N2CCN(C)CC2)c1O

>  <score_type>  (68) 
oracle

>  <origin>  (68) 
adg

>  <m_score__min__energy>  (68) 
-12

>  <m_primary>  (68) 
energy

$$$$
68:0
     RDKit          3D

 53 55  0  0  0  0  0  0  0  0999 V2000
   57.0630   21.0940   43.0150 C   0  0  0  0  0  0  0  0  0  0  0  0
   56.0050   21.9590   43.4170 O   0  0  0  0  0  0  0  0  0  0  0  0
   56.1920   23.2100   44.0260 C   0  0  0  0  0  0  0  0  0  0  0  0
   55.2650   23.6270   44.9900 C   0  0  0  0  0  0  0  0  0  0  0  0
   55.4090   24.8640   45.6280 C   0  0  0  0  0  0  0  0  0  0  0  0
   56.4900   25.7010   45.3120 C   0  0  0  0  0  0  0  0  0  0  0  0
   56.6400   27.0450   45.9710 C   0  0  0  0  0  0  0  0  0  0  0  0
   57.0120   28.0500   44.9840 N   0  0  0  0  0  0  0  0  0  0  0  0
   56.3750   29.3270   44.8730 C   0  0  0  0  0  0  0  0  0  0  0  0
   55.1630   29.4670   45.1880 O   0  0  0  0  0  0  0  0  0  0  0  0
   57.1680   30.5120   44.4200 C   0  0  0  0  0  0  0  0  0  0  0  0
   58.2580   30.7740   45.3610 N   0  0  0  0  0  0  0  0  0  0  0  0
   59.0970   29.6990   45.8050 C   0  0  0  0  0  0  0  0  0  0  0  0
   59.8080   28.9430   44.8630 C   0  0  0  0  0  0  0  0  0  0  0  0
   60.6250   27.8890   45.2760 C   0  0  0  0  0  0  0  0  0  0  0  0
   60.7330   27.5800   46.6330 C   0  0  0  0  0  0  0  0  0  0  0  0
   60.0220   28.3210   47.5810 C   0  0  0  0  0  0  0  0  0  0  0  0
   59.1940   29.3870   47.1750 C   0  0  0  0  0  0  0  0  0  0  0  0
   58.4450   30.1410   48.0940 O   0  0  0  0  0  0  0  0  0  0  0  0
   58.9010   30.5250   49.3860 C   0  0  0  0  0  0  0  0  0  0  0  0
   58.4260   32.3520   46.0690 S   0  0  0  0  0  0  0  0  0  0  0  0
   57.9030   33.3850   45.1100 O   0  0  0  0  0  0  0  0  0  0  0  0
   57.6450   32.4290   47.3510 O   0  0  0  0  0  0  0  0  0  0  0  0
   60.1130   32.6640   46.4180 C   0  0  0  0  0  0  0  0  0  0  0  0
   60.7610   33.8720   46.3150 C   0  0  0  0  0  0  0  0  0  0  0  0
   62.0320   33.6770   46.7090 N   0  0  0  0  0  0  0  0  0  0  0  0
   62.1280   32.3920   47.0190 N   0  0  0  0  0  0  0  0  0  0  0  0
   63.3340   31.7780   47.5540 C   0  0  0  0  0  0  0  0  0  0  0  0
   60.9820   31.7450   46.8700 N   0  0  0  0  0  0  0  0  0  0  0  0
   57.4160   25.2910   44.3390 C   0  0  0  0  0  0  0  0  0  0  0  0
   57.2720   24.0530   43.7030 C   0  0  0  0  0  0  0  0  0  0  0  0
   57.5619   20.6861   43.9065 H   0  0  0  0  0  0  0  0  0  0  0  0
   56.6536   20.2686   42.4141 H   0  0  0  0  0  0  0  0  0  0  0  0
   57.7905   21.6593   42.4141 H   0  0  0  0  0  0  0  0  0  0  0  0
   54.4164   22.9762   45.2477 H   0  0  0  0  0  0  0  0  0  0  0  0
   54.6719   25.1815   46.3802 H   0  0  0  0  0  0  0  0  0  0  0  0
   55.6853   27.3296   46.4375 H   0  0  0  0  0  0  0  0  0  0  0  0
   57.4280   26.9840   46.7360 H   0  0  0  0  0  0  0  0  0  0  0  0
   57.5877   30.3102   43.4234 H   0  0  0  0  0  0  0  0  0  0  0  0
   56.5094   31.3920   44.3761 H   0  0  0  0  0  0  0  0  0  0  0  0
   59.7218   29.1814   43.7926 H   0  0  0  0  0  0  0  0  0  0  0  0
   61.1836   27.3020   44.5321 H   0  0  0  0  0  0  0  0  0  0  0  0
   61.3794   26.7511   46.9571 H   0  0  0  0  0  0  0  0  0  0  0  0
   60.1090   28.0712   48.6487 H   0  0  0  0  0  0  0  0  0  0  0  0
   58.2982   30.0174   50.1534 H   0  0  0  0  0  0  0  0  0  0  0  0
   59.9572   30.2402   49.5017 H   0  0  0  0  0  0  0  0  0  0  0  0
   58.8001   31.6142   49.5017 H   0  0  0  0  0  0  0  0  0  0  0  0
   60.3218   34.8211   45.9739 H   0  0  0  0  0  0  0  0  0  0  0  0
   63.2981   31.7963   48.6533 H   0  0  0  0  0  0  0  0  0  0  0  0
   63.4003   30.7364   47.2066 H   0  0  0  0  0  0  0  0  0  0  0  0
   64.2153   32.3372   47.2066 H   0  0  0  0  0  0  0  0  0  0  0  0
   58.2590   25.9466   44.0755 H   0  0  0  0  0  0  0  0  0  0  0  0
   58.0061   23.7371   42.9472 H   0  0  0  0  0  0  0  0  0  0  0  0
  1  2  1  0
  2  3  1  0
  3  4  2  0
  4  5  1  0
  5  6  2  0
  6  7  1  0
  7  8  1  0
  8  9  1  0
  9 10  2  0
  9 11  1  0
 11 12  1  0
 12 13  1  0
 13 14  2  0
 14 15  1  0
 15 16  2  0
 16 17  1  0
 17 18  2  0
 18 19  1  0
 19 20  1  0
 12 21  1  0
 21 22  2  0
 21 23  2  0
 21 24  1  0
 24 25  1  0
 25 26  2  0
 26 27  1  0
 27 28  1  0
 27 29  1  0
  6 30  1  0
 30 31  2  0
 31  3  1  0
 18 13  1  0
 29 24  2  0
  1 32  1  0
  1 33  1  0
  1 34  1  0
  4 35  1  0
  5 36  1  0
  7 37  1  0
  7 38  1  0
 11 39  1  0
 11 40  1  0
 14 41  1  0
 15 42  1  0
 16 43  1  0
 17 44  1  0
 20 45  1  0
 20 46  1  0
 20 47  1  0
 25 48  1  0
 28 49  1  0
 28 50  1  0
 28 51  1  0
 30 52  1  0
 31 53  1  0
M  CHG  1   8  -1
M  END
>  <UniqueID>  (69) 
59

>  <SMILES>  (69) 
COc1ccc(C[N-]C(=O)CN(c2ccccc2OC)S(=O)(=O)c2cnn(C)n2)cc1

>  <Energy>  (69) 
87.6792170985762

>  <Genealogy>  (69) 
COc1ccc(C[N-]C(=O)CN(c2ccccc2OC)S(=O)(=O)c2cnn(C)n2)cc1 (protonated)
COc1ccc(C[N-]C(=O)CN(c2ccccc2OC)S(=O)(=O)c2cnn(C)n2)cc1 (3D coordinates assigned)
COc1ccc(C[N-]C(=O)CN(c2ccccc2OC)S(=O)(=O)c2cnn(C)n2)cc1 (optimized conformer: 87.6792170985762 kcal/mol)

>  <smiles>  (69) 
COc1ccc(CNC(=O)CN(c2ccccc2OC)S(=O)(=O)c2cnn(C)n2)cc1

>  <score_type>  (69) 
oracle

>  <origin>  (69) 
adg

>  <m_score__min__energy>  (69) 
-10.6

>  <m_primary>  (69) 
energy

$$$$
69:0
     RDKit          3D

 56 59  0  0  0  0  0  0  0  0999 V2000
   57.7660   26.7330   47.8550 O   0  0  0  0  0  0  0  0  0  0  0  0
   57.7900   26.7010   46.5950 C   0  0  0  0  0  0  0  0  0  0  0  0
   57.1430   25.5760   45.9030 C   0  0  0  0  0  0  0  0  0  0  0  0
   57.9040   24.4580   45.5310 C   0  0  0  0  0  0  0  0  0  0  0  0
   57.3010   23.3880   44.8650 C   0  0  0  0  0  0  0  0  0  0  0  0
   55.9330   23.4210   44.5780 C   0  0  0  0  0  0  0  0  0  0  0  0
   55.3360   22.3580   43.9130 O   0  0  0  0  0  0  0  0  0  0  0  0
   55.1650   24.5250   44.9630 C   0  0  0  0  0  0  0  0  0  0  0  0
   55.7630   25.6000   45.6300 C   0  0  0  0  0  0  0  0  0  0  0  0
   54.9830   26.6830   46.0170 O   0  0  0  0  0  0  0  0  0  0  0  0
   58.4480   27.7550   45.8630 N   0  0  0  0  0  0  0  0  0  0  0  0
   58.4360   27.7630   44.3910 C   0  0  0  0  0  0  0  0  0  0  0  0
   57.9380   29.0810   43.8600 C   0  0  0  0  0  0  0  0  0  0  0  0
   56.7510   29.1500   43.1160 C   0  0  0  0  0  0  0  0  0  0  0  0
   56.3030   30.3780   42.6250 C   0  0  0  0  0  0  0  0  0  0  0  0
   57.0430   31.5310   42.8920 C   0  0  0  0  0  0  0  0  0  0  0  0
   58.1840   31.4540   43.6260 N   0  0  0  0  0  0  0  0  0  0  0  0
   58.6410   30.2700   44.1160 C   0  0  0  0  0  0  0  0  0  0  0  0
   59.1370   28.7910   46.5910 C   0  0  0  0  0  0  0  0  0  0  0  0
   60.4930   29.0600   46.3500 C   0  0  0  0  0  0  0  0  0  0  0  0
   61.1510   30.0690   47.0580 C   0  0  0  0  0  0  0  0  0  0  0  0
   60.4650   30.8260   48.0280 C   0  0  0  0  0  0  0  0  0  0  0  0
   61.1150   31.8700   48.7770 N   0  0  0  0  0  0  0  0  0  0  0  0
   61.4790   33.1650   48.1980 C   0  0  0  0  0  0  0  0  0  0  0  0
   60.3420   34.1780   48.3620 C   0  0  0  0  0  0  0  0  0  0  0  0
   59.4060   34.1200   47.1850 C   0  0  0  0  0  0  0  0  0  0  0  0
   58.1430   33.5170   47.3130 C   0  0  0  0  0  0  0  0  0  0  0  0
   57.2620   33.4920   46.2280 C   0  0  0  0  0  0  0  0  0  0  0  0
   57.6290   34.0770   45.0130 C   0  0  0  0  0  0  0  0  0  0  0  0
   58.8790   34.6900   44.8810 C   0  0  0  0  0  0  0  0  0  0  0  0
   59.7630   34.7170   45.9640 C   0  0  0  0  0  0  0  0  0  0  0  0
   59.1100   30.5480   48.2700 C   0  0  0  0  0  0  0  0  0  0  0  0
   58.4540   29.5390   47.5620 C   0  0  0  0  0  0  0  0  0  0  0  0
   58.9784   24.4236   45.7642 H   0  0  0  0  0  0  0  0  0  0  0  0
   57.9037   22.5178   44.5658 H   0  0  0  0  0  0  0  0  0  0  0  0
   54.0879   24.5481   44.7408 H   0  0  0  0  0  0  0  0  0  0  0  0
   59.4579   27.5903   44.0225 H   0  0  0  0  0  0  0  0  0  0  0  0
   57.7599   26.9682   44.0429 H   0  0  0  0  0  0  0  0  0  0  0  0
   56.1722   28.2355   42.9191 H   0  0  0  0  0  0  0  0  0  0  0  0
   55.3769   30.4361   42.0342 H   0  0  0  0  0  0  0  0  0  0  0  0
   56.7020   32.5036   42.5076 H   0  0  0  0  0  0  0  0  0  0  0  0
   59.5636   30.2436   44.7144 H   0  0  0  0  0  0  0  0  0  0  0  0
   61.0415   28.4727   45.5988 H   0  0  0  0  0  0  0  0  0  0  0  0
   62.2128   30.2738   46.8564 H   0  0  0  0  0  0  0  0  0  0  0  0
   61.3380   31.6870   49.7830 H   0  0  0  0  0  0  0  0  0  0  0  0
   62.3770   33.5466   48.7060 H   0  0  0  0  0  0  0  0  0  0  0  0
   61.6734   33.0268   47.1242 H   0  0  0  0  0  0  0  0  0  0  0  0
   59.7823   33.9475   49.2805 H   0  0  0  0  0  0  0  0  0  0  0  0
   60.7734   35.1881   48.4222 H   0  0  0  0  0  0  0  0  0  0  0  0
   57.8467   33.0632   48.2702 H   0  0  0  0  0  0  0  0  0  0  0  0
   56.2781   33.0110   46.3307 H   0  0  0  0  0  0  0  0  0  0  0  0
   56.9345   34.0553   44.1603 H   0  0  0  0  0  0  0  0  0  0  0  0
   59.1669   35.1511   43.9247 H   0  0  0  0  0  0  0  0  0  0  0  0
   60.7420   35.2076   45.8598 H   0  0  0  0  0  0  0  0  0  0  0  0
   58.5604   31.1304   49.0242 H   0  0  0  0  0  0  0  0  0  0  0  0
   57.3939   29.3289   47.7670 H   0  0  0  0  0  0  0  0  0  0  0  0
  1  2  2  0
  2  3  1  0
  3  4  2  0
  4  5  1  0
  5  6  2  0
  6  7  1  0
  6  8  1  0
  8  9  2  0
  9 10  1  0
  2 11  1  0
 11 12  1  0
 12 13  1  0
 13 14  2  0
 14 15  1  0
 15 16  2  0
 16 17  1  0
 17 18  2  0
 11 19  1  0
 19 20  2  0
 20 21  1  0
 21 22  2  0
 22 23  1  0
 23 24  1  0
 24 25  1  0
 25 26  1  0
 26 27  2  0
 27 28  1  0
 28 29  2  0
 29 30  1  0
 30 31  2  0
 22 32  1  0
 32 33  2  0
  9  3  1  0
 18 13  1  0
 33 19  1  0
 31 26  1  0
  4 34  1  0
  5 35  1  0
  8 36  1  0
 12 37  1  0
 12 38  1  0
 14 39  1  0
 15 40  1  0
 16 41  1  0
 18 42  1  0
 20 43  1  0
 21 44  1  0
 23 45  1  0
 24 46  1  0
 24 47  1  0
 25 48  1  0
 25 49  1  0
 27 50  1  0
 28 51  1  0
 29 52  1  0
 30 53  1  0
 31 54  1  0
 32 55  1  0
 33 56  1  0
M  CHG  2   7  -1  10  -1
M  END
>  <UniqueID>  (70) 
60

>  <SMILES>  (70) 
O=C(c1ccc([O-])cc1[O-])N(Cc1cccnc1)c1ccc(NCCc2ccccc2)cc1

>  <Energy>  (70) 
69.83808721223846

>  <Genealogy>  (70) 
O=C(c1ccc([O-])cc1[O-])N(Cc1cccnc1)c1ccc(NCCc2ccccc2)cc1 (protonated)
O=C(c1ccc([O-])cc1[O-])N(Cc1cccnc1)c1ccc(NCCc2ccccc2)cc1 (3D coordinates assigned)
O=C(c1ccc([O-])cc1[O-])N(Cc1cccnc1)c1ccc(NCCc2ccccc2)cc1 (optimized conformer: 69.83808721223846 kcal/mol)

>  <smiles>  (70) 
O=C(c1ccc(O)cc1O)N(Cc1cccnc1)c1ccc(NCCc2ccccc2)cc1

>  <score_type>  (70) 
oracle

>  <origin>  (70) 
adg

>  <m_score__min__energy>  (70) 
-15.050000000000001

>  <m_primary>  (70) 
energy

$$$$
70:0
     RDKit          3D

 54 59  0  0  0  0  0  0  0  0999 V2000
   52.8717   31.9598   53.1845 H   0  0  0  0  0  0  0  0  0  0  0  0
   53.0980   31.2040   52.4180 C   0  0  0  0  0  0  0  0  0  0  0  0
   52.2780   31.2180   51.1870 C   0  0  0  0  0  0  0  0  0  0  0  0
   52.3060   30.2950   50.2090 N   0  0  0  0  0  0  0  0  0  0  0  0
   51.3880   30.7430   49.3260 C   0  0  0  0  0  0  0  0  0  0  0  0
   51.1250   30.1350   48.2560 O   0  0  0  0  0  0  0  0  0  0  0  0
   50.7760   31.8910   49.6800 N   0  0  0  0  0  0  0  0  0  0  0  0
   51.3500   32.1780   50.8600 C   0  0  0  0  0  0  0  0  0  0  0  0
   51.0300   33.2950   51.6220 O   0  0  0  0  0  0  0  0  0  0  0  0
   54.0970   30.3430   52.6760 C   0  0  0  0  0  0  0  0  0  0  0  0
   54.0850   29.1390   53.3670 C   0  0  0  0  0  0  0  0  0  0  0  0
   53.2006   28.6810   53.8339 H   0  0  0  0  0  0  0  0  0  0  0  0
   55.3320   28.6190   53.3750 N   0  0  0  0  0  0  0  0  0  0  0  0
   55.5400   27.7340   53.8570 H   0  0  0  0  0  0  0  0  0  0  0  0
   56.1520   29.4310   52.7140 N   0  0  0  0  0  0  0  0  0  0  0  0
   57.5050   29.3800   52.4340 C   0  0  0  0  0  0  0  0  0  0  0  0
   58.3460   28.4210   52.7450 N   0  0  0  0  0  0  0  0  0  0  0  0
   59.7400   27.9470   52.7720 C   0  0  0  0  0  0  0  0  0  0  0  0
   59.5070   27.0892   53.4199 H   0  0  0  0  0  0  0  0  0  0  0  0
   60.5470   28.1270   51.5150 C   0  0  0  0  0  0  0  0  0  0  0  0
   61.2691   27.3565   51.2070 H   0  0  0  0  0  0  0  0  0  0  0  0
   60.3162   28.3281   50.4585 H   0  0  0  0  0  0  0  0  0  0  0  0
   60.8220   28.9930   52.7650 C   0  0  0  0  0  0  0  0  0  0  0  0
   61.7406   28.8416   53.3508 H   0  0  0  0  0  0  0  0  0  0  0  0
   60.8698   30.0716   52.9753 H   0  0  0  0  0  0  0  0  0  0  0  0
   58.0360   30.4270   51.7420 N   0  0  0  0  0  0  0  0  0  0  0  0
   57.2840   31.4820   51.3290 C   0  0  0  0  0  0  0  0  0  0  0  0
   57.8510   32.4500   50.6730 N   0  0  0  0  0  0  0  0  0  0  0  0
   59.2580   32.4600   50.2830 C   0  0  0  0  0  0  0  0  0  0  0  0
   59.8220   33.1206   50.9579 H   0  0  0  0  0  0  0  0  0  0  0  0
   59.6661   31.4405   50.3469 H   0  0  0  0  0  0  0  0  0  0  0  0
   59.3770   32.9630   48.8730 C   0  0  0  0  0  0  0  0  0  0  0  0
   60.0350   34.1750   48.6080 C   0  0  0  0  0  0  0  0  0  0  0  0
   60.4902   34.7436   49.4323 H   0  0  0  0  0  0  0  0  0  0  0  0
   60.1130   34.6600   47.3020 C   0  0  0  0  0  0  0  0  0  0  0  0
   60.6395   35.6042   47.0986 H   0  0  0  0  0  0  0  0  0  0  0  0
   59.5250   33.9510   46.2520 C   0  0  0  0  0  0  0  0  0  0  0  0
   59.5930   34.3393   45.2251 H   0  0  0  0  0  0  0  0  0  0  0  0
   58.8460   32.7430   46.4990 C   0  0  0  0  0  0  0  0  0  0  0  0
   58.2060   31.9980   45.3840 C   0  0  0  0  0  0  0  0  0  0  0  0
   58.0840   32.5820   44.1090 C   0  0  0  0  0  0  0  0  0  0  0  0
   58.4614   33.6007   43.9366 H   0  0  0  0  0  0  0  0  0  0  0  0
   57.4870   31.8770   43.0610 C   0  0  0  0  0  0  0  0  0  0  0  0
   57.3961   32.3425   42.0685 H   0  0  0  0  0  0  0  0  0  0  0  0
   57.0050   30.5820   43.2700 C   0  0  0  0  0  0  0  0  0  0  0  0
   56.4280   29.9020   42.2490 F   0  0  0  0  0  0  0  0  0  0  0  0
   57.1180   29.9910   44.5320 C   0  0  0  0  0  0  0  0  0  0  0  0
   56.6480   28.7360   44.7390 F   0  0  0  0  0  0  0  0  0  0  0  0
   57.7160   30.6930   45.5840 C   0  0  0  0  0  0  0  0  0  0  0  0
   57.8041   30.2223   46.5743 H   0  0  0  0  0  0  0  0  0  0  0  0
   58.7740   32.2590   47.8180 C   0  0  0  0  0  0  0  0  0  0  0  0
   58.2401   31.3198   48.0250 H   0  0  0  0  0  0  0  0  0  0  0  0
   55.9540   31.5100   51.6030 N   0  0  0  0  0  0  0  0  0  0  0  0
   55.4150   30.4790   52.2910 C   0  0  0  0  0  0  0  0  0  0  0  0
  1  2  1  0
  2  3  1  0
  3  4  1  0
  4  5  1  0
  5  6  2  0
  5  7  1  0
  7  8  1  0
  8  9  1  0
  2 10  2  3
 10 11  1  0
 11 12  1  0
 11 13  2  0
 13 14  1  0
 13 15  1  0
 15 16  1  0
 16 17  2  3
 17 18  1  0
 18 19  1  0
 18 20  1  0
 20 21  1  0
 20 22  1  0
 20 23  1  0
 23 24  1  0
 23 25  1  0
 16 26  1  0
 26 27  1  0
 27 28  2  0
 28 29  1  0
 29 30  1  0
 29 31  1  0
 29 32  1  0
 32 33  2  0
 33 34  1  0
 33 35  1  0
 35 36  1  0
 35 37  2  0
 37 38  1  0
 37 39  1  0
 39 40  1  0
 40 41  2  0
 41 42  1  0
 41 43  1  0
 43 44  1  0
 43 45  2  0
 45 46  1  0
 45 47  1  0
 47 48  1  0
 47 49  2  0
 49 50  1  0
 39 51  2  0
 51 52  1  0
 27 53  1  0
 53 54  2  0
  8  3  2  0
 54 10  1  0
 54 15  1  0
 23 18  1  0
 51 32  1  0
 49 40  1  0
M  CHG  5   4  -1   7  -1   9  -1  13   1  26  -1
M  END
>  <UniqueID>  (71) 
61

>  <SMILES>  (71) 
O=c1[n-]c([O-])c(C=c2c[nH+]n3c(=NC4CC4)[n-]/c(=N/Cc4cccc(-c5ccc(F)c(F)c5)c4)nc23)[n-]1

>  <Energy>  (71) 
440.3875219774741

>  <Genealogy>  (71) 
O=c1[n-]c([O-])c(C=c2c[nH+]n3c(=NC4CC4)[n-]c(=NCc4cccc(-c5ccc(F)c(F)c5)c4)nc23)[n-]1 (protonated)
O=c1[n-]c([O-])c(C=c2c[nH+]n3c(=NC4CC4)[n-]/c(=N/Cc4cccc(-c5ccc(F)c(F)c5)c4)nc23)[n-]1 (cis-trans isomerization)
O=c1[n-]c([O-])c(C=c2c[nH+]n3c(=NC4CC4)[n-]/c(=N/Cc4cccc(-c5ccc(F)c(F)c5)c4)nc23)[n-]1 (3D coordinates assigned)
O=c1[n-]c([O-])c(C=c2c[nH+]n3c(=NC4CC4)[n-]/c(=N/Cc4cccc(-c5ccc(F)c(F)c5)c4)nc23)[n-]1 (nonaromatic ring conformer: 440.3875219774741 kcal/mol)

>  <smiles>  (71) 
O=c1[nH]c(O)c(C=c2cnn3c(=NC4CC4)[nH]c(=NCc4cccc(-c5ccc(F)c(F)c5)c4)nc23)[nH]1

>  <score_type>  (71) 
oracle

>  <origin>  (71) 
adg

>  <m_score__min__energy>  (71) 
-19.079999999999998

>  <m_primary>  (71) 
energy

$$$$
71:0
     RDKit          3D

 46 48  0  0  0  0  0  0  0  0999 V2000
   58.1550   27.6440   44.2090 C   0  0  0  0  0  0  0  0  0  0  0  0
   57.0370   28.3160   45.4170 S   0  0  0  0  0  0  0  0  0  0  0  0
   57.7760   28.5180   46.7100 O   0  0  0  0  0  0  0  0  0  0  0  0
   55.8990   27.3570   45.6200 O   0  0  0  0  0  0  0  0  0  0  0  0
   56.4340   29.8350   44.8390 N   0  0  0  0  0  0  0  0  0  0  0  0
   57.1470   31.0780   44.8830 C   0  0  0  0  0  0  0  0  0  0  0  0
   57.2190   31.8490   43.7190 C   0  0  0  0  0  0  0  0  0  0  0  0
   57.8980   33.0680   43.7170 C   0  0  0  0  0  0  0  0  0  0  0  0
   58.5130   33.5400   44.8850 C   0  0  0  0  0  0  0  0  0  0  0  0
   58.4700   32.7600   46.0570 C   0  0  0  0  0  0  0  0  0  0  0  0
   57.7710   31.5410   46.0550 C   0  0  0  0  0  0  0  0  0  0  0  0
   59.0800   33.2610   47.3460 C   0  0  0  0  0  0  0  0  0  0  0  0
   60.1220   34.2900   47.1310 N   0  0  0  0  0  0  0  0  0  0  0  0
   61.4070   33.7140   46.6730 C   0  0  0  0  0  0  0  0  0  0  0  0
   62.4320   33.7290   47.8170 C   0  0  0  0  0  0  0  0  0  0  0  0
   62.8570   32.3430   48.2450 C   0  0  0  0  0  0  0  0  0  0  0  0
   64.0730   32.1200   48.5040 O   0  0  0  0  0  0  0  0  0  0  0  0
   61.8800   31.2240   48.3260 C   0  0  0  0  0  0  0  0  0  0  0  0
   61.3800   30.7750   49.5660 C   0  0  0  0  0  0  0  0  0  0  0  0
   60.4600   29.7240   49.6200 C   0  0  0  0  0  0  0  0  0  0  0  0
   60.0260   29.1090   48.4440 C   0  0  0  0  0  0  0  0  0  0  0  0
   60.5090   29.5460   47.2090 C   0  0  0  0  0  0  0  0  0  0  0  0
   61.4290   30.5980   47.1480 C   0  0  0  0  0  0  0  0  0  0  0  0
   59.6240   35.3570   46.2400 C   0  0  0  0  0  0  0  0  0  0  0  0
   59.2890   34.8300   44.8370 C   0  0  0  0  0  0  0  0  0  0  0  0
   58.9895   27.1424   44.7208 H   0  0  0  0  0  0  0  0  0  0  0  0
   57.6209   26.9171   43.5794 H   0  0  0  0  0  0  0  0  0  0  0  0
   58.5463   28.4567   43.5794 H   0  0  0  0  0  0  0  0  0  0  0  0
   56.7365   31.4918   42.7973 H   0  0  0  0  0  0  0  0  0  0  0  0
   57.9510   33.6624   42.7930 H   0  0  0  0  0  0  0  0  0  0  0  0
   57.7115   30.9444   46.9772 H   0  0  0  0  0  0  0  0  0  0  0  0
   58.2818   33.6947   47.9662 H   0  0  0  0  0  0  0  0  0  0  0  0
   59.5615   32.4028   47.8376 H   0  0  0  0  0  0  0  0  0  0  0  0
   61.2439   32.6769   46.3446 H   0  0  0  0  0  0  0  0  0  0  0  0
   61.7928   34.3160   45.8371 H   0  0  0  0  0  0  0  0  0  0  0  0
   63.3225   34.2816   47.4830 H   0  0  0  0  0  0  0  0  0  0  0  0
   61.9528   34.2092   48.6829 H   0  0  0  0  0  0  0  0  0  0  0  0
   61.7163   31.2551   50.4968 H   0  0  0  0  0  0  0  0  0  0  0  0
   60.0767   29.3803   50.5921 H   0  0  0  0  0  0  0  0  0  0  0  0
   59.3039   28.2805   48.4905 H   0  0  0  0  0  0  0  0  0  0  0  0
   60.1656   29.0623   46.2826 H   0  0  0  0  0  0  0  0  0  0  0  0
   61.8033   30.9391   46.1715 H   0  0  0  0  0  0  0  0  0  0  0  0
   58.7153   35.7922   46.6815 H   0  0  0  0  0  0  0  0  0  0  0  0
   60.4188   36.1105   46.1375 H   0  0  0  0  0  0  0  0  0  0  0  0
   58.6886   35.5853   44.3087 H   0  0  0  0  0  0  0  0  0  0  0  0
   60.2368   34.6351   44.3139 H   0  0  0  0  0  0  0  0  0  0  0  0
  1  2  1  0
  2  3  2  0
  2  4  2  0
  2  5  1  0
  5  6  1  0
  6  7  2  0
  7  8  1  0
  8  9  2  0
  9 10  1  0
 10 11  2  0
 10 12  1  0
 12 13  1  0
 13 14  1  0
 14 15  1  0
 15 16  1  0
 16 17  2  0
 16 18  1  0
 18 19  2  0
 19 20  1  0
 20 21  2  0
 21 22  1  0
 22 23  2  0
 13 24  1  0
 24 25  1  0
 11  6  1  0
 23 18  1  0
 25  9  1  0
  1 26  1  0
  1 27  1  0
  1 28  1  0
  7 29  1  0
  8 30  1  0
 11 31  1  0
 12 32  1  0
 12 33  1  0
 14 34  1  0
 14 35  1  0
 15 36  1  0
 15 37  1  0
 19 38  1  0
 20 39  1  0
 21 40  1  0
 22 41  1  0
 23 42  1  0
 24 43  1  0
 24 44  1  0
 25 45  1  0
 25 46  1  0
M  CHG  1   5  -1
M  END
>  <UniqueID>  (72) 
62

>  <SMILES>  (72) 
CS(=O)(=O)[N-]c1ccc2c(c1)CN(CCC(=O)c1ccccc1)CC2

>  <Energy>  (72) 
53.242191872852665

>  <Genealogy>  (72) 
CS(=O)(=O)[N-]c1ccc2c(c1)CN(CCC(=O)c1ccccc1)CC2 (protonated)
CS(=O)(=O)[N-]c1ccc2c(c1)CN(CCC(=O)c1ccccc1)CC2 (3D coordinates assigned)
CS(=O)(=O)[N-]c1ccc2c(c1)CN(CCC(=O)c1ccccc1)CC2 (nonaromatic ring conformer: 53.242191872852665 kcal/mol)

>  <smiles>  (72) 
CS(=O)(=O)Nc1ccc2c(c1)CN(CCC(=O)c1ccccc1)CC2

>  <score_type>  (72) 
oracle

>  <origin>  (72) 
adg

>  <m_score__min__energy>  (72) 
-10.859999999999999

>  <m_primary>  (72) 
energy

$$$$
72:0
     RDKit          3D

 49 51  0  0  0  0  0  0  0  0999 V2000
   54.8600   29.6550   43.4370 O   0  0  0  0  0  0  0  0  0  0  0  0
   55.8350   29.8740   44.2070 C   0  0  0  0  0  0  0  0  0  0  0  0
   56.7030   31.0770   43.9850 C   0  0  0  0  0  0  0  0  0  0  0  0
   57.3650   31.5040   45.2320 N   0  0  0  0  0  0  0  0  0  0  0  0
   57.2560   32.9460   45.5080 C   0  0  0  0  0  0  0  0  0  0  0  0
   58.0210   33.4090   46.7650 C   0  0  0  0  0  0  0  0  0  0  0  0
   59.0710   34.5040   46.5100 C   0  0  0  0  0  0  0  0  0  0  0  0
   60.3810   34.2060   47.1940 C   0  0  0  0  0  0  0  0  0  0  0  0
   60.4830   34.2570   48.5950 C   0  0  0  0  0  0  0  0  0  0  0  0
   61.6960   33.9600   49.2230 C   0  0  0  0  0  0  0  0  0  0  0  0
   62.8140   33.6090   48.4610 C   0  0  0  0  0  0  0  0  0  0  0  0
   62.7190   33.5540   47.0670 C   0  0  0  0  0  0  0  0  0  0  0  0
   61.5080   33.8500   46.4350 C   0  0  0  0  0  0  0  0  0  0  0  0
   56.1420   28.9820   45.2370 O   0  0  0  0  0  0  0  0  0  0  0  0
   57.4010   28.3250   45.3380 C   0  0  0  0  0  0  0  0  0  0  0  0
   57.3630   27.2970   46.4670 C   0  0  0  0  0  0  0  0  0  0  0  0
   57.0030   25.9330   45.9460 C   0  0  0  0  0  0  0  0  0  0  0  0
   58.0000   25.0630   45.6280 N   0  0  0  0  0  0  0  0  0  0  0  0
   57.7340   23.8300   45.1240 C   0  0  0  0  0  0  0  0  0  0  0  0
   58.7720   22.9470   44.8090 C   0  0  0  0  0  0  0  0  0  0  0  0
   58.4770   21.6820   44.2900 C   0  0  0  0  0  0  0  0  0  0  0  0
   57.1450   21.2980   44.0850 C   0  0  0  0  0  0  0  0  0  0  0  0
   56.1040   22.1780   44.3980 C   0  0  0  0  0  0  0  0  0  0  0  0
   56.3940   23.4450   44.9160 C   0  0  0  0  0  0  0  0  0  0  0  0
   55.3970   24.3140   45.2220 N   0  0  0  0  0  0  0  0  0  0  0  0
   55.6650   25.5470   45.7260 C   0  0  0  0  0  0  0  0  0  0  0  0
   54.7130   26.3290   45.9910 O   0  0  0  0  0  0  0  0  0  0  0  0
   57.4723   30.8298   43.2386 H   0  0  0  0  0  0  0  0  0  0  0  0
   56.0660   31.9017   43.6328 H   0  0  0  0  0  0  0  0  0  0  0  0
   57.0660   30.9380   46.0580 H   0  0  0  0  0  0  0  0  0  0  0  0
   57.6533   33.4941   44.6410 H   0  0  0  0  0  0  0  0  0  0  0  0
   56.1914   33.1530   45.6919 H   0  0  0  0  0  0  0  0  0  0  0  0
   57.2889   33.7977   47.4881 H   0  0  0  0  0  0  0  0  0  0  0  0
   58.5705   32.5312   47.1358 H   0  0  0  0  0  0  0  0  0  0  0  0
   59.2463   34.5815   45.4268 H   0  0  0  0  0  0  0  0  0  0  0  0
   58.6821   35.4475   46.9207 H   0  0  0  0  0  0  0  0  0  0  0  0
   59.6056   34.5315   49.1990 H   0  0  0  0  0  0  0  0  0  0  0  0
   61.7709   34.0026   50.3196 H   0  0  0  0  0  0  0  0  0  0  0  0
   63.7676   33.3763   48.9574 H   0  0  0  0  0  0  0  0  0  0  0  0
   63.5985   33.2774   46.4670 H   0  0  0  0  0  0  0  0  0  0  0  0
   61.4372   33.8039   45.3382 H   0  0  0  0  0  0  0  0  0  0  0  0
   57.6237   27.8158   44.3887 H   0  0  0  0  0  0  0  0  0  0  0  0
   58.1814   29.0698   45.5531 H   0  0  0  0  0  0  0  0  0  0  0  0
   58.3535   27.2497   46.9432 H   0  0  0  0  0  0  0  0  0  0  0  0
   56.5982   27.6058   47.1948 H   0  0  0  0  0  0  0  0  0  0  0  0
   59.8182   23.2468   44.9691 H   0  0  0  0  0  0  0  0  0  0  0  0
   59.2927   20.9869   44.0422 H   0  0  0  0  0  0  0  0  0  0  0  0
   56.9176   20.3021   43.6769 H   0  0  0  0  0  0  0  0  0  0  0  0
   55.0590   21.8745   44.2372 H   0  0  0  0  0  0  0  0  0  0  0  0
  1  2  2  0
  2  3  1  0
  3  4  1  0
  4  5  1  0
  5  6  1  0
  6  7  1  0
  7  8  1  0
  8  9  2  0
  9 10  1  0
 10 11  2  0
 11 12  1  0
 12 13  2  0
  2 14  1  0
 14 15  1  0
 15 16  1  0
 16 17  1  0
 17 18  2  0
 18 19  1  0
 19 20  2  0
 20 21  1  0
 21 22  2  0
 22 23  1  0
 23 24  2  0
 24 25  1  0
 25 26  1  0
 26 27  2  0
 13  8  1  0
 26 17  1  0
 24 19  1  0
  3 28  1  0
  3 29  1  0
  4 30  1  0
  5 31  1  0
  5 32  1  0
  6 33  1  0
  6 34  1  0
  7 35  1  0
  7 36  1  0
  9 37  1  0
 10 38  1  0
 11 39  1  0
 12 40  1  0
 13 41  1  0
 15 42  1  0
 15 43  1  0
 16 44  1  0
 16 45  1  0
 20 46  1  0
 21 47  1  0
 22 48  1  0
 23 49  1  0
M  CHG  1  25  -1
M  END
>  <UniqueID>  (73) 
63

>  <SMILES>  (73) 
O=C(CNCCCc1ccccc1)OCCc1nc2ccccc2[n-]c1=O

>  <Energy>  (73) 
48.33626041007573

>  <Genealogy>  (73) 
O=C(CNCCCc1ccccc1)OCCc1nc2ccccc2[n-]c1=O (protonated)
O=C(CNCCCc1ccccc1)OCCc1nc2ccccc2[n-]c1=O (3D coordinates assigned)
O=C(CNCCCc1ccccc1)OCCc1nc2ccccc2[n-]c1=O (optimized conformer: 48.33626041007573 kcal/mol)

>  <smiles>  (73) 
O=C(CNCCCc1ccccc1)OCCc1nc2ccccc2[nH]c1=O

>  <score_type>  (73) 
oracle

>  <origin>  (73) 
adg

>  <m_score__min__energy>  (73) 
-10.390000000000001

>  <m_primary>  (73) 
energy

$$$$
73:0
     RDKit          3D

 41 44  0  0  0  0  0  0  0  0999 V2000
   59.7490   26.7610   48.2520 O   0  0  0  0  0  0  0  0  0  0  0  0
   59.8190   28.0140   48.0700 C   0  0  0  0  0  0  0  0  0  0  0  0
   60.8530   28.6140   48.5920 O   0  0  0  0  0  0  0  0  0  0  0  0
   61.0700   29.8950   48.4960 C   0  0  0  0  0  0  0  0  0  0  0  0
   62.1790   30.5270   49.0550 O   0  0  0  0  0  0  0  0  0  0  0  0
   62.6590   31.7310   48.6110 C   0  0  0  0  0  0  0  0  0  0  0  0
   63.2760   31.8070   47.3680 C   0  0  0  0  0  0  0  0  0  0  0  0
   63.7510   33.0150   46.9360 C   0  0  0  0  0  0  0  0  0  0  0  0
   63.6580   34.1850   47.6640 C   0  0  0  0  0  0  0  0  0  0  0  0
   63.0410   34.0910   48.8990 C   0  0  0  0  0  0  0  0  0  0  0  0
   62.5520   32.8800   49.3560 C   0  0  0  0  0  0  0  0  0  0  0  0
   60.1490   30.6460   47.8040 C   0  0  0  0  0  0  0  0  0  0  0  0
   59.0190   30.0460   47.2260 C   0  0  0  0  0  0  0  0  0  0  0  0
   58.1340   30.9350   46.5730 N   0  0  0  0  0  0  0  0  0  0  0  0
   58.5310   32.3020   46.4420 C   0  0  0  0  0  0  0  0  0  0  0  0
   58.8910   32.8440   45.2270 C   0  0  0  0  0  0  0  0  0  0  0  0
   59.2790   34.1770   45.0920 C   0  0  0  0  0  0  0  0  0  0  0  0
   59.3140   34.9990   46.1760 C   0  0  0  0  0  0  0  0  0  0  0  0
   58.9580   34.4840   47.4050 C   0  0  0  0  0  0  0  0  0  0  0  0
   58.5740   33.1570   47.5320 C   0  0  0  0  0  0  0  0  0  0  0  0
   58.8300   28.6950   47.3470 C   0  0  0  0  0  0  0  0  0  0  0  0
   57.7870   27.9300   46.7120 C   0  0  0  0  0  0  0  0  0  0  0  0
   56.8260   28.5160   45.9390 N   0  0  0  0  0  0  0  0  0  0  0  0
   55.9560   27.6270   45.5110 N   0  0  0  0  0  0  0  0  0  0  0  0
   56.3130   26.4430   45.9850 C   0  0  0  0  0  0  0  0  0  0  0  0
   55.5430   25.0310   45.7270 S   0  0  0  0  0  0  0  0  0  0  0  0
   57.4450   26.6410   46.7260 N   0  0  0  0  0  0  0  0  0  0  0  0
   63.3808   30.9093   46.7410 H   0  0  0  0  0  0  0  0  0  0  0  0
   64.2361   33.0570   45.9496 H   0  0  0  0  0  0  0  0  0  0  0  0
   64.0525   35.1386   47.2832 H   0  0  0  0  0  0  0  0  0  0  0  0
   62.9380   34.9897   49.5249 H   0  0  0  0  0  0  0  0  0  0  0  0
   62.0650   32.8363   50.3413 H   0  0  0  0  0  0  0  0  0  0  0  0
   60.2996   31.7309   47.7020 H   0  0  0  0  0  0  0  0  0  0  0  0
   57.2060   30.6670   46.1780 H   0  0  0  0  0  0  0  0  0  0  0  0
   58.8717   32.2033   44.3330 H   0  0  0  0  0  0  0  0  0  0  0  0
   59.5587   34.5666   44.1021 H   0  0  0  0  0  0  0  0  0  0  0  0
   59.6194   36.0508   46.0743 H   0  0  0  0  0  0  0  0  0  0  0  0
   58.9788   35.1321   48.2935 H   0  0  0  0  0  0  0  0  0  0  0  0
   58.2961   32.7730   48.5246 H   0  0  0  0  0  0  0  0  0  0  0  0
   55.1480   27.8650   44.9100 H   0  0  0  0  0  0  0  0  0  0  0  0
   57.8990   25.8810   47.2130 H   0  0  0  0  0  0  0  0  0  0  0  0
  1  2  2  0
  2  3  1  0
  3  4  1  0
  4  5  1  0
  5  6  1  0
  6  7  2  0
  7  8  1  0
  8  9  2  0
  9 10  1  0
 10 11  2  0
  4 12  2  0
 12 13  1  0
 13 14  1  0
 14 15  1  0
 15 16  2  0
 16 17  1  0
 17 18  2  0
 18 19  1  0
 19 20  2  0
 13 21  2  0
 21 22  1  0
 22 23  2  0
 23 24  1  0
 24 25  1  0
 25 26  2  0
 25 27  1  0
 21  2  1  0
 27 22  1  0
 11  6  1  0
 20 15  1  0
  7 28  1  0
  8 29  1  0
  9 30  1  0
 10 31  1  0
 11 32  1  0
 12 33  1  0
 14 34  1  0
 16 35  1  0
 17 36  1  0
 18 37  1  0
 19 38  1  0
 20 39  1  0
 24 40  1  0
 27 41  1  0
M  END
>  <smiles>  (74) 
O=c1oc(Oc2ccccc2)cc(Nc2ccccc2)c1-c1n[nH]c(=S)[nH]1

>  <score_type>  (74) 
oracle

>  <origin>  (74) 
adg

>  <m_score__min__energy>  (74) 
-8.3499999999999996

>  <m_primary>  (74) 
energy

$$$$
74:0
     RDKit          3D

 47 49  0  0  0  0  0  0  0  0999 V2000
   58.7850   33.4260   44.8030 C   0  0  0  0  0  0  0  0  0  0  0  0
   58.2760   32.6590   45.8550 C   0  0  0  0  0  0  0  0  0  0  0  0
   57.4690   31.5490   45.5860 C   0  0  0  0  0  0  0  0  0  0  0  0
   57.1630   31.2010   44.2590 C   0  0  0  0  0  0  0  0  0  0  0  0
   56.3230   29.9840   43.9680 C   0  0  0  0  0  0  0  0  0  0  0  0
   57.0230   29.0010   43.0070 C   0  0  0  0  0  0  0  0  0  0  0  0
   57.4020   27.7210   43.6340 N   0  0  0  0  0  0  0  0  0  0  0  0
   58.8400   27.6460   43.9410 C   0  0  0  0  0  0  0  0  0  0  0  0
   59.1470   28.4200   45.1960 C   0  0  0  0  0  0  0  0  0  0  0  0
   60.3000   29.2120   45.2860 C   0  0  0  0  0  0  0  0  0  0  0  0
   60.5920   29.8850   46.4740 C   0  0  0  0  0  0  0  0  0  0  0  0
   59.7380   29.7510   47.5700 C   0  0  0  0  0  0  0  0  0  0  0  0
   60.0380   30.4190   48.7620 O   0  0  0  0  0  0  0  0  0  0  0  0
   60.0850   31.8420   48.8760 C   0  0  0  0  0  0  0  0  0  0  0  0
   61.3450   32.3790   48.2550 C   0  0  0  0  0  0  0  0  0  0  0  0
   61.2870   33.2820   47.1790 C   0  0  0  0  0  0  0  0  0  0  0  0
   62.4650   33.7930   46.6250 C   0  0  0  0  0  0  0  0  0  0  0  0
   63.7060   33.4080   47.1410 C   0  0  0  0  0  0  0  0  0  0  0  0
   63.7710   32.5130   48.2120 C   0  0  0  0  0  0  0  0  0  0  0  0
   62.5960   32.0000   48.7690 C   0  0  0  0  0  0  0  0  0  0  0  0
   58.6270   28.9680   47.4680 N   0  0  0  0  0  0  0  0  0  0  0  0
   58.3190   28.3040   46.3220 C   0  0  0  0  0  0  0  0  0  0  0  0
   57.6820   31.9760   43.2070 C   0  0  0  0  0  0  0  0  0  0  0  0
   58.4880   33.0840   43.4810 C   0  0  0  0  0  0  0  0  0  0  0  0
   59.4195   34.2990   45.0158 H   0  0  0  0  0  0  0  0  0  0  0  0
   58.5104   32.9288   46.8953 H   0  0  0  0  0  0  0  0  0  0  0  0
   57.0722   30.9460   46.4160 H   0  0  0  0  0  0  0  0  0  0  0  0
   56.1147   29.4642   44.9148 H   0  0  0  0  0  0  0  0  0  0  0  0
   55.3967   30.3247   43.4824 H   0  0  0  0  0  0  0  0  0  0  0  0
   56.3404   28.7886   42.1710 H   0  0  0  0  0  0  0  0  0  0  0  0
   57.9550   29.4843   42.6785 H   0  0  0  0  0  0  0  0  0  0  0  0
   57.1690   26.9560   42.9580 H   0  0  0  0  0  0  0  0  0  0  0  0
   56.8380   27.5570   44.5000 H   0  0  0  0  0  0  0  0  0  0  0  0
   59.1261   26.5936   44.0844 H   0  0  0  0  0  0  0  0  0  0  0  0
   59.4078   28.0800   43.1048 H   0  0  0  0  0  0  0  0  0  0  0  0
   60.9741   29.3032   44.4216 H   0  0  0  0  0  0  0  0  0  0  0  0
   61.4895   30.5169   46.5458 H   0  0  0  0  0  0  0  0  0  0  0  0
   59.2147   32.2753   48.3614 H   0  0  0  0  0  0  0  0  0  0  0  0
   60.0697   32.1141   49.9417 H   0  0  0  0  0  0  0  0  0  0  0  0
   60.3120   33.5875   46.7716 H   0  0  0  0  0  0  0  0  0  0  0  0
   62.4151   34.4985   45.7825 H   0  0  0  0  0  0  0  0  0  0  0  0
   64.6318   33.8099   46.7036 H   0  0  0  0  0  0  0  0  0  0  0  0
   64.7482   32.2117   48.6174 H   0  0  0  0  0  0  0  0  0  0  0  0
   62.6513   31.2968   49.6131 H   0  0  0  0  0  0  0  0  0  0  0  0
   57.4181   27.6743   46.2780 H   0  0  0  0  0  0  0  0  0  0  0  0
   57.4528   31.7092   42.1648 H   0  0  0  0  0  0  0  0  0  0  0  0
   58.8896   33.6884   42.6543 H   0  0  0  0  0  0  0  0  0  0  0  0
  1  2  2  0
  2  3  1  0
  3  4  2  0
  4  5  1  0
  5  6  1  0
  6  7  1  0
  7  8  1  0
  8  9  1  0
  9 10  2  0
 10 11  1  0
 11 12  2  0
 12 13  1  0
 13 14  1  0
 14 15  1  0
 15 16  2  0
 16 17  1  0
 17 18  2  0
 18 19  1  0
 19 20  2  0
 12 21  1  0
 21 22  2  0
  4 23  1  0
 23 24  2  0
 24  1  1  0
 22  9  1  0
 20 15  1  0
  1 25  1  0
  2 26  1  0
  3 27  1  0
  5 28  1  0
  5 29  1  0
  6 30  1  0
  6 31  1  0
  7 32  1  0
  7 33  1  0
  8 34  1  0
  8 35  1  0
 10 36  1  0
 11 37  1  0
 14 38  1  0
 14 39  1  0
 16 40  1  0
 17 41  1  0
 18 42  1  0
 19 43  1  0
 20 44  1  0
 22 45  1  0
 23 46  1  0
 24 47  1  0
M  CHG  1   7   1
M  END
>  <UniqueID>  (75) 
64

>  <SMILES>  (75) 
c1ccc(CC[NH2+]Cc2ccc(OCc3ccccc3)nc2)cc1

>  <Energy>  (75) 
45.37399687461184

>  <Genealogy>  (75) 
c1ccc(CC[NH2+]Cc2ccc(OCc3ccccc3)nc2)cc1 (protonated)
c1ccc(CC[NH2+]Cc2ccc(OCc3ccccc3)nc2)cc1 (3D coordinates assigned)
c1ccc(CC[NH2+]Cc2ccc(OCc3ccccc3)nc2)cc1 (optimized conformer: 45.37399687461184 kcal/mol)

>  <smiles>  (75) 
c1ccc(CCNCc2ccc(OCc3ccccc3)nc2)cc1

>  <score_type>  (75) 
oracle

>  <origin>  (75) 
adg

>  <m_score__min__energy>  (75) 
-6.2599999999999998

>  <m_primary>  (75) 
energy

$$$$
75:0
     RDKit          3D

 75 78  0  0  0  0  0  0  0  0999 V2000
   59.5800   33.0450   50.1280 C   0  0  0  0  0  0  0  0  0  0  0  0
   59.8150   31.7730   50.9370 C   0  0  0  0  0  0  0  0  0  0  0  0
   60.7070   30.8460   50.2120 N   0  0  0  0  0  0  0  0  0  0  0  0
   61.9120   30.3410   50.8990 C   0  0  0  0  0  0  0  0  0  0  0  0
   63.1400   31.1530   50.4960 C   0  0  0  0  0  0  0  0  0  0  0  0
   60.4030   30.4370   48.8480 C   0  0  0  0  0  0  0  0  0  0  0  0
   61.1180   30.9760   47.7560 C   0  0  0  0  0  0  0  0  0  0  0  0
   60.8110   30.6060   46.4460 C   0  0  0  0  0  0  0  0  0  0  0  0
   59.7960   29.6770   46.1870 C   0  0  0  0  0  0  0  0  0  0  0  0
   59.4820   29.2890   44.7670 C   0  0  0  0  0  0  0  0  0  0  0  0
   58.0680   28.8680   44.6700 N   0  0  0  0  0  0  0  0  0  0  0  0
   57.8670   27.7630   43.7110 C   0  0  0  0  0  0  0  0  0  0  0  0
   57.6200   26.4760   44.4540 C   0  0  0  0  0  0  0  0  0  0  0  0
   57.6210   26.4700   45.8580 C   0  0  0  0  0  0  0  0  0  0  0  0
   57.3980   25.2850   46.5610 C   0  0  0  0  0  0  0  0  0  0  0  0
   57.1910   24.0730   45.8760 C   0  0  0  0  0  0  0  0  0  0  0  0
   56.9560   22.8140   46.6340 C   0  0  0  0  0  0  0  0  0  0  0  0
   57.3400   21.5740   46.0970 C   0  0  0  0  0  0  0  0  0  0  0  0
   57.0930   20.3950   46.7970 C   0  0  0  0  0  0  0  0  0  0  0  0
   56.4510   20.4310   48.0360 C   0  0  0  0  0  0  0  0  0  0  0  0
   56.0500   21.6560   48.6090 C   0  0  0  0  0  0  0  0  0  0  0  0
   55.3640   21.6950   49.8950 N   0  0  0  0  0  0  0  0  0  0  0  0
   56.0700   21.3310   51.1310 C   0  0  0  0  0  0  0  0  0  0  0  0
   53.9470   22.0770   49.9810 C   0  0  0  0  0  0  0  0  0  0  0  0
   56.3250   22.8440   47.8930 C   0  0  0  0  0  0  0  0  0  0  0  0
   57.2000   24.0790   44.4680 C   0  0  0  0  0  0  0  0  0  0  0  0
   57.4140   25.2710   43.7630 C   0  0  0  0  0  0  0  0  0  0  0  0
   57.0450   30.2270   44.2540 S   0  0  0  0  0  0  0  0  0  0  0  0
   55.6880   30.0670   44.8810 O   0  0  0  0  0  0  0  0  0  0  0  0
   56.8760   30.3040   42.7610 O   0  0  0  0  0  0  0  0  0  0  0  0
   57.7540   31.7180   44.8590 C   0  0  0  0  0  0  0  0  0  0  0  0
   58.2930   32.6420   43.9560 C   0  0  0  0  0  0  0  0  0  0  0  0
   58.8720   33.8260   44.4210 C   0  0  0  0  0  0  0  0  0  0  0  0
   58.9030   34.0990   45.7920 C   0  0  0  0  0  0  0  0  0  0  0  0
   59.6440   35.5790   46.3800 Cl  0  0  0  0  0  0  0  0  0  0  0  0
   58.3480   33.1870   46.6970 C   0  0  0  0  0  0  0  0  0  0  0  0
   57.7820   31.9980   46.2330 C   0  0  0  0  0  0  0  0  0  0  0  0
   59.0750   29.1360   47.2620 C   0  0  0  0  0  0  0  0  0  0  0  0
   59.3760   29.5080   48.5760 C   0  0  0  0  0  0  0  0  0  0  0  0
   59.4236   33.8915   50.8129 H   0  0  0  0  0  0  0  0  0  0  0  0
   60.4567   33.2435   49.4939 H   0  0  0  0  0  0  0  0  0  0  0  0
   58.6903   32.9171   49.4939 H   0  0  0  0  0  0  0  0  0  0  0  0
   60.2765   32.0383   51.8996 H   0  0  0  0  0  0  0  0  0  0  0  0
   58.8475   31.2755   51.0996 H   0  0  0  0  0  0  0  0  0  0  0  0
   61.7677   30.4195   51.9867 H   0  0  0  0  0  0  0  0  0  0  0  0
   62.0707   29.2913   50.6110 H   0  0  0  0  0  0  0  0  0  0  0  0
   63.6634   31.4991   51.3995 H   0  0  0  0  0  0  0  0  0  0  0  0
   63.8162   30.5234   49.8990 H   0  0  0  0  0  0  0  0  0  0  0  0
   62.8254   32.0217   49.8990 H   0  0  0  0  0  0  0  0  0  0  0  0
   61.9278   31.6972   47.9405 H   0  0  0  0  0  0  0  0  0  0  0  0
   61.3715   31.0482   45.6092 H   0  0  0  0  0  0  0  0  0  0  0  0
   59.6538   30.1508   44.1053 H   0  0  0  0  0  0  0  0  0  0  0  0
   60.1332   28.4563   44.4629 H   0  0  0  0  0  0  0  0  0  0  0  0
   56.9997   27.9876   43.0727 H   0  0  0  0  0  0  0  0  0  0  0  0
   58.7685   27.6547   43.0900 H   0  0  0  0  0  0  0  0  0  0  0  0
   57.7988   27.4059   46.4079 H   0  0  0  0  0  0  0  0  0  0  0  0
   57.3839   25.2985   47.6608 H   0  0  0  0  0  0  0  0  0  0  0  0
   57.8389   21.5336   45.1175 H   0  0  0  0  0  0  0  0  0  0  0  0
   57.4057   19.4303   46.3709 H   0  0  0  0  0  0  0  0  0  0  0  0
   56.2551   19.4911   48.5729 H   0  0  0  0  0  0  0  0  0  0  0  0
   55.4707   21.6400   52.0001 H   0  0  0  0  0  0  0  0  0  0  0  0
   56.2223   20.2420   51.1591 H   0  0  0  0  0  0  0  0  0  0  0  0
   57.0455   21.8385   51.1591 H   0  0  0  0  0  0  0  0  0  0  0  0
   53.6522   22.1565   51.0378 H   0  0  0  0  0  0  0  0  0  0  0  0
   53.7981   23.0474   49.4848 H   0  0  0  0  0  0  0  0  0  0  0  0
   53.3305   21.3130   49.4848 H   0  0  0  0  0  0  0  0  0  0  0  0
   56.0399   23.8129   48.3288 H   0  0  0  0  0  0  0  0  0  0  0  0
   57.0378   23.1408   43.9172 H   0  0  0  0  0  0  0  0  0  0  0  0
   57.4207   25.2627   42.6631 H   0  0  0  0  0  0  0  0  0  0  0  0
   58.2607   32.4353   42.8761 H   0  0  0  0  0  0  0  0  0  0  0  0
   59.3037   34.5437   43.7079 H   0  0  0  0  0  0  0  0  0  0  0  0
   58.3577   33.4071   47.7747 H   0  0  0  0  0  0  0  0  0  0  0  0
   57.3565   31.2782   46.9477 H   0  0  0  0  0  0  0  0  0  0  0  0
   58.2674   28.4143   47.0700 H   0  0  0  0  0  0  0  0  0  0  0  0
   58.8049   29.0709   49.4083 H   0  0  0  0  0  0  0  0  0  0  0  0
  1  2  1  0
  2  3  1  0
  3  4  1  0
  4  5  1  0
  3  6  1  0
  6  7  2  0
  7  8  1  0
  8  9  2  0
  9 10  1  0
 10 11  1  0
 11 12  1  0
 12 13  1  0
 13 14  2  0
 14 15  1  0
 15 16  2  0
 16 17  1  0
 17 18  2  0
 18 19  1  0
 19 20  2  0
 20 21  1  0
 21 22  1  0
 22 23  1  0
 22 24  1  0
 21 25  2  0
 16 26  1  0
 26 27  2  0
 11 28  1  0
 28 29  2  0
 28 30  2  0
 28 31  1  0
 31 32  2  0
 32 33  1  0
 33 34  2  0
 34 35  1  0
 34 36  1  0
 36 37  2  0
  9 38  1  0
 38 39  2  0
 39  6  1  0
 27 13  1  0
 37 31  1  0
 25 17  1  0
  1 40  1  0
  1 41  1  0
  1 42  1  0
  2 43  1  0
  2 44  1  0
  4 45  1  0
  4 46  1  0
  5 47  1  0
  5 48  1  0
  5 49  1  0
  7 50  1  0
  8 51  1  0
 10 52  1  0
 10 53  1  0
 12 54  1  0
 12 55  1  0
 14 56  1  0
 15 57  1  0
 18 58  1  0
 19 59  1  0
 20 60  1  0
 23 61  1  0
 23 62  1  0
 23 63  1  0
 24 64  1  0
 24 65  1  0
 24 66  1  0
 25 67  1  0
 26 68  1  0
 27 69  1  0
 32 70  1  0
 33 71  1  0
 36 72  1  0
 37 73  1  0
 38 74  1  0
 39 75  1  0
M  END
>  <UniqueID>  (76) 
65

>  <SMILES>  (76) 
CCN(CC)c1ccc(CN(Cc2ccc(-c3cccc(N(C)C)c3)cc2)S(=O)(=O)c2ccc(Cl)cc2)cc1

>  <Energy>  (76) 
80.5648177696076

>  <Genealogy>  (76) 
CCN(CC)c1ccc(CN(Cc2ccc(-c3cccc(N(C)C)c3)cc2)S(=O)(=O)c2ccc(Cl)cc2)cc1 (3D coordinates assigned)
CCN(CC)c1ccc(CN(Cc2ccc(-c3cccc(N(C)C)c3)cc2)S(=O)(=O)c2ccc(Cl)cc2)cc1 (optimized conformer: 80.5648177696076 kcal/mol)

>  <smiles>  (76) 
CCN(CC)c1ccc(CN(Cc2ccc(-c3cccc(N(C)C)c3)cc2)S(=O)(=O)c2ccc(Cl)cc2)cc1

>  <score_type>  (76) 
oracle

>  <origin>  (76) 
adg

>  <m_score__min__energy>  (76) 
-9.7799999999999994

>  <m_primary>  (76) 
energy

$$$$
76:0
     RDKit          3D

 49 52  0  0  0  0  0  0  0  0999 V2000
   57.4660   32.2330   45.2100 C   0  0  0  0  0  0  0  0  0  0  0  0
   56.6880   31.0420   45.2090 O   0  0  0  0  0  0  0  0  0  0  0  0
   56.8870   29.9580   44.3390 C   0  0  0  0  0  0  0  0  0  0  0  0
   56.3690   29.9580   43.0280 C   0  0  0  0  0  0  0  0  0  0  0  0
   56.6220   28.8890   42.1670 C   0  0  0  0  0  0  0  0  0  0  0  0
   57.3950   27.8110   42.5960 C   0  0  0  0  0  0  0  0  0  0  0  0
   57.9070   27.7920   43.8950 C   0  0  0  0  0  0  0  0  0  0  0  0
   57.6410   28.8480   44.7810 C   0  0  0  0  0  0  0  0  0  0  0  0
   58.1810   28.7790   46.1560 C   0  0  0  0  0  0  0  0  0  0  0  0
   58.9170   29.7640   46.7010 N   0  0  0  0  0  0  0  0  0  0  0  0
   59.1670   29.3310   47.9540 C   0  0  0  0  0  0  0  0  0  0  0  0
   60.0170   30.0880   48.9210 C   0  0  0  0  0  0  0  0  0  0  0  0
   60.6330   31.2770   48.2380 C   0  0  0  0  0  0  0  0  0  0  0  0
   62.0020   31.2820   47.9210 C   0  0  0  0  0  0  0  0  0  0  0  0
   62.5810   32.4040   47.3210 C   0  0  0  0  0  0  0  0  0  0  0  0
   61.8030   33.5300   47.0430 C   0  0  0  0  0  0  0  0  0  0  0  0
   60.4440   33.5390   47.3680 C   0  0  0  0  0  0  0  0  0  0  0  0
   59.8590   32.4180   47.9690 C   0  0  0  0  0  0  0  0  0  0  0  0
   58.6540   28.1130   48.2240 N   0  0  0  0  0  0  0  0  0  0  0  0
   58.0280   27.7610   47.0860 C   0  0  0  0  0  0  0  0  0  0  0  0
   57.3850   26.4420   46.8940 C   0  0  0  0  0  0  0  0  0  0  0  0
   57.9820   25.2800   47.4110 C   0  0  0  0  0  0  0  0  0  0  0  0
   57.3860   24.0340   47.2190 C   0  0  0  0  0  0  0  0  0  0  0  0
   56.1810   23.9320   46.5210 C   0  0  0  0  0  0  0  0  0  0  0  0
   55.5580   25.0860   46.0090 C   0  0  0  0  0  0  0  0  0  0  0  0
   54.3460   25.0290   45.3040 O   0  0  0  0  0  0  0  0  0  0  0  0
   53.5130   23.8760   45.2250 C   0  0  0  0  0  0  0  0  0  0  0  0
   56.1620   26.3370   46.2020 C   0  0  0  0  0  0  0  0  0  0  0  0
   55.5490   27.4730   45.6820 O   0  0  0  0  0  0  0  0  0  0  0  0
   57.6661   32.5394   46.2473 H   0  0  0  0  0  0  0  0  0  0  0  0
   58.4187   32.0491   44.6917 H   0  0  0  0  0  0  0  0  0  0  0  0
   56.9148   33.0315   44.6917 H   0  0  0  0  0  0  0  0  0  0  0  0
   55.7610   30.8065   42.6811 H   0  0  0  0  0  0  0  0  0  0  0  0
   56.2103   28.8971   41.1470 H   0  0  0  0  0  0  0  0  0  0  0  0
   57.6016   26.9754   41.9112 H   0  0  0  0  0  0  0  0  0  0  0  0
   58.5233   26.9433   44.2265 H   0  0  0  0  0  0  0  0  0  0  0  0
   59.3960   30.4313   49.7616 H   0  0  0  0  0  0  0  0  0  0  0  0
   60.8159   29.4300   49.2937 H   0  0  0  0  0  0  0  0  0  0  0  0
   62.6200   30.4002   48.1457 H   0  0  0  0  0  0  0  0  0  0  0  0
   63.6514   32.4000   47.0674 H   0  0  0  0  0  0  0  0  0  0  0  0
   62.2603   34.4104   46.5679 H   0  0  0  0  0  0  0  0  0  0  0  0
   59.8332   34.4278   47.1514 H   0  0  0  0  0  0  0  0  0  0  0  0
   58.7908   32.4307   48.2312 H   0  0  0  0  0  0  0  0  0  0  0  0
   58.9259   25.3536   47.9710 H   0  0  0  0  0  0  0  0  0  0  0  0
   57.8666   23.1288   47.6186 H   0  0  0  0  0  0  0  0  0  0  0  0
   55.7167   22.9462   46.3706 H   0  0  0  0  0  0  0  0  0  0  0  0
   53.2649   23.5326   46.2402 H   0  0  0  0  0  0  0  0  0  0  0  0
   52.5874   24.1285   44.6869 H   0  0  0  0  0  0  0  0  0  0  0  0
   54.0435   23.0766   44.6869 H   0  0  0  0  0  0  0  0  0  0  0  0
  1  2  1  0
  2  3  1  0
  3  4  2  0
  4  5  1  0
  5  6  2  0
  6  7  1  0
  7  8  2  0
  8  9  1  0
  9 10  1  0
 10 11  1  0
 11 12  1  0
 12 13  1  0
 13 14  2  0
 14 15  1  0
 15 16  2  0
 16 17  1  0
 17 18  2  0
 11 19  2  0
 19 20  1  0
 20 21  1  0
 21 22  2  0
 22 23  1  0
 23 24  2  0
 24 25  1  0
 25 26  1  0
 26 27  1  0
 25 28  2  0
 28 29  1  0
  8  3  1  0
 20  9  2  0
 28 21  1  0
 18 13  1  0
  1 30  1  0
  1 31  1  0
  1 32  1  0
  4 33  1  0
  5 34  1  0
  6 35  1  0
  7 36  1  0
 12 37  1  0
 12 38  1  0
 14 39  1  0
 15 40  1  0
 16 41  1  0
 17 42  1  0
 18 43  1  0
 22 44  1  0
 23 45  1  0
 24 46  1  0
 27 47  1  0
 27 48  1  0
 27 49  1  0
M  CHG  2  10  -1  29  -1
M  END
>  <UniqueID>  (77) 
66

>  <SMILES>  (77) 
COc1ccccc1-c1[n-]c(Cc2ccccc2)nc1-c1cccc(OC)c1[O-]

>  <Energy>  (77) 
87.1223154459962

>  <Genealogy>  (77) 
COc1ccccc1-c1[n-]c(Cc2ccccc2)nc1-c1cccc(OC)c1[O-] (protonated)
COc1ccccc1-c1[n-]c(Cc2ccccc2)nc1-c1cccc(OC)c1[O-] (3D coordinates assigned)
COc1ccccc1-c1[n-]c(Cc2ccccc2)nc1-c1cccc(OC)c1[O-] (optimized conformer: 87.1223154459962 kcal/mol)

>  <smiles>  (77) 
COc1ccccc1-c1[nH]c(Cc2ccccc2)nc1-c1cccc(OC)c1O

>  <score_type>  (77) 
oracle

>  <origin>  (77) 
adg

>  <m_score__min__energy>  (77) 
-13.58

>  <m_primary>  (77) 
energy

$$$$
77:0
     RDKit          3D

 57 60  0  0  0  0  0  0  0  0999 V2000
   60.5226   28.2742   45.2176 H   0  0  0  0  0  0  0  0  0  0  0  0
   59.4730   28.3580   45.5360 C   0  0  0  0  0  0  0  0  0  0  0  0
   59.0710   27.6420   46.5970 C   0  0  0  0  0  0  0  0  0  0  0  0
   59.5207   27.8638   47.5761 H   0  0  0  0  0  0  0  0  0  0  0  0
   58.0520   26.5670   46.5190 C   0  0  0  0  0  0  0  0  0  0  0  0
   56.7150   26.9230   46.2880 C   0  0  0  0  0  0  0  0  0  0  0  0
   56.4473   27.9839   46.1746 H   0  0  0  0  0  0  0  0  0  0  0  0
   55.7180   25.9460   46.2000 C   0  0  0  0  0  0  0  0  0  0  0  0
   54.4000   26.3370   45.9940 O   0  0  0  0  0  0  0  0  0  0  0  0
   56.0500   24.5860   46.3210 C   0  0  0  0  0  0  0  0  0  0  0  0
   57.3890   24.2220   46.5560 C   0  0  0  0  0  0  0  0  0  0  0  0
   58.3820   25.2030   46.6370 C   0  0  0  0  0  0  0  0  0  0  0  0
   59.4297   24.9069   46.7942 H   0  0  0  0  0  0  0  0  0  0  0  0
   57.7500   22.8750   46.6870 O   0  0  0  0  0  0  0  0  0  0  0  0
   56.7960   21.8180   46.8090 C   0  0  0  0  0  0  0  0  0  0  0  0
   57.4480   20.5210   46.3070 C   0  0  0  0  0  0  0  0  0  0  0  0
   57.7559   19.9086   47.1673 H   0  0  0  0  0  0  0  0  0  0  0  0
   56.7251   19.9594   45.6971 H   0  0  0  0  0  0  0  0  0  0  0  0
   58.3300   20.7662   45.6971 H   0  0  0  0  0  0  0  0  0  0  0  0
   56.4170   21.6510   48.2910 C   0  0  0  0  0  0  0  0  0  0  0  0
   57.2407   22.0140   48.9233 H   0  0  0  0  0  0  0  0  0  0  0  0
   55.5075   22.2317   48.5046 H   0  0  0  0  0  0  0  0  0  0  0  0
   56.2318   20.5879   48.5046 H   0  0  0  0  0  0  0  0  0  0  0  0
   55.5510   22.1370   45.9440 C   0  0  0  0  0  0  0  0  0  0  0  0
   55.8370   22.1002   44.8825 H   0  0  0  0  0  0  0  0  0  0  0  0
   54.7770   21.3897   46.1733 H   0  0  0  0  0  0  0  0  0  0  0  0
   54.9760   23.5270   46.2550 C   0  0  0  0  0  0  0  0  0  0  0  0
   54.2588   23.7984   45.4664 H   0  0  0  0  0  0  0  0  0  0  0  0
   54.4883   23.4784   47.2398 H   0  0  0  0  0  0  0  0  0  0  0  0
   58.5750   29.2570   44.7700 C   0  0  0  0  0  0  0  0  0  0  0  0
   57.7510   28.7020   43.7810 C   0  0  0  0  0  0  0  0  0  0  0  0
   57.7823   27.6192   43.5895 H   0  0  0  0  0  0  0  0  0  0  0  0
   56.8910   29.5120   43.0370 C   0  0  0  0  0  0  0  0  0  0  0  0
   56.2568   29.0663   42.2565 H   0  0  0  0  0  0  0  0  0  0  0  0
   56.8330   30.8850   43.2800 C   0  0  0  0  0  0  0  0  0  0  0  0
   56.1620   31.5202   42.6832 H   0  0  0  0  0  0  0  0  0  0  0  0
   57.6320   31.4590   44.2880 C   0  0  0  0  0  0  0  0  0  0  0  0
   57.6060   32.8320   44.5880 O   0  0  0  0  0  0  0  0  0  0  0  0
   57.0190   33.4180   45.7510 C   0  0  0  0  0  0  0  0  0  0  0  0
   56.5873   34.3939   45.4841 H   0  0  0  0  0  0  0  0  0  0  0  0
   56.2368   32.7431   46.1287 H   0  0  0  0  0  0  0  0  0  0  0  0
   58.0640   33.6160   46.8460 C   0  0  0  0  0  0  0  0  0  0  0  0
   58.1183   34.6815   47.1137 H   0  0  0  0  0  0  0  0  0  0  0  0
   57.7827   33.0308   47.7339 H   0  0  0  0  0  0  0  0  0  0  0  0
   59.3330   33.1800   46.3700 O   0  0  0  0  0  0  0  0  0  0  0  0
   60.4910   33.9510   46.4990 C   0  0  0  0  0  0  0  0  0  0  0  0
   60.4500   35.2040   46.3600 O   0  0  0  0  0  0  0  0  0  0  0  0
   61.7680   33.2970   46.7970 C   0  0  0  0  0  0  0  0  0  0  0  0
   62.9420   33.7450   46.4150 O   0  0  0  0  0  0  0  0  0  0  0  0
   63.8820   32.9480   46.8290 N   0  0  0  0  0  0  0  0  0  0  0  0
   64.9010   33.0840   46.6560 H   0  0  0  0  0  0  0  0  0  0  0  0
   63.3120   31.9370   47.5090 C   0  0  0  0  0  0  0  0  0  0  0  0
   63.8458   31.1002   47.9830 H   0  0  0  0  0  0  0  0  0  0  0  0
   61.9450   32.1260   47.5120 C   0  0  0  0  0  0  0  0  0  0  0  0
   61.1746   31.4923   47.9755 H   0  0  0  0  0  0  0  0  0  0  0  0
   58.4950   30.6400   45.0250 C   0  0  0  0  0  0  0  0  0  0  0  0
   59.1198   31.0827   45.8147 H   0  0  0  0  0  0  0  0  0  0  0  0
  1  2  1  0
  2  3  2  0
  3  4  1  0
  3  5  1  0
  5  6  2  0
  6  7  1  0
  6  8  1  0
  8  9  1  0
  8 10  2  0
 10 11  1  0
 11 12  2  0
 12 13  1  0
 11 14  1  0
 14 15  1  0
 15 16  1  0
 16 17  1  0
 16 18  1  0
 16 19  1  0
 15 20  1  0
 20 21  1  0
 20 22  1  0
 20 23  1  0
 15 24  1  0
 24 25  1  0
 24 26  1  0
 24 27  1  0
 27 28  1  0
 27 29  1  0
  2 30  1  0
 30 31  2  0
 31 32  1  0
 31 33  1  0
 33 34  1  0
 33 35  2  0
 35 36  1  0
 35 37  1  0
 37 38  1  0
 38 39  1  0
 39 40  1  0
 39 41  1  0
 39 42  1  0
 42 43  1  0
 42 44  1  0
 42 45  1  0
 45 46  1  0
 46 47  2  0
 46 48  1  0
 48 49  1  0
 49 50  1  0
 50 51  1  0
 50 52  2  0
 52 53  1  0
 52 54  1  0
 54 55  1  0
 37 56  2  0
 56 57  1  0
 12  5  1  0
 56 30  1  0
 27 10  1  0
 54 48  2  0
M  CHG  2   9  -1  50   1
M  END
>  <UniqueID>  (78) 
67

>  <SMILES>  (78) 
CC1(C)CCc2c([O-])cc(/C=C/c3cccc(OCCOC(=O)c4cc[nH+]o4)c3)cc2O1

>  <Energy>  (78) 
88.63162486147571

>  <Genealogy>  (78) 
CC1(C)CCc2c([O-])cc(C=Cc3cccc(OCCOC(=O)c4cc[nH+]o4)c3)cc2O1 (protonated)
CC1(C)CCc2c([O-])cc(/C=C/c3cccc(OCCOC(=O)c4cc[nH+]o4)c3)cc2O1 (cis-trans isomerization)
CC1(C)CCc2c([O-])cc(/C=C/c3cccc(OCCOC(=O)c4cc[nH+]o4)c3)cc2O1 (3D coordinates assigned)
CC1(C)CCc2c([O-])cc(/C=C/c3cccc(OCCOC(=O)c4cc[nH+]o4)c3)cc2O1 (nonaromatic ring conformer: 88.63162486147571 kcal/mol)

>  <smiles>  (78) 
CC1(C)CCc2c(O)cc(C=Cc3cccc(OCCOC(=O)c4ccno4)c3)cc2O1

>  <score_type>  (78) 
oracle

>  <origin>  (78) 
adg

>  <m_score__min__energy>  (78) 
-12.35

>  <m_primary>  (78) 
energy

$$$$
78:0
     RDKit          3D

 48 51  0  0  0  0  0  0  0  0999 V2000
   58.5490   29.2410   47.9810 C   0  0  0  0  0  0  0  0  0  0  0  0
   59.9660   28.8520   47.8670 N   0  0  0  0  0  0  0  0  0  0  0  0
   60.2780   27.6590   48.6830 C   0  0  0  0  0  0  0  0  0  0  0  0
   59.5940   26.3980   48.1320 C   0  0  0  0  0  0  0  0  0  0  0  0
   59.6260   26.3880   46.6680 N   0  0  0  0  0  0  0  0  0  0  0  0
   58.8370   25.4330   45.9390 C   0  0  0  0  0  0  0  0  0  0  0  0
   59.2150   24.0810   45.9250 C   0  0  0  0  0  0  0  0  0  0  0  0
   58.4650   23.1470   45.2050 C   0  0  0  0  0  0  0  0  0  0  0  0
   57.3290   23.5530   44.5040 C   0  0  0  0  0  0  0  0  0  0  0  0
   56.9380   24.8930   44.5190 C   0  0  0  0  0  0  0  0  0  0  0  0
   57.6950   25.8460   45.2250 C   0  0  0  0  0  0  0  0  0  0  0  0
   57.2730   27.2160   45.2950 N   0  0  0  0  0  0  0  0  0  0  0  0
   57.4640   28.2090   44.2790 C   0  0  0  0  0  0  0  0  0  0  0  0
   57.6540   27.8340   43.0930 O   0  0  0  0  0  0  0  0  0  0  0  0
   57.3840   29.6510   44.5710 C   0  0  0  0  0  0  0  0  0  0  0  0
   58.4170   30.4730   44.9770 C   0  0  0  0  0  0  0  0  0  0  0  0
   57.8090   31.7030   45.1480 C   0  0  0  0  0  0  0  0  0  0  0  0
   58.4460   32.9700   45.5730 C   0  0  0  0  0  0  0  0  0  0  0  0
   58.6600   34.0250   44.6650 C   0  0  0  0  0  0  0  0  0  0  0  0
   59.2620   35.2130   45.0910 C   0  0  0  0  0  0  0  0  0  0  0  0
   59.6550   35.3610   46.4230 C   0  0  0  0  0  0  0  0  0  0  0  0
   59.4470   34.3220   47.3320 C   0  0  0  0  0  0  0  0  0  0  0  0
   58.8450   33.1320   46.9120 C   0  0  0  0  0  0  0  0  0  0  0  0
   56.5310   31.5770   44.8700 O   0  0  0  0  0  0  0  0  0  0  0  0
   56.2380   30.3570   44.5260 N   0  0  0  0  0  0  0  0  0  0  0  0
   60.5570   27.2730   45.9650 C   0  0  0  0  0  0  0  0  0  0  0  0
   60.3960   28.7270   46.4490 C   0  0  0  0  0  0  0  0  0  0  0  0
   58.2738   29.3165   49.0433 H   0  0  0  0  0  0  0  0  0  0  0  0
   58.3956   30.2145   47.4924 H   0  0  0  0  0  0  0  0  0  0  0  0
   57.9200   28.4823   47.4924 H   0  0  0  0  0  0  0  0  0  0  0  0
   61.3668   27.5024   48.6836 H   0  0  0  0  0  0  0  0  0  0  0  0
   59.9040   27.8339   49.7026 H   0  0  0  0  0  0  0  0  0  0  0  0
   60.1186   25.5083   48.5105 H   0  0  0  0  0  0  0  0  0  0  0  0
   58.5448   26.3925   48.4623 H   0  0  0  0  0  0  0  0  0  0  0  0
   60.1052   23.7554   46.4831 H   0  0  0  0  0  0  0  0  0  0  0  0
   58.7707   22.0904   45.1910 H   0  0  0  0  0  0  0  0  0  0  0  0
   56.7403   22.8157   43.9384 H   0  0  0  0  0  0  0  0  0  0  0  0
   56.0337   25.2054   43.9762 H   0  0  0  0  0  0  0  0  0  0  0  0
   59.4745   30.2108   45.1286 H   0  0  0  0  0  0  0  0  0  0  0  0
   58.3519   33.9139   43.6149 H   0  0  0  0  0  0  0  0  0  0  0  0
   59.4263   36.0324   44.3758 H   0  0  0  0  0  0  0  0  0  0  0  0
   60.1285   36.2964   46.7559 H   0  0  0  0  0  0  0  0  0  0  0  0
   59.7573   34.4398   48.3807 H   0  0  0  0  0  0  0  0  0  0  0  0
   58.6824   32.3175   47.6332 H   0  0  0  0  0  0  0  0  0  0  0  0
   61.5875   26.9400   46.1581 H   0  0  0  0  0  0  0  0  0  0  0  0
   60.3387   27.2324   44.8876 H   0  0  0  0  0  0  0  0  0  0  0  0
   61.3636   29.2378   46.3354 H   0  0  0  0  0  0  0  0  0  0  0  0
   59.6019   29.1786   45.8363 H   0  0  0  0  0  0  0  0  0  0  0  0
  1  2  1  0
  2  3  1  0
  3  4  1  0
  4  5  1  0
  5  6  1  0
  6  7  2  0
  7  8  1  0
  8  9  2  0
  9 10  1  0
 10 11  2  0
 11 12  1  0
 12 13  1  0
 13 14  2  0
 13 15  1  0
 15 16  1  0
 16 17  2  0
 17 18  1  0
 18 19  2  0
 19 20  1  0
 20 21  2  0
 21 22  1  0
 22 23  2  0
 17 24  1  0
 24 25  1  0
  5 26  1  0
 26 27  1  0
 27  2  1  0
 11  6  1  0
 25 15  2  0
 23 18  1  0
  1 28  1  0
  1 29  1  0
  1 30  1  0
  3 31  1  0
  3 32  1  0
  4 33  1  0
  4 34  1  0
  7 35  1  0
  8 36  1  0
  9 37  1  0
 10 38  1  0
 16 39  1  0
 19 40  1  0
 20 41  1  0
 21 42  1  0
 22 43  1  0
 23 44  1  0
 26 45  1  0
 26 46  1  0
 27 47  1  0
 27 48  1  0
M  CHG  1  12  -1
M  END
>  <UniqueID>  (79) 
68

>  <SMILES>  (79) 
CN1CCN(c2ccccc2[N-]C(=O)c2cc(-c3ccccc3)on2)CC1

>  <Energy>  (79) 
98.69342752898703

>  <Genealogy>  (79) 
CN1CCN(c2ccccc2[N-]C(=O)c2cc(-c3ccccc3)on2)CC1 (protonated)
CN1CCN(c2ccccc2[N-]C(=O)c2cc(-c3ccccc3)on2)CC1 (3D coordinates assigned)
CN1CCN(c2ccccc2[N-]C(=O)c2cc(-c3ccccc3)on2)CC1 (nonaromatic ring conformer: 98.69342752898703 kcal/mol)

>  <smiles>  (79) 
CN1CCN(c2ccccc2NC(=O)c2cc(-c3ccccc3)on2)CC1

>  <score_type>  (79) 
oracle

>  <origin>  (79) 
adg

>  <m_score__min__energy>  (79) 
-10.44

>  <m_primary>  (79) 
energy

$$$$
79:0
     RDKit          3D

 58 61  0  0  0  0  0  0  0  0999 V2000
   66.0420   32.8330   49.8210 N   0  0  0  0  0  0  0  0  0  0  0  0
   64.8780   33.3650   50.0330 C   0  0  0  0  0  0  0  0  0  0  0  0
   64.7150   34.2480   51.1460 N   0  0  0  0  0  0  0  0  0  0  0  0
   63.7250   33.0510   49.1510 C   0  0  0  0  0  0  0  0  0  0  0  0
   63.7770   31.9650   48.2580 C   0  0  0  0  0  0  0  0  0  0  0  0
   62.6930   31.6730   47.4240 C   0  0  0  0  0  0  0  0  0  0  0  0
   61.5370   32.4630   47.4690 C   0  0  0  0  0  0  0  0  0  0  0  0
   60.4420   32.1830   46.6390 C   0  0  0  0  0  0  0  0  0  0  0  0
   59.2970   32.9960   46.7030 C   0  0  0  0  0  0  0  0  0  0  0  0
   58.1260   32.7410   45.8450 C   0  0  0  0  0  0  0  0  0  0  0  0
   57.7220   33.6460   45.0670 O   0  0  0  0  0  0  0  0  0  0  0  0
   57.4240   31.4920   45.9300 N   0  0  0  0  0  0  0  0  0  0  0  0
   57.2640   30.5270   44.8780 C   0  0  0  0  0  0  0  0  0  0  0  0
   56.5070   30.8130   43.7260 C   0  0  0  0  0  0  0  0  0  0  0  0
   56.3810   29.8650   42.7110 C   0  0  0  0  0  0  0  0  0  0  0  0
   57.0230   28.6320   42.8230 C   0  0  0  0  0  0  0  0  0  0  0  0
   57.8000   28.3460   43.9470 C   0  0  0  0  0  0  0  0  0  0  0  0
   57.9270   29.2910   44.9860 C   0  0  0  0  0  0  0  0  0  0  0  0
   58.7000   29.0490   46.1370 O   0  0  0  0  0  0  0  0  0  0  0  0
   58.4620   29.5970   47.4340 C   0  0  0  0  0  0  0  0  0  0  0  0
   59.6720   29.4330   48.3010 C   0  0  0  0  0  0  0  0  0  0  0  0
   60.7260   28.9410   47.8130 O   0  0  0  0  0  0  0  0  0  0  0  0
   59.6470   29.9250   49.6460 N   0  0  0  0  0  0  0  0  0  0  0  0
   60.7690   30.3570   50.4300 C   0  0  0  0  0  0  0  0  0  0  0  0
   61.9640   29.6190   50.4980 C   0  0  0  0  0  0  0  0  0  0  0  0
   63.0200   30.0610   51.3010 C   0  0  0  0  0  0  0  0  0  0  0  0
   62.8970   31.2370   52.0590 C   0  0  0  0  0  0  0  0  0  0  0  0
   64.0220   31.6960   52.9100 C   0  0  0  0  0  0  0  0  0  0  0  0
   63.7550   32.4300   54.1120 N   0  0  0  0  0  0  0  0  0  0  0  0
   65.2540   31.4480   52.5720 N   0  0  0  0  0  0  0  0  0  0  0  0
   61.6930   31.9610   52.0010 C   0  0  0  0  0  0  0  0  0  0  0  0
   60.6390   31.5190   51.1980 C   0  0  0  0  0  0  0  0  0  0  0  0
   59.2680   34.0420   47.5740 N   0  0  0  0  0  0  0  0  0  0  0  0
   60.3120   34.3380   48.3920 C   0  0  0  0  0  0  0  0  0  0  0  0
   61.4740   33.5570   48.3580 C   0  0  0  0  0  0  0  0  0  0  0  0
   62.5650   33.8470   49.1910 C   0  0  0  0  0  0  0  0  0  0  0  0
   66.4690   32.7580   48.8710 H   0  0  0  0  0  0  0  0  0  0  0  0
   63.8210   34.7650   51.3030 H   0  0  0  0  0  0  0  0  0  0  0  0
   65.5150   34.4340   51.7920 H   0  0  0  0  0  0  0  0  0  0  0  0
   64.6803   31.3387   48.2153 H   0  0  0  0  0  0  0  0  0  0  0  0
   62.7483   30.8207   46.7308 H   0  0  0  0  0  0  0  0  0  0  0  0
   60.4788   31.3326   45.9423 H   0  0  0  0  0  0  0  0  0  0  0  0
   56.0119   31.7902   43.6259 H   0  0  0  0  0  0  0  0  0  0  0  0
   55.7747   30.0900   41.8212 H   0  0  0  0  0  0  0  0  0  0  0  0
   56.9169   27.8833   42.0241 H   0  0  0  0  0  0  0  0  0  0  0  0
   58.3163   27.3776   44.0227 H   0  0  0  0  0  0  0  0  0  0  0  0
   58.2278   30.6674   47.3376 H   0  0  0  0  0  0  0  0  0  0  0  0
   57.6175   29.0650   47.8963 H   0  0  0  0  0  0  0  0  0  0  0  0
   62.0685   28.6906   49.9174 H   0  0  0  0  0  0  0  0  0  0  0  0
   63.9550   29.4828   51.3394 H   0  0  0  0  0  0  0  0  0  0  0  0
   62.7790   32.5520   54.4660 H   0  0  0  0  0  0  0  0  0  0  0  0
   64.5380   32.8130   54.6880 H   0  0  0  0  0  0  0  0  0  0  0  0
   65.6860   31.8690   51.7200 H   0  0  0  0  0  0  0  0  0  0  0  0
   65.8550   30.8310   53.1640 H   0  0  0  0  0  0  0  0  0  0  0  0
   61.5804   32.8818   52.5921 H   0  0  0  0  0  0  0  0  0  0  0  0
   59.6989   32.0894   51.1693 H   0  0  0  0  0  0  0  0  0  0  0  0
   60.2443   35.1922   49.0818 H   0  0  0  0  0  0  0  0  0  0  0  0
   62.5134   34.7027   49.8803 H   0  0  0  0  0  0  0  0  0  0  0  0
  1  2  2  3
  2  3  1  0
  2  4  1  0
  4  5  2  0
  5  6  1  0
  6  7  2  0
  7  8  1  0
  8  9  2  0
  9 10  1  0
 10 11  2  0
 10 12  1  0
 12 13  1  0
 13 14  2  0
 14 15  1  0
 15 16  2  0
 16 17  1  0
 17 18  2  0
 18 19  1  0
 19 20  1  0
 20 21  1  0
 21 22  2  0
 21 23  1  0
 23 24  1  0
 24 25  2  0
 25 26  1  0
 26 27  2  0
 27 28  1  0
 28 29  1  0
 28 30  2  0
 27 31  1  0
 31 32  2  0
  9 33  1  0
 33 34  2  0
 34 35  1  0
 35 36  2  0
 36  4  1  0
 35  7  1  0
 18 13  1  0
 32 24  1  0
  1 37  1  0
  3 38  1  0
  3 39  1  0
  5 40  1  0
  6 41  1  0
  8 42  1  0
 14 43  1  0
 15 44  1  0
 16 45  1  0
 17 46  1  0
 20 47  1  0
 20 48  1  0
 25 49  1  0
 26 50  1  0
 29 51  1  0
 29 52  1  0
 30 53  1  0
 30 54  1  0
 31 55  1  0
 32 56  1  0
 34 57  1  0
 36 58  1  0
M  CHG  3  12  -1  23  -1  30   1
M  END
>  <UniqueID>  (80) 
69

>  <SMILES>  (80) 
N=C(N)c1ccc2cc(C(=O)[N-]c3ccccc3OCC(=O)[N-]c3ccc(C(N)=[NH2+])cc3)ncc2c1

>  <Energy>  (80) 
77.96203805612068

>  <Genealogy>  (80) 
N=C(N)c1ccc2cc(C(=O)[N-]c3ccccc3OCC(=O)[N-]c3ccc(C(N)=[NH2+])cc3)ncc2c1 (protonated)
N=C(N)c1ccc2cc(C(=O)[N-]c3ccccc3OCC(=O)[N-]c3ccc(C(N)=[NH2+])cc3)ncc2c1 (3D coordinates assigned)
N=C(N)c1ccc2cc(C(=O)[N-]c3ccccc3OCC(=O)[N-]c3ccc(C(N)=[NH2+])cc3)ncc2c1 (optimized conformer: 77.96203805612068 kcal/mol)

>  <smiles>  (80) 
N=C(N)c1ccc(NC(=O)COc2ccccc2NC(=O)c2cc3ccc(C(=N)N)cc3cn2)cc1

>  <score_type>  (80) 
oracle

>  <origin>  (80) 
adg

>  <m_score__min__energy>  (80) 
-10.390000000000001

>  <m_primary>  (80) 
energy

$$$$
80:0
     RDKit          3D

 71 75  0  0  0  0  0  0  0  0999 V2000
   58.1090   32.7010   50.0730 O   0  0  0  0  0  0  0  0  0  0  0  0
   58.7740   31.9510   49.3030 C   0  0  0  0  0  0  0  0  0  0  0  0
   58.4480   32.0310   47.8600 C   0  0  0  0  0  0  0  0  0  0  0  0
   58.1490   30.9590   47.1090 C   0  0  0  0  0  0  0  0  0  0  0  0
   57.7780   31.1140   45.6540 C   0  0  2  0  0  0  0  0  0  0  0  0
   58.0380   29.8420   44.8740 C   0  0  0  0  0  0  0  0  0  0  0  0
   57.1700   29.4690   43.8300 C   0  0  0  0  0  0  0  0  0  0  0  0
   57.3940   28.2930   43.1100 C   0  0  0  0  0  0  0  0  0  0  0  0
   58.4890   27.4820   43.4220 C   0  0  0  0  0  0  0  0  0  0  0  0
   59.3670   27.8500   44.4470 C   0  0  0  0  0  0  0  0  0  0  0  0
   59.1490   29.0270   45.1660 C   0  0  0  0  0  0  0  0  0  0  0  0
   58.5200   32.3070   45.0320 C   0  0  0  0  0  0  0  0  0  0  0  0
   58.2510   33.5540   45.8820 C   0  0  2  0  0  0  0  0  0  0  0  0
   59.0510   34.6190   45.4010 O   0  0  0  0  0  0  0  0  0  0  0  0
   59.6780   35.3140   46.4650 C   0  0  0  0  0  0  0  0  0  0  0  0
   60.7790   34.4960   47.0940 C   0  0  0  0  0  0  0  0  0  0  0  0
   61.7160   33.8290   46.2890 C   0  0  0  0  0  0  0  0  0  0  0  0
   62.7710   33.1250   46.8740 C   0  0  0  0  0  0  0  0  0  0  0  0
   62.9190   33.0990   48.2700 C   0  0  0  0  0  0  0  0  0  0  0  0
   64.0450   32.3260   48.9070 C   0  0  0  0  0  0  0  0  0  0  0  0
   65.1920   33.1280   49.0020 O   0  0  0  0  0  0  0  0  0  0  0  0
   61.9760   33.7560   49.0730 C   0  0  0  0  0  0  0  0  0  0  0  0
   60.9120   34.4500   48.4900 C   0  0  0  0  0  0  0  0  0  0  0  0
   58.5900   33.2890   47.2490 O   0  0  0  0  0  0  0  0  0  0  0  0
   59.7110   31.0010   49.8760 N   0  0  0  0  0  0  0  0  0  0  0  0
   59.6020   30.6530   51.3060 C   0  0  0  0  0  0  0  0  0  0  0  0
   60.9960   30.5830   51.9360 C   0  0  0  0  0  0  0  0  0  0  0  0
   61.9020   29.7340   51.1400 N   0  0  0  0  0  0  0  0  0  0  0  0
   63.1640   29.3140   51.7030 C   0  0  0  0  0  0  0  0  0  0  0  0
   63.2130   28.2820   52.6570 C   0  0  0  0  0  0  0  0  0  0  0  0
   64.4330   27.8720   53.1950 C   0  0  0  0  0  0  0  0  0  0  0  0
   65.6250   28.4820   52.7910 C   0  0  0  0  0  0  0  0  0  0  0  0
   66.7990   28.0460   53.3150 F   0  0  0  0  0  0  0  0  0  0  0  0
   65.6020   29.5280   51.8500 C   0  0  0  0  0  0  0  0  0  0  0  0
   66.8990   30.1490   51.3870 C   0  0  0  0  0  0  0  0  0  0  0  0
   67.6010   30.7140   52.4390 F   0  0  0  0  0  0  0  0  0  0  0  0
   67.7010   29.1840   50.7990 F   0  0  0  0  0  0  0  0  0  0  0  0
   66.6250   31.1360   50.4590 F   0  0  0  0  0  0  0  0  0  0  0  0
   64.3660   29.9320   51.3060 C   0  0  0  0  0  0  0  0  0  0  0  0
   61.4510   29.2030   49.8450 C   0  0  0  0  0  0  0  0  0  0  0  0
   60.7070   30.2890   49.0540 C   0  0  0  0  0  0  0  0  0  0  0  0
   58.1747   29.9557   47.5594 H   0  0  0  0  0  0  0  0  0  0  0  0
   56.6975   31.3133   45.6011 H   0  0  0  0  0  0  0  0  0  0  0  0
   56.3101   30.1076   43.5797 H   0  0  0  0  0  0  0  0  0  0  0  0
   56.7094   28.0055   42.2984 H   0  0  0  0  0  0  0  0  0  0  0  0
   58.6607   26.5521   42.8601 H   0  0  0  0  0  0  0  0  0  0  0  0
   60.2300   27.2115   44.6868 H   0  0  0  0  0  0  0  0  0  0  0  0
   59.8478   29.3189   45.9638 H   0  0  0  0  0  0  0  0  0  0  0  0
   59.6002   32.1001   45.0107 H   0  0  0  0  0  0  0  0  0  0  0  0
   58.1660   32.4722   44.0037 H   0  0  0  0  0  0  0  0  0  0  0  0
   57.1863   33.8225   45.8169 H   0  0  0  0  0  0  0  0  0  0  0  0
   60.1066   36.2495   46.0761 H   0  0  0  0  0  0  0  0  0  0  0  0
   58.9197   35.5180   47.2352 H   0  0  0  0  0  0  0  0  0  0  0  0
   61.6190   33.8609   45.1938 H   0  0  0  0  0  0  0  0  0  0  0  0
   63.4898   32.5880   46.2376 H   0  0  0  0  0  0  0  0  0  0  0  0
   63.7412   32.0060   49.9146 H   0  0  0  0  0  0  0  0  0  0  0  0
   64.2727   31.4472   48.2858 H   0  0  0  0  0  0  0  0  0  0  0  0
   65.6020   33.1480   48.0910 H   0  0  0  0  0  0  0  0  0  0  0  0
   62.0741   33.7251   50.1682 H   0  0  0  0  0  0  0  0  0  0  0  0
   60.1764   34.9619   49.1278 H   0  0  0  0  0  0  0  0  0  0  0  0
   59.0067   31.4199   51.8231 H   0  0  0  0  0  0  0  0  0  0  0  0
   59.1126   29.6726   51.4026 H   0  0  0  0  0  0  0  0  0  0  0  0
   61.4147   31.5986   51.9932 H   0  0  0  0  0  0  0  0  0  0  0  0
   60.9015   30.1438   52.9401 H   0  0  0  0  0  0  0  0  0  0  0  0
   62.2820   27.7942   52.9815 H   0  0  0  0  0  0  0  0  0  0  0  0
   64.4577   27.0643   53.9413 H   0  0  0  0  0  0  0  0  0  0  0  0
   64.3397   30.7410   50.5612 H   0  0  0  0  0  0  0  0  0  0  0  0
   62.3242   28.8667   49.2667 H   0  0  0  0  0  0  0  0  0  0  0  0
   60.7688   28.3586   50.0224 H   0  0  0  0  0  0  0  0  0  0  0  0
   61.4407   31.0175   48.6784 H   0  0  0  0  0  0  0  0  0  0  0  0
   60.1706   29.7955   48.2302 H   0  0  0  0  0  0  0  0  0  0  0  0
  1  2  2  0
  2  3  1  0
  3  4  2  0
  4  5  1  0
  5  6  1  0
  6  7  2  0
  7  8  1  0
  8  9  2  0
  9 10  1  0
 10 11  2  0
  5 12  1  0
 12 13  1  0
 13 14  1  0
 14 15  1  0
 15 16  1  0
 16 17  2  0
 17 18  1  0
 18 19  2  0
 19 20  1  0
 20 21  1  0
 19 22  1  0
 22 23  2  0
 13 24  1  0
  2 25  1  0
 25 26  1  0
 26 27  1  0
 27 28  1  0
 28 29  1  0
 29 30  2  0
 30 31  1  0
 31 32  2  0
 32 33  1  0
 32 34  1  0
 34 35  1  0
 35 36  1  0
 35 37  1  0
 35 38  1  0
 34 39  2  0
 28 40  1  0
 40 41  1  0
 24  3  1  0
 41 25  1  0
 11  6  1  0
 23 16  1  0
 39 29  1  0
  4 42  1  0
  5 43  1  1
  7 44  1  0
  8 45  1  0
  9 46  1  0
 10 47  1  0
 11 48  1  0
 12 49  1  0
 12 50  1  0
 13 51  1  1
 15 52  1  0
 15 53  1  0
 17 54  1  0
 18 55  1  0
 20 56  1  0
 20 57  1  0
 21 58  1  0
 22 59  1  0
 23 60  1  0
 26 61  1  0
 26 62  1  0
 27 63  1  0
 27 64  1  0
 30 65  1  0
 31 66  1  0
 39 67  1  0
 40 68  1  0
 40 69  1  0
 41 70  1  0
 41 71  1  0
M  END
>  <UniqueID>  (81) 
70

>  <SMILES>  (81) 
O=C(C1=C[C@H](c2ccccc2)C[C@H](OCc2ccc(CO)cc2)O1)N1CCN(c2ccc(F)c(C(F)(F)F)c2)CC1

>  <Energy>  (81) 
90.56157934621437

>  <Genealogy>  (81) 
O=C(C1=C[C@H](c2ccccc2)C[C@H](OCc2ccc(CO)cc2)O1)N1CCN(c2ccc(F)c(C(F)(F)F)c2)CC1 (chirality)
O=C(C1=C[C@H](c2ccccc2)C[C@H](OCc2ccc(CO)cc2)O1)N1CCN(c2ccc(F)c(C(F)(F)F)c2)CC1 (3D coordinates assigned)
O=C(C1=C[C@H](c2ccccc2)C[C@H](OCc2ccc(CO)cc2)O1)N1CCN(c2ccc(F)c(C(F)(F)F)c2)CC1 (nonaromatic ring conformer: 90.56157934621437 kcal/mol)

>  <smiles>  (81) 
O=C(C1=CC(c2ccccc2)CC(OCc2ccc(CO)cc2)O1)N1CCN(c2ccc(F)c(C(F)(F)F)c2)CC1

>  <score_type>  (81) 
oracle

>  <origin>  (81) 
adg

>  <m_score__min__energy>  (81) 
-9.6600000000000001

>  <m_primary>  (81) 
energy

$$$$
81:0
     RDKit          3D

 46 49  0  0  0  0  0  0  0  0999 V2000
   55.1680   22.4361   47.9418 H   0  0  0  0  0  0  0  0  0  0  0  0
   55.9740   22.9240   47.3740 C   0  0  0  0  0  0  0  0  0  0  0  0
   56.0530   24.2740   47.2350 N   0  0  0  0  0  0  0  0  0  0  0  0
   57.1230   24.6420   46.4990 C   0  0  0  0  0  0  0  0  0  0  0  0
   57.3860   25.8910   46.2450 N   0  0  0  0  0  0  0  0  0  0  0  0
   56.4510   26.9590   46.0030 C   0  0  0  0  0  0  0  0  0  0  0  0
   55.2110   26.7320   45.9980 O   0  0  0  0  0  0  0  0  0  0  0  0
   56.9570   28.3370   45.7560 C   0  0  0  0  0  0  0  0  0  0  0  0
   58.2110   28.7220   46.2720 C   0  0  0  0  0  0  0  0  0  0  0  0
   58.8009   27.9981   46.8535 H   0  0  0  0  0  0  0  0  0  0  0  0
   58.7220   30.0150   46.0570 C   0  0  0  0  0  0  0  0  0  0  0  0
   60.0060   30.3940   46.5930 N   0  0  0  0  0  0  0  0  0  0  0  0
   60.2410   31.1770   47.6630 C   0  0  0  0  0  0  0  0  0  0  0  0
   59.4874   31.6563   48.3052 H   0  0  0  0  0  0  0  0  0  0  0  0
   61.6180   31.2610   47.7970 C   0  0  0  0  0  0  0  0  0  0  0  0
   62.3880   32.0100   48.8200 C   0  0  0  0  0  0  0  0  0  0  0  0
   63.7810   32.1640   48.7150 C   0  0  0  0  0  0  0  0  0  0  0  0
   64.3155   31.7215   47.8615 H   0  0  0  0  0  0  0  0  0  0  0  0
   64.4990   32.8800   49.6930 C   0  0  0  0  0  0  0  0  0  0  0  0
   65.8890   33.0570   49.6260 O   0  0  0  0  0  0  0  0  0  0  0  0
   66.7620   33.0270   50.7510 C   0  0  0  0  0  0  0  0  0  0  0  0
   66.1681   33.0474   51.6766 H   0  0  0  0  0  0  0  0  0  0  0  0
   67.3652   32.1076   50.7226 H   0  0  0  0  0  0  0  0  0  0  0  0
   67.4269   33.9028   50.7226 H   0  0  0  0  0  0  0  0  0  0  0  0
   63.8130   33.4400   50.7750 C   0  0  0  0  0  0  0  0  0  0  0  0
   64.3696   33.9993   51.5414 H   0  0  0  0  0  0  0  0  0  0  0  0
   62.4200   33.2960   50.8940 C   0  0  0  0  0  0  0  0  0  0  0  0
   61.6950   33.8420   51.9650 O   0  0  0  0  0  0  0  0  0  0  0  0
   61.5340   33.2120   53.2320 C   0  0  0  0  0  0  0  0  0  0  0  0
   61.7210   33.9437   54.0317 H   0  0  0  0  0  0  0  0  0  0  0  0
   60.5081   32.8252   53.3214 H   0  0  0  0  0  0  0  0  0  0  0  0
   62.2485   32.3804   53.3214 H   0  0  0  0  0  0  0  0  0  0  0  0
   61.7190   32.5830   49.9160 C   0  0  0  0  0  0  0  0  0  0  0  0
   60.6286   32.4689   50.0055 H   0  0  0  0  0  0  0  0  0  0  0  0
   62.1780   30.5300   46.8110 N   0  0  0  0  0  0  0  0  0  0  0  0
   61.1810   30.0230   46.1030 N   0  0  0  0  0  0  0  0  0  0  0  0
   61.3180   29.3910   45.2840 H   0  0  0  0  0  0  0  0  0  0  0  0
   57.9630   30.9310   45.3150 C   0  0  0  0  0  0  0  0  0  0  0  0
   58.3501   31.9455   45.1391 H   0  0  0  0  0  0  0  0  0  0  0  0
   56.7220   30.5650   44.7990 C   0  0  0  0  0  0  0  0  0  0  0  0
   56.1373   31.2935   44.2182 H   0  0  0  0  0  0  0  0  0  0  0  0
   56.2130   29.2820   45.0120 C   0  0  0  0  0  0  0  0  0  0  0  0
   54.9680   28.9640   44.4810 O   0  0  0  0  0  0  0  0  0  0  0  0
   58.0120   23.3000   45.9920 S   0  0  0  0  0  0  0  0  0  0  0  0
   56.9850   22.2040   46.7470 C   0  0  0  0  0  0  0  0  0  0  0  0
   57.0937   21.1094   46.7453 H   0  0  0  0  0  0  0  0  0  0  0  0
  1  2  1  0
  2  3  1  0
  3  4  1  0
  4  5  2  0
  5  6  1  0
  6  7  2  0
  6  8  1  0
  8  9  2  0
  9 10  1  0
  9 11  1  0
 11 12  1  0
 12 13  1  0
 13 14  1  0
 13 15  2  0
 15 16  1  0
 16 17  2  0
 17 18  1  0
 17 19  1  0
 19 20  1  0
 20 21  1  0
 21 22  1  0
 21 23  1  0
 21 24  1  0
 19 25  2  0
 25 26  1  0
 25 27  1  0
 27 28  1  0
 28 29  1  0
 29 30  1  0
 29 31  1  0
 29 32  1  0
 27 33  2  0
 33 34  1  0
 15 35  1  0
 35 36  2  0
 36 37  1  0
 11 38  2  0
 38 39  1  0
 38 40  1  0
 40 41  1  0
 40 42  2  0
 42 43  1  0
  4 44  1  0
 44 45  1  0
 45 46  1  0
 45  2  2  0
 42  8  1  0
 36 12  1  0
 33 16  1  0
M  CHG  3   3  -1  36   1  43  -1
M  END
>  <UniqueID>  (82) 
71

>  <SMILES>  (82) 
COc1cc(OC)cc(-c2cn(-c3ccc([O-])c(C(=O)/N=c4/[n-]ccs4)c3)[nH+]n2)c1

>  <Energy>  (82) 
125.3904964046053

>  <Genealogy>  (82) 
COc1cc(OC)cc(-c2cn(-c3ccc([O-])c(C(=O)N=c4[n-]ccs4)c3)[nH+]n2)c1 (protonated)
COc1cc(OC)cc(-c2cn(-c3ccc([O-])c(C(=O)/N=c4/[n-]ccs4)c3)[nH+]n2)c1 (cis-trans isomerization)
COc1cc(OC)cc(-c2cn(-c3ccc([O-])c(C(=O)/N=c4/[n-]ccs4)c3)[nH+]n2)c1 (3D coordinates assigned)
COc1cc(OC)cc(-c2cn(-c3ccc([O-])c(C(=O)/N=c4/[n-]ccs4)c3)[nH+]n2)c1 (optimized conformer: 125.3904964046053 kcal/mol)

>  <smiles>  (82) 
COc1cc(OC)cc(-c2cn(-c3ccc(O)c(C(=O)N=c4[nH]ccs4)c3)nn2)c1

>  <score_type>  (82) 
oracle

>  <origin>  (82) 
adg

>  <m_score__min__energy>  (82) 
-10.77

>  <m_primary>  (82) 
energy

$$$$
82:0
     RDKit          3D

 47 49  0  0  0  0  0  0  0  0999 V2000
   57.6100   24.7550   44.8480 C   0  0  0  0  0  0  0  0  0  0  0  0
   56.9730   25.7050   46.2160 S   0  0  0  0  0  0  0  0  0  0  0  0
   57.6160   25.2210   47.4870 O   0  0  0  0  0  0  0  0  0  0  0  0
   55.4870   25.4910   46.3110 O   0  0  0  0  0  0  0  0  0  0  0  0
   57.3130   27.4570   46.0160 C   0  0  0  0  0  0  0  0  0  0  0  0
   58.3310   27.9430   47.0640 C   0  0  0  0  0  0  0  0  0  0  0  0
   58.5110   29.4630   46.9550 C   0  0  0  0  0  0  0  0  0  0  0  0
   58.6090   29.8960   45.5490 N   0  0  0  0  0  0  0  0  0  0  0  0
   58.5250   31.2960   45.2270 C   0  0  0  0  0  0  0  0  0  0  0  0
   57.9050   31.7130   44.0390 C   0  0  0  0  0  0  0  0  0  0  0  0
   57.8270   33.0740   43.7440 C   0  0  0  0  0  0  0  0  0  0  0  0
   58.3500   33.9880   44.6040 N   0  0  0  0  0  0  0  0  0  0  0  0
   58.9600   33.6250   45.7670 C   0  0  0  0  0  0  0  0  0  0  0  0
   59.5150   34.6650   46.6660 C   0  0  0  0  0  0  0  0  0  0  0  0
   59.6450   35.8500   46.2550 O   0  0  0  0  0  0  0  0  0  0  0  0
   59.9820   34.3320   48.0550 C   0  0  0  0  0  0  0  0  0  0  0  0
   61.4170   33.8820   48.0250 C   0  0  0  0  0  0  0  0  0  0  0  0
   62.1180   33.8170   46.8080 C   0  0  0  0  0  0  0  0  0  0  0  0
   63.4630   33.4340   46.7890 C   0  0  0  0  0  0  0  0  0  0  0  0
   64.1210   33.1210   47.9830 C   0  0  0  0  0  0  0  0  0  0  0  0
   63.4350   33.1950   49.1990 C   0  0  0  0  0  0  0  0  0  0  0  0
   62.0900   33.5790   49.2220 C   0  0  0  0  0  0  0  0  0  0  0  0
   59.0520   32.2620   46.0970 C   0  0  0  0  0  0  0  0  0  0  0  0
   58.8230   28.8980   44.4910 C   0  0  0  0  0  0  0  0  0  0  0  0
   57.7670   27.7800   44.5680 C   0  0  0  0  0  0  0  0  0  0  0  0
   58.1841   23.8988   45.2319 H   0  0  0  0  0  0  0  0  0  0  0  0
   56.7735   24.3899   44.2341 H   0  0  0  0  0  0  0  0  0  0  0  0
   58.2654   25.3903   44.2341 H   0  0  0  0  0  0  0  0  0  0  0  0
   56.3778   28.0097   46.1889 H   0  0  0  0  0  0  0  0  0  0  0  0
   57.9663   27.6906   48.0706 H   0  0  0  0  0  0  0  0  0  0  0  0
   59.2981   27.4509   46.8835 H   0  0  0  0  0  0  0  0  0  0  0  0
   57.6480   29.9596   47.4226 H   0  0  0  0  0  0  0  0  0  0  0  0
   59.4453   29.7375   47.4666 H   0  0  0  0  0  0  0  0  0  0  0  0
   57.4832   30.9712   43.3449 H   0  0  0  0  0  0  0  0  0  0  0  0
   57.3420   33.4081   42.8149 H   0  0  0  0  0  0  0  0  0  0  0  0
   59.8940   35.2245   48.6920 H   0  0  0  0  0  0  0  0  0  0  0  0
   59.3590   33.5204   48.4589 H   0  0  0  0  0  0  0  0  0  0  0  0
   61.6066   34.0684   45.8671 H   0  0  0  0  0  0  0  0  0  0  0  0
   64.0045   33.3788   45.8331 H   0  0  0  0  0  0  0  0  0  0  0  0
   65.1779   32.8167   47.9653 H   0  0  0  0  0  0  0  0  0  0  0  0
   63.9532   32.9511   50.1382 H   0  0  0  0  0  0  0  0  0  0  0  0
   61.5560   33.6443   50.1815 H   0  0  0  0  0  0  0  0  0  0  0  0
   59.5361   31.9534   47.0353 H   0  0  0  0  0  0  0  0  0  0  0  0
   58.7535   29.3920   43.5106 H   0  0  0  0  0  0  0  0  0  0  0  0
   59.8188   28.4506   44.6263 H   0  0  0  0  0  0  0  0  0  0  0  0
   56.8859   28.0926   43.9883 H   0  0  0  0  0  0  0  0  0  0  0  0
   58.2305   26.8683   44.1630 H   0  0  0  0  0  0  0  0  0  0  0  0
  1  2  1  0
  2  3  2  0
  2  4  2  0
  2  5  1  0
  5  6  1  0
  6  7  1  0
  7  8  1  0
  8  9  1  0
  9 10  2  0
 10 11  1  0
 11 12  2  0
 12 13  1  0
 13 14  1  0
 14 15  2  0
 14 16  1  0
 16 17  1  0
 17 18  2  0
 18 19  1  0
 19 20  2  0
 20 21  1  0
 21 22  2  0
 13 23  2  0
  8 24  1  0
 24 25  1  0
 25  5  1  0
 23  9  1  0
 22 17  1  0
  1 26  1  0
  1 27  1  0
  1 28  1  0
  5 29  1  0
  6 30  1  0
  6 31  1  0
  7 32  1  0
  7 33  1  0
 10 34  1  0
 11 35  1  0
 16 36  1  0
 16 37  1  0
 18 38  1  0
 19 39  1  0
 20 40  1  0
 21 41  1  0
 22 42  1  0
 23 43  1  0
 24 44  1  0
 24 45  1  0
 25 46  1  0
 25 47  1  0
M  END
>  <UniqueID>  (83) 
72

>  <SMILES>  (83) 
CS(=O)(=O)C1CCN(c2ccnc(C(=O)Cc3ccccc3)c2)CC1

>  <Energy>  (83) 
46.46949181573506

>  <Genealogy>  (83) 
CS(=O)(=O)C1CCN(c2ccnc(C(=O)Cc3ccccc3)c2)CC1 (3D coordinates assigned)
CS(=O)(=O)C1CCN(c2ccnc(C(=O)Cc3ccccc3)c2)CC1 (nonaromatic ring conformer: 46.46949181573506 kcal/mol)

>  <smiles>  (83) 
CS(=O)(=O)C1CCN(c2ccnc(C(=O)Cc3ccccc3)c2)CC1

>  <score_type>  (83) 
oracle

>  <origin>  (83) 
adg

>  <m_score__min__energy>  (83) 
-8.9700000000000006

>  <m_primary>  (83) 
energy

$$$$
83:0
     RDKit          3D

 52 55  0  0  0  0  0  0  0  0999 V2000
   59.9870   36.7370   45.5110 N   0  0  0  0  0  0  0  0  0  0  0  0
   59.7810   35.7040   45.9890 C   0  0  0  0  0  0  0  0  0  0  0  0
   59.5180   34.3900   46.5940 C   0  0  2  0  0  0  0  0  0  0  0  0
   58.2120   33.8110   46.0360 C   0  0  0  0  0  0  0  0  0  0  0  0
   58.2290   32.3020   46.0630 C   0  0  0  0  0  0  0  0  0  0  0  0
   58.8500   31.6250   47.1230 C   0  0  0  0  0  0  0  0  0  0  0  0
   58.9090   30.2300   47.1360 C   0  0  0  0  0  0  0  0  0  0  0  0
   58.3540   29.4820   46.0830 C   0  0  0  0  0  0  0  0  0  0  0  0
   58.4230   27.9990   46.0930 C   0  0  0  0  0  0  0  0  0  0  0  0
   59.6670   27.3410   46.1210 C   0  0  0  0  0  0  0  0  0  0  0  0
   59.7290   25.9460   46.1410 C   0  0  0  0  0  0  0  0  0  0  0  0
   58.5560   25.1900   46.1320 C   0  0  0  0  0  0  0  0  0  0  0  0
   57.3080   25.8280   46.0970 C   0  0  0  0  0  0  0  0  0  0  0  0
   55.8190   24.8890   46.0900 S   0  0  0  0  0  0  0  0  0  0  0  0
   54.4680   25.9490   45.8930 N   0  0  0  0  0  0  0  0  0  0  0  0
   55.8550   23.8990   44.9600 O   0  0  0  0  0  0  0  0  0  0  0  0
   55.6710   24.1390   47.3860 O   0  0  0  0  0  0  0  0  0  0  0  0
   57.2460   27.2280   46.0820 C   0  0  0  0  0  0  0  0  0  0  0  0
   57.7400   30.1620   45.0160 C   0  0  0  0  0  0  0  0  0  0  0  0
   57.6810   31.5600   45.0020 C   0  0  0  0  0  0  0  0  0  0  0  0
   57.0910   32.1870   43.9530 F   0  0  0  0  0  0  0  0  0  0  0  0
   59.4170   34.5310   48.0440 N   0  0  0  0  0  0  0  0  0  0  0  0
   60.4330   34.1110   48.9610 C   0  0  0  0  0  0  0  0  0  0  0  0
   60.1160   33.7140   50.1150 O   0  0  0  0  0  0  0  0  0  0  0  0
   61.8880   34.2590   48.5780 C   0  0  1  0  0  0  0  0  0  0  0  0
   62.8330   33.9320   49.6680 N   0  0  0  0  0  0  0  0  0  0  0  0
   63.7620   32.9790   49.0300 C   0  0  1  0  0  0  0  0  0  0  0  0
   63.0720   31.6110   48.8840 C   0  0  0  0  0  0  0  0  0  0  0  0
   62.0730   31.8760   47.7510 C   0  0  0  0  0  0  0  0  0  0  0  0
   62.3390   33.3570   47.4080 C   0  0  2  0  0  0  0  0  0  0  0  0
   63.8320   33.4390   47.5950 C   0  0  0  0  0  0  0  0  0  0  0  0
   60.3452   33.7067   46.3513 H   0  0  0  0  0  0  0  0  0  0  0  0
   57.3703   34.1714   46.6456 H   0  0  0  0  0  0  0  0  0  0  0  0
   58.1031   34.1397   44.9919 H   0  0  0  0  0  0  0  0  0  0  0  0
   59.2940   32.1976   47.9506 H   0  0  0  0  0  0  0  0  0  0  0  0
   59.3936   29.7122   47.9769 H   0  0  0  0  0  0  0  0  0  0  0  0
   60.5964   27.9294   46.1272 H   0  0  0  0  0  0  0  0  0  0  0  0
   60.7061   25.4412   46.1639 H   0  0  0  0  0  0  0  0  0  0  0  0
   58.6106   24.0915   46.1524 H   0  0  0  0  0  0  0  0  0  0  0  0
   54.7740   26.7170   45.2550 H   0  0  0  0  0  0  0  0  0  0  0  0
   56.2671   27.7293   46.0614 H   0  0  0  0  0  0  0  0  0  0  0  0
   57.3022   29.5897   44.1849 H   0  0  0  0  0  0  0  0  0  0  0  0
   61.9252   35.3236   48.3036 H   0  0  0  0  0  0  0  0  0  0  0  0
   62.3640   33.4760   50.4850 H   0  0  0  0  0  0  0  0  0  0  0  0
   64.7060   32.9224   49.5918 H   0  0  0  0  0  0  0  0  0  0  0  0
   63.7926   30.8277   48.6062 H   0  0  0  0  0  0  0  0  0  0  0  0
   62.6043   31.2493   49.8116 H   0  0  0  0  0  0  0  0  0  0  0  0
   62.2718   31.2261   46.8861 H   0  0  0  0  0  0  0  0  0  0  0  0
   61.0290   31.6723   48.0314 H   0  0  0  0  0  0  0  0  0  0  0  0
   61.8810   33.6365   46.4477 H   0  0  0  0  0  0  0  0  0  0  0  0
   64.3919   32.7521   46.9433 H   0  0  0  0  0  0  0  0  0  0  0  0
   64.3412   34.3874   47.3687 H   0  0  0  0  0  0  0  0  0  0  0  0
  1  2  3  0
  2  3  1  0
  3  4  1  0
  4  5  1  0
  5  6  2  0
  6  7  1  0
  7  8  2  0
  8  9  1  0
  9 10  2  0
 10 11  1  0
 11 12  2  0
 12 13  1  0
 13 14  1  0
 14 15  1  0
 14 16  2  0
 14 17  2  0
 13 18  2  0
  8 19  1  0
 19 20  2  0
 20 21  1  0
  3 22  1  0
 22 23  1  0
 23 24  2  0
 23 25  1  0
 25 26  1  0
 26 27  1  0
 27 28  1  0
 28 29  1  0
 29 30  1  0
 30 31  1  0
 20  5  1  0
 30 25  1  0
 18  9  1  0
 31 27  1  0
  3 32  1  1
  4 33  1  0
  4 34  1  0
  6 35  1  0
  7 36  1  0
 10 37  1  0
 11 38  1  0
 12 39  1  0
 15 40  1  0
 18 41  1  0
 19 42  1  0
 25 43  1  6
 26 44  1  0
 27 45  1  1
 28 46  1  0
 28 47  1  0
 29 48  1  0
 29 49  1  0
 30 50  1  6
 31 51  1  0
 31 52  1  0
M  CHG  2  15  -1  22  -1
M  END
>  <UniqueID>  (84) 
73

>  <SMILES>  (84) 
N#C[C@H](Cc1ccc(-c2cccc(S([NH-])(=O)=O)c2)cc1F)[N-]C(=O)[C@H]1NC2CCC1C2

>  <Energy>  (84) 
83.11219926138702

>  <Genealogy>  (84) 
N#CC(Cc1ccc(-c2cccc(S([NH-])(=O)=O)c2)cc1F)[N-]C(=O)C1NC2CCC1C2 (protonated)
N#C[C@H](Cc1ccc(-c2cccc(S([NH-])(=O)=O)c2)cc1F)[N-]C(=O)[C@H]1NC2CCC1C2 (chirality)
N#C[C@H](Cc1ccc(-c2cccc(S([NH-])(=O)=O)c2)cc1F)[N-]C(=O)[C@H]1NC2CCC1C2 (3D coordinates assigned)
N#C[C@H](Cc1ccc(-c2cccc(S([NH-])(=O)=O)c2)cc1F)[N-]C(=O)[C@H]1NC2CCC1C2 (nonaromatic ring conformer: 83.11219926138702 kcal/mol)

>  <smiles>  (84) 
N#CC(Cc1ccc(-c2cccc(S(N)(=O)=O)c2)cc1F)NC(=O)C1NC2CCC1C2

>  <score_type>  (84) 
oracle

>  <origin>  (84) 
adg

>  <m_score__min__energy>  (84) 
-13.73

>  <m_primary>  (84) 
energy

$$$$
84:0
     RDKit          3D

 28 30  0  0  0  0  0  0  0  0999 V2000
   61.3642   28.5885   46.9732 H   0  0  0  0  0  0  0  0  0  0  0  0
   60.3690   28.6040   46.5050 C   0  0  0  0  0  0  0  0  0  0  0  0
   60.0420   28.9730   44.8980 S   0  0  0  0  0  0  0  0  0  0  0  0
   58.3770   28.7530   44.9910 C   0  0  0  0  0  0  0  0  0  0  0  0
   57.4100   29.0060   43.8720 C   0  0  0  0  0  0  0  0  0  0  0  0
   57.0734   28.0407   43.4659 H   0  0  0  0  0  0  0  0  0  0  0  0
   57.9234   29.5988   43.1007 H   0  0  0  0  0  0  0  0  0  0  0  0
   56.2090   29.7840   44.3430 C   0  0  0  0  0  0  0  0  0  0  0  0
   55.1440   29.1510   44.5730 O   0  0  0  0  0  0  0  0  0  0  0  0
   56.1940   31.2150   44.5020 N   0  0  0  0  0  0  0  0  0  0  0  0
   57.0910   31.9880   45.0450 C   0  0  0  0  0  0  0  0  0  0  0  0
   57.7860   31.6800   46.1720 N   0  0  0  0  0  0  0  0  0  0  0  0
   58.5740   32.7570   46.3360 C   0  0  0  0  0  0  0  0  0  0  0  0
   59.5100   32.9820   47.3410 C   0  0  0  0  0  0  0  0  0  0  0  0
   59.6831   32.2405   48.1348 H   0  0  0  0  0  0  0  0  0  0  0  0
   60.2280   34.1940   47.3050 C   0  0  0  0  0  0  0  0  0  0  0  0
   60.9771   34.4084   48.0815 H   0  0  0  0  0  0  0  0  0  0  0  0
   59.9920   35.1370   46.2770 C   0  0  0  0  0  0  0  0  0  0  0  0
   60.5572   36.0805   46.2604 H   0  0  0  0  0  0  0  0  0  0  0  0
   59.0380   34.8750   45.2750 C   0  0  0  0  0  0  0  0  0  0  0  0
   58.8441   35.5974   44.4684 H   0  0  0  0  0  0  0  0  0  0  0  0
   58.3490   33.6660   45.3440 C   0  0  0  0  0  0  0  0  0  0  0  0
   57.4080   33.1950   44.5170 N   0  0  0  0  0  0  0  0  0  0  0  0
   57.0150   33.6500   43.6620 H   0  0  0  0  0  0  0  0  0  0  0  0
   58.0500   28.4150   46.3000 C   0  0  0  0  0  0  0  0  0  0  0  0
   57.0190   28.2387   46.6406 H   0  0  0  0  0  0  0  0  0  0  0  0
   59.1660   28.3220   47.1400 C   0  0  0  0  0  0  0  0  0  0  0  0
   59.0968   28.0509   48.2038 H   0  0  0  0  0  0  0  0  0  0  0  0
  1  2  1  0
  2  3  1  0
  3  4  1  0
  4  5  1  0
  5  6  1  0
  5  7  1  0
  5  8  1  0
  8  9  2  0
  8 10  1  0
 10 11  2  0
 11 12  1  0
 12 13  1  0
 13 14  2  0
 14 15  1  0
 14 16  1  0
 16 17  1  0
 16 18  2  0
 18 19  1  0
 18 20  1  0
 20 21  1  0
 20 22  2  0
 22 23  1  0
 23 24  1  0
  4 25  2  0
 25 26  1  0
 25 27  1  0
 27 28  1  0
 27  2  2  0
 23 11  1  0
 22 13  1  0
M  CHG  1  12  -1
M  END
>  <UniqueID>  (85) 
74

>  <SMILES>  (85) 
O=C(Cc1cccs1)/N=c1\[n-]c2ccccc2[nH]1

>  <Energy>  (85) 
95.00699788991592

>  <Genealogy>  (85) 
O=C(Cc1cccs1)N=c1[n-]c2ccccc2[nH]1 (protonated)
O=C(Cc1cccs1)/N=c1\[n-]c2ccccc2[nH]1 (cis-trans isomerization)
O=C(Cc1cccs1)/N=c1\[n-]c2ccccc2[nH]1 (3D coordinates assigned)
O=C(Cc1cccs1)/N=c1\[n-]c2ccccc2[nH]1 (optimized conformer: 95.00699788991592 kcal/mol)

>  <smiles>  (85) 
O=C(Cc1cccs1)N=c1[nH]c2ccccc2[nH]1

>  <score_type>  (85) 
oracle

>  <origin>  (85) 
adg

>  <m_score__min__energy>  (85) 
-8.6300000000000008

>  <m_primary>  (85) 
energy

$$$$
85:0
     RDKit          3D

 34 36  0  0  0  0  0  0  0  0999 V2000
   59.4430   29.4010   44.5450 C   0  0  0  0  0  0  0  0  0  0  0  0
   58.0120   29.6900   44.6390 N   0  0  0  0  0  0  0  0  0  0  0  0
   57.3590   30.7840   44.1970 C   0  0  0  0  0  0  0  0  0  0  0  0
   58.1320   32.1960   43.3980 S   0  0  0  0  0  0  0  0  0  0  0  0
   57.3960   33.4340   44.5240 C   0  0  0  0  0  0  0  0  0  0  0  0
   58.2790   33.6740   45.7170 C   0  0  0  0  0  0  0  0  0  0  0  0
   58.1070   32.9150   46.8860 C   0  0  0  0  0  0  0  0  0  0  0  0
   58.8940   33.1700   48.0140 C   0  0  0  0  0  0  0  0  0  0  0  0
   59.8530   34.1860   47.9830 C   0  0  0  0  0  0  0  0  0  0  0  0
   60.6110   34.4360   49.0790 F   0  0  0  0  0  0  0  0  0  0  0  0
   60.0300   34.9460   46.8230 C   0  0  0  0  0  0  0  0  0  0  0  0
   59.2480   34.6910   45.6930 C   0  0  0  0  0  0  0  0  0  0  0  0
   56.0430   30.7190   44.4640 N   0  0  0  0  0  0  0  0  0  0  0  0
   55.8340   29.5700   45.0900 N   0  0  0  0  0  0  0  0  0  0  0  0
   57.0230   28.9420   45.1810 C   0  0  0  0  0  0  0  0  0  0  0  0
   57.1800   27.6390   45.8550 C   0  0  0  0  0  0  0  0  0  0  0  0
   58.3760   27.2720   46.4930 C   0  0  0  0  0  0  0  0  0  0  0  0
   58.4750   26.0160   47.0960 C   0  0  0  0  0  0  0  0  0  0  0  0
   57.3940   25.1350   47.0480 C   0  0  0  0  0  0  0  0  0  0  0  0
   56.2280   25.5200   46.3850 C   0  0  0  0  0  0  0  0  0  0  0  0
   56.1500   26.7480   45.8040 N   0  0  0  0  0  0  0  0  0  0  0  0
   59.8670   29.3154   45.5564 H   0  0  0  0  0  0  0  0  0  0  0  0
   59.5912   28.4548   44.0040 H   0  0  0  0  0  0  0  0  0  0  0  0
   59.9468   30.2155   44.0040 H   0  0  0  0  0  0  0  0  0  0  0  0
   57.2629   34.3805   43.9795 H   0  0  0  0  0  0  0  0  0  0  0  0
   56.4272   33.0517   44.8780 H   0  0  0  0  0  0  0  0  0  0  0  0
   57.3505   32.1169   46.9147 H   0  0  0  0  0  0  0  0  0  0  0  0
   58.7579   32.5703   48.9261 H   0  0  0  0  0  0  0  0  0  0  0  0
   60.7853   35.7453   46.7996 H   0  0  0  0  0  0  0  0  0  0  0  0
   59.3918   35.2891   44.7811 H   0  0  0  0  0  0  0  0  0  0  0  0
   59.2276   27.9678   46.5176 H   0  0  0  0  0  0  0  0  0  0  0  0
   59.4033   25.7220   47.6077 H   0  0  0  0  0  0  0  0  0  0  0  0
   57.4602   24.1474   47.5278 H   0  0  0  0  0  0  0  0  0  0  0  0
   55.3722   24.8310   46.3321 H   0  0  0  0  0  0  0  0  0  0  0  0
  1  2  1  0
  2  3  1  0
  3  4  1  0
  4  5  1  0
  5  6  1  0
  6  7  2  0
  7  8  1  0
  8  9  2  0
  9 10  1  0
  9 11  1  0
 11 12  2  0
  3 13  2  0
 13 14  1  0
 14 15  2  0
 15 16  1  0
 16 17  2  0
 17 18  1  0
 18 19  2  0
 19 20  1  0
 20 21  2  0
 15  2  1  0
 21 16  1  0
 12  6  1  0
  1 22  1  0
  1 23  1  0
  1 24  1  0
  5 25  1  0
  5 26  1  0
  7 27  1  0
  8 28  1  0
 11 29  1  0
 12 30  1  0
 17 31  1  0
 18 32  1  0
 19 33  1  0
 20 34  1  0
M  END
>  <UniqueID>  (86) 
75

>  <SMILES>  (86) 
Cn1c(SCc2ccc(F)cc2)nnc1-c1ccccn1

>  <Energy>  (86) 
70.32625400195272

>  <Genealogy>  (86) 
Cn1c(SCc2ccc(F)cc2)nnc1-c1ccccn1 (3D coordinates assigned)
Cn1c(SCc2ccc(F)cc2)nnc1-c1ccccn1 (optimized conformer: 70.32625400195272 kcal/mol)

>  <smiles>  (86) 
Cn1c(SCc2ccc(F)cc2)nnc1-c1ccccn1

>  <score_type>  (86) 
oracle

>  <origin>  (86) 
adg

>  <m_score__min__energy>  (86) 
-8.0099999999999998

>  <m_primary>  (86) 
energy

$$$$
86:0
     RDKit          3D

 46 49  0  0  0  0  0  0  0  0999 V2000
   56.0630   28.2040   45.3500 O   0  0  0  0  0  0  0  0  0  0  0  0
   57.0250   27.3740   45.2940 C   0  0  0  0  0  0  0  0  0  0  0  0
   58.3300   27.9340   45.2900 N   0  0  0  0  0  0  0  0  0  0  0  0
   58.4050   29.3660   45.3490 C   0  0  0  0  0  0  0  0  0  0  0  0
   57.8990   30.1410   44.3260 C   0  0  0  0  0  0  0  0  0  0  0  0
   57.9990   31.5310   44.4320 C   0  0  0  0  0  0  0  0  0  0  0  0
   58.5940   32.0960   45.5440 C   0  0  0  0  0  0  0  0  0  0  0  0
   58.6870   33.8430   45.6110 S   0  0  0  0  0  0  0  0  0  0  0  0
   59.3260   34.4170   44.3800 O   0  0  0  0  0  0  0  0  0  0  0  0
   57.2790   34.4340   45.6600 O   0  0  0  0  0  0  0  0  0  0  0  0
   59.4780   34.4090   47.0210 N   0  0  0  0  0  0  0  0  0  0  0  0
   60.7070   34.2120   47.2980 C   0  0  0  0  0  0  0  0  0  0  0  0
   61.0390   34.2760   48.6210 N   0  0  0  0  0  0  0  0  0  0  0  0
   62.3170   34.0770   48.9790 C   0  0  0  0  0  0  0  0  0  0  0  0
   63.3210   33.8090   48.0660 C   0  0  0  0  0  0  0  0  0  0  0  0
   62.9670   33.7510   46.7470 C   0  0  0  0  0  0  0  0  0  0  0  0
   61.6750   33.9530   46.4130 N   0  0  0  0  0  0  0  0  0  0  0  0
   59.0830   31.2760   46.5360 C   0  0  0  0  0  0  0  0  0  0  0  0
   59.0060   29.8990   46.4720 C   0  0  0  0  0  0  0  0  0  0  0  0
   56.7960   25.9350   45.2380 C   0  0  0  0  0  0  0  0  0  0  0  0
   55.8470   25.2810   45.9760 C   0  0  0  0  0  0  0  0  0  0  0  0
   55.6780   23.8970   45.8740 C   0  0  0  0  0  0  0  0  0  0  0  0
   56.4790   23.1470   45.0120 C   0  0  0  0  0  0  0  0  0  0  0  0
   56.3280   21.7320   44.8880 N   0  0  0  0  0  0  0  0  0  0  0  0
   56.5950   20.8620   45.8780 C   0  0  0  0  0  0  0  0  0  0  0  0
   56.3430   19.5840   45.4250 C   0  0  0  0  0  0  0  0  0  0  0  0
   55.9150   19.7210   44.1270 C   0  0  0  0  0  0  0  0  0  0  0  0
   55.9210   21.0490   43.8430 N   0  0  0  0  0  0  0  0  0  0  0  0
   57.4350   23.8170   44.2700 C   0  0  0  0  0  0  0  0  0  0  0  0
   57.5840   25.1850   44.3860 C   0  0  0  0  0  0  0  0  0  0  0  0
   59.1770   27.3260   45.2470 H   0  0  0  0  0  0  0  0  0  0  0  0
   57.4279   29.6759   43.4475 H   0  0  0  0  0  0  0  0  0  0  0  0
   57.6047   32.1743   43.6315 H   0  0  0  0  0  0  0  0  0  0  0  0
   62.5778   34.1294   50.0464 H   0  0  0  0  0  0  0  0  0  0  0  0
   64.3606   33.6493   48.3879 H   0  0  0  0  0  0  0  0  0  0  0  0
   63.7205   33.5437   45.9728 H   0  0  0  0  0  0  0  0  0  0  0  0
   61.4430   33.9020   45.4110 H   0  0  0  0  0  0  0  0  0  0  0  0
   59.5547   31.7372   47.4162 H   0  0  0  0  0  0  0  0  0  0  0  0
   59.4029   29.2596   47.2742 H   0  0  0  0  0  0  0  0  0  0  0  0
   55.2058   25.8545   46.6616 H   0  0  0  0  0  0  0  0  0  0  0  0
   54.9076   23.3953   46.4780 H   0  0  0  0  0  0  0  0  0  0  0  0
   56.9550   21.1261   46.8833 H   0  0  0  0  0  0  0  0  0  0  0  0
   56.4607   18.6464   45.9881 H   0  0  0  0  0  0  0  0  0  0  0  0
   55.6225   18.9082   43.4459 H   0  0  0  0  0  0  0  0  0  0  0  0
   58.0826   23.2549   43.5811 H   0  0  0  0  0  0  0  0  0  0  0  0
   58.3517   25.6920   43.7831 H   0  0  0  0  0  0  0  0  0  0  0  0
  1  2  2  0
  2  3  1  0
  3  4  1  0
  4  5  2  0
  5  6  1  0
  6  7  2  0
  7  8  1  0
  8  9  2  0
  8 10  2  0
  8 11  1  0
 11 12  2  3
 12 13  1  0
 13 14  2  0
 14 15  1  0
 15 16  2  0
 16 17  1  0
  7 18  1  0
 18 19  2  0
  2 20  1  0
 20 21  2  0
 21 22  1  0
 22 23  2  0
 23 24  1  0
 24 25  1  0
 25 26  2  0
 26 27  1  0
 27 28  2  0
 23 29  1  0
 29 30  2  0
 19  4  1  0
 30 20  1  0
 17 12  1  0
 28 24  1  0
  3 31  1  0
  5 32  1  0
  6 33  1  0
 14 34  1  0
 15 35  1  0
 16 36  1  0
 17 37  1  0
 18 38  1  0
 19 39  1  0
 21 40  1  0
 22 41  1  0
 25 42  1  0
 26 43  1  0
 27 44  1  0
 29 45  1  0
 30 46  1  0
M  END
>  <smiles>  (87) 
O=C(Nc1ccc(S(=O)(=O)N=c2nccc[nH]2)cc1)c1ccc(-n2cccn2)cc1

>  <score_type>  (87) 
oracle

>  <origin>  (87) 
adg

>  <m_score__min__energy>  (87) 
-8.2799999999999994

>  <m_primary>  (87) 
energy

$$$$
87:0
     RDKit          3D

 53 56  0  0  0  0  0  0  0  0999 V2000
   60.3030   30.9360   46.8120 O   0  0  0  0  0  0  0  0  0  0  0  0
   59.4140   30.0480   46.9280 C   0  0  0  0  0  0  0  0  0  0  0  0
   59.1820   29.4220   48.2050 N   0  0  0  0  0  0  0  0  0  0  0  0
   59.7820   29.8700   49.4320 C   0  0  0  0  0  0  0  0  0  0  0  0
   58.9760   30.4600   50.4160 C   0  0  0  0  0  0  0  0  0  0  0  0
   59.5430   30.9410   51.5990 C   0  0  0  0  0  0  0  0  0  0  0  0
   60.9190   30.8370   51.8110 C   0  0  0  0  0  0  0  0  0  0  0  0
   61.7360   30.2170   50.8530 C   0  0  0  0  0  0  0  0  0  0  0  0
   63.2290   30.1790   51.0490 C   0  0  0  0  0  0  0  0  0  0  0  0
   63.8460   31.3700   50.4590 N   0  0  0  0  0  0  0  0  0  0  0  0
   63.2020   32.1790   49.4560 C   0  0  0  0  0  0  0  0  0  0  0  0
   62.3510   33.2210   49.8520 C   0  0  0  0  0  0  0  0  0  0  0  0
   61.6570   33.9710   48.8970 C   0  0  0  0  0  0  0  0  0  0  0  0
   61.7970   33.6820   47.5330 C   0  0  0  0  0  0  0  0  0  0  0  0
   61.0530   34.4380   46.5630 N   0  0  0  0  0  0  0  0  0  0  0  0
   59.6810   34.1690   46.2270 C   0  0  0  0  0  0  0  0  0  0  0  0
   58.7730   33.6960   47.1940 C   0  0  0  0  0  0  0  0  0  0  0  0
   57.4370   33.4630   46.8530 C   0  0  0  0  0  0  0  0  0  0  0  0
   56.9950   33.7070   45.5510 C   0  0  0  0  0  0  0  0  0  0  0  0
   57.8850   34.1970   44.5900 C   0  0  0  0  0  0  0  0  0  0  0  0
   59.2210   34.4350   44.9300 C   0  0  0  0  0  0  0  0  0  0  0  0
   62.6970   32.6830   47.1330 C   0  0  0  0  0  0  0  0  0  0  0  0
   63.3980   31.9410   48.0850 C   0  0  0  0  0  0  0  0  0  0  0  0
   61.1570   29.7120   49.6770 C   0  0  0  0  0  0  0  0  0  0  0  0
   58.6170   29.6820   45.7340 C   0  0  0  0  0  0  0  0  0  0  0  0
   58.7620   28.4050   45.1610 C   0  0  0  0  0  0  0  0  0  0  0  0
   58.0420   28.0540   44.0150 C   0  0  0  0  0  0  0  0  0  0  0  0
   57.1740   28.9760   43.4240 C   0  0  0  0  0  0  0  0  0  0  0  0
   57.0300   30.2500   43.9760 C   0  0  0  0  0  0  0  0  0  0  0  0
   57.7500   30.6070   45.1210 C   0  0  0  0  0  0  0  0  0  0  0  0
   58.4520   28.6790   48.2780 H   0  0  0  0  0  0  0  0  0  0  0  0
   57.8910   30.5447   50.2557 H   0  0  0  0  0  0  0  0  0  0  0  0
   58.9034   31.4029   52.3655 H   0  0  0  0  0  0  0  0  0  0  0  0
   61.3641   31.2422   52.7317 H   0  0  0  0  0  0  0  0  0  0  0  0
   63.4538   30.1484   52.1254 H   0  0  0  0  0  0  0  0  0  0  0  0
   63.6336   29.2828   50.5559 H   0  0  0  0  0  0  0  0  0  0  0  0
   64.7110   31.7380   50.9160 H   0  0  0  0  0  0  0  0  0  0  0  0
   62.2285   33.4500   50.9209 H   0  0  0  0  0  0  0  0  0  0  0  0
   60.9983   34.7914   49.2181 H   0  0  0  0  0  0  0  0  0  0  0  0
   61.5290   35.2400   46.0920 H   0  0  0  0  0  0  0  0  0  0  0  0
   59.1163   33.5090   48.2222 H   0  0  0  0  0  0  0  0  0  0  0  0
   56.7338   33.0873   47.6108 H   0  0  0  0  0  0  0  0  0  0  0  0
   55.9463   33.5137   45.2812 H   0  0  0  0  0  0  0  0  0  0  0  0
   57.5344   34.3954   43.5664 H   0  0  0  0  0  0  0  0  0  0  0  0
   59.9147   34.8333   44.1749 H   0  0  0  0  0  0  0  0  0  0  0  0
   62.8512   32.4832   46.0624 H   0  0  0  0  0  0  0  0  0  0  0  0
   64.1077   31.1658   47.7603 H   0  0  0  0  0  0  0  0  0  0  0  0
   61.7852   29.1883   48.9414 H   0  0  0  0  0  0  0  0  0  0  0  0
   59.4477   27.6767   45.6186 H   0  0  0  0  0  0  0  0  0  0  0  0
   58.1589   27.0512   43.5782 H   0  0  0  0  0  0  0  0  0  0  0  0
   56.6048   28.6981   42.5247 H   0  0  0  0  0  0  0  0  0  0  0  0
   56.3480   30.9758   43.5090 H   0  0  0  0  0  0  0  0  0  0  0  0
   57.6383   31.6159   45.5449 H   0  0  0  0  0  0  0  0  0  0  0  0
  1  2  2  0
  2  3  1  0
  3  4  1  0
  4  5  2  0
  5  6  1  0
  6  7  2  0
  7  8  1  0
  8  9  1  0
  9 10  1  0
 10 11  1  0
 11 12  2  0
 12 13  1  0
 13 14  2  0
 14 15  1  0
 15 16  1  0
 16 17  2  0
 17 18  1  0
 18 19  2  0
 19 20  1  0
 20 21  2  0
 14 22  1  0
 22 23  2  0
  8 24  2  0
  2 25  1  0
 25 26  2  0
 26 27  1  0
 27 28  2  0
 28 29  1  0
 29 30  2  0
 24  4  1  0
 30 25  1  0
 23 11  1  0
 21 16  1  0
  3 31  1  0
  5 32  1  0
  6 33  1  0
  7 34  1  0
  9 35  1  0
  9 36  1  0
 10 37  1  0
 12 38  1  0
 13 39  1  0
 15 40  1  0
 17 41  1  0
 18 42  1  0
 19 43  1  0
 20 44  1  0
 21 45  1  0
 22 46  1  0
 23 47  1  0
 24 48  1  0
 26 49  1  0
 27 50  1  0
 28 51  1  0
 29 52  1  0
 30 53  1  0
M  END
>  <UniqueID>  (88) 
76

>  <SMILES>  (88) 
O=C(Nc1cccc(CNc2ccc(Nc3ccccc3)cc2)c1)c1ccccc1

>  <Energy>  (88) 
66.76343546850629

>  <Genealogy>  (88) 
O=C(Nc1cccc(CNc2ccc(Nc3ccccc3)cc2)c1)c1ccccc1 (3D coordinates assigned)
O=C(Nc1cccc(CNc2ccc(Nc3ccccc3)cc2)c1)c1ccccc1 (optimized conformer: 66.76343546850629 kcal/mol)

>  <smiles>  (88) 
O=C(Nc1cccc(CNc2ccc(Nc3ccccc3)cc2)c1)c1ccccc1

>  <score_type>  (88) 
oracle

>  <origin>  (88) 
adg

>  <m_score__min__energy>  (88) 
-9.4000000000000004

>  <m_primary>  (88) 
energy

$$$$
88:0
     RDKit          3D

 28 29  0  0  0  0  0  0  0  0999 V2000
   58.1300   30.3590   43.9600 N   0  0  0  0  0  0  0  0  0  0  0  0
   58.1380   29.3730   44.9920 C   0  0  0  0  0  0  0  0  0  0  0  0
   58.9920   29.4360   46.0880 C   0  0  0  0  0  0  0  0  0  0  0  0
   58.6830   28.0960   47.0590 S   0  0  0  0  0  0  0  0  0  0  0  0
   57.4730   27.4390   46.0930 C   0  0  0  0  0  0  0  0  0  0  0  0
   56.7360   26.2040   46.3740 C   0  0  0  0  0  0  0  0  0  0  0  0
   55.4930   25.9430   45.9220 N   0  0  0  0  0  0  0  0  0  0  0  0
   55.1770   24.7420   46.3800 N   0  0  0  0  0  0  0  0  0  0  0  0
   56.2390   24.3200   47.0910 C   0  0  0  0  0  0  0  0  0  0  0  0
   56.3270   22.7390   47.9270 S   0  0  0  0  0  0  0  0  0  0  0  0
   57.0160   21.8460   46.4920 C   0  0  0  0  0  0  0  0  0  0  0  0
   56.0090   21.8030   45.3430 C   0  0  0  0  0  0  0  0  0  0  0  0
   56.6520   22.6420   43.9060 S   0  0  0  0  0  0  0  0  0  0  0  0
   56.4690   24.3510   44.0940 N   0  0  0  0  0  0  0  0  0  0  0  0
   55.8960   22.1880   42.6880 O   0  0  0  0  0  0  0  0  0  0  0  0
   58.1090   22.3120   43.7350 O   0  0  0  0  0  0  0  0  0  0  0  0
   57.2000   25.2110   47.0940 O   0  0  0  0  0  0  0  0  0  0  0  0
   57.2860   28.2590   44.9890 C   0  0  0  0  0  0  0  0  0  0  0  0
   58.2060   30.0780   42.9580 H   0  0  0  0  0  0  0  0  0  0  0  0
   58.0480   31.3730   44.1950 H   0  0  0  0  0  0  0  0  0  0  0  0
   59.7365   30.2214   46.2852 H   0  0  0  0  0  0  0  0  0  0  0  0
   57.9282   22.3586   46.1527 H   0  0  0  0  0  0  0  0  0  0  0  0
   57.2464   20.8145   46.7969 H   0  0  0  0  0  0  0  0  0  0  0  0
   55.8005   20.7542   45.0851 H   0  0  0  0  0  0  0  0  0  0  0  0
   55.0863   22.3090   45.6635 H   0  0  0  0  0  0  0  0  0  0  0  0
   55.4490   24.5370   44.2250 H   0  0  0  0  0  0  0  0  0  0  0  0
   56.9410   24.6110   44.9890 H   0  0  0  0  0  0  0  0  0  0  0  0
   56.5494   28.0571   44.1974 H   0  0  0  0  0  0  0  0  0  0  0  0
  1  2  1  0
  2  3  2  0
  3  4  1  0
  4  5  1  0
  5  6  1  0
  6  7  2  0
  7  8  1  0
  8  9  2  0
  9 10  1  0
 10 11  1  0
 11 12  1  0
 12 13  1  0
 13 14  1  0
 13 15  2  0
 13 16  2  0
  9 17  1  0
  5 18  2  0
 18  2  1  0
 17  6  1  0
  1 19  1  0
  1 20  1  0
  3 21  1  0
 11 22  1  0
 11 23  1  0
 12 24  1  0
 12 25  1  0
 14 26  1  0
 14 27  1  0
 18 28  1  0
M  END
>  <UniqueID>  (89) 
77

>  <SMILES>  (89) 
Nc1csc(-c2nnc(SCCS(N)(=O)=O)o2)c1

>  <Energy>  (89) 
74.71314865473178

>  <Genealogy>  (89) 
Nc1csc(-c2nnc(SCCS(N)(=O)=O)o2)c1 (3D coordinates assigned)
Nc1csc(-c2nnc(SCCS(N)(=O)=O)o2)c1 (optimized conformer: 74.71314865473178 kcal/mol)

>  <smiles>  (89) 
Nc1csc(-c2nnc(SCCS(N)(=O)=O)o2)c1

>  <score_type>  (89) 
oracle

>  <origin>  (89) 
adg

>  <m_score__min__energy>  (89) 
-6.3600000000000003

>  <m_primary>  (89) 
energy

$$$$
89:0
     RDKit          3D

 50 53  0  0  1  0  0  0  0  0999 V2000
   58.1510   30.8850   49.5700 O   0  0  0  0  0  0  0  0  0  0  0  0
   59.3570   30.5920   49.6890 C   0  0  0  0  0  0  0  0  0  0  0  0
   59.9490   29.8740   48.6420 N   0  0  0  0  0  0  0  0  0  0  0  0
   59.3180   29.4450   47.4550 C   0  0  0  0  0  0  0  0  0  0  0  0
   59.3710   28.2120   46.8890 C   0  0  0  0  0  0  0  0  0  0  0  0
   58.7430   27.8390   45.7190 C   0  0  0  0  0  0  0  0  0  0  0  0
   58.0040   28.7720   45.0610 C   0  0  0  0  0  0  0  0  0  0  0  0
   57.3980   28.3900   43.9180 N   0  0  0  0  0  0  0  0  0  0  0  0
   56.6740   29.3180   43.2800 C   0  0  0  0  0  0  0  0  0  0  0  0
   56.5400   30.5640   43.7240 N   0  0  0  0  0  0  0  0  0  0  0  0
   57.1540   30.9350   44.8740 C   0  0  0  0  0  0  0  0  0  0  0  0
   57.0060   32.0980   45.2520 N   0  0  0  0  0  0  0  0  0  0  0  0
   57.8320   33.1170   45.5460 C   0  0  0  0  0  0  0  0  0  0  0  0
   58.3830   33.9510   44.5390 C   0  0  0  0  0  0  0  0  0  0  0  0
   59.3140   34.9130   44.8660 C   0  0  0  0  0  0  0  0  0  0  0  0
   59.7170   35.0690   46.1880 C   0  0  0  0  0  0  0  0  0  0  0  0
   59.1960   34.2680   47.1940 C   0  0  0  0  0  0  0  0  0  0  0  0
   59.7360   34.4990   48.8520 Cl  0  0  0  0  0  0  0  0  0  0  0  0
   58.2650   33.3020   46.8830 C   0  0  0  0  0  0  0  0  0  0  0  0
   57.9110   30.0440   45.5850 C   0  0  0  0  0  0  0  0  0  0  0  0
   58.5440   30.3920   46.7480 C   0  0  0  0  0  0  0  0  0  0  0  0
   60.1800   30.9480   50.8450 C   0  0  0  0  0  0  0  0  0  0  0  0
   59.8280   32.4260   51.7620 Cl  0  0  0  0  0  0  0  0  0  0  0  0
   61.1920   30.2330   51.2700 C   0  0  0  0  0  0  0  0  0  0  0  0
   62.5720   30.3160   50.7820 C   0  0  0  0  0  0  0  0  0  0  0  0
   62.6930   30.5020   49.4080 O   0  0  0  0  0  0  0  0  0  0  0  0
   62.8800   31.6040   48.6600 C   0  0  0  0  0  0  0  0  0  0  0  0
   63.8280   32.5850   48.8260 C   0  0  0  0  0  0  0  0  0  0  0  0
   63.9400   33.6870   47.9910 C   0  0  0  0  0  0  0  0  0  0  0  0
   63.0790   33.8470   46.9310 C   0  0  0  0  0  0  0  0  0  0  0  0
   62.1170   32.8800   46.7380 C   0  0  0  0  0  0  0  0  0  0  0  0
   62.0140   31.7900   47.5690 C   0  0  0  0  0  0  0  0  0  0  0  0
   60.9830   29.6400   48.7780 H   0  0  0  0  0  0  0  0  0  0  0  0
   59.9653   27.4453   47.4076 H   0  0  0  0  0  0  0  0  0  0  0  0
   58.8373   26.8149   45.3288 H   0  0  0  0  0  0  0  0  0  0  0  0
   57.5000   27.4190   43.5690 H   0  0  0  0  0  0  0  0  0  0  0  0
   56.1667   29.0366   42.3454 H   0  0  0  0  0  0  0  0  0  0  0  0
   58.0657   33.8292   43.4928 H   0  0  0  0  0  0  0  0  0  0  0  0
   59.7382   35.5572   44.0818 H   0  0  0  0  0  0  0  0  0  0  0  0
   60.4605   35.8395   46.4400 H   0  0  0  0  0  0  0  0  0  0  0  0
   57.8528   32.6669   47.6810 H   0  0  0  0  0  0  0  0  0  0  0  0
   58.4491   31.4173   47.1351 H   0  0  0  0  0  0  0  0  0  0  0  0
   60.9875   29.5027   52.0668 H   0  0  0  0  0  0  0  0  0  0  0  0
   63.0636   31.1607   51.2867 H   0  0  0  0  0  0  0  0  0  0  0  0
   63.0397   29.3460   51.0065 H   0  0  0  0  0  0  0  0  0  0  0  0
   64.5343   32.4915   49.6641 H   0  0  0  0  0  0  0  0  0  0  0  0
   64.7223   34.4374   48.1780 H   0  0  0  0  0  0  0  0  0  0  0  0
   63.1556   34.7161   46.2610 H   0  0  0  0  0  0  0  0  0  0  0  0
   61.4140   32.9827   45.8982 H   0  0  0  0  0  0  0  0  0  0  0  0
   61.2313   31.0419   47.3745 H   0  0  0  0  0  0  0  0  0  0  0  0
  1  2  2  0
  2  3  1  0
  3  4  1  0
  4  5  2  0
  5  6  1  0
  6  7  2  0
  7  8  1  0
  8  9  1  0
  9 10  2  0
 10 11  1  0
 11 12  2  0
 12 13  1  0
 13 14  2  0
 14 15  1  0
 15 16  2  0
 16 17  1  0
 17 18  1  0
 17 19  2  0
 11 20  1  0
 20 21  2  0
  2 22  1  0
 22 23  1  0
 22 24  2  0
 24 25  1  0
 25 26  1  0
 26 27  1  0
 27 28  2  0
 28 29  1  0
 29 30  2  0
 30 31  1  0
 31 32  2  0
 21  4  1  0
 32 27  1  0
 20  7  1  0
 19 13  1  0
  3 33  1  0
  5 34  1  0
  6 35  1  0
  8 36  1  0
  9 37  1  0
 14 38  1  0
 15 39  1  0
 16 40  1  0
 19 41  1  0
 21 42  1  0
 24 43  1  0
 25 44  1  0
 25 45  1  0
 28 46  1  0
 29 47  1  0
 30 48  1  0
 31 49  1  0
 32 50  1  0
M  END
>  <smiles>  (90) 
O=C(Nc1ccc2[nH]cnc(=Nc3cccc(Cl)c3)c2c1)C(Cl)=CCOc1ccccc1

>  <score_type>  (90) 
oracle

>  <origin>  (90) 
adg

>  <m_score__min__energy>  (90) 
-9.4199999999999999

>  <m_primary>  (90) 
energy

$$$$
90:0
     RDKit          3D

 44 46  0  0  0  0  0  0  0  0999 V2000
   60.2770   29.8710   49.3150 C   0  0  0  0  0  0  0  0  0  0  0  0
   60.7670   28.9540   48.3390 O   0  0  0  0  0  0  0  0  0  0  0  0
   59.9530   28.2350   47.4510 C   0  0  0  0  0  0  0  0  0  0  0  0
   60.2750   26.9350   47.0190 C   0  0  0  0  0  0  0  0  0  0  0  0
   59.4280   26.2550   46.1420 C   0  0  0  0  0  0  0  0  0  0  0  0
   58.2450   26.8560   45.6830 C   0  0  0  0  0  0  0  0  0  0  0  0
   57.3470   26.1320   44.8230 N   0  0  0  0  0  0  0  0  0  0  0  0
   57.1310   24.6920   44.9540 C   0  0  0  0  0  0  0  0  0  0  0  0
   55.6620   24.3970   45.0080 C   0  0  0  0  0  0  0  0  0  0  0  0
   55.0420   23.2870   44.4850 C   0  0  0  0  0  0  0  0  0  0  0  0
   53.7420   23.3160   44.8290 N   0  0  0  0  0  0  0  0  0  0  0  0
   53.6170   24.4450   45.5610 C   0  0  0  0  0  0  0  0  0  0  0  0
   54.7730   25.1290   45.7020 N   0  0  0  0  0  0  0  0  0  0  0  0
   57.9210   28.1620   46.0990 C   0  0  0  0  0  0  0  0  0  0  0  0
   56.6990   28.7590   45.6380 N   0  0  0  0  0  0  0  0  0  0  0  0
   56.5790   29.9080   44.3460 S   0  0  0  0  0  0  0  0  0  0  0  0
   55.1370   30.2890   44.1530 O   0  0  0  0  0  0  0  0  0  0  0  0
   57.0950   29.2910   43.0720 O   0  0  0  0  0  0  0  0  0  0  0  0
   57.4980   31.3510   44.7710 C   0  0  0  0  0  0  0  0  0  0  0  0
   57.8460   32.2660   43.7680 C   0  0  0  0  0  0  0  0  0  0  0  0
   58.5390   33.4360   44.0930 C   0  0  0  0  0  0  0  0  0  0  0  0
   58.8990   33.6960   45.4250 C   0  0  0  0  0  0  0  0  0  0  0  0
   59.6050   34.9650   45.7890 C   0  0  0  0  0  0  0  0  0  0  0  0
   58.5390   32.7830   46.4310 C   0  0  0  0  0  0  0  0  0  0  0  0
   57.8460   31.6140   46.1070 C   0  0  0  0  0  0  0  0  0  0  0  0
   58.7810   28.8390   46.9840 C   0  0  0  0  0  0  0  0  0  0  0  0
   60.4855   29.4807   50.3221 H   0  0  0  0  0  0  0  0  0  0  0  0
   60.7759   30.8431   49.1879 H   0  0  0  0  0  0  0  0  0  0  0  0
   59.1916   29.9965   49.1879 H   0  0  0  0  0  0  0  0  0  0  0  0
   61.1978   26.4527   47.3738 H   0  0  0  0  0  0  0  0  0  0  0  0
   59.6895   25.2401   45.8079 H   0  0  0  0  0  0  0  0  0  0  0  0
   56.6650   26.6660   44.2350 H   0  0  0  0  0  0  0  0  0  0  0  0
   57.5745   24.1769   44.0891 H   0  0  0  0  0  0  0  0  0  0  0  0
   57.6048   24.3386   45.8817 H   0  0  0  0  0  0  0  0  0  0  0  0
   55.5287   22.5044   43.8844 H   0  0  0  0  0  0  0  0  0  0  0  0
   52.6642   24.7755   46.0003 H   0  0  0  0  0  0  0  0  0  0  0  0
   57.5731   32.0630   42.7219 H   0  0  0  0  0  0  0  0  0  0  0  0
   58.8029   34.1547   43.3031 H   0  0  0  0  0  0  0  0  0  0  0  0
   59.6553   35.0554   46.8841 H   0  0  0  0  0  0  0  0  0  0  0  0
   60.6241   34.9493   45.3752 H   0  0  0  0  0  0  0  0  0  0  0  0
   59.0544   35.8226   45.3752 H   0  0  0  0  0  0  0  0  0  0  0  0
   58.8041   32.9898   47.4784 H   0  0  0  0  0  0  0  0  0  0  0  0
   57.5728   30.8995   46.8975 H   0  0  0  0  0  0  0  0  0  0  0  0
   58.5278   29.8576   47.3131 H   0  0  0  0  0  0  0  0  0  0  0  0
  1  2  1  0
  2  3  1  0
  3  4  2  0
  4  5  1  0
  5  6  2  0
  6  7  1  0
  7  8  1  0
  8  9  1  0
  9 10  2  0
 10 11  1  0
 11 12  1  0
 12 13  2  0
  6 14  1  0
 14 15  1  0
 15 16  1  0
 16 17  2  0
 16 18  2  0
 16 19  1  0
 19 20  2  0
 20 21  1  0
 21 22  2  0
 22 23  1  0
 22 24  1  0
 24 25  2  0
 14 26  2  0
 26  3  1  0
 13  9  1  0
 25 19  1  0
  1 27  1  0
  1 28  1  0
  1 29  1  0
  4 30  1  0
  5 31  1  0
  7 32  1  0
  8 33  1  0
  8 34  1  0
 10 35  1  0
 12 36  1  0
 20 37  1  0
 21 38  1  0
 23 39  1  0
 23 40  1  0
 23 41  1  0
 24 42  1  0
 25 43  1  0
 26 44  1  0
M  CHG  2  11  -1  15  -1
M  END
>  <UniqueID>  (91) 
78

>  <SMILES>  (91) 
COc1ccc(NCc2c[n-]cn2)c([N-]S(=O)(=O)c2ccc(C)cc2)c1

>  <Energy>  (91) 
74.81181321376168

>  <Genealogy>  (91) 
COc1ccc(NCc2c[n-]cn2)c([N-]S(=O)(=O)c2ccc(C)cc2)c1 (protonated)
COc1ccc(NCc2c[n-]cn2)c([N-]S(=O)(=O)c2ccc(C)cc2)c1 (3D coordinates assigned)
COc1ccc(NCc2c[n-]cn2)c([N-]S(=O)(=O)c2ccc(C)cc2)c1 (optimized conformer: 74.81181321376168 kcal/mol)

>  <smiles>  (91) 
COc1ccc(NCc2c[nH]cn2)c(NS(=O)(=O)c2ccc(C)cc2)c1

>  <score_type>  (91) 
oracle

>  <origin>  (91) 
adg

>  <m_score__min__energy>  (91) 
-11.279999999999999

>  <m_primary>  (91) 
energy

$$$$
91:0
     RDKit          3D

 29 30  0  0  0  0  0  0  0  0999 V2000
   58.0059   25.3355   45.2789 H   0  0  0  0  0  0  0  0  0  0  0  0
   58.0830   26.3990   45.5490 C   0  0  0  0  0  0  0  0  0  0  0  0
   59.5020   27.2240   45.9260 S   0  0  0  0  0  0  0  0  0  0  0  0
   58.7120   28.6800   46.1980 C   0  0  0  0  0  0  0  0  0  0  0  0
   59.3390   29.7750   46.5230 N   0  0  0  0  0  0  0  0  0  0  0  0
   58.8060   30.9560   47.1460 C   0  0  0  0  0  0  0  0  0  0  0  0
   58.5430   30.9600   48.3780 O   0  0  0  0  0  0  0  0  0  0  0  0
   58.6380   32.1990   46.3420 C   0  0  0  0  0  0  0  0  0  0  0  0
   59.4020   33.3390   46.6660 C   0  0  0  0  0  0  0  0  0  0  0  0
   60.1124   33.2958   47.5048 H   0  0  0  0  0  0  0  0  0  0  0  0
   59.2690   34.5210   45.9370 C   0  0  0  0  0  0  0  0  0  0  0  0
   59.8723   35.4014   46.2034 H   0  0  0  0  0  0  0  0  0  0  0  0
   58.3740   34.5880   44.8730 C   0  0  0  0  0  0  0  0  0  0  0  0
   58.2691   35.5224   44.3022 H   0  0  0  0  0  0  0  0  0  0  0  0
   57.6100   33.4730   44.5290 C   0  0  0  0  0  0  0  0  0  0  0  0
   56.9066   33.5336   43.6855 H   0  0  0  0  0  0  0  0  0  0  0  0
   57.7310   32.2680   45.2530 C   0  0  0  0  0  0  0  0  0  0  0  0
   56.9740   31.1360   44.9090 O   0  0  0  0  0  0  0  0  0  0  0  0
   56.9300   30.5460   43.6120 C   0  0  0  0  0  0  0  0  0  0  0  0
   57.8082   29.8982   43.4737 H   0  0  0  0  0  0  0  0  0  0  0  0
   56.9350   31.3376   42.8482 H   0  0  0  0  0  0  0  0  0  0  0  0
   55.6630   29.7180   43.4760 C   0  0  0  0  0  0  0  0  0  0  0  0
   55.2796   29.4674   44.4761 H   0  0  0  0  0  0  0  0  0  0  0  0
   54.9048   30.2954   42.9267 H   0  0  0  0  0  0  0  0  0  0  0  0
   55.8875   28.7918   42.9267 H   0  0  0  0  0  0  0  0  0  0  0  0
   57.3770   28.5630   45.9950 N   0  0  0  0  0  0  0  0  0  0  0  0
   56.6740   29.3300   46.0540 H   0  0  0  0  0  0  0  0  0  0  0  0
   57.0260   27.2980   45.6390 C   0  0  0  0  0  0  0  0  0  0  0  0
   55.9842   27.0080   45.4374 H   0  0  0  0  0  0  0  0  0  0  0  0
  1  2  1  0
  2  3  1  0
  3  4  1  0
  4  5  2  0
  5  6  1  0
  6  7  2  0
  6  8  1  0
  8  9  2  0
  9 10  1  0
  9 11  1  0
 11 12  1  0
 11 13  2  0
 13 14  1  0
 13 15  1  0
 15 16  1  0
 15 17  2  0
 17 18  1  0
 18 19  1  0
 19 20  1  0
 19 21  1  0
 19 22  1  0
 22 23  1  0
 22 24  1  0
 22 25  1  0
  4 26  1  0
 26 27  1  0
 26 28  1  0
 28 29  1  0
 28  2  2  0
 17  8  1  0
M  END
>  <UniqueID>  (92) 
79

>  <SMILES>  (92) 
CCOc1ccccc1C(=O)/N=c1\[nH]ccs1

>  <Energy>  (92) 
63.4406663040347

>  <Genealogy>  (92) 
CCOc1ccccc1C(=O)/N=c1\[nH]ccs1 (cis-trans isomerization)
CCOc1ccccc1C(=O)/N=c1\[nH]ccs1 (3D coordinates assigned)
CCOc1ccccc1C(=O)/N=c1\[nH]ccs1 (optimized conformer: 63.4406663040347 kcal/mol)

>  <smiles>  (92) 
CCOc1ccccc1C(=O)N=c1[nH]ccs1

>  <score_type>  (92) 
oracle

>  <origin>  (92) 
adg

>  <m_score__min__energy>  (92) 
-6.3499999999999996

>  <m_primary>  (92) 
energy

$$$$
92:0
     RDKit          3D

 35 37  0  0  0  0  0  0  0  0999 V2000
   59.5823   36.3868   45.6309 H   0  0  0  0  0  0  0  0  0  0  0  0
   59.4430   35.3010   45.7390 C   0  0  0  0  0  0  0  0  0  0  0  0
   60.1300   34.6050   46.7360 C   0  0  0  0  0  0  0  0  0  0  0  0
   60.8106   35.1432   47.4121 H   0  0  0  0  0  0  0  0  0  0  0  0
   59.9540   33.2250   46.8760 C   0  0  0  0  0  0  0  0  0  0  0  0
   60.4978   32.6821   47.6631 H   0  0  0  0  0  0  0  0  0  0  0  0
   59.0850   32.5250   46.0160 C   0  0  0  0  0  0  0  0  0  0  0  0
   58.8970   31.0600   46.1640 C   0  0  0  0  0  0  0  0  0  0  0  0
   58.3280   30.3040   45.1240 C   0  0  0  0  0  0  0  0  0  0  0  0
   58.0219   30.8021   44.1922 H   0  0  0  0  0  0  0  0  0  0  0  0
   58.1480   28.9250   45.2640 C   0  0  0  0  0  0  0  0  0  0  0  0
   57.7052   28.3465   44.4399 H   0  0  0  0  0  0  0  0  0  0  0  0
   58.5280   28.2710   46.4490 C   0  0  0  0  0  0  0  0  0  0  0  0
   58.3390   26.8080   46.6050 C   0  0  0  0  0  0  0  0  0  0  0  0
   59.3380   26.0410   46.5450 O   0  0  0  0  0  0  0  0  0  0  0  0
   57.0360   26.2240   46.7450 N   0  0  0  0  0  0  0  0  0  0  0  0
   56.5540   25.2170   46.0690 C   0  0  0  0  0  0  0  0  0  0  0  0
   55.2090   25.2540   45.6660 C   0  0  0  0  0  0  0  0  0  0  0  0
   54.4010   26.3410   45.9860 O   0  0  0  0  0  0  0  0  0  0  0  0
   54.6750   24.1860   44.9440 C   0  0  0  0  0  0  0  0  0  0  0  0
   53.6208   24.2048   44.6306 H   0  0  0  0  0  0  0  0  0  0  0  0
   55.4800   23.0960   44.6210 C   0  0  0  0  0  0  0  0  0  0  0  0
   55.0655   22.2469   44.0577 H   0  0  0  0  0  0  0  0  0  0  0  0
   56.8170   23.0920   45.0190 C   0  0  0  0  0  0  0  0  0  0  0  0
   57.4609   22.2370   44.7652 H   0  0  0  0  0  0  0  0  0  0  0  0
   57.3290   24.1410   45.7200 N   0  0  0  0  0  0  0  0  0  0  0  0
   58.3430   24.1030   45.9600 H   0  0  0  0  0  0  0  0  0  0  0  0
   59.1080   29.0250   47.4840 C   0  0  0  0  0  0  0  0  0  0  0  0
   59.4244   28.5252   48.4114 H   0  0  0  0  0  0  0  0  0  0  0  0
   59.2860   30.4030   47.3450 C   0  0  0  0  0  0  0  0  0  0  0  0
   59.7347   30.9801   48.1670 H   0  0  0  0  0  0  0  0  0  0  0  0
   58.3990   33.2390   45.0150 C   0  0  0  0  0  0  0  0  0  0  0  0
   57.7167   32.7076   44.3352 H   0  0  0  0  0  0  0  0  0  0  0  0
   58.5790   34.6190   44.8790 C   0  0  0  0  0  0  0  0  0  0  0  0
   58.0394   35.1684   44.0935 H   0  0  0  0  0  0  0  0  0  0  0  0
  1  2  1  0
  2  3  2  0
  3  4  1  0
  3  5  1  0
  5  6  1  0
  5  7  2  0
  7  8  1  0
  8  9  2  0
  9 10  1  0
  9 11  1  0
 11 12  1  0
 11 13  2  0
 13 14  1  0
 14 15  2  0
 14 16  1  0
 16 17  2  0
 17 18  1  0
 18 19  1  0
 18 20  2  0
 20 21  1  0
 20 22  1  0
 22 23  1  0
 22 24  2  0
 24 25  1  0
 24 26  1  0
 26 27  1  0
 13 28  1  0
 28 29  1  0
 28 30  2  0
 30 31  1  0
  7 32  1  0
 32 33  1  0
 32 34  2  0
 34 35  1  0
 34  2  1  0
 30  8  1  0
 26 17  1  0
M  CHG  1  19  -1
M  END
>  <UniqueID>  (93) 
80

>  <SMILES>  (93) 
O=C(/N=c1\[nH]cccc1[O-])c1ccc(-c2ccccc2)cc1

>  <Energy>  (93) 
54.002792085599594

>  <Genealogy>  (93) 
O=C(N=c1[nH]cccc1[O-])c1ccc(-c2ccccc2)cc1 (protonated)
O=C(/N=c1\[nH]cccc1[O-])c1ccc(-c2ccccc2)cc1 (cis-trans isomerization)
O=C(/N=c1\[nH]cccc1[O-])c1ccc(-c2ccccc2)cc1 (3D coordinates assigned)
O=C(/N=c1\[nH]cccc1[O-])c1ccc(-c2ccccc2)cc1 (optimized conformer: 54.002792085599594 kcal/mol)

>  <smiles>  (93) 
O=C(N=c1[nH]cccc1O)c1ccc(-c2ccccc2)cc1

>  <score_type>  (93) 
oracle

>  <origin>  (93) 
adg

>  <m_score__min__energy>  (93) 
-11.199999999999999

>  <m_primary>  (93) 
energy

$$$$
93:0
     RDKit          3D

 50 52  0  0  0  0  0  0  0  0999 V2000
   57.8520   29.3590   52.7520 C   0  0  0  0  0  0  0  0  0  0  0  0
   57.3590   30.0490   51.6070 O   0  0  0  0  0  0  0  0  0  0  0  0
   58.1390   30.8620   50.7670 C   0  0  0  0  0  0  0  0  0  0  0  0
   58.7860   30.3480   49.6280 C   0  0  0  0  0  0  0  0  0  0  0  0
   59.5900   31.1690   48.8240 C   0  0  0  0  0  0  0  0  0  0  0  0
   60.3070   30.5690   47.6740 C   0  0  0  0  0  0  0  0  0  0  0  0
   60.9450   31.3210   46.8900 O   0  0  0  0  0  0  0  0  0  0  0  0
   60.3210   29.1540   47.4340 N   0  0  0  0  0  0  0  0  0  0  0  0
   59.3400   28.4070   46.6970 C   0  0  0  0  0  0  0  0  0  0  0  0
   59.6270   27.0870   46.3330 C   0  0  0  0  0  0  0  0  0  0  0  0
   58.6940   26.3350   45.6140 C   0  0  0  0  0  0  0  0  0  0  0  0
   57.4650   26.8970   45.2580 C   0  0  0  0  0  0  0  0  0  0  0  0
   57.1590   28.2140   45.6190 C   0  0  0  0  0  0  0  0  0  0  0  0
   55.8920   28.7630   45.2320 N   0  0  0  0  0  0  0  0  0  0  0  0
   55.6780   29.7190   44.1830 C   0  0  0  0  0  0  0  0  0  0  0  0
   54.6900   29.5940   43.4090 O   0  0  0  0  0  0  0  0  0  0  0  0
   56.6430   30.8230   43.9720 C   0  0  0  0  0  0  0  0  0  0  0  0
   57.0210   31.2070   42.6730 C   0  0  0  0  0  0  0  0  0  0  0  0
   57.9350   32.2490   42.4800 C   0  0  0  0  0  0  0  0  0  0  0  0
   58.4790   32.9160   43.5790 C   0  0  0  0  0  0  0  0  0  0  0  0
   58.1140   32.5440   44.8790 C   0  0  0  0  0  0  0  0  0  0  0  0
   58.6520   33.2010   45.9820 O   0  0  0  0  0  0  0  0  0  0  0  0
   57.2000   31.5030   45.0720 C   0  0  0  0  0  0  0  0  0  0  0  0
   58.1170   28.9800   46.3040 C   0  0  0  0  0  0  0  0  0  0  0  0
   59.7210   32.5380   49.1350 C   0  0  0  0  0  0  0  0  0  0  0  0
   60.4920   33.3570   48.2920 O   0  0  0  0  0  0  0  0  0  0  0  0
   61.8280   33.7680   48.5620 C   0  0  0  0  0  0  0  0  0  0  0  0
   59.0700   33.0510   50.2710 C   0  0  0  0  0  0  0  0  0  0  0  0
   58.2820   32.2230   51.0840 C   0  0  0  0  0  0  0  0  0  0  0  0
   57.6240   32.7840   52.3140 C   0  0  0  0  0  0  0  0  0  0  0  0
   57.4944   29.8595   53.6639 H   0  0  0  0  0  0  0  0  0  0  0  0
   57.4903   28.3202   52.7380 H   0  0  0  0  0  0  0  0  0  0  0  0
   58.9519   29.3645   52.7380 H   0  0  0  0  0  0  0  0  0  0  0  0
   58.6594   29.2875   49.3646 H   0  0  0  0  0  0  0  0  0  0  0  0
   60.5915   26.6390   46.6141 H   0  0  0  0  0  0  0  0  0  0  0  0
   58.9274   25.2989   45.3277 H   0  0  0  0  0  0  0  0  0  0  0  0
   56.7345   26.3012   44.6912 H   0  0  0  0  0  0  0  0  0  0  0  0
   56.5956   30.6850   41.8032 H   0  0  0  0  0  0  0  0  0  0  0  0
   58.2253   32.5430   41.4605 H   0  0  0  0  0  0  0  0  0  0  0  0
   59.1960   33.7356   43.4237 H   0  0  0  0  0  0  0  0  0  0  0  0
   59.4240   32.8070   46.5090 H   0  0  0  0  0  0  0  0  0  0  0  0
   56.9134   31.2126   46.0935 H   0  0  0  0  0  0  0  0  0  0  0  0
   57.9092   30.0353   46.5346 H   0  0  0  0  0  0  0  0  0  0  0  0
   61.9841   33.8160   49.6498 H   0  0  0  0  0  0  0  0  0  0  0  0
   62.5302   33.0443   48.1224 H   0  0  0  0  0  0  0  0  0  0  0  0
   62.0020   34.7612   48.1224 H   0  0  0  0  0  0  0  0  0  0  0  0
   59.1802   34.1155   50.5254 H   0  0  0  0  0  0  0  0  0  0  0  0
   58.1092   32.3704   53.2104 H   0  0  0  0  0  0  0  0  0  0  0  0
   57.7234   33.8795   52.3157 H   0  0  0  0  0  0  0  0  0  0  0  0
   56.5580   32.5126   52.3157 H   0  0  0  0  0  0  0  0  0  0  0  0
  1  2  1  0
  2  3  1  0
  3  4  2  0
  4  5  1  0
  5  6  1  0
  6  7  2  0
  6  8  1  0
  8  9  1  0
  9 10  2  0
 10 11  1  0
 11 12  2  0
 12 13  1  0
 13 14  1  0
 14 15  1  0
 15 16  2  0
 15 17  1  0
 17 18  2  0
 18 19  1  0
 19 20  2  0
 20 21  1  0
 21 22  1  0
 21 23  2  0
 13 24  2  0
  5 25  2  0
 25 26  1  0
 26 27  1  0
 25 28  1  0
 28 29  2  0
 29 30  1  0
 29  3  1  0
 24  9  1  0
 23 17  1  0
  1 31  1  0
  1 32  1  0
  1 33  1  0
  4 34  1  0
 10 35  1  0
 11 36  1  0
 12 37  1  0
 18 38  1  0
 19 39  1  0
 20 40  1  0
 22 41  1  0
 23 42  1  0
 24 43  1  0
 27 44  1  0
 27 45  1  0
 27 46  1  0
 28 47  1  0
 30 48  1  0
 30 49  1  0
 30 50  1  0
M  CHG  2   8  -1  14  -1
M  END
>  <UniqueID>  (94) 
81

>  <SMILES>  (94) 
COc1cc(C(=O)[N-]c2cccc([N-]C(=O)c3cccc(O)c3)c2)c(OC)cc1C

>  <Energy>  (94) 
60.79443443846228

>  <Genealogy>  (94) 
COc1cc(C(=O)[N-]c2cccc([N-]C(=O)c3cccc(O)c3)c2)c(OC)cc1C (protonated)
COc1cc(C(=O)[N-]c2cccc([N-]C(=O)c3cccc(O)c3)c2)c(OC)cc1C (3D coordinates assigned)
COc1cc(C(=O)[N-]c2cccc([N-]C(=O)c3cccc(O)c3)c2)c(OC)cc1C (optimized conformer: 60.79443443846228 kcal/mol)

>  <smiles>  (94) 
COc1cc(C(=O)Nc2cccc(NC(=O)c3cccc(O)c3)c2)c(OC)cc1C

>  <score_type>  (94) 
oracle

>  <origin>  (94) 
adg

>  <m_score__min__energy>  (94) 
-12.25

>  <m_primary>  (94) 
energy

$$$$
94:0
     RDKit          3D

 36 38  0  0  0  0  0  0  0  0999 V2000
   56.9450   24.6650   46.8560 C   0  0  0  0  0  0  0  0  0  0  0  0
   57.4190   25.9750   46.3820 N   0  0  0  0  0  0  0  0  0  0  0  0
   56.5120   26.9240   45.9680 C   0  0  0  0  0  0  0  0  0  0  0  0
   55.2700   26.7080   45.9960 O   0  0  0  0  0  0  0  0  0  0  0  0
   56.9950   28.1380   45.5110 C   0  0  0  0  0  0  0  0  0  0  0  0
   56.3100   29.2030   45.0700 N   0  0  0  0  0  0  0  0  0  0  0  0
   57.3060   30.0750   44.7590 C   0  0  0  0  0  0  0  0  0  0  0  0
   57.0420   31.4120   44.1380 C   0  0  0  0  0  0  0  0  0  0  0  0
   56.6520   32.4540   45.1950 C   0  0  0  0  0  0  0  0  0  0  0  0
   57.8560   33.1970   45.7180 C   0  0  0  0  0  0  0  0  0  0  0  0
   58.3830   32.8900   46.9830 C   0  0  0  0  0  0  0  0  0  0  0  0
   59.4740   33.6060   47.4850 C   0  0  0  0  0  0  0  0  0  0  0  0
   60.0380   34.6400   46.7330 C   0  0  0  0  0  0  0  0  0  0  0  0
   59.5130   34.9590   45.4770 C   0  0  0  0  0  0  0  0  0  0  0  0
   58.4240   34.2430   44.9710 C   0  0  0  0  0  0  0  0  0  0  0  0
   58.5620   29.5980   44.9660 N   0  0  0  0  0  0  0  0  0  0  0  0
   58.3220   28.3690   45.4500 C   0  0  0  0  0  0  0  0  0  0  0  0
   59.2420   27.4320   45.8080 N   0  0  0  0  0  0  0  0  0  0  0  0
   60.6800   27.7230   45.7420 C   0  0  0  0  0  0  0  0  0  0  0  0
   58.7790   26.2250   46.2890 C   0  0  0  0  0  0  0  0  0  0  0  0
   59.6070   25.3400   46.6460 O   0  0  0  0  0  0  0  0  0  0  0  0
   56.9406   24.6527   47.9559 H   0  0  0  0  0  0  0  0  0  0  0  0
   55.9255   24.4871   46.4832 H   0  0  0  0  0  0  0  0  0  0  0  0
   57.6146   23.8759   46.4832 H   0  0  0  0  0  0  0  0  0  0  0  0
   57.9508   31.7513   43.6194 H   0  0  0  0  0  0  0  0  0  0  0  0
   56.2055   31.3061   43.4316 H   0  0  0  0  0  0  0  0  0  0  0  0
   55.9560   33.1763   44.7435 H   0  0  0  0  0  0  0  0  0  0  0  0
   56.1818   31.9270   46.0383 H   0  0  0  0  0  0  0  0  0  0  0  0
   57.9355   32.0828   47.5815 H   0  0  0  0  0  0  0  0  0  0  0  0
   59.8886   33.3552   48.4725 H   0  0  0  0  0  0  0  0  0  0  0  0
   60.8956   35.2034   47.1295 H   0  0  0  0  0  0  0  0  0  0  0  0
   59.9571   35.7739   44.8865 H   0  0  0  0  0  0  0  0  0  0  0  0
   58.0103   34.4994   43.9845 H   0  0  0  0  0  0  0  0  0  0  0  0
   61.0847   27.8049   46.7616 H   0  0  0  0  0  0  0  0  0  0  0  0
   61.1943   26.9107   45.2075 H   0  0  0  0  0  0  0  0  0  0  0  0
   60.8380   28.6713   45.2075 H   0  0  0  0  0  0  0  0  0  0  0  0
  1  2  1  0
  2  3  1  0
  3  4  2  0
  3  5  1  0
  5  6  1  0
  6  7  1  0
  7  8  1  0
  8  9  1  0
  9 10  1  0
 10 11  2  0
 11 12  1  0
 12 13  2  0
 13 14  1  0
 14 15  2  0
  7 16  2  0
 16 17  1  0
 17 18  1  0
 18 19  1  0
 18 20  1  0
 20 21  2  0
 20  2  1  0
 17  5  2  0
 15 10  1  0
  1 22  1  0
  1 23  1  0
  1 24  1  0
  8 25  1  0
  8 26  1  0
  9 27  1  0
  9 28  1  0
 11 29  1  0
 12 30  1  0
 13 31  1  0
 14 32  1  0
 15 33  1  0
 19 34  1  0
 19 35  1  0
 19 36  1  0
M  CHG  1   6  -1
M  END
>  <UniqueID>  (95) 
82

>  <SMILES>  (95) 
Cn1c(=O)c2[n-]c(CCc3ccccc3)nc2n(C)c1=O

>  <Energy>  (95) 
75.93316287911334

>  <Genealogy>  (95) 
Cn1c(=O)c2[n-]c(CCc3ccccc3)nc2n(C)c1=O (protonated)
Cn1c(=O)c2[n-]c(CCc3ccccc3)nc2n(C)c1=O (3D coordinates assigned)
Cn1c(=O)c2[n-]c(CCc3ccccc3)nc2n(C)c1=O (optimized conformer: 75.93316287911334 kcal/mol)

>  <smiles>  (95) 
Cn1c(=O)c2[nH]c(CCc3ccccc3)nc2n(C)c1=O

>  <score_type>  (95) 
oracle

>  <origin>  (95) 
adg

>  <m_score__min__energy>  (95) 
-9.3100000000000005

>  <m_primary>  (95) 
energy

$$$$
95:0
     RDKit          3D

 37 40  0  0  0  0  0  0  0  0999 V2000
   58.2760   21.1190   43.1420 N   0  0  0  0  0  0  0  0  0  0  0  0
   56.6390   21.3850   43.6300 S   0  0  0  0  0  0  0  0  0  0  0  0
   55.9140   20.0690   43.6770 O   0  0  0  0  0  0  0  0  0  0  0  0
   55.9540   22.2780   42.6340 O   0  0  0  0  0  0  0  0  0  0  0  0
   56.6160   22.1480   45.2170 C   0  0  0  0  0  0  0  0  0  0  0  0
   56.9110   21.4100   46.3710 C   0  0  0  0  0  0  0  0  0  0  0  0
   56.9060   22.0330   47.6220 C   0  0  0  0  0  0  0  0  0  0  0  0
   56.6290   23.3990   47.7260 C   0  0  0  0  0  0  0  0  0  0  0  0
   56.3770   24.1520   46.5740 C   0  0  0  0  0  0  0  0  0  0  0  0
   56.0510   25.5420   46.6950 N   0  0  0  0  0  0  0  0  0  0  0  0
   56.6560   26.5720   46.1690 C   0  0  0  0  0  0  0  0  0  0  0  0
   55.8820   27.5520   45.6240 N   0  0  0  0  0  0  0  0  0  0  0  0
   56.4070   28.6420   44.9970 C   0  0  0  0  0  0  0  0  0  0  0  0
   55.5630   29.6090   44.4430 C   0  0  0  0  0  0  0  0  0  0  0  0
   56.1060   30.7210   43.7940 C   0  0  0  0  0  0  0  0  0  0  0  0
   57.4940   30.8710   43.6950 C   0  0  0  0  0  0  0  0  0  0  0  0
   58.1650   32.2710   42.8760 Cl  0  0  0  0  0  0  0  0  0  0  0  0
   58.3470   29.9090   44.2490 C   0  0  0  0  0  0  0  0  0  0  0  0
   57.8100   28.7860   44.9040 C   0  0  0  0  0  0  0  0  0  0  0  0
   58.5840   27.8230   45.4840 N   0  0  0  0  0  0  0  0  0  0  0  0
   59.9250   27.7690   45.6210 C   0  0  0  0  0  0  0  0  0  0  0  0
   60.2670   26.6650   46.3740 C   0  0  0  0  0  0  0  0  0  0  0  0
   59.0880   26.0210   46.7090 C   0  0  0  0  0  0  0  0  0  0  0  0
   58.0630   26.7490   46.1180 C   0  0  0  0  0  0  0  0  0  0  0  0
   56.3340   23.5160   45.3240 C   0  0  0  0  0  0  0  0  0  0  0  0
   58.2660   20.3210   42.4680 H   0  0  0  0  0  0  0  0  0  0  0  0
   58.7970   20.7920   43.9860 H   0  0  0  0  0  0  0  0  0  0  0  0
   57.1469   20.3385   46.2921 H   0  0  0  0  0  0  0  0  0  0  0  0
   57.1207   21.4465   48.5275 H   0  0  0  0  0  0  0  0  0  0  0  0
   56.6091   23.8823   48.7140 H   0  0  0  0  0  0  0  0  0  0  0  0
   54.4715   29.4945   44.5180 H   0  0  0  0  0  0  0  0  0  0  0  0
   55.4402   31.4812   43.3594 H   0  0  0  0  0  0  0  0  0  0  0  0
   59.4375   30.0314   44.1720 H   0  0  0  0  0  0  0  0  0  0  0  0
   60.6361   28.4936   45.1975 H   0  0  0  0  0  0  0  0  0  0  0  0
   61.2842   26.3549   46.6552 H   0  0  0  0  0  0  0  0  0  0  0  0
   58.9837   25.1132   47.3214 H   0  0  0  0  0  0  0  0  0  0  0  0
   56.0777   24.0942   44.4240 H   0  0  0  0  0  0  0  0  0  0  0  0
  1  2  1  0
  2  3  2  0
  2  4  2  0
  2  5  1  0
  5  6  2  0
  6  7  1  0
  7  8  2  0
  8  9  1  0
  9 10  1  0
 10 11  2  3
 11 12  1  0
 12 13  1  0
 13 14  2  0
 14 15  1  0
 15 16  2  0
 16 17  1  0
 16 18  1  0
 18 19  2  0
 19 20  1  0
 20 21  1  0
 21 22  2  0
 22 23  1  0
 23 24  2  0
  9 25  2  0
 25  5  1  0
 24 11  1  0
 19 13  1  0
 24 20  1  0
  1 26  1  0
  1 27  1  0
  6 28  1  0
  7 29  1  0
  8 30  1  0
 14 31  1  0
 15 32  1  0
 18 33  1  0
 21 34  1  0
 22 35  1  0
 23 36  1  0
 25 37  1  0
M  CHG  1  12  -1
M  END
>  <UniqueID>  (96) 
83

>  <SMILES>  (96) 
NS(=O)(=O)c1cccc(N=c2[n-]c3ccc(Cl)cc3n3cccc23)c1

>  <Energy>  (96) 
90.24404698693893

>  <Genealogy>  (96) 
NS(=O)(=O)c1cccc(N=c2[n-]c3ccc(Cl)cc3n3cccc23)c1 (protonated)
NS(=O)(=O)c1cccc(N=c2[n-]c3ccc(Cl)cc3n3cccc23)c1 (3D coordinates assigned)
NS(=O)(=O)c1cccc(N=c2[n-]c3ccc(Cl)cc3n3cccc23)c1 (optimized conformer: 90.24404698693893 kcal/mol)

>  <smiles>  (96) 
NS(=O)(=O)c1cccc(N=c2[nH]c3ccc(Cl)cc3n3cccc23)c1

>  <score_type>  (96) 
oracle

>  <origin>  (96) 
adg

>  <m_score__min__energy>  (96) 
-10.94

>  <m_primary>  (96) 
energy

$$$$
96:0
     RDKit          3D

 33 34  0  0  0  0  0  0  0  0999 V2000
   58.2670   21.4800   43.3700 C   0  0  0  0  0  0  0  0  0  0  0  0
   56.5540   21.7370   43.7760 S   0  0  0  0  0  0  0  0  0  0  0  0
   55.8490   22.4480   42.6540 O   0  0  0  0  0  0  0  0  0  0  0  0
   55.9020   20.3990   43.9830 O   0  0  0  0  0  0  0  0  0  0  0  0
   56.4170   22.6550   45.2410 N   0  0  0  0  0  0  0  0  0  0  0  0
   56.9560   23.9650   45.4640 C   0  0  0  0  0  0  0  0  0  0  0  0
   58.3280   24.0870   45.7160 C   0  0  0  0  0  0  0  0  0  0  0  0
   58.8960   25.3410   45.9500 C   0  0  0  0  0  0  0  0  0  0  0  0
   58.1000   26.4890   45.9240 C   0  0  0  0  0  0  0  0  0  0  0  0
   56.7250   26.3870   45.6510 C   0  0  0  0  0  0  0  0  0  0  0  0
   55.8650   27.5370   45.6380 N   0  0  0  0  0  0  0  0  0  0  0  0
   56.2010   28.8480   45.1710 C   0  0  0  0  0  0  0  0  0  0  0  0
   55.3010   29.6560   44.8130 O   0  0  0  0  0  0  0  0  0  0  0  0
   57.5760   29.2400   45.1350 N   0  0  0  0  0  0  0  0  0  0  0  0
   58.0300   30.5980   45.2100 C   0  0  0  0  0  0  0  0  0  0  0  0
   58.6250   31.0570   46.3990 C   0  0  0  0  0  0  0  0  0  0  0  0
   58.8410   29.9790   47.7720 Cl  0  0  0  0  0  0  0  0  0  0  0  0
   59.0730   32.3780   46.4960 C   0  0  0  0  0  0  0  0  0  0  0  0
   58.9170   33.2530   45.4210 C   0  0  0  0  0  0  0  0  0  0  0  0
   58.2990   32.8170   44.2480 C   0  0  0  0  0  0  0  0  0  0  0  0
   57.8450   31.4970   44.1370 C   0  0  0  0  0  0  0  0  0  0  0  0
   56.9740   31.0350   42.6790 Cl  0  0  0  0  0  0  0  0  0  0  0  0
   56.1570   25.1230   45.4430 C   0  0  0  0  0  0  0  0  0  0  0  0
   58.8541   21.3919   44.2961 H   0  0  0  0  0  0  0  0  0  0  0  0
   58.3698   20.5564   42.7815 H   0  0  0  0  0  0  0  0  0  0  0  0
   58.6363   22.3328   42.7815 H   0  0  0  0  0  0  0  0  0  0  0  0
   58.9628   23.1887   45.7297 H   0  0  0  0  0  0  0  0  0  0  0  0
   59.9734   25.4253   46.1554 H   0  0  0  0  0  0  0  0  0  0  0  0
   58.5500   27.4739   46.1174 H   0  0  0  0  0  0  0  0  0  0  0  0
   59.5501   32.7283   47.4232 H   0  0  0  0  0  0  0  0  0  0  0  0
   59.2815   34.2880   45.4978 H   0  0  0  0  0  0  0  0  0  0  0  0
   58.1680   33.5135   43.4068 H   0  0  0  0  0  0  0  0  0  0  0  0
   55.0756   25.0352   45.2615 H   0  0  0  0  0  0  0  0  0  0  0  0
  1  2  1  0
  2  3  2  0
  2  4  2  0
  2  5  1  0
  5  6  1  0
  6  7  2  0
  7  8  1  0
  8  9  2  0
  9 10  1  0
 10 11  1  0
 11 12  1  0
 12 13  2  0
 12 14  1  0
 14 15  1  0
 15 16  2  0
 16 17  1  0
 16 18  1  0
 18 19  2  0
 19 20  1  0
 20 21  2  0
 21 22  1  0
 10 23  2  0
 23  6  1  0
 21 15  1  0
  1 24  1  0
  1 25  1  0
  1 26  1  0
  7 27  1  0
  8 28  1  0
  9 29  1  0
 18 30  1  0
 19 31  1  0
 20 32  1  0
 23 33  1  0
M  CHG  3   5  -1  11  -1  14  -1
M  END
>  <UniqueID>  (97) 
84

>  <SMILES>  (97) 
CS(=O)(=O)[N-]c1cccc([N-]C(=O)[N-]c2c(Cl)cccc2Cl)c1

>  <Energy>  (97) 
43.4968325250713

>  <Genealogy>  (97) 
CS(=O)(=O)[N-]c1cccc([N-]C(=O)[N-]c2c(Cl)cccc2Cl)c1 (protonated)
CS(=O)(=O)[N-]c1cccc([N-]C(=O)[N-]c2c(Cl)cccc2Cl)c1 (3D coordinates assigned)
CS(=O)(=O)[N-]c1cccc([N-]C(=O)[N-]c2c(Cl)cccc2Cl)c1 (optimized conformer: 43.4968325250713 kcal/mol)

>  <smiles>  (97) 
CS(=O)(=O)Nc1cccc(NC(=O)Nc2c(Cl)cccc2Cl)c1

>  <score_type>  (97) 
oracle

>  <origin>  (97) 
adg

>  <m_score__min__energy>  (97) 
-12.44

>  <m_primary>  (97) 
energy

$$$$
