0:0
     RDKit          3D

 55 58  0  0  0  0  0  0  0  0999 V2000
   61.5340   30.5380   53.0280 C   0  0  0  0  0  0  0  0  0  0  0  0
   60.5620   31.5580   52.4920 C   0  0  0  0  0  0  0  0  0  0  0  0
   59.7500   32.1990   53.4440 C   0  0  0  0  0  0  0  0  0  0  0  0
   59.0330   33.3430   53.1180 C   0  0  0  0  0  0  0  0  0  0  0  0
   59.1460   33.8920   51.8480 C   0  0  0  0  0  0  0  0  0  0  0  0
   59.9130   33.2510   50.8580 C   0  0  0  0  0  0  0  0  0  0  0  0
   60.0680   33.8310   49.5940 C   0  0  0  0  0  0  0  0  0  0  0  0
   59.5340   34.9510   49.3510 O   0  0  0  0  0  0  0  0  0  0  0  0
   60.8120   33.2050   48.6340 N   0  0  0  0  0  0  0  0  0  0  0  0
   61.0110   33.8500   47.3160 C   0  0  0  0  0  0  0  0  0  0  0  0
   59.7570   33.7560   46.4820 C   0  0  0  0  0  0  0  0  0  0  0  0
   59.4860   34.7170   45.4940 C   0  0  0  0  0  0  0  0  0  0  0  0
   58.3100   34.6430   44.7410 C   0  0  0  0  0  0  0  0  0  0  0  0
   57.3940   33.6140   44.9700 C   0  0  0  0  0  0  0  0  0  0  0  0
   57.6550   32.6530   45.9510 C   0  0  0  0  0  0  0  0  0  0  0  0
   58.8300   32.7230   46.7050 C   0  0  0  0  0  0  0  0  0  0  0  0
   61.3080   31.9470   48.8660 C   0  0  0  0  0  0  0  0  0  0  0  0
   61.9690   31.3700   47.9540 O   0  0  0  0  0  0  0  0  0  0  0  0
   61.0900   31.3040   50.0650 N   0  0  0  0  0  0  0  0  0  0  0  0
   61.2720   29.8260   50.0960 C   0  0  0  0  0  0  0  0  0  0  0  0
   60.3240   29.1150   49.1680 C   0  0  0  0  0  0  0  0  0  0  0  0
   59.2760   28.5800   49.6280 O   0  0  0  0  0  0  0  0  0  0  0  0
   60.5950   29.0940   47.7580 N   0  0  0  0  0  0  0  0  0  0  0  0
   59.6260   28.7670   46.7460 C   0  0  0  0  0  0  0  0  0  0  0  0
   59.4540   29.6310   45.6530 C   0  0  0  0  0  0  0  0  0  0  0  0
   58.4980   29.3530   44.6730 C   0  0  0  0  0  0  0  0  0  0  0  0
   57.6940   28.2150   44.7820 C   0  0  0  0  0  0  0  0  0  0  0  0
   57.8350   27.3560   45.8790 C   0  0  0  0  0  0  0  0  0  0  0  0
   56.8200   25.9200   46.0100 S   0  0  0  0  0  0  0  0  0  0  0  0
   55.1580   26.3990   46.0230 N   0  0  0  0  0  0  0  0  0  0  0  0
   57.0690   25.0050   44.8430 O   0  0  0  0  0  0  0  0  0  0  0  0
   57.1450   25.1810   47.2800 O   0  0  0  0  0  0  0  0  0  0  0  0
   58.7950   27.6350   46.8620 C   0  0  0  0  0  0  0  0  0  0  0  0
   60.5450   32.0110   51.1280 C   0  0  0  0  0  0  0  0  0  0  0  0
   61.5160   30.5569   54.1277 H   0  0  0  0  0  0  0  0  0  0  0  0
   61.2474   29.5368   52.6737 H   0  0  0  0  0  0  0  0  0  0  0  0
   62.5478   30.7760   52.6737 H   0  0  0  0  0  0  0  0  0  0  0  0
   59.6815   31.7884   54.4622 H   0  0  0  0  0  0  0  0  0  0  0  0
   58.3766   33.8133   53.8650 H   0  0  0  0  0  0  0  0  0  0  0  0
   58.6317   34.8358   51.6138 H   0  0  0  0  0  0  0  0  0  0  0  0
   61.2657   34.9094   47.4671 H   0  0  0  0  0  0  0  0  0  0  0  0
   61.8263   33.3332   46.7886 H   0  0  0  0  0  0  0  0  0  0  0  0
   60.2023   35.5317   45.3117 H   0  0  0  0  0  0  0  0  0  0  0  0
   58.1060   35.3970   43.9665 H   0  0  0  0  0  0  0  0  0  0  0  0
   56.4679   33.5598   44.3789 H   0  0  0  0  0  0  0  0  0  0  0  0
   56.9350   31.8408   46.1298 H   0  0  0  0  0  0  0  0  0  0  0  0
   59.0304   31.9656   47.4771 H   0  0  0  0  0  0  0  0  0  0  0  0
   62.3039   29.5901   49.7966 H   0  0  0  0  0  0  0  0  0  0  0  0
   61.0626   29.4822   51.1197 H   0  0  0  0  0  0  0  0  0  0  0  0
   61.5750   29.2880   47.4490 H   0  0  0  0  0  0  0  0  0  0  0  0
   60.0767   30.5337   45.5676 H   0  0  0  0  0  0  0  0  0  0  0  0
   58.3779   30.0304   43.8147 H   0  0  0  0  0  0  0  0  0  0  0  0
   56.9485   27.9935   44.0041 H   0  0  0  0  0  0  0  0  0  0  0  0
   55.1400   27.4440   46.0020 H   0  0  0  0  0  0  0  0  0  0  0  0
   58.9001   26.9662   47.7290 H   0  0  0  0  0  0  0  0  0  0  0  0
  1  2  1  0
  2  3  2  0
  3  4  1  0
  4  5  2  0
  5  6  1  0
  6  7  1  0
  7  8  2  0
  7  9  1  0
  9 10  1  0
 10 11  1  0
 11 12  2  0
 12 13  1  0
 13 14  2  0
 14 15  1  0
 15 16  2  0
  9 17  1  0
 17 18  2  0
 17 19  1  0
 19 20  1  0
 20 21  1  0
 21 22  2  0
 21 23  1  0
 23 24  1  0
 24 25  2  0
 25 26  1  0
 26 27  2  0
 27 28  1  0
 28 29  1  0
 29 30  1  0
 29 31  2  0
 29 32  2  0
 28 33  2  0
 19 34  1  0
 34  2  1  0
 34  6  2  0
 16 11  1  0
 33 24  1  0
  1 35  1  0
  1 36  1  0
  1 37  1  0
  3 38  1  0
  4 39  1  0
  5 40  1  0
 10 41  1  0
 10 42  1  0
 12 43  1  0
 13 44  1  0
 14 45  1  0
 15 46  1  0
 16 47  1  0
 20 48  1  0
 20 49  1  0
 23 50  1  0
 25 51  1  0
 26 52  1  0
 27 53  1  0
 30 54  1  0
 33 55  1  0
M  CHG  1  30  -1
M  END
>  <UniqueID>  (1) 
1

>  <SMILES>  (1) 
Cc1cccc2c(=O)n(Cc3ccccc3)c(=O)n(CC(=O)Nc3cccc(S([NH-])(=O)=O)c3)c12

>  <Energy>  (1) 
92.71550241359844

>  <Genealogy>  (1) 
Cc1cccc2c(=O)n(Cc3ccccc3)c(=O)n(CC(=O)Nc3cccc(S([NH-])(=O)=O)c3)c12 (protonated)
Cc1cccc2c(=O)n(Cc3ccccc3)c(=O)n(CC(=O)Nc3cccc(S([NH-])(=O)=O)c3)c12 (3D coordinates assigned)
Cc1cccc2c(=O)n(Cc3ccccc3)c(=O)n(CC(=O)Nc3cccc(S([NH-])(=O)=O)c3)c12 (optimized conformer: 92.71550241359844 kcal/mol)

>  <smiles>  (1) 
Cc1cccc2c(=O)n(Cc3ccccc3)c(=O)n(CC(=O)Nc3cccc(S(N)(=O)=O)c3)c12

>  <score_type>  (1) 
oracle

>  <origin>  (1) 
adg

>  <m_score__min__energy>  (1) 
-12.609999999999999

>  <m_primary>  (1) 
energy

$$$$
1:0
     RDKit          3D

 32 34  0  0  0  0  0  0  0  0999 V2000
   59.8170   33.7210   50.8260 O   0  0  0  0  0  0  0  0  0  0  0  0
   59.4860   33.4620   49.6390 C   0  0  0  0  0  0  0  0  0  0  0  0
   58.5110   32.3590   49.3600 C   0  0  0  0  0  0  0  0  0  0  0  0
   59.1020   31.4030   47.9340 S   0  0  0  0  0  0  0  0  0  0  0  0
   59.0400   32.8110   46.8100 C   0  0  0  0  0  0  0  0  0  0  0  0
   59.6060   34.0410   47.2030 C   0  0  0  0  0  0  0  0  0  0  0  0
   59.6970   35.0890   46.2780 C   0  0  0  0  0  0  0  0  0  0  0  0
   59.1970   34.9310   44.9830 C   0  0  0  0  0  0  0  0  0  0  0  0
   58.5900   33.7310   44.6080 C   0  0  0  0  0  0  0  0  0  0  0  0
   58.4980   32.6700   45.5180 C   0  0  0  0  0  0  0  0  0  0  0  0
   57.8840   31.4390   45.1150 N   0  0  0  0  0  0  0  0  0  0  0  0
   58.6210   30.1800   45.2510 C   0  0  0  0  0  0  0  0  0  0  0  0
   57.6740   29.0110   45.6030 C   0  0  0  0  0  0  0  0  0  0  0  0
   56.2680   29.2370   45.2180 N   0  0  0  0  0  0  0  0  0  0  0  0
   56.1460   30.0750   44.0210 C   0  0  0  0  0  0  0  0  0  0  0  0
   56.6620   31.4890   44.3070 C   0  0  0  0  0  0  0  0  0  0  0  0
   60.0100   34.2550   48.5650 N   0  0  0  0  0  0  0  0  0  0  0  0
   58.4341   31.7023   50.2391 H   0  0  0  0  0  0  0  0  0  0  0  0
   57.5197   32.7827   49.1412 H   0  0  0  0  0  0  0  0  0  0  0  0
   60.1641   36.0404   46.5725 H   0  0  0  0  0  0  0  0  0  0  0  0
   59.2817   35.7536   44.2576 H   0  0  0  0  0  0  0  0  0  0  0  0
   58.1819   33.6181   43.5928 H   0  0  0  0  0  0  0  0  0  0  0  0
   59.1279   29.9569   44.3006 H   0  0  0  0  0  0  0  0  0  0  0  0
   59.3524   30.2918   46.0649 H   0  0  0  0  0  0  0  0  0  0  0  0
   58.0327   28.1085   45.0864 H   0  0  0  0  0  0  0  0  0  0  0  0
   57.6901   28.9089   46.6981 H   0  0  0  0  0  0  0  0  0  0  0  0
   55.7720   29.7130   46.0110 H   0  0  0  0  0  0  0  0  0  0  0  0
   56.7363   29.6313   43.2057 H   0  0  0  0  0  0  0  0  0  0  0  0
   55.0865   30.1326   43.7310 H   0  0  0  0  0  0  0  0  0  0  0  0
   56.8791   31.9941   43.3543 H   0  0  0  0  0  0  0  0  0  0  0  0
   55.8911   32.0418   44.8640 H   0  0  0  0  0  0  0  0  0  0  0  0
   60.6080   35.0790   48.7980 H   0  0  0  0  0  0  0  0  0  0  0  0
  1  2  2  0
  2  3  1  0
  3  4  1  0
  4  5  1  0
  5  6  2  0
  6  7  1  0
  7  8  2  0
  8  9  1  0
  9 10  2  0
 10 11  1  0
 11 12  1  0
 12 13  1  0
 13 14  1  0
 14 15  1  0
 15 16  1  0
  6 17  1  0
 17  2  1  0
 10  5  1  0
 16 11  1  0
  3 18  1  0
  3 19  1  0
  7 20  1  0
  8 21  1  0
  9 22  1  0
 12 23  1  0
 12 24  1  0
 13 25  1  0
 13 26  1  0
 14 27  1  0
 15 28  1  0
 15 29  1  0
 16 30  1  0
 16 31  1  0
 17 32  1  0
M  END
>  <UniqueID>  (2) 
2

>  <SMILES>  (2) 
O=C1CSc2c(cccc2N2CCNCC2)N1

>  <Energy>  (2) 
45.67490752449748

>  <Genealogy>  (2) 
O=C1CSc2c(cccc2N2CCNCC2)N1 (3D coordinates assigned)
O=C1CSc2c(cccc2N2CCNCC2)N1 (nonaromatic ring conformer: 45.67490752449748 kcal/mol)

>  <smiles>  (2) 
O=C1CSc2c(cccc2N2CCNCC2)N1

>  <score_type>  (2) 
oracle

>  <origin>  (2) 
adg

>  <m_score__min__energy>  (2) 
-6.8499999999999996

>  <m_primary>  (2) 
energy

$$$$
2:0
     RDKit          3D

 31 33  0  0  0  0  0  0  0  0999 V2000
   59.7160   33.8110   49.9160 C   0  0  0  0  0  0  0  0  0  0  0  0
   60.0750   33.1740   48.6940 O   0  0  0  0  0  0  0  0  0  0  0  0
   59.5030   33.4730   47.4480 C   0  0  0  0  0  0  0  0  0  0  0  0
   59.9600   34.6030   46.7590 C   0  0  0  0  0  0  0  0  0  0  0  0
   59.4200   34.9400   45.5160 C   0  0  0  0  0  0  0  0  0  0  0  0
   58.4080   34.1580   44.9550 C   0  0  0  0  0  0  0  0  0  0  0  0
   57.9210   33.0370   45.6370 C   0  0  0  0  0  0  0  0  0  0  0  0
   56.8820   32.2540   45.0300 N   0  0  0  0  0  0  0  0  0  0  0  0
   57.0630   31.0770   44.2300 C   0  0  0  0  0  0  0  0  0  0  0  0
   56.8150   31.1450   42.9960 O   0  0  0  0  0  0  0  0  0  0  0  0
   57.4730   29.7820   44.8200 C   0  0  0  0  0  0  0  0  0  0  0  0
   58.8480   29.5190   45.0700 C   0  0  0  0  0  0  0  0  0  0  0  0
   59.2600   28.2890   45.6140 C   0  0  0  0  0  0  0  0  0  0  0  0
   58.2770   27.3480   45.9050 C   0  0  0  0  0  0  0  0  0  0  0  0
   58.4440   26.1220   46.4210 N   0  0  0  0  0  0  0  0  0  0  0  0
   57.1700   25.6560   46.4900 C   0  0  0  0  0  0  0  0  0  0  0  0
   56.2270   26.5260   46.0450 N   0  0  0  0  0  0  0  0  0  0  0  0
   56.9590   27.5900   45.6820 C   0  0  0  0  0  0  0  0  0  0  0  0
   56.5080   28.7930   45.1420 C   0  0  0  0  0  0  0  0  0  0  0  0
   55.1510   28.9950   44.9140 O   0  0  0  0  0  0  0  0  0  0  0  0
   58.4910   32.6800   46.8730 C   0  0  0  0  0  0  0  0  0  0  0  0
   60.0605   33.1997   50.7631 H   0  0  0  0  0  0  0  0  0  0  0  0
   60.1875   34.8036   49.9644 H   0  0  0  0  0  0  0  0  0  0  0  0
   58.6227   33.9217   49.9644 H   0  0  0  0  0  0  0  0  0  0  0  0
   60.7496   35.2294   47.1997 H   0  0  0  0  0  0  0  0  0  0  0  0
   59.7927   35.8237   44.9774 H   0  0  0  0  0  0  0  0  0  0  0  0
   57.9916   34.4244   43.9723 H   0  0  0  0  0  0  0  0  0  0  0  0
   59.5992   30.2874   44.8349 H   0  0  0  0  0  0  0  0  0  0  0  0
   60.3229   28.0782   45.8029 H   0  0  0  0  0  0  0  0  0  0  0  0
   56.9224   24.6557   46.8749 H   0  0  0  0  0  0  0  0  0  0  0  0
   58.1438   31.7754   47.3937 H   0  0  0  0  0  0  0  0  0  0  0  0
  1  2  1  0
  2  3  1  0
  3  4  2  0
  4  5  1  0
  5  6  2  0
  6  7  1  0
  7  8  1  0
  8  9  1  0
  9 10  2  0
  9 11  1  0
 11 12  2  0
 12 13  1  0
 13 14  2  0
 14 15  1  0
 15 16  1  0
 16 17  2  0
 17 18  1  0
 18 19  2  0
 19 20  1  0
  7 21  2  0
 21  3  1  0
 19 11  1  0
 18 14  1  0
  1 22  1  0
  1 23  1  0
  1 24  1  0
  4 25  1  0
  5 26  1  0
  6 27  1  0
 12 28  1  0
 13 29  1  0
 16 30  1  0
 21 31  1  0
M  CHG  3   8  -1  15  -1  20  -1
M  END
>  <UniqueID>  (3) 
3

>  <SMILES>  (3) 
COc1cccc([N-]C(=O)c2ccc3[n-]cnc3c2[O-])c1

>  <Energy>  (3) 
75.22945962581282

>  <Genealogy>  (3) 
COc1cccc([N-]C(=O)c2ccc3[n-]cnc3c2[O-])c1 (protonated)
COc1cccc([N-]C(=O)c2ccc3[n-]cnc3c2[O-])c1 (3D coordinates assigned)
COc1cccc([N-]C(=O)c2ccc3[n-]cnc3c2[O-])c1 (optimized conformer: 75.22945962581282 kcal/mol)

>  <smiles>  (3) 
COc1cccc(NC(=O)c2ccc3[nH]cnc3c2O)c1

>  <score_type>  (3) 
oracle

>  <origin>  (3) 
adg

>  <m_score__min__energy>  (3) 
-14.140000000000001

>  <m_primary>  (3) 
energy

$$$$
3:0
     RDKit          3D

 64 68  0  0  0  0  0  0  0  0999 V2000
   58.4770   29.4622   43.4851 H   0  0  0  0  0  0  0  0  0  0  0  0
   58.5180   29.9010   44.4930 C   0  0  0  0  0  0  0  0  0  0  0  0
   58.0890   31.2250   44.7000 C   0  0  0  0  0  0  0  0  0  0  0  0
   57.7113   31.8182   43.8542 H   0  0  0  0  0  0  0  0  0  0  0  0
   58.1420   31.7900   45.9830 C   0  0  0  0  0  0  0  0  0  0  0  0
   57.8118   32.8253   46.1534 H   0  0  0  0  0  0  0  0  0  0  0  0
   58.6220   31.0130   47.0400 C   0  0  0  0  0  0  0  0  0  0  0  0
   59.0380   29.7220   46.8390 C   0  0  0  0  0  0  0  0  0  0  0  0
   58.9980   29.1390   45.5690 C   0  0  0  0  0  0  0  0  0  0  0  0
   59.3361   28.1035   45.4163 H   0  0  0  0  0  0  0  0  0  0  0  0
   59.5250   29.0920   48.0880 C   0  0  0  0  0  0  0  0  0  0  0  0
   60.5971   28.8572   48.0143 H   0  0  0  0  0  0  0  0  0  0  0  0
   59.0178   28.1405   48.3058 H   0  0  0  0  0  0  0  0  0  0  0  0
   59.2710   30.1620   49.1760 C   0  0  0  0  0  0  0  0  0  0  0  0
   60.1858   30.3781   49.7474 H   0  0  0  0  0  0  0  0  0  0  0  0
   58.2630   29.6770   50.1220 N   0  0  0  0  0  0  0  0  0  0  0  0
   57.7600   30.3750   51.0960 C   0  0  0  0  0  0  0  0  0  0  0  0
   56.7580   29.8770   51.8720 N   0  0  0  0  0  0  0  0  0  0  0  0
   56.2180   30.6330   52.8660 C   0  0  0  0  0  0  0  0  0  0  0  0
   55.2500   30.1810   53.6070 N   0  0  0  0  0  0  0  0  0  0  0  0
   54.1470   29.3400   53.1430 C   0  0  0  0  0  0  0  0  0  0  0  0
   53.5701   28.9838   54.0092 H   0  0  0  0  0  0  0  0  0  0  0  0
   54.5536   28.4807   52.5895 H   0  0  0  0  0  0  0  0  0  0  0  0
   53.2470   30.1340   52.2360 C   0  0  0  0  0  0  0  0  0  0  0  0
   52.5710   31.2650   52.7170 C   0  0  0  0  0  0  0  0  0  0  0  0
   52.7169   31.5878   53.7584 H   0  0  0  0  0  0  0  0  0  0  0  0
   51.7130   31.9840   51.8800 C   0  0  0  0  0  0  0  0  0  0  0  0
   51.1946   32.8744   52.2653 H   0  0  0  0  0  0  0  0  0  0  0  0
   51.5080   31.5800   50.5550 C   0  0  0  0  0  0  0  0  0  0  0  0
   50.6400   32.3370   49.7530 O   0  0  0  0  0  0  0  0  0  0  0  0
   50.3660   32.0630   48.3830 C   0  0  0  0  0  0  0  0  0  0  0  0
   49.5898   31.2868   48.3124 H   0  0  0  0  0  0  0  0  0  0  0  0
   50.0132   32.9803   47.8890 H   0  0  0  0  0  0  0  0  0  0  0  0
   51.2833   31.7102   47.8890 H   0  0  0  0  0  0  0  0  0  0  0  0
   52.1740   30.4360   50.0760 C   0  0  0  0  0  0  0  0  0  0  0  0
   52.0181   30.1055   49.0385 H   0  0  0  0  0  0  0  0  0  0  0  0
   53.0320   29.7190   50.9130 C   0  0  0  0  0  0  0  0  0  0  0  0
   53.5429   28.8224   50.5322 H   0  0  0  0  0  0  0  0  0  0  0  0
   56.6850   31.8870   53.0800 N   0  0  0  0  0  0  0  0  0  0  0  0
   57.6940   32.3870   52.3170 C   0  0  0  0  0  0  0  0  0  0  0  0
   58.1540   33.5850   52.5220 N   0  0  0  0  0  0  0  0  0  0  0  0
   59.5730   33.8990   52.6610 C   0  0  0  0  0  0  0  0  0  0  0  0
   59.6903   34.9672   52.8960 H   0  0  0  0  0  0  0  0  0  0  0  0
   60.0033   33.2941   53.4727 H   0  0  0  0  0  0  0  0  0  0  0  0
   60.2850   33.5890   51.3770 C   0  0  0  0  0  0  0  0  0  0  0  0
   61.3910   32.7250   51.3710 C   0  0  0  0  0  0  0  0  0  0  0  0
   61.7339   32.2683   52.3111 H   0  0  0  0  0  0  0  0  0  0  0  0
   62.0590   32.4420   50.1760 C   0  0  0  0  0  0  0  0  0  0  0  0
   62.9199   31.7573   50.1778 H   0  0  0  0  0  0  0  0  0  0  0  0
   61.6350   33.0280   48.9760 C   0  0  0  0  0  0  0  0  0  0  0  0
   62.4430   32.6510   47.4580 S   0  0  0  0  0  0  0  0  0  0  0  0
   62.2080   31.2140   47.0880 O   0  0  0  0  0  0  0  0  0  0  0  0
   61.8990   33.5380   46.3740 O   0  0  0  0  0  0  0  0  0  0  0  0
   64.1430   32.9190   47.6270 N   0  0  0  0  0  0  0  0  0  0  0  0
   64.5020   32.2080   48.3020 H   0  0  0  0  0  0  0  0  0  0  0  0
   64.5770   32.7020   46.7020 H   0  0  0  0  0  0  0  0  0  0  0  0
   60.5430   33.9060   48.9810 C   0  0  0  0  0  0  0  0  0  0  0  0
   60.2104   34.3725   48.0420 H   0  0  0  0  0  0  0  0  0  0  0  0
   59.8750   34.1910   50.1750 C   0  0  0  0  0  0  0  0  0  0  0  0
   59.0250   34.8892   50.1740 H   0  0  0  0  0  0  0  0  0  0  0  0
   58.2250   31.6280   51.3270 N   0  0  0  0  0  0  0  0  0  0  0  0
   58.7770   31.4370   48.4500 C   0  0  0  0  0  0  0  0  0  0  0  0
   59.5171   32.2463   48.5352 H   0  0  0  0  0  0  0  0  0  0  0  0
   57.8431   31.8309   48.8773 H   0  0  0  0  0  0  0  0  0  0  0  0
  1  2  1  0
  2  3  2  0
  3  4  1  0
  3  5  1  0
  5  6  1  0
  5  7  2  0
  7  8  1  0
  8  9  2  0
  9 10  1  0
  8 11  1  0
 11 12  1  0
 11 13  1  0
 11 14  1  0
 14 15  1  0
 14 16  1  0
 16 17  2  0
 17 18  1  0
 18 19  1  0
 19 20  2  3
 20 21  1  0
 21 22  1  0
 21 23  1  0
 21 24  1  0
 24 25  2  0
 25 26  1  0
 25 27  1  0
 27 28  1  0
 27 29  2  0
 29 30  1  0
 30 31  1  0
 31 32  1  0
 31 33  1  0
 31 34  1  0
 29 35  1  0
 35 36  1  0
 35 37  2  0
 37 38  1  0
 19 39  1  0
 39 40  1  0
 40 41  2  3
 41 42  1  0
 42 43  1  0
 42 44  1  0
 42 45  1  0
 45 46  2  0
 46 47  1  0
 46 48  1  0
 48 49  1  0
 48 50  2  0
 50 51  1  0
 51 52  2  0
 51 53  2  0
 51 54  1  0
 54 55  1  0
 54 56  1  0
 50 57  1  0
 57 58  1  0
 57 59  2  0
 59 60  1  0
 40 61  1  0
 14 62  1  0
 62 63  1  0
 62 64  1  0
  9  2  1  0
 61 17  1  0
 62  7  1  0
 37 24  1  0
 59 45  1  0
M  CHG  3  18  -1  39  -1  61  -1
M  END
>  <UniqueID>  (4) 
4

>  <SMILES>  (4) 
COc1ccc(CN=c2[n-]c(=NCc3ccc(S(N)(=O)=O)cc3)[n-]/c(=N/C3Cc4ccccc4C3)[n-]2)cc1

>  <Energy>  (4) 
74.63432090917426

>  <Genealogy>  (4) 
COc1ccc(CN=c2[n-]c(=NCc3ccc(S(N)(=O)=O)cc3)[n-]c(=NC3Cc4ccccc4C3)[n-]2)cc1 (protonated)
COc1ccc(CN=c2[n-]c(=NCc3ccc(S(N)(=O)=O)cc3)[n-]/c(=N/C3Cc4ccccc4C3)[n-]2)cc1 (cis-trans isomerization)
COc1ccc(CN=c2[n-]c(=NCc3ccc(S(N)(=O)=O)cc3)[n-]/c(=N/C3Cc4ccccc4C3)[n-]2)cc1 (3D coordinates assigned)
COc1ccc(CN=c2[n-]c(=NCc3ccc(S(N)(=O)=O)cc3)[n-]/c(=N/C3Cc4ccccc4C3)[n-]2)cc1 (nonaromatic ring conformer: 74.63432090917426 kcal/mol)

>  <smiles>  (4) 
COc1ccc(CN=c2[nH]c(=NCc3ccc(S(N)(=O)=O)cc3)[nH]c(=NC3Cc4ccccc4C3)[nH]2)cc1

>  <score_type>  (4) 
oracle

>  <origin>  (4) 
adg

>  <m_score__min__energy>  (4) 
-14.960000000000001

>  <m_primary>  (4) 
energy

$$$$
4:0
     RDKit          3D

 79 82  0  0  0  0  0  0  0  0999 V2000
   63.8080   33.4200   47.9430 C   0  0  0  0  0  0  0  0  0  0  0  0
   63.6300   33.1770   49.4400 C   0  0  0  0  0  0  0  0  0  0  0  0
   62.2070   33.0960   49.7930 N   0  0  0  0  0  0  0  0  0  0  0  0
   61.7850   32.8870   51.1860 C   0  0  0  0  0  0  0  0  0  0  0  0
   60.4750   32.1340   51.2260 C   0  0  0  0  0  0  0  0  0  0  0  0
   59.2620   32.8550   51.2540 C   0  0  0  0  0  0  0  0  0  0  0  0
   59.2600   34.2130   51.1870 F   0  0  0  0  0  0  0  0  0  0  0  0
   58.0400   32.1800   51.3320 C   0  0  0  0  0  0  0  0  0  0  0  0
   58.0110   30.7880   51.4080 C   0  0  0  0  0  0  0  0  0  0  0  0
   59.2030   30.0600   51.3890 C   0  0  0  0  0  0  0  0  0  0  0  0
   60.4360   30.7190   51.2880 C   0  0  0  0  0  0  0  0  0  0  0  0
   61.9000   29.7350   51.2190 Cl  0  0  0  0  0  0  0  0  0  0  0  0
   61.2090   33.3090   48.7810 C   0  0  0  0  0  0  0  0  0  0  0  0
   60.6570   34.5850   48.6250 C   0  0  0  0  0  0  0  0  0  0  0  0
   59.6890   34.8200   47.6460 C   0  0  0  0  0  0  0  0  0  0  0  0
   59.2650   33.7860   46.8140 C   0  0  0  0  0  0  0  0  0  0  0  0
   59.8110   32.4960   46.9490 C   0  0  0  0  0  0  0  0  0  0  0  0
   59.4230   31.4340   46.1130 O   0  0  0  0  0  0  0  0  0  0  0  0
   58.1810   30.7360   46.1860 C   0  0  0  0  0  0  0  0  0  0  0  0
   57.5220   30.6720   44.8330 C   0  0  0  0  0  0  0  0  0  0  0  0
   56.5160   29.7260   44.5830 C   0  0  0  0  0  0  0  0  0  0  0  0
   55.9210   29.6490   43.3190 C   0  0  0  0  0  0  0  0  0  0  0  0
   56.3480   30.4920   42.2880 C   0  0  0  0  0  0  0  0  0  0  0  0
   57.3850   31.4100   42.5150 C   0  0  0  0  0  0  0  0  0  0  0  0
   57.8420   32.3210   41.4170 C   0  0  0  0  0  0  0  0  0  0  0  0
   57.9580   31.5070   43.7930 C   0  0  0  0  0  0  0  0  0  0  0  0
   60.7840   32.2520   47.9420 C   0  0  0  0  0  0  0  0  0  0  0  0
   61.3550   30.8600   48.0700 C   0  0  0  0  0  0  0  0  0  0  0  0
   60.2580   29.9000   48.1300 N   0  0  0  0  0  0  0  0  0  0  0  0
   60.2990   28.4640   48.0640 C   0  0  0  0  0  0  0  0  0  0  0  0
   60.4220   27.8420   49.1500 O   0  0  0  0  0  0  0  0  0  0  0  0
   60.3340   27.6380   46.7840 C   0  0  2  0  0  0  0  0  0  0  0  0
   60.7460   28.3630   45.4990 C   0  0  0  0  0  0  0  0  0  0  0  0
   59.0160   26.9190   46.5580 C   0  0  0  0  0  0  0  0  0  0  0  0
   58.2240   27.2470   45.4450 C   0  0  0  0  0  0  0  0  0  0  0  0
   56.9790   26.6450   45.2570 C   0  0  0  0  0  0  0  0  0  0  0  0
   56.4950   25.7050   46.1870 C   0  0  0  0  0  0  0  0  0  0  0  0
   55.2090   25.0850   46.0440 N   0  0  0  0  0  0  0  0  0  0  0  0
   54.8800   23.6280   45.1610 S   0  0  0  0  0  0  0  0  0  0  0  0
   55.7900   23.6230   43.6260 C   0  0  0  0  0  0  0  0  0  0  0  0
   55.2410   22.4300   45.9950 O   0  0  0  0  0  0  0  0  0  0  0  0
   53.4090   23.5730   44.8510 O   0  0  0  0  0  0  0  0  0  0  0  0
   57.2840   25.3740   47.3020 C   0  0  0  0  0  0  0  0  0  0  0  0
   56.8370   24.4700   48.2120 F   0  0  0  0  0  0  0  0  0  0  0  0
   58.5310   25.9800   47.4890 C   0  0  0  0  0  0  0  0  0  0  0  0
   64.4515   34.2986   47.7881 H   0  0  0  0  0  0  0  0  0  0  0  0
   64.2749   32.5375   47.4812 H   0  0  0  0  0  0  0  0  0  0  0  0
   62.8258   33.5990   47.4812 H   0  0  0  0  0  0  0  0  0  0  0  0
   64.1228   32.2321   49.7124 H   0  0  0  0  0  0  0  0  0  0  0  0
   64.0804   34.0177   49.9881 H   0  0  0  0  0  0  0  0  0  0  0  0
   62.5545   32.3063   51.7157 H   0  0  0  0  0  0  0  0  0  0  0  0
   61.6524   33.8649   51.6719 H   0  0  0  0  0  0  0  0  0  0  0  0
   57.0985   32.7489   51.3334 H   0  0  0  0  0  0  0  0  0  0  0  0
   57.0477   30.2622   51.4831 H   0  0  0  0  0  0  0  0  0  0  0  0
   59.1739   28.9623   51.4537 H   0  0  0  0  0  0  0  0  0  0  0  0
   60.9870   35.4074   49.2767 H   0  0  0  0  0  0  0  0  0  0  0  0
   59.2594   35.8261   47.5313 H   0  0  0  0  0  0  0  0  0  0  0  0
   58.4997   33.9789   46.0478 H   0  0  0  0  0  0  0  0  0  0  0  0
   58.3631   29.7130   46.5470 H   0  0  0  0  0  0  0  0  0  0  0  0
   57.5150   31.2735   46.8770 H   0  0  0  0  0  0  0  0  0  0  0  0
   56.1943   29.0431   45.3831 H   0  0  0  0  0  0  0  0  0  0  0  0
   55.1150   28.9233   43.1356 H   0  0  0  0  0  0  0  0  0  0  0  0
   55.8707   30.4355   41.2985 H   0  0  0  0  0  0  0  0  0  0  0  0
   58.2947   33.2234   41.8538 H   0  0  0  0  0  0  0  0  0  0  0  0
   58.5862   31.8015   40.7955 H   0  0  0  0  0  0  0  0  0  0  0  0
   56.9806   32.6070   40.7955 H   0  0  0  0  0  0  0  0  0  0  0  0
   58.7541   32.2426   43.9803 H   0  0  0  0  0  0  0  0  0  0  0  0
   61.9900   30.6404   47.1990 H   0  0  0  0  0  0  0  0  0  0  0  0
   61.9608   30.7896   48.9855 H   0  0  0  0  0  0  0  0  0  0  0  0
   61.1505   26.9269   46.9778 H   0  0  0  0  0  0  0  0  0  0  0  0
   61.2744   29.2929   45.7560 H   0  0  0  0  0  0  0  0  0  0  0  0
   61.4106   27.7146   44.9091 H   0  0  0  0  0  0  0  0  0  0  0  0
   59.8488   28.6021   44.9091 H   0  0  0  0  0  0  0  0  0  0  0  0
   58.5884   27.9849   44.7152 H   0  0  0  0  0  0  0  0  0  0  0  0
   56.3724   26.9063   44.3774 H   0  0  0  0  0  0  0  0  0  0  0  0
   56.8691   23.6171   43.8395 H   0  0  0  0  0  0  0  0  0  0  0  0
   55.5260   22.7263   43.0462 H   0  0  0  0  0  0  0  0  0  0  0  0
   55.5359   24.5226   43.0462 H   0  0  0  0  0  0  0  0  0  0  0  0
   59.1372   25.7212   48.3697 H   0  0  0  0  0  0  0  0  0  0  0  0
  1  2  1  0
  2  3  1  0
  3  4  1  0
  4  5  1  0
  5  6  2  0
  6  7  1  0
  6  8  1  0
  8  9  2  0
  9 10  1  0
 10 11  2  0
 11 12  1  0
  3 13  1  0
 13 14  2  0
 14 15  1  0
 15 16  2  0
 16 17  1  0
 17 18  1  0
 18 19  1  0
 19 20  1  0
 20 21  2  0
 21 22  1  0
 22 23  2  0
 23 24  1  0
 24 25  1  0
 24 26  2  0
 17 27  2  0
 27 28  1  0
 28 29  1  0
 29 30  1  0
 30 31  2  0
 30 32  1  0
 32 33  1  0
 32 34  1  0
 34 35  2  0
 35 36  1  0
 36 37  2  0
 37 38  1  0
 38 39  1  0
 39 40  1  0
 39 41  2  0
 39 42  2  0
 37 43  1  0
 43 44  1  0
 43 45  2  0
 11  5  1  0
 27 13  1  0
 45 34  1  0
 26 20  1  0
  1 46  1  0
  1 47  1  0
  1 48  1  0
  2 49  1  0
  2 50  1  0
  4 51  1  0
  4 52  1  0
  8 53  1  0
  9 54  1  0
 10 55  1  0
 14 56  1  0
 15 57  1  0
 16 58  1  0
 19 59  1  0
 19 60  1  0
 21 61  1  0
 22 62  1  0
 23 63  1  0
 25 64  1  0
 25 65  1  0
 25 66  1  0
 26 67  1  0
 28 68  1  0
 28 69  1  0
 32 70  1  1
 33 71  1  0
 33 72  1  0
 33 73  1  0
 35 74  1  0
 36 75  1  0
 40 76  1  0
 40 77  1  0
 40 78  1  0
 45 79  1  0
M  CHG  2  29  -1  38  -1
M  END
>  <UniqueID>  (5) 
5

>  <SMILES>  (5) 
CCN(Cc1c(F)cccc1Cl)c1cccc(OCc2cccc(C)c2)c1C[N-]C(=O)[C@H](C)c1ccc([N-]S(C)(=O)=O)c(F)c1

>  <Energy>  (5) 
89.89174576625571

>  <Genealogy>  (5) 
CCN(Cc1c(F)cccc1Cl)c1cccc(OCc2cccc(C)c2)c1C[N-]C(=O)C(C)c1ccc([N-]S(C)(=O)=O)c(F)c1 (protonated)
CCN(Cc1c(F)cccc1Cl)c1cccc(OCc2cccc(C)c2)c1C[N-]C(=O)[C@H](C)c1ccc([N-]S(C)(=O)=O)c(F)c1 (chirality)
CCN(Cc1c(F)cccc1Cl)c1cccc(OCc2cccc(C)c2)c1C[N-]C(=O)[C@H](C)c1ccc([N-]S(C)(=O)=O)c(F)c1 (3D coordinates assigned)
CCN(Cc1c(F)cccc1Cl)c1cccc(OCc2cccc(C)c2)c1C[N-]C(=O)[C@H](C)c1ccc([N-]S(C)(=O)=O)c(F)c1 (optimized conformer: 89.89174576625571 kcal/mol)

>  <smiles>  (5) 
CCN(Cc1c(F)cccc1Cl)c1cccc(OCc2cccc(C)c2)c1CNC(=O)C(C)c1ccc(NS(C)(=O)=O)c(F)c1

>  <score_type>  (5) 
oracle

>  <origin>  (5) 
adg

>  <m_score__min__energy>  (5) 
-13.83

>  <m_primary>  (5) 
energy

$$$$
5:0
     RDKit          3D

 90 93  0  0  0  0  0  0  0  0999 V2000
   57.3610   32.7390   52.3130 C   0  0  0  0  0  0  0  0  0  0  0  0
   58.3590   31.7080   52.0570 N   0  0  0  0  0  0  0  0  0  0  0  0
   57.9840   30.3770   51.6800 C   0  0  0  0  0  0  0  0  0  0  0  0
   56.7680   30.0450   51.6700 O   0  0  0  0  0  0  0  0  0  0  0  0
   59.0410   29.3490   51.3780 C   0  0  0  0  0  0  0  0  0  0  0  0
   59.9750   29.7700   50.2230 C   0  0  1  0  0  0  0  0  0  0  0  0
   61.3350   29.0350   50.2640 C   0  0  0  0  0  0  0  0  0  0  0  0
   62.7230   30.0910   50.8350 S   0  0  0  0  0  0  0  0  0  0  0  0
   61.8420   31.6810   50.7110 C   0  0  0  0  0  0  0  0  0  0  0  0
   62.2040   32.3470   49.4120 C   0  0  0  0  0  0  0  0  0  0  0  0
   63.3840   31.9520   48.7500 C   0  0  0  0  0  0  0  0  0  0  0  0
   63.7260   32.5090   47.5160 C   0  0  0  0  0  0  0  0  0  0  0  0
   62.8880   33.4570   46.9240 C   0  0  0  0  0  0  0  0  0  0  0  0
   61.7060   33.8500   47.5610 C   0  0  0  0  0  0  0  0  0  0  0  0
   61.3560   33.2980   48.8000 C   0  0  0  0  0  0  0  0  0  0  0  0
   59.8480   33.8210   49.5500 Cl  0  0  0  0  0  0  0  0  0  0  0  0
   59.2740   29.5820   48.8900 C   0  0  0  0  0  0  0  0  0  0  0  0
   58.5190   30.5030   48.4710 O   0  0  0  0  0  0  0  0  0  0  0  0
   59.4420   28.4230   48.0490 N   0  0  0  0  0  0  0  0  0  0  0  0
   58.6130   27.8400   46.9870 C   0  0  1  0  0  0  0  0  0  0  0  0
   58.9310   28.3860   45.5810 C   0  0  0  0  0  0  0  0  0  0  0  0
   58.0210   29.5200   45.1960 C   0  0  0  0  0  0  0  0  0  0  0  0
   56.7760   29.4090   44.5850 C   0  0  0  0  0  0  0  0  0  0  0  0
   56.2390   30.6310   44.3700 N   0  0  0  0  0  0  0  0  0  0  0  0
   57.1290   31.5170   44.8510 C   0  0  0  0  0  0  0  0  0  0  0  0
   57.0120   32.9060   44.8610 C   0  0  0  0  0  0  0  0  0  0  0  0
   58.0630   33.6500   45.4280 C   0  0  0  0  0  0  0  0  0  0  0  0
   59.1880   32.9960   45.9760 C   0  0  0  0  0  0  0  0  0  0  0  0
   59.2750   31.5920   45.9610 C   0  0  0  0  0  0  0  0  0  0  0  0
   58.2270   30.8790   45.3730 C   0  0  0  0  0  0  0  0  0  0  0  0
   58.5860   26.3340   47.0290 C   0  0  0  0  0  0  0  0  0  0  0  0
   59.6350   25.6630   46.8490 O   0  0  0  0  0  0  0  0  0  0  0  0
   57.3480   25.6640   47.2970 N   0  0  0  0  0  0  0  0  0  0  0  0
   56.2040   25.3180   46.0460 S   0  0  0  0  0  0  0  0  0  0  0  0
   55.1380   26.3750   46.0320 O   0  0  0  0  0  0  0  0  0  0  0  0
   56.9220   25.3020   44.7260 O   0  0  0  0  0  0  0  0  0  0  0  0
   55.4750   23.7600   46.3080 N   0  0  0  0  0  0  0  0  0  0  0  0
   55.5910   23.1160   47.6210 C   0  0  0  0  0  0  0  0  0  0  0  0
   55.9880   21.6770   47.4630 C   0  0  0  0  0  0  0  0  0  0  0  0
   55.0200   20.6780   47.2760 C   0  0  0  0  0  0  0  0  0  0  0  0
   55.4260   19.3540   47.0870 C   0  0  0  0  0  0  0  0  0  0  0  0
   56.7870   19.0410   47.0790 C   0  0  0  0  0  0  0  0  0  0  0  0
   57.7260   20.0590   47.2740 C   0  0  0  0  0  0  0  0  0  0  0  0
   57.3110   21.3410   47.4540 N   0  0  0  0  0  0  0  0  0  0  0  0
   54.8710   23.0850   45.1920 C   0  0  0  0  0  0  0  0  0  0  0  0
   53.7250   23.4260   44.7920 O   0  0  0  0  0  0  0  0  0  0  0  0
   55.5670   22.0410   44.5640 O   0  0  0  0  0  0  0  0  0  0  0  0
   56.7490   22.1550   43.7610 C   0  0  0  0  0  0  0  0  0  0  0  0
   56.5130   23.3070   42.7710 C   0  0  0  0  0  0  0  0  0  0  0  0
   56.9990   20.8560   42.9730 C   0  0  0  0  0  0  0  0  0  0  0  0
   57.9670   22.5020   44.6400 C   0  0  0  0  0  0  0  0  0  0  0  0
   57.2366   32.8675   53.3984 H   0  0  0  0  0  0  0  0  0  0  0  0
   57.6919   33.6885   51.8669 H   0  0  0  0  0  0  0  0  0  0  0  0
   56.4013   32.4391   51.8669 H   0  0  0  0  0  0  0  0  0  0  0  0
   59.3720   31.9540   52.1590 H   0  0  0  0  0  0  0  0  0  0  0  0
   59.6483   29.1939   52.2819 H   0  0  0  0  0  0  0  0  0  0  0  0
   58.5266   28.4275   51.0678 H   0  0  0  0  0  0  0  0  0  0  0  0
   60.2046   30.8382   50.3500 H   0  0  0  0  0  0  0  0  0  0  0  0
   61.2465   28.1774   50.9471 H   0  0  0  0  0  0  0  0  0  0  0  0
   61.5665   28.7266   49.2338 H   0  0  0  0  0  0  0  0  0  0  0  0
   60.7568   31.5039   50.7437 H   0  0  0  0  0  0  0  0  0  0  0  0
   62.1298   32.3295   51.5516 H   0  0  0  0  0  0  0  0  0  0  0  0
   64.0410   31.1987   49.2093 H   0  0  0  0  0  0  0  0  0  0  0  0
   64.6537   32.2018   47.0110 H   0  0  0  0  0  0  0  0  0  0  0  0
   63.1587   33.8965   45.9526 H   0  0  0  0  0  0  0  0  0  0  0  0
   61.0495   34.5948   47.0874 H   0  0  0  0  0  0  0  0  0  0  0  0
   57.5891   28.1773   47.2056 H   0  0  0  0  0  0  0  0  0  0  0  0
   59.9707   28.7448   45.5665 H   0  0  0  0  0  0  0  0  0  0  0  0
   58.7805   27.5703   44.8585 H   0  0  0  0  0  0  0  0  0  0  0  0
   56.2947   28.4577   44.3141 H   0  0  0  0  0  0  0  0  0  0  0  0
   55.3110   30.8360   43.9370 H   0  0  0  0  0  0  0  0  0  0  0  0
   56.1267   33.4043   44.4393 H   0  0  0  0  0  0  0  0  0  0  0  0
   58.0079   34.7485   45.4445 H   0  0  0  0  0  0  0  0  0  0  0  0
   60.0025   33.5887   46.4179 H   0  0  0  0  0  0  0  0  0  0  0  0
   60.1403   31.0722   46.3981 H   0  0  0  0  0  0  0  0  0  0  0  0
   56.3540   23.6396   48.2157 H   0  0  0  0  0  0  0  0  0  0  0  0
   54.6172   23.1644   48.1302 H   0  0  0  0  0  0  0  0  0  0  0  0
   53.9504   20.9350   47.2782 H   0  0  0  0  0  0  0  0  0  0  0  0
   54.6764   18.5616   46.9451 H   0  0  0  0  0  0  0  0  0  0  0  0
   57.1173   18.0038   46.9208 H   0  0  0  0  0  0  0  0  0  0  0  0
   58.8002   19.8224   47.2817 H   0  0  0  0  0  0  0  0  0  0  0  0
   56.3227   24.2361   43.3282 H   0  0  0  0  0  0  0  0  0  0  0  0
   57.4036   23.4349   42.1382 H   0  0  0  0  0  0  0  0  0  0  0  0
   55.6439   23.0744   42.1382 H   0  0  0  0  0  0  0  0  0  0  0  0
   57.1588   20.0255   43.6763 H   0  0  0  0  0  0  0  0  0  0  0  0
   56.1264   20.6375   42.3399 H   0  0  0  0  0  0  0  0  0  0  0  0
   57.8903   20.9770   42.3399 H   0  0  0  0  0  0  0  0  0  0  0  0
   57.6880   22.4225   45.7011 H   0  0  0  0  0  0  0  0  0  0  0  0
   58.7871   21.8018   44.4231 H   0  0  0  0  0  0  0  0  0  0  0  0
   58.2950   23.5293   44.4231 H   0  0  0  0  0  0  0  0  0  0  0  0
  1  2  1  0
  2  3  1  0
  3  4  2  0
  3  5  1  0
  5  6  1  0
  6  7  1  0
  7  8  1  0
  8  9  1  0
  9 10  1  0
 10 11  2  0
 11 12  1  0
 12 13  2  0
 13 14  1  0
 14 15  2  0
 15 16  1  0
  6 17  1  0
 17 18  2  0
 17 19  1  0
 19 20  1  0
 20 21  1  0
 21 22  1  0
 22 23  2  0
 23 24  1  0
 24 25  1  0
 25 26  2  0
 26 27  1  0
 27 28  2  0
 28 29  1  0
 29 30  2  0
 20 31  1  0
 31 32  2  0
 31 33  1  0
 33 34  1  0
 34 35  2  0
 34 36  2  0
 34 37  1  0
 37 38  1  0
 38 39  1  0
 39 40  2  0
 40 41  1  0
 41 42  2  0
 42 43  1  0
 43 44  2  0
 37 45  1  0
 45 46  2  0
 45 47  1  0
 47 48  1  0
 48 49  1  0
 48 50  1  0
 48 51  1  0
 15 10  1  0
 30 22  1  0
 44 39  1  0
 30 25  1  0
  1 52  1  0
  1 53  1  0
  1 54  1  0
  2 55  1  0
  5 56  1  0
  5 57  1  0
  6 58  1  1
  7 59  1  0
  7 60  1  0
  9 61  1  0
  9 62  1  0
 11 63  1  0
 12 64  1  0
 13 65  1  0
 14 66  1  0
 20 67  1  1
 21 68  1  0
 21 69  1  0
 23 70  1  0
 24 71  1  0
 26 72  1  0
 27 73  1  0
 28 74  1  0
 29 75  1  0
 38 76  1  0
 38 77  1  0
 40 78  1  0
 41 79  1  0
 42 80  1  0
 43 81  1  0
 49 82  1  0
 49 83  1  0
 49 84  1  0
 50 85  1  0
 50 86  1  0
 50 87  1  0
 51 88  1  0
 51 89  1  0
 51 90  1  0
M  CHG  2  19  -1  33  -1
M  END
>  <UniqueID>  (6) 
6

>  <SMILES>  (6) 
CNC(=O)C[C@@H](CSCc1ccccc1Cl)C(=O)[N-][C@@H](Cc1c[nH]c2ccccc12)C(=O)[N-]S(=O)(=O)N(Cc1ccccn1)C(=O)OC(C)(C)C

>  <Energy>  (6) 
116.85335638954012

>  <Genealogy>  (6) 
CNC(=O)CC(CSCc1ccccc1Cl)C(=O)[N-]C(Cc1c[nH]c2ccccc12)C(=O)[N-]S(=O)(=O)N(Cc1ccccn1)C(=O)OC(C)(C)C (protonated)
CNC(=O)C[C@@H](CSCc1ccccc1Cl)C(=O)[N-][C@@H](Cc1c[nH]c2ccccc12)C(=O)[N-]S(=O)(=O)N(Cc1ccccn1)C(=O)OC(C)(C)C (chirality)
CNC(=O)C[C@@H](CSCc1ccccc1Cl)C(=O)[N-][C@@H](Cc1c[nH]c2ccccc12)C(=O)[N-]S(=O)(=O)N(Cc1ccccn1)C(=O)OC(C)(C)C (3D coordinates assigned)
CNC(=O)C[C@@H](CSCc1ccccc1Cl)C(=O)[N-][C@@H](Cc1c[nH]c2ccccc12)C(=O)[N-]S(=O)(=O)N(Cc1ccccn1)C(=O)OC(C)(C)C (optimized conformer: 116.85335638954012 kcal/mol)

>  <smiles>  (6) 
CNC(=O)CC(CSCc1ccccc1Cl)C(=O)NC(Cc1c[nH]c2ccccc12)C(=O)NS(=O)(=O)N(Cc1ccccn1)C(=O)OC(C)(C)C

>  <score_type>  (6) 
oracle

>  <origin>  (6) 
adg

>  <m_score__min__energy>  (6) 
-13.43

>  <m_primary>  (6) 
energy

$$$$
6:0
     RDKit          3D

 45 47  0  0  0  0  0  0  0  0999 V2000
   59.4160   35.1200   46.6040 C   0  0  0  0  0  0  0  0  0  0  0  0
   59.2060   33.6290   46.5730 C   0  0  0  0  0  0  0  0  0  0  0  0
   60.0040   32.8170   47.3950 C   0  0  0  0  0  0  0  0  0  0  0  0
   59.8460   31.4330   47.3910 C   0  0  0  0  0  0  0  0  0  0  0  0
   58.8830   30.8400   46.5800 C   0  0  0  0  0  0  0  0  0  0  0  0
   58.0590   31.6260   45.7560 C   0  0  0  0  0  0  0  0  0  0  0  0
   57.0640   31.0150   44.9160 N   0  0  0  0  0  0  0  0  0  0  0  0
   56.6220   29.6530   44.9670 C   0  0  0  0  0  0  0  0  0  0  0  0
   55.3940   29.3780   44.8910 O   0  0  0  0  0  0  0  0  0  0  0  0
   57.5960   28.6090   45.0930 N   0  0  0  0  0  0  0  0  0  0  0  0
   57.3020   27.2070   44.9630 C   0  0  0  0  0  0  0  0  0  0  0  0
   57.7760   26.4560   43.8730 C   0  0  0  0  0  0  0  0  0  0  0  0
   57.4930   25.0900   43.7810 C   0  0  0  0  0  0  0  0  0  0  0  0
   56.7480   24.4540   44.7820 C   0  0  0  0  0  0  0  0  0  0  0  0
   56.3780   22.7390   44.6350 S   0  0  0  0  0  0  0  0  0  0  0  0
   55.9240   22.4560   43.2310 O   0  0  0  0  0  0  0  0  0  0  0  0
   57.5940   21.9020   44.9240 O   0  0  0  0  0  0  0  0  0  0  0  0
   55.1120   22.3170   45.7440 N   0  0  0  0  0  0  0  0  0  0  0  0
   53.8730   22.6740   45.5940 C   0  0  0  0  0  0  0  0  0  0  0  0
   53.5510   23.8630   45.0130 N   0  0  0  0  0  0  0  0  0  0  0  0
   52.2560   24.2360   44.8500 C   0  0  0  0  0  0  0  0  0  0  0  0
   51.2310   23.3940   45.2800 C   0  0  0  0  0  0  0  0  0  0  0  0
   51.5760   22.1810   45.8740 C   0  0  0  0  0  0  0  0  0  0  0  0
   52.8840   21.8430   46.0200 N   0  0  0  0  0  0  0  0  0  0  0  0
   56.2920   25.1950   45.8810 C   0  0  0  0  0  0  0  0  0  0  0  0
   56.5770   26.5600   45.9750 C   0  0  0  0  0  0  0  0  0  0  0  0
   58.2510   33.0280   45.7120 C   0  0  0  0  0  0  0  0  0  0  0  0
   57.3850   33.8830   44.8140 C   0  0  0  0  0  0  0  0  0  0  0  0
   59.4642   35.4619   47.6484 H   0  0  0  0  0  0  0  0  0  0  0  0
   60.3580   35.3683   46.0931 H   0  0  0  0  0  0  0  0  0  0  0  0
   58.5792   35.6188   46.0931 H   0  0  0  0  0  0  0  0  0  0  0  0
   60.7603   33.2777   48.0476 H   0  0  0  0  0  0  0  0  0  0  0  0
   60.4847   30.8066   48.0311 H   0  0  0  0  0  0  0  0  0  0  0  0
   58.7656   29.7463   46.5839 H   0  0  0  0  0  0  0  0  0  0  0  0
   58.5580   28.8860   45.3930 H   0  0  0  0  0  0  0  0  0  0  0  0
   58.3723   26.9455   43.0889 H   0  0  0  0  0  0  0  0  0  0  0  0
   57.8570   24.5122   42.9187 H   0  0  0  0  0  0  0  0  0  0  0  0
   52.0156   25.2008   44.3795 H   0  0  0  0  0  0  0  0  0  0  0  0
   50.1763   23.6799   45.1536 H   0  0  0  0  0  0  0  0  0  0  0  0
   50.7890   21.4971   46.2247 H   0  0  0  0  0  0  0  0  0  0  0  0
   55.7083   24.7008   46.6716 H   0  0  0  0  0  0  0  0  0  0  0  0
   56.2304   27.1312   46.8488 H   0  0  0  0  0  0  0  0  0  0  0  0
   56.7369   34.5229   45.4308 H   0  0  0  0  0  0  0  0  0  0  0  0
   58.0252   34.5131   44.1790 H   0  0  0  0  0  0  0  0  0  0  0  0
   56.7631   33.2348   44.1790 H   0  0  0  0  0  0  0  0  0  0  0  0
  1  2  1  0
  2  3  2  0
  3  4  1  0
  4  5  2  0
  5  6  1  0
  6  7  1  0
  7  8  1  0
  8  9  2  0
  8 10  1  0
 10 11  1  0
 11 12  2  0
 12 13  1  0
 13 14  2  0
 14 15  1  0
 15 16  2  0
 15 17  2  0
 15 18  1  0
 18 19  2  3
 19 20  1  0
 20 21  2  0
 21 22  1  0
 22 23  2  0
 23 24  1  0
 14 25  1  0
 25 26  2  0
  6 27  2  0
 27 28  1  0
 27  2  1  0
 26 11  1  0
 24 19  1  0
  1 29  1  0
  1 30  1  0
  1 31  1  0
  3 32  1  0
  4 33  1  0
  5 34  1  0
 10 35  1  0
 12 36  1  0
 13 37  1  0
 21 38  1  0
 22 39  1  0
 23 40  1  0
 25 41  1  0
 26 42  1  0
 28 43  1  0
 28 44  1  0
 28 45  1  0
M  CHG  2   7  -1  24  -1
M  END
>  <UniqueID>  (7) 
7

>  <SMILES>  (7) 
Cc1cccc([N-]C(=O)Nc2ccc(S(=O)(=O)N=c3nccc[n-]3)cc2)c1C

>  <Energy>  (7) 
60.27125487764148

>  <Genealogy>  (7) 
Cc1cccc([N-]C(=O)Nc2ccc(S(=O)(=O)N=c3nccc[n-]3)cc2)c1C (protonated)
Cc1cccc([N-]C(=O)Nc2ccc(S(=O)(=O)N=c3nccc[n-]3)cc2)c1C (3D coordinates assigned)
Cc1cccc([N-]C(=O)Nc2ccc(S(=O)(=O)N=c3nccc[n-]3)cc2)c1C (optimized conformer: 60.27125487764148 kcal/mol)

>  <smiles>  (7) 
Cc1cccc(NC(=O)Nc2ccc(S(=O)(=O)N=c3nccc[nH]3)cc2)c1C

>  <score_type>  (7) 
oracle

>  <origin>  (7) 
adg

>  <m_score__min__energy>  (7) 
-11.69

>  <m_primary>  (7) 
energy

$$$$
7:0
     RDKit          3D

 28 29  0  0  0  0  0  0  0  0999 V2000
   61.6220   30.4110   47.0750 N   0  0  0  0  0  0  0  0  0  0  0  0
   61.5840   32.0990   47.4450 S   0  0  0  0  0  0  0  0  0  0  0  0
   61.5050   32.2850   48.9340 O   0  0  0  0  0  0  0  0  0  0  0  0
   62.8450   32.7490   46.9470 O   0  0  0  0  0  0  0  0  0  0  0  0
   60.1840   32.8430   46.6770 C   0  0  0  0  0  0  0  0  0  0  0  0
   60.0160   34.2330   46.7140 C   0  0  0  0  0  0  0  0  0  0  0  0
   58.9090   34.8200   46.0990 C   0  0  0  0  0  0  0  0  0  0  0  0
   57.9690   34.0270   45.4340 C   0  0  0  0  0  0  0  0  0  0  0  0
   58.1410   32.6300   45.3680 C   0  0  0  0  0  0  0  0  0  0  0  0
   57.2070   31.7590   44.7050 N   0  0  0  0  0  0  0  0  0  0  0  0
   57.4750   30.6170   44.1450 C   0  0  0  0  0  0  0  0  0  0  0  0
   57.5550   29.3660   44.9440 C   0  0  0  0  0  0  0  0  0  0  0  0
   56.4200   28.5820   45.2470 C   0  0  0  0  0  0  0  0  0  0  0  0
   55.1520   28.9440   44.8070 O   0  0  0  0  0  0  0  0  0  0  0  0
   56.5560   27.4470   45.9810 N   0  0  0  0  0  0  0  0  0  0  0  0
   57.7670   27.0430   46.4360 C   0  0  0  0  0  0  0  0  0  0  0  0
   57.8920   25.6740   47.3150 S   0  0  0  0  0  0  0  0  0  0  0  0
   58.8740   27.7750   46.1600 N   0  0  0  0  0  0  0  0  0  0  0  0
   58.7990   28.9170   45.4310 C   0  0  0  0  0  0  0  0  0  0  0  0
   59.8550   29.5660   45.1990 O   0  0  0  0  0  0  0  0  0  0  0  0
   59.2470   32.0480   46.0030 C   0  0  0  0  0  0  0  0  0  0  0  0
   60.6570   30.0430   47.2350 H   0  0  0  0  0  0  0  0  0  0  0  0
   61.8090   30.3280   46.0500 H   0  0  0  0  0  0  0  0  0  0  0  0
   60.7571   34.8626   47.2282 H   0  0  0  0  0  0  0  0  0  0  0  0
   58.7756   35.9112   46.1377 H   0  0  0  0  0  0  0  0  0  0  0  0
   57.0929   34.4948   44.9611 H   0  0  0  0  0  0  0  0  0  0  0  0
   57.6459   30.5755   43.0591 H   0  0  0  0  0  0  0  0  0  0  0  0
   59.3808   30.9566   45.9720 H   0  0  0  0  0  0  0  0  0  0  0  0
  1  2  1  0
  2  3  2  0
  2  4  2  0
  2  5  1  0
  5  6  2  0
  6  7  1  0
  7  8  2  0
  8  9  1  0
  9 10  1  0
 10 11  2  3
 11 12  1  0
 12 13  2  0
 13 14  1  0
 13 15  1  0
 15 16  1  0
 16 17  2  0
 16 18  1  0
 18 19  1  0
 19 20  2  0
  9 21  2  0
 21  5  1  0
 19 12  1  0
  1 22  1  0
  1 23  1  0
  6 24  1  0
  7 25  1  0
  8 26  1  0
 11 27  1  0
 21 28  1  0
M  CHG  3  14  -1  15  -1  18  -1
M  END
>  <UniqueID>  (8) 
8

>  <SMILES>  (8) 
NS(=O)(=O)c1cccc(N=Cc2c([O-])[n-]c(=S)[n-]c2=O)c1

>  <Energy>  (8) 
33.90955622705208

>  <Genealogy>  (8) 
NS(=O)(=O)c1cccc(N=Cc2c([O-])[n-]c(=S)[n-]c2=O)c1 (protonated)
NS(=O)(=O)c1cccc(N=Cc2c([O-])[n-]c(=S)[n-]c2=O)c1 (3D coordinates assigned)
NS(=O)(=O)c1cccc(N=Cc2c([O-])[n-]c(=S)[n-]c2=O)c1 (optimized conformer: 33.90955622705208 kcal/mol)

>  <smiles>  (8) 
NS(=O)(=O)c1cccc(N=Cc2c(O)[nH]c(=S)[nH]c2=O)c1

>  <score_type>  (8) 
oracle

>  <origin>  (8) 
adg

>  <m_score__min__energy>  (8) 
-15.140000000000001

>  <m_primary>  (8) 
energy

$$$$
8:0
     RDKit          3D

 57 60  0  0  0  0  0  0  0  0999 V2000
   54.8970   27.3730   54.0140 C   0  0  0  0  0  0  0  0  0  0  0  0
   55.1340   28.3530   53.0090 O   0  0  0  0  0  0  0  0  0  0  0  0
   54.1970   29.3090   52.5860 C   0  0  0  0  0  0  0  0  0  0  0  0
   52.8220   29.1700   52.8530 C   0  0  0  0  0  0  0  0  0  0  0  0
   51.9160   30.1370   52.4240 C   0  0  0  0  0  0  0  0  0  0  0  0
   52.3570   31.2550   51.7010 C   0  0  0  0  0  0  0  0  0  0  0  0
   51.3940   32.2680   51.2200 C   0  0  0  0  0  0  0  0  0  0  0  0
   50.8800   33.0930   52.0220 O   0  0  0  0  0  0  0  0  0  0  0  0
   51.0420   32.3280   49.8750 O   0  0  0  0  0  0  0  0  0  0  0  0
   53.7290   31.3970   51.4320 C   0  0  0  0  0  0  0  0  0  0  0  0
   54.6540   30.4430   51.8890 C   0  0  0  0  0  0  0  0  0  0  0  0
   56.0560   30.5800   51.6000 N   0  0  0  0  0  0  0  0  0  0  0  0
   56.8240   31.7650   51.8580 C   0  0  0  0  0  0  0  0  0  0  0  0
   56.2840   32.7830   52.3660 O   0  0  0  0  0  0  0  0  0  0  0  0
   58.2880   31.7870   51.5190 C   0  0  0  0  0  0  0  0  0  0  0  0
   58.8560   30.4180   51.4640 N   0  0  0  0  0  0  0  0  0  0  0  0
   59.5000   29.9930   50.3140 C   0  0  0  0  0  0  0  0  0  0  0  0
   59.3350   30.6800   48.9620 C   0  0  0  0  0  0  0  0  0  0  0  0
   59.8720   29.7870   47.8280 C   0  0  0  0  0  0  0  0  0  0  0  0
   58.8780   29.6600   46.7040 C   0  0  0  0  0  0  0  0  0  0  0  0
   58.8610   30.6140   45.6730 C   0  0  0  0  0  0  0  0  0  0  0  0
   57.9400   30.5050   44.6270 C   0  0  0  0  0  0  0  0  0  0  0  0
   57.0310   29.4450   44.6010 C   0  0  0  0  0  0  0  0  0  0  0  0
   57.0350   28.4950   45.6260 C   0  0  0  0  0  0  0  0  0  0  0  0
   56.1520   27.4660   45.5970 F   0  0  0  0  0  0  0  0  0  0  0  0
   57.9430   28.6060   46.6840 C   0  0  0  0  0  0  0  0  0  0  0  0
   57.9160   27.6830   47.6790 F   0  0  0  0  0  0  0  0  0  0  0  0
   60.2880   28.8340   50.3410 C   0  0  0  0  0  0  0  0  0  0  0  0
   60.3550   28.0530   51.4840 C   0  0  0  0  0  0  0  0  0  0  0  0
   61.0810   27.0210   51.4830 O   0  0  0  0  0  0  0  0  0  0  0  0
   59.5940   28.4010   52.6070 C   0  0  0  0  0  0  0  0  0  0  0  0
   59.5890   27.5820   53.7540 C   0  0  0  0  0  0  0  0  0  0  0  0
   58.7920   27.9060   54.8500 C   0  0  0  0  0  0  0  0  0  0  0  0
   57.9810   29.0350   54.8120 C   0  0  0  0  0  0  0  0  0  0  0  0
   57.9770   29.8640   53.6890 C   0  0  0  0  0  0  0  0  0  0  0  0
   58.8090   29.5880   52.5730 C   0  0  0  0  0  0  0  0  0  0  0  0
   55.0081   27.8322   55.0074 H   0  0  0  0  0  0  0  0  0  0  0  0
   53.8769   26.9759   53.9056 H   0  0  0  0  0  0  0  0  0  0  0  0
   55.6229   26.5536   53.9056 H   0  0  0  0  0  0  0  0  0  0  0  0
   52.4599   28.2902   53.4051 H   0  0  0  0  0  0  0  0  0  0  0  0
   50.8464   30.0230   52.6540 H   0  0  0  0  0  0  0  0  0  0  0  0
   54.0830   32.2653   50.8569 H   0  0  0  0  0  0  0  0  0  0  0  0
   56.5690   29.7320   51.2760 H   0  0  0  0  0  0  0  0  0  0  0  0
   58.4203   32.2681   50.5387 H   0  0  0  0  0  0  0  0  0  0  0  0
   58.8151   32.3470   52.3055 H   0  0  0  0  0  0  0  0  0  0  0  0
   58.2679   30.8823   48.7877 H   0  0  0  0  0  0  0  0  0  0  0  0
   59.9054   31.6205   48.9715 H   0  0  0  0  0  0  0  0  0  0  0  0
   60.8001   30.2280   47.4355 H   0  0  0  0  0  0  0  0  0  0  0  0
   60.0567   28.7834   48.2387 H   0  0  0  0  0  0  0  0  0  0  0  0
   59.5754   31.4503   45.6888 H   0  0  0  0  0  0  0  0  0  0  0  0
   57.9312   31.2555   43.8229 H   0  0  0  0  0  0  0  0  0  0  0  0
   56.3116   29.3578   43.7734 H   0  0  0  0  0  0  0  0  0  0  0  0
   60.8583   28.5417   49.4470 H   0  0  0  0  0  0  0  0  0  0  0  0
   60.2188   26.6806   53.7842 H   0  0  0  0  0  0  0  0  0  0  0  0
   58.8043   27.2682   55.7461 H   0  0  0  0  0  0  0  0  0  0  0  0
   57.3389   29.2762   55.6720 H   0  0  0  0  0  0  0  0  0  0  0  0
   57.3186   30.7450   53.6688 H   0  0  0  0  0  0  0  0  0  0  0  0
  1  2  1  0
  2  3  1  0
  3  4  2  0
  4  5  1  0
  5  6  2  0
  6  7  1  0
  7  8  2  0
  7  9  1  0
  6 10  1  0
 10 11  2  0
 11 12  1  0
 12 13  1  0
 13 14  2  0
 13 15  1  0
 15 16  1  0
 16 17  1  0
 17 18  1  0
 18 19  1  0
 19 20  1  0
 20 21  2  0
 21 22  1  0
 22 23  2  0
 23 24  1  0
 24 25  1  0
 24 26  2  0
 26 27  1  0
 17 28  2  0
 28 29  1  0
 29 30  2  0
 29 31  1  0
 31 32  2  0
 32 33  1  0
 33 34  2  0
 34 35  1  0
 35 36  2  0
 11  3  1  0
 36 16  1  0
 26 20  1  0
 36 31  1  0
  1 37  1  0
  1 38  1  0
  1 39  1  0
  4 40  1  0
  5 41  1  0
 10 42  1  0
 12 43  1  0
 15 44  1  0
 15 45  1  0
 18 46  1  0
 18 47  1  0
 19 48  1  0
 19 49  1  0
 21 50  1  0
 22 51  1  0
 23 52  1  0
 28 53  1  0
 32 54  1  0
 33 55  1  0
 34 56  1  0
 35 57  1  0
M  CHG  1   9  -1
M  END
>  <UniqueID>  (9) 
9

>  <SMILES>  (9) 
COc1ccc(C(=O)[O-])cc1NC(=O)Cn1c(CCc2cccc(F)c2F)cc(=O)c2ccccc21

>  <Energy>  (9) 
77.18008038526196

>  <Genealogy>  (9) 
COc1ccc(C(=O)[O-])cc1NC(=O)Cn1c(CCc2cccc(F)c2F)cc(=O)c2ccccc21 (protonated)
COc1ccc(C(=O)[O-])cc1NC(=O)Cn1c(CCc2cccc(F)c2F)cc(=O)c2ccccc21 (3D coordinates assigned)
COc1ccc(C(=O)[O-])cc1NC(=O)Cn1c(CCc2cccc(F)c2F)cc(=O)c2ccccc21 (optimized conformer: 77.18008038526196 kcal/mol)

>  <smiles>  (9) 
COc1ccc(C(=O)O)cc1NC(=O)Cn1c(CCc2cccc(F)c2F)cc(=O)c2ccccc21

>  <score_type>  (9) 
oracle

>  <origin>  (9) 
adg

>  <m_score__min__energy>  (9) 
-11.779999999999999

>  <m_primary>  (9) 
energy

$$$$
9:0
     RDKit          3D

 37 39  0  0  0  0  0  0  0  0999 V2000
   60.3660   29.3790   45.6410 N   0  0  0  0  0  0  0  0  0  0  0  0
   59.4270   28.7040   45.6940 C   0  0  0  0  0  0  0  0  0  0  0  0
   58.2480   27.8730   45.7540 C   0  0  0  0  0  0  0  0  0  0  0  0
   58.4440   26.5170   46.0530 C   0  0  0  0  0  0  0  0  0  0  0  0
   57.3600   25.6460   46.1280 C   0  0  0  0  0  0  0  0  0  0  0  0
   56.0780   26.1340   45.9030 C   0  0  0  0  0  0  0  0  0  0  0  0
   55.8930   27.4490   45.6150 N   0  0  0  0  0  0  0  0  0  0  0  0
   56.9180   28.3410   45.5300 C   0  0  0  0  0  0  0  0  0  0  0  0
   56.6040   29.5770   45.2470 N   0  0  0  0  0  0  0  0  0  0  0  0
   56.7320   30.3130   43.9910 C   0  0  0  0  0  0  0  0  0  0  0  0
   58.1320   30.9180   43.8800 C   0  0  0  0  0  0  0  0  0  0  0  0
   58.2530   32.1750   44.7030 C   0  0  0  0  0  0  0  0  0  0  0  0
   57.3040   33.2020   44.5740 C   0  0  0  0  0  0  0  0  0  0  0  0
   57.4030   34.3520   45.3590 C   0  0  0  0  0  0  0  0  0  0  0  0
   58.4410   34.4850   46.2840 C   0  0  0  0  0  0  0  0  0  0  0  0
   59.3920   33.4630   46.4360 C   0  0  0  0  0  0  0  0  0  0  0  0
   60.4540   33.5920   47.3970 N   0  0  0  0  0  0  0  0  0  0  0  0
   61.8490   33.7560   47.1600 C   0  0  0  0  0  0  0  0  0  0  0  0
   62.3800   33.7790   46.0190 O   0  0  0  0  0  0  0  0  0  0  0  0
   62.5820   33.8350   48.4230 C   0  0  0  0  0  0  0  0  0  0  0  0
   61.7000   33.7230   49.4140 C   0  0  0  0  0  0  0  0  0  0  0  0
   60.3740   33.5720   48.8190 C   0  0  0  0  0  0  0  0  0  0  0  0
   59.3000   33.4850   49.4700 O   0  0  0  0  0  0  0  0  0  0  0  0
   59.2890   32.3080   45.6420 C   0  0  0  0  0  0  0  0  0  0  0  0
   59.4616   26.1385   46.2296 H   0  0  0  0  0  0  0  0  0  0  0  0
   57.5166   24.5828   46.3629 H   0  0  0  0  0  0  0  0  0  0  0  0
   55.2136   25.4559   45.9581 H   0  0  0  0  0  0  0  0  0  0  0  0
   56.5637   29.6268   43.1479 H   0  0  0  0  0  0  0  0  0  0  0  0
   55.9864   31.1214   43.9685 H   0  0  0  0  0  0  0  0  0  0  0  0
   58.8689   30.1836   44.2373 H   0  0  0  0  0  0  0  0  0  0  0  0
   58.3167   31.1741   42.8263 H   0  0  0  0  0  0  0  0  0  0  0  0
   56.4802   33.0999   43.8522 H   0  0  0  0  0  0  0  0  0  0  0  0
   56.6608   35.1564   45.2487 H   0  0  0  0  0  0  0  0  0  0  0  0
   58.5140   35.3955   46.8969 H   0  0  0  0  0  0  0  0  0  0  0  0
   63.6687   33.9640   48.5344 H   0  0  0  0  0  0  0  0  0  0  0  0
   61.9289   33.7410   50.4898 H   0  0  0  0  0  0  0  0  0  0  0  0
   60.0269   31.5003   45.7570 H   0  0  0  0  0  0  0  0  0  0  0  0
  1  2  3  0
  2  3  1  0
  3  4  2  0
  4  5  1  0
  5  6  2  0
  6  7  1  0
  7  8  1  0
  8  9  2  3
  9 10  1  0
 10 11  1  0
 11 12  1  0
 12 13  2  0
 13 14  1  0
 14 15  2  0
 15 16  1  0
 16 17  1  0
 17 18  1  0
 18 19  2  0
 18 20  1  0
 20 21  2  0
 21 22  1  0
 22 23  2  0
 16 24  2  0
  8  3  1  0
 24 12  1  0
 22 17  1  0
  4 25  1  0
  5 26  1  0
  6 27  1  0
 10 28  1  0
 10 29  1  0
 11 30  1  0
 11 31  1  0
 13 32  1  0
 14 33  1  0
 15 34  1  0
 20 35  1  0
 21 36  1  0
 24 37  1  0
M  CHG  1   7  -1
M  END
>  <UniqueID>  (10) 
10

>  <SMILES>  (10) 
N#Cc1ccc[n-]c1=NCCc1cccc(N2C(=O)C=CC2=O)c1

>  <Energy>  (10) 
74.3316927096593

>  <Genealogy>  (10) 
N#Cc1ccc[n-]c1=NCCc1cccc(N2C(=O)C=CC2=O)c1 (protonated)
N#Cc1ccc[n-]c1=NCCc1cccc(N2C(=O)C=CC2=O)c1 (3D coordinates assigned)
N#Cc1ccc[n-]c1=NCCc1cccc(N2C(=O)C=CC2=O)c1 (nonaromatic ring conformer: 74.3316927096593 kcal/mol)

>  <smiles>  (10) 
N#Cc1ccc[nH]c1=NCCc1cccc(N2C(=O)C=CC2=O)c1

>  <score_type>  (10) 
oracle

>  <origin>  (10) 
adg

>  <m_score__min__energy>  (10) 
-9.8800000000000008

>  <m_primary>  (10) 
energy

$$$$
10:0
     RDKit          3D

 60 63  0  0  0  0  0  0  0  0999 V2000
   56.3370   22.6290   41.7430 H   0  0  0  0  0  0  0  0  0  0  0  0
   55.7960   22.3640   42.5980 N   0  0  0  0  0  0  0  0  0  0  0  0
   56.1370   22.7540   43.7860 C   0  0  0  0  0  0  0  0  0  0  0  0
   56.7580   21.8790   44.6240 N   0  0  0  0  0  0  0  0  0  0  0  0
   57.1430   22.2390   45.8770 C   0  0  0  0  0  0  0  0  0  0  0  0
   57.6472   21.5085   46.5267 H   0  0  0  0  0  0  0  0  0  0  0  0
   56.9000   23.5360   46.3430 C   0  0  0  0  0  0  0  0  0  0  0  0
   57.2192   23.8295   47.3539 H   0  0  0  0  0  0  0  0  0  0  0  0
   56.2460   24.4610   45.5120 C   0  0  0  0  0  0  0  0  0  0  0  0
   55.9710   25.8390   45.9940 C   0  0  0  0  0  0  0  0  0  0  0  0
   54.7930   26.2860   45.9360 O   0  0  0  0  0  0  0  0  0  0  0  0
   56.9890   26.6710   46.5780 N   0  0  0  0  0  0  0  0  0  0  0  0
   57.3810   27.8290   46.1300 C   0  0  0  0  0  0  0  0  0  0  0  0
   58.5060   28.4270   46.6150 N   0  0  0  0  0  0  0  0  0  0  0  0
   58.9460   29.6330   46.1680 C   0  0  0  0  0  0  0  0  0  0  0  0
   60.0720   30.2240   46.8380 C   0  0  0  0  0  0  0  0  0  0  0  0
   60.9970   30.7430   47.4140 C   0  0  0  0  0  0  0  0  0  0  0  0
   62.1070   31.3520   48.0950 C   0  0  0  0  0  0  0  0  0  0  0  0
   62.2230   31.2620   49.4880 C   0  0  0  0  0  0  0  0  0  0  0  0
   61.4589   30.7289   50.0727 H   0  0  0  0  0  0  0  0  0  0  0  0
   63.3130   31.8520   50.1310 C   0  0  0  0  0  0  0  0  0  0  0  0
   63.4135   31.7893   51.2246 H   0  0  0  0  0  0  0  0  0  0  0  0
   64.2750   32.5230   49.3710 C   0  0  0  0  0  0  0  0  0  0  0  0
   65.1384   32.9901   49.8674 H   0  0  0  0  0  0  0  0  0  0  0  0
   64.1460   32.6000   48.0160 N   0  0  0  0  0  0  0  0  0  0  0  0
   64.8750   33.1060   47.4630 H   0  0  0  0  0  0  0  0  0  0  0  0
   63.0920   32.0330   47.3680 C   0  0  0  0  0  0  0  0  0  0  0  0
   63.0136   32.1095   46.2735 H   0  0  0  0  0  0  0  0  0  0  0  0
   58.2290   30.3030   45.1530 C   0  0  0  0  0  0  0  0  0  0  0  0
   58.6070   31.5470   44.6280 O   0  0  0  0  0  0  0  0  0  0  0  0
   57.6940   32.5010   44.0830 C   0  0  0  0  0  0  0  0  0  0  0  0
   56.9245   31.9761   43.4979 H   0  0  0  0  0  0  0  0  0  0  0  0
   58.2443   33.1983   43.4342 H   0  0  0  0  0  0  0  0  0  0  0  0
   57.0240   33.2870   45.2120 C   0  0  0  0  0  0  0  0  0  0  0  0
   56.2509   32.6608   45.6814 H   0  0  0  0  0  0  0  0  0  0  0  0
   56.5684   34.1968   44.7941 H   0  0  0  0  0  0  0  0  0  0  0  0
   58.0270   33.6740   46.2330 N   0  0  0  0  0  0  0  0  0  0  0  0
   58.1390   32.6590   47.3010 C   0  0  0  0  0  0  0  0  0  0  0  0
   58.5915   31.7453   46.8883 H   0  0  0  0  0  0  0  0  0  0  0  0
   57.1353   32.4365   47.6922 H   0  0  0  0  0  0  0  0  0  0  0  0
   59.0210   33.1910   48.4490 C   0  0  0  0  0  0  0  0  0  0  0  0
   59.6718   32.3783   48.8040 H   0  0  0  0  0  0  0  0  0  0  0  0
   58.3590   33.5468   49.2522 H   0  0  0  0  0  0  0  0  0  0  0  0
   59.8670   34.3270   48.0120 N   0  0  0  0  0  0  0  0  0  0  0  0
   60.9200   34.5880   49.0060 C   0  0  0  0  0  0  0  0  0  0  0  0
   60.5024   34.4845   50.0184 H   0  0  0  0  0  0  0  0  0  0  0  0
   61.7385   33.8656   48.8714 H   0  0  0  0  0  0  0  0  0  0  0  0
   61.3063   35.6091   48.8714 H   0  0  0  0  0  0  0  0  0  0  0  0
   60.4600   34.0540   46.6870 C   0  0  0  0  0  0  0  0  0  0  0  0
   61.0346   33.1171   46.7328 H   0  0  0  0  0  0  0  0  0  0  0  0
   61.1214   34.8890   46.4123 H   0  0  0  0  0  0  0  0  0  0  0  0
   59.3520   33.9200   45.6210 C   0  0  0  0  0  0  0  0  0  0  0  0
   59.5982   33.0796   44.9553 H   0  0  0  0  0  0  0  0  0  0  0  0
   59.2998   34.8656   45.0615 H   0  0  0  0  0  0  0  0  0  0  0  0
   57.0670   29.7080   44.6520 C   0  0  0  0  0  0  0  0  0  0  0  0
   56.4814   30.2231   43.8763 H   0  0  0  0  0  0  0  0  0  0  0  0
   56.6440   28.4660   45.1280 C   0  0  0  0  0  0  0  0  0  0  0  0
   55.7392   27.9931   44.7184 H   0  0  0  0  0  0  0  0  0  0  0  0
   55.8780   24.0670   44.2140 C   0  0  0  0  0  0  0  0  0  0  0  0
   55.3897   24.7830   43.5366 H   0  0  0  0  0  0  0  0  0  0  0  0
  1  2  1  0
  2  3  2  3
  3  4  1  0
  4  5  1  0
  5  6  1  0
  5  7  2  0
  7  8  1  0
  7  9  1  0
  9 10  1  0
 10 11  2  0
 10 12  1  0
 12 13  2  0
 13 14  1  0
 14 15  1  0
 15 16  1  0
 16 17  3  0
 17 18  1  0
 18 19  2  0
 19 20  1  0
 19 21  1  0
 21 22  1  0
 21 23  2  0
 23 24  1  0
 23 25  1  0
 25 26  1  0
 25 27  2  0
 27 28  1  0
 15 29  2  0
 29 30  1  0
 30 31  1  0
 31 32  1  0
 31 33  1  0
 31 34  1  0
 34 35  1  0
 34 36  1  0
 34 37  1  0
 37 38  1  0
 38 39  1  0
 38 40  1  0
 38 41  1  0
 41 42  1  0
 41 43  1  0
 41 44  1  0
 44 45  1  0
 45 46  1  0
 45 47  1  0
 45 48  1  0
 44 49  1  0
 49 50  1  0
 49 51  1  0
 49 52  1  0
 52 53  1  0
 52 54  1  0
 29 55  1  0
 55 56  1  0
 55 57  2  0
 57 58  1  0
  9 59  2  0
 59 60  1  0
 59  3  1  0
 57 13  1  0
 27 18  1  0
 52 37  1  0
M  CHG  3   4  -1  14  -1  25   1
M  END
>  <UniqueID>  (11) 
11

>  <SMILES>  (11) 
CN1CCN(CCOc2cc/c(=N/C(=O)c3cc[n-]c(=N)c3)[n-]c2C#Cc2ccc[nH+]c2)CC1

>  <Energy>  (11) 
79.9051486415059

>  <Genealogy>  (11) 
CN1CCN(CCOc2ccc(=NC(=O)c3cc[n-]c(=N)c3)[n-]c2C#Cc2ccc[nH+]c2)CC1 (protonated)
CN1CCN(CCOc2cc/c(=N/C(=O)c3cc[n-]c(=N)c3)[n-]c2C#Cc2ccc[nH+]c2)CC1 (cis-trans isomerization)
CN1CCN(CCOc2cc/c(=N/C(=O)c3cc[n-]c(=N)c3)[n-]c2C#Cc2ccc[nH+]c2)CC1 (3D coordinates assigned)
CN1CCN(CCOc2cc/c(=N/C(=O)c3cc[n-]c(=N)c3)[n-]c2C#Cc2ccc[nH+]c2)CC1 (nonaromatic ring conformer: 79.9051486415059 kcal/mol)

>  <smiles>  (11) 
CN1CCN(CCOc2ccc(=NC(=O)c3cc[nH]c(=N)c3)[nH]c2C#Cc2cccnc2)CC1

>  <score_type>  (11) 
oracle

>  <origin>  (11) 
adg

>  <m_score__min__energy>  (11) 
-11.77

>  <m_primary>  (11) 
energy

$$$$
11:0
     RDKit          3D

 41 43  0  0  0  0  0  0  0  0999 V2000
   54.3560   28.9240   44.4880 H   0  0  0  0  0  0  0  0  0  0  0  0
   55.1440   29.3810   44.9310 O   0  0  0  0  0  0  0  0  0  0  0  0
   56.3290   28.7070   45.2250 C   0  0  0  0  0  0  0  0  0  0  0  0
   56.3120   27.3590   45.6200 C   0  0  0  0  0  0  0  0  0  0  0  0
   55.0910   26.7100   45.7800 O   0  0  0  0  0  0  0  0  0  0  0  0
   57.5230   26.6830   45.8790 C   0  0  0  0  0  0  0  0  0  0  0  0
   57.5720   25.2610   46.2870 C   0  0  0  0  0  0  0  0  0  0  0  0
   56.7839   24.8774   46.9516 H   0  0  0  0  0  0  0  0  0  0  0  0
   58.5330   24.4210   45.8830 C   0  0  0  0  0  0  0  0  0  0  0  0
   59.5693   24.7863   45.8318 H   0  0  0  0  0  0  0  0  0  0  0  0
   58.2530   23.0270   45.5050 C   0  0  0  0  0  0  0  0  0  0  0  0
   58.3641   22.7221   44.4539 H   0  0  0  0  0  0  0  0  0  0  0  0
   57.8890   22.1750   46.3580 O   0  0  0  0  0  0  0  0  0  0  0  0
   58.7300   27.3930   45.8050 C   0  0  0  0  0  0  0  0  0  0  0  0
   59.6761   26.8740   46.0184 H   0  0  0  0  0  0  0  0  0  0  0  0
   58.7520   28.7520   45.4640 C   0  0  0  0  0  0  0  0  0  0  0  0
   60.0710   29.4980   45.4460 C   0  0  0  0  0  0  0  0  0  0  0  0
   60.8384   28.8311   45.0261 H   0  0  0  0  0  0  0  0  0  0  0  0
   59.9135   30.4026   44.8402 H   0  0  0  0  0  0  0  0  0  0  0  0
   60.5310   29.9540   46.7790 N   0  0  0  0  0  0  0  0  0  0  0  0
   61.3040   31.2070   46.8070 C   0  0  0  0  0  0  0  0  0  0  0  0
   61.9231   31.2635   45.8995 H   0  0  0  0  0  0  0  0  0  0  0  0
   61.9283   31.2027   47.7127 H   0  0  0  0  0  0  0  0  0  0  0  0
   60.4110   32.4140   46.8620 C   0  0  0  0  0  0  0  0  0  0  0  0
   60.8580   33.6380   46.3390 C   0  0  0  0  0  0  0  0  0  0  0  0
   61.8615   33.7096   45.8943 H   0  0  0  0  0  0  0  0  0  0  0  0
   60.0340   34.7650   46.3810 C   0  0  0  0  0  0  0  0  0  0  0  0
   60.3843   35.7183   45.9585 H   0  0  0  0  0  0  0  0  0  0  0  0
   58.7660   34.6820   46.9590 C   0  0  0  0  0  0  0  0  0  0  0  0
   58.1152   35.5684   46.9861 H   0  0  0  0  0  0  0  0  0  0  0  0
   58.3230   33.4740   47.5030 C   0  0  0  0  0  0  0  0  0  0  0  0
   57.3258   33.4157   47.9636 H   0  0  0  0  0  0  0  0  0  0  0  0
   59.1420   32.3330   47.4660 C   0  0  0  0  0  0  0  0  0  0  0  0
   58.6200   31.0430   48.0440 C   0  0  0  0  0  0  0  0  0  0  0  0
   57.6714   30.8026   47.5416 H   0  0  0  0  0  0  0  0  0  0  0  0
   58.5093   31.2118   49.1253 H   0  0  0  0  0  0  0  0  0  0  0  0
   59.5660   29.8310   47.8890 C   0  0  0  0  0  0  0  0  0  0  0  0
   58.9525   28.9347   47.7149 H   0  0  0  0  0  0  0  0  0  0  0  0
   60.1562   29.7705   48.8153 H   0  0  0  0  0  0  0  0  0  0  0  0
   57.5440   29.3940   45.1280 C   0  0  0  0  0  0  0  0  0  0  0  0
   57.5420   30.7190   44.7030 O   0  0  0  0  0  0  0  0  0  0  0  0
  1  2  1  0
  2  3  1  0
  3  4  2  0
  4  5  1  0
  4  6  1  0
  6  7  1  0
  7  8  1  0
  7  9  2  0
  9 10  1  0
  9 11  1  0
 11 12  1  0
 11 13  2  0
  6 14  2  0
 14 15  1  0
 14 16  1  0
 16 17  1  0
 17 18  1  0
 17 19  1  0
 17 20  1  0
 20 21  1  0
 21 22  1  0
 21 23  1  0
 21 24  1  0
 24 25  2  0
 25 26  1  0
 25 27  1  0
 27 28  1  0
 27 29  2  0
 29 30  1  0
 29 31  1  0
 31 32  1  0
 31 33  2  0
 33 34  1  0
 34 35  1  0
 34 36  1  0
 34 37  1  0
 37 38  1  0
 37 39  1  0
 16 40  2  0
 40 41  1  0
 40  3  1  0
 37 20  1  0
 33 24  1  0
M  CHG  2   5  -1  41  -1
M  END
>  <UniqueID>  (12) 
12

>  <SMILES>  (12) 
O=C/C=C/c1cc(CN2CCc3ccccc3C2)c([O-])c(O)c1[O-]

>  <Energy>  (12) 
57.32859901517698

>  <Genealogy>  (12) 
O=CC=Cc1cc(CN2CCc3ccccc3C2)c([O-])c(O)c1[O-] (protonated)
O=C/C=C/c1cc(CN2CCc3ccccc3C2)c([O-])c(O)c1[O-] (cis-trans isomerization)
O=C/C=C/c1cc(CN2CCc3ccccc3C2)c([O-])c(O)c1[O-] (3D coordinates assigned)
O=C/C=C/c1cc(CN2CCc3ccccc3C2)c([O-])c(O)c1[O-] (nonaromatic ring conformer: 57.32859901517698 kcal/mol)

>  <smiles>  (12) 
O=CC=Cc1cc(CN2CCc3ccccc3C2)c(O)c(O)c1O

>  <score_type>  (12) 
oracle

>  <origin>  (12) 
adg

>  <m_score__min__energy>  (12) 
-13.640000000000001

>  <m_primary>  (12) 
energy

$$$$
12:0
     RDKit          3D

 47 49  0  0  0  0  0  0  0  0999 V2000
   66.6320   30.3360   51.3390 C   0  0  0  0  0  0  0  0  0  0  0  0
   66.3610   31.7050   50.8800 N   0  0  0  0  0  0  0  0  0  0  0  0
   67.3800   32.7390   51.0960 C   0  0  0  0  0  0  0  0  0  0  0  0
   65.1060   32.0280   50.2240 C   0  0  0  0  0  0  0  0  0  0  0  0
   65.0230   33.0950   49.3050 C   0  0  0  0  0  0  0  0  0  0  0  0
   63.8140   33.4050   48.6760 C   0  0  0  0  0  0  0  0  0  0  0  0
   62.6640   32.6620   48.9460 C   0  0  0  0  0  0  0  0  0  0  0  0
   61.4410   33.0110   48.2850 N   0  0  0  0  0  0  0  0  0  0  0  0
   60.3500   32.4010   48.5140 N   0  0  0  0  0  0  0  0  0  0  0  0
   59.5480   31.8220   47.4710 C   0  0  0  0  0  0  0  0  0  0  0  0
   59.1870   32.5450   46.3100 C   0  0  0  0  0  0  0  0  0  0  0  0
   59.4990   34.2820   46.1290 S   0  0  0  0  0  0  0  0  0  0  0  0
   58.9850   35.0200   47.3330 O   0  0  0  0  0  0  0  0  0  0  0  0
   60.9750   34.5320   45.9960 O   0  0  0  0  0  0  0  0  0  0  0  0
   58.7470   34.8580   44.7410 O   0  0  0  0  0  0  0  0  0  0  0  0
   58.5150   31.8910   45.2760 C   0  0  0  0  0  0  0  0  0  0  0  0
   58.1080   30.5550   45.4010 C   0  0  0  0  0  0  0  0  0  0  0  0
   57.4110   29.9320   44.3460 C   0  0  0  0  0  0  0  0  0  0  0  0
   57.1670   30.6170   43.1540 O   0  0  0  0  0  0  0  0  0  0  0  0
   56.9570   28.6200   44.4880 C   0  0  0  0  0  0  0  0  0  0  0  0
   57.1550   27.9230   45.6800 C   0  0  0  0  0  0  0  0  0  0  0  0
   56.5170   26.2860   45.8540 S   0  0  0  0  0  0  0  0  0  0  0  0
   56.8980   25.4680   44.6530 O   0  0  0  0  0  0  0  0  0  0  0  0
   57.0720   25.6350   47.0910 O   0  0  0  0  0  0  0  0  0  0  0  0
   54.8430   26.3470   45.9870 O   0  0  0  0  0  0  0  0  0  0  0  0
   57.8340   28.5350   46.7460 C   0  0  0  0  0  0  0  0  0  0  0  0
   57.9190   27.8480   47.9530 O   0  0  0  0  0  0  0  0  0  0  0  0
   58.3750   29.8430   46.6010 C   0  0  0  0  0  0  0  0  0  0  0  0
   59.1430   30.4770   47.6190 C   0  0  0  0  0  0  0  0  0  0  0  0
   59.6030   29.7500   48.7690 N   0  0  0  0  0  0  0  0  0  0  0  0
   62.7300   31.5980   49.8600 C   0  0  0  0  0  0  0  0  0  0  0  0
   63.9370   31.2850   50.4900 C   0  0  0  0  0  0  0  0  0  0  0  0
   66.6367   30.3122   52.4387 H   0  0  0  0  0  0  0  0  0  0  0  0
   65.8501   29.6610   50.9610 H   0  0  0  0  0  0  0  0  0  0  0  0
   67.6122   30.0098   50.9610 H   0  0  0  0  0  0  0  0  0  0  0  0
   67.5274   32.8886   52.1758 H   0  0  0  0  0  0  0  0  0  0  0  0
   68.3278   32.4212   50.6371 H   0  0  0  0  0  0  0  0  0  0  0  0
   67.0484   33.6821   50.6371 H   0  0  0  0  0  0  0  0  0  0  0  0
   65.9205   33.6901   49.0808 H   0  0  0  0  0  0  0  0  0  0  0  0
   63.7686   34.2411   47.9626 H   0  0  0  0  0  0  0  0  0  0  0  0
   58.3004   32.4347   44.3442 H   0  0  0  0  0  0  0  0  0  0  0  0
   57.7260   30.4590   42.3230 H   0  0  0  0  0  0  0  0  0  0  0  0
   56.4375   28.1303   43.6511 H   0  0  0  0  0  0  0  0  0  0  0  0
   59.2350   28.7970   48.9860 H   0  0  0  0  0  0  0  0  0  0  0  0
   60.1330   30.2330   49.5270 H   0  0  0  0  0  0  0  0  0  0  0  0
   61.8278   31.0087   50.0808 H   0  0  0  0  0  0  0  0  0  0  0  0
   63.9762   30.4481   51.2028 H   0  0  0  0  0  0  0  0  0  0  0  0
  1  2  1  0
  2  3  1  0
  2  4  1  0
  4  5  2  0
  5  6  1  0
  6  7  2  0
  7  8  1  0
  8  9  2  3
  9 10  1  0
 10 11  2  0
 11 12  1  0
 12 13  2  0
 12 14  2  0
 12 15  1  0
 11 16  1  0
 16 17  2  0
 17 18  1  0
 18 19  1  0
 18 20  2  0
 20 21  1  0
 21 22  1  0
 22 23  2  0
 22 24  2  0
 22 25  1  0
 21 26  2  0
 26 27  1  0
 26 28  1  0
 28 29  2  0
 29 30  1  0
  7 31  1  0
 31 32  2  0
 32  4  1  0
 29 10  1  0
 28 17  1  0
  1 33  1  0
  1 34  1  0
  1 35  1  0
  3 36  1  0
  3 37  1  0
  3 38  1  0
  5 39  1  0
  6 40  1  0
 16 41  1  0
 19 42  1  0
 20 43  1  0
 30 44  1  0
 30 45  1  0
 31 46  1  0
 32 47  1  0
M  CHG  3  15  -1  25  -1  27  -1
M  END
>  <UniqueID>  (13) 
13

>  <SMILES>  (13) 
CN(C)c1ccc(N=Nc2c(S(=O)(=O)[O-])cc3c(O)cc(S(=O)(=O)[O-])c([O-])c3c2N)cc1

>  <Energy>  (13) 
72.84233357595262

>  <Genealogy>  (13) 
CN(C)c1ccc(N=Nc2c(S(=O)(=O)[O-])cc3c(O)cc(S(=O)(=O)[O-])c([O-])c3c2N)cc1 (protonated)
CN(C)c1ccc(N=Nc2c(S(=O)(=O)[O-])cc3c(O)cc(S(=O)(=O)[O-])c([O-])c3c2N)cc1 (3D coordinates assigned)
CN(C)c1ccc(N=Nc2c(S(=O)(=O)[O-])cc3c(O)cc(S(=O)(=O)[O-])c([O-])c3c2N)cc1 (optimized conformer: 72.84233357595262 kcal/mol)

>  <smiles>  (13) 
CN(C)c1ccc(N=Nc2c(S(=O)(=O)O)cc3c(O)cc(S(=O)(=O)O)c(O)c3c2N)cc1

>  <score_type>  (13) 
oracle

>  <origin>  (13) 
adg

>  <m_score__min__energy>  (13) 
-12.68

>  <m_primary>  (13) 
energy

$$$$
13:0
     RDKit          3D

 41 44  0  0  0  0  0  0  0  0999 V2000
   63.3180   33.2710   46.7400 O   0  0  0  0  0  0  0  0  0  0  0  0
   62.8200   33.1300   47.8910 C   0  0  0  0  0  0  0  0  0  0  0  0
   61.4620   33.5330   48.1330 N   0  0  0  0  0  0  0  0  0  0  0  0
   60.4710   33.6610   47.0980 C   0  0  0  0  0  0  0  0  0  0  0  0
   60.2310   34.9190   46.5250 C   0  0  0  0  0  0  0  0  0  0  0  0
   59.2600   35.0700   45.5340 C   0  0  0  0  0  0  0  0  0  0  0  0
   58.5080   33.9720   45.1130 C   0  0  0  0  0  0  0  0  0  0  0  0
   58.7170   32.7080   45.6890 C   0  0  0  0  0  0  0  0  0  0  0  0
   57.9150   31.5450   45.2620 C   0  0  0  0  0  0  0  0  0  0  0  0
   56.6380   31.6120   44.8350 N   0  0  0  0  0  0  0  0  0  0  0  0
   56.2760   30.3730   44.5450 N   0  0  0  0  0  0  0  0  0  0  0  0
   57.3440   29.5940   44.8050 C   0  0  0  0  0  0  0  0  0  0  0  0
   57.3780   28.1300   44.6210 C   0  0  0  0  0  0  0  0  0  0  0  0
   57.7740   27.5820   43.3890 C   0  0  0  0  0  0  0  0  0  0  0  0
   57.8060   26.1960   43.2120 C   0  0  0  0  0  0  0  0  0  0  0  0
   57.4460   25.3450   44.2610 C   0  0  0  0  0  0  0  0  0  0  0  0
   57.0510   25.8810   45.4890 C   0  0  0  0  0  0  0  0  0  0  0  0
   57.0160   27.2670   45.6720 C   0  0  0  0  0  0  0  0  0  0  0  0
   58.3530   30.3080   45.2450 O   0  0  0  0  0  0  0  0  0  0  0  0
   59.6950   32.5610   46.6870 C   0  0  0  0  0  0  0  0  0  0  0  0
   63.6620   32.5950   48.9890 C   0  0  0  0  0  0  0  0  0  0  0  0
   63.1600   31.5920   49.8410 C   0  0  0  0  0  0  0  0  0  0  0  0
   63.9450   31.0870   50.8800 C   0  0  0  0  0  0  0  0  0  0  0  0
   65.2340   31.5800   51.0890 C   0  0  0  0  0  0  0  0  0  0  0  0
   65.7420   32.5830   50.2580 C   0  0  0  0  0  0  0  0  0  0  0  0
   67.3580   33.2110   50.5290 Cl  0  0  0  0  0  0  0  0  0  0  0  0
   64.9600   33.0910   49.2150 C   0  0  0  0  0  0  0  0  0  0  0  0
   61.2110   33.8610   49.0930 H   0  0  0  0  0  0  0  0  0  0  0  0
   60.8117   35.7916   46.8589 H   0  0  0  0  0  0  0  0  0  0  0  0
   59.0866   36.0582   45.0829 H   0  0  0  0  0  0  0  0  0  0  0  0
   57.7487   34.0970   44.3270 H   0  0  0  0  0  0  0  0  0  0  0  0
   58.0600   28.2467   42.5605 H   0  0  0  0  0  0  0  0  0  0  0  0
   58.1153   25.7736   42.2446 H   0  0  0  0  0  0  0  0  0  0  0  0
   57.4737   24.2545   44.1196 H   0  0  0  0  0  0  0  0  0  0  0  0
   56.7668   25.2113   46.3140 H   0  0  0  0  0  0  0  0  0  0  0  0
   56.7044   27.6841   46.6410 H   0  0  0  0  0  0  0  0  0  0  0  0
   59.8557   31.5769   47.1515 H   0  0  0  0  0  0  0  0  0  0  0  0
   62.1424   31.2036   49.6870 H   0  0  0  0  0  0  0  0  0  0  0  0
   63.5463   30.2986   51.5354 H   0  0  0  0  0  0  0  0  0  0  0  0
   65.8501   31.1794   51.9075 H   0  0  0  0  0  0  0  0  0  0  0  0
   65.3622   33.8836   48.5669 H   0  0  0  0  0  0  0  0  0  0  0  0
  1  2  2  0
  2  3  1  0
  3  4  1  0
  4  5  2  0
  5  6  1  0
  6  7  2  0
  7  8  1  0
  8  9  1  0
  9 10  2  0
 10 11  1  0
 11 12  2  0
 12 13  1  0
 13 14  2  0
 14 15  1  0
 15 16  2  0
 16 17  1  0
 17 18  2  0
 12 19  1  0
  8 20  2  0
  2 21  1  0
 21 22  2  0
 22 23  1  0
 23 24  2  0
 24 25  1  0
 25 26  1  0
 25 27  2  0
 20  4  1  0
 27 21  1  0
 19  9  1  0
 18 13  1  0
  3 28  1  0
  5 29  1  0
  6 30  1  0
  7 31  1  0
 14 32  1  0
 15 33  1  0
 16 34  1  0
 17 35  1  0
 18 36  1  0
 20 37  1  0
 22 38  1  0
 23 39  1  0
 24 40  1  0
 27 41  1  0
M  END
>  <UniqueID>  (14) 
14

>  <SMILES>  (14) 
O=C(Nc1cccc(-c2nnc(-c3ccccc3)o2)c1)c1cccc(Cl)c1

>  <Energy>  (14) 
86.19229136799673

>  <Genealogy>  (14) 
O=C(Nc1cccc(-c2nnc(-c3ccccc3)o2)c1)c1cccc(Cl)c1 (3D coordinates assigned)
O=C(Nc1cccc(-c2nnc(-c3ccccc3)o2)c1)c1cccc(Cl)c1 (optimized conformer: 86.19229136799673 kcal/mol)

>  <smiles>  (14) 
O=C(Nc1cccc(-c2nnc(-c3ccccc3)o2)c1)c1cccc(Cl)c1

>  <score_type>  (14) 
oracle

>  <origin>  (14) 
adg

>  <m_score__min__energy>  (14) 
-9.4100000000000001

>  <m_primary>  (14) 
energy

$$$$
14:0
     RDKit          3D

 47 49  0  0  0  0  0  0  0  0999 V2000
   55.1430   25.9520   46.0420 N   0  0  0  0  0  0  0  0  0  0  0  0
   56.2530   26.2580   46.1520 C   0  0  0  0  0  0  0  0  0  0  0  0
   57.6370   26.6390   46.2880 C   0  0  0  0  0  0  0  0  0  0  0  0
   58.3250   26.2840   47.4580 C   0  0  0  0  0  0  0  0  0  0  0  0
   59.6450   26.6960   47.6520 C   0  0  0  0  0  0  0  0  0  0  0  0
   60.2850   27.4740   46.6850 C   0  0  0  0  0  0  0  0  0  0  0  0
   59.6090   27.8330   45.5160 C   0  0  0  0  0  0  0  0  0  0  0  0
   58.2910   27.4050   45.2970 C   0  0  0  0  0  0  0  0  0  0  0  0
   57.6260   27.7910   44.0850 N   0  0  0  0  0  0  0  0  0  0  0  0
   57.6120   29.1810   43.6310 C   0  0  0  0  0  0  0  0  0  0  0  0
   56.5130   29.9420   44.3200 C   0  0  0  0  0  0  0  0  0  0  0  0
   55.4570   29.3370   44.6460 O   0  0  0  0  0  0  0  0  0  0  0  0
   56.6430   31.3320   44.6470 N   0  0  0  0  0  0  0  0  0  0  0  0
   57.4570   31.8880   45.6870 C   0  0  0  0  0  0  0  0  0  0  0  0
   58.3440   31.0520   46.3740 C   0  0  0  0  0  0  0  0  0  0  0  0
   59.1420   31.5600   47.4040 C   0  0  0  0  0  0  0  0  0  0  0  0
   59.0490   32.9100   47.7680 C   0  0  0  0  0  0  0  0  0  0  0  0
   60.0810   33.5610   49.0450 S   0  0  0  0  0  0  0  0  0  0  0  0
   59.9080   32.7360   50.2900 O   0  0  0  0  0  0  0  0  0  0  0  0
   59.6550   34.9690   49.3560 O   0  0  0  0  0  0  0  0  0  0  0  0
   61.7670   33.5510   48.5770 N   0  0  0  0  0  0  0  0  0  0  0  0
   62.4340   32.2900   48.9680 C   0  0  0  0  0  0  0  0  0  0  0  0
   62.6680   31.3610   47.7630 C   0  0  0  0  0  0  0  0  0  0  0  0
   63.4550   31.9570   46.7400 O   0  0  0  0  0  0  0  0  0  0  0  0
   63.2590   33.3600   46.6080 C   0  0  0  0  0  0  0  0  0  0  0  0
   61.9050   33.8570   47.1400 C   0  0  0  0  0  0  0  0  0  0  0  0
   58.1300   33.7390   47.1110 C   0  0  0  0  0  0  0  0  0  0  0  0
   57.3330   33.2310   46.0810 C   0  0  0  0  0  0  0  0  0  0  0  0
   57.8222   25.6782   48.2262 H   0  0  0  0  0  0  0  0  0  0  0  0
   60.1815   26.4073   48.5679 H   0  0  0  0  0  0  0  0  0  0  0  0
   61.3221   27.8045   46.8437 H   0  0  0  0  0  0  0  0  0  0  0  0
   60.1136   28.4554   44.7623 H   0  0  0  0  0  0  0  0  0  0  0  0
   56.8490   27.1790   43.7450 H   0  0  0  0  0  0  0  0  0  0  0  0
   58.5796   29.6492   43.8645 H   0  0  0  0  0  0  0  0  0  0  0  0
   57.4366   29.2019   42.5453 H   0  0  0  0  0  0  0  0  0  0  0  0
   58.4141   29.9884   46.1022 H   0  0  0  0  0  0  0  0  0  0  0  0
   59.8451   30.8976   47.9302 H   0  0  0  0  0  0  0  0  0  0  0  0
   63.4054   32.5295   49.4252 H   0  0  0  0  0  0  0  0  0  0  0  0
   61.7774   31.7654   49.6777 H   0  0  0  0  0  0  0  0  0  0  0  0
   63.1814   30.4542   48.1153 H   0  0  0  0  0  0  0  0  0  0  0  0
   61.6830   31.1360   47.3280 H   0  0  0  0  0  0  0  0  0  0  0  0
   64.0579   33.8742   47.1625 H   0  0  0  0  0  0  0  0  0  0  0  0
   63.2781   33.5832   45.5311 H   0  0  0  0  0  0  0  0  0  0  0  0
   61.8367   34.9451   46.9940 H   0  0  0  0  0  0  0  0  0  0  0  0
   61.0997   33.3478   46.5903 H   0  0  0  0  0  0  0  0  0  0  0  0
   58.0353   34.7942   47.4070 H   0  0  0  0  0  0  0  0  0  0  0  0
   56.6061   33.8850   45.5771 H   0  0  0  0  0  0  0  0  0  0  0  0
  1  2  3  0
  2  3  1  0
  3  4  2  0
  4  5  1  0
  5  6  2  0
  6  7  1  0
  7  8  2  0
  8  9  1  0
  9 10  1  0
 10 11  1  0
 11 12  2  0
 11 13  1  0
 13 14  1  0
 14 15  2  0
 15 16  1  0
 16 17  2  0
 17 18  1  0
 18 19  2  0
 18 20  2  0
 18 21  1  0
 21 22  1  0
 22 23  1  0
 23 24  1  0
 24 25  1  0
 25 26  1  0
 17 27  1  0
 27 28  2  0
  8  3  1  0
 28 14  1  0
 26 21  1  0
  4 29  1  0
  5 30  1  0
  6 31  1  0
  7 32  1  0
  9 33  1  0
 10 34  1  0
 10 35  1  0
 15 36  1  0
 16 37  1  0
 22 38  1  0
 22 39  1  0
 23 40  1  0
 23 41  1  0
 25 42  1  0
 25 43  1  0
 26 44  1  0
 26 45  1  0
 27 46  1  0
 28 47  1  0
M  CHG  1  13  -1
M  END
>  <UniqueID>  (15) 
15

>  <SMILES>  (15) 
N#Cc1ccccc1NCC(=O)[N-]c1ccc(S(=O)(=O)N2CCOCC2)cc1

>  <Energy>  (15) 
68.12955476896022

>  <Genealogy>  (15) 
N#Cc1ccccc1NCC(=O)[N-]c1ccc(S(=O)(=O)N2CCOCC2)cc1 (protonated)
N#Cc1ccccc1NCC(=O)[N-]c1ccc(S(=O)(=O)N2CCOCC2)cc1 (3D coordinates assigned)
N#Cc1ccccc1NCC(=O)[N-]c1ccc(S(=O)(=O)N2CCOCC2)cc1 (nonaromatic ring conformer: 68.12955476896022 kcal/mol)

>  <smiles>  (15) 
N#Cc1ccccc1NCC(=O)Nc1ccc(S(=O)(=O)N2CCOCC2)cc1

>  <score_type>  (15) 
oracle

>  <origin>  (15) 
adg

>  <m_score__min__energy>  (15) 
-11.19

>  <m_primary>  (15) 
energy

$$$$
15:0
     RDKit          3D

 37 40  0  0  0  0  0  0  0  0999 V2000
   59.3450   30.0830   51.1110 C   0  0  0  0  0  0  0  0  0  0  0  0
   60.4400   29.9020   50.2180 O   0  0  0  0  0  0  0  0  0  0  0  0
   60.3160   29.7920   48.8250 C   0  0  0  0  0  0  0  0  0  0  0  0
   61.4120   30.1390   48.0290 C   0  0  0  0  0  0  0  0  0  0  0  0
   61.3320   30.0540   46.6370 C   0  0  0  0  0  0  0  0  0  0  0  0
   60.1520   29.6250   46.0270 C   0  0  0  0  0  0  0  0  0  0  0  0
   59.0380   29.2740   46.8060 C   0  0  0  0  0  0  0  0  0  0  0  0
   57.7830   28.8280   46.1610 C   0  0  0  0  0  0  0  0  0  0  0  0
   57.1600   27.6020   46.3230 C   0  0  0  0  0  0  0  0  0  0  0  0
   57.6290   26.5670   47.1230 O   0  0  0  0  0  0  0  0  0  0  0  0
   56.0090   27.5240   45.6270 N   0  0  0  0  0  0  0  0  0  0  0  0
   55.8980   28.7180   45.0130 C   0  0  0  0  0  0  0  0  0  0  0  0
   54.8580   29.0270   44.1460 O   0  0  0  0  0  0  0  0  0  0  0  0
   56.9550   29.5560   45.3190 C   0  0  0  0  0  0  0  0  0  0  0  0
   57.2040   30.8960   44.7550 C   0  0  0  0  0  0  0  0  0  0  0  0
   57.0650   31.2680   43.4200 C   0  0  0  0  0  0  0  0  0  0  0  0
   57.3890   32.5700   43.2570 N   0  0  0  0  0  0  0  0  0  0  0  0
   57.7380   33.0230   44.4740 C   0  0  0  0  0  0  0  0  0  0  0  0
   58.1800   34.3030   44.8020 C   0  0  0  0  0  0  0  0  0  0  0  0
   58.5350   34.5550   46.1400 C   0  0  0  0  0  0  0  0  0  0  0  0
   58.4510   33.5290   47.1060 C   0  0  0  0  0  0  0  0  0  0  0  0
   58.0050   32.2440   46.7470 C   0  0  0  0  0  0  0  0  0  0  0  0
   57.6390   32.0300   45.4160 C   0  0  0  0  0  0  0  0  0  0  0  0
   59.1310   29.3470   48.2080 C   0  0  0  0  0  0  0  0  0  0  0  0
   59.7046   30.0236   52.1489 H   0  0  0  0  0  0  0  0  0  0  0  0
   58.8889   31.0687   50.9369 H   0  0  0  0  0  0  0  0  0  0  0  0
   58.5960   29.2965   50.9369 H   0  0  0  0  0  0  0  0  0  0  0  0
   62.3440   30.4814   48.5024 H   0  0  0  0  0  0  0  0  0  0  0  0
   62.2011   30.3258   46.0199 H   0  0  0  0  0  0  0  0  0  0  0  0
   60.0947   29.5616   44.9303 H   0  0  0  0  0  0  0  0  0  0  0  0
   56.7377   30.5968   42.6123 H   0  0  0  0  0  0  0  0  0  0  0  0
   57.3810   33.1090   42.3620 H   0  0  0  0  0  0  0  0  0  0  0  0
   58.2493   35.0920   44.0387 H   0  0  0  0  0  0  0  0  0  0  0  0
   58.8799   35.5570   46.4349 H   0  0  0  0  0  0  0  0  0  0  0  0
   58.7366   33.7360   48.1479 H   0  0  0  0  0  0  0  0  0  0  0  0
   57.9464   31.4347   47.4897 H   0  0  0  0  0  0  0  0  0  0  0  0
   58.2706   29.0539   48.8275 H   0  0  0  0  0  0  0  0  0  0  0  0
  1  2  1  0
  2  3  1  0
  3  4  2  0
  4  5  1  0
  5  6  2  0
  6  7  1  0
  7  8  1  0
  8  9  2  0
  9 10  1  0
  9 11  1  0
 11 12  1  0
 12 13  1  0
 12 14  2  0
 14 15  1  0
 15 16  2  0
 16 17  1  0
 17 18  1  0
 18 19  2  0
 19 20  1  0
 20 21  2  0
 21 22  1  0
 22 23  2  0
  7 24  2  0
 24  3  1  0
 14  8  1  0
 23 15  1  0
 23 18  1  0
  1 25  1  0
  1 26  1  0
  1 27  1  0
  4 28  1  0
  5 29  1  0
  6 30  1  0
 16 31  1  0
 17 32  1  0
 19 33  1  0
 20 34  1  0
 21 35  1  0
 22 36  1  0
 24 37  1  0
M  CHG  3  10  -1  11  -1  13  -1
M  END
>  <UniqueID>  (16) 
16

>  <SMILES>  (16) 
COc1cccc(-c2c([O-])[n-]c([O-])c2-c2c[nH]c3ccccc23)c1

>  <Energy>  (16) 
109.2071273423624

>  <Genealogy>  (16) 
COc1cccc(-c2c([O-])[n-]c([O-])c2-c2c[nH]c3ccccc23)c1 (protonated)
COc1cccc(-c2c([O-])[n-]c([O-])c2-c2c[nH]c3ccccc23)c1 (3D coordinates assigned)
COc1cccc(-c2c([O-])[n-]c([O-])c2-c2c[nH]c3ccccc23)c1 (optimized conformer: 109.2071273423624 kcal/mol)

>  <smiles>  (16) 
COc1cccc(-c2c(O)[nH]c(O)c2-c2c[nH]c3ccccc23)c1

>  <score_type>  (16) 
oracle

>  <origin>  (16) 
adg

>  <m_score__min__energy>  (16) 
-12.69

>  <m_primary>  (16) 
energy

$$$$
16:0
     RDKit          3D

 62 66  0  0  0  0  0  0  0  0999 V2000
   64.6159   32.2547   49.2496 H   0  0  0  0  0  0  0  0  0  0  0  0
   63.6940   32.6960   48.8430 C   0  0  0  0  0  0  0  0  0  0  0  0
   62.8830   33.4930   49.6560 C   0  0  0  0  0  0  0  0  0  0  0  0
   63.1676   33.6795   50.7021 H   0  0  0  0  0  0  0  0  0  0  0  0
   61.7090   34.0540   49.1400 C   0  0  0  0  0  0  0  0  0  0  0  0
   61.0651   34.6672   49.7875 H   0  0  0  0  0  0  0  0  0  0  0  0
   61.3490   33.8380   47.8000 C   0  0  0  0  0  0  0  0  0  0  0  0
   60.1200   34.4970   47.2220 C   0  0  0  0  0  0  0  0  0  0  0  0
   60.2407   34.5763   46.1315 H   0  0  0  0  0  0  0  0  0  0  0  0
   60.0188   35.4884   47.6878 H   0  0  0  0  0  0  0  0  0  0  0  0
   58.8390   33.7040   47.5210 C   0  0  0  0  0  0  0  0  0  0  0  0
   58.8635   32.7550   46.9653 H   0  0  0  0  0  0  0  0  0  0  0  0
   57.9706   34.3043   47.2119 H   0  0  0  0  0  0  0  0  0  0  0  0
   58.7300   33.4200   48.9530 N   0  0  0  0  0  0  0  0  0  0  0  0
   58.6670   32.2310   49.4800 C   0  0  0  0  0  0  0  0  0  0  0  0
   59.5420   31.2570   49.1100 N   0  0  0  0  0  0  0  0  0  0  0  0
   59.4300   30.0010   49.6140 C   0  0  0  0  0  0  0  0  0  0  0  0
   60.2540   29.0610   49.2630 N   0  0  0  0  0  0  0  0  0  0  0  0
   60.1020   28.2070   48.0810 C   0  0  2  0  0  0  0  0  0  0  0  0
   60.7657   27.3310   48.1265 H   0  0  0  0  0  0  0  0  0  0  0  0
   60.5200   29.0110   46.8250 C   0  0  0  0  0  0  0  0  0  0  0  0
   60.9219   28.3137   46.0752 H   0  0  0  0  0  0  0  0  0  0  0  0
   61.2770   29.7480   47.1312 H   0  0  0  0  0  0  0  0  0  0  0  0
   59.3620   29.7600   46.2200 C   0  0  0  0  0  0  0  0  0  0  0  0
   59.5140   31.0600   45.7140 C   0  0  0  0  0  0  0  0  0  0  0  0
   60.4835   31.5731   45.7967 H   0  0  0  0  0  0  0  0  0  0  0  0
   58.4310   31.7030   45.1040 C   0  0  0  0  0  0  0  0  0  0  0  0
   58.5470   32.7265   44.7180 H   0  0  0  0  0  0  0  0  0  0  0  0
   57.2010   31.0470   44.9840 C   0  0  0  0  0  0  0  0  0  0  0  0
   56.3525   31.5555   44.5029 H   0  0  0  0  0  0  0  0  0  0  0  0
   57.0480   29.7470   45.4740 C   0  0  0  0  0  0  0  0  0  0  0  0
   56.0823   29.2303   45.3717 H   0  0  0  0  0  0  0  0  0  0  0  0
   58.1280   29.1010   46.0970 C   0  0  0  0  0  0  0  0  0  0  0  0
   58.0060   27.7030   46.6380 C   0  0  0  0  0  0  0  0  0  0  0  0
   58.5165   27.0024   45.9609 H   0  0  0  0  0  0  0  0  0  0  0  0
   56.9427   27.4318   46.7143 H   0  0  0  0  0  0  0  0  0  0  0  0
   58.6520   27.6320   48.0290 C   0  0  0  0  0  0  0  0  0  0  0  0
   58.6856   26.5781   48.3423 H   0  0  0  0  0  0  0  0  0  0  0  0
   58.0378   28.2515   48.6991 H   0  0  0  0  0  0  0  0  0  0  0  0
   58.4250   29.7170   50.4760 N   0  0  0  0  0  0  0  0  0  0  0  0
   57.5420   30.6790   50.8520 C   0  0  0  0  0  0  0  0  0  0  0  0
   56.5420   30.3930   51.6340 N   0  0  0  0  0  0  0  0  0  0  0  0
   55.6530   31.3790   52.2510 C   0  0  0  0  0  0  0  0  0  0  0  0
   55.8231   32.3603   51.7839 H   0  0  0  0  0  0  0  0  0  0  0  0
   55.8708   31.4251   53.3282 H   0  0  0  0  0  0  0  0  0  0  0  0
   54.2090   30.9870   52.0660 C   0  0  0  0  0  0  0  0  0  0  0  0
   53.7940   29.6640   52.2950 C   0  0  0  0  0  0  0  0  0  0  0  0
   54.5172   28.9169   52.6539 H   0  0  0  0  0  0  0  0  0  0  0  0
   52.4640   29.2940   52.0680 C   0  0  0  0  0  0  0  0  0  0  0  0
   52.1440   28.2568   52.2463 H   0  0  0  0  0  0  0  0  0  0  0  0
   51.5420   30.2410   51.6150 C   0  0  0  0  0  0  0  0  0  0  0  0
   50.4973   29.9478   51.4344 H   0  0  0  0  0  0  0  0  0  0  0  0
   51.9450   31.5600   51.3910 C   0  0  0  0  0  0  0  0  0  0  0  0
   51.0260   32.4990   50.9390 O   0  0  0  0  0  0  0  0  0  0  0  0
   53.2740   31.9340   51.6180 C   0  0  0  0  0  0  0  0  0  0  0  0
   53.5876   32.9740   51.4448 H   0  0  0  0  0  0  0  0  0  0  0  0
   57.6820   31.9450   50.3730 N   0  0  0  0  0  0  0  0  0  0  0  0
   56.9990   32.6870   50.6530 H   0  0  0  0  0  0  0  0  0  0  0  0
   62.1720   33.0380   46.9890 C   0  0  0  0  0  0  0  0  0  0  0  0
   61.9023   32.8651   45.9367 H   0  0  0  0  0  0  0  0  0  0  0  0
   63.3340   32.4600   47.5150 C   0  0  0  0  0  0  0  0  0  0  0  0
   63.9641   31.8190   46.8808 H   0  0  0  0  0  0  0  0  0  0  0  0
  1  2  1  0
  2  3  2  0
  3  4  1  0
  3  5  1  0
  5  6  1  0
  5  7  2  0
  7  8  1  0
  8  9  1  0
  8 10  1  0
  8 11  1  0
 11 12  1  0
 11 13  1  0
 11 14  1  0
 14 15  2  0
 15 16  1  0
 16 17  1  0
 17 18  2  0
 18 19  1  0
 19 20  1  1
 19 21  1  0
 21 22  1  0
 21 23  1  0
 21 24  1  0
 24 25  2  0
 25 26  1  0
 25 27  1  0
 27 28  1  0
 27 29  2  0
 29 30  1  0
 29 31  1  0
 31 32  1  0
 31 33  2  0
 33 34  1  0
 34 35  1  0
 34 36  1  0
 34 37  1  0
 37 38  1  0
 37 39  1  0
 17 40  1  0
 40 41  1  0
 41 42  2  3
 42 43  1  0
 43 44  1  0
 43 45  1  0
 43 46  1  0
 46 47  2  0
 47 48  1  0
 47 49  1  0
 49 50  1  0
 49 51  2  0
 51 52  1  0
 51 53  1  0
 53 54  1  0
 53 55  2  0
 55 56  1  0
 41 57  1  0
 57 58  1  0
  7 59  1  0
 59 60  1  0
 59 61  2  0
 61 62  1  0
 61  2  1  0
 57 15  1  0
 37 19  1  0
 55 46  1  0
 33 24  1  0
M  CHG  3  16  -1  40  -1  54  -1
M  END
>  <UniqueID>  (17) 
17

>  <SMILES>  (17) 
[O-]c1cccc(CN=c2[n-]/c(=N/[C@H]3CCc4ccccc4C3)[n-]/c(=N\CCc3ccccc3)[nH]2)c1

>  <Energy>  (17) 
67.08817116497525

>  <Genealogy>  (17) 
[O-]c1cccc(CN=c2[n-]c(=NC3CCc4ccccc4C3)[n-]c(=NCCc3ccccc3)[nH]2)c1 (protonated)
[O-]c1cccc(CN=c2[n-]c(=N[C@H]3CCc4ccccc4C3)[n-]c(=NCCc3ccccc3)[nH]2)c1 (chirality)
[O-]c1cccc(CN=c2[n-]/c(=N/[C@H]3CCc4ccccc4C3)[n-]/c(=N\CCc3ccccc3)[nH]2)c1 (cis-trans isomerization)
[O-]c1cccc(CN=c2[n-]/c(=N/[C@H]3CCc4ccccc4C3)[n-]/c(=N\CCc3ccccc3)[nH]2)c1 (3D coordinates assigned)
[O-]c1cccc(CN=c2[n-]/c(=N/[C@H]3CCc4ccccc4C3)[n-]/c(=N\CCc3ccccc3)[nH]2)c1 (nonaromatic ring conformer: 67.08817116497525 kcal/mol)

>  <smiles>  (17) 
Oc1cccc(CN=c2[nH]c(=NCCc3ccccc3)[nH]c(=NC3CCc4ccccc4C3)[nH]2)c1

>  <score_type>  (17) 
oracle

>  <origin>  (17) 
adg

>  <m_score__min__energy>  (17) 
-16.77

>  <m_primary>  (17) 
energy

$$$$
17:0
     RDKit          3D

 39 41  0  0  0  0  0  0  0  0999 V2000
   55.2200   30.4510   44.4820 O   0  0  0  0  0  0  0  0  0  0  0  0
   56.1640   29.7020   44.8490 C   0  0  0  0  0  0  0  0  0  0  0  0
   55.9140   28.3440   45.2380 N   0  0  0  0  0  0  0  0  0  0  0  0
   56.8660   27.4130   45.7720 C   0  0  0  0  0  0  0  0  0  0  0  0
   58.2290   27.6960   45.6300 C   0  0  0  0  0  0  0  0  0  0  0  0
   59.1890   26.8130   46.1310 C   0  0  0  0  0  0  0  0  0  0  0  0
   58.7960   25.6280   46.7560 C   0  0  0  0  0  0  0  0  0  0  0  0
   57.4310   25.3040   46.8620 C   0  0  0  0  0  0  0  0  0  0  0  0
   56.9820   24.0980   47.4970 N   0  0  0  0  0  0  0  0  0  0  0  0
   57.0170   22.7750   46.9440 C   0  0  0  0  0  0  0  0  0  0  0  0
   57.2070   21.7800   47.6940 O   0  0  0  0  0  0  0  0  0  0  0  0
   56.8820   22.5800   45.4800 C   0  0  0  0  0  0  0  0  0  0  0  0
   57.6920   21.6460   44.8060 C   0  0  0  0  0  0  0  0  0  0  0  0
   57.5630   21.4620   43.4260 C   0  0  0  0  0  0  0  0  0  0  0  0
   56.6270   22.2040   42.7040 C   0  0  0  0  0  0  0  0  0  0  0  0
   55.8170   23.1340   43.3610 C   0  0  0  0  0  0  0  0  0  0  0  0
   55.9410   23.3230   44.7410 C   0  0  0  0  0  0  0  0  0  0  0  0
   56.4730   26.2060   46.3800 C   0  0  0  0  0  0  0  0  0  0  0  0
   57.4920   30.2290   44.8910 N   0  0  0  0  0  0  0  0  0  0  0  0
   57.8200   31.5480   45.3450 C   0  0  0  0  0  0  0  0  0  0  0  0
   57.3920   32.6460   44.5870 C   0  0  0  0  0  0  0  0  0  0  0  0
   57.6920   33.9480   44.9950 C   0  0  0  0  0  0  0  0  0  0  0  0
   58.4080   34.1630   46.1750 C   0  0  0  0  0  0  0  0  0  0  0  0
   58.8110   33.0770   46.9560 C   0  0  0  0  0  0  0  0  0  0  0  0
   58.5150   31.7680   46.5540 C   0  0  0  0  0  0  0  0  0  0  0  0
   58.9470   30.4440   47.6310 Cl  0  0  0  0  0  0  0  0  0  0  0  0
   58.5463   28.6183   45.1214 H   0  0  0  0  0  0  0  0  0  0  0  0
   60.2581   27.0523   46.0327 H   0  0  0  0  0  0  0  0  0  0  0  0
   59.5553   24.9461   47.1665 H   0  0  0  0  0  0  0  0  0  0  0  0
   58.4312   21.0572   45.3689 H   0  0  0  0  0  0  0  0  0  0  0  0
   58.2008   20.7306   42.9080 H   0  0  0  0  0  0  0  0  0  0  0  0
   56.5270   22.0568   41.6185 H   0  0  0  0  0  0  0  0  0  0  0  0
   55.0800   23.7189   42.7912 H   0  0  0  0  0  0  0  0  0  0  0  0
   55.2999   24.0562   45.2523 H   0  0  0  0  0  0  0  0  0  0  0  0
   55.4034   25.9684   46.4778 H   0  0  0  0  0  0  0  0  0  0  0  0
   56.8159   32.4817   43.6645 H   0  0  0  0  0  0  0  0  0  0  0  0
   57.3643   34.8041   44.3869 H   0  0  0  0  0  0  0  0  0  0  0  0
   58.6546   35.1878   46.4894 H   0  0  0  0  0  0  0  0  0  0  0  0
   59.3635   33.2506   47.8912 H   0  0  0  0  0  0  0  0  0  0  0  0
  1  2  2  0
  2  3  1  0
  3  4  1  0
  4  5  2  0
  5  6  1  0
  6  7  2  0
  7  8  1  0
  8  9  1  0
  9 10  1  0
 10 11  2  0
 10 12  1  0
 12 13  2  0
 13 14  1  0
 14 15  2  0
 15 16  1  0
 16 17  2  0
  8 18  2  0
  2 19  1  0
 19 20  1  0
 20 21  2  0
 21 22  1  0
 22 23  2  0
 23 24  1  0
 24 25  2  0
 25 26  1  0
 18  4  1  0
 25 20  1  0
 17 12  1  0
  5 27  1  0
  6 28  1  0
  7 29  1  0
 13 30  1  0
 14 31  1  0
 15 32  1  0
 16 33  1  0
 17 34  1  0
 18 35  1  0
 21 36  1  0
 22 37  1  0
 23 38  1  0
 24 39  1  0
M  CHG  3   3  -1   9  -1  19  -1
M  END
>  <UniqueID>  (18) 
18

>  <SMILES>  (18) 
O=C([N-]c1cccc([N-]C(=O)c2ccccc2)c1)[N-]c1ccccc1Cl

>  <Energy>  (18) 
56.42448255505125

>  <Genealogy>  (18) 
O=C([N-]c1cccc([N-]C(=O)c2ccccc2)c1)[N-]c1ccccc1Cl (protonated)
O=C([N-]c1cccc([N-]C(=O)c2ccccc2)c1)[N-]c1ccccc1Cl (3D coordinates assigned)
O=C([N-]c1cccc([N-]C(=O)c2ccccc2)c1)[N-]c1ccccc1Cl (optimized conformer: 56.42448255505125 kcal/mol)

>  <smiles>  (18) 
O=C(Nc1cccc(NC(=O)c2ccccc2)c1)Nc1ccccc1Cl

>  <score_type>  (18) 
oracle

>  <origin>  (18) 
adg

>  <m_score__min__energy>  (18) 
-13.539999999999999

>  <m_primary>  (18) 
energy

$$$$
18:0
     RDKit          3D

 21 22  0  0  0  0  0  0  0  0999 V2000
   54.7402   24.6398   46.0778 H   0  0  0  0  0  0  0  0  0  0  0  0
   55.5670   25.3180   45.8200 C   0  0  0  0  0  0  0  0  0  0  0  0
   55.4940   26.6620   46.0100 N   0  0  0  0  0  0  0  0  0  0  0  0
   56.6350   27.2770   45.6260 C   0  0  0  0  0  0  0  0  0  0  0  0
   56.8260   28.5620   45.6760 N   0  0  0  0  0  0  0  0  0  0  0  0
   56.1850   29.5350   44.8360 C   0  0  0  0  0  0  0  0  0  0  0  0
   54.9980   29.3260   44.4720 O   0  0  0  0  0  0  0  0  0  0  0  0
   56.8910   30.7410   44.3410 C   0  0  0  0  0  0  0  0  0  0  0  0
   57.1010   30.9180   42.9620 C   0  0  0  0  0  0  0  0  0  0  0  0
   56.7305   30.1646   42.2513 H   0  0  0  0  0  0  0  0  0  0  0  0
   57.7780   32.0460   42.4890 C   0  0  0  0  0  0  0  0  0  0  0  0
   57.9298   32.1817   41.4080 H   0  0  0  0  0  0  0  0  0  0  0  0
   58.2620   33.0010   43.3860 C   0  0  0  0  0  0  0  0  0  0  0  0
   58.7903   33.8900   43.0109 H   0  0  0  0  0  0  0  0  0  0  0  0
   58.0750   32.8270   44.7610 C   0  0  0  0  0  0  0  0  0  0  0  0
   58.6930   34.0200   45.8880 Cl  0  0  0  0  0  0  0  0  0  0  0  0
   57.3990   31.6980   45.2380 C   0  0  0  0  0  0  0  0  0  0  0  0
   57.2642   31.5583   46.3207 H   0  0  0  0  0  0  0  0  0  0  0  0
   57.7650   26.1930   45.0230 S   0  0  0  0  0  0  0  0  0  0  0  0
   56.7630   24.8630   45.2760 C   0  0  0  0  0  0  0  0  0  0  0  0
   57.0117   23.8156   45.0500 H   0  0  0  0  0  0  0  0  0  0  0  0
  1  2  1  0
  2  3  1  0
  3  4  1  0
  4  5  2  0
  5  6  1  0
  6  7  2  0
  6  8  1  0
  8  9  2  0
  9 10  1  0
  9 11  1  0
 11 12  1  0
 11 13  2  0
 13 14  1  0
 13 15  1  0
 15 16  1  0
 15 17  2  0
 17 18  1  0
  4 19  1  0
 19 20  1  0
 20 21  1  0
 20  2  2  0
 17  8  1  0
M  CHG  1   3  -1
M  END
>  <UniqueID>  (19) 
19

>  <SMILES>  (19) 
O=C(/N=c1\[n-]ccs1)c1cccc(Cl)c1

>  <Energy>  (19) 
58.98235696148806

>  <Genealogy>  (19) 
O=C(N=c1[n-]ccs1)c1cccc(Cl)c1 (protonated)
O=C(/N=c1\[n-]ccs1)c1cccc(Cl)c1 (cis-trans isomerization)
O=C(/N=c1\[n-]ccs1)c1cccc(Cl)c1 (3D coordinates assigned)
O=C(/N=c1\[n-]ccs1)c1cccc(Cl)c1 (optimized conformer: 58.98235696148806 kcal/mol)

>  <smiles>  (19) 
O=C(N=c1[nH]ccs1)c1cccc(Cl)c1

>  <score_type>  (19) 
oracle

>  <origin>  (19) 
adg

>  <m_score__min__energy>  (19) 
-8.5800000000000001

>  <m_primary>  (19) 
energy

$$$$
19:0
     RDKit          3D

 38 39  0  0  0  0  0  0  0  0999 V2000
   56.4190   22.9790   48.1480 C   0  0  0  0  0  0  0  0  0  0  0  0
   57.3890   22.8890   47.1100 O   0  0  0  0  0  0  0  0  0  0  0  0
   57.1150   23.0600   45.7420 C   0  0  0  0  0  0  0  0  0  0  0  0
   56.7370   21.9730   44.9270 C   0  0  0  0  0  0  0  0  0  0  0  0
   56.4820   22.1630   43.5690 C   0  0  0  0  0  0  0  0  0  0  0  0
   56.6090   23.4300   43.0020 C   0  0  0  0  0  0  0  0  0  0  0  0
   56.9850   24.5150   43.7950 C   0  0  0  0  0  0  0  0  0  0  0  0
   57.2180   24.3500   45.1740 C   0  0  0  0  0  0  0  0  0  0  0  0
   57.6660   25.5350   46.0010 C   0  0  0  0  0  0  0  0  0  0  0  0
   56.6510   26.6480   46.0100 C   0  0  0  0  0  0  0  0  0  0  0  0
   55.4280   26.3500   45.9950 O   0  0  0  0  0  0  0  0  0  0  0  0
   57.0130   28.0350   46.0400 N   0  0  0  0  0  0  0  0  0  0  0  0
   56.6910   29.2130   44.8080 S   0  0  0  0  0  0  0  0  0  0  0  0
   57.1380   28.6880   43.4730 O   0  0  0  0  0  0  0  0  0  0  0  0
   55.2090   29.4590   44.7560 O   0  0  0  0  0  0  0  0  0  0  0  0
   57.4960   30.7330   45.1770 C   0  0  0  0  0  0  0  0  0  0  0  0
   58.6540   30.7410   45.9650 C   0  0  0  0  0  0  0  0  0  0  0  0
   59.2870   31.9480   46.2740 C   0  0  0  0  0  0  0  0  0  0  0  0
   58.7760   33.1610   45.7840 C   0  0  0  0  0  0  0  0  0  0  0  0
   59.4300   34.4620   46.1440 C   0  0  0  0  0  0  0  0  0  0  0  0
   57.6220   33.1500   44.9820 C   0  0  0  0  0  0  0  0  0  0  0  0
   57.1030   34.3100   44.5080 F   0  0  0  0  0  0  0  0  0  0  0  0
   56.9910   31.9400   44.6770 C   0  0  0  0  0  0  0  0  0  0  0  0
   56.9221   22.9323   49.1251 H   0  0  0  0  0  0  0  0  0  0  0  0
   55.8756   23.9314   48.0605 H   0  0  0  0  0  0  0  0  0  0  0  0
   55.7097   22.1428   48.0605 H   0  0  0  0  0  0  0  0  0  0  0  0
   56.6426   20.9685   45.3653 H   0  0  0  0  0  0  0  0  0  0  0  0
   56.1797   21.3102   42.9434 H   0  0  0  0  0  0  0  0  0  0  0  0
   56.4128   23.5746   41.9293 H   0  0  0  0  0  0  0  0  0  0  0  0
   57.1005   25.5090   43.3384 H   0  0  0  0  0  0  0  0  0  0  0  0
   57.8322   25.2006   47.0357 H   0  0  0  0  0  0  0  0  0  0  0  0
   58.5892   25.9278   45.5500 H   0  0  0  0  0  0  0  0  0  0  0  0
   59.0667   29.7936   46.3420 H   0  0  0  0  0  0  0  0  0  0  0  0
   60.1891   31.9480   46.9035 H   0  0  0  0  0  0  0  0  0  0  0  0
   59.4781   34.5576   47.2388 H   0  0  0  0  0  0  0  0  0  0  0  0
   60.4482   34.4878   45.7286 H   0  0  0  0  0  0  0  0  0  0  0  0
   58.8433   35.2946   45.7286 H   0  0  0  0  0  0  0  0  0  0  0  0
   56.0934   31.9360   44.0411 H   0  0  0  0  0  0  0  0  0  0  0  0
  1  2  1  0
  2  3  1  0
  3  4  2  0
  4  5  1  0
  5  6  2  0
  6  7  1  0
  7  8  2  0
  8  9  1  0
  9 10  1  0
 10 11  2  0
 10 12  1  0
 12 13  1  0
 13 14  2  0
 13 15  2  0
 13 16  1  0
 16 17  2  0
 17 18  1  0
 18 19  2  0
 19 20  1  0
 19 21  1  0
 21 22  1  0
 21 23  2  0
  8  3  1  0
 23 16  1  0
  1 24  1  0
  1 25  1  0
  1 26  1  0
  4 27  1  0
  5 28  1  0
  6 29  1  0
  7 30  1  0
  9 31  1  0
  9 32  1  0
 17 33  1  0
 18 34  1  0
 20 35  1  0
 20 36  1  0
 20 37  1  0
 23 38  1  0
M  CHG  1  12  -1
M  END
>  <UniqueID>  (20) 
20

>  <SMILES>  (20) 
COc1ccccc1CC(=O)[N-]S(=O)(=O)c1ccc(C)c(F)c1

>  <Energy>  (20) 
35.019974443702196

>  <Genealogy>  (20) 
COc1ccccc1CC(=O)[N-]S(=O)(=O)c1ccc(C)c(F)c1 (protonated)
COc1ccccc1CC(=O)[N-]S(=O)(=O)c1ccc(C)c(F)c1 (3D coordinates assigned)
COc1ccccc1CC(=O)[N-]S(=O)(=O)c1ccc(C)c(F)c1 (optimized conformer: 35.019974443702196 kcal/mol)

>  <smiles>  (20) 
COc1ccccc1CC(=O)NS(=O)(=O)c1ccc(C)c(F)c1

>  <score_type>  (20) 
oracle

>  <origin>  (20) 
adg

>  <m_score__min__energy>  (20) 
-9.8699999999999992

>  <m_primary>  (20) 
energy

$$$$
20:0
     RDKit          3D

 41 44  0  0  0  0  0  0  0  0999 V2000
   60.8990   26.1170   50.8230 C   0  0  0  0  0  0  0  0  0  0  0  0
   60.5180   26.6910   49.6100 O   0  0  0  0  0  0  0  0  0  0  0  0
   60.5430   28.0620   49.4340 C   0  0  0  0  0  0  0  0  0  0  0  0
   61.3360   28.8340   50.2480 C   0  0  0  0  0  0  0  0  0  0  0  0
   61.3680   30.1920   50.0810 C   0  0  0  0  0  0  0  0  0  0  0  0
   60.5850   30.7870   49.0760 C   0  0  0  0  0  0  0  0  0  0  0  0
   59.7800   30.0410   48.2450 C   0  0  0  0  0  0  0  0  0  0  0  0
   59.7670   28.6730   48.4350 C   0  0  0  0  0  0  0  0  0  0  0  0
   58.9530   27.7550   47.6200 C   0  0  0  0  0  0  0  0  0  0  0  0
   58.1300   28.3490   46.5580 C   0  0  0  0  0  0  0  0  0  0  0  0
   58.1880   29.8210   46.4100 C   0  0  0  0  0  0  0  0  0  0  0  0
   57.3970   30.3650   45.4050 C   0  0  0  0  0  0  0  0  0  0  0  0
   56.5490   29.5900   44.5250 C   0  0  0  0  0  0  0  0  0  0  0  0
   56.9170   29.3340   43.3240 O   0  0  0  0  0  0  0  0  0  0  0  0
   55.3130   29.0700   44.8730 O   0  0  0  0  0  0  0  0  0  0  0  0
   57.4190   31.7320   45.2280 C   0  0  0  0  0  0  0  0  0  0  0  0
   58.1870   32.5600   46.0050 C   0  0  0  0  0  0  0  0  0  0  0  0
   58.1480   33.9150   45.7590 C   0  0  0  0  0  0  0  0  0  0  0  0
   57.2960   34.4790   44.6780 C   0  0  0  0  0  0  0  0  0  0  0  0
   58.9120   34.6960   46.5400 N   0  0  0  0  0  0  0  0  0  0  0  0
   59.6750   34.1740   47.5090 C   0  0  0  0  0  0  0  0  0  0  0  0
   60.3700   34.9550   48.2080 O   0  0  0  0  0  0  0  0  0  0  0  0
   59.6930   32.8680   47.7240 N   0  0  0  0  0  0  0  0  0  0  0  0
   58.9760   32.0040   47.0120 C   0  0  0  0  0  0  0  0  0  0  0  0
   58.9720   30.6360   47.2100 C   0  0  0  0  0  0  0  0  0  0  0  0
   60.5004   26.7175   51.6540 H   0  0  0  0  0  0  0  0  0  0  0  0
   60.5002   25.0938   50.8857 H   0  0  0  0  0  0  0  0  0  0  0  0
   61.9968   26.0871   50.8857 H   0  0  0  0  0  0  0  0  0  0  0  0
   61.9445   28.3612   51.0330 H   0  0  0  0  0  0  0  0  0  0  0  0
   62.0025   30.8143   50.7292 H   0  0  0  0  0  0  0  0  0  0  0  0
   60.6166   31.8793   48.9503 H   0  0  0  0  0  0  0  0  0  0  0  0
   59.6388   27.0380   47.1450 H   0  0  0  0  0  0  0  0  0  0  0  0
   58.2318   27.3149   48.3244 H   0  0  0  0  0  0  0  0  0  0  0  0
   58.4494   27.9061   45.6031 H   0  0  0  0  0  0  0  0  0  0  0  0
   57.0907   28.1303   46.8443 H   0  0  0  0  0  0  0  0  0  0  0  0
   55.1520   28.0780   44.9140 H   0  0  0  0  0  0  0  0  0  0  0  0
   56.7981   32.1741   44.4349 H   0  0  0  0  0  0  0  0  0  0  0  0
   56.4575   35.0341   45.1239 H   0  0  0  0  0  0  0  0  0  0  0  0
   57.8960   35.1589   44.0553 H   0  0  0  0  0  0  0  0  0  0  0  0
   56.9044   33.6611   44.0553 H   0  0  0  0  0  0  0  0  0  0  0  0
   58.9130   35.7280   46.3880 H   0  0  0  0  0  0  0  0  0  0  0  0
  1  2  1  0
  2  3  1  0
  3  4  2  0
  4  5  1  0
  5  6  2  0
  6  7  1  0
  7  8  2  0
  8  9  1  0
  9 10  1  0
 10 11  1  0
 11 12  1  0
 12 13  1  0
 13 14  2  0
 13 15  1  0
 12 16  2  0
 16 17  1  0
 17 18  2  0
 18 19  1  0
 18 20  1  0
 20 21  1  0
 21 22  2  0
 21 23  1  0
 23 24  2  0
 24 25  1  0
  8  3  1  0
 25 11  2  0
 25  7  1  0
 24 17  1  0
  1 26  1  0
  1 27  1  0
  1 28  1  0
  4 29  1  0
  5 30  1  0
  6 31  1  0
  9 32  1  0
  9 33  1  0
 10 34  1  0
 10 35  1  0
 15 36  1  0
 16 37  1  0
 19 38  1  0
 19 39  1  0
 19 40  1  0
 20 41  1  0
M  END
>  <smiles>  (21) 
COc1cccc2c1CCc1c(C(=O)O)cc3c(C)[nH]c(=O)nc3c1-2

>  <score_type>  (21) 
oracle

>  <origin>  (21) 
adg

>  <m_score__min__energy>  (21) 
-8.2300000000000004

>  <m_primary>  (21) 
energy

$$$$
21:0
     RDKit          3D

 40 42  0  0  0  0  0  0  0  0999 V2000
   57.2233   24.0441   45.3460 H   0  0  0  0  0  0  0  0  0  0  0  0
   56.8990   25.0940   45.3960 C   0  0  0  0  0  0  0  0  0  0  0  0
   55.5700   25.4020   45.9490 C   0  0  0  0  0  0  0  0  0  0  0  0
   54.8120   24.4890   46.3730 O   0  0  0  0  0  0  0  0  0  0  0  0
   55.1460   26.7230   46.0090 O   0  0  0  0  0  0  0  0  0  0  0  0
   57.7280   26.0500   44.9510 C   0  0  0  0  0  0  0  0  0  0  0  0
   57.9806   26.0574   43.8804 H   0  0  0  0  0  0  0  0  0  0  0  0
   58.3250   27.0980   45.8150 C   0  0  0  0  0  0  0  0  0  0  0  0
   59.2420   28.0530   45.3300 C   0  0  0  0  0  0  0  0  0  0  0  0
   59.5492   28.0290   44.2740 H   0  0  0  0  0  0  0  0  0  0  0  0
   59.7630   29.0300   46.1830 C   0  0  0  0  0  0  0  0  0  0  0  0
   60.4852   29.7644   45.7970 H   0  0  0  0  0  0  0  0  0  0  0  0
   59.3710   29.0790   47.5250 C   0  0  0  0  0  0  0  0  0  0  0  0
   59.9910   30.3350   48.5950 S   0  0  0  0  0  0  0  0  0  0  0  0
   61.4580   30.5640   48.3560 O   0  0  0  0  0  0  0  0  0  0  0  0
   59.7880   29.8920   50.0150 O   0  0  0  0  0  0  0  0  0  0  0  0
   59.1320   31.8190   48.3350 N   0  0  0  0  0  0  0  0  0  0  0  0
   59.1660   32.6270   47.1450 C   0  0  0  0  0  0  0  0  0  0  0  0
   59.9440   33.8060   47.1540 C   0  0  0  0  0  0  0  0  0  0  0  0
   60.7170   34.1980   48.3840 C   0  0  0  0  0  0  0  0  0  0  0  0
   60.1493   33.9101   49.2811 H   0  0  0  0  0  0  0  0  0  0  0  0
   61.6896   33.6842   48.3850 H   0  0  0  0  0  0  0  0  0  0  0  0
   60.8772   35.2863   48.3850 H   0  0  0  0  0  0  0  0  0  0  0  0
   59.9660   34.6410   46.0250 C   0  0  0  0  0  0  0  0  0  0  0  0
   60.5622   35.5652   46.0421 H   0  0  0  0  0  0  0  0  0  0  0  0
   59.2390   34.3090   44.8830 C   0  0  0  0  0  0  0  0  0  0  0  0
   59.2564   34.9749   44.0077 H   0  0  0  0  0  0  0  0  0  0  0  0
   58.4880   33.1310   44.8490 C   0  0  0  0  0  0  0  0  0  0  0  0
   57.7640   32.7700   43.7080 C   0  0  0  0  0  0  0  0  0  0  0  0
   57.7643   33.4218   42.8219 H   0  0  0  0  0  0  0  0  0  0  0  0
   57.0430   31.5790   43.7030 C   0  0  0  0  0  0  0  0  0  0  0  0
   56.4633   31.2801   42.8173 H   0  0  0  0  0  0  0  0  0  0  0  0
   57.0680   30.7710   44.8400 C   0  0  0  0  0  0  0  0  0  0  0  0
   56.4290   29.6860   44.8570 O   0  0  0  0  0  0  0  0  0  0  0  0
   57.7630   31.1400   45.9120 O   0  0  0  0  0  0  0  0  0  0  0  0
   58.4550   32.2750   45.9740 C   0  0  0  0  0  0  0  0  0  0  0  0
   58.4580   28.1370   48.0120 C   0  0  0  0  0  0  0  0  0  0  0  0
   58.1515   28.1667   49.0680 H   0  0  0  0  0  0  0  0  0  0  0  0
   57.9340   27.1590   47.1630 C   0  0  0  0  0  0  0  0  0  0  0  0
   57.2087   26.4301   47.5536 H   0  0  0  0  0  0  0  0  0  0  0  0
  1  2  1  0
  2  3  1  0
  3  4  2  0
  3  5  1  0
  2  6  2  0
  6  7  1  0
  6  8  1  0
  8  9  2  0
  9 10  1  0
  9 11  1  0
 11 12  1  0
 11 13  2  0
 13 14  1  0
 14 15  2  0
 14 16  2  0
 14 17  1  0
 17 18  1  0
 18 19  2  0
 19 20  1  0
 20 21  1  0
 20 22  1  0
 20 23  1  0
 19 24  1  0
 24 25  1  0
 24 26  2  0
 26 27  1  0
 26 28  1  0
 28 29  1  0
 29 30  1  0
 29 31  2  0
 31 32  1  0
 31 33  1  0
 33 34  2  0
 33 35  1  0
 35 36  1  0
 13 37  1  0
 37 38  1  0
 37 39  2  0
 39 40  1  0
 39  8  1  0
 36 18  1  0
 36 28  2  0
M  CHG  2   5  -1  17  -1
M  END
>  <UniqueID>  (22) 
21

>  <SMILES>  (22) 
Cc1ccc2ccc(=O)oc2c1[N-]S(=O)(=O)c1ccc(/C=C/C(=O)[O-])cc1

>  <Energy>  (22) 
52.99921305899526

>  <Genealogy>  (22) 
Cc1ccc2ccc(=O)oc2c1[N-]S(=O)(=O)c1ccc(C=CC(=O)[O-])cc1 (protonated)
Cc1ccc2ccc(=O)oc2c1[N-]S(=O)(=O)c1ccc(/C=C/C(=O)[O-])cc1 (cis-trans isomerization)
Cc1ccc2ccc(=O)oc2c1[N-]S(=O)(=O)c1ccc(/C=C/C(=O)[O-])cc1 (3D coordinates assigned)
Cc1ccc2ccc(=O)oc2c1[N-]S(=O)(=O)c1ccc(/C=C/C(=O)[O-])cc1 (optimized conformer: 52.99921305899526 kcal/mol)

>  <smiles>  (22) 
Cc1ccc2ccc(=O)oc2c1NS(=O)(=O)c1ccc(C=CC(=O)O)cc1

>  <score_type>  (22) 
oracle

>  <origin>  (22) 
adg

>  <m_score__min__energy>  (22) 
-12.76

>  <m_primary>  (22) 
energy

$$$$
22:0
     RDKit          3D

 30 31  0  0  1  0  0  0  0  0999 V2000
   58.1000   27.1090   43.2040 C   0  0  0  0  0  0  0  0  0  0  0  0
   58.2400   27.0160   44.7090 C   0  0  0  0  0  0  0  0  0  0  0  0
   57.2150   27.7070   45.4360 N   0  0  0  0  0  0  0  0  0  0  0  0
   56.7920   28.8460   45.1270 C   0  0  0  0  0  0  0  0  0  0  0  0
   55.5220   29.0640   44.6710 N   0  0  0  0  0  0  0  0  0  0  0  0
   55.4110   30.3600   44.4870 N   0  0  0  0  0  0  0  0  0  0  0  0
   56.5410   30.9600   44.8020 N   0  0  0  0  0  0  0  0  0  0  0  0
   57.4710   30.0210   45.2210 C   0  0  0  0  0  0  0  0  0  0  0  0
   58.8150   30.4050   45.5200 C   0  0  0  0  0  0  0  0  0  0  0  0
   59.9060   29.9050   45.2270 O   0  0  0  0  0  0  0  0  0  0  0  0
   58.9470   31.6200   46.3320 N   0  0  0  0  0  0  0  0  0  0  0  0
   60.2590   32.0830   46.6880 C   0  0  0  0  0  0  0  0  0  0  0  0
   61.1560   31.2720   47.3540 C   0  0  0  0  0  0  0  0  0  0  0  0
   62.4220   31.6750   47.7140 C   0  0  0  0  0  0  0  0  0  0  0  0
   62.8380   32.9480   47.4020 C   0  0  0  0  0  0  0  0  0  0  0  0
   61.9720   33.7870   46.7360 C   0  0  0  0  0  0  0  0  0  0  0  0
   60.6930   33.3600   46.3820 C   0  0  0  0  0  0  0  0  0  0  0  0
   59.8830   34.2180   45.7310 F   0  0  0  0  0  0  0  0  0  0  0  0
   57.2076   27.7018   42.9547 H   0  0  0  0  0  0  0  0  0  0  0  0
   58.9923   27.5945   42.7820 H   0  0  0  0  0  0  0  0  0  0  0  0
   57.9984   26.0982   42.7820 H   0  0  0  0  0  0  0  0  0  0  0  0
   58.2094   25.9540   44.9938 H   0  0  0  0  0  0  0  0  0  0  0  0
   59.1937   27.4983   44.9693 H   0  0  0  0  0  0  0  0  0  0  0  0
   54.7760   28.3550   44.4970 H   0  0  0  0  0  0  0  0  0  0  0  0
   54.5700   30.8890   44.1430 H   0  0  0  0  0  0  0  0  0  0  0  0
   58.0960   32.1360   46.6440 H   0  0  0  0  0  0  0  0  0  0  0  0
   60.8423   30.2494   47.6106 H   0  0  0  0  0  0  0  0  0  0  0  0
   63.0942   30.9856   48.2459 H   0  0  0  0  0  0  0  0  0  0  0  0
   63.8457   33.2907   47.6797 H   0  0  0  0  0  0  0  0  0  0  0  0
   62.2938   34.8073   46.4801 H   0  0  0  0  0  0  0  0  0  0  0  0
  1  2  1  0
  2  3  1  0
  3  4  2  0
  4  5  1  0
  5  6  1  0
  6  7  1  0
  7  8  2  0
  8  9  1  0
  9 10  2  0
  9 11  1  0
 11 12  1  0
 12 13  2  0
 13 14  1  0
 14 15  2  0
 15 16  1  0
 16 17  2  0
 17 18  1  0
  8  4  1  0
 17 12  1  0
  1 19  1  0
  1 20  1  0
  1 21  1  0
  2 22  1  0
  2 23  1  0
  5 24  1  0
  6 25  1  0
 11 26  1  0
 13 27  1  0
 14 28  1  0
 15 29  1  0
 16 30  1  0
M  END
>  <smiles>  (23) 
CCN=c1[nH][nH]nc1C(=O)Nc1ccccc1F

>  <score_type>  (23) 
oracle

>  <origin>  (23) 
adg

>  <m_score__min__energy>  (23) 
-6.71

>  <m_primary>  (23) 
energy

$$$$
23:0
     RDKit          3D

 59 63  0  0  0  0  0  0  0  0999 V2000
   56.2100   29.3380   45.2240 O   0  0  0  0  0  0  0  0  0  0  0  0
   57.0660   30.1800   44.8420 C   0  0  0  0  0  0  0  0  0  0  0  0
   58.5050   29.7910   44.7390 C   0  0  0  0  0  0  0  0  0  0  0  0
   58.9400   28.4890   45.9480 S   0  0  0  0  0  0  0  0  0  0  0  0
   59.9990   29.5310   46.9600 C   0  0  0  0  0  0  0  0  0  0  0  0
   60.3740   30.7530   46.4890 N   0  0  0  0  0  0  0  0  0  0  0  0
   61.1800   31.5800   47.2190 C   0  0  0  0  0  0  0  0  0  0  0  0
   61.5300   32.8400   46.7210 C   0  0  0  0  0  0  0  0  0  0  0  0
   62.3470   33.6880   47.4760 C   0  0  0  0  0  0  0  0  0  0  0  0
   62.8210   33.2810   48.7280 C   0  0  0  0  0  0  0  0  0  0  0  0
   62.4780   32.0260   49.2380 C   0  0  0  0  0  0  0  0  0  0  0  0
   61.6570   31.1710   48.4890 C   0  0  0  0  0  0  0  0  0  0  0  0
   61.2530   29.9140   48.9390 C   0  0  0  0  0  0  0  0  0  0  0  0
   61.5480   29.3680   50.1420 N   0  0  0  0  0  0  0  0  0  0  0  0
   60.8980   28.1800   50.1210 C   0  0  0  0  0  0  0  0  0  0  0  0
   60.7480   27.3000   51.3220 C   0  0  0  0  0  0  0  0  0  0  0  0
   61.0150   28.1210   52.5390 C   0  0  0  0  0  0  0  0  0  0  0  0
   62.2020   28.3640   52.8880 O   0  0  0  0  0  0  0  0  0  0  0  0
   59.9210   28.7340   53.2240 N   0  0  0  0  0  0  0  0  0  0  0  0
   58.6810   29.1000   52.5550 C   0  0  0  0  0  0  0  0  0  0  0  0
   58.8600   30.4290   51.8700 C   0  0  0  0  0  0  0  0  0  0  0  0
   59.6970   31.4120   52.4260 C   0  0  0  0  0  0  0  0  0  0  0  0
   59.9280   32.6100   51.7420 C   0  0  0  0  0  0  0  0  0  0  0  0
   59.3290   32.8330   50.4990 C   0  0  0  0  0  0  0  0  0  0  0  0
   58.5050   31.8570   49.9340 C   0  0  0  0  0  0  0  0  0  0  0  0
   58.2780   30.6540   50.6110 C   0  0  0  0  0  0  0  0  0  0  0  0
   60.2060   28.0540   48.9310 C   0  0  0  0  0  0  0  0  0  0  0  0
   59.3600   27.0080   48.5790 O   0  0  0  0  0  0  0  0  0  0  0  0
   60.4440   29.1450   48.1870 N   0  0  0  0  0  0  0  0  0  0  0  0
   56.6810   31.5250   44.5490 N   0  0  0  0  0  0  0  0  0  0  0  0
   57.5900   32.5160   43.9920 C   0  0  0  0  0  0  0  0  0  0  0  0
   58.1240   33.3730   45.1030 C   0  0  0  0  0  0  0  0  0  0  0  0
   58.9810   34.4510   44.8100 C   0  0  0  0  0  0  0  0  0  0  0  0
   59.5160   35.2250   45.8460 C   0  0  0  0  0  0  0  0  0  0  0  0
   59.2060   34.9260   47.1770 C   0  0  0  0  0  0  0  0  0  0  0  0
   58.3570   33.8550   47.4750 C   0  0  0  0  0  0  0  0  0  0  0  0
   57.8150   33.0830   46.4440 C   0  0  0  0  0  0  0  0  0  0  0  0
   58.7013   29.4153   43.7239 H   0  0  0  0  0  0  0  0  0  0  0  0
   59.1173   30.6789   44.9550 H   0  0  0  0  0  0  0  0  0  0  0  0
   61.1627   33.1636   45.7359 H   0  0  0  0  0  0  0  0  0  0  0  0
   62.6181   34.6793   47.0837 H   0  0  0  0  0  0  0  0  0  0  0  0
   63.4666   33.9521   49.3135 H   0  0  0  0  0  0  0  0  0  0  0  0
   62.8507   31.7100   50.2235 H   0  0  0  0  0  0  0  0  0  0  0  0
   59.7255   26.8964   51.3623 H   0  0  0  0  0  0  0  0  0  0  0  0
   61.4562   26.4600   51.2679 H   0  0  0  0  0  0  0  0  0  0  0  0
   58.4256   28.3332   51.8088 H   0  0  0  0  0  0  0  0  0  0  0  0
   57.8701   29.1724   53.2947 H   0  0  0  0  0  0  0  0  0  0  0  0
   60.1721   31.2384   53.4028 H   0  0  0  0  0  0  0  0  0  0  0  0
   60.5816   33.3772   52.1827 H   0  0  0  0  0  0  0  0  0  0  0  0
   59.5067   33.7782   49.9651 H   0  0  0  0  0  0  0  0  0  0  0  0
   58.0341   32.0344   48.9558 H   0  0  0  0  0  0  0  0  0  0  0  0
   57.6413   29.8810   50.1559 H   0  0  0  0  0  0  0  0  0  0  0  0
   58.4238   32.0075   43.4858 H   0  0  0  0  0  0  0  0  0  0  0  0
   57.0534   33.1437   43.2653 H   0  0  0  0  0  0  0  0  0  0  0  0
   59.2306   34.6853   43.7646 H   0  0  0  0  0  0  0  0  0  0  0  0
   60.1812   36.0696   45.6134 H   0  0  0  0  0  0  0  0  0  0  0  0
   59.6302   35.5336   47.9899 H   0  0  0  0  0  0  0  0  0  0  0  0
   58.1157   33.6202   48.5222 H   0  0  0  0  0  0  0  0  0  0  0  0
   57.1437   32.2448   46.6823 H   0  0  0  0  0  0  0  0  0  0  0  0
  1  2  2  0
  2  3  1  0
  3  4  1  0
  4  5  1  0
  5  6  2  0
  6  7  1  0
  7  8  2  0
  8  9  1  0
  9 10  2  0
 10 11  1  0
 11 12  2  0
 12 13  1  0
 13 14  2  0
 14 15  1  0
 15 16  1  0
 16 17  1  0
 17 18  2  0
 17 19  1  0
 19 20  1  0
 20 21  1  0
 21 22  2  0
 22 23  1  0
 23 24  2  0
 24 25  1  0
 25 26  2  0
 15 27  2  0
 27 28  1  0
 27 29  1  0
  2 30  1  0
 30 31  1  0
 31 32  1  0
 32 33  2  0
 33 34  1  0
 34 35  2  0
 35 36  1  0
 36 37  2  0
 29  5  1  0
 37 32  1  0
 12  7  1  0
 29 13  1  0
 26 21  1  0
  3 38  1  0
  3 39  1  0
  8 40  1  0
  9 41  1  0
 10 42  1  0
 11 43  1  0
 16 44  1  0
 16 45  1  0
 20 46  1  0
 20 47  1  0
 22 48  1  0
 23 49  1  0
 24 50  1  0
 25 51  1  0
 26 52  1  0
 31 53  1  0
 31 54  1  0
 33 55  1  0
 34 56  1  0
 35 57  1  0
 36 58  1  0
 37 59  1  0
M  CHG  3  19  -1  28  -1  30  -1
M  END
>  <UniqueID>  (24) 
22

>  <SMILES>  (24) 
O=C(CSc1nc2ccccc2c2nc(CC(=O)[N-]Cc3ccccc3)c([O-])n12)[N-]Cc1ccccc1

>  <Energy>  (24) 
86.05359287121104

>  <Genealogy>  (24) 
O=C(CSc1nc2ccccc2c2nc(CC(=O)[N-]Cc3ccccc3)c([O-])n12)[N-]Cc1ccccc1 (protonated)
O=C(CSc1nc2ccccc2c2nc(CC(=O)[N-]Cc3ccccc3)c([O-])n12)[N-]Cc1ccccc1 (3D coordinates assigned)
O=C(CSc1nc2ccccc2c2nc(CC(=O)[N-]Cc3ccccc3)c([O-])n12)[N-]Cc1ccccc1 (optimized conformer: 86.05359287121104 kcal/mol)

>  <smiles>  (24) 
O=C(CSc1nc2ccccc2c2nc(CC(=O)NCc3ccccc3)c(O)n12)NCc1ccccc1

>  <score_type>  (24) 
oracle

>  <origin>  (24) 
adg

>  <m_score__min__energy>  (24) 
-14.140000000000001

>  <m_primary>  (24) 
energy

$$$$
24:0
     RDKit          3D

 48 50  0  0  0  0  0  0  0  0999 V2000
   56.8390   27.4150   45.6520 C   0  0  0  0  0  0  0  0  0  0  0  0
   55.8970   28.4460   45.2370 N   0  0  0  0  0  0  0  0  0  0  0  0
   56.2860   29.6970   44.6610 C   0  0  0  0  0  0  0  0  0  0  0  0
   55.4100   30.5880   44.5010 O   0  0  0  0  0  0  0  0  0  0  0  0
   57.7110   29.9510   44.2420 C   0  0  0  0  0  0  0  0  0  0  0  0
   58.3850   30.8860   45.1540 N   0  0  0  0  0  0  0  0  0  0  0  0
   59.2400   30.5700   46.1590 C   0  0  0  0  0  0  0  0  0  0  0  0
   59.6050   29.2000   46.5860 C   0  0  0  0  0  0  0  0  0  0  0  0
   60.3610   28.3770   45.7350 C   0  0  0  0  0  0  0  0  0  0  0  0
   60.7280   27.0900   46.1390 C   0  0  0  0  0  0  0  0  0  0  0  0
   60.3530   26.6180   47.3990 C   0  0  0  0  0  0  0  0  0  0  0  0
   59.6170   27.4360   48.2600 C   0  0  0  0  0  0  0  0  0  0  0  0
   59.2490   28.7240   47.8600 C   0  0  0  0  0  0  0  0  0  0  0  0
   59.7580   31.7170   46.7260 C   0  0  0  0  0  0  0  0  0  0  0  0
   59.1880   32.7840   46.0570 C   0  0  0  0  0  0  0  0  0  0  0  0
   59.4800   34.2040   46.3330 C   0  0  0  0  0  0  0  0  0  0  0  0
   58.9550   35.0940   45.6100 O   0  0  0  0  0  0  0  0  0  0  0  0
   60.2980   34.5740   47.4500 N   0  0  0  0  0  0  0  0  0  0  0  0
   61.6060   34.0700   47.7610 C   0  0  0  0  0  0  0  0  0  0  0  0
   62.4880   33.6180   46.7640 C   0  0  0  0  0  0  0  0  0  0  0  0
   63.7500   33.1310   47.1110 C   0  0  0  0  0  0  0  0  0  0  0  0
   64.1340   33.0650   48.4520 C   0  0  0  0  0  0  0  0  0  0  0  0
   63.2450   33.4640   49.4650 C   0  0  0  0  0  0  0  0  0  0  0  0
   63.6550   33.4220   50.9160 C   0  0  0  0  0  0  0  0  0  0  0  0
   64.4540   34.5140   51.1950 F   0  0  0  0  0  0  0  0  0  0  0  0
   64.3580   32.2650   51.2030 F   0  0  0  0  0  0  0  0  0  0  0  0
   62.5360   33.4600   51.7300 F   0  0  0  0  0  0  0  0  0  0  0  0
   61.9860   33.9770   49.1060 C   0  0  0  0  0  0  0  0  0  0  0  0
   58.3340   32.2420   45.1000 C   0  0  0  0  0  0  0  0  0  0  0  0
   57.4980   33.0300   44.1280 C   0  0  0  0  0  0  0  0  0  0  0  0
   56.8768   27.3736   46.7506 H   0  0  0  0  0  0  0  0  0  0  0  0
   56.5127   26.4407   45.2594 H   0  0  0  0  0  0  0  0  0  0  0  0
   57.8388   27.6523   45.2594 H   0  0  0  0  0  0  0  0  0  0  0  0
   58.2581   28.9967   44.2408 H   0  0  0  0  0  0  0  0  0  0  0  0
   57.6994   30.3987   43.2373 H   0  0  0  0  0  0  0  0  0  0  0  0
   60.6660   28.7473   44.7451 H   0  0  0  0  0  0  0  0  0  0  0  0
   61.3129   26.4482   45.4637 H   0  0  0  0  0  0  0  0  0  0  0  0
   60.6370   25.6028   47.7133 H   0  0  0  0  0  0  0  0  0  0  0  0
   59.3266   27.0659   49.2543 H   0  0  0  0  0  0  0  0  0  0  0  0
   58.6783   29.3680   48.5453 H   0  0  0  0  0  0  0  0  0  0  0  0
   60.4839   31.7714   47.5507 H   0  0  0  0  0  0  0  0  0  0  0  0
   62.1832   33.6480   45.7075 H   0  0  0  0  0  0  0  0  0  0  0  0
   64.4441   32.7982   46.3252 H   0  0  0  0  0  0  0  0  0  0  0  0
   65.1370   32.6990   48.7168 H   0  0  0  0  0  0  0  0  0  0  0  0
   61.2909   34.3094   49.8911 H   0  0  0  0  0  0  0  0  0  0  0  0
   56.8069   33.6815   44.6829 H   0  0  0  0  0  0  0  0  0  0  0  0
   58.1541   33.6458   43.4953 H   0  0  0  0  0  0  0  0  0  0  0  0
   56.9220   32.3387   43.4953 H   0  0  0  0  0  0  0  0  0  0  0  0
  1  2  1  0
  2  3  1  0
  3  4  2  0
  3  5  1  0
  5  6  1  0
  6  7  1  0
  7  8  1  0
  8  9  2  0
  9 10  1  0
 10 11  2  0
 11 12  1  0
 12 13  2  0
  7 14  2  0
 14 15  1  0
 15 16  1  0
 16 17  2  0
 16 18  1  0
 18 19  1  0
 19 20  2  0
 20 21  1  0
 21 22  2  0
 22 23  1  0
 23 24  1  0
 24 25  1  0
 24 26  1  0
 24 27  1  0
 23 28  2  0
 15 29  2  0
 29 30  1  0
 29  6  1  0
 13  8  1  0
 28 19  1  0
  1 31  1  0
  1 32  1  0
  1 33  1  0
  5 34  1  0
  5 35  1  0
  9 36  1  0
 10 37  1  0
 11 38  1  0
 12 39  1  0
 13 40  1  0
 14 41  1  0
 20 42  1  0
 21 43  1  0
 22 44  1  0
 28 45  1  0
 30 46  1  0
 30 47  1  0
 30 48  1  0
M  CHG  2   2  -1  18  -1
M  END
>  <UniqueID>  (25) 
23

>  <SMILES>  (25) 
C[N-]C(=O)Cn1c(-c2ccccc2)cc(C(=O)[N-]c2cccc(C(F)(F)F)c2)c1C

>  <Energy>  (25) 
83.41936831744435

>  <Genealogy>  (25) 
C[N-]C(=O)Cn1c(-c2ccccc2)cc(C(=O)[N-]c2cccc(C(F)(F)F)c2)c1C (protonated)
C[N-]C(=O)Cn1c(-c2ccccc2)cc(C(=O)[N-]c2cccc(C(F)(F)F)c2)c1C (3D coordinates assigned)
C[N-]C(=O)Cn1c(-c2ccccc2)cc(C(=O)[N-]c2cccc(C(F)(F)F)c2)c1C (optimized conformer: 83.41936831744435 kcal/mol)

>  <smiles>  (25) 
CNC(=O)Cn1c(-c2ccccc2)cc(C(=O)Nc2cccc(C(F)(F)F)c2)c1C

>  <score_type>  (25) 
oracle

>  <origin>  (25) 
adg

>  <m_score__min__energy>  (25) 
-11.380000000000001

>  <m_primary>  (25) 
energy

$$$$
25:0
     RDKit          3D

 55 57  0  0  0  0  0  0  0  0999 V2000
   55.1180   26.3760   46.0460 N   0  0  0  0  0  0  0  0  0  0  0  0
   56.7500   25.8280   46.1910 S   0  0  0  0  0  0  0  0  0  0  0  0
   56.9260   25.1380   47.5140 O   0  0  0  0  0  0  0  0  0  0  0  0
   57.0480   24.8650   45.0770 O   0  0  0  0  0  0  0  0  0  0  0  0
   57.8020   27.1730   46.0920 O   0  0  0  0  0  0  0  0  0  0  0  0
   58.6650   27.5880   47.1160 C   0  0  0  0  0  0  0  0  0  0  0  0
   59.5300   26.6390   47.6770 C   0  0  0  0  0  0  0  0  0  0  0  0
   60.4140   26.9980   48.6980 C   0  0  0  0  0  0  0  0  0  0  0  0
   60.4600   28.3170   49.1610 C   0  0  0  0  0  0  0  0  0  0  0  0
   61.3750   28.6530   50.2110 N   0  0  0  0  0  0  0  0  0  0  0  0
   61.3340   28.1270   51.5420 C   0  0  0  0  0  0  0  0  0  0  0  0
   62.1810   27.2640   51.8810 O   0  0  0  0  0  0  0  0  0  0  0  0
   60.4060   28.6110   52.5220 N   0  0  0  0  0  0  0  0  0  0  0  0
   59.0130   28.9820   52.2750 C   0  0  0  0  0  0  0  0  0  0  0  0
   58.8890   30.4490   51.9540 C   0  0  0  0  0  0  0  0  0  0  0  0
   57.6970   31.1390   52.2270 C   0  0  0  0  0  0  0  0  0  0  0  0
   57.5750   32.4910   51.9000 C   0  0  0  0  0  0  0  0  0  0  0  0
   58.6420   33.1690   51.3070 C   0  0  0  0  0  0  0  0  0  0  0  0
   59.8510   32.5020   51.0550 C   0  0  0  0  0  0  0  0  0  0  0  0
   60.9910   33.2150   50.3800 C   0  0  0  0  0  0  0  0  0  0  0  0
   60.6270   33.5910   49.0150 N   0  0  0  0  0  0  0  0  0  0  0  0
   61.6170   33.9340   48.0420 C   0  0  0  0  0  0  0  0  0  0  0  0
   62.8340   33.9930   48.3680 O   0  0  0  0  0  0  0  0  0  0  0  0
   61.2160   34.2020   46.6970 N   0  0  0  0  0  0  0  0  0  0  0  0
   59.6100   34.6960   46.2810 S   0  0  0  0  0  0  0  0  0  0  0  0
   59.6750   35.8910   45.3740 O   0  0  0  0  0  0  0  0  0  0  0  0
   58.8690   35.0800   47.5300 O   0  0  0  0  0  0  0  0  0  0  0  0
   58.7580   33.3690   45.4970 C   0  0  0  0  0  0  0  0  0  0  0  0
   58.5070   32.1850   46.2050 C   0  0  0  0  0  0  0  0  0  0  0  0
   57.8520   31.1200   45.5810 C   0  0  0  0  0  0  0  0  0  0  0  0
   57.4490   31.2290   44.2460 C   0  0  0  0  0  0  0  0  0  0  0  0
   56.6320   29.8900   43.4620 Cl  0  0  0  0  0  0  0  0  0  0  0  0
   57.7030   32.4060   43.5340 C   0  0  0  0  0  0  0  0  0  0  0  0
   58.3540   33.4750   44.1580 C   0  0  0  0  0  0  0  0  0  0  0  0
   59.9690   31.1410   51.3820 C   0  0  0  0  0  0  0  0  0  0  0  0
   59.5790   29.2690   48.6210 C   0  0  0  0  0  0  0  0  0  0  0  0
   58.6920   28.9090   47.6020 C   0  0  0  0  0  0  0  0  0  0  0  0
   55.1470   27.4200   46.0520 H   0  0  0  0  0  0  0  0  0  0  0  0
   59.5130   25.6020   47.3104 H   0  0  0  0  0  0  0  0  0  0  0  0
   61.0770   26.2395   49.1398 H   0  0  0  0  0  0  0  0  0  0  0  0
   58.6304   28.3954   51.4268 H   0  0  0  0  0  0  0  0  0  0  0  0
   58.4304   28.7738   53.1845 H   0  0  0  0  0  0  0  0  0  0  0  0
   56.8555   30.6121   52.7006 H   0  0  0  0  0  0  0  0  0  0  0  0
   56.6357   33.0235   52.1101 H   0  0  0  0  0  0  0  0  0  0  0  0
   58.5346   34.2298   51.0363 H   0  0  0  0  0  0  0  0  0  0  0  0
   61.2388   34.1220   50.9509 H   0  0  0  0  0  0  0  0  0  0  0  0
   61.8587   32.5400   50.3424 H   0  0  0  0  0  0  0  0  0  0  0  0
   59.6230   33.5970   48.7220 H   0  0  0  0  0  0  0  0  0  0  0  0
   58.8263   32.0943   47.2537 H   0  0  0  0  0  0  0  0  0  0  0  0
   57.6529   30.1942   46.1407 H   0  0  0  0  0  0  0  0  0  0  0  0
   57.3905   32.4908   42.4827 H   0  0  0  0  0  0  0  0  0  0  0  0
   58.5496   34.4010   43.5974 H   0  0  0  0  0  0  0  0  0  0  0  0
   60.9145   30.6132   51.1886 H   0  0  0  0  0  0  0  0  0  0  0  0
   59.5872   30.3011   49.0013 H   0  0  0  0  0  0  0  0  0  0  0  0
   58.0116   29.6620   47.1777 H   0  0  0  0  0  0  0  0  0  0  0  0
  1  2  1  0
  2  3  2  0
  2  4  2  0
  2  5  1  0
  5  6  1  0
  6  7  2  0
  7  8  1  0
  8  9  2  0
  9 10  1  0
 10 11  1  0
 11 12  2  0
 11 13  1  0
 13 14  1  0
 14 15  1  0
 15 16  2  0
 16 17  1  0
 17 18  2  0
 18 19  1  0
 19 20  1  0
 20 21  1  0
 21 22  1  0
 22 23  2  0
 22 24  1  0
 24 25  1  0
 25 26  2  0
 25 27  2  0
 25 28  1  0
 28 29  2  0
 29 30  1  0
 30 31  2  0
 31 32  1  0
 31 33  1  0
 33 34  2  0
 19 35  2  0
  9 36  1  0
 36 37  2  0
 37  6  1  0
 35 15  1  0
 34 28  1  0
  1 38  1  0
  7 39  1  0
  8 40  1  0
 14 41  1  0
 14 42  1  0
 16 43  1  0
 17 44  1  0
 18 45  1  0
 20 46  1  0
 20 47  1  0
 21 48  1  0
 29 49  1  0
 30 50  1  0
 33 51  1  0
 34 52  1  0
 35 53  1  0
 36 54  1  0
 37 55  1  0
M  CHG  4   1  -1  10  -1  13  -1  24  -1
M  END
>  <UniqueID>  (26) 
24

>  <SMILES>  (26) 
[NH-]S(=O)(=O)Oc1ccc([N-]C(=O)[N-]Cc2cccc(CNC(=O)[N-]S(=O)(=O)c3ccc(Cl)cc3)c2)cc1

>  <Energy>  (26) 
58.38903204447843

>  <Genealogy>  (26) 
[NH-]S(=O)(=O)Oc1ccc([N-]C(=O)[N-]Cc2cccc(CNC(=O)[N-]S(=O)(=O)c3ccc(Cl)cc3)c2)cc1 (protonated)
[NH-]S(=O)(=O)Oc1ccc([N-]C(=O)[N-]Cc2cccc(CNC(=O)[N-]S(=O)(=O)c3ccc(Cl)cc3)c2)cc1 (3D coordinates assigned)
[NH-]S(=O)(=O)Oc1ccc([N-]C(=O)[N-]Cc2cccc(CNC(=O)[N-]S(=O)(=O)c3ccc(Cl)cc3)c2)cc1 (optimized conformer: 58.38903204447843 kcal/mol)

>  <smiles>  (26) 
NS(=O)(=O)Oc1ccc(NC(=O)NCc2cccc(CNC(=O)NS(=O)(=O)c3ccc(Cl)cc3)c2)cc1

>  <score_type>  (26) 
oracle

>  <origin>  (26) 
adg

>  <m_score__min__energy>  (26) 
-14.449999999999999

>  <m_primary>  (26) 
energy

$$$$
26:0
     RDKit          3D

 39 41  0  0  0  0  0  0  0  0999 V2000
   60.6780   34.0160   49.5400 N   0  0  0  0  0  0  0  0  0  0  0  0
   59.8170   33.7390   48.4260 C   0  0  0  0  0  0  0  0  0  0  0  0
   59.6580   34.7150   47.4310 C   0  0  0  0  0  0  0  0  0  0  0  0
   58.7540   34.5180   46.3860 C   0  0  0  0  0  0  0  0  0  0  0  0
   57.9950   33.3470   46.3270 C   0  0  0  0  0  0  0  0  0  0  0  0
   58.1520   32.3610   47.3040 C   0  0  0  0  0  0  0  0  0  0  0  0
   59.0820   32.5300   48.3380 C   0  0  0  0  0  0  0  0  0  0  0  0
   59.2610   31.4540   49.2720 N   0  0  0  0  0  0  0  0  0  0  0  0
   59.1280   31.5620   50.6960 C   0  0  0  0  0  0  0  0  0  0  0  0
   60.0300   32.1550   51.3450 O   0  0  0  0  0  0  0  0  0  0  0  0
   57.9630   31.0030   51.4180 C   0  0  0  0  0  0  0  0  0  0  0  0
   58.1040   29.8820   52.2520 C   0  0  0  0  0  0  0  0  0  0  0  0
   57.0080   29.3900   52.9640 C   0  0  0  0  0  0  0  0  0  0  0  0
   55.7570   30.0190   52.8630 C   0  0  0  0  0  0  0  0  0  0  0  0
   54.6200   29.5370   53.5910 N   0  0  0  0  0  0  0  0  0  0  0  0
   53.2530   29.6380   53.1690 C   0  0  0  0  0  0  0  0  0  0  0  0
   52.6440   28.5910   52.8270 O   0  0  0  0  0  0  0  0  0  0  0  0
   52.5710   30.9700   52.9960 C   0  0  0  0  0  0  0  0  0  0  0  0
   51.9310   31.0430   51.6450 C   0  0  0  0  0  0  0  0  0  0  0  0
   52.2290   29.9790   50.3700 S   0  0  0  0  0  0  0  0  0  0  0  0
   51.2390   30.8400   49.3180 C   0  0  0  0  0  0  0  0  0  0  0  0
   51.0340   30.5200   48.1180 O   0  0  0  0  0  0  0  0  0  0  0  0
   50.6870   31.9330   49.8930 N   0  0  0  0  0  0  0  0  0  0  0  0
   51.0770   32.0480   51.1890 C   0  0  0  0  0  0  0  0  0  0  0  0
   50.6490   33.1040   51.9890 O   0  0  0  0  0  0  0  0  0  0  0  0
   55.5990   31.0950   51.9820 C   0  0  0  0  0  0  0  0  0  0  0  0
   56.6940   31.5880   51.2660 C   0  0  0  0  0  0  0  0  0  0  0  0
   60.7740   33.3320   50.3240 H   0  0  0  0  0  0  0  0  0  0  0  0
   61.3130   34.8460   49.5430 H   0  0  0  0  0  0  0  0  0  0  0  0
   60.2495   35.6414   47.4746 H   0  0  0  0  0  0  0  0  0  0  0  0
   58.6391   35.2865   45.6074 H   0  0  0  0  0  0  0  0  0  0  0  0
   57.2728   33.2010   45.5103 H   0  0  0  0  0  0  0  0  0  0  0  0
   57.5419   31.4467   47.2612 H   0  0  0  0  0  0  0  0  0  0  0  0
   59.0829   29.3889   52.3449 H   0  0  0  0  0  0  0  0  0  0  0  0
   57.1255   28.5053   53.6071 H   0  0  0  0  0  0  0  0  0  0  0  0
   51.8001   31.0885   53.7717 H   0  0  0  0  0  0  0  0  0  0  0  0
   53.3169   31.7733   53.0872 H   0  0  0  0  0  0  0  0  0  0  0  0
   54.6083   31.5551   51.8523 H   0  0  0  0  0  0  0  0  0  0  0  0
   56.5618   32.4379   50.5803 H   0  0  0  0  0  0  0  0  0  0  0  0
  1  2  1  0
  2  3  2  0
  3  4  1  0
  4  5  2  0
  5  6  1  0
  6  7  2  0
  7  8  1  0
  8  9  1  0
  9 10  2  0
  9 11  1  0
 11 12  2  0
 12 13  1  0
 13 14  2  0
 14 15  1  0
 15 16  1  0
 16 17  2  0
 16 18  1  0
 18 19  1  0
 19 20  1  0
 20 21  1  0
 21 22  2  0
 21 23  1  0
 23 24  1  0
 24 25  1  0
 14 26  1  0
 26 27  2  0
  7  2  1  0
 27 11  1  0
 24 19  2  0
  1 28  1  0
  1 29  1  0
  3 30  1  0
  4 31  1  0
  5 32  1  0
  6 33  1  0
 12 34  1  0
 13 35  1  0
 18 36  1  0
 18 37  1  0
 26 38  1  0
 27 39  1  0
M  CHG  4   8  -1  15  -1  23  -1  25  -1
M  END
>  <UniqueID>  (27) 
25

>  <SMILES>  (27) 
Nc1ccccc1[N-]C(=O)c1ccc([N-]C(=O)Cc2sc(=O)[n-]c2[O-])cc1

>  <Energy>  (27) 
84.83503379764996

>  <Genealogy>  (27) 
Nc1ccccc1[N-]C(=O)c1ccc([N-]C(=O)Cc2sc(=O)[n-]c2[O-])cc1 (protonated)
Nc1ccccc1[N-]C(=O)c1ccc([N-]C(=O)Cc2sc(=O)[n-]c2[O-])cc1 (3D coordinates assigned)
Nc1ccccc1[N-]C(=O)c1ccc([N-]C(=O)Cc2sc(=O)[n-]c2[O-])cc1 (optimized conformer: 84.83503379764996 kcal/mol)

>  <smiles>  (27) 
Nc1ccccc1NC(=O)c1ccc(NC(=O)Cc2sc(=O)[nH]c2O)cc1

>  <score_type>  (27) 
oracle

>  <origin>  (27) 
adg

>  <m_score__min__energy>  (27) 
-16.780000000000001

>  <m_primary>  (27) 
energy

$$$$
27:0
     RDKit          3D

 71 75  0  0  0  0  0  0  0  0999 V2000
   60.4590   28.5530   46.4880 O   0  0  0  0  0  0  0  0  0  0  0  0
   59.7350   29.5810   46.5560 C   0  0  0  0  0  0  0  0  0  0  0  0
   58.8560   29.9210   45.4870 N   0  0  0  0  0  0  0  0  0  0  0  0
   57.4440   30.2620   45.6390 C   0  0  1  0  0  0  0  0  0  0  0  0
   57.1160   31.5180   44.8120 C   0  0  0  0  0  0  0  0  0  0  0  0
   57.8290   32.7410   45.3290 C   0  0  0  0  0  0  0  0  0  0  0  0
   57.8190   33.0480   46.6990 C   0  0  0  0  0  0  0  0  0  0  0  0
   58.5110   34.1660   47.1760 C   0  0  0  0  0  0  0  0  0  0  0  0
   59.2230   34.9780   46.2900 C   0  0  0  0  0  0  0  0  0  0  0  0
   59.8780   36.0750   46.7520 F   0  0  0  0  0  0  0  0  0  0  0  0
   59.2610   34.6630   44.9290 C   0  0  0  0  0  0  0  0  0  0  0  0
   58.5700   33.5460   44.4490 C   0  0  0  0  0  0  0  0  0  0  0  0
   56.5350   29.1270   45.2120 C   0  0  0  0  0  0  0  0  0  0  0  0
   55.2910   29.3170   45.2410 O   0  0  0  0  0  0  0  0  0  0  0  0
   57.0270   27.9320   44.5780 N   0  0  0  0  0  0  0  0  0  0  0  0
   57.2780   26.6990   45.2610 C   0  0  0  0  0  0  0  0  0  0  0  0
   58.5930   26.2270   45.3540 C   0  0  0  0  0  0  0  0  0  0  0  0
   58.8630   25.0200   46.0010 C   0  0  0  0  0  0  0  0  0  0  0  0
   57.8190   24.2610   46.5410 C   0  0  0  0  0  0  0  0  0  0  0  0
   56.4910   24.7110   46.4440 C   0  0  0  0  0  0  0  0  0  0  0  0
   55.3920   23.8290   46.8880 C   0  0  0  0  0  0  0  0  0  0  0  0
   54.2010   24.0850   46.5700 O   0  0  0  0  0  0  0  0  0  0  0  0
   55.7030   22.6320   47.6060 N   0  0  0  0  0  0  0  0  0  0  0  0
   55.9960   22.5900   49.0340 C   0  0  0  0  0  0  0  0  0  0  0  0
   56.9160   21.4120   49.3720 C   0  0  0  0  0  0  0  0  0  0  0  0
   57.3500   21.4330   50.8210 C   0  0  0  0  0  0  0  0  0  0  0  0
   56.4120   21.8010   51.8040 C   0  0  0  0  0  0  0  0  0  0  0  0
   56.7590   21.7870   53.1580 C   0  0  0  0  0  0  0  0  0  0  0  0
   58.0440   21.4030   53.5560 C   0  0  0  0  0  0  0  0  0  0  0  0
   58.3710   21.3810   54.9080 O   0  0  0  0  0  0  0  0  0  0  0  0
   58.9920   21.0370   52.5940 C   0  0  0  0  0  0  0  0  0  0  0  0
   60.2400   20.6380   52.9680 N   0  0  0  0  0  0  0  0  0  0  0  0
   61.1700   20.2680   52.0490 C   0  0  0  0  0  0  0  0  0  0  0  0
   62.3130   19.8950   52.4290 O   0  0  0  0  0  0  0  0  0  0  0  0
   60.8430   20.3000   50.6860 C   0  0  0  0  0  0  0  0  0  0  0  0
   61.6910   19.9740   49.8110 O   0  0  0  0  0  0  0  0  0  0  0  0
   59.5950   20.6880   50.3050 N   0  0  0  0  0  0  0  0  0  0  0  0
   58.6530   21.0570   51.2190 C   0  0  0  0  0  0  0  0  0  0  0  0
   56.2240   25.9530   45.8210 C   0  0  0  0  0  0  0  0  0  0  0  0
   54.9180   26.4210   45.7090 O   0  0  0  0  0  0  0  0  0  0  0  0
   59.7790   30.4160   47.6710 O   0  0  0  0  0  0  0  0  0  0  0  0
   60.8920   30.4810   48.5530 C   0  0  0  0  0  0  0  0  0  0  0  0
   61.7690   31.6260   48.1380 C   0  0  0  0  0  0  0  0  0  0  0  0
   63.0260   31.8240   48.7330 C   0  0  0  0  0  0  0  0  0  0  0  0
   63.8370   32.8830   48.3220 C   0  0  0  0  0  0  0  0  0  0  0  0
   63.4080   33.7460   47.3110 C   0  0  0  0  0  0  0  0  0  0  0  0
   62.1710   33.5380   46.6950 C   0  0  0  0  0  0  0  0  0  0  0  0
   61.3560   32.4840   47.1060 C   0  0  0  0  0  0  0  0  0  0  0  0
   57.2659   30.4545   46.7073 H   0  0  0  0  0  0  0  0  0  0  0  0
   57.4198   31.3450   43.7690 H   0  0  0  0  0  0  0  0  0  0  0  0
   56.0338   31.7000   44.8882 H   0  0  0  0  0  0  0  0  0  0  0  0
   57.2647   32.4067   47.4000 H   0  0  0  0  0  0  0  0  0  0  0  0
   58.4945   34.4060   48.2494 H   0  0  0  0  0  0  0  0  0  0  0  0
   59.8350   35.2942   44.2347 H   0  0  0  0  0  0  0  0  0  0  0  0
   58.6071   33.2971   43.3782 H   0  0  0  0  0  0  0  0  0  0  0  0
   59.4165   26.8097   44.9155 H   0  0  0  0  0  0  0  0  0  0  0  0
   59.9003   24.6642   46.0866 H   0  0  0  0  0  0  0  0  0  0  0  0
   58.0386   23.3076   47.0438 H   0  0  0  0  0  0  0  0  0  0  0  0
   56.4901   23.5279   49.3275 H   0  0  0  0  0  0  0  0  0  0  0  0
   55.0505   22.4644   49.5820 H   0  0  0  0  0  0  0  0  0  0  0  0
   56.3781   20.4729   49.1754 H   0  0  0  0  0  0  0  0  0  0  0  0
   57.8164   21.4919   48.7452 H   0  0  0  0  0  0  0  0  0  0  0  0
   55.3974   22.1021   51.5041 H   0  0  0  0  0  0  0  0  0  0  0  0
   56.0169   22.0798   53.9154 H   0  0  0  0  0  0  0  0  0  0  0  0
   60.5393   30.6393   49.5828 H   0  0  0  0  0  0  0  0  0  0  0  0
   61.4595   29.5397   48.5101 H   0  0  0  0  0  0  0  0  0  0  0  0
   63.3719   31.1430   49.5246 H   0  0  0  0  0  0  0  0  0  0  0  0
   64.8174   33.0385   48.7959 H   0  0  0  0  0  0  0  0  0  0  0  0
   64.0432   34.5885   47.0000 H   0  0  0  0  0  0  0  0  0  0  0  0
   61.8403   34.2058   45.8859 H   0  0  0  0  0  0  0  0  0  0  0  0
   60.3830   32.3235   46.6186 H   0  0  0  0  0  0  0  0  0  0  0  0
  1  2  2  0
  2  3  1  0
  3  4  1  0
  4  5  1  0
  5  6  1  0
  6  7  2  0
  7  8  1  0
  8  9  2  0
  9 10  1  0
  9 11  1  0
 11 12  2  0
  4 13  1  0
 13 14  2  0
 13 15  1  0
 15 16  1  0
 16 17  2  0
 17 18  1  0
 18 19  2  0
 19 20  1  0
 20 21  1  0
 21 22  2  0
 21 23  1  0
 23 24  1  0
 24 25  1  0
 25 26  1  0
 26 27  2  0
 27 28  1  0
 28 29  2  0
 29 30  1  0
 29 31  1  0
 31 32  1  0
 32 33  1  0
 33 34  2  0
 33 35  1  0
 35 36  2  0
 35 37  1  0
 37 38  1  0
 20 39  2  0
 39 40  1  0
  2 41  1  0
 41 42  1  0
 42 43  1  0
 43 44  2  0
 44 45  1  0
 45 46  2  0
 46 47  1  0
 47 48  2  0
 12  6  1  0
 39 16  1  0
 48 43  1  0
 38 26  1  0
 38 31  2  0
  4 49  1  1
  5 50  1  0
  5 51  1  0
  7 52  1  0
  8 53  1  0
 11 54  1  0
 12 55  1  0
 17 56  1  0
 18 57  1  0
 19 58  1  0
 24 59  1  0
 24 60  1  0
 25 61  1  0
 25 62  1  0
 27 63  1  0
 28 64  1  0
 42 65  1  0
 42 66  1  0
 44 67  1  0
 45 68  1  0
 46 69  1  0
 47 70  1  0
 48 71  1  0
M  CHG  7   3  -1  15  -1  23  -1  30  -1  32  -1  37  -1  40  -1
M  END
>  <UniqueID>  (28) 
26

>  <SMILES>  (28) 
O=C([N-][C@@H](Cc1ccc(F)cc1)C(=O)[N-]c1cccc(C(=O)[N-]CCc2ccc([O-])c3[n-]c(=O)c(=O)[n-]c23)c1[O-])OCc1ccccc1

>  <Energy>  (28) 
86.8207044657975

>  <Genealogy>  (28) 
O=C([N-]C(Cc1ccc(F)cc1)C(=O)[N-]c1cccc(C(=O)[N-]CCc2ccc([O-])c3[n-]c(=O)c(=O)[n-]c23)c1[O-])OCc1ccccc1 (protonated)
O=C([N-][C@@H](Cc1ccc(F)cc1)C(=O)[N-]c1cccc(C(=O)[N-]CCc2ccc([O-])c3[n-]c(=O)c(=O)[n-]c23)c1[O-])OCc1ccccc1 (chirality)
O=C([N-][C@@H](Cc1ccc(F)cc1)C(=O)[N-]c1cccc(C(=O)[N-]CCc2ccc([O-])c3[n-]c(=O)c(=O)[n-]c23)c1[O-])OCc1ccccc1 (3D coordinates assigned)
O=C([N-][C@@H](Cc1ccc(F)cc1)C(=O)[N-]c1cccc(C(=O)[N-]CCc2ccc([O-])c3[n-]c(=O)c(=O)[n-]c23)c1[O-])OCc1ccccc1 (optimized conformer: 86.8207044657975 kcal/mol)

>  <smiles>  (28) 
O=C(NC(Cc1ccc(F)cc1)C(=O)Nc1cccc(C(=O)NCCc2ccc(O)c3[nH]c(=O)c(=O)[nH]c23)c1O)OCc1ccccc1

>  <score_type>  (28) 
oracle

>  <origin>  (28) 
adg

>  <m_score__min__energy>  (28) 
-19.960000000000001

>  <m_primary>  (28) 
energy

$$$$
28:0
     RDKit          3D

 46 48  0  0  0  0  0  0  0  0999 V2000
   62.3700   34.5880   49.7620 C   0  0  0  0  0  0  0  0  0  0  0  0
   61.5610   33.5060   49.3100 O   0  0  0  0  0  0  0  0  0  0  0  0
   60.6370   33.5910   48.2550 C   0  0  0  0  0  0  0  0  0  0  0  0
   59.2490   33.5040   48.4710 C   0  0  0  0  0  0  0  0  0  0  0  0
   58.3610   33.5930   47.3970 C   0  0  0  0  0  0  0  0  0  0  0  0
   58.8410   33.7780   46.0940 C   0  0  0  0  0  0  0  0  0  0  0  0
   57.8790   33.8370   44.9350 C   0  0  0  0  0  0  0  0  0  0  0  0
   57.7050   32.4620   44.2870 C   0  0  0  0  0  0  0  0  0  0  0  0
   56.5540   31.7760   44.8700 N   0  0  0  0  0  0  0  0  0  0  0  0
   56.7480   30.0580   44.7120 S   0  0  0  0  0  0  0  0  0  0  0  0
   55.4070   29.3940   44.8550 O   0  0  0  0  0  0  0  0  0  0  0  0
   57.2970   29.7330   43.3500 O   0  0  0  0  0  0  0  0  0  0  0  0
   57.8280   29.4470   45.9620 C   0  0  0  0  0  0  0  0  0  0  0  0
   57.8550   28.0590   46.2480 C   0  0  0  0  0  0  0  0  0  0  0  0
   58.6950   27.5500   47.2560 C   0  0  0  0  0  0  0  0  0  0  0  0
   59.4830   28.4590   47.9590 C   0  0  0  0  0  0  0  0  0  0  0  0
   59.4600   29.7980   47.6850 C   0  0  0  0  0  0  0  0  0  0  0  0
   58.6430   30.3370   46.6950 C   0  0  0  0  0  0  0  0  0  0  0  0
   60.3040   30.4180   48.4750 O   0  0  0  0  0  0  0  0  0  0  0  0
   60.8420   29.4740   49.2290 C   0  0  0  0  0  0  0  0  0  0  0  0
   61.7200   29.7040   50.1020 O   0  0  0  0  0  0  0  0  0  0  0  0
   60.3570   28.2370   48.9560 N   0  0  0  0  0  0  0  0  0  0  0  0
   60.7660   26.9580   49.5300 C   0  0  0  0  0  0  0  0  0  0  0  0
   60.2240   33.8540   45.8740 C   0  0  0  0  0  0  0  0  0  0  0  0
   61.1280   33.7650   46.9510 C   0  0  0  0  0  0  0  0  0  0  0  0
   62.5170   33.8400   46.7670 O   0  0  0  0  0  0  0  0  0  0  0  0
   63.4360   32.8170   47.1370 C   0  0  0  0  0  0  0  0  0  0  0  0
   62.3812   34.6030   50.8618 H   0  0  0  0  0  0  0  0  0  0  0  0
   63.3961   34.4604   49.3866 H   0  0  0  0  0  0  0  0  0  0  0  0
   61.9574   35.5361   49.3866 H   0  0  0  0  0  0  0  0  0  0  0  0
   58.8617   33.3652   49.4911 H   0  0  0  0  0  0  0  0  0  0  0  0
   57.2782   33.5174   47.5752 H   0  0  0  0  0  0  0  0  0  0  0  0
   56.9018   34.1885   45.2978 H   0  0  0  0  0  0  0  0  0  0  0  0
   58.2853   34.5274   44.1811 H   0  0  0  0  0  0  0  0  0  0  0  0
   57.5454   32.5866   43.2058 H   0  0  0  0  0  0  0  0  0  0  0  0
   58.6101   31.8625   44.4643 H   0  0  0  0  0  0  0  0  0  0  0  0
   57.2129   27.3727   45.6763 H   0  0  0  0  0  0  0  0  0  0  0  0
   58.7282   26.4737   47.4807 H   0  0  0  0  0  0  0  0  0  0  0  0
   58.6328   31.4179   46.4911 H   0  0  0  0  0  0  0  0  0  0  0  0
   60.7445   27.0251   50.6277 H   0  0  0  0  0  0  0  0  0  0  0  0
   60.0753   26.1692   49.1973 H   0  0  0  0  0  0  0  0  0  0  0  0
   61.7862   26.7163   49.1973 H   0  0  0  0  0  0  0  0  0  0  0  0
   60.6066   33.9843   44.8509 H   0  0  0  0  0  0  0  0  0  0  0  0
   63.4925   32.7541   48.2337 H   0  0  0  0  0  0  0  0  0  0  0  0
   63.0945   31.8532   46.7315 H   0  0  0  0  0  0  0  0  0  0  0  0
   64.4308   33.0536   46.7315 H   0  0  0  0  0  0  0  0  0  0  0  0
  1  2  1  0
  2  3  1  0
  3  4  2  0
  4  5  1  0
  5  6  2  0
  6  7  1  0
  7  8  1  0
  8  9  1  0
  9 10  1  0
 10 11  2  0
 10 12  2  0
 10 13  1  0
 13 14  2  0
 14 15  1  0
 15 16  2  0
 16 17  1  0
 17 18  2  0
 17 19  1  0
 19 20  1  0
 20 21  2  0
 20 22  1  0
 22 23  1  0
  6 24  1  0
 24 25  2  0
 25 26  1  0
 26 27  1  0
 25  3  1  0
 18 13  1  0
 22 16  1  0
  1 28  1  0
  1 29  1  0
  1 30  1  0
  4 31  1  0
  5 32  1  0
  7 33  1  0
  7 34  1  0
  8 35  1  0
  8 36  1  0
 14 37  1  0
 15 38  1  0
 18 39  1  0
 23 40  1  0
 23 41  1  0
 23 42  1  0
 24 43  1  0
 27 44  1  0
 27 45  1  0
 27 46  1  0
M  CHG  1   9  -1
M  END
>  <UniqueID>  (29) 
27

>  <SMILES>  (29) 
COc1ccc(CC[N-]S(=O)(=O)c2ccc3c(c2)oc(=O)n3C)cc1OC

>  <Energy>  (29) 
83.37577688168838

>  <Genealogy>  (29) 
COc1ccc(CC[N-]S(=O)(=O)c2ccc3c(c2)oc(=O)n3C)cc1OC (protonated)
COc1ccc(CC[N-]S(=O)(=O)c2ccc3c(c2)oc(=O)n3C)cc1OC (3D coordinates assigned)
COc1ccc(CC[N-]S(=O)(=O)c2ccc3c(c2)oc(=O)n3C)cc1OC (optimized conformer: 83.37577688168838 kcal/mol)

>  <smiles>  (29) 
COc1ccc(CCNS(=O)(=O)c2ccc3c(c2)oc(=O)n3C)cc1OC

>  <score_type>  (29) 
oracle

>  <origin>  (29) 
adg

>  <m_score__min__energy>  (29) 
-10.039999999999999

>  <m_primary>  (29) 
energy

$$$$
29:0
     RDKit          3D

 47 49  0  0  0  0  0  0  0  0999 V2000
   51.8900   22.5650   46.4620 C   0  0  0  0  0  0  0  0  0  0  0  0
   53.1540   23.1090   45.8870 C   0  0  0  0  0  0  0  0  0  0  0  0
   53.4460   24.4290   46.0020 N   0  0  0  0  0  0  0  0  0  0  0  0
   54.5810   24.9500   45.4690 C   0  0  0  0  0  0  0  0  0  0  0  0
   54.8580   26.3040   45.6400 O   0  0  0  0  0  0  0  0  0  0  0  0
   55.4740   24.1210   44.7640 C   0  0  0  0  0  0  0  0  0  0  0  0
   56.7480   24.6830   44.1710 C   0  0  0  0  0  0  0  0  0  0  0  0
   57.5610   25.4440   45.1880 C   0  0  0  0  0  0  0  0  0  0  0  0
   58.0760   24.8120   46.1470 O   0  0  0  0  0  0  0  0  0  0  0  0
   57.8060   26.8540   45.0940 N   0  0  0  0  0  0  0  0  0  0  0  0
   57.4870   27.8680   46.0940 C   0  0  0  0  0  0  0  0  0  0  0  0
   56.6420   28.9340   45.4750 C   0  0  0  0  0  0  0  0  0  0  0  0
   55.5810   28.6260   44.8730 O   0  0  0  0  0  0  0  0  0  0  0  0
   57.0540   30.3010   45.5690 N   0  0  0  0  0  0  0  0  0  0  0  0
   57.3970   31.1340   44.4530 C   0  0  0  0  0  0  0  0  0  0  0  0
   57.0080   30.7280   43.1700 C   0  0  0  0  0  0  0  0  0  0  0  0
   57.3220   31.5070   42.0550 C   0  0  0  0  0  0  0  0  0  0  0  0
   58.0510   32.6860   42.2100 C   0  0  0  0  0  0  0  0  0  0  0  0
   58.4740   33.0860   43.4790 C   0  0  0  0  0  0  0  0  0  0  0  0
   58.1530   32.3160   44.6140 C   0  0  0  0  0  0  0  0  0  0  0  0
   58.6410   32.6590   45.8840 O   0  0  0  0  0  0  0  0  0  0  0  0
   59.1850   31.7610   46.8140 C   0  0  0  0  0  0  0  0  0  0  0  0
   60.0660   30.7720   46.3590 C   0  0  0  0  0  0  0  0  0  0  0  0
   60.6270   29.8590   47.2560 C   0  0  0  0  0  0  0  0  0  0  0  0
   60.2970   29.9180   48.6130 C   0  0  0  0  0  0  0  0  0  0  0  0
   59.4000   30.8870   49.0730 C   0  0  0  0  0  0  0  0  0  0  0  0
   58.8380   31.8010   48.1760 C   0  0  0  0  0  0  0  0  0  0  0  0
   55.1630   22.7490   44.6890 C   0  0  0  0  0  0  0  0  0  0  0  0
   55.9410   21.9390   44.1180 O   0  0  0  0  0  0  0  0  0  0  0  0
   54.0130   22.2820   45.2390 N   0  0  0  0  0  0  0  0  0  0  0  0
   51.9465   22.5893   47.5603 H   0  0  0  0  0  0  0  0  0  0  0  0
   51.0405   23.1772   46.1249 H   0  0  0  0  0  0  0  0  0  0  0  0
   51.7507   21.5272   46.1249 H   0  0  0  0  0  0  0  0  0  0  0  0
   55.6530   26.7350   45.1850 H   0  0  0  0  0  0  0  0  0  0  0  0
   57.3547   23.8519   43.7822 H   0  0  0  0  0  0  0  0  0  0  0  0
   56.4682   25.3826   43.3696 H   0  0  0  0  0  0  0  0  0  0  0  0
   56.9378   27.4022   46.9255 H   0  0  0  0  0  0  0  0  0  0  0  0
   58.4187   28.3140   46.4722 H   0  0  0  0  0  0  0  0  0  0  0  0
   56.4510   29.7884   43.0402 H   0  0  0  0  0  0  0  0  0  0  0  0
   56.9943   31.1909   41.0536 H   0  0  0  0  0  0  0  0  0  0  0  0
   58.2930   33.3016   41.3311 H   0  0  0  0  0  0  0  0  0  0  0  0
   59.0619   34.0087   43.5932 H   0  0  0  0  0  0  0  0  0  0  0  0
   60.3178   30.7135   45.2898 H   0  0  0  0  0  0  0  0  0  0  0  0
   61.3288   29.0933   46.8939 H   0  0  0  0  0  0  0  0  0  0  0  0
   60.7430   29.2021   49.3191 H   0  0  0  0  0  0  0  0  0  0  0  0
   59.1365   30.9304   50.1401 H   0  0  0  0  0  0  0  0  0  0  0  0
   58.1220   32.5539   48.5373 H   0  0  0  0  0  0  0  0  0  0  0  0
  1  2  1  0
  2  3  2  0
  3  4  1  0
  4  5  1  0
  4  6  2  0
  6  7  1  0
  7  8  1  0
  8  9  2  0
  8 10  1  0
 10 11  1  0
 11 12  1  0
 12 13  2  0
 12 14  1  0
 14 15  1  0
 15 16  2  0
 16 17  1  0
 17 18  2  0
 18 19  1  0
 19 20  2  0
 20 21  1  0
 21 22  1  0
 22 23  2  0
 23 24  1  0
 24 25  2  0
 25 26  1  0
 26 27  2  0
  6 28  1  0
 28 29  2  0
 28 30  1  0
 30  2  1  0
 20 15  1  0
 27 22  1  0
  1 31  1  0
  1 32  1  0
  1 33  1  0
  5 34  1  0
  7 35  1  0
  7 36  1  0
 11 37  1  0
 11 38  1  0
 16 39  1  0
 17 40  1  0
 18 41  1  0
 19 42  1  0
 23 43  1  0
 24 44  1  0
 25 45  1  0
 26 46  1  0
 27 47  1  0
M  CHG  3  10  -1  14  -1  30  -1
M  END
>  <UniqueID>  (30) 
28

>  <SMILES>  (30) 
Cc1nc(O)c(CC(=O)[N-]CC(=O)[N-]c2ccccc2Oc2ccccc2)c(=O)[n-]1

>  <Energy>  (30) 
54.782254616881566

>  <Genealogy>  (30) 
Cc1nc(O)c(CC(=O)[N-]CC(=O)[N-]c2ccccc2Oc2ccccc2)c(=O)[n-]1 (protonated)
Cc1nc(O)c(CC(=O)[N-]CC(=O)[N-]c2ccccc2Oc2ccccc2)c(=O)[n-]1 (3D coordinates assigned)
Cc1nc(O)c(CC(=O)[N-]CC(=O)[N-]c2ccccc2Oc2ccccc2)c(=O)[n-]1 (optimized conformer: 54.782254616881566 kcal/mol)

>  <smiles>  (30) 
Cc1nc(O)c(CC(=O)NCC(=O)Nc2ccccc2Oc2ccccc2)c(=O)[nH]1

>  <score_type>  (30) 
oracle

>  <origin>  (30) 
adg

>  <m_score__min__energy>  (30) 
-14.1

>  <m_primary>  (30) 
energy

$$$$
30:0
     RDKit          3D

 62 63  0  0  0  0  0  0  0  0999 V2000
   59.0975   35.0399   48.7931 H   0  0  0  0  0  0  0  0  0  0  0  0
   59.7820   34.3140   48.3300 C   0  0  0  0  0  0  0  0  0  0  0  0
   56.3580   29.7680   44.7270 C   0  0  0  0  0  0  0  0  0  0  0  0
   55.1790   30.1630   44.5200 O   0  0  0  0  0  0  0  0  0  0  0  0
   56.6710   28.4040   44.6970 O   0  0  0  0  0  0  0  0  0  0  0  0
   57.8050   27.7990   45.2680 C   0  0  0  0  0  0  0  0  0  0  0  0
   59.0980   28.3090   45.0390 C   0  0  0  0  0  0  0  0  0  0  0  0
   59.2316   29.1814   44.3824 H   0  0  0  0  0  0  0  0  0  0  0  0
   60.2110   27.7170   45.6380 C   0  0  0  0  0  0  0  0  0  0  0  0
   61.2163   28.1217   45.4493 H   0  0  0  0  0  0  0  0  0  0  0  0
   60.0510   26.6150   46.4740 C   0  0  0  0  0  0  0  0  0  0  0  0
   61.1340   26.0440   47.0580 F   0  0  0  0  0  0  0  0  0  0  0  0
   58.7770   26.1070   46.7260 C   0  0  0  0  0  0  0  0  0  0  0  0
   58.6591   25.2434   47.3971 H   0  0  0  0  0  0  0  0  0  0  0  0
   57.6390   26.6870   46.1310 C   0  0  0  0  0  0  0  0  0  0  0  0
   56.2990   26.1080   46.4100 C   0  0  0  0  0  0  0  0  0  0  0  0
   56.1930   25.0500   47.0840 O   0  0  0  0  0  0  0  0  0  0  0  0
   55.1400   26.7120   45.9330 O   0  0  0  0  0  0  0  0  0  0  0  0
   59.1760   34.9680   46.0760 C   0  0  0  0  0  0  0  0  0  0  0  0
   57.4280   30.7170   45.1020 C   0  0  0  0  0  0  0  0  0  0  0  0
   58.0511   30.4517   45.9688 H   0  0  0  0  0  0  0  0  0  0  0  0
   58.5950   34.1530   44.9850 C   0  0  0  0  0  0  0  0  0  0  0  0
   58.9131   34.3597   43.9525 H   0  0  0  0  0  0  0  0  0  0  0  0
   60.1370   34.5260   46.9060 C   0  0  0  0  0  0  0  0  0  0  0  0
   58.8004   35.9925   46.2153 H   0  0  0  0  0  0  0  0  0  0  0  0
   57.7080   31.8750   44.4790 C   0  0  0  0  0  0  0  0  0  0  0  0
   57.7010   33.1760   45.1920 C   0  0  0  0  0  0  0  0  0  0  0  0
   56.9117   33.3499   45.9382 H   0  0  0  0  0  0  0  0  0  0  0  0
   60.2260   33.3120   49.0980 C   0  0  0  0  0  0  0  0  0  0  0  0
   60.8440   33.5751   49.9691 H   0  0  0  0  0  0  0  0  0  0  0  0
   59.9480   31.8710   48.8640 C   0  0  0  0  0  0  0  0  0  0  0  0
   58.8850   31.2910   49.4810 C   0  0  0  0  0  0  0  0  0  0  0  0
   57.9910   32.0780   50.4090 C   0  0  0  0  0  0  0  0  0  0  0  0
   58.2523   31.8479   51.4524 H   0  0  0  0  0  0  0  0  0  0  0  0
   58.1281   33.1538   50.2253 H   0  0  0  0  0  0  0  0  0  0  0  0
   56.9412   31.8056   50.2253 H   0  0  0  0  0  0  0  0  0  0  0  0
   58.5340   29.8450   49.2050 C   0  0  0  0  0  0  0  0  0  0  0  0
   57.9384   29.8069   48.2810 H   0  0  0  0  0  0  0  0  0  0  0  0
   57.9853   29.4835   50.0872 H   0  0  0  0  0  0  0  0  0  0  0  0
   59.7490   28.9110   49.0330 C   0  0  0  0  0  0  0  0  0  0  0  0
   59.5818   28.2897   48.1408 H   0  0  0  0  0  0  0  0  0  0  0  0
   59.8250   28.3210   49.9583 H   0  0  0  0  0  0  0  0  0  0  0  0
   61.0930   29.6410   48.8660 C   0  0  0  0  0  0  0  0  0  0  0  0
   61.7755   28.9903   48.2997 H   0  0  0  0  0  0  0  0  0  0  0  0
   61.4712   29.8611   49.8752 H   0  0  0  0  0  0  0  0  0  0  0  0
   60.9690   30.9930   48.1180 C   0  0  0  0  0  0  0  0  0  0  0  0
   60.5360   30.7550   46.6560 C   0  0  0  0  0  0  0  0  0  0  0  0
   59.5721   30.2252   46.6407 H   0  0  0  0  0  0  0  0  0  0  0  0
   60.4310   31.7222   46.1426 H   0  0  0  0  0  0  0  0  0  0  0  0
   61.2962   30.1480   46.1426 H   0  0  0  0  0  0  0  0  0  0  0  0
   62.3720   31.6460   48.1040 C   0  0  0  0  0  0  0  0  0  0  0  0
   62.7129   31.8047   49.1377 H   0  0  0  0  0  0  0  0  0  0  0  0
   63.0791   30.9845   47.5822 H   0  0  0  0  0  0  0  0  0  0  0  0
   62.3212   32.6130   47.5822 H   0  0  0  0  0  0  0  0  0  0  0  0
   57.9100   31.8550   42.9860 C   0  0  0  0  0  0  0  0  0  0  0  0
   58.9818   31.7489   42.7624 H   0  0  0  0  0  0  0  0  0  0  0  0
   57.3593   31.0070   42.5528 H   0  0  0  0  0  0  0  0  0  0  0  0
   57.5363   32.7945   42.5528 H   0  0  0  0  0  0  0  0  0  0  0  0
   61.4870   34.0910   46.3870 C   0  0  0  0  0  0  0  0  0  0  0  0
   62.1539   33.8761   47.2349 H   0  0  0  0  0  0  0  0  0  0  0  0
   61.3697   33.1852   45.7740 H   0  0  0  0  0  0  0  0  0  0  0  0
   61.9206   34.8949   45.7740 H   0  0  0  0  0  0  0  0  0  0  0  0
  1  2  1  0
  2  3  1  0
  3  4  2  0
  3  5  1  0
  5  6  1  0
  6  7  2  0
  7  8  1  0
  7  9  1  0
  9 10  1  0
  9 11  2  0
 11 12  1  0
 11 13  1  0
 13 14  1  0
 13 15  2  0
 15 16  1  0
 16 17  2  0
 16 18  1  0
  2 19  2  0
 19 20  1  0
 20 21  1  0
 20 22  2  0
 22 23  1  0
 22 24  1  0
 24 25  1  0
 24 26  2  0
 26 27  1  0
 27 28  1  0
 27 29  2  0
 29 30  1  0
 29 31  1  0
 31 32  2  0
 32 33  1  0
 33 34  1  0
 33 35  1  0
 33 36  1  0
 32 37  1  0
 37 38  1  0
 37 39  1  0
 37 40  1  0
 40 41  1  0
 40 42  1  0
 40 43  1  0
 43 44  1  0
 43 45  1  0
 43 46  1  0
 46 47  1  0
 47 48  1  0
 47 49  1  0
 47 50  1  0
 46 51  1  0
 51 52  1  0
 51 53  1  0
 51 54  1  0
 26 55  1  0
 55 56  1  0
 55 57  1  0
 55 58  1  0
 19 59  1  0
 59 60  1  0
 59 61  1  0
 59 62  1  0
 15  6  1  0
 46 31  1  0
M  CHG  1  18  -1
M  END
>  <UniqueID>  (31) 
29

>  <SMILES>  (31) 
CC(=CC(=O)Oc1ccc(F)cc1C(=O)[O-])/C=C\C=C(C)\C=C/C1=C(C)CCCC1(C)C

>  <Energy>  (31) 
90.0910304420917

>  <Genealogy>  (31) 
CC(C=CC1=C(C)CCCC1(C)C)=CC=CC(C)=CC(=O)Oc1ccc(F)cc1C(=O)[O-] (protonated)
CC(=CC(=O)Oc1ccc(F)cc1C(=O)[O-])/C=C\C=C(C)\C=C/C1=C(C)CCCC1(C)C (cis-trans isomerization)
CC(=CC(=O)Oc1ccc(F)cc1C(=O)[O-])/C=C\C=C(C)\C=C/C1=C(C)CCCC1(C)C (3D coordinates assigned)
CC(=CC(=O)Oc1ccc(F)cc1C(=O)[O-])/C=C\C=C(C)\C=C/C1=C(C)CCCC1(C)C (nonaromatic ring conformer: 90.0910304420917 kcal/mol)

>  <smiles>  (31) 
CC(C=CC1=C(C)CCCC1(C)C)=CC=CC(C)=CC(=O)Oc1ccc(F)cc1C(=O)O

>  <score_type>  (31) 
oracle

>  <origin>  (31) 
adg

>  <m_score__min__energy>  (31) 
-14.130000000000001

>  <m_primary>  (31) 
energy

$$$$
31:0
     RDKit          3D

 55 57  0  0  0  0  0  0  0  0999 V2000
   50.4380   23.1370   45.0020 C   0  0  0  0  0  0  0  0  0  0  0  0
   51.4910   24.2350   44.8520 C   0  0  0  0  0  0  0  0  0  0  0  0
   52.8030   23.8840   45.5690 C   0  0  0  0  0  0  0  0  0  0  0  0
   53.9860   23.8500   44.6330 C   0  0  0  0  0  0  0  0  0  0  0  0
   53.8310   23.3980   43.4670 O   0  0  0  0  0  0  0  0  0  0  0  0
   55.3400   24.2700   45.0790 C   0  0  0  0  0  0  0  0  0  0  0  0
   56.4490   23.4470   44.8320 C   0  0  0  0  0  0  0  0  0  0  0  0
   57.7420   23.8290   45.2220 C   0  0  0  0  0  0  0  0  0  0  0  0
   58.8930   22.9040   44.9250 C   0  0  0  0  0  0  0  0  0  0  0  0
   57.9360   25.0850   45.8430 C   0  0  0  0  0  0  0  0  0  0  0  0
   56.8290   25.9200   46.0860 C   0  0  0  0  0  0  0  0  0  0  0  0
   55.5350   25.5110   45.7140 C   0  0  0  0  0  0  0  0  0  0  0  0
   54.4440   26.3350   45.9820 O   0  0  0  0  0  0  0  0  0  0  0  0
   57.0860   27.2960   46.6610 C   0  0  0  0  0  0  0  0  0  0  0  0
   58.2830   27.9690   45.9400 C   0  0  2  0  0  0  0  0  0  0  0  0
   58.5850   29.3150   46.6370 C   0  0  0  0  0  0  0  0  0  0  0  0
   57.9060   28.2120   44.4790 C   0  0  0  0  0  0  0  0  0  0  0  0
   58.6860   27.8840   43.5420 O   0  0  0  0  0  0  0  0  0  0  0  0
   56.6820   28.8890   44.1790 N   0  0  0  0  0  0  0  0  0  0  0  0
   56.5030   29.8450   43.1000 C   0  0  0  0  0  0  0  0  0  0  0  0
   57.1020   31.1540   43.5270 C   0  0  0  0  0  0  0  0  0  0  0  0
   57.0070   31.5660   44.8670 C   0  0  0  0  0  0  0  0  0  0  0  0
   57.6430   32.7370   45.2900 C   0  0  0  0  0  0  0  0  0  0  0  0
   58.3820   33.5010   44.3820 C   0  0  0  0  0  0  0  0  0  0  0  0
   58.4860   33.0940   43.0500 C   0  0  0  0  0  0  0  0  0  0  0  0
   57.8550   31.9220   42.6230 C   0  0  0  0  0  0  0  0  0  0  0  0
   59.5590   27.0580   46.0100 C   0  0  0  0  0  0  0  0  0  0  0  0
   59.2970   25.5630   46.3110 C   0  0  0  0  0  0  0  0  0  0  0  0
   50.2559   22.9471   46.0701 H   0  0  0  0  0  0  0  0  0  0  0  0
   49.5020   23.4586   44.5219 H   0  0  0  0  0  0  0  0  0  0  0  0
   50.7984   22.2153   44.5219 H   0  0  0  0  0  0  0  0  0  0  0  0
   51.7004   24.3809   43.7820 H   0  0  0  0  0  0  0  0  0  0  0  0
   51.0906   25.1511   45.3108 H   0  0  0  0  0  0  0  0  0  0  0  0
   52.9915   24.6380   46.3474 H   0  0  0  0  0  0  0  0  0  0  0  0
   52.6889   22.8774   45.9976 H   0  0  0  0  0  0  0  0  0  0  0  0
   56.3022   22.4832   44.3226 H   0  0  0  0  0  0  0  0  0  0  0  0
   59.3326   22.5507   45.8694 H   0  0  0  0  0  0  0  0  0  0  0  0
   58.5309   22.0428   44.3443 H   0  0  0  0  0  0  0  0  0  0  0  0
   59.6561   23.4430   44.3443 H   0  0  0  0  0  0  0  0  0  0  0  0
   56.1879   27.9173   46.5293 H   0  0  0  0  0  0  0  0  0  0  0  0
   57.3239   27.1968   47.7304 H   0  0  0  0  0  0  0  0  0  0  0  0
   58.5543   29.1780   47.7280 H   0  0  0  0  0  0  0  0  0  0  0  0
   59.5842   29.6659   46.3395 H   0  0  0  0  0  0  0  0  0  0  0  0
   57.8315   30.0591   46.3395 H   0  0  0  0  0  0  0  0  0  0  0  0
   57.0094   29.4821   42.1935 H   0  0  0  0  0  0  0  0  0  0  0  0
   55.4329   29.9716   42.8789 H   0  0  0  0  0  0  0  0  0  0  0  0
   56.4303   30.9652   45.5856 H   0  0  0  0  0  0  0  0  0  0  0  0
   57.5618   33.0577   46.3391 H   0  0  0  0  0  0  0  0  0  0  0  0
   58.8814   34.4223   44.7164 H   0  0  0  0  0  0  0  0  0  0  0  0
   59.0656   33.6969   42.3355 H   0  0  0  0  0  0  0  0  0  0  0  0
   57.9483   31.5998   41.5754 H   0  0  0  0  0  0  0  0  0  0  0  0
   60.0747   27.1228   45.0406 H   0  0  0  0  0  0  0  0  0  0  0  0
   60.1526   27.4358   46.8555 H   0  0  0  0  0  0  0  0  0  0  0  0
   60.0696   24.9648   45.8058 H   0  0  0  0  0  0  0  0  0  0  0  0
   59.3263   25.4413   47.4039 H   0  0  0  0  0  0  0  0  0  0  0  0
  1  2  1  0
  2  3  1  0
  3  4  1  0
  4  5  2  0
  4  6  1  0
  6  7  2  0
  7  8  1  0
  8  9  1  0
  8 10  2  0
 10 11  1  0
 11 12  2  0
 12 13  1  0
 11 14  1  0
 14 15  1  0
 15 16  1  1
 15 17  1  0
 17 18  2  0
 17 19  1  0
 19 20  1  0
 20 21  1  0
 21 22  2  0
 22 23  1  0
 23 24  2  0
 24 25  1  0
 25 26  2  0
 15 27  1  0
 27 28  1  0
 12  6  1  0
 26 21  1  0
 28 10  1  0
  1 29  1  0
  1 30  1  0
  1 31  1  0
  2 32  1  0
  2 33  1  0
  3 34  1  0
  3 35  1  0
  7 36  1  0
  9 37  1  0
  9 38  1  0
  9 39  1  0
 14 40  1  0
 14 41  1  0
 16 42  1  0
 16 43  1  0
 16 44  1  0
 20 45  1  0
 20 46  1  0
 22 47  1  0
 23 48  1  0
 24 49  1  0
 25 50  1  0
 26 51  1  0
 27 52  1  0
 27 53  1  0
 28 54  1  0
 28 55  1  0
M  CHG  2  13  -1  19  -1
M  END
>  <UniqueID>  (32) 
30

>  <SMILES>  (32) 
CCCC(=O)c1cc(C)c2c(c1[O-])C[C@](C)(C(=O)[N-]Cc1ccccc1)CC2

>  <Energy>  (32) 
58.12109354654172

>  <Genealogy>  (32) 
CCCC(=O)c1cc(C)c2c(c1[O-])CC(C)(C(=O)[N-]Cc1ccccc1)CC2 (protonated)
CCCC(=O)c1cc(C)c2c(c1[O-])C[C@](C)(C(=O)[N-]Cc1ccccc1)CC2 (chirality)
CCCC(=O)c1cc(C)c2c(c1[O-])C[C@](C)(C(=O)[N-]Cc1ccccc1)CC2 (3D coordinates assigned)
CCCC(=O)c1cc(C)c2c(c1[O-])C[C@](C)(C(=O)[N-]Cc1ccccc1)CC2 (nonaromatic ring conformer: 58.12109354654172 kcal/mol)

>  <smiles>  (32) 
CCCC(=O)c1cc(C)c2c(c1O)CC(C)(C(=O)NCc1ccccc1)CC2

>  <score_type>  (32) 
oracle

>  <origin>  (32) 
adg

>  <m_score__min__energy>  (32) 
-13.09

>  <m_primary>  (32) 
energy

$$$$
32:0
     RDKit          3D

 45 48  0  0  0  0  0  0  0  0999 V2000
   63.1120   33.9400   51.9590 C   0  0  0  0  0  0  0  0  0  0  0  0
   62.3830   32.9260   51.1630 N   0  0  0  0  0  0  0  0  0  0  0  0
   62.6810   32.7580   49.8250 C   0  0  0  0  0  0  0  0  0  0  0  0
   63.4450   33.7120   49.1030 C   0  0  0  0  0  0  0  0  0  0  0  0
   63.7760   33.5050   47.7640 C   0  0  0  0  0  0  0  0  0  0  0  0
   63.3470   32.3590   47.1070 C   0  0  0  0  0  0  0  0  0  0  0  0
   62.5630   31.4240   47.7770 C   0  0  0  0  0  0  0  0  0  0  0  0
   62.2070   31.6170   49.1300 C   0  0  0  0  0  0  0  0  0  0  0  0
   61.3780   30.6950   49.7920 C   0  0  0  0  0  0  0  0  0  0  0  0
   60.9420   29.5150   49.0990 N   0  0  0  0  0  0  0  0  0  0  0  0
   60.2330   29.5590   47.8460 C   0  0  0  0  0  0  0  0  0  0  0  0
   60.4200   28.5290   46.9140 C   0  0  0  0  0  0  0  0  0  0  0  0
   59.7440   28.5460   45.6900 C   0  0  0  0  0  0  0  0  0  0  0  0
   58.8640   29.5980   45.3760 C   0  0  0  0  0  0  0  0  0  0  0  0
   58.1510   29.6510   44.1270 N   0  0  0  0  0  0  0  0  0  0  0  0
   56.4730   30.0700   43.9840 S   0  0  0  0  0  0  0  0  0  0  0  0
   55.5100   28.9650   44.8980 N   0  0  0  0  0  0  0  0  0  0  0  0
   56.2660   31.4590   44.5180 O   0  0  0  0  0  0  0  0  0  0  0  0
   56.0620   30.0360   42.5390 O   0  0  0  0  0  0  0  0  0  0  0  0
   58.6830   30.6310   46.3090 C   0  0  0  0  0  0  0  0  0  0  0  0
   59.3580   30.6140   47.5320 C   0  0  0  0  0  0  0  0  0  0  0  0
   60.9340   30.9670   51.1050 C   0  0  0  0  0  0  0  0  0  0  0  0
   60.0140   30.1210   51.7820 C   0  0  0  0  0  0  0  0  0  0  0  0
   59.5340   28.9470   51.2110 O   0  0  0  0  0  0  0  0  0  0  0  0
   59.5560   30.4520   53.0560 C   0  0  0  0  0  0  0  0  0  0  0  0
   59.9810   31.6190   53.6740 C   0  0  0  0  0  0  0  0  0  0  0  0
   60.8970   32.4540   53.0420 C   0  0  0  0  0  0  0  0  0  0  0  0
   61.4260   32.1310   51.7650 C   0  0  0  0  0  0  0  0  0  0  0  0
   62.9671   33.7385   53.0306 H   0  0  0  0  0  0  0  0  0  0  0  0
   64.1844   33.8931   51.7188 H   0  0  0  0  0  0  0  0  0  0  0  0
   62.7259   34.9416   51.7188 H   0  0  0  0  0  0  0  0  0  0  0  0
   63.7815   34.6296   49.6078 H   0  0  0  0  0  0  0  0  0  0  0  0
   64.3788   34.2518   47.2265 H   0  0  0  0  0  0  0  0  0  0  0  0
   63.6269   32.1901   46.0567 H   0  0  0  0  0  0  0  0  0  0  0  0
   62.2168   30.5246   47.2466 H   0  0  0  0  0  0  0  0  0  0  0  0
   61.1390   28.5910   49.5450 H   0  0  0  0  0  0  0  0  0  0  0  0
   61.1044   27.7001   47.1474 H   0  0  0  0  0  0  0  0  0  0  0  0
   59.9013   27.7314   44.9677 H   0  0  0  0  0  0  0  0  0  0  0  0
   58.6640   29.4480   43.2410 H   0  0  0  0  0  0  0  0  0  0  0  0
   54.5380   29.3470   44.9100 H   0  0  0  0  0  0  0  0  0  0  0  0
   58.0024   31.4628   46.0747 H   0  0  0  0  0  0  0  0  0  0  0  0
   59.2042   31.4302   48.2532 H   0  0  0  0  0  0  0  0  0  0  0  0
   58.8530   29.7836   53.5748 H   0  0  0  0  0  0  0  0  0  0  0  0
   59.5921   31.8853   54.6679 H   0  0  0  0  0  0  0  0  0  0  0  0
   61.2169   33.3808   53.5407 H   0  0  0  0  0  0  0  0  0  0  0  0
  1  2  1  0
  2  3  2  0
  3  4  1  0
  4  5  2  0
  5  6  1  0
  6  7  2  0
  7  8  1  0
  8  9  2  0
  9 10  1  0
 10 11  1  0
 11 12  2  0
 12 13  1  0
 13 14  2  0
 14 15  1  0
 15 16  1  0
 16 17  1  0
 16 18  2  0
 16 19  2  0
 14 20  1  0
 20 21  2  0
  9 22  1  0
 22 23  2  0
 23 24  1  0
 23 25  1  0
 25 26  2  0
 26 27  1  0
 27 28  2  0
 28  2  1  0
  8  3  1  0
 21 11  1  0
 28 22  1  0
  1 29  1  0
  1 30  1  0
  1 31  1  0
  4 32  1  0
  5 33  1  0
  6 34  1  0
  7 35  1  0
 10 36  1  0
 12 37  1  0
 13 38  1  0
 15 39  1  0
 17 40  1  0
 20 41  1  0
 21 42  1  0
 25 43  1  0
 26 44  1  0
 27 45  1  0
M  CHG  3   2   1  17  -1  24  -1
M  END
>  <UniqueID>  (33) 
31

>  <SMILES>  (33) 
C[n+]1c2ccccc2c(Nc2ccc(NS([NH-])(=O)=O)cc2)c2c([O-])cccc21

>  <Energy>  (33) 
81.59674701895537

>  <Genealogy>  (33) 
C[n+]1c2ccccc2c(Nc2ccc(NS([NH-])(=O)=O)cc2)c2c([O-])cccc21 (protonated)
C[n+]1c2ccccc2c(Nc2ccc(NS([NH-])(=O)=O)cc2)c2c([O-])cccc21 (3D coordinates assigned)
C[n+]1c2ccccc2c(Nc2ccc(NS([NH-])(=O)=O)cc2)c2c([O-])cccc21 (optimized conformer: 81.59674701895537 kcal/mol)

>  <smiles>  (33) 
C[n+]1c2ccccc2c(Nc2ccc(NS(N)(=O)=O)cc2)c2c(O)cccc21

>  <score_type>  (33) 
oracle

>  <origin>  (33) 
adg

>  <m_score__min__energy>  (33) 
-10.67

>  <m_primary>  (33) 
energy

$$$$
33:0
     RDKit          3D

 73 76  0  0  0  0  0  0  0  0999 V2000
   62.1440   31.3890   47.2490 C   0  0  0  0  0  0  0  0  0  0  0  0
   63.3900   32.1650   47.3730 N   0  0  0  0  0  0  0  0  0  0  0  0
   63.2720   33.4800   46.7280 C   0  0  0  0  0  0  0  0  0  0  0  0
   63.9070   32.2350   48.7570 C   0  0  0  0  0  0  0  0  0  0  0  0
   62.8880   31.8370   49.8560 C   0  0  0  0  0  0  0  0  0  0  0  0
   62.5040   33.0140   50.7670 C   0  0  0  0  0  0  0  0  0  0  0  0
   61.1030   33.5390   50.4250 C   0  0  0  0  0  0  0  0  0  0  0  0
   61.1290   34.2840   49.2060 O   0  0  0  0  0  0  0  0  0  0  0  0
   60.2350   34.1230   48.1360 C   0  0  0  0  0  0  0  0  0  0  0  0
   59.3740   33.0230   48.1580 C   0  0  0  0  0  0  0  0  0  0  0  0
   58.4970   32.7800   47.0980 C   0  0  0  0  0  0  0  0  0  0  0  0
   57.7410   31.6540   47.1330 F   0  0  0  0  0  0  0  0  0  0  0  0
   58.4440   33.6600   45.9980 C   0  0  0  0  0  0  0  0  0  0  0  0
   57.5600   33.3750   44.8360 C   0  0  0  0  0  0  0  0  0  0  0  0
   56.6850   34.2140   44.4970 O   0  0  0  0  0  0  0  0  0  0  0  0
   57.6990   32.1810   44.0590 N   0  0  0  0  0  0  0  0  0  0  0  0
   57.2860   30.8790   44.4910 C   0  0  0  0  0  0  0  0  0  0  0  0
   55.9320   30.5330   44.4410 C   0  0  0  0  0  0  0  0  0  0  0  0
   55.5300   29.2890   44.8150 N   0  0  0  0  0  0  0  0  0  0  0  0
   56.4110   28.3590   45.2710 C   0  0  0  0  0  0  0  0  0  0  0  0
   55.9930   27.2230   45.6170 O   0  0  0  0  0  0  0  0  0  0  0  0
   57.7720   28.6750   45.3710 C   0  0  0  0  0  0  0  0  0  0  0  0
   58.6800   27.7430   45.8810 O   0  0  0  0  0  0  0  0  0  0  0  0
   59.2170   27.8420   47.1680 C   0  0  0  0  0  0  0  0  0  0  0  0
   60.1810   26.9130   47.5730 C   0  0  0  0  0  0  0  0  0  0  0  0
   60.7710   27.0130   48.8360 C   0  0  0  0  0  0  0  0  0  0  0  0
   60.3690   28.0170   49.7240 C   0  0  0  0  0  0  0  0  0  0  0  0
   60.9270   28.0620   50.9620 F   0  0  0  0  0  0  0  0  0  0  0  0
   59.3700   28.9370   49.3450 C   0  0  0  0  0  0  0  0  0  0  0  0
   58.8930   29.9700   50.2840 C   0  0  0  0  0  0  0  0  0  0  0  0
   58.4650   31.0680   49.8320 O   0  0  0  0  0  0  0  0  0  0  0  0
   58.9100   29.7340   51.6980 N   0  0  0  0  0  0  0  0  0  0  0  0
   57.9390   30.3530   52.5940 C   0  0  0  0  0  0  0  0  0  0  0  0
   58.3470   31.7750   52.8620 C   0  0  0  0  0  0  0  0  0  0  0  0
   57.8020   32.8190   52.0990 C   0  0  0  0  0  0  0  0  0  0  0  0
   58.1430   34.1470   52.3770 C   0  0  0  0  0  0  0  0  0  0  0  0
   59.0210   34.4420   53.4230 C   0  0  0  0  0  0  0  0  0  0  0  0
   59.5550   33.4090   54.1990 C   0  0  0  0  0  0  0  0  0  0  0  0
   59.2130   32.0790   53.9260 C   0  0  0  0  0  0  0  0  0  0  0  0
   58.8000   28.8450   48.0620 C   0  0  0  0  0  0  0  0  0  0  0  0
   58.2090   29.9420   44.9790 C   0  0  0  0  0  0  0  0  0  0  0  0
   59.3000   34.7770   45.9860 C   0  0  0  0  0  0  0  0  0  0  0  0
   59.2700   35.6620   44.9600 F   0  0  0  0  0  0  0  0  0  0  0  0
   60.1870   35.0070   47.0420 C   0  0  0  0  0  0  0  0  0  0  0  0
   61.7598   31.1497   48.2515 H   0  0  0  0  0  0  0  0  0  0  0  0
   61.3961   31.9813   46.7014 H   0  0  0  0  0  0  0  0  0  0  0  0
   62.3457   30.4565   46.7014 H   0  0  0  0  0  0  0  0  0  0  0  0
   63.2019   34.2615   47.4989 H   0  0  0  0  0  0  0  0  0  0  0  0
   64.1574   33.6617   46.1011 H   0  0  0  0  0  0  0  0  0  0  0  0
   62.3683   33.5012   46.1011 H   0  0  0  0  0  0  0  0  0  0  0  0
   64.7723   31.5602   48.8330 H   0  0  0  0  0  0  0  0  0  0  0  0
   64.1600   33.2900   48.9386 H   0  0  0  0  0  0  0  0  0  0  0  0
   61.9773   31.4572   49.3699 H   0  0  0  0  0  0  0  0  0  0  0  0
   63.3635   31.0715   50.4868 H   0  0  0  0  0  0  0  0  0  0  0  0
   62.5165   32.6775   51.8142 H   0  0  0  0  0  0  0  0  0  0  0  0
   63.2298   33.8265   50.6150 H   0  0  0  0  0  0  0  0  0  0  0  0
   60.4151   32.6878   50.3139 H   0  0  0  0  0  0  0  0  0  0  0  0
   60.7636   34.1990   51.2369 H   0  0  0  0  0  0  0  0  0  0  0  0
   59.3868   32.3401   49.0202 H   0  0  0  0  0  0  0  0  0  0  0  0
   55.1901   31.2692   44.0982 H   0  0  0  0  0  0  0  0  0  0  0  0
   60.4763   26.0995   46.8940 H   0  0  0  0  0  0  0  0  0  0  0  0
   61.5541   26.3000   49.1331 H   0  0  0  0  0  0  0  0  0  0  0  0
   59.5010   28.9550   52.0750 H   0  0  0  0  0  0  0  0  0  0  0  0
   56.9443   30.3383   52.1247 H   0  0  0  0  0  0  0  0  0  0  0  0
   57.9032   29.7949   53.5412 H   0  0  0  0  0  0  0  0  0  0  0  0
   57.1042   32.5924   51.2794 H   0  0  0  0  0  0  0  0  0  0  0  0
   57.7189   34.9609   51.7706 H   0  0  0  0  0  0  0  0  0  0  0  0
   59.2920   35.4866   53.6359 H   0  0  0  0  0  0  0  0  0  0  0  0
   60.2441   33.6412   55.0244 H   0  0  0  0  0  0  0  0  0  0  0  0
   59.6238   31.2691   54.5467 H   0  0  0  0  0  0  0  0  0  0  0  0
   58.0236   29.5617   47.7561 H   0  0  0  0  0  0  0  0  0  0  0  0
   59.2746   30.2048   45.0527 H   0  0  0  0  0  0  0  0  0  0  0  0
   60.8510   35.8837   47.0176 H   0  0  0  0  0  0  0  0  0  0  0  0
  1  2  1  0
  2  3  1  0
  2  4  1  0
  4  5  1  0
  5  6  1  0
  6  7  1  0
  7  8  1  0
  8  9  1  0
  9 10  2  0
 10 11  1  0
 11 12  1  0
 11 13  2  0
 13 14  1  0
 14 15  2  0
 14 16  1  0
 16 17  1  0
 17 18  2  0
 18 19  1  0
 19 20  1  0
 20 21  2  0
 20 22  1  0
 22 23  1  0
 23 24  1  0
 24 25  2  0
 25 26  1  0
 26 27  2  0
 27 28  1  0
 27 29  1  0
 29 30  1  0
 30 31  2  0
 30 32  1  0
 32 33  1  0
 33 34  1  0
 34 35  2  0
 35 36  1  0
 36 37  2  0
 37 38  1  0
 38 39  2  0
 29 40  2  0
 22 41  2  0
 13 42  1  0
 42 43  1  0
 42 44  2  0
 44  9  1  0
 41 17  1  0
 40 24  1  0
 39 34  1  0
  1 45  1  0
  1 46  1  0
  1 47  1  0
  3 48  1  0
  3 49  1  0
  3 50  1  0
  4 51  1  0
  4 52  1  0
  5 53  1  0
  5 54  1  0
  6 55  1  0
  6 56  1  0
  7 57  1  0
  7 58  1  0
 10 59  1  0
 18 60  1  0
 25 61  1  0
 26 62  1  0
 32 63  1  0
 33 64  1  0
 33 65  1  0
 35 66  1  0
 36 67  1  0
 37 68  1  0
 38 69  1  0
 39 70  1  0
 40 71  1  0
 41 72  1  0
 44 73  1  0
M  CHG  2  16  -1  19  -1
M  END
>  <UniqueID>  (34) 
32

>  <SMILES>  (34) 
CN(C)CCCCOc1cc(F)c(C(=O)[N-]c2c[n-]c(=O)c(Oc3ccc(F)c(C(=O)NCc4ccccc4)c3)c2)c(F)c1

>  <Energy>  (34) 
97.49868251934858

>  <Genealogy>  (34) 
CN(C)CCCCOc1cc(F)c(C(=O)[N-]c2c[n-]c(=O)c(Oc3ccc(F)c(C(=O)NCc4ccccc4)c3)c2)c(F)c1 (protonated)
CN(C)CCCCOc1cc(F)c(C(=O)[N-]c2c[n-]c(=O)c(Oc3ccc(F)c(C(=O)NCc4ccccc4)c3)c2)c(F)c1 (3D coordinates assigned)
CN(C)CCCCOc1cc(F)c(C(=O)[N-]c2c[n-]c(=O)c(Oc3ccc(F)c(C(=O)NCc4ccccc4)c3)c2)c(F)c1 (optimized conformer: 97.49868251934858 kcal/mol)

>  <smiles>  (34) 
CN(C)CCCCOc1cc(F)c(C(=O)Nc2c[nH]c(=O)c(Oc3ccc(F)c(C(=O)NCc4ccccc4)c3)c2)c(F)c1

>  <score_type>  (34) 
oracle

>  <origin>  (34) 
adg

>  <m_score__min__energy>  (34) 
-11.890000000000001

>  <m_primary>  (34) 
energy

$$$$
34:0
     RDKit          3D

 44 47  0  0  0  0  0  0  0  0999 V2000
   58.7111   32.2408   49.4718 H   0  0  0  0  0  0  0  0  0  0  0  0
   58.8310   32.8290   48.5500 C   0  0  0  0  0  0  0  0  0  0  0  0
   57.9360   32.6940   47.5380 N   0  0  0  0  0  0  0  0  0  0  0  0
   58.0380   33.3940   46.3750 C   0  0  0  0  0  0  0  0  0  0  0  0
   56.9810   33.1610   45.3230 C   0  0  0  0  0  0  0  0  0  0  0  0
   56.0335   33.6110   45.6543 H   0  0  0  0  0  0  0  0  0  0  0  0
   57.3067   33.6226   44.3791 H   0  0  0  0  0  0  0  0  0  0  0  0
   56.7870   31.7320   45.1110 N   0  0  0  0  0  0  0  0  0  0  0  0
   57.5040   30.9720   44.1320 C   0  0  0  0  0  0  0  0  0  0  0  0
   57.3690   31.2380   42.9080 O   0  0  0  0  0  0  0  0  0  0  0  0
   58.3760   29.8950   44.5120 N   0  0  0  0  0  0  0  0  0  0  0  0
   58.0340   28.6970   44.8890 C   0  0  0  0  0  0  0  0  0  0  0  0
   58.9480   27.6740   44.9370 N   0  0  0  0  0  0  0  0  0  0  0  0
   58.6170   26.4070   45.3260 C   0  0  0  0  0  0  0  0  0  0  0  0
   59.3716   25.6070   45.3500 H   0  0  0  0  0  0  0  0  0  0  0  0
   57.2940   26.1570   45.6920 C   0  0  0  0  0  0  0  0  0  0  0  0
   56.5730   25.0470   46.1140 C   0  0  0  0  0  0  0  0  0  0  0  0
   57.0020   23.7310   46.3490 O   0  0  0  0  0  0  0  0  0  0  0  0
   56.7570   22.6000   45.5150 C   0  0  1  0  0  0  0  0  0  0  0  0
   56.5806   21.7618   46.2051 H   0  0  0  0  0  0  0  0  0  0  0  0
   55.5900   22.8350   44.5650 C   0  0  0  0  0  0  0  0  0  0  0  0
   55.4231   23.9161   44.4495 H   0  0  0  0  0  0  0  0  0  0  0  0
   54.6833   22.3659   44.9747 H   0  0  0  0  0  0  0  0  0  0  0  0
   55.8860   22.2680   43.3080 O   0  0  0  0  0  0  0  0  0  0  0  0
   57.2280   21.8390   43.3380 C   0  0  0  0  0  0  0  0  0  0  0  0
   57.7492   22.1994   42.4388 H   0  0  0  0  0  0  0  0  0  0  0  0
   57.2630   20.7399   43.3638 H   0  0  0  0  0  0  0  0  0  0  0  0
   57.9040   22.3970   44.5720 C   0  0  0  0  0  0  0  0  0  0  0  0
   58.4088   23.3491   44.3511 H   0  0  0  0  0  0  0  0  0  0  0  0
   58.6879   21.7388   44.9747 H   0  0  0  0  0  0  0  0  0  0  0  0
   55.2820   25.4130   46.2840 N   0  0  0  0  0  0  0  0  0  0  0  0
   55.1530   26.7040   45.9970 N   0  0  0  0  0  0  0  0  0  0  0  0
   56.3660   27.1580   45.6400 C   0  0  0  0  0  0  0  0  0  0  0  0
   56.6950   28.4500   45.2450 C   0  0  0  0  0  0  0  0  0  0  0  0
   55.9383   29.2477   45.2121 H   0  0  0  0  0  0  0  0  0  0  0  0
   59.1060   34.3100   46.2070 C   0  0  0  0  0  0  0  0  0  0  0  0
   59.2710   35.1310   44.9550 C   0  0  0  0  0  0  0  0  0  0  0  0
   59.4810   36.1760   45.2268 H   0  0  0  0  0  0  0  0  0  0  0  0
   60.1068   34.7313   44.3619 H   0  0  0  0  0  0  0  0  0  0  0  0
   58.3457   35.0853   44.3619 H   0  0  0  0  0  0  0  0  0  0  0  0
   60.0360   34.4520   47.2490 C   0  0  0  0  0  0  0  0  0  0  0  0
   60.8772   35.1523   47.1392 H   0  0  0  0  0  0  0  0  0  0  0  0
   59.9000   33.7110   48.4220 C   0  0  0  0  0  0  0  0  0  0  0  0
   60.6297   33.8222   49.2376 H   0  0  0  0  0  0  0  0  0  0  0  0
  1  2  1  0
  2  3  2  0
  3  4  1  0
  4  5  1  0
  5  6  1  0
  5  7  1  0
  5  8  1  0
  8  9  1  0
  9 10  2  0
  9 11  1  0
 11 12  2  0
 12 13  1  0
 13 14  1  0
 14 15  1  0
 14 16  2  0
 16 17  1  0
 17 18  1  0
 18 19  1  0
 19 20  1  1
 19 21  1  0
 21 22  1  0
 21 23  1  0
 21 24  1  0
 24 25  1  0
 25 26  1  0
 25 27  1  0
 25 28  1  0
 28 29  1  0
 28 30  1  0
 17 31  2  0
 31 32  1  0
 32 33  1  0
 33 34  2  0
 34 35  1  0
  4 36  2  0
 36 37  1  0
 37 38  1  0
 37 39  1  0
 37 40  1  0
 36 41  1  0
 41 42  1  0
 41 43  2  0
 43 44  1  0
 43  2  1  0
 34 12  1  0
 33 16  1  0
 28 19  1  0
M  CHG  3   8  -1  13  -1  32  -1
M  END
>  <UniqueID>  (35) 
33

>  <SMILES>  (35) 
Cc1cccnc1C[N-]C(=O)/N=c1/cc2[n-]nc(O[C@@H]3CCOC3)c2c[n-]1

>  <Energy>  (35) 
92.36272607951948

>  <Genealogy>  (35) 
Cc1cccnc1C[N-]C(=O)N=c1cc2[n-]nc(OC3CCOC3)c2c[n-]1 (protonated)
Cc1cccnc1C[N-]C(=O)N=c1cc2[n-]nc(O[C@@H]3CCOC3)c2c[n-]1 (chirality)
Cc1cccnc1C[N-]C(=O)/N=c1/cc2[n-]nc(O[C@@H]3CCOC3)c2c[n-]1 (cis-trans isomerization)
Cc1cccnc1C[N-]C(=O)/N=c1/cc2[n-]nc(O[C@@H]3CCOC3)c2c[n-]1 (3D coordinates assigned)
Cc1cccnc1C[N-]C(=O)/N=c1/cc2[n-]nc(O[C@@H]3CCOC3)c2c[n-]1 (nonaromatic ring conformer: 92.36272607951948 kcal/mol)

>  <smiles>  (35) 
Cc1cccnc1CNC(=O)N=c1cc2[nH]nc(OC3CCOC3)c2c[nH]1

>  <score_type>  (35) 
oracle

>  <origin>  (35) 
adg

>  <m_score__min__energy>  (35) 
-12.99

>  <m_primary>  (35) 
energy

$$$$
35:0
     RDKit          3D

 49 52  0  0  0  0  0  0  0  0999 V2000
   58.6777   33.4501   42.1164 H   0  0  0  0  0  0  0  0  0  0  0  0
   58.1340   32.6790   42.6820 C   0  0  0  0  0  0  0  0  0  0  0  0
   57.4330   31.6780   42.0030 C   0  0  0  0  0  0  0  0  0  0  0  0
   57.4320   31.6572   40.9032 H   0  0  0  0  0  0  0  0  0  0  0  0
   56.7330   30.7030   42.7210 C   0  0  0  0  0  0  0  0  0  0  0  0
   56.1985   29.9048   42.1851 H   0  0  0  0  0  0  0  0  0  0  0  0
   56.7110   30.7410   44.1280 C   0  0  0  0  0  0  0  0  0  0  0  0
   56.0480   29.7210   44.8880 N   0  0  0  0  0  0  0  0  0  0  0  0
   56.6020   28.7680   45.5860 C   0  0  0  0  0  0  0  0  0  0  0  0
   55.9960   27.5560   45.6180 N   0  0  0  0  0  0  0  0  0  0  0  0
   58.3210   27.9170   46.9760 C   0  0  0  0  0  0  0  0  0  0  0  0
   59.4330   28.0490   47.6410 N   0  0  0  0  0  0  0  0  0  0  0  0
   56.2120   24.2160   45.5640 C   0  0  0  0  0  0  0  0  0  0  0  0
   56.3620   24.3950   44.1830 C   0  0  0  0  0  0  0  0  0  0  0  0
   56.2975   25.4059   43.7540 H   0  0  0  0  0  0  0  0  0  0  0  0
   56.5930   23.3000   43.3450 C   0  0  0  0  0  0  0  0  0  0  0  0
   56.7368   23.4563   42.2657 H   0  0  0  0  0  0  0  0  0  0  0  0
   56.6420   22.0030   43.8760 C   0  0  0  0  0  0  0  0  0  0  0  0
   56.9270   20.8310   42.9840 C   0  0  0  0  0  0  0  0  0  0  0  0
   57.1424   19.9453   43.5998 H   0  0  0  0  0  0  0  0  0  0  0  0
   56.0511   20.6319   42.3491 H   0  0  0  0  0  0  0  0  0  0  0  0
   57.7965   21.0564   42.3491 H   0  0  0  0  0  0  0  0  0  0  0  0
   56.4780   21.8170   45.2570 C   0  0  0  0  0  0  0  0  0  0  0  0
   56.5299   20.8042   45.6830 H   0  0  0  0  0  0  0  0  0  0  0  0
   56.2490   22.9130   46.0940 C   0  0  0  0  0  0  0  0  0  0  0  0
   56.0970   22.7561   47.1721 H   0  0  0  0  0  0  0  0  0  0  0  0
   57.6860   26.7190   47.0060 N   0  0  0  0  0  0  0  0  0  0  0  0
   56.5340   26.5260   46.3200 C   0  0  0  0  0  0  0  0  0  0  0  0
   55.9450   25.3670   46.3830 N   0  0  0  0  0  0  0  0  0  0  0  0
   59.6660   28.9670   48.7520 C   0  0  0  0  0  0  0  0  0  0  0  0
   58.7846   28.9793   49.4100 H   0  0  0  0  0  0  0  0  0  0  0  0
   60.5440   28.6363   49.3262 H   0  0  0  0  0  0  0  0  0  0  0  0
   59.9080   30.3470   48.2110 C   0  0  0  0  0  0  0  0  0  0  0  0
   61.1510   30.6790   47.6480 C   0  0  0  0  0  0  0  0  0  0  0  0
   61.9604   29.9344   47.6283 H   0  0  0  0  0  0  0  0  0  0  0  0
   61.3630   31.9540   47.1120 C   0  0  0  0  0  0  0  0  0  0  0  0
   62.3407   32.2123   46.6791 H   0  0  0  0  0  0  0  0  0  0  0  0
   60.3350   32.8990   47.1260 C   0  0  0  0  0  0  0  0  0  0  0  0
   60.5049   33.9022   46.7079 H   0  0  0  0  0  0  0  0  0  0  0  0
   59.0900   32.5710   47.6710 C   0  0  0  0  0  0  0  0  0  0  0  0
   58.2802   33.3154   47.6784 H   0  0  0  0  0  0  0  0  0  0  0  0
   58.8730   31.2970   48.2070 C   0  0  0  0  0  0  0  0  0  0  0  0
   57.8895   31.0385   48.6264 H   0  0  0  0  0  0  0  0  0  0  0  0
   57.7840   28.9450   46.2500 N   0  0  0  0  0  0  0  0  0  0  0  0
   58.2950   29.8500   46.1750 H   0  0  0  0  0  0  0  0  0  0  0  0
   57.4450   31.7270   44.8000 C   0  0  0  0  0  0  0  0  0  0  0  0
   57.4716   31.7358   45.8996 H   0  0  0  0  0  0  0  0  0  0  0  0
   58.1440   32.7000   44.0790 C   0  0  0  0  0  0  0  0  0  0  0  0
   58.7026   33.4832   44.6125 H   0  0  0  0  0  0  0  0  0  0  0  0
  1  2  1  0
  2  3  2  0
  3  4  1  0
  3  5  1  0
  5  6  1  0
  5  7  2  0
  7  8  1  0
  8  9  2  3
  9 10  1  0
 10 11  1  0
 11 12  2  0
 12 13  1  0
 13 14  2  0
 14 15  1  0
 14 16  1  0
 16 17  1  0
 16 18  2  0
 18 19  1  0
 19 20  1  0
 19 21  1  0
 19 22  1  0
 18 23  1  0
 23 24  1  0
 23 25  2  0
 25 26  1  0
 11 27  1  0
 27 28  1  0
 28 29  2  0
 29 30  1  0
 30 31  1  0
 30 32  1  0
 30 33  1  0
 33 34  2  0
 34 35  1  0
 34 36  1  0
 36 37  1  0
 36 38  2  0
 38 39  1  0
 38 40  1  0
 40 41  1  0
 40 42  2  0
 42 43  1  0
 28 44  1  0
 44 45  1  0
  7 46  1  0
 46 47  1  0
 46 48  2  0
 48 49  1  0
 48  2  1  0
 44  9  1  0
 25 13  1  0
 42 33  1  0
M  CHG  2  10  -1  27  -1
M  END
>  <UniqueID>  (36) 
34

>  <SMILES>  (36) 
Cc1ccc(/N=c2\[n-]c(=Nc3ccccc3)[nH]/c(=N\Cc3ccccc3)[n-]2)cc1

>  <Energy>  (36) 
68.50541318340464

>  <Genealogy>  (36) 
Cc1ccc(N=c2[n-]c(=NCc3ccccc3)[nH]c(=Nc3ccccc3)[n-]2)cc1 (protonated)
Cc1ccc(/N=c2\[n-]c(=Nc3ccccc3)[nH]/c(=N\Cc3ccccc3)[n-]2)cc1 (cis-trans isomerization)
Cc1ccc(/N=c2\[n-]c(=Nc3ccccc3)[nH]/c(=N\Cc3ccccc3)[n-]2)cc1 (3D coordinates assigned)
Cc1ccc(/N=c2\[n-]c(=Nc3ccccc3)[nH]/c(=N\Cc3ccccc3)[n-]2)cc1 (optimized conformer: 68.50541318340464 kcal/mol)

>  <smiles>  (36) 
Cc1ccc(N=c2[nH]c(=NCc3ccccc3)[nH]c(=Nc3ccccc3)[nH]2)cc1

>  <score_type>  (36) 
oracle

>  <origin>  (36) 
adg

>  <m_score__min__energy>  (36) 
-12.42

>  <m_primary>  (36) 
energy

$$$$
36:0
     RDKit          3D

 50 52  0  0  0  0  0  0  0  0999 V2000
   60.1540   34.2900   48.4520 C   0  0  0  0  0  0  0  0  0  0  0  0
   59.4450   33.4970   47.3900 C   0  0  0  0  0  0  0  0  0  0  0  0
   59.5070   32.0960   47.4060 C   0  0  0  0  0  0  0  0  0  0  0  0
   58.8600   31.3490   46.4150 C   0  0  0  0  0  0  0  0  0  0  0  0
   58.1550   31.9960   45.3890 C   0  0  0  0  0  0  0  0  0  0  0  0
   57.3270   31.0360   44.1600 S   0  0  0  0  0  0  0  0  0  0  0  0
   55.8650   30.8710   44.5100 O   0  0  0  0  0  0  0  0  0  0  0  0
   57.4400   31.7670   42.8490 O   0  0  0  0  0  0  0  0  0  0  0  0
   58.0770   29.4740   44.0010 N   0  0  0  0  0  0  0  0  0  0  0  0
   57.9960   28.4710   45.0160 C   0  0  0  0  0  0  0  0  0  0  0  0
   59.1600   27.9100   45.5710 C   0  0  0  0  0  0  0  0  0  0  0  0
   59.0660   26.8800   46.5060 C   0  0  0  0  0  0  0  0  0  0  0  0
   57.8110   26.3860   46.8940 C   0  0  0  0  0  0  0  0  0  0  0  0
   57.7630   25.2980   47.8230 N   0  0  0  0  0  0  0  0  0  0  0  0
   56.8680   23.8240   47.6040 S   0  0  0  0  0  0  0  0  0  0  0  0
   55.4080   24.0940   47.8700 O   0  0  0  0  0  0  0  0  0  0  0  0
   57.3910   22.7860   48.5560 O   0  0  0  0  0  0  0  0  0  0  0  0
   57.0700   23.2150   45.9480 C   0  0  0  0  0  0  0  0  0  0  0  0
   58.1810   22.4030   45.6650 C   0  0  0  0  0  0  0  0  0  0  0  0
   58.3260   21.8120   44.4240 C   0  0  0  0  0  0  0  0  0  0  0  0
   57.3600   22.0040   43.4350 C   0  0  0  0  0  0  0  0  0  0  0  0
   56.2440   22.8140   43.6710 C   0  0  0  0  0  0  0  0  0  0  0  0
   55.2370   22.9970   42.5590 C   0  0  0  0  0  0  0  0  0  0  0  0
   56.1070   23.4690   44.9290 C   0  0  0  0  0  0  0  0  0  0  0  0
   54.9030   24.3460   45.2050 C   0  0  0  0  0  0  0  0  0  0  0  0
   56.6430   26.9660   46.3570 C   0  0  0  0  0  0  0  0  0  0  0  0
   56.7360   28.0140   45.4300 C   0  0  0  0  0  0  0  0  0  0  0  0
   55.5790   28.5840   44.8930 O   0  0  0  0  0  0  0  0  0  0  0  0
   58.1010   33.3970   45.3650 C   0  0  0  0  0  0  0  0  0  0  0  0
   58.7460   34.1430   46.3590 C   0  0  0  0  0  0  0  0  0  0  0  0
   59.8386   33.9372   49.4450 H   0  0  0  0  0  0  0  0  0  0  0  0
   61.2407   34.1579   48.3441 H   0  0  0  0  0  0  0  0  0  0  0  0
   59.9016   35.3552   48.3441 H   0  0  0  0  0  0  0  0  0  0  0  0
   60.0668   31.5819   48.2012 H   0  0  0  0  0  0  0  0  0  0  0  0
   58.9044   30.2502   46.4406 H   0  0  0  0  0  0  0  0  0  0  0  0
   60.1482   28.2851   45.2664 H   0  0  0  0  0  0  0  0  0  0  0  0
   59.9808   26.4521   46.9421 H   0  0  0  0  0  0  0  0  0  0  0  0
   58.9439   22.2357   46.4396 H   0  0  0  0  0  0  0  0  0  0  0  0
   59.2069   21.1873   44.2148 H   0  0  0  0  0  0  0  0  0  0  0  0
   57.4776   21.5124   42.4580 H   0  0  0  0  0  0  0  0  0  0  0  0
   54.2419   23.1778   42.9916 H   0  0  0  0  0  0  0  0  0  0  0  0
   55.5287   23.8569   41.9380 H   0  0  0  0  0  0  0  0  0  0  0  0
   55.2075   22.0895   41.9380 H   0  0  0  0  0  0  0  0  0  0  0  0
   54.7643   24.4470   46.2915 H   0  0  0  0  0  0  0  0  0  0  0  0
   55.0640   25.3399   44.7619 H   0  0  0  0  0  0  0  0  0  0  0  0
   54.0064   23.8879   44.7619 H   0  0  0  0  0  0  0  0  0  0  0  0
   55.6549   26.5947   46.6666 H   0  0  0  0  0  0  0  0  0  0  0  0
   55.5590   28.9750   43.9560 H   0  0  0  0  0  0  0  0  0  0  0  0
   57.5506   33.9112   44.5633 H   0  0  0  0  0  0  0  0  0  0  0  0
   58.7045   35.2419   46.3315 H   0  0  0  0  0  0  0  0  0  0  0  0
  1  2  1  0
  2  3  2  0
  3  4  1  0
  4  5  2  0
  5  6  1  0
  6  7  2  0
  6  8  2  0
  6  9  1  0
  9 10  1  0
 10 11  2  0
 11 12  1  0
 12 13  2  0
 13 14  1  0
 14 15  1  0
 15 16  2  0
 15 17  2  0
 15 18  1  0
 18 19  2  0
 19 20  1  0
 20 21  2  0
 21 22  1  0
 22 23  1  0
 22 24  2  0
 24 25  1  0
 13 26  1  0
 26 27  2  0
 27 28  1  0
  5 29  1  0
 29 30  2  0
 30  2  1  0
 27 10  1  0
 24 18  1  0
  1 31  1  0
  1 32  1  0
  1 33  1  0
  3 34  1  0
  4 35  1  0
 11 36  1  0
 12 37  1  0
 19 38  1  0
 20 39  1  0
 21 40  1  0
 23 41  1  0
 23 42  1  0
 23 43  1  0
 25 44  1  0
 25 45  1  0
 25 46  1  0
 26 47  1  0
 28 48  1  0
 29 49  1  0
 30 50  1  0
M  CHG  2   9  -1  14  -1
M  END
>  <UniqueID>  (37) 
35

>  <SMILES>  (37) 
Cc1ccc(S(=O)(=O)[N-]c2ccc([N-]S(=O)(=O)c3cccc(C)c3C)cc2O)cc1

>  <Energy>  (37) 
66.4610220858439

>  <Genealogy>  (37) 
Cc1ccc(S(=O)(=O)[N-]c2ccc([N-]S(=O)(=O)c3cccc(C)c3C)cc2O)cc1 (protonated)
Cc1ccc(S(=O)(=O)[N-]c2ccc([N-]S(=O)(=O)c3cccc(C)c3C)cc2O)cc1 (3D coordinates assigned)
Cc1ccc(S(=O)(=O)[N-]c2ccc([N-]S(=O)(=O)c3cccc(C)c3C)cc2O)cc1 (optimized conformer: 66.4610220858439 kcal/mol)

>  <smiles>  (37) 
Cc1ccc(S(=O)(=O)Nc2ccc(NS(=O)(=O)c3cccc(C)c3C)cc2O)cc1

>  <score_type>  (37) 
oracle

>  <origin>  (37) 
adg

>  <m_score__min__energy>  (37) 
-13.08

>  <m_primary>  (37) 
energy

$$$$
37:0
     RDKit          3D

 44 46  0  0  0  0  0  0  0  0999 V2000
   59.4087   28.3635   46.7174 H   0  0  0  0  0  0  0  0  0  0  0  0
   58.3970   28.4430   46.2930 C   0  0  0  0  0  0  0  0  0  0  0  0
   57.5340   27.4020   46.4030 N   0  0  0  0  0  0  0  0  0  0  0  0
   56.2760   27.4700   45.8970 C   0  0  0  0  0  0  0  0  0  0  0  0
   55.4920   26.4360   46.0060 N   0  0  0  0  0  0  0  0  0  0  0  0
   55.6540   25.1590   45.3670 C   0  0  0  0  0  0  0  0  0  0  0  0
   54.6460   24.2000   45.5180 C   0  0  0  0  0  0  0  0  0  0  0  0
   53.7660   24.4267   46.1379 H   0  0  0  0  0  0  0  0  0  0  0  0
   54.7480   22.9570   44.8880 C   0  0  0  0  0  0  0  0  0  0  0  0
   53.9561   22.2068   45.0297 H   0  0  0  0  0  0  0  0  0  0  0  0
   55.8500   22.6590   44.0780 C   0  0  0  0  0  0  0  0  0  0  0  0
   55.9090   21.3960   43.4700 O   0  0  0  0  0  0  0  0  0  0  0  0
   57.0950   20.8140   42.9390 C   0  0  0  0  0  0  0  0  0  0  0  0
   57.7476   20.4937   43.7645 H   0  0  0  0  0  0  0  0  0  0  0  0
   56.8311   19.9430   42.3211 H   0  0  0  0  0  0  0  0  0  0  0  0
   57.6225   21.5556   42.3211 H   0  0  0  0  0  0  0  0  0  0  0  0
   56.8510   23.6320   43.8980 C   0  0  0  0  0  0  0  0  0  0  0  0
   57.7180   23.4130   43.2574 H   0  0  0  0  0  0  0  0  0  0  0  0
   56.7490   24.8750   44.5290 C   0  0  0  0  0  0  0  0  0  0  0  0
   57.5281   25.6351   44.3700 H   0  0  0  0  0  0  0  0  0  0  0  0
   55.8760   28.5980   45.2500 N   0  0  0  0  0  0  0  0  0  0  0  0
   56.7000   29.6680   45.1130 C   0  0  0  0  0  0  0  0  0  0  0  0
   56.2850   30.6920   44.5100 O   0  0  0  0  0  0  0  0  0  0  0  0
   58.0030   29.6220   45.6390 C   0  0  0  0  0  0  0  0  0  0  0  0
   58.8900   30.7520   45.5030 N   0  0  0  0  0  0  0  0  0  0  0  0
   58.6820   31.4630   44.7660 H   0  0  0  0  0  0  0  0  0  0  0  0
   60.0720   30.9470   46.3460 C   0  0  0  0  0  0  0  0  0  0  0  0
   60.1637   30.0993   47.0410 H   0  0  0  0  0  0  0  0  0  0  0  0
   60.9605   31.0090   45.7005 H   0  0  0  0  0  0  0  0  0  0  0  0
   59.9570   32.2270   47.1380 C   0  0  0  0  0  0  0  0  0  0  0  0
   60.3200   32.2400   48.4950 C   0  0  0  0  0  0  0  0  0  0  0  0
   60.7068   31.3243   48.9661 H   0  0  0  0  0  0  0  0  0  0  0  0
   60.1930   33.4070   49.2490 C   0  0  0  0  0  0  0  0  0  0  0  0
   60.4884   33.4113   50.3086 H   0  0  0  0  0  0  0  0  0  0  0  0
   59.6920   34.5680   48.6610 C   0  0  0  0  0  0  0  0  0  0  0  0
   59.5966   35.4876   49.2569 H   0  0  0  0  0  0  0  0  0  0  0  0
   59.3110   34.5660   47.3170 C   0  0  0  0  0  0  0  0  0  0  0  0
   58.9135   35.4842   46.8600 H   0  0  0  0  0  0  0  0  0  0  0  0
   59.4330   33.3940   46.5430 C   0  0  0  0  0  0  0  0  0  0  0  0
   59.0430   33.3540   45.1940 O   0  0  0  0  0  0  0  0  0  0  0  0
   57.7740   33.7780   44.7070 C   0  0  0  0  0  0  0  0  0  0  0  0
   57.1108   33.9996   45.5561 H   0  0  0  0  0  0  0  0  0  0  0  0
   57.9000   34.6828   44.0943 H   0  0  0  0  0  0  0  0  0  0  0  0
   57.3308   32.9791   44.0943 H   0  0  0  0  0  0  0  0  0  0  0  0
  1  2  1  0
  2  3  1  0
  3  4  1  0
  4  5  2  0
  5  6  1  0
  6  7  2  0
  7  8  1  0
  7  9  1  0
  9 10  1  0
  9 11  2  0
 11 12  1  0
 12 13  1  0
 13 14  1  0
 13 15  1  0
 13 16  1  0
 11 17  1  0
 17 18  1  0
 17 19  2  0
 19 20  1  0
  4 21  1  0
 21 22  1  0
 22 23  2  0
 22 24  1  0
 24 25  1  0
 25 26  1  0
 25 27  1  0
 27 28  1  0
 27 29  1  0
 27 30  1  0
 30 31  2  0
 31 32  1  0
 31 33  1  0
 33 34  1  0
 33 35  2  0
 35 36  1  0
 35 37  1  0
 37 38  1  0
 37 39  2  0
 39 40  1  0
 40 41  1  0
 41 42  1  0
 41 43  1  0
 41 44  1  0
 24  2  2  0
 39 30  1  0
 19  6  1  0
M  CHG  2   3  -1  21  -1
M  END
>  <UniqueID>  (38) 
36

>  <SMILES>  (38) 
COc1ccc(/N=c2/[n-]cc(NCc3ccccc3OC)c(=O)[n-]2)cc1

>  <Energy>  (38) 
53.488056266923245

>  <Genealogy>  (38) 
COc1ccc(N=c2[n-]cc(NCc3ccccc3OC)c(=O)[n-]2)cc1 (protonated)
COc1ccc(/N=c2/[n-]cc(NCc3ccccc3OC)c(=O)[n-]2)cc1 (cis-trans isomerization)
COc1ccc(/N=c2/[n-]cc(NCc3ccccc3OC)c(=O)[n-]2)cc1 (3D coordinates assigned)
COc1ccc(/N=c2/[n-]cc(NCc3ccccc3OC)c(=O)[n-]2)cc1 (optimized conformer: 53.488056266923245 kcal/mol)

>  <smiles>  (38) 
COc1ccc(N=c2[nH]cc(NCc3ccccc3OC)c(=O)[nH]2)cc1

>  <score_type>  (38) 
oracle

>  <origin>  (38) 
adg

>  <m_score__min__energy>  (38) 
-11.09

>  <m_primary>  (38) 
energy

$$$$
38:0
     RDKit          3D

 46 48  0  0  0  0  0  0  0  0999 V2000
   59.1330   34.3590   44.8680 C   0  0  0  0  0  0  0  0  0  0  0  0
   58.3020   33.1540   44.5460 C   0  0  0  0  0  0  0  0  0  0  0  0
   58.1170   32.7520   43.2170 C   0  0  0  0  0  0  0  0  0  0  0  0
   57.3820   31.6010   42.9300 C   0  0  0  0  0  0  0  0  0  0  0  0
   56.8330   30.8550   43.9830 C   0  0  0  0  0  0  0  0  0  0  0  0
   56.0720   29.5910   43.7100 C   0  0  0  0  0  0  0  0  0  0  0  0
   56.0050   28.7820   44.9290 N   0  0  0  0  0  0  0  0  0  0  0  0
   57.3570   27.6930   44.9890 S   0  0  0  0  0  0  0  0  0  0  0  0
   56.8610   26.3090   45.3000 O   0  0  0  0  0  0  0  0  0  0  0  0
   58.0500   27.6580   43.6560 O   0  0  0  0  0  0  0  0  0  0  0  0
   58.4880   28.1980   46.2420 C   0  0  0  0  0  0  0  0  0  0  0  0
   58.1800   28.0030   47.5940 C   0  0  0  0  0  0  0  0  0  0  0  0
   59.0830   28.3950   48.5870 C   0  0  0  0  0  0  0  0  0  0  0  0
   60.3090   28.9850   48.2350 C   0  0  0  0  0  0  0  0  0  0  0  0
   61.2650   29.4070   49.2180 N   0  0  0  0  0  0  0  0  0  0  0  0
   61.3660   31.0020   49.8900 S   0  0  0  0  0  0  0  0  0  0  0  0
   59.9870   31.4680   50.2590 O   0  0  0  0  0  0  0  0  0  0  0  0
   62.2160   30.9610   51.1300 O   0  0  0  0  0  0  0  0  0  0  0  0
   62.0450   32.1070   48.7000 C   0  0  0  0  0  0  0  0  0  0  0  0
   61.2080   32.7050   47.7480 C   0  0  0  0  0  0  0  0  0  0  0  0
   61.7420   33.5790   46.7950 C   0  0  0  0  0  0  0  0  0  0  0  0
   63.1120   33.8570   46.7890 C   0  0  0  0  0  0  0  0  0  0  0  0
   63.6290   34.7040   45.8630 F   0  0  0  0  0  0  0  0  0  0  0  0
   63.9500   33.2600   47.7380 C   0  0  0  0  0  0  0  0  0  0  0  0
   63.4190   32.3880   48.6920 C   0  0  0  0  0  0  0  0  0  0  0  0
   60.6150   29.1720   46.8810 C   0  0  0  0  0  0  0  0  0  0  0  0
   59.7110   28.7800   45.8900 C   0  0  0  0  0  0  0  0  0  0  0  0
   57.0460   31.2480   45.2690 N   0  0  0  0  0  0  0  0  0  0  0  0
   57.7590   32.3660   45.5710 C   0  0  0  0  0  0  0  0  0  0  0  0
   59.2098   34.4704   45.9596 H   0  0  0  0  0  0  0  0  0  0  0  0
   60.1389   34.2356   44.4403 H   0  0  0  0  0  0  0  0  0  0  0  0
   58.6602   35.2554   44.4403 H   0  0  0  0  0  0  0  0  0  0  0  0
   58.5517   33.3444   42.3984 H   0  0  0  0  0  0  0  0  0  0  0  0
   57.2346   31.2819   41.8877 H   0  0  0  0  0  0  0  0  0  0  0  0
   55.0527   29.8417   43.3811 H   0  0  0  0  0  0  0  0  0  0  0  0
   56.5847   29.0202   42.9217 H   0  0  0  0  0  0  0  0  0  0  0  0
   55.1440   28.1880   44.8800 H   0  0  0  0  0  0  0  0  0  0  0  0
   57.2233   27.5393   47.8762 H   0  0  0  0  0  0  0  0  0  0  0  0
   58.8330   28.2411   49.6471 H   0  0  0  0  0  0  0  0  0  0  0  0
   60.1299   32.4868   47.7502 H   0  0  0  0  0  0  0  0  0  0  0  0
   61.0830   34.0480   46.0495 H   0  0  0  0  0  0  0  0  0  0  0  0
   65.0282   33.4776   47.7328 H   0  0  0  0  0  0  0  0  0  0  0  0
   64.0795   31.9214   49.4377 H   0  0  0  0  0  0  0  0  0  0  0  0
   61.5733   29.6305   46.5958 H   0  0  0  0  0  0  0  0  0  0  0  0
   59.9617   28.9295   44.8294 H   0  0  0  0  0  0  0  0  0  0  0  0
   57.9102   32.6529   46.6221 H   0  0  0  0  0  0  0  0  0  0  0  0
  1  2  1  0
  2  3  2  0
  3  4  1  0
  4  5  2  0
  5  6  1  0
  6  7  1  0
  7  8  1  0
  8  9  2  0
  8 10  2  0
  8 11  1  0
 11 12  2  0
 12 13  1  0
 13 14  2  0
 14 15  1  0
 15 16  1  0
 16 17  2  0
 16 18  2  0
 16 19  1  0
 19 20  2  0
 20 21  1  0
 21 22  2  0
 22 23  1  0
 22 24  1  0
 24 25  2  0
 14 26  1  0
 26 27  2  0
  5 28  1  0
 28 29  2  0
 29  2  1  0
 27 11  1  0
 25 19  1  0
  1 30  1  0
  1 31  1  0
  1 32  1  0
  3 33  1  0
  4 34  1  0
  6 35  1  0
  6 36  1  0
  7 37  1  0
 12 38  1  0
 13 39  1  0
 20 40  1  0
 21 41  1  0
 24 42  1  0
 25 43  1  0
 26 44  1  0
 27 45  1  0
 29 46  1  0
M  CHG  1  15  -1
M  END
>  <UniqueID>  (39) 
37

>  <SMILES>  (39) 
Cc1ccc(CNS(=O)(=O)c2ccc([N-]S(=O)(=O)c3ccc(F)cc3)cc2)nc1

>  <Energy>  (39) 
48.10243111963824

>  <Genealogy>  (39) 
Cc1ccc(CNS(=O)(=O)c2ccc([N-]S(=O)(=O)c3ccc(F)cc3)cc2)nc1 (protonated)
Cc1ccc(CNS(=O)(=O)c2ccc([N-]S(=O)(=O)c3ccc(F)cc3)cc2)nc1 (3D coordinates assigned)
Cc1ccc(CNS(=O)(=O)c2ccc([N-]S(=O)(=O)c3ccc(F)cc3)cc2)nc1 (optimized conformer: 48.10243111963824 kcal/mol)

>  <smiles>  (39) 
Cc1ccc(CNS(=O)(=O)c2ccc(NS(=O)(=O)c3ccc(F)cc3)cc2)nc1

>  <score_type>  (39) 
oracle

>  <origin>  (39) 
adg

>  <m_score__min__energy>  (39) 
-10.470000000000001

>  <m_primary>  (39) 
energy

$$$$
39:0
     RDKit          3D

 37 39  0  0  0  0  0  0  0  0999 V2000
   60.0390   34.2280   49.0650 C   0  0  0  0  0  0  0  0  0  0  0  0
   59.1930   33.3000   48.4160 O   0  0  0  0  0  0  0  0  0  0  0  0
   58.7560   33.4640   47.1140 C   0  0  0  0  0  0  0  0  0  0  0  0
   59.2510   34.4190   46.2710 C   0  0  0  0  0  0  0  0  0  0  0  0
   58.7870   34.5560   44.9580 C   0  0  0  0  0  0  0  0  0  0  0  0
   57.8000   33.7020   44.5010 C   0  0  0  0  0  0  0  0  0  0  0  0
   57.2840   32.7270   45.3350 C   0  0  0  0  0  0  0  0  0  0  0  0
   56.2930   31.8930   44.8280 O   0  0  0  0  0  0  0  0  0  0  0  0
   56.7030   30.8520   43.9920 C   0  0  0  0  0  0  0  0  0  0  0  0
   57.2470   29.6720   44.6830 C   0  0  0  0  0  0  0  0  0  0  0  0
   56.6080   28.6030   45.1710 N   0  0  0  0  0  0  0  0  0  0  0  0
   57.5300   27.7830   45.7180 C   0  0  0  0  0  0  0  0  0  0  0  0
   57.4230   26.5490   46.3590 C   0  0  0  0  0  0  0  0  0  0  0  0
   56.1510   25.8890   46.5540 C   0  0  0  0  0  0  0  0  0  0  0  0
   55.0000   26.3400   45.8580 N   0  0  0  0  0  0  0  0  0  0  0  0
   56.0530   24.9030   47.3450 O   0  0  0  0  0  0  0  0  0  0  0  0
   58.5930   25.9530   46.8170 C   0  0  0  0  0  0  0  0  0  0  0  0
   59.8330   26.5340   46.6600 C   0  0  0  0  0  0  0  0  0  0  0  0
   59.9360   27.7540   46.0270 C   0  0  0  0  0  0  0  0  0  0  0  0
   58.7780   28.3550   45.5670 C   0  0  0  0  0  0  0  0  0  0  0  0
   58.5810   29.5220   44.9250 N   0  0  0  0  0  0  0  0  0  0  0  0
   57.7710   32.6270   46.6210 C   0  0  0  0  0  0  0  0  0  0  0  0
   59.9377   34.1168   50.1547 H   0  0  0  0  0  0  0  0  0  0  0  0
   61.0826   34.0396   48.7727 H   0  0  0  0  0  0  0  0  0  0  0  0
   59.7551   35.2497   48.7727 H   0  0  0  0  0  0  0  0  0  0  0  0
   60.0358   35.0987   46.6346 H   0  0  0  0  0  0  0  0  0  0  0  0
   59.2017   35.3324   44.2983 H   0  0  0  0  0  0  0  0  0  0  0  0
   57.4244   33.7985   43.4716 H   0  0  0  0  0  0  0  0  0  0  0  0
   55.8345   30.5291   43.3992 H   0  0  0  0  0  0  0  0  0  0  0  0
   57.5250   31.2552   43.3823 H   0  0  0  0  0  0  0  0  0  0  0  0
   54.7350   25.9950   44.9120 H   0  0  0  0  0  0  0  0  0  0  0  0
   54.4160   27.0640   46.3700 H   0  0  0  0  0  0  0  0  0  0  0  0
   58.5262   24.9794   47.3246 H   0  0  0  0  0  0  0  0  0  0  0  0
   60.7338   26.0277   47.0371 H   0  0  0  0  0  0  0  0  0  0  0  0
   60.9145   28.2377   45.8910 H   0  0  0  0  0  0  0  0  0  0  0  0
   59.3380   30.1930   44.6630 H   0  0  0  0  0  0  0  0  0  0  0  0
   57.3595   31.8500   47.2820 H   0  0  0  0  0  0  0  0  0  0  0  0
  1  2  1  0
  2  3  1  0
  3  4  2  0
  4  5  1  0
  5  6  2  0
  6  7  1  0
  7  8  1  0
  8  9  1  0
  9 10  1  0
 10 11  2  0
 11 12  1  0
 12 13  2  0
 13 14  1  0
 14 15  1  0
 14 16  2  0
 13 17  1  0
 17 18  2  0
 18 19  1  0
 19 20  2  0
 20 21  1  0
  7 22  2  0
 22  3  1  0
 21 10  1  0
 20 12  1  0
  1 23  1  0
  1 24  1  0
  1 25  1  0
  4 26  1  0
  5 27  1  0
  6 28  1  0
  9 29  1  0
  9 30  1  0
 15 31  1  0
 15 32  1  0
 17 33  1  0
 18 34  1  0
 19 35  1  0
 21 36  1  0
 22 37  1  0
M  END
>  <smiles>  (40) 
COc1cccc(OCc2nc3c(C(N)=O)cccc3[nH]2)c1

>  <score_type>  (40) 
oracle

>  <origin>  (40) 
adg

>  <m_score__min__energy>  (40) 
-7.7000000000000002

>  <m_primary>  (40) 
energy

$$$$
40:0
     RDKit          3D

 58 61  0  0  0  0  0  0  0  0999 V2000
   56.5170   27.8910   45.7030 N   0  0  0  0  0  0  0  0  0  0  0  0
   57.5370   29.2250   45.2900 S   0  0  0  0  0  0  0  0  0  0  0  0
   58.2250   28.9400   43.9860 O   0  0  0  0  0  0  0  0  0  0  0  0
   56.7040   30.4670   45.1350 O   0  0  0  0  0  0  0  0  0  0  0  0
   58.7320   29.4650   46.5610 C   0  0  0  0  0  0  0  0  0  0  0  0
   59.9030   30.1850   46.2940 C   0  0  0  0  0  0  0  0  0  0  0  0
   60.8490   30.3880   47.3030 C   0  0  0  0  0  0  0  0  0  0  0  0
   60.6270   29.8930   48.5960 C   0  0  0  0  0  0  0  0  0  0  0  0
   61.6360   30.0870   49.6020 N   0  0  0  0  0  0  0  0  0  0  0  0
   61.3630   30.3640   50.9870 C   0  0  0  0  0  0  0  0  0  0  0  0
   60.2190   30.7510   51.3480 O   0  0  0  0  0  0  0  0  0  0  0  0
   62.4310   30.2120   51.9950 C   0  0  0  0  0  0  0  0  0  0  0  0
   62.1070   29.7640   53.2860 C   0  0  0  0  0  0  0  0  0  0  0  0
   63.0920   29.6770   54.2680 C   0  0  0  0  0  0  0  0  0  0  0  0
   64.3990   30.0450   53.9590 C   0  0  0  0  0  0  0  0  0  0  0  0
   64.7040   30.4860   52.7110 N   0  0  0  0  0  0  0  0  0  0  0  0
   63.7700   30.5780   51.7250 C   0  0  0  0  0  0  0  0  0  0  0  0
   64.2910   31.2430   50.1320 S   0  0  0  0  0  0  0  0  0  0  0  0
   63.2850   32.7760   50.1840 C   0  0  0  0  0  0  0  0  0  0  0  0
   62.8090   33.2070   48.8230 C   0  0  0  0  0  0  0  0  0  0  0  0
   63.7180   33.3920   47.7730 C   0  0  0  0  0  0  0  0  0  0  0  0
   63.2510   33.8330   46.5340 C   0  0  0  0  0  0  0  0  0  0  0  0
   61.9260   34.0790   46.3520 N   0  0  0  0  0  0  0  0  0  0  0  0
   61.0120   33.8960   47.3450 C   0  0  0  0  0  0  0  0  0  0  0  0
   59.5980   34.2340   47.0920 C   0  0  0  0  0  0  0  0  0  0  0  0
   59.3220   34.9600   46.1010 O   0  0  0  0  0  0  0  0  0  0  0  0
   58.5170   33.7370   47.8960 N   0  0  0  0  0  0  0  0  0  0  0  0
   58.4740   32.4490   48.5760 C   0  0  0  0  0  0  0  0  0  0  0  0
   58.4300   32.6760   50.0590 C   0  0  0  0  0  0  0  0  0  0  0  0
   57.5860   31.8970   50.8680 C   0  0  0  0  0  0  0  0  0  0  0  0
   57.5790   32.0770   52.2550 C   0  0  0  0  0  0  0  0  0  0  0  0
   58.4180   33.0270   52.8430 C   0  0  0  0  0  0  0  0  0  0  0  0
   59.2690   33.7980   52.0450 C   0  0  0  0  0  0  0  0  0  0  0  0
   59.2800   33.6210   50.6580 C   0  0  0  0  0  0  0  0  0  0  0  0
   61.4500   33.4740   48.6070 C   0  0  0  0  0  0  0  0  0  0  0  0
   59.4560   29.1580   48.8560 C   0  0  0  0  0  0  0  0  0  0  0  0
   58.5110   28.9550   47.8460 C   0  0  0  0  0  0  0  0  0  0  0  0
   55.5310   28.2130   45.5790 H   0  0  0  0  0  0  0  0  0  0  0  0
   60.0790   30.5920   45.2873 H   0  0  0  0  0  0  0  0  0  0  0  0
   61.7742   30.9400   47.0810 H   0  0  0  0  0  0  0  0  0  0  0  0
   62.6340   30.0210   49.2990 H   0  0  0  0  0  0  0  0  0  0  0  0
   61.0710   29.4805   53.5232 H   0  0  0  0  0  0  0  0  0  0  0  0
   62.8394   29.3210   55.2777 H   0  0  0  0  0  0  0  0  0  0  0  0
   65.1848   29.9785   54.7259 H   0  0  0  0  0  0  0  0  0  0  0  0
   62.4077   32.5992   50.8236 H   0  0  0  0  0  0  0  0  0  0  0  0
   63.9241   33.5785   50.5810 H   0  0  0  0  0  0  0  0  0  0  0  0
   64.7890   33.1916   47.9237 H   0  0  0  0  0  0  0  0  0  0  0  0
   63.9561   33.9819   45.7030 H   0  0  0  0  0  0  0  0  0  0  0  0
   57.5763   31.8965   48.2614 H   0  0  0  0  0  0  0  0  0  0  0  0
   59.3692   31.8643   48.3177 H   0  0  0  0  0  0  0  0  0  0  0  0
   56.9289   31.1434   50.4094 H   0  0  0  0  0  0  0  0  0  0  0  0
   56.9117   31.4695   52.8841 H   0  0  0  0  0  0  0  0  0  0  0  0
   58.4091   33.1685   53.9338 H   0  0  0  0  0  0  0  0  0  0  0  0
   59.9305   34.5445   52.5089 H   0  0  0  0  0  0  0  0  0  0  0  0
   59.9563   34.2235   50.0338 H   0  0  0  0  0  0  0  0  0  0  0  0
   60.7279   33.3523   49.4279 H   0  0  0  0  0  0  0  0  0  0  0  0
   59.2831   28.7409   49.8591 H   0  0  0  0  0  0  0  0  0  0  0  0
   57.5906   28.3926   48.0616 H   0  0  0  0  0  0  0  0  0  0  0  0
  1  2  1  0
  2  3  2  0
  2  4  2  0
  2  5  1  0
  5  6  2  0
  6  7  1  0
  7  8  2  0
  8  9  1  0
  9 10  1  0
 10 11  2  0
 10 12  1  0
 12 13  2  0
 13 14  1  0
 14 15  2  0
 15 16  1  0
 16 17  2  0
 17 18  1  0
 18 19  1  0
 19 20  1  0
 20 21  2  0
 21 22  1  0
 22 23  2  0
 23 24  1  0
 24 25  1  0
 25 26  2  0
 25 27  1  0
 27 28  1  0
 28 29  1  0
 29 30  2  0
 30 31  1  0
 31 32  2  0
 32 33  1  0
 33 34  2  0
 24 35  2  0
  8 36  1  0
 36 37  2  0
 37  5  1  0
 17 12  1  0
 35 20  1  0
 34 29  1  0
  1 38  1  0
  6 39  1  0
  7 40  1  0
  9 41  1  0
 13 42  1  0
 14 43  1  0
 15 44  1  0
 19 45  1  0
 19 46  1  0
 21 47  1  0
 22 48  1  0
 28 49  1  0
 28 50  1  0
 30 51  1  0
 31 52  1  0
 32 53  1  0
 33 54  1  0
 34 55  1  0
 35 56  1  0
 36 57  1  0
 37 58  1  0
M  CHG  2   1  -1  27  -1
M  END
>  <UniqueID>  (41) 
38

>  <SMILES>  (41) 
[NH-]S(=O)(=O)c1ccc(NC(=O)c2cccnc2SCc2ccnc(C(=O)[N-]Cc3ccccc3)c2)cc1

>  <Energy>  (41) 
69.43144149526469

>  <Genealogy>  (41) 
[NH-]S(=O)(=O)c1ccc(NC(=O)c2cccnc2SCc2ccnc(C(=O)[N-]Cc3ccccc3)c2)cc1 (protonated)
[NH-]S(=O)(=O)c1ccc(NC(=O)c2cccnc2SCc2ccnc(C(=O)[N-]Cc3ccccc3)c2)cc1 (3D coordinates assigned)
[NH-]S(=O)(=O)c1ccc(NC(=O)c2cccnc2SCc2ccnc(C(=O)[N-]Cc3ccccc3)c2)cc1 (optimized conformer: 69.43144149526469 kcal/mol)

>  <smiles>  (41) 
NS(=O)(=O)c1ccc(NC(=O)c2cccnc2SCc2ccnc(C(=O)NCc3ccccc3)c2)cc1

>  <score_type>  (41) 
oracle

>  <origin>  (41) 
adg

>  <m_score__min__energy>  (41) 
-13.289999999999999

>  <m_primary>  (41) 
energy

$$$$
41:0
     RDKit          3D

 30 31  0  0  0  0  0  0  0  0999 V2000
   55.4940   28.6280   43.6410 H   0  0  0  0  0  0  0  0  0  0  0  0
   55.1430   29.0300   44.5000 O   0  0  0  0  0  0  0  0  0  0  0  0
   55.9310   29.8940   45.2280 N   0  0  0  0  0  0  0  0  0  0  0  0
   57.0360   30.3930   44.7610 C   0  0  0  0  0  0  0  0  0  0  0  0
   57.5540   31.7020   45.2320 C   0  0  0  0  0  0  0  0  0  0  0  0
   58.2560   31.7910   46.4470 C   0  0  0  0  0  0  0  0  0  0  0  0
   58.3975   30.8918   47.0645 H   0  0  0  0  0  0  0  0  0  0  0  0
   58.7750   33.0170   46.8740 C   0  0  0  0  0  0  0  0  0  0  0  0
   59.3171   33.0813   47.8290 H   0  0  0  0  0  0  0  0  0  0  0  0
   58.6060   34.1610   46.0890 C   0  0  0  0  0  0  0  0  0  0  0  0
   59.0118   35.1255   46.4282 H   0  0  0  0  0  0  0  0  0  0  0  0
   57.9220   34.0800   44.8740 C   0  0  0  0  0  0  0  0  0  0  0  0
   57.7936   34.9802   44.2550 H   0  0  0  0  0  0  0  0  0  0  0  0
   57.4000   32.8560   44.4430 C   0  0  0  0  0  0  0  0  0  0  0  0
   56.8667   32.7957   43.4828 H   0  0  0  0  0  0  0  0  0  0  0  0
   57.8290   29.5770   43.7750 C   0  0  0  0  0  0  0  0  0  0  0  0
   58.4458   30.2530   43.1646 H   0  0  0  0  0  0  0  0  0  0  0  0
   57.1248   29.0156   43.1434 H   0  0  0  0  0  0  0  0  0  0  0  0
   58.6810   28.6430   44.4400 O   0  0  0  0  0  0  0  0  0  0  0  0
   58.2500   27.6270   45.3110 C   0  0  0  0  0  0  0  0  0  0  0  0
   59.1390   26.9400   46.1610 C   0  0  0  0  0  0  0  0  0  0  0  0
   60.2118   27.1831   46.1551 H   0  0  0  0  0  0  0  0  0  0  0  0
   58.6470   25.9490   47.0100 C   0  0  0  0  0  0  0  0  0  0  0  0
   59.3325   25.4085   47.6793 H   0  0  0  0  0  0  0  0  0  0  0  0
   57.2870   25.6430   47.0110 C   0  0  0  0  0  0  0  0  0  0  0  0
   56.8922   24.8640   47.6798 H   0  0  0  0  0  0  0  0  0  0  0  0
   56.4310   26.3380   46.1520 C   0  0  0  0  0  0  0  0  0  0  0  0
   55.2000   26.0700   46.1420 O   0  0  0  0  0  0  0  0  0  0  0  0
   56.9260   27.3040   45.3280 N   0  0  0  0  0  0  0  0  0  0  0  0
   56.2740   27.8180   44.6940 H   0  0  0  0  0  0  0  0  0  0  0  0
  1  2  1  0
  2  3  1  0
  3  4  2  0
  4  5  1  0
  5  6  2  0
  6  7  1  0
  6  8  1  0
  8  9  1  0
  8 10  2  0
 10 11  1  0
 10 12  1  0
 12 13  1  0
 12 14  2  0
 14 15  1  0
  4 16  1  0
 16 17  1  0
 16 18  1  0
 16 19  1  0
 19 20  1  0
 20 21  2  0
 21 22  1  0
 21 23  1  0
 23 24  1  0
 23 25  2  0
 25 26  1  0
 25 27  1  0
 27 28  2  0
 27 29  1  0
 29 30  1  0
 14  5  1  0
 29 20  1  0
M  END
>  <UniqueID>  (42) 
39

>  <SMILES>  (42) 
O=c1cccc(OC/C(=N/O)c2ccccc2)[nH]1

>  <Energy>  (42) 
34.67512044802471

>  <Genealogy>  (42) 
O=c1cccc(OC/C(=N/O)c2ccccc2)[nH]1 (cis-trans isomerization)
O=c1cccc(OC/C(=N/O)c2ccccc2)[nH]1 (3D coordinates assigned)
O=c1cccc(OC/C(=N/O)c2ccccc2)[nH]1 (optimized conformer: 34.67512044802471 kcal/mol)

>  <smiles>  (42) 
O=c1cccc(OCC(=NO)c2ccccc2)[nH]1

>  <score_type>  (42) 
oracle

>  <origin>  (42) 
adg

>  <m_score__min__energy>  (42) 
-8.3100000000000005

>  <m_primary>  (42) 
energy

$$$$
42:0
     RDKit          3D

 43 44  0  0  0  0  0  0  0  0999 V2000
   56.1420   22.0140   48.2610 C   0  0  0  0  0  0  0  0  0  0  0  0
   57.1100   22.1260   47.2230 O   0  0  0  0  0  0  0  0  0  0  0  0
   56.8080   22.2780   45.8600 C   0  0  0  0  0  0  0  0  0  0  0  0
   57.2860   21.3700   44.8910 C   0  0  0  0  0  0  0  0  0  0  0  0
   57.0250   21.5750   43.5350 C   0  0  0  0  0  0  0  0  0  0  0  0
   56.2950   22.6900   43.1250 C   0  0  0  0  0  0  0  0  0  0  0  0
   55.8060   23.5910   44.0700 C   0  0  0  0  0  0  0  0  0  0  0  0
   56.0290   23.3800   45.4390 C   0  0  0  0  0  0  0  0  0  0  0  0
   55.4990   24.3370   46.3660 N   0  0  0  0  0  0  0  0  0  0  0  0
   55.9140   25.7040   46.4840 C   0  0  0  0  0  0  0  0  0  0  0  0
   55.2060   26.6290   46.0070 O   0  0  0  0  0  0  0  0  0  0  0  0
   57.2490   26.0340   47.0770 C   0  0  0  0  0  0  0  0  0  0  0  0
   58.5810   24.9510   46.4350 S   0  0  0  0  0  0  0  0  0  0  0  0
   59.8070   26.2540   46.0400 C   0  0  0  0  0  0  0  0  0  0  0  0
   59.2760   27.6380   46.3380 C   0  0  0  0  0  0  0  0  0  0  0  0
   58.3150   28.1940   45.4700 C   0  0  0  0  0  0  0  0  0  0  0  0
   57.8190   29.4840   45.6760 C   0  0  0  0  0  0  0  0  0  0  0  0
   56.6540   30.1600   44.5440 S   0  0  0  0  0  0  0  0  0  0  0  0
   55.1390   29.3420   44.7310 N   0  0  0  0  0  0  0  0  0  0  0  0
   56.4720   31.6240   44.8270 O   0  0  0  0  0  0  0  0  0  0  0  0
   57.1450   29.9950   43.1310 O   0  0  0  0  0  0  0  0  0  0  0  0
   58.2870   30.2390   46.7550 C   0  0  0  0  0  0  0  0  0  0  0  0
   59.2340   29.7050   47.6300 C   0  0  0  0  0  0  0  0  0  0  0  0
   59.7350   28.4050   47.4410 C   0  0  0  0  0  0  0  0  0  0  0  0
   60.7770   27.8790   48.3930 C   0  0  0  0  0  0  0  0  0  0  0  0
   56.6438   22.0721   49.2382 H   0  0  0  0  0  0  0  0  0  0  0  0
   55.4139   22.8339   48.1734 H   0  0  0  0  0  0  0  0  0  0  0  0
   55.6204   21.0495   48.1734 H   0  0  0  0  0  0  0  0  0  0  0  0
   57.8695   20.4928   45.2071 H   0  0  0  0  0  0  0  0  0  0  0  0
   57.3956   20.8563   42.7893 H   0  0  0  0  0  0  0  0  0  0  0  0
   56.1047   22.8590   42.0548 H   0  0  0  0  0  0  0  0  0  0  0  0
   55.2406   24.4748   43.7394 H   0  0  0  0  0  0  0  0  0  0  0  0
   57.4950   27.0786   46.8356 H   0  0  0  0  0  0  0  0  0  0  0  0
   57.1826   25.8782   48.1639 H   0  0  0  0  0  0  0  0  0  0  0  0
   60.7126   26.0838   46.6407 H   0  0  0  0  0  0  0  0  0  0  0  0
   60.0281   26.1985   44.9639 H   0  0  0  0  0  0  0  0  0  0  0  0
   57.9497   27.6033   44.6170 H   0  0  0  0  0  0  0  0  0  0  0  0
   55.1960   28.7890   45.6150 H   0  0  0  0  0  0  0  0  0  0  0  0
   57.9072   31.2588   46.9153 H   0  0  0  0  0  0  0  0  0  0  0  0
   59.5926   30.3081   48.4772 H   0  0  0  0  0  0  0  0  0  0  0  0
   60.4455   28.0463   49.4284 H   0  0  0  0  0  0  0  0  0  0  0  0
   60.9185   26.8015   48.2229 H   0  0  0  0  0  0  0  0  0  0  0  0
   61.7280   28.4050   48.2229 H   0  0  0  0  0  0  0  0  0  0  0  0
  1  2  1  0
  2  3  1  0
  3  4  2  0
  4  5  1  0
  5  6  2  0
  6  7  1  0
  7  8  2  0
  8  9  1  0
  9 10  1  0
 10 11  2  0
 10 12  1  0
 12 13  1  0
 13 14  1  0
 14 15  1  0
 15 16  2  0
 16 17  1  0
 17 18  1  0
 18 19  1  0
 18 20  2  0
 18 21  2  0
 17 22  2  0
 22 23  1  0
 23 24  2  0
 24 25  1  0
  8  3  1  0
 24 15  1  0
  1 26  1  0
  1 27  1  0
  1 28  1  0
  4 29  1  0
  5 30  1  0
  6 31  1  0
  7 32  1  0
 12 33  1  0
 12 34  1  0
 14 35  1  0
 14 36  1  0
 16 37  1  0
 19 38  1  0
 22 39  1  0
 23 40  1  0
 25 41  1  0
 25 42  1  0
 25 43  1  0
M  CHG  2   9  -1  19  -1
M  END
>  <UniqueID>  (43) 
40

>  <SMILES>  (43) 
COc1ccccc1[N-]C(=O)CSCc1cc(S([NH-])(=O)=O)ccc1C

>  <Energy>  (43) 
43.199327531115564

>  <Genealogy>  (43) 
COc1ccccc1[N-]C(=O)CSCc1cc(S([NH-])(=O)=O)ccc1C (protonated)
COc1ccccc1[N-]C(=O)CSCc1cc(S([NH-])(=O)=O)ccc1C (3D coordinates assigned)
COc1ccccc1[N-]C(=O)CSCc1cc(S([NH-])(=O)=O)ccc1C (optimized conformer: 43.199327531115564 kcal/mol)

>  <smiles>  (43) 
COc1ccccc1NC(=O)CSCc1cc(S(N)(=O)=O)ccc1C

>  <score_type>  (43) 
oracle

>  <origin>  (43) 
adg

>  <m_score__min__energy>  (43) 
-12.710000000000001

>  <m_primary>  (43) 
energy

$$$$
43:0
     RDKit          3D

 45 47  0  0  0  0  0  0  0  0999 V2000
   58.9180   30.4370   47.9880 C   0  0  0  0  0  0  0  0  0  0  0  0
   58.0780   30.9800   46.9740 O   0  0  0  0  0  0  0  0  0  0  0  0
   58.3830   32.1190   46.2130 C   0  0  0  0  0  0  0  0  0  0  0  0
   59.5060   32.9240   46.4920 C   0  0  0  0  0  0  0  0  0  0  0  0
   59.7800   34.0460   45.7090 C   0  0  0  0  0  0  0  0  0  0  0  0
   58.9390   34.3790   44.6480 C   0  0  0  0  0  0  0  0  0  0  0  0
   57.8210   33.5930   44.3640 C   0  0  0  0  0  0  0  0  0  0  0  0
   57.5350   32.4560   45.1420 C   0  0  0  0  0  0  0  0  0  0  0  0
   56.4100   31.6050   44.8700 N   0  0  0  0  0  0  0  0  0  0  0  0
   56.4360   30.0000   44.2080 S   0  0  0  0  0  0  0  0  0  0  0  0
   56.5490   30.1060   42.7130 O   0  0  0  0  0  0  0  0  0  0  0  0
   55.1580   29.2720   44.5170 O   0  0  0  0  0  0  0  0  0  0  0  0
   57.8260   29.1140   44.8300 C   0  0  0  0  0  0  0  0  0  0  0  0
   59.1140   29.4000   44.3540 C   0  0  0  0  0  0  0  0  0  0  0  0
   60.2180   28.6970   44.8440 C   0  0  0  0  0  0  0  0  0  0  0  0
   60.0460   27.7200   45.8280 C   0  0  0  0  0  0  0  0  0  0  0  0
   58.7680   27.4500   46.3420 C   0  0  0  0  0  0  0  0  0  0  0  0
   58.5930   26.4580   47.4250 C   0  0  0  0  0  0  0  0  0  0  0  0
   59.5030   26.3180   48.2850 O   0  0  0  0  0  0  0  0  0  0  0  0
   57.4300   25.6180   47.5060 N   0  0  0  0  0  0  0  0  0  0  0  0
   56.7720   25.1190   46.4960 C   0  0  0  0  0  0  0  0  0  0  0  0
   55.4380   25.3630   46.3450 N   0  0  0  0  0  0  0  0  0  0  0  0
   54.7140   24.8360   45.3240 C   0  0  0  0  0  0  0  0  0  0  0  0
   55.3270   23.9980   44.3950 C   0  0  0  0  0  0  0  0  0  0  0  0
   56.6890   23.7230   44.5180 C   0  0  0  0  0  0  0  0  0  0  0  0
   57.4290   24.2780   45.5720 C   0  0  0  0  0  0  0  0  0  0  0  0
   58.8990   23.9830   45.6990 C   0  0  0  0  0  0  0  0  0  0  0  0
   57.6580   28.1350   45.8200 C   0  0  0  0  0  0  0  0  0  0  0  0
   58.5142   30.6980   48.9773 H   0  0  0  0  0  0  0  0  0  0  0  0
   58.9567   29.3425   47.8849 H   0  0  0  0  0  0  0  0  0  0  0  0
   59.9319   30.8511   47.8849 H   0  0  0  0  0  0  0  0  0  0  0  0
   60.1694   32.6665   47.3308 H   0  0  0  0  0  0  0  0  0  0  0  0
   60.6601   34.6682   45.9290 H   0  0  0  0  0  0  0  0  0  0  0  0
   59.1573   35.2642   44.0326 H   0  0  0  0  0  0  0  0  0  0  0  0
   57.1600   33.8639   43.5275 H   0  0  0  0  0  0  0  0  0  0  0  0
   59.2557   30.1806   43.5921 H   0  0  0  0  0  0  0  0  0  0  0  0
   61.2238   28.9131   44.4545 H   0  0  0  0  0  0  0  0  0  0  0  0
   60.9160   27.1599   46.2015 H   0  0  0  0  0  0  0  0  0  0  0  0
   53.6434   25.0708   45.2305 H   0  0  0  0  0  0  0  0  0  0  0  0
   54.7431   23.5579   43.5732 H   0  0  0  0  0  0  0  0  0  0  0  0
   57.1843   23.0685   43.7857 H   0  0  0  0  0  0  0  0  0  0  0  0
   59.1714   23.9283   46.7633 H   0  0  0  0  0  0  0  0  0  0  0  0
   59.1234   23.0219   45.2133 H   0  0  0  0  0  0  0  0  0  0  0  0
   59.4768   24.7831   45.2133 H   0  0  0  0  0  0  0  0  0  0  0  0
   56.6490   27.9016   46.1908 H   0  0  0  0  0  0  0  0  0  0  0  0
  1  2  1  0
  2  3  1  0
  3  4  2  0
  4  5  1  0
  5  6  2  0
  6  7  1  0
  7  8  2  0
  8  9  1  0
  9 10  1  0
 10 11  2  0
 10 12  2  0
 10 13  1  0
 13 14  2  0
 14 15  1  0
 15 16  2  0
 16 17  1  0
 17 18  1  0
 18 19  2  0
 18 20  1  0
 20 21  2  3
 21 22  1  0
 22 23  1  0
 23 24  2  0
 24 25  1  0
 25 26  2  0
 26 27  1  0
 17 28  2  0
  8  3  1  0
 28 13  1  0
 26 21  1  0
  1 29  1  0
  1 30  1  0
  1 31  1  0
  4 32  1  0
  5 33  1  0
  6 34  1  0
  7 35  1  0
 14 36  1  0
 15 37  1  0
 16 38  1  0
 23 39  1  0
 24 40  1  0
 25 41  1  0
 27 42  1  0
 27 43  1  0
 27 44  1  0
 28 45  1  0
M  CHG  2   9  -1  22  -1
M  END
>  <UniqueID>  (44) 
41

>  <SMILES>  (44) 
COc1ccccc1[N-]S(=O)(=O)c1cccc(C(=O)N=c2[n-]cccc2C)c1

>  <Energy>  (44) 
56.79329669539284

>  <Genealogy>  (44) 
COc1ccccc1[N-]S(=O)(=O)c1cccc(C(=O)N=c2[n-]cccc2C)c1 (protonated)
COc1ccccc1[N-]S(=O)(=O)c1cccc(C(=O)N=c2[n-]cccc2C)c1 (3D coordinates assigned)
COc1ccccc1[N-]S(=O)(=O)c1cccc(C(=O)N=c2[n-]cccc2C)c1 (optimized conformer: 56.79329669539284 kcal/mol)

>  <smiles>  (44) 
COc1ccccc1NS(=O)(=O)c1cccc(C(=O)N=c2[nH]cccc2C)c1

>  <score_type>  (44) 
oracle

>  <origin>  (44) 
adg

>  <m_score__min__energy>  (44) 
-12.07

>  <m_primary>  (44) 
energy

$$$$
44:0
     RDKit          3D

 34 36  0  0  0  0  0  0  0  0999 V2000
   57.6220   30.3130   43.8030 C   0  0  0  0  0  0  0  0  0  0  0  0
   57.7010   29.0710   44.7280 C   0  0  2  0  0  0  0  0  0  0  0  0
   58.4480   29.3850   46.0390 C   0  0  0  0  0  0  0  0  0  0  0  0
   59.3670   30.4580   46.0820 C   0  0  0  0  0  0  0  0  0  0  0  0
   60.0060   30.7810   47.2780 C   0  0  0  0  0  0  0  0  0  0  0  0
   59.7200   30.0630   48.4350 C   0  0  0  0  0  0  0  0  0  0  0  0
   58.7830   29.0330   48.3800 C   0  0  0  0  0  0  0  0  0  0  0  0
   58.1620   28.7250   47.2080 N   0  0  0  0  0  0  0  0  0  0  0  0
   58.4830   27.9430   44.0280 C   0  0  0  0  0  0  0  0  0  0  0  0
   58.7300   26.7750   44.9290 C   0  0  0  0  0  0  0  0  0  0  0  0
   59.8300   26.6850   45.5410 O   0  0  0  0  0  0  0  0  0  0  0  0
   57.6870   25.7620   45.1350 C   0  0  0  0  0  0  0  0  0  0  0  0
   58.0200   24.4090   44.9410 C   0  0  0  0  0  0  0  0  0  0  0  0
   57.1060   23.4000   45.2440 C   0  0  0  0  0  0  0  0  0  0  0  0
   55.8490   23.7280   45.7460 C   0  0  0  0  0  0  0  0  0  0  0  0
   55.4970   25.0660   45.9240 C   0  0  0  0  0  0  0  0  0  0  0  0
   56.3940   26.0970   45.6080 C   0  0  0  0  0  0  0  0  0  0  0  0
   55.8860   27.4400   45.6970 N   0  0  0  0  0  0  0  0  0  0  0  0
   56.2680   28.6700   45.0570 C   0  0  0  0  0  0  0  0  0  0  0  0
   55.3560   29.5150   44.8400 O   0  0  0  0  0  0  0  0  0  0  0  0
   57.5641   31.2241   44.4166 H   0  0  0  0  0  0  0  0  0  0  0  0
   58.5193   30.3550   43.1681 H   0  0  0  0  0  0  0  0  0  0  0  0
   56.7266   30.2410   43.1681 H   0  0  0  0  0  0  0  0  0  0  0  0
   59.5780   31.0382   45.1716 H   0  0  0  0  0  0  0  0  0  0  0  0
   60.7361   31.6032   47.3071 H   0  0  0  0  0  0  0  0  0  0  0  0
   60.2269   30.3052   49.3807 H   0  0  0  0  0  0  0  0  0  0  0  0
   58.5432   28.4643   49.2905 H   0  0  0  0  0  0  0  0  0  0  0  0
   57.4530   27.9620   47.2410 H   0  0  0  0  0  0  0  0  0  0  0  0
   57.9052   27.6008   43.1567 H   0  0  0  0  0  0  0  0  0  0  0  0
   59.4610   28.3486   43.7297 H   0  0  0  0  0  0  0  0  0  0  0  0
   59.0119   24.1440   44.5461 H   0  0  0  0  0  0  0  0  0  0  0  0
   57.3778   22.3458   45.0866 H   0  0  0  0  0  0  0  0  0  0  0  0
   55.1340   22.9322   46.0020 H   0  0  0  0  0  0  0  0  0  0  0  0
   54.5010   25.3163   46.3181 H   0  0  0  0  0  0  0  0  0  0  0  0
  2  1  1  6
  2  3  1  0
  3  4  2  0
  4  5  1  0
  5  6  2  0
  6  7  1  0
  7  8  2  0
  2  9  1  0
  9 10  1  0
 10 11  2  0
 10 12  1  0
 12 13  2  0
 13 14  1  0
 14 15  2  0
 15 16  1  0
 16 17  2  0
 17 18  1  0
 18 19  1  0
 19 20  2  0
 19  2  1  0
  8  3  1  0
 17 12  1  0
  1 21  1  0
  1 22  1  0
  1 23  1  0
  4 24  1  0
  5 25  1  0
  6 26  1  0
  7 27  1  0
  8 28  1  0
  9 29  1  0
  9 30  1  0
 13 31  1  0
 14 32  1  0
 15 33  1  0
 16 34  1  0
M  CHG  2   8   1  18  -1
M  END
>  <UniqueID>  (45) 
42

>  <SMILES>  (45) 
C[C@]1(c2cccc[nH+]2)CC(=O)c2ccccc2[N-]C1=O

>  <Energy>  (45) 
56.57702914435518

>  <Genealogy>  (45) 
CC1(c2cccc[nH+]2)CC(=O)c2ccccc2[N-]C1=O (protonated)
C[C@]1(c2cccc[nH+]2)CC(=O)c2ccccc2[N-]C1=O (chirality)
C[C@]1(c2cccc[nH+]2)CC(=O)c2ccccc2[N-]C1=O (3D coordinates assigned)
C[C@]1(c2cccc[nH+]2)CC(=O)c2ccccc2[N-]C1=O (nonaromatic ring conformer: 56.57702914435518 kcal/mol)

>  <smiles>  (45) 
CC1(c2ccccn2)CC(=O)c2ccccc2NC1=O

>  <score_type>  (45) 
oracle

>  <origin>  (45) 
adg

>  <m_score__min__energy>  (45) 
-5.8799999999999999

>  <m_primary>  (45) 
energy

$$$$
45:0
     RDKit          3D

 48 51  0  0  0  0  0  0  0  0999 V2000
   57.9780   30.9950   50.8950 C   0  0  0  0  0  0  0  0  0  0  0  0
   59.1620   31.2920   50.0110 C   0  0  0  0  0  0  0  0  0  0  0  0
   59.5370   30.3590   49.0340 C   0  0  0  0  0  0  0  0  0  0  0  0
   60.6240   30.5980   48.1790 C   0  0  0  0  0  0  0  0  0  0  0  0
   60.9960   29.6740   47.1820 O   0  0  0  0  0  0  0  0  0  0  0  0
   60.3730   28.4100   46.9450 C   0  0  0  0  0  0  0  0  0  0  0  0
   59.3720   28.5120   45.8250 C   0  0  0  0  0  0  0  0  0  0  0  0
   59.2240   27.4500   44.9200 C   0  0  0  0  0  0  0  0  0  0  0  0
   58.3030   27.5380   43.8770 C   0  0  0  0  0  0  0  0  0  0  0  0
   57.5120   28.6800   43.7320 C   0  0  0  0  0  0  0  0  0  0  0  0
   57.6340   29.7520   44.6370 C   0  0  0  0  0  0  0  0  0  0  0  0
   56.7790   30.9550   44.4940 C   0  0  0  0  0  0  0  0  0  0  0  0
   55.5230   30.8320   44.4960 O   0  0  0  0  0  0  0  0  0  0  0  0
   57.3810   32.2420   44.2730 N   0  0  0  0  0  0  0  0  0  0  0  0
   58.0100   33.0030   45.1300 C   0  0  0  0  0  0  0  0  0  0  0  0
   57.7180   32.8480   46.4910 C   0  0  0  0  0  0  0  0  0  0  0  0
   58.3630   33.6480   47.4370 C   0  0  0  0  0  0  0  0  0  0  0  0
   59.2620   34.5860   47.0390 N   0  0  0  0  0  0  0  0  0  0  0  0
   59.5560   34.7770   45.7260 C   0  0  0  0  0  0  0  0  0  0  0  0
   58.9350   33.9970   44.7460 C   0  0  0  0  0  0  0  0  0  0  0  0
   58.5680   29.6550   45.6850 C   0  0  0  0  0  0  0  0  0  0  0  0
   61.3630   31.7880   48.3160 C   0  0  0  0  0  0  0  0  0  0  0  0
   62.4640   32.0430   47.4750 C   0  0  0  0  0  0  0  0  0  0  0  0
   63.1940   33.2250   47.5990 C   0  0  0  0  0  0  0  0  0  0  0  0
   62.8380   34.1690   48.5600 C   0  0  0  0  0  0  0  0  0  0  0  0
   61.7500   33.9380   49.4040 C   0  0  0  0  0  0  0  0  0  0  0  0
   60.9950   32.7490   49.2980 C   0  0  0  0  0  0  0  0  0  0  0  0
   59.8850   32.4980   50.1430 C   0  0  0  0  0  0  0  0  0  0  0  0
   59.4780   33.4670   51.1410 C   0  0  0  0  0  0  0  0  0  0  0  0
   59.1530   34.2430   51.9370 N   0  0  0  0  0  0  0  0  0  0  0  0
   58.2800   31.0707   51.9500 H   0  0  0  0  0  0  0  0  0  0  0  0
   57.1764   31.7199   50.6901 H   0  0  0  0  0  0  0  0  0  0  0  0
   57.6135   29.9776   50.6901 H   0  0  0  0  0  0  0  0  0  0  0  0
   58.9687   29.4223   48.9358 H   0  0  0  0  0  0  0  0  0  0  0  0
   61.1433   27.6727   46.6748 H   0  0  0  0  0  0  0  0  0  0  0  0
   59.8492   28.0966   47.8601 H   0  0  0  0  0  0  0  0  0  0  0  0
   59.8373   26.5440   45.0339 H   0  0  0  0  0  0  0  0  0  0  0  0
   58.1990   26.7052   43.1659 H   0  0  0  0  0  0  0  0  0  0  0  0
   56.7889   28.7424   42.9054 H   0  0  0  0  0  0  0  0  0  0  0  0
   56.9818   32.0974   46.8144 H   0  0  0  0  0  0  0  0  0  0  0  0
   58.1427   33.5184   48.5069 H   0  0  0  0  0  0  0  0  0  0  0  0
   60.2846   35.5475   45.4335 H   0  0  0  0  0  0  0  0  0  0  0  0
   59.1660   34.1571   43.6825 H   0  0  0  0  0  0  0  0  0  0  0  0
   58.6695   30.4830   46.4020 H   0  0  0  0  0  0  0  0  0  0  0  0
   62.7507   31.3029   46.7133 H   0  0  0  0  0  0  0  0  0  0  0  0
   64.0523   33.4123   46.9370 H   0  0  0  0  0  0  0  0  0  0  0  0
   63.4164   35.0999   48.6541 H   0  0  0  0  0  0  0  0  0  0  0  0
   61.4780   34.6899   50.1594 H   0  0  0  0  0  0  0  0  0  0  0  0
  1  2  1  0
  2  3  2  0
  3  4  1  0
  4  5  1  0
  5  6  1  0
  6  7  1  0
  7  8  2  0
  8  9  1  0
  9 10  2  0
 10 11  1  0
 11 12  1  0
 12 13  2  0
 12 14  1  0
 14 15  2  3
 15 16  1  0
 16 17  2  0
 17 18  1  0
 18 19  1  0
 19 20  2  0
 11 21  2  0
  4 22  2  0
 22 23  1  0
 23 24  2  0
 24 25  1  0
 25 26  2  0
 26 27  1  0
 27 28  2  0
 28 29  1  0
 29 30  3  0
 28  2  1  0
 21  7  1  0
 27 22  1  0
 20 15  1  0
  1 31  1  0
  1 32  1  0
  1 33  1  0
  3 34  1  0
  6 35  1  0
  6 36  1  0
  8 37  1  0
  9 38  1  0
 10 39  1  0
 16 40  1  0
 17 41  1  0
 19 42  1  0
 20 43  1  0
 21 44  1  0
 23 45  1  0
 24 46  1  0
 25 47  1  0
 26 48  1  0
M  CHG  1  18  -1
M  END
>  <UniqueID>  (46) 
43

>  <SMILES>  (46) 
Cc1cc(OCc2cccc(C(=O)N=c3cc[n-]cc3)c2)c2ccccc2c1C#N

>  <Energy>  (46) 
68.3470547336496

>  <Genealogy>  (46) 
Cc1cc(OCc2cccc(C(=O)N=c3cc[n-]cc3)c2)c2ccccc2c1C#N (protonated)
Cc1cc(OCc2cccc(C(=O)N=c3cc[n-]cc3)c2)c2ccccc2c1C#N (3D coordinates assigned)
Cc1cc(OCc2cccc(C(=O)N=c3cc[n-]cc3)c2)c2ccccc2c1C#N (optimized conformer: 68.3470547336496 kcal/mol)

>  <smiles>  (46) 
Cc1cc(OCc2cccc(C(=O)N=c3cc[nH]cc3)c2)c2ccccc2c1C#N

>  <score_type>  (46) 
oracle

>  <origin>  (46) 
adg

>  <m_score__min__energy>  (46) 
-11.800000000000001

>  <m_primary>  (46) 
energy

$$$$
46:0
     RDKit          3D

 39 41  0  0  0  0  0  0  0  0999 V2000
   58.1540   26.3490   42.9500 N   0  0  0  0  0  0  0  0  0  0  0  0
   58.0000   27.4130   43.3790 C   0  0  0  0  0  0  0  0  0  0  0  0
   57.8100   28.7390   43.9140 C   0  0  0  0  0  0  0  0  0  0  0  0
   56.5670   29.3660   43.7450 C   0  0  0  0  0  0  0  0  0  0  0  0
   56.3630   30.6630   44.2240 C   0  0  0  0  0  0  0  0  0  0  0  0
   57.3990   31.3430   44.8650 C   0  0  0  0  0  0  0  0  0  0  0  0
   58.6410   30.7260   45.0370 C   0  0  0  0  0  0  0  0  0  0  0  0
   58.8510   29.4180   44.5810 C   0  0  0  0  0  0  0  0  0  0  0  0
   60.4650   28.6580   44.8320 S   0  0  0  0  0  0  0  0  0  0  0  0
   60.3290   28.6700   46.6290 C   0  0  0  0  0  0  0  0  0  0  0  0
   60.5810   29.8750   47.3000 C   0  0  0  0  0  0  0  0  0  0  0  0
   60.5680   29.9270   48.6950 C   0  0  0  0  0  0  0  0  0  0  0  0
   60.3020   28.7750   49.4340 C   0  0  0  0  0  0  0  0  0  0  0  0
   60.0330   27.5720   48.7790 C   0  0  0  0  0  0  0  0  0  0  0  0
   60.0220   27.5060   47.3750 C   0  0  0  0  0  0  0  0  0  0  0  0
   59.6990   26.2150   46.7340 C   0  0  0  0  0  0  0  0  0  0  0  0
   60.5630   25.6600   46.0030 O   0  0  0  0  0  0  0  0  0  0  0  0
   58.4130   25.6080   46.9330 N   0  0  0  0  0  0  0  0  0  0  0  0
   57.7550   24.6760   46.0550 C   0  0  0  0  0  0  0  0  0  0  0  0
   58.3460   23.4360   45.7430 C   0  0  0  0  0  0  0  0  0  0  0  0
   57.7300   22.5570   44.8510 C   0  0  0  0  0  0  0  0  0  0  0  0
   56.5090   22.8930   44.2710 C   0  0  0  0  0  0  0  0  0  0  0  0
   55.9010   22.0200   43.3760 O   0  0  0  0  0  0  0  0  0  0  0  0
   55.8890   24.1000   44.5960 C   0  0  0  0  0  0  0  0  0  0  0  0
   56.4880   24.9930   45.5070 C   0  0  0  0  0  0  0  0  0  0  0  0
   55.7660   26.2360   45.8690 C   0  0  0  0  0  0  0  0  0  0  0  0
   56.3990   27.3120   46.0370 O   0  0  0  0  0  0  0  0  0  0  0  0
   54.3830   26.2480   45.9860 O   0  0  0  0  0  0  0  0  0  0  0  0
   55.7502   28.8354   43.2339 H   0  0  0  0  0  0  0  0  0  0  0  0
   55.3843   31.1484   44.0954 H   0  0  0  0  0  0  0  0  0  0  0  0
   57.2379   32.3661   45.2355 H   0  0  0  0  0  0  0  0  0  0  0  0
   59.4582   31.2702   45.5331 H   0  0  0  0  0  0  0  0  0  0  0  0
   60.7908   30.7873   46.7223 H   0  0  0  0  0  0  0  0  0  0  0  0
   60.7677   30.8774   49.2115 H   0  0  0  0  0  0  0  0  0  0  0  0
   60.3041   28.8141   50.5333 H   0  0  0  0  0  0  0  0  0  0  0  0
   59.8274   26.6660   49.3679 H   0  0  0  0  0  0  0  0  0  0  0  0
   59.3034   23.1575   46.2075 H   0  0  0  0  0  0  0  0  0  0  0  0
   58.2093   21.5978   44.6057 H   0  0  0  0  0  0  0  0  0  0  0  0
   54.9231   24.3571   44.1366 H   0  0  0  0  0  0  0  0  0  0  0  0
  1  2  3  0
  2  3  1  0
  3  4  2  0
  4  5  1  0
  5  6  2  0
  6  7  1  0
  7  8  2  0
  8  9  1  0
  9 10  1  0
 10 11  2  0
 11 12  1  0
 12 13  2  0
 13 14  1  0
 14 15  2  0
 15 16  1  0
 16 17  2  0
 16 18  1  0
 18 19  1  0
 19 20  2  0
 20 21  1  0
 21 22  2  0
 22 23  1  0
 22 24  1  0
 24 25  2  0
 25 26  1  0
 26 27  2  0
 26 28  1  0
  8  3  1  0
 15 10  1  0
 25 19  1  0
  4 29  1  0
  5 30  1  0
  6 31  1  0
  7 32  1  0
 11 33  1  0
 12 34  1  0
 13 35  1  0
 14 36  1  0
 20 37  1  0
 21 38  1  0
 24 39  1  0
M  CHG  3  18  -1  23  -1  28  -1
M  END
>  <UniqueID>  (47) 
44

>  <SMILES>  (47) 
N#Cc1ccccc1Sc1ccccc1C(=O)[N-]c1ccc([O-])cc1C(=O)[O-]

>  <Energy>  (47) 
50.09783728065834

>  <Genealogy>  (47) 
N#Cc1ccccc1Sc1ccccc1C(=O)[N-]c1ccc([O-])cc1C(=O)[O-] (protonated)
N#Cc1ccccc1Sc1ccccc1C(=O)[N-]c1ccc([O-])cc1C(=O)[O-] (3D coordinates assigned)
N#Cc1ccccc1Sc1ccccc1C(=O)[N-]c1ccc([O-])cc1C(=O)[O-] (optimized conformer: 50.09783728065834 kcal/mol)

>  <smiles>  (47) 
N#Cc1ccccc1Sc1ccccc1C(=O)Nc1ccc(O)cc1C(=O)O

>  <score_type>  (47) 
oracle

>  <origin>  (47) 
adg

>  <m_score__min__energy>  (47) 
-15.1

>  <m_primary>  (47) 
energy

$$$$
47:0
     RDKit          3D

 36 38  0  0  0  0  0  0  0  0999 V2000
   57.8950   25.5260   45.7970 C   0  0  0  0  0  0  0  0  0  0  0  0
   56.4670   25.8850   46.0780 C   0  0  0  0  0  0  0  0  0  0  0  0
   55.7670   25.1000   46.7690 O   0  0  0  0  0  0  0  0  0  0  0  0
   55.8860   27.1130   45.6190 N   0  0  0  0  0  0  0  0  0  0  0  0
   56.5170   28.4000   45.5840 C   0  0  0  0  0  0  0  0  0  0  0  0
   57.6260   28.7010   46.3910 C   0  0  0  0  0  0  0  0  0  0  0  0
   58.2360   29.9540   46.3100 C   0  0  0  0  0  0  0  0  0  0  0  0
   57.7630   30.9250   45.4100 C   0  0  0  0  0  0  0  0  0  0  0  0
   58.4270   32.2470   45.3440 C   0  0  0  0  0  0  0  0  0  0  0  0
   58.1660   33.2700   44.4440 C   0  0  0  0  0  0  0  0  0  0  0  0
   59.0220   34.2970   44.7790 C   0  0  0  0  0  0  0  0  0  0  0  0
   59.7630   33.8370   45.8530 C   0  0  0  0  0  0  0  0  0  0  0  0
   60.7750   34.5880   46.6150 C   0  0  0  0  0  0  0  0  0  0  0  0
   61.7450   34.0490   47.3890 C   0  0  0  0  0  0  0  0  0  0  0  0
   61.4260   33.6250   48.7760 C   0  0  0  0  0  0  0  0  0  0  0  0
   60.2420   33.6460   49.2040 O   0  0  0  0  0  0  0  0  0  0  0  0
   62.4700   33.2040   49.6570 N   0  0  0  0  0  0  0  0  0  0  0  0
   63.8280   33.1510   49.2220 C   0  0  0  0  0  0  0  0  0  0  0  0
   64.7330   32.8210   50.0330 O   0  0  0  0  0  0  0  0  0  0  0  0
   64.1580   33.4560   47.8650 N   0  0  0  0  0  0  0  0  0  0  0  0
   63.1400   33.8080   46.9220 C   0  0  0  0  0  0  0  0  0  0  0  0
   63.4310   33.8340   45.6970 O   0  0  0  0  0  0  0  0  0  0  0  0
   59.3760   32.6240   46.1730 O   0  0  0  0  0  0  0  0  0  0  0  0
   56.6710   30.6060   44.5820 C   0  0  0  0  0  0  0  0  0  0  0  0
   56.0620   29.3500   44.6650 C   0  0  0  0  0  0  0  0  0  0  0  0
   58.4328   25.3908   46.7470 H   0  0  0  0  0  0  0  0  0  0  0  0
   57.9310   24.5908   45.2189 H   0  0  0  0  0  0  0  0  0  0  0  0
   58.3690   26.3329   45.2189 H   0  0  0  0  0  0  0  0  0  0  0  0
   58.0157   27.9463   47.0899 H   0  0  0  0  0  0  0  0  0  0  0  0
   59.0954   30.1840   46.9569 H   0  0  0  0  0  0  0  0  0  0  0  0
   57.4268   33.2629   43.6294 H   0  0  0  0  0  0  0  0  0  0  0  0
   59.1000   35.2804   44.2924 H   0  0  0  0  0  0  0  0  0  0  0  0
   60.7390   35.6854   46.5490 H   0  0  0  0  0  0  0  0  0  0  0  0
   65.1470   33.3610   47.5430 H   0  0  0  0  0  0  0  0  0  0  0  0
   56.2938   31.3497   43.8646 H   0  0  0  0  0  0  0  0  0  0  0  0
   55.2184   29.1076   44.0020 H   0  0  0  0  0  0  0  0  0  0  0  0
  1  2  1  0
  2  3  2  0
  2  4  1  0
  4  5  1  0
  5  6  2  0
  6  7  1  0
  7  8  2  0
  8  9  1  0
  9 10  2  0
 10 11  1  0
 11 12  2  0
 12 13  1  0
 13 14  2  3
 14 15  1  0
 15 16  2  0
 15 17  1  0
 17 18  1  0
 18 19  2  0
 18 20  1  0
 20 21  1  0
 21 22  2  0
 12 23  1  0
  8 24  1  0
 24 25  2  0
 25  5  1  0
 23  9  1  0
 21 14  1  0
  1 26  1  0
  1 27  1  0
  1 28  1  0
  6 29  1  0
  7 30  1  0
 10 31  1  0
 11 32  1  0
 13 33  1  0
 20 34  1  0
 24 35  1  0
 25 36  1  0
M  CHG  2   4  -1  17  -1
M  END
>  <UniqueID>  (48) 
45

>  <SMILES>  (48) 
CC(=O)[N-]c1ccc(-c2ccc(C=C3C(=O)[N-]C(=O)NC3=O)o2)cc1

>  <Energy>  (48) 
75.9527080408728

>  <Genealogy>  (48) 
CC(=O)[N-]c1ccc(-c2ccc(C=C3C(=O)[N-]C(=O)NC3=O)o2)cc1 (protonated)
CC(=O)[N-]c1ccc(-c2ccc(C=C3C(=O)[N-]C(=O)NC3=O)o2)cc1 (3D coordinates assigned)
CC(=O)[N-]c1ccc(-c2ccc(C=C3C(=O)[N-]C(=O)NC3=O)o2)cc1 (nonaromatic ring conformer: 75.9527080408728 kcal/mol)

>  <smiles>  (48) 
CC(=O)Nc1ccc(-c2ccc(C=C3C(=O)NC(=O)NC3=O)o2)cc1

>  <score_type>  (48) 
oracle

>  <origin>  (48) 
adg

>  <m_score__min__energy>  (48) 
-10.59

>  <m_primary>  (48) 
energy

$$$$
48:0
     RDKit          3D

 39 41  0  0  0  0  0  0  0  0999 V2000
   57.3550   27.1910   46.8770 O   0  0  0  0  0  0  0  0  0  0  0  0
   56.5910   27.0560   45.8820 C   0  0  0  0  0  0  0  0  0  0  0  0
   55.9290   28.1990   45.3230 N   0  0  0  0  0  0  0  0  0  0  0  0
   56.5340   29.2530   44.5560 C   0  0  0  0  0  0  0  0  0  0  0  0
   56.0220   29.6200   43.2970 C   0  0  0  0  0  0  0  0  0  0  0  0
   56.6230   30.6410   42.5600 C   0  0  0  0  0  0  0  0  0  0  0  0
   57.7480   31.2940   43.0590 C   0  0  0  0  0  0  0  0  0  0  0  0
   58.2830   30.9230   44.2930 C   0  0  0  0  0  0  0  0  0  0  0  0
   57.6860   29.8990   45.0550 C   0  0  0  0  0  0  0  0  0  0  0  0
   58.2350   29.5090   46.3290 N   0  0  0  0  0  0  0  0  0  0  0  0
   59.6260   30.2650   47.0430 S   0  0  0  0  0  0  0  0  0  0  0  0
   59.6910   29.9080   48.5010 O   0  0  0  0  0  0  0  0  0  0  0  0
   60.8660   29.7590   46.3590 O   0  0  0  0  0  0  0  0  0  0  0  0
   59.4980   32.0140   46.8960 C   0  0  0  0  0  0  0  0  0  0  0  0
   60.6430   32.7990   46.6960 C   0  0  0  0  0  0  0  0  0  0  0  0
   60.5300   34.1870   46.5680 C   0  0  0  0  0  0  0  0  0  0  0  0
   59.2740   34.7960   46.6400 C   0  0  0  0  0  0  0  0  0  0  0  0
   58.1300   34.0190   46.8440 C   0  0  0  0  0  0  0  0  0  0  0  0
   58.2410   32.6310   46.9730 C   0  0  0  0  0  0  0  0  0  0  0  0
   56.4220   25.7240   45.2570 C   0  0  0  0  0  0  0  0  0  0  0  0
   57.3590   25.2420   44.3250 C   0  0  0  0  0  0  0  0  0  0  0  0
   57.1880   23.9850   43.7430 C   0  0  0  0  0  0  0  0  0  0  0  0
   56.0790   23.2120   44.0960 C   0  0  0  0  0  0  0  0  0  0  0  0
   55.9100   22.0760   43.5810 O   0  0  0  0  0  0  0  0  0  0  0  0
   55.1810   23.6870   44.9980 N   0  0  0  0  0  0  0  0  0  0  0  0
   55.3230   24.9080   45.5790 C   0  0  0  0  0  0  0  0  0  0  0  0
   55.1424   29.0984   42.8917 H   0  0  0  0  0  0  0  0  0  0  0  0
   56.2079   30.9308   41.5834 H   0  0  0  0  0  0  0  0  0  0  0  0
   58.2153   32.1035   42.4790 H   0  0  0  0  0  0  0  0  0  0  0  0
   59.1790   31.4345   44.6745 H   0  0  0  0  0  0  0  0  0  0  0  0
   57.7290   28.8130   46.9220 H   0  0  0  0  0  0  0  0  0  0  0  0
   61.6324   32.3216   46.6397 H   0  0  0  0  0  0  0  0  0  0  0  0
   61.4299   34.7997   46.4106 H   0  0  0  0  0  0  0  0  0  0  0  0
   59.1857   35.8875   46.5361 H   0  0  0  0  0  0  0  0  0  0  0  0
   57.1423   34.4995   46.9031 H   0  0  0  0  0  0  0  0  0  0  0  0
   57.3398   32.0214   47.1353 H   0  0  0  0  0  0  0  0  0  0  0  0
   58.2293   25.8578   44.0540 H   0  0  0  0  0  0  0  0  0  0  0  0
   57.9192   23.6066   43.0135 H   0  0  0  0  0  0  0  0  0  0  0  0
   54.5745   25.2593   46.3045 H   0  0  0  0  0  0  0  0  0  0  0  0
  1  2  2  0
  2  3  1  0
  3  4  1  0
  4  5  2  0
  5  6  1  0
  6  7  2  0
  7  8  1  0
  8  9  2  0
  9 10  1  0
 10 11  1  0
 11 12  2  0
 11 13  2  0
 11 14  1  0
 14 15  2  0
 15 16  1  0
 16 17  2  0
 17 18  1  0
 18 19  2  0
  2 20  1  0
 20 21  1  0
 21 22  2  0
 22 23  1  0
 23 24  2  0
 23 25  1  0
 25 26  1  0
  9  4  1  0
 19 14  1  0
 26 20  2  0
  5 27  1  0
  6 28  1  0
  7 29  1  0
  8 30  1  0
 10 31  1  0
 15 32  1  0
 16 33  1  0
 17 34  1  0
 18 35  1  0
 19 36  1  0
 21 37  1  0
 22 38  1  0
 26 39  1  0
M  CHG  2   3  -1  25  -1
M  END
>  <UniqueID>  (49) 
46

>  <SMILES>  (49) 
O=C([N-]c1ccccc1NS(=O)(=O)c1ccccc1)c1ccc(=O)[n-]c1

>  <Energy>  (49) 
50.89002586448054

>  <Genealogy>  (49) 
O=C([N-]c1ccccc1NS(=O)(=O)c1ccccc1)c1ccc(=O)[n-]c1 (protonated)
O=C([N-]c1ccccc1NS(=O)(=O)c1ccccc1)c1ccc(=O)[n-]c1 (3D coordinates assigned)
O=C([N-]c1ccccc1NS(=O)(=O)c1ccccc1)c1ccc(=O)[n-]c1 (optimized conformer: 50.89002586448054 kcal/mol)

>  <smiles>  (49) 
O=C(Nc1ccccc1NS(=O)(=O)c1ccccc1)c1ccc(=O)[nH]c1

>  <score_type>  (49) 
oracle

>  <origin>  (49) 
adg

>  <m_score__min__energy>  (49) 
-12.9

>  <m_primary>  (49) 
energy

$$$$
50:0
     RDKit          3D

 61 64  0  0  0  0  0  0  0  0999 V2000
   54.7800   26.3230   45.6230 O   0  0  0  0  0  0  0  0  0  0  0  0
   55.4540   25.3360   46.0280 C   0  0  0  0  0  0  0  0  0  0  0  0
   55.0180   23.9480   45.6890 C   0  0  0  0  0  0  0  0  0  0  0  0
   56.1320   23.2150   44.9950 C   0  0  0  0  0  0  0  0  0  0  0  0
   55.9960   22.8300   43.6500 C   0  0  0  0  0  0  0  0  0  0  0  0
   57.0170   22.1150   43.0160 C   0  0  0  0  0  0  0  0  0  0  0  0
   58.1730   21.7710   43.7210 C   0  0  0  0  0  0  0  0  0  0  0  0
   58.3090   22.1370   45.0640 C   0  0  0  0  0  0  0  0  0  0  0  0
   57.2910   22.8530   45.7010 C   0  0  0  0  0  0  0  0  0  0  0  0
   56.5900   25.5200   46.8240 O   0  0  0  0  0  0  0  0  0  0  0  0
   57.8520   25.9540   46.3150 C   0  0  2  0  0  0  0  0  0  0  0  0
   58.7350   26.4790   47.4640 C   0  0  0  0  0  0  0  0  0  0  0  0
   59.3630   27.7640   47.0910 N   0  0  0  0  0  0  0  0  0  0  0  0
   59.9110   28.4620   48.2700 C   0  0  0  0  0  0  0  0  0  0  0  0
   60.7710   29.6810   47.8650 C   0  0  0  0  0  0  0  0  0  0  0  0
   60.5480   30.0930   46.4620 N   0  0  0  0  0  0  0  0  0  0  0  0
   59.2150   30.7030   46.2370 C   0  0  0  0  0  0  0  0  0  0  0  0
   59.3010   32.2100   46.2340 C   0  0  0  0  0  0  0  0  0  0  0  0
   60.0240   32.8650   47.2470 C   0  0  0  0  0  0  0  0  0  0  0  0
   60.1250   34.2580   47.2570 C   0  0  0  0  0  0  0  0  0  0  0  0
   59.5080   35.0120   46.2570 C   0  0  0  0  0  0  0  0  0  0  0  0
   59.6090   36.3640   46.2690 F   0  0  0  0  0  0  0  0  0  0  0  0
   58.7890   34.3740   45.2440 C   0  0  0  0  0  0  0  0  0  0  0  0
   58.6810   32.9780   45.2250 C   0  0  0  0  0  0  0  0  0  0  0  0
   57.7620   32.2260   43.9240 Cl  0  0  0  0  0  0  0  0  0  0  0  0
   60.8300   28.9810   45.5210 C   0  0  0  0  0  0  0  0  0  0  0  0
   60.4020   27.6000   46.0620 C   0  0  0  0  0  0  0  0  0  0  0  0
   57.6210   27.0350   45.2830 C   0  0  0  0  0  0  0  0  0  0  0  0
   56.9210   28.2050   45.6270 C   0  0  0  0  0  0  0  0  0  0  0  0
   56.6410   29.1730   44.6570 C   0  0  0  0  0  0  0  0  0  0  0  0
   57.0510   28.9780   43.3360 C   0  0  0  0  0  0  0  0  0  0  0  0
   57.7440   27.8180   42.9830 C   0  0  0  0  0  0  0  0  0  0  0  0
   58.0270   26.8480   43.9490 C   0  0  0  0  0  0  0  0  0  0  0  0
   54.7505   23.4142   46.6129 H   0  0  0  0  0  0  0  0  0  0  0  0
   54.1457   23.9963   45.0206 H   0  0  0  0  0  0  0  0  0  0  0  0
   55.0835   23.0920   43.0943 H   0  0  0  0  0  0  0  0  0  0  0  0
   56.9098   21.8231   41.9609 H   0  0  0  0  0  0  0  0  0  0  0  0
   58.9767   21.2119   43.2195 H   0  0  0  0  0  0  0  0  0  0  0  0
   59.2175   21.8613   45.6195 H   0  0  0  0  0  0  0  0  0  0  0  0
   57.3982   23.1339   46.7591 H   0  0  0  0  0  0  0  0  0  0  0  0
   58.3735   25.1082   45.8430 H   0  0  0  0  0  0  0  0  0  0  0  0
   58.1133   26.6267   48.3594 H   0  0  0  0  0  0  0  0  0  0  0  0
   59.5266   25.7430   47.6681 H   0  0  0  0  0  0  0  0  0  0  0  0
   59.0773   28.8073   48.8991 H   0  0  0  0  0  0  0  0  0  0  0  0
   60.5530   27.7567   48.8180 H   0  0  0  0  0  0  0  0  0  0  0  0
   60.5190   30.5247   48.5243 H   0  0  0  0  0  0  0  0  0  0  0  0
   61.8275   29.3910   47.9634 H   0  0  0  0  0  0  0  0  0  0  0  0
   58.8236   30.3635   45.2667 H   0  0  0  0  0  0  0  0  0  0  0  0
   58.5463   30.3927   47.0534 H   0  0  0  0  0  0  0  0  0  0  0  0
   60.5133   32.2762   48.0369 H   0  0  0  0  0  0  0  0  0  0  0  0
   60.6916   34.7618   48.0540 H   0  0  0  0  0  0  0  0  0  0  0  0
   58.3051   34.9711   44.4570 H   0  0  0  0  0  0  0  0  0  0  0  0
   60.2883   29.1717   44.5828 H   0  0  0  0  0  0  0  0  0  0  0  0
   61.9193   28.9490   45.3715 H   0  0  0  0  0  0  0  0  0  0  0  0
   60.0042   26.9922   45.2359 H   0  0  0  0  0  0  0  0  0  0  0  0
   61.2749   27.0992   46.5061 H   0  0  0  0  0  0  0  0  0  0  0  0
   56.5917   28.3599   46.6651 H   0  0  0  0  0  0  0  0  0  0  0  0
   56.0977   30.0883   44.9346 H   0  0  0  0  0  0  0  0  0  0  0  0
   56.8279   29.7386   42.5733 H   0  0  0  0  0  0  0  0  0  0  0  0
   58.0678   27.6673   41.9426 H   0  0  0  0  0  0  0  0  0  0  0  0
   58.5696   25.9343   43.6648 H   0  0  0  0  0  0  0  0  0  0  0  0
  1  2  2  0
  2  3  1  0
  3  4  1  0
  4  5  2  0
  5  6  1  0
  6  7  2  0
  7  8  1  0
  8  9  2  0
  2 10  1  0
 10 11  1  0
 11 12  1  0
 12 13  1  0
 13 14  1  0
 14 15  1  0
 15 16  1  0
 16 17  1  0
 17 18  1  0
 18 19  2  0
 19 20  1  0
 20 21  2  0
 21 22  1  0
 21 23  1  0
 23 24  2  0
 24 25  1  0
 16 26  1  0
 26 27  1  0
 11 28  1  0
 28 29  2  0
 29 30  1  0
 30 31  2  0
 31 32  1  0
 32 33  2  0
  9  4  1  0
 27 13  1  0
 33 28  1  0
 24 18  1  0
  3 34  1  0
  3 35  1  0
  5 36  1  0
  6 37  1  0
  7 38  1  0
  8 39  1  0
  9 40  1  0
 11 41  1  6
 12 42  1  0
 12 43  1  0
 14 44  1  0
 14 45  1  0
 15 46  1  0
 15 47  1  0
 17 48  1  0
 17 49  1  0
 19 50  1  0
 20 51  1  0
 23 52  1  0
 26 53  1  0
 26 54  1  0
 27 55  1  0
 27 56  1  0
 29 57  1  0
 30 58  1  0
 31 59  1  0
 32 60  1  0
 33 61  1  0
M  END
>  <UniqueID>  (50) 
47

>  <SMILES>  (50) 
O=C(Cc1ccccc1)O[C@H](CN1CCN(Cc2ccc(F)cc2Cl)CC1)c1ccccc1

>  <Energy>  (50) 
70.06429118320835

>  <Genealogy>  (50) 
O=C(Cc1ccccc1)O[C@H](CN1CCN(Cc2ccc(F)cc2Cl)CC1)c1ccccc1 (chirality)
O=C(Cc1ccccc1)O[C@H](CN1CCN(Cc2ccc(F)cc2Cl)CC1)c1ccccc1 (3D coordinates assigned)
O=C(Cc1ccccc1)O[C@H](CN1CCN(Cc2ccc(F)cc2Cl)CC1)c1ccccc1 (nonaromatic ring conformer: 70.06429118320835 kcal/mol)

>  <smiles>  (50) 
O=C(Cc1ccccc1)OC(CN1CCN(Cc2ccc(F)cc2Cl)CC1)c1ccccc1

>  <score_type>  (50) 
oracle

>  <origin>  (50) 
adg

>  <m_score__min__energy>  (50) 
-9.2400000000000002

>  <m_primary>  (50) 
energy

$$$$
51:0
     RDKit          3D

 50 53  0  0  0  0  0  0  0  0999 V2000
   51.0110   32.3390   50.0350 O   0  0  0  0  0  0  0  0  0  0  0  0
   51.1910   32.2250   51.2770 C   0  0  0  0  0  0  0  0  0  0  0  0
   50.2780   32.8100   52.1480 O   0  0  0  0  0  0  0  0  0  0  0  0
   52.3570   31.4810   51.8020 C   0  0  0  0  0  0  0  0  0  0  0  0
   52.4070   31.0800   53.1490 C   0  0  0  0  0  0  0  0  0  0  0  0
   53.5110   30.3760   53.6390 C   0  0  0  0  0  0  0  0  0  0  0  0
   54.5940   30.0760   52.7940 C   0  0  0  0  0  0  0  0  0  0  0  0
   55.7300   29.3230   53.2490 N   0  0  0  0  0  0  0  0  0  0  0  0
   56.9560   29.4220   52.8240 C   0  0  0  0  0  0  0  0  0  0  0  0
   57.1930   29.9980   51.6190 N   0  0  0  0  0  0  0  0  0  0  0  0
   58.4530   30.1510   51.1290 C   0  0  0  0  0  0  0  0  0  0  0  0
   58.6030   30.7310   49.7750 C   0  0  0  0  0  0  0  0  0  0  0  0
   58.9080   29.9150   48.6710 C   0  0  0  0  0  0  0  0  0  0  0  0
   59.0200   30.4700   47.3930 C   0  0  0  0  0  0  0  0  0  0  0  0
   58.8130   31.8400   47.2040 C   0  0  0  0  0  0  0  0  0  0  0  0
   58.9210   32.3770   45.9630 F   0  0  0  0  0  0  0  0  0  0  0  0
   58.4900   32.6540   48.2920 C   0  0  0  0  0  0  0  0  0  0  0  0
   58.3780   32.1020   49.5730 C   0  0  0  0  0  0  0  0  0  0  0  0
   59.5540   29.7250   51.9090 C   0  0  0  0  0  0  0  0  0  0  0  0
   60.9620   29.9600   51.5100 C   0  0  0  0  0  0  0  0  0  0  0  0
   61.7430   28.9790   51.3650 O   0  0  0  0  0  0  0  0  0  0  0  0
   61.4380   31.2940   51.2730 N   0  0  0  0  0  0  0  0  0  0  0  0
   62.7630   31.5650   50.7220 C   0  0  0  0  0  0  0  0  0  0  0  0
   62.6400   32.2920   49.4110 C   0  0  0  0  0  0  0  0  0  0  0  0
   63.5280   32.0010   48.3620 C   0  0  0  0  0  0  0  0  0  0  0  0
   63.4360   32.6920   47.1510 C   0  0  0  0  0  0  0  0  0  0  0  0
   62.4620   33.6800   46.9800 C   0  0  0  0  0  0  0  0  0  0  0  0
   61.5810   33.9800   48.0210 C   0  0  0  0  0  0  0  0  0  0  0  0
   61.6690   33.2910   49.2340 C   0  0  0  0  0  0  0  0  0  0  0  0
   59.2820   29.1300   53.1480 C   0  0  0  0  0  0  0  0  0  0  0  0
   58.0030   28.9970   53.5800 N   0  0  0  0  0  0  0  0  0  0  0  0
   54.5290   30.4450   51.4460 C   0  0  0  0  0  0  0  0  0  0  0  0
   53.4280   31.1500   50.9530 C   0  0  0  0  0  0  0  0  0  0  0  0
   51.5713   31.3220   53.8220 H   0  0  0  0  0  0  0  0  0  0  0  0
   53.5325   30.0552   54.6910 H   0  0  0  0  0  0  0  0  0  0  0  0
   59.0592   28.8348   48.8139 H   0  0  0  0  0  0  0  0  0  0  0  0
   59.2711   29.8286   46.5353 H   0  0  0  0  0  0  0  0  0  0  0  0
   58.3234   33.7309   48.1417 H   0  0  0  0  0  0  0  0  0  0  0  0
   58.1126   32.7449   50.4252 H   0  0  0  0  0  0  0  0  0  0  0  0
   60.8320   32.1070   51.5240 H   0  0  0  0  0  0  0  0  0  0  0  0
   63.3313   32.1859   51.4302 H   0  0  0  0  0  0  0  0  0  0  0  0
   63.2856   30.6113   50.5566 H   0  0  0  0  0  0  0  0  0  0  0  0
   64.2981   31.2268   48.4944 H   0  0  0  0  0  0  0  0  0  0  0  0
   64.1310   32.4582   46.3311 H   0  0  0  0  0  0  0  0  0  0  0  0
   62.3896   34.2213   46.0251 H   0  0  0  0  0  0  0  0  0  0  0  0
   60.8167   34.7596   47.8863 H   0  0  0  0  0  0  0  0  0  0  0  0
   60.9752   33.5322   50.0528 H   0  0  0  0  0  0  0  0  0  0  0  0
   60.1108   28.7684   53.7744 H   0  0  0  0  0  0  0  0  0  0  0  0
   55.3526   30.1775   50.7677 H   0  0  0  0  0  0  0  0  0  0  0  0
   53.3988   31.4479   49.8945 H   0  0  0  0  0  0  0  0  0  0  0  0
  1  2  2  0
  2  3  1  0
  2  4  1  0
  4  5  2  0
  5  6  1  0
  6  7  2  0
  7  8  1  0
  8  9  2  3
  9 10  1  0
 10 11  2  0
 11 12  1  0
 12 13  2  0
 13 14  1  0
 14 15  2  0
 15 16  1  0
 15 17  1  0
 17 18  2  0
 11 19  1  0
 19 20  1  0
 20 21  2  0
 20 22  1  0
 22 23  1  0
 23 24  1  0
 24 25  2  0
 25 26  1  0
 26 27  2  0
 27 28  1  0
 28 29  2  0
 19 30  2  0
 30 31  1  0
  7 32  1  0
 32 33  2  0
 33  4  1  0
 31  9  1  0
 18 12  1  0
 29 24  1  0
  5 34  1  0
  6 35  1  0
 13 36  1  0
 14 37  1  0
 17 38  1  0
 18 39  1  0
 22 40  1  0
 23 41  1  0
 23 42  1  0
 25 43  1  0
 26 44  1  0
 27 45  1  0
 28 46  1  0
 29 47  1  0
 30 48  1  0
 32 49  1  0
 33 50  1  0
M  CHG  2   3  -1  31  -1
M  END
>  <UniqueID>  (51) 
48

>  <SMILES>  (51) 
O=C([O-])c1ccc(N=c2nc(-c3ccc(F)cc3)c(C(=O)NCc3ccccc3)c[n-]2)cc1

>  <Energy>  (51) 
70.81142851129165

>  <Genealogy>  (51) 
O=C([O-])c1ccc(N=c2nc(-c3ccc(F)cc3)c(C(=O)NCc3ccccc3)c[n-]2)cc1 (protonated)
O=C([O-])c1ccc(N=c2nc(-c3ccc(F)cc3)c(C(=O)NCc3ccccc3)c[n-]2)cc1 (3D coordinates assigned)
O=C([O-])c1ccc(N=c2nc(-c3ccc(F)cc3)c(C(=O)NCc3ccccc3)c[n-]2)cc1 (optimized conformer: 70.81142851129165 kcal/mol)

>  <smiles>  (51) 
O=C(O)c1ccc(N=c2nc(-c3ccc(F)cc3)c(C(=O)NCc3ccccc3)c[nH]2)cc1

>  <score_type>  (51) 
oracle

>  <origin>  (51) 
adg

>  <m_score__min__energy>  (51) 
-12.92

>  <m_primary>  (51) 
energy

$$$$
52:0
     RDKit          3D

 49 52  0  0  0  0  0  0  0  0999 V2000
   60.6136   26.4351   49.6002 H   0  0  0  0  0  0  0  0  0  0  0  0
   60.4600   27.3990   49.0930 C   0  0  0  0  0  0  0  0  0  0  0  0
   60.9780   28.5320   49.6300 N   0  0  0  0  0  0  0  0  0  0  0  0
   60.7960   29.7360   49.0360 C   0  0  0  0  0  0  0  0  0  0  0  0
   61.3370   30.7940   49.5660 N   0  0  0  0  0  0  0  0  0  0  0  0
   62.1780   31.7570   48.9050 C   0  0  0  0  0  0  0  0  0  0  0  0
   62.0700   33.1050   49.2590 C   0  0  0  0  0  0  0  0  0  0  0  0
   61.3661   33.4106   50.0471 H   0  0  0  0  0  0  0  0  0  0  0  0
   62.8530   34.0640   48.6150 C   0  0  0  0  0  0  0  0  0  0  0  0
   62.7826   35.1232   48.9032 H   0  0  0  0  0  0  0  0  0  0  0  0
   63.7260   33.6660   47.6020 C   0  0  0  0  0  0  0  0  0  0  0  0
   64.3539   34.4125   47.0935 H   0  0  0  0  0  0  0  0  0  0  0  0
   63.8020   32.3560   47.2420 N   0  0  0  0  0  0  0  0  0  0  0  0
   64.4460   32.0770   46.4680 H   0  0  0  0  0  0  0  0  0  0  0  0
   63.0470   31.4040   47.8560 C   0  0  0  0  0  0  0  0  0  0  0  0
   63.1165   30.3554   47.5310 H   0  0  0  0  0  0  0  0  0  0  0  0
   60.0880   29.8100   47.8790 N   0  0  0  0  0  0  0  0  0  0  0  0
   59.5340   28.7140   47.2920 C   0  0  0  0  0  0  0  0  0  0  0  0
   58.7450   28.9180   46.0470 C   0  0  0  0  0  0  0  0  0  0  0  0
   58.0840   30.0870   45.8280 N   0  0  0  0  0  0  0  0  0  0  0  0
   57.3800   30.3090   44.6840 C   0  0  0  0  0  0  0  0  0  0  0  0
   56.7440   31.4260   44.5000 N   0  0  0  0  0  0  0  0  0  0  0  0
   57.3830   32.6660   44.0690 C   0  0  0  0  0  0  0  0  0  0  0  0
   58.1234   32.4446   43.2862 H   0  0  0  0  0  0  0  0  0  0  0  0
   56.6220   33.3520   43.6687 H   0  0  0  0  0  0  0  0  0  0  0  0
   58.0690   33.3060   45.2410 C   0  0  0  0  0  0  0  0  0  0  0  0
   59.0720   34.2670   45.0360 C   0  0  0  0  0  0  0  0  0  0  0  0
   59.3373   34.5727   44.0132 H   0  0  0  0  0  0  0  0  0  0  0  0
   59.7350   34.8370   46.1280 C   0  0  0  0  0  0  0  0  0  0  0  0
   60.5130   35.5969   45.9628 H   0  0  0  0  0  0  0  0  0  0  0  0
   59.4100   34.4420   47.4290 C   0  0  0  0  0  0  0  0  0  0  0  0
   60.0550   34.9940   48.4860 F   0  0  0  0  0  0  0  0  0  0  0  0
   58.4240   33.4740   47.6400 C   0  0  0  0  0  0  0  0  0  0  0  0
   58.1712   33.1614   48.6639 H   0  0  0  0  0  0  0  0  0  0  0  0
   57.7580   32.9020   46.5500 C   0  0  0  0  0  0  0  0  0  0  0  0
   56.9889   32.1339   46.7188 H   0  0  0  0  0  0  0  0  0  0  0  0
   57.3420   29.3520   43.7230 N   0  0  0  0  0  0  0  0  0  0  0  0
   57.9950   28.1710   43.8790 C   0  0  0  0  0  0  0  0  0  0  0  0
   57.9320   27.1340   42.8020 C   0  0  0  0  0  0  0  0  0  0  0  0
   57.8713   26.1349   43.2581 H   0  0  0  0  0  0  0  0  0  0  0  0
   57.0427   27.3069   42.1781 H   0  0  0  0  0  0  0  0  0  0  0  0
   58.8357   27.1980   42.1781 H   0  0  0  0  0  0  0  0  0  0  0  0
   58.7160   27.9290   45.0520 C   0  0  0  0  0  0  0  0  0  0  0  0
   59.2519   26.9787   45.1927 H   0  0  0  0  0  0  0  0  0  0  0  0
   59.7300   27.4470   47.8960 C   0  0  0  0  0  0  0  0  0  0  0  0
   59.2040   26.1630   47.3100 C   0  0  0  0  0  0  0  0  0  0  0  0
   58.9230   25.4771   48.1227 H   0  0  0  0  0  0  0  0  0  0  0  0
   58.3213   26.3776   46.6897 H   0  0  0  0  0  0  0  0  0  0  0  0
   59.9835   25.6966   46.6897 H   0  0  0  0  0  0  0  0  0  0  0  0
  1  2  1  0
  2  3  1  0
  3  4  1  0
  4  5  2  0
  5  6  1  0
  6  7  2  0
  7  8  1  0
  7  9  1  0
  9 10  1  0
  9 11  2  0
 11 12  1  0
 11 13  1  0
 13 14  1  0
 13 15  2  0
 15 16  1  0
  4 17  1  0
 17 18  2  0
 18 19  1  0
 19 20  2  0
 20 21  1  0
 21 22  2  0
 22 23  1  0
 23 24  1  0
 23 25  1  0
 23 26  1  0
 26 27  2  0
 27 28  1  0
 27 29  1  0
 29 30  1  0
 29 31  2  0
 31 32  1  0
 31 33  1  0
 33 34  1  0
 33 35  2  0
 35 36  1  0
 21 37  1  0
 37 38  1  0
 38 39  1  0
 39 40  1  0
 39 41  1  0
 39 42  1  0
 38 43  2  0
 43 44  1  0
 18 45  1  0
 45 46  1  0
 46 47  1  0
 46 48  1  0
 46 49  1  0
 45  2  2  0
 15  6  1  0
 43 19  1  0
 35 26  1  0
M  CHG  3   3  -1  13   1  37  -1
M  END
>  <UniqueID>  (52) 
49

>  <SMILES>  (52) 
Cc1cc(-c2n/c(=N\c3ccc[nH+]c3)[n-]cc2C)n/c(=N\Cc2ccc(F)cc2)[n-]1

>  <Energy>  (52) 
62.420181557076894

>  <Genealogy>  (52) 
Cc1cc(-c2nc(=Nc3ccc[nH+]c3)[n-]cc2C)nc(=NCc2ccc(F)cc2)[n-]1 (protonated)
Cc1cc(-c2n/c(=N\c3ccc[nH+]c3)[n-]cc2C)n/c(=N\Cc2ccc(F)cc2)[n-]1 (cis-trans isomerization)
Cc1cc(-c2n/c(=N\c3ccc[nH+]c3)[n-]cc2C)n/c(=N\Cc2ccc(F)cc2)[n-]1 (3D coordinates assigned)
Cc1cc(-c2n/c(=N\c3ccc[nH+]c3)[n-]cc2C)n/c(=N\Cc2ccc(F)cc2)[n-]1 (optimized conformer: 62.420181557076894 kcal/mol)

>  <smiles>  (52) 
Cc1cc(-c2nc(=Nc3cccnc3)[nH]cc2C)nc(=NCc2ccc(F)cc2)[nH]1

>  <score_type>  (52) 
oracle

>  <origin>  (52) 
adg

>  <m_score__min__energy>  (52) 
-10.17

>  <m_primary>  (52) 
energy

$$$$
53:0
     RDKit          3D

 41 43  0  0  0  0  0  0  0  0999 V2000
   55.1400   30.5420   44.3780 O   0  0  0  0  0  0  0  0  0  0  0  0
   56.1600   29.8170   44.5300 C   0  0  0  0  0  0  0  0  0  0  0  0
   57.4960   30.3170   44.0380 C   0  0  0  0  0  0  0  0  0  0  0  0
   57.8400   31.6440   44.6670 C   0  0  0  0  0  0  0  0  0  0  0  0
   57.8090   31.7930   46.0640 C   0  0  0  0  0  0  0  0  0  0  0  0
   58.1580   33.0140   46.6490 C   0  0  0  0  0  0  0  0  0  0  0  0
   58.5470   34.0920   45.8470 C   0  0  0  0  0  0  0  0  0  0  0  0
   58.8880   35.2740   46.4180 F   0  0  0  0  0  0  0  0  0  0  0  0
   58.5940   33.9470   44.4570 C   0  0  0  0  0  0  0  0  0  0  0  0
   58.2460   32.7270   43.8670 C   0  0  0  0  0  0  0  0  0  0  0  0
   56.0160   28.5820   45.2440 N   0  0  0  0  0  0  0  0  0  0  0  0
   57.0620   27.5890   45.4810 C   0  0  0  0  0  0  0  0  0  0  0  0
   57.7850   27.8420   46.8130 C   0  0  0  0  0  0  0  0  0  0  0  0
   59.2880   28.1160   46.6490 C   0  0  0  0  0  0  0  0  0  0  0  0
   59.7040   29.3740   47.3500 C   0  0  0  0  0  0  0  0  0  0  0  0
   60.7900   30.0680   46.9170 N   0  0  0  0  0  0  0  0  0  0  0  0
   61.1690   31.2340   47.5030 C   0  0  0  0  0  0  0  0  0  0  0  0
   62.1870   31.8410   47.0760 O   0  0  0  0  0  0  0  0  0  0  0  0
   60.4210   31.7440   48.5780 C   0  0  0  0  0  0  0  0  0  0  0  0
   60.7540   32.9470   49.2280 C   0  0  0  0  0  0  0  0  0  0  0  0
   59.9740   33.4040   50.2940 C   0  0  0  0  0  0  0  0  0  0  0  0
   58.8630   32.6710   50.7200 C   0  0  0  0  0  0  0  0  0  0  0  0
   58.5230   31.4780   50.0770 C   0  0  0  0  0  0  0  0  0  0  0  0
   59.2960   31.0100   49.0090 C   0  0  0  0  0  0  0  0  0  0  0  0
   58.9650   29.8500   48.3850 N   0  0  0  0  0  0  0  0  0  0  0  0
   58.2730   29.5831   44.2981 H   0  0  0  0  0  0  0  0  0  0  0  0
   57.4414   30.4492   42.9473 H   0  0  0  0  0  0  0  0  0  0  0  0
   57.5092   30.9464   46.6992 H   0  0  0  0  0  0  0  0  0  0  0  0
   58.1266   33.1272   47.7427 H   0  0  0  0  0  0  0  0  0  0  0  0
   58.9050   34.7931   43.8266 H   0  0  0  0  0  0  0  0  0  0  0  0
   58.2901   32.6146   42.7737 H   0  0  0  0  0  0  0  0  0  0  0  0
   56.6062   26.5882   45.5059 H   0  0  0  0  0  0  0  0  0  0  0  0
   57.7992   27.6625   44.6679 H   0  0  0  0  0  0  0  0  0  0  0  0
   57.3229   28.7131   47.3006 H   0  0  0  0  0  0  0  0  0  0  0  0
   57.6855   26.9270   47.4154 H   0  0  0  0  0  0  0  0  0  0  0  0
   59.8521   27.2706   47.0699 H   0  0  0  0  0  0  0  0  0  0  0  0
   59.4986   28.2367   45.5761 H   0  0  0  0  0  0  0  0  0  0  0  0
   61.6279   33.5274   48.8972 H   0  0  0  0  0  0  0  0  0  0  0  0
   60.2358   34.3450   50.8000 H   0  0  0  0  0  0  0  0  0  0  0  0
   58.2556   33.0336   51.5624 H   0  0  0  0  0  0  0  0  0  0  0  0
   57.6453   30.9054   50.4114 H   0  0  0  0  0  0  0  0  0  0  0  0
  1  2  2  0
  2  3  1  0
  3  4  1  0
  4  5  2  0
  5  6  1  0
  6  7  2  0
  7  8  1  0
  7  9  1  0
  9 10  2  0
  2 11  1  0
 11 12  1  0
 12 13  1  0
 13 14  1  0
 14 15  1  0
 15 16  2  0
 16 17  1  0
 17 18  2  0
 17 19  1  0
 19 20  2  0
 20 21  1  0
 21 22  2  0
 22 23  1  0
 23 24  2  0
 24 25  1  0
 10  4  1  0
 25 15  1  0
 24 19  1  0
  3 26  1  0
  3 27  1  0
  5 28  1  0
  6 29  1  0
  9 30  1  0
 10 31  1  0
 12 32  1  0
 12 33  1  0
 13 34  1  0
 13 35  1  0
 14 36  1  0
 14 37  1  0
 20 38  1  0
 21 39  1  0
 22 40  1  0
 23 41  1  0
M  CHG  2  11  -1  25  -1
M  END
>  <UniqueID>  (53) 
50

>  <SMILES>  (53) 
O=C(Cc1ccc(F)cc1)[N-]CCCc1nc(=O)c2ccccc2[n-]1

>  <Energy>  (53) 
42.29384826357336

>  <Genealogy>  (53) 
O=C(Cc1ccc(F)cc1)[N-]CCCc1nc(=O)c2ccccc2[n-]1 (protonated)
O=C(Cc1ccc(F)cc1)[N-]CCCc1nc(=O)c2ccccc2[n-]1 (3D coordinates assigned)
O=C(Cc1ccc(F)cc1)[N-]CCCc1nc(=O)c2ccccc2[n-]1 (optimized conformer: 42.29384826357336 kcal/mol)

>  <smiles>  (53) 
O=C(Cc1ccc(F)cc1)NCCCc1nc(=O)c2ccccc2[nH]1

>  <score_type>  (53) 
oracle

>  <origin>  (53) 
adg

>  <m_score__min__energy>  (53) 
-11.44

>  <m_primary>  (53) 
energy

$$$$
54:0
     RDKit          3D

 28 29  0  0  0  0  0  0  0  0999 V2000
   57.4180   28.4120   43.7090 C   0  0  0  0  0  0  0  0  0  0  0  0
   56.5000   29.8250   44.2860 S   0  0  0  0  0  0  0  0  0  0  0  0
   55.1440   29.3560   44.7320 O   0  0  0  0  0  0  0  0  0  0  0  0
   56.3260   30.8270   43.1790 O   0  0  0  0  0  0  0  0  0  0  0  0
   57.3040   30.5580   45.6400 N   0  0  0  0  0  0  0  0  0  0  0  0
   57.9740   31.8370   45.6830 C   0  0  0  0  0  0  0  0  0  0  0  0
   57.3120   32.9120   45.0710 C   0  0  0  0  0  0  0  0  0  0  0  0
   57.7000   34.2260   44.8740 C   0  0  0  0  0  0  0  0  0  0  0  0
   58.8820   34.8490   45.2100 C   0  0  0  0  0  0  0  0  0  0  0  0
   59.9600   34.3440   45.9090 C   0  0  0  0  0  0  0  0  0  0  0  0
   60.1420   33.0780   46.4810 C   0  0  0  0  0  0  0  0  0  0  0  0
   61.3460   32.9220   47.2010 C   0  0  0  0  0  0  0  0  0  0  0  0
   61.6900   31.7310   47.8290 C   0  0  0  0  0  0  0  0  0  0  0  0
   62.8980   31.6620   48.5240 O   0  0  0  0  0  0  0  0  0  0  0  0
   60.8350   30.6330   47.7580 C   0  0  0  0  0  0  0  0  0  0  0  0
   61.1450   29.5530   48.3300 O   0  0  0  0  0  0  0  0  0  0  0  0
   59.6330   30.7130   47.0570 C   0  0  0  0  0  0  0  0  0  0  0  0
   59.2100   31.8940   46.3890 C   0  0  0  0  0  0  0  0  0  0  0  0
   57.7900   27.8394   44.5714 H   0  0  0  0  0  0  0  0  0  0  0  0
   56.7623   27.7727   43.0996 H   0  0  0  0  0  0  0  0  0  0  0  0
   58.2686   28.7513   43.0996 H   0  0  0  0  0  0  0  0  0  0  0  0
   56.3128   32.6688   44.6806 H   0  0  0  0  0  0  0  0  0  0  0  0
   56.9563   34.8660   44.3768 H   0  0  0  0  0  0  0  0  0  0  0  0
   58.9803   35.8922   44.8753 H   0  0  0  0  0  0  0  0  0  0  0  0
   60.8024   35.0399   46.0359 H   0  0  0  0  0  0  0  0  0  0  0  0
   62.0376   33.7748   47.2675 H   0  0  0  0  0  0  0  0  0  0  0  0
   63.1950   30.8240   49.0100 H   0  0  0  0  0  0  0  0  0  0  0  0
   58.9848   29.8251   47.0192 H   0  0  0  0  0  0  0  0  0  0  0  0
  1  2  1  0
  2  3  2  0
  2  4  2  0
  2  5  1  0
  5  6  1  0
  6  7  2  0
  7  8  1  0
  8  9  2  0
  9 10  1  0
 10 11  2  0
 11 12  1  0
 12 13  2  0
 13 14  1  0
 13 15  1  0
 15 16  2  0
 15 17  1  0
 17 18  2  0
 18  6  1  0
 18 11  1  0
  1 19  1  0
  1 20  1  0
  1 21  1  0
  7 22  1  0
  8 23  1  0
  9 24  1  0
 10 25  1  0
 12 26  1  0
 14 27  1  0
 17 28  1  0
M  CHG  1   5  -1
M  END
>  <UniqueID>  (54) 
51

>  <SMILES>  (54) 
CS(=O)(=O)[N-]c1ccccc2cc(O)c(=O)cc1-2

>  <Energy>  (54) 
56.77620954537536

>  <Genealogy>  (54) 
CS(=O)(=O)[N-]c1ccccc2cc(O)c(=O)cc1-2 (protonated)
CS(=O)(=O)[N-]c1ccccc2cc(O)c(=O)cc1-2 (3D coordinates assigned)
CS(=O)(=O)[N-]c1ccccc2cc(O)c(=O)cc1-2 (optimized conformer: 56.77620954537536 kcal/mol)

>  <smiles>  (54) 
CS(=O)(=O)Nc1ccccc2cc(O)c(=O)cc1-2

>  <score_type>  (54) 
oracle

>  <origin>  (54) 
adg

>  <m_score__min__energy>  (54) 
-7.9800000000000004

>  <m_primary>  (54) 
energy

$$$$
55:0
     RDKit          3D

 45 48  0  0  0  0  0  0  0  0999 V2000
   64.1280   33.3670   49.2050 C   0  0  0  0  0  0  0  0  0  0  0  0
   62.7740   33.5970   48.6010 C   0  0  0  0  0  0  0  0  0  0  0  0
   61.6850   33.9420   49.4140 C   0  0  0  0  0  0  0  0  0  0  0  0
   60.4300   34.1890   48.8490 C   0  0  0  0  0  0  0  0  0  0  0  0
   60.2530   34.1090   47.4540 C   0  0  0  0  0  0  0  0  0  0  0  0
   58.9860   34.3620   46.8310 N   0  0  0  0  0  0  0  0  0  0  0  0
   58.5450   33.8780   45.2260 S   0  0  0  0  0  0  0  0  0  0  0  0
   57.3400   34.6620   44.7880 O   0  0  0  0  0  0  0  0  0  0  0  0
   59.6800   34.1720   44.2860 O   0  0  0  0  0  0  0  0  0  0  0  0
   58.1400   32.1630   45.2140 C   0  0  0  0  0  0  0  0  0  0  0  0
   58.5390   31.3230   46.2630 C   0  0  0  0  0  0  0  0  0  0  0  0
   58.1840   29.9720   46.2570 C   0  0  0  0  0  0  0  0  0  0  0  0
   57.4240   29.4370   45.1980 C   0  0  0  0  0  0  0  0  0  0  0  0
   57.0200   28.0090   45.1950 C   0  0  0  0  0  0  0  0  0  0  0  0
   55.8760   27.6870   45.6200 O   0  0  0  0  0  0  0  0  0  0  0  0
   57.8950   26.9950   44.6730 N   0  0  0  0  0  0  0  0  0  0  0  0
   57.7950   25.6020   45.0190 C   0  0  0  0  0  0  0  0  0  0  0  0
   57.7710   24.5930   44.0160 C   0  0  0  0  0  0  0  0  0  0  0  0
   57.6360   23.2360   44.3640 C   0  0  0  0  0  0  0  0  0  0  0  0
   57.5180   22.9280   45.7140 C   0  0  0  0  0  0  0  0  0  0  0  0
   57.3760   21.7370   46.3830 C   0  0  0  0  0  0  0  0  0  0  0  0
   57.3070   22.0060   47.7070 N   0  0  0  0  0  0  0  0  0  0  0  0
   57.3980   23.3210   47.8940 N   0  0  0  0  0  0  0  0  0  0  0  0
   57.5270   23.8860   46.6820 C   0  0  0  0  0  0  0  0  0  0  0  0
   57.6550   25.2380   46.3770 C   0  0  0  0  0  0  0  0  0  0  0  0
   57.0220   30.2900   44.1540 C   0  0  0  0  0  0  0  0  0  0  0  0
   57.3790   31.6410   44.1630 C   0  0  0  0  0  0  0  0  0  0  0  0
   61.3440   33.7680   46.6450 C   0  0  0  0  0  0  0  0  0  0  0  0
   62.5980   33.5190   47.2120 C   0  0  0  0  0  0  0  0  0  0  0  0
   64.0473   33.3807   50.3020 H   0  0  0  0  0  0  0  0  0  0  0  0
   64.5143   32.3904   48.8779 H   0  0  0  0  0  0  0  0  0  0  0  0
   64.8151   34.1613   48.8779 H   0  0  0  0  0  0  0  0  0  0  0  0
   61.8188   34.0188   50.5031 H   0  0  0  0  0  0  0  0  0  0  0  0
   59.5784   34.4465   49.4959 H   0  0  0  0  0  0  0  0  0  0  0  0
   59.1340   31.7294   47.0942 H   0  0  0  0  0  0  0  0  0  0  0  0
   58.5002   29.3209   47.0853 H   0  0  0  0  0  0  0  0  0  0  0  0
   58.5620   27.2630   43.9150 H   0  0  0  0  0  0  0  0  0  0  0  0
   57.8589   24.8767   42.9569 H   0  0  0  0  0  0  0  0  0  0  0  0
   57.6243   22.4485   43.5960 H   0  0  0  0  0  0  0  0  0  0  0  0
   57.3270   20.7391   45.9228 H   0  0  0  0  0  0  0  0  0  0  0  0
   57.6474   26.0005   47.1698 H   0  0  0  0  0  0  0  0  0  0  0  0
   56.4216   29.8901   43.3236 H   0  0  0  0  0  0  0  0  0  0  0  0
   57.0600   32.2970   43.3396 H   0  0  0  0  0  0  0  0  0  0  0  0
   61.2137   33.6954   45.5552 H   0  0  0  0  0  0  0  0  0  0  0  0
   63.4498   33.2609   46.5656 H   0  0  0  0  0  0  0  0  0  0  0  0
  1  2  1  0
  2  3  2  0
  3  4  1  0
  4  5  2  0
  5  6  1  0
  6  7  1  0
  7  8  2  0
  7  9  2  0
  7 10  1  0
 10 11  2  0
 11 12  1  0
 12 13  2  0
 13 14  1  0
 14 15  2  0
 14 16  1  0
 16 17  1  0
 17 18  1  0
 18 19  2  0
 19 20  1  0
 20 21  2  0
 21 22  1  0
 22 23  1  0
 23 24  2  0
 24 25  1  0
 13 26  1  0
 26 27  2  0
  5 28  1  0
 28 29  2  0
 29  2  1  0
 27 10  1  0
 25 17  2  0
 24 20  1  0
  1 30  1  0
  1 31  1  0
  1 32  1  0
  3 33  1  0
  4 34  1  0
 11 35  1  0
 12 36  1  0
 16 37  1  0
 18 38  1  0
 19 39  1  0
 21 40  1  0
 25 41  1  0
 26 42  1  0
 27 43  1  0
 28 44  1  0
 29 45  1  0
M  CHG  2   6  -1  22  -1
M  END
>  <UniqueID>  (55) 
52

>  <SMILES>  (55) 
Cc1ccc([N-]S(=O)(=O)c2ccc(C(=O)Nc3ccc4c[n-]nc4c3)cc2)cc1

>  <Energy>  (55) 
95.51417318285048

>  <Genealogy>  (55) 
Cc1ccc([N-]S(=O)(=O)c2ccc(C(=O)Nc3ccc4c[n-]nc4c3)cc2)cc1 (protonated)
Cc1ccc([N-]S(=O)(=O)c2ccc(C(=O)Nc3ccc4c[n-]nc4c3)cc2)cc1 (3D coordinates assigned)
Cc1ccc([N-]S(=O)(=O)c2ccc(C(=O)Nc3ccc4c[n-]nc4c3)cc2)cc1 (optimized conformer: 95.51417318285048 kcal/mol)

>  <smiles>  (55) 
Cc1ccc(NS(=O)(=O)c2ccc(C(=O)Nc3ccc4c[nH]nc4c3)cc2)cc1

>  <score_type>  (55) 
oracle

>  <origin>  (55) 
adg

>  <m_score__min__energy>  (55) 
-11.94

>  <m_primary>  (55) 
energy

$$$$
56:0
     RDKit          3D

 37 39  0  0  0  0  0  0  0  0999 V2000
   63.3230   31.9860   47.6570 N   0  0  0  0  0  0  0  0  0  0  0  0
   62.6560   33.5690   47.4770 S   0  0  0  0  0  0  0  0  0  0  0  0
   63.5270   34.3820   46.5610 O   0  0  0  0  0  0  0  0  0  0  0  0
   62.6050   34.2440   48.8200 O   0  0  0  0  0  0  0  0  0  0  0  0
   61.0350   33.4500   46.8020 C   0  0  0  0  0  0  0  0  0  0  0  0
   60.4020   34.5930   46.2970 C   0  0  0  0  0  0  0  0  0  0  0  0
   59.1330   34.4980   45.7180 C   0  0  0  0  0  0  0  0  0  0  0  0
   58.4850   33.2550   45.6340 C   0  0  0  0  0  0  0  0  0  0  0  0
   57.1830   33.1290   44.8900 C   0  0  0  0  0  0  0  0  0  0  0  0
   56.6560   31.7740   45.0240 N   0  0  0  0  0  0  0  0  0  0  0  0
   57.0130   30.7370   44.1080 C   0  0  0  0  0  0  0  0  0  0  0  0
   56.9010   30.9400   42.8700 O   0  0  0  0  0  0  0  0  0  0  0  0
   57.5370   29.4540   44.6160 C   0  0  0  0  0  0  0  0  0  0  0  0
   58.9150   29.1950   44.6510 C   0  0  0  0  0  0  0  0  0  0  0  0
   59.3820   27.9950   45.1970 C   0  0  0  0  0  0  0  0  0  0  0  0
   60.6220   27.7740   45.2330 O   0  0  0  0  0  0  0  0  0  0  0  0
   58.4650   27.0540   45.7020 C   0  0  0  0  0  0  0  0  0  0  0  0
   58.8830   25.8360   46.2680 C   0  0  0  0  0  0  0  0  0  0  0  0
   57.9390   24.9280   46.7570 C   0  0  0  0  0  0  0  0  0  0  0  0
   56.5750   25.2220   46.6840 C   0  0  0  0  0  0  0  0  0  0  0  0
   56.1440   26.4280   46.1240 C   0  0  0  0  0  0  0  0  0  0  0  0
   54.7840   26.7060   46.0540 O   0  0  0  0  0  0  0  0  0  0  0  0
   57.0830   27.3480   45.6350 C   0  0  0  0  0  0  0  0  0  0  0  0
   56.6670   28.5280   45.1020 N   0  0  0  0  0  0  0  0  0  0  0  0
   59.1220   32.1110   46.1390 C   0  0  0  0  0  0  0  0  0  0  0  0
   60.3880   32.2090   46.7240 C   0  0  0  0  0  0  0  0  0  0  0  0
   64.2110   31.9650   47.1060 H   0  0  0  0  0  0  0  0  0  0  0  0
   60.9054   35.5693   46.3562 H   0  0  0  0  0  0  0  0  0  0  0  0
   58.6403   35.4003   45.3268 H   0  0  0  0  0  0  0  0  0  0  0  0
   56.4569   33.8441   45.3042 H   0  0  0  0  0  0  0  0  0  0  0  0
   57.3554   33.3439   43.8251 H   0  0  0  0  0  0  0  0  0  0  0  0
   59.6258   29.9329   44.2505 H   0  0  0  0  0  0  0  0  0  0  0  0
   59.9552   25.5973   46.3260 H   0  0  0  0  0  0  0  0  0  0  0  0
   58.2715   23.9781   47.2011 H   0  0  0  0  0  0  0  0  0  0  0  0
   55.8378   24.5019   47.0686 H   0  0  0  0  0  0  0  0  0  0  0  0
   58.6230   31.1329   46.0743 H   0  0  0  0  0  0  0  0  0  0  0  0
   60.8780   31.3092   47.1244 H   0  0  0  0  0  0  0  0  0  0  0  0
  1  2  1  0
  2  3  2  0
  2  4  2  0
  2  5  1  0
  5  6  2  0
  6  7  1  0
  7  8  2  0
  8  9  1  0
  9 10  1  0
 10 11  1  0
 11 12  2  0
 11 13  1  0
 13 14  2  0
 14 15  1  0
 15 16  2  0
 15 17  1  0
 17 18  2  0
 18 19  1  0
 19 20  2  0
 20 21  1  0
 21 22  1  0
 21 23  2  0
 23 24  1  0
  8 25  1  0
 25 26  2  0
 26  5  1  0
 24 13  1  0
 23 17  1  0
  1 27  1  0
  6 28  1  0
  7 29  1  0
  9 30  1  0
  9 31  1  0
 14 32  1  0
 18 33  1  0
 19 34  1  0
 20 35  1  0
 25 36  1  0
 26 37  1  0
M  CHG  4   1  -1  10  -1  22  -1  24  -1
M  END
>  <UniqueID>  (56) 
53

>  <SMILES>  (56) 
[NH-]S(=O)(=O)c1ccc(C[N-]C(=O)c2cc(=O)c3cccc([O-])c3[n-]2)cc1

>  <Energy>  (56) 
45.79597867102413

>  <Genealogy>  (56) 
[NH-]S(=O)(=O)c1ccc(C[N-]C(=O)c2cc(=O)c3cccc([O-])c3[n-]2)cc1 (protonated)
[NH-]S(=O)(=O)c1ccc(C[N-]C(=O)c2cc(=O)c3cccc([O-])c3[n-]2)cc1 (3D coordinates assigned)
[NH-]S(=O)(=O)c1ccc(C[N-]C(=O)c2cc(=O)c3cccc([O-])c3[n-]2)cc1 (optimized conformer: 45.79597867102413 kcal/mol)

>  <smiles>  (56) 
NS(=O)(=O)c1ccc(CNC(=O)c2cc(=O)c3cccc(O)c3[nH]2)cc1

>  <score_type>  (56) 
oracle

>  <origin>  (56) 
adg

>  <m_score__min__energy>  (56) 
-16.82

>  <m_primary>  (56) 
energy

$$$$
57:0
     RDKit          3D

 31 33  0  0  0  0  0  0  0  0999 V2000
   55.2420   29.4630   44.8760 O   0  0  0  0  0  0  0  0  0  0  0  0
   56.7330   29.3880   44.7020 S   0  0  0  0  0  0  0  0  0  0  0  0
   57.0210   29.4560   43.2280 O   0  0  0  0  0  0  0  0  0  0  0  0
   57.4910   30.7470   45.4750 N   0  0  0  0  0  0  0  0  0  0  0  0
   57.2700   31.9610   44.6900 C   0  0  0  0  0  0  0  0  0  0  0  0
   58.1080   33.0760   45.2400 C   0  0  0  0  0  0  0  0  0  0  0  0
   58.4850   34.2000   44.4960 C   0  0  0  0  0  0  0  0  0  0  0  0
   59.3650   35.2610   45.4850 S   0  0  0  0  0  0  0  0  0  0  0  0
   59.2520   34.2980   46.8510 C   0  0  0  0  0  0  0  0  0  0  0  0
   59.7470   34.5450   48.0870 N   0  0  0  0  0  0  0  0  0  0  0  0
   59.5300   33.6290   49.0750 C   0  0  0  0  0  0  0  0  0  0  0  0
   58.8010   32.4530   48.7980 C   0  0  0  0  0  0  0  0  0  0  0  0
   58.3130   32.2340   47.5420 N   0  0  0  0  0  0  0  0  0  0  0  0
   58.5400   33.1530   46.5690 C   0  0  0  0  0  0  0  0  0  0  0  0
   57.3860   27.8660   45.3360 C   0  0  0  0  0  0  0  0  0  0  0  0
   56.4710   26.8680   45.7130 C   0  0  0  0  0  0  0  0  0  0  0  0
   56.9180   25.6420   46.2100 C   0  0  0  0  0  0  0  0  0  0  0  0
   58.2850   25.3950   46.3320 C   0  0  0  0  0  0  0  0  0  0  0  0
   59.2080   26.3710   45.9520 C   0  0  0  0  0  0  0  0  0  0  0  0
   58.7740   27.6050   45.4510 C   0  0  0  0  0  0  0  0  0  0  0  0
   60.1340   28.8550   44.9300 Br  0  0  0  0  0  0  0  0  0  0  0  0
   57.0200   30.8670   46.4020 H   0  0  0  0  0  0  0  0  0  0  0  0
   57.5497   31.7754   43.6425 H   0  0  0  0  0  0  0  0  0  0  0  0
   56.2079   32.2420   44.7436 H   0  0  0  0  0  0  0  0  0  0  0  0
   58.2477   34.3691   43.4353 H   0  0  0  0  0  0  0  0  0  0  0  0
   59.9231   33.8073   50.0868 H   0  0  0  0  0  0  0  0  0  0  0  0
   58.6261   31.7135   49.5933 H   0  0  0  0  0  0  0  0  0  0  0  0
   55.3913   27.0547   45.6155 H   0  0  0  0  0  0  0  0  0  0  0  0
   56.1915   24.8707   46.5054 H   0  0  0  0  0  0  0  0  0  0  0  0
   58.6362   24.4307   46.7278 H   0  0  0  0  0  0  0  0  0  0  0  0
   60.2852   26.1693   46.0468 H   0  0  0  0  0  0  0  0  0  0  0  0
  1  2  2  0
  2  3  2  0
  2  4  1  0
  4  5  1  0
  5  6  1  0
  6  7  2  0
  7  8  1  0
  8  9  1  0
  9 10  2  0
 10 11  1  0
 11 12  2  0
 12 13  1  0
 13 14  2  0
  2 15  1  0
 15 16  2  0
 16 17  1  0
 17 18  2  0
 18 19  1  0
 19 20  2  0
 20 21  1  0
 14  6  1  0
 20 15  1  0
 14  9  1  0
  4 22  1  0
  5 23  1  0
  5 24  1  0
  7 25  1  0
 11 26  1  0
 12 27  1  0
 16 28  1  0
 17 29  1  0
 18 30  1  0
 19 31  1  0
M  END
>  <UniqueID>  (57) 
54

>  <SMILES>  (57) 
O=S(=O)(NCc1csc2nccnc12)c1ccccc1Br

>  <Energy>  (57) 
68.06648854560865

>  <Genealogy>  (57) 
O=S(=O)(NCc1csc2nccnc12)c1ccccc1Br (3D coordinates assigned)
O=S(=O)(NCc1csc2nccnc12)c1ccccc1Br (optimized conformer: 68.06648854560865 kcal/mol)

>  <smiles>  (57) 
O=S(=O)(NCc1csc2nccnc12)c1ccccc1Br

>  <score_type>  (57) 
oracle

>  <origin>  (57) 
adg

>  <m_score__min__energy>  (57) 
-8.25

>  <m_primary>  (57) 
energy

$$$$
58:0
     RDKit          3D

 45 47  0  0  0  0  0  0  0  0999 V2000
   55.1650   26.7300   45.9810 O   0  0  0  0  0  0  0  0  0  0  0  0
   55.9970   25.8820   46.4070 C   0  0  0  0  0  0  0  0  0  0  0  0
   55.5610   24.5650   46.7640 N   0  0  0  0  0  0  0  0  0  0  0  0
   56.4040   23.5980   47.4590 C   0  0  0  0  0  0  0  0  0  0  0  0
   57.6080   23.2040   46.5980 C   0  0  0  0  0  0  0  0  0  0  0  0
   57.1760   22.7890   45.2160 C   0  0  0  0  0  0  0  0  0  0  0  0
   57.0540   21.4280   44.8830 C   0  0  0  0  0  0  0  0  0  0  0  0
   56.6920   21.0520   43.5870 C   0  0  0  0  0  0  0  0  0  0  0  0
   56.4540   22.0270   42.6130 C   0  0  0  0  0  0  0  0  0  0  0  0
   56.5840   23.3810   42.9330 C   0  0  0  0  0  0  0  0  0  0  0  0
   56.9460   23.7620   44.2290 C   0  0  0  0  0  0  0  0  0  0  0  0
   57.4190   26.2360   46.5230 C   0  0  0  0  0  0  0  0  0  0  0  0
   58.0530   25.9040   47.5620 O   0  0  0  0  0  0  0  0  0  0  0  0
   58.0850   26.9420   45.4650 N   0  0  0  0  0  0  0  0  0  0  0  0
   59.4870   27.3520   45.5440 C   0  0  0  0  0  0  0  0  0  0  0  0
   59.6740   28.4460   46.5940 C   0  0  0  0  0  0  0  0  0  0  0  0
   59.0860   29.7470   46.1390 C   0  0  0  0  0  0  0  0  0  0  0  0
   57.8960   29.7630   45.4840 N   0  0  0  0  0  0  0  0  0  0  0  0
   57.3240   30.9280   45.0820 C   0  0  0  0  0  0  0  0  0  0  0  0
   56.2190   30.8970   44.4780 O   0  0  0  0  0  0  0  0  0  0  0  0
   57.9670   32.1470   45.3500 C   0  0  0  0  0  0  0  0  0  0  0  0
   57.4330   33.3860   44.9550 C   0  0  0  0  0  0  0  0  0  0  0  0
   58.1090   34.5710   45.2680 C   0  0  0  0  0  0  0  0  0  0  0  0
   59.3210   34.5270   45.9620 C   0  0  0  0  0  0  0  0  0  0  0  0
   59.8640   33.2990   46.3510 C   0  0  0  0  0  0  0  0  0  0  0  0
   59.1930   32.1090   46.0470 C   0  0  0  0  0  0  0  0  0  0  0  0
   59.7200   30.9140   46.4230 N   0  0  0  0  0  0  0  0  0  0  0  0
   56.7634   24.0432   48.3985 H   0  0  0  0  0  0  0  0  0  0  0  0
   55.8085   22.6962   47.6642 H   0  0  0  0  0  0  0  0  0  0  0  0
   58.2889   24.0642   46.5180 H   0  0  0  0  0  0  0  0  0  0  0  0
   58.1142   22.3521   47.0755 H   0  0  0  0  0  0  0  0  0  0  0  0
   57.2441   20.6576   45.6448 H   0  0  0  0  0  0  0  0  0  0  0  0
   56.5939   19.9864   43.3321 H   0  0  0  0  0  0  0  0  0  0  0  0
   56.1644   21.7279   41.5948 H   0  0  0  0  0  0  0  0  0  0  0  0
   56.4016   24.1474   42.1653 H   0  0  0  0  0  0  0  0  0  0  0  0
   57.0511   24.8286   44.4768 H   0  0  0  0  0  0  0  0  0  0  0  0
   57.5410   27.2330   44.6210 H   0  0  0  0  0  0  0  0  0  0  0  0
   60.1024   26.4819   45.8163 H   0  0  0  0  0  0  0  0  0  0  0  0
   59.7945   27.7471   44.5645 H   0  0  0  0  0  0  0  0  0  0  0  0
   59.1787   28.1359   47.5260 H   0  0  0  0  0  0  0  0  0  0  0  0
   60.7525   28.5909   46.7545 H   0  0  0  0  0  0  0  0  0  0  0  0
   56.4840   33.4242   44.4000 H   0  0  0  0  0  0  0  0  0  0  0  0
   57.6847   35.5401   44.9667 H   0  0  0  0  0  0  0  0  0  0  0  0
   59.8493   35.4613   46.2029 H   0  0  0  0  0  0  0  0  0  0  0  0
   60.8189   33.2680   46.8962 H   0  0  0  0  0  0  0  0  0  0  0  0
  1  2  2  0
  2  3  1  0
  3  4  1  0
  4  5  1  0
  5  6  1  0
  6  7  2  0
  7  8  1  0
  8  9  2  0
  9 10  1  0
 10 11  2  0
  2 12  1  0
 12 13  2  0
 12 14  1  0
 14 15  1  0
 15 16  1  0
 16 17  1  0
 17 18  2  0
 18 19  1  0
 19 20  2  0
 19 21  1  0
 21 22  2  0
 22 23  1  0
 23 24  2  0
 24 25  1  0
 25 26  2  0
 26 27  1  0
 11  6  1  0
 27 17  1  0
 26 21  1  0
  4 28  1  0
  4 29  1  0
  5 30  1  0
  5 31  1  0
  7 32  1  0
  8 33  1  0
  9 34  1  0
 10 35  1  0
 11 36  1  0
 14 37  1  0
 15 38  1  0
 15 39  1  0
 16 40  1  0
 16 41  1  0
 22 42  1  0
 23 43  1  0
 24 44  1  0
 25 45  1  0
M  CHG  2   3  -1  27  -1
M  END
>  <UniqueID>  (58) 
55

>  <SMILES>  (58) 
O=C([N-]CCc1ccccc1)C(=O)NCCc1nc(=O)c2ccccc2[n-]1

>  <Energy>  (58) 
39.1038373810576

>  <Genealogy>  (58) 
O=C([N-]CCc1ccccc1)C(=O)NCCc1nc(=O)c2ccccc2[n-]1 (protonated)
O=C([N-]CCc1ccccc1)C(=O)NCCc1nc(=O)c2ccccc2[n-]1 (3D coordinates assigned)
O=C([N-]CCc1ccccc1)C(=O)NCCc1nc(=O)c2ccccc2[n-]1 (optimized conformer: 39.1038373810576 kcal/mol)

>  <smiles>  (58) 
O=C(NCCc1ccccc1)C(=O)NCCc1nc(=O)c2ccccc2[nH]1

>  <score_type>  (58) 
oracle

>  <origin>  (58) 
adg

>  <m_score__min__energy>  (58) 
-12.09

>  <m_primary>  (58) 
energy

$$$$
59:0
     RDKit          3D

 39 41  0  0  0  0  0  0  0  0999 V2000
   60.4501   28.7150   48.7220 H   0  0  0  0  0  0  0  0  0  0  0  0
   59.7010   28.2620   48.0560 C   0  0  0  0  0  0  0  0  0  0  0  0
   58.8490   29.0530   47.3570 N   0  0  0  0  0  0  0  0  0  0  0  0
   57.9190   28.5440   46.4980 C   0  0  0  0  0  0  0  0  0  0  0  0
   57.0670   29.3270   45.9000 N   0  0  0  0  0  0  0  0  0  0  0  0
   57.3400   30.3410   44.9200 C   0  0  0  0  0  0  0  0  0  0  0  0
   57.0380   30.1640   43.5570 C   0  0  0  0  0  0  0  0  0  0  0  0
   56.6190   29.2089   43.2074 H   0  0  0  0  0  0  0  0  0  0  0  0
   57.2690   31.1980   42.6470 C   0  0  0  0  0  0  0  0  0  0  0  0
   57.0540   31.0462   41.5790 H   0  0  0  0  0  0  0  0  0  0  0  0
   57.7720   32.4240   43.0880 C   0  0  0  0  0  0  0  0  0  0  0  0
   57.9760   33.2248   42.3619 H   0  0  0  0  0  0  0  0  0  0  0  0
   58.0190   32.6400   44.4550 C   0  0  0  0  0  0  0  0  0  0  0  0
   58.5790   33.9550   44.9360 C   0  0  0  0  0  0  0  0  0  0  0  0
   59.6630   34.3020   44.1520 F   0  0  0  0  0  0  0  0  0  0  0  0
   58.9900   33.8530   46.2540 F   0  0  0  0  0  0  0  0  0  0  0  0
   57.6260   34.9550   44.8560 F   0  0  0  0  0  0  0  0  0  0  0  0
   57.8140   31.5830   45.3590 C   0  0  0  0  0  0  0  0  0  0  0  0
   58.0292   31.7341   46.4271 H   0  0  0  0  0  0  0  0  0  0  0  0
   57.8360   27.1430   46.3210 C   0  0  0  0  0  0  0  0  0  0  0  0
   56.8830   26.5280   45.4400 N   0  0  0  0  0  0  0  0  0  0  0  0
   55.7550   25.7490   45.8500 C   0  0  0  0  0  0  0  0  0  0  0  0
   54.6360   26.3100   45.9900 O   0  0  0  0  0  0  0  0  0  0  0  0
   55.9130   24.3640   46.1830 N   0  0  0  0  0  0  0  0  0  0  0  0
   56.6250   23.3900   45.4080 C   0  0  0  0  0  0  0  0  0  0  0  0
   57.9650   23.1320   45.7280 C   0  0  0  0  0  0  0  0  0  0  0  0
   58.4321   23.6472   46.5803 H   0  0  0  0  0  0  0  0  0  0  0  0
   58.7120   22.2240   44.9710 C   0  0  0  0  0  0  0  0  0  0  0  0
   59.7588   22.0169   45.2379 H   0  0  0  0  0  0  0  0  0  0  0  0
   58.1310   21.5800   43.8770 C   0  0  0  0  0  0  0  0  0  0  0  0
   58.7171   20.8599   43.2871 H   0  0  0  0  0  0  0  0  0  0  0  0
   56.8040   21.8510   43.5320 C   0  0  0  0  0  0  0  0  0  0  0  0
   56.3506   21.3508   42.6635 H   0  0  0  0  0  0  0  0  0  0  0  0
   56.0500   22.7560   44.2870 C   0  0  0  0  0  0  0  0  0  0  0  0
   54.7890   23.0500   43.8830 F   0  0  0  0  0  0  0  0  0  0  0  0
   58.6850   26.3180   47.0680 C   0  0  0  0  0  0  0  0  0  0  0  0
   58.6079   25.2248   46.9737 H   0  0  0  0  0  0  0  0  0  0  0  0
   59.6280   26.8750   47.9310 C   0  0  0  0  0  0  0  0  0  0  0  0
   60.3064   26.2280   48.5065 H   0  0  0  0  0  0  0  0  0  0  0  0
  1  2  1  0
  2  3  1  0
  3  4  1  0
  4  5  2  0
  5  6  1  0
  6  7  2  0
  7  8  1  0
  7  9  1  0
  9 10  1  0
  9 11  2  0
 11 12  1  0
 11 13  1  0
 13 14  1  0
 14 15  1  0
 14 16  1  0
 14 17  1  0
 13 18  2  0
 18 19  1  0
  4 20  1  0
 20 21  1  0
 21 22  1  0
 22 23  2  0
 22 24  1  0
 24 25  1  0
 25 26  2  0
 26 27  1  0
 26 28  1  0
 28 29  1  0
 28 30  2  0
 30 31  1  0
 30 32  1  0
 32 33  1  0
 32 34  2  0
 34 35  1  0
 20 36  2  0
 36 37  1  0
 36 38  1  0
 38 39  1  0
 38  2  2  0
 18  6  1  0
 34 25  1  0
M  CHG  3   3  -1  21  -1  24  -1
M  END
>  <UniqueID>  (59) 
56

>  <SMILES>  (59) 
O=C([N-]c1ccccc1F)[N-]c1ccc[n-]/c1=N\c1cccc(C(F)(F)F)c1

>  <Energy>  (59) 
58.31971826093276

>  <Genealogy>  (59) 
O=C([N-]c1ccccc1F)[N-]c1ccc[n-]c1=Nc1cccc(C(F)(F)F)c1 (protonated)
O=C([N-]c1ccccc1F)[N-]c1ccc[n-]/c1=N\c1cccc(C(F)(F)F)c1 (cis-trans isomerization)
O=C([N-]c1ccccc1F)[N-]c1ccc[n-]/c1=N\c1cccc(C(F)(F)F)c1 (3D coordinates assigned)
O=C([N-]c1ccccc1F)[N-]c1ccc[n-]/c1=N\c1cccc(C(F)(F)F)c1 (optimized conformer: 58.31971826093276 kcal/mol)

>  <smiles>  (59) 
O=C(Nc1ccccc1F)Nc1ccc[nH]c1=Nc1cccc(C(F)(F)F)c1

>  <score_type>  (59) 
oracle

>  <origin>  (59) 
adg

>  <m_score__min__energy>  (59) 
-13

>  <m_primary>  (59) 
energy

$$$$
60:0
     RDKit          3D

 49 50  0  0  0  0  0  0  0  0999 V2000
   57.4090   31.6300   43.3110 C   0  0  0  0  0  0  0  0  0  0  0  0
   56.4860   31.2360   44.3670 N   0  0  0  0  0  0  0  0  0  0  0  0
   56.2950   29.8970   44.8470 C   0  0  0  0  0  0  0  0  0  0  0  0
   55.1810   29.3410   44.6570 O   0  0  0  0  0  0  0  0  0  0  0  0
   57.3530   29.1550   45.5670 C   0  0  0  0  0  0  0  0  0  0  0  0
   58.6180   29.7450   45.7310 C   0  0  0  0  0  0  0  0  0  0  0  0
   59.6800   29.0270   46.3020 C   0  0  0  0  0  0  0  0  0  0  0  0
   61.0470   29.6480   46.4150 C   0  0  0  0  0  0  0  0  0  0  0  0
   61.0240   30.7830   47.3360 N   0  0  0  0  0  0  0  0  0  0  0  0
   62.2000   31.5470   47.6490 C   0  0  0  0  0  0  0  0  0  0  0  0
   63.2930   31.2840   47.0790 O   0  0  0  0  0  0  0  0  0  0  0  0
   62.1470   32.7170   48.5470 C   0  0  0  0  0  0  0  0  0  0  0  0
   61.1760   33.6420   48.5780 C   0  0  0  0  0  0  0  0  0  0  0  0
   60.0720   33.7800   47.6020 C   0  0  0  0  0  0  0  0  0  0  0  0
   60.2660   34.5860   46.4710 C   0  0  0  0  0  0  0  0  0  0  0  0
   59.2230   34.8040   45.5670 C   0  0  0  0  0  0  0  0  0  0  0  0
   57.9650   34.2270   45.7880 C   0  0  0  0  0  0  0  0  0  0  0  0
   56.8350   34.5330   44.8510 C   0  0  0  0  0  0  0  0  0  0  0  0
   57.7590   33.4400   46.9320 C   0  0  0  0  0  0  0  0  0  0  0  0
   58.8020   33.2230   47.8370 C   0  0  0  0  0  0  0  0  0  0  0  0
   59.4680   27.7070   46.7210 C   0  0  0  0  0  0  0  0  0  0  0  0
   58.2200   27.1070   46.5500 C   0  0  0  0  0  0  0  0  0  0  0  0
   57.1600   27.8150   45.9750 C   0  0  0  0  0  0  0  0  0  0  0  0
   55.9170   27.1340   45.7750 N   0  0  0  0  0  0  0  0  0  0  0  0
   55.7450   25.4140   45.8980 S   0  0  0  0  0  0  0  0  0  0  0  0
   56.7060   24.6100   44.6390 C   0  0  0  0  0  0  0  0  0  0  0  0
   54.3010   25.0560   45.6970 O   0  0  0  0  0  0  0  0  0  0  0  0
   56.1910   24.9440   47.2520 O   0  0  0  0  0  0  0  0  0  0  0  0
   58.3327   32.0243   43.7597 H   0  0  0  0  0  0  0  0  0  0  0  0
   57.6482   30.7556   42.6880 H   0  0  0  0  0  0  0  0  0  0  0  0
   56.9430   32.4076   42.6880 H   0  0  0  0  0  0  0  0  0  0  0  0
   58.7779   30.7841   45.4073 H   0  0  0  0  0  0  0  0  0  0  0  0
   61.7563   28.8945   46.7881 H   0  0  0  0  0  0  0  0  0  0  0  0
   61.3568   30.0047   45.4216 H   0  0  0  0  0  0  0  0  0  0  0  0
   60.0960   31.0870   47.7070 H   0  0  0  0  0  0  0  0  0  0  0  0
   62.9794   32.8419   49.2552 H   0  0  0  0  0  0  0  0  0  0  0  0
   61.2028   34.3655   49.4061 H   0  0  0  0  0  0  0  0  0  0  0  0
   61.2473   35.0505   46.2940 H   0  0  0  0  0  0  0  0  0  0  0  0
   59.3899   35.4308   44.6786 H   0  0  0  0  0  0  0  0  0  0  0  0
   55.9332   34.7772   45.4316 H   0  0  0  0  0  0  0  0  0  0  0  0
   57.1062   35.3901   44.2170 H   0  0  0  0  0  0  0  0  0  0  0  0
   56.6367   33.6562   44.2170 H   0  0  0  0  0  0  0  0  0  0  0  0
   56.7717   32.9917   47.1172 H   0  0  0  0  0  0  0  0  0  0  0  0
   58.6288   32.6142   48.7366 H   0  0  0  0  0  0  0  0  0  0  0  0
   60.2886   27.1415   47.1866 H   0  0  0  0  0  0  0  0  0  0  0  0
   58.0683   26.0659   46.8709 H   0  0  0  0  0  0  0  0  0  0  0  0
   57.4682   23.9723   45.1107 H   0  0  0  0  0  0  0  0  0  0  0  0
   56.0462   23.9910   44.0133 H   0  0  0  0  0  0  0  0  0  0  0  0
   57.1988   25.3687   44.0133 H   0  0  0  0  0  0  0  0  0  0  0  0
  1  2  1  0
  2  3  1  0
  3  4  2  0
  3  5  1  0
  5  6  2  0
  6  7  1  0
  7  8  1  0
  8  9  1  0
  9 10  1  0
 10 11  2  0
 10 12  1  0
 12 13  2  3
 13 14  1  0
 14 15  2  0
 15 16  1  0
 16 17  2  0
 17 18  1  0
 17 19  1  0
 19 20  2  0
  7 21  2  0
 21 22  1  0
 22 23  2  0
 23 24  1  0
 24 25  1  0
 25 26  1  0
 25 27  2  0
 25 28  2  0
 23  5  1  0
 20 14  1  0
  1 29  1  0
  1 30  1  0
  1 31  1  0
  6 32  1  0
  8 33  1  0
  8 34  1  0
  9 35  1  0
 12 36  1  0
 13 37  1  0
 15 38  1  0
 16 39  1  0
 18 40  1  0
 18 41  1  0
 18 42  1  0
 19 43  1  0
 20 44  1  0
 21 45  1  0
 22 46  1  0
 26 47  1  0
 26 48  1  0
 26 49  1  0
M  CHG  2   2  -1  24  -1
M  END
>  <UniqueID>  (60) 
57

>  <SMILES>  (60) 
C[N-]C(=O)c1cc(CNC(=O)C=Cc2ccc(C)cc2)ccc1[N-]S(C)(=O)=O

>  <Energy>  (60) 
59.2816306950159

>  <Genealogy>  (60) 
C[N-]C(=O)c1cc(CNC(=O)C=Cc2ccc(C)cc2)ccc1[N-]S(C)(=O)=O (protonated)
C[N-]C(=O)c1cc(CNC(=O)C=Cc2ccc(C)cc2)ccc1[N-]S(C)(=O)=O (3D coordinates assigned)
C[N-]C(=O)c1cc(CNC(=O)C=Cc2ccc(C)cc2)ccc1[N-]S(C)(=O)=O (optimized conformer: 59.2816306950159 kcal/mol)

>  <smiles>  (60) 
CNC(=O)c1cc(CNC(=O)C=Cc2ccc(C)cc2)ccc1NS(C)(=O)=O

>  <score_type>  (60) 
oracle

>  <origin>  (60) 
adg

>  <m_score__min__energy>  (60) 
-12.85

>  <m_primary>  (60) 
energy

$$$$
61:0
     RDKit          3D

 22 23  0  0  0  0  0  0  0  0999 V2000
   58.8170   27.9440   47.6130 O   0  0  0  0  0  0  0  0  0  0  0  0
   58.2710   28.1070   46.4890 C   0  0  0  0  0  0  0  0  0  0  0  0
   57.8130   29.4170   46.1280 N   0  0  0  0  0  0  0  0  0  0  0  0
   57.3650   29.7770   44.9610 C   0  0  0  0  0  0  0  0  0  0  0  0
   56.6030   28.9670   44.1960 N   0  0  0  0  0  0  0  0  0  0  0  0
   56.2090   29.5650   43.0410 C   0  0  0  0  0  0  0  0  0  0  0  0
   56.6500   30.8740   42.8800 C   0  0  0  0  0  0  0  0  0  0  0  0
   57.5620   31.2890   44.2360 S   0  0  0  0  0  0  0  0  0  0  0  0
   58.0220   26.9320   45.6260 C   0  0  0  0  0  0  0  0  0  0  0  0
   58.4100   26.9610   44.4270 O   0  0  0  0  0  0  0  0  0  0  0  0
   57.2860   25.7450   46.1240 C   0  0  0  0  0  0  0  0  0  0  0  0
   55.8860   25.7620   46.2790 C   0  0  0  0  0  0  0  0  0  0  0  0
   55.1490   26.9050   45.9900 O   0  0  0  0  0  0  0  0  0  0  0  0
   55.2400   24.6600   46.7410 N   0  0  0  0  0  0  0  0  0  0  0  0
   55.9200   23.5330   47.0700 C   0  0  0  0  0  0  0  0  0  0  0  0
   55.1140   22.2270   47.6240 S   0  0  0  0  0  0  0  0  0  0  0  0
   57.2710   23.4950   46.9460 N   0  0  0  0  0  0  0  0  0  0  0  0
   57.9670   24.5670   46.4870 C   0  0  0  0  0  0  0  0  0  0  0  0
   59.2190   24.4850   46.3790 O   0  0  0  0  0  0  0  0  0  0  0  0
   56.3410   27.9900   44.4590 H   0  0  0  0  0  0  0  0  0  0  0  0
   55.5887   29.0528   42.2908 H   0  0  0  0  0  0  0  0  0  0  0  0
   56.4404   31.5250   42.0184 H   0  0  0  0  0  0  0  0  0  0  0  0
  1  2  2  0
  2  3  1  0
  3  4  2  3
  4  5  1  0
  5  6  1  0
  6  7  2  0
  7  8  1  0
  2  9  1  0
  9 10  2  0
  9 11  1  0
 11 12  2  0
 12 13  1  0
 12 14  1  0
 14 15  1  0
 15 16  2  0
 15 17  1  0
 17 18  1  0
 18 19  2  0
  8  4  1  0
 18 11  1  0
  5 20  1  0
  6 21  1  0
  7 22  1  0
M  CHG  3  13  -1  14  -1  17  -1
M  END
>  <UniqueID>  (61) 
58

>  <SMILES>  (61) 
O=C(N=c1[nH]ccs1)C(=O)c1c([O-])[n-]c(=S)[n-]c1=O

>  <Energy>  (61) 
67.01948665868886

>  <Genealogy>  (61) 
O=C(N=c1[nH]ccs1)C(=O)c1c([O-])[n-]c(=S)[n-]c1=O (protonated)
O=C(N=c1[nH]ccs1)C(=O)c1c([O-])[n-]c(=S)[n-]c1=O (3D coordinates assigned)
O=C(N=c1[nH]ccs1)C(=O)c1c([O-])[n-]c(=S)[n-]c1=O (optimized conformer: 67.01948665868886 kcal/mol)

>  <smiles>  (61) 
O=C(N=c1[nH]ccs1)C(=O)c1c(O)[nH]c(=S)[nH]c1=O

>  <score_type>  (61) 
oracle

>  <origin>  (61) 
adg

>  <m_score__min__energy>  (61) 
-13.73

>  <m_primary>  (61) 
energy

$$$$
62:0
     RDKit          3D

 53 56  0  0  1  0  0  0  0  0999 V2000
   57.0420   21.0870   42.9480 C   0  0  0  0  0  0  0  0  0  0  0  0
   56.8830   22.2710   43.8410 C   0  0  0  0  0  0  0  0  0  0  0  0
   56.5260   23.5100   43.3670 C   0  0  0  0  0  0  0  0  0  0  0  0
   56.4840   24.3180   44.4450 N   0  0  0  0  0  0  0  0  0  0  0  0
   56.8040   23.6110   45.5660 C   0  0  0  0  0  0  0  0  0  0  0  0
   56.8440   24.2450   46.9020 C   0  0  0  0  0  0  0  0  0  0  0  0
   57.5050   25.5190   46.8620 N   0  0  0  0  0  0  0  0  0  0  0  0
   56.9420   26.7300   46.3960 C   0  0  0  0  0  0  0  0  0  0  0  0
   55.7680   26.7420   45.9560 O   0  0  0  0  0  0  0  0  0  0  0  0
   57.6630   28.0060   46.3920 C   0  0  0  0  0  0  0  0  0  0  0  0
   58.9620   28.1270   46.8410 C   0  0  0  0  0  0  0  0  0  0  0  0
   59.3250   29.4720   46.6630 C   0  0  0  0  0  0  0  0  0  0  0  0
   60.4770   29.8920   46.9970 N   0  0  0  0  0  0  0  0  0  0  0  0
   60.6410   30.9730   47.8750 C   0  0  0  0  0  0  0  0  0  0  0  0
   59.7660   31.1320   48.7930 O   0  0  0  0  0  0  0  0  0  0  0  0
   61.7280   31.9390   47.8290 C   0  0  0  0  0  0  0  0  0  0  0  0
   61.7530   32.8420   46.7790 C   0  0  0  0  0  0  0  0  0  0  0  0
   62.7530   33.7840   46.6640 C   0  0  0  0  0  0  0  0  0  0  0  0
   63.7720   33.8550   47.6080 C   0  0  0  0  0  0  0  0  0  0  0  0
   63.7530   32.9550   48.6610 C   0  0  0  0  0  0  0  0  0  0  0  0
   64.8480   33.0370   49.6730 C   0  0  0  0  0  0  0  0  0  0  0  0
   62.7330   32.0060   48.7630 C   0  0  0  0  0  0  0  0  0  0  0  0
   62.7440   30.8860   50.1010 Cl  0  0  0  0  0  0  0  0  0  0  0  0
   58.2880   30.1000   46.1340 N   0  0  0  0  0  0  0  0  0  0  0  0
   58.1480   31.4490   45.7420 C   0  0  0  0  0  0  0  0  0  0  0  0
   58.1410   31.8280   44.3950 C   0  0  0  0  0  0  0  0  0  0  0  0
   57.9820   33.1290   43.9870 C   0  0  0  0  0  0  0  0  0  0  0  0
   57.8170   34.1630   44.9020 C   0  0  0  0  0  0  0  0  0  0  0  0
   57.8220   33.8040   46.2340 C   0  0  0  0  0  0  0  0  0  0  0  0
   57.9820   32.5000   46.6560 C   0  0  0  0  0  0  0  0  0  0  0  0
   57.3000   29.2100   45.9800 N   0  0  0  0  0  0  0  0  0  0  0  0
   57.0480   22.3520   45.1800 N   0  0  0  0  0  0  0  0  0  0  0  0
   57.1637   20.1805   43.5591 H   0  0  0  0  0  0  0  0  0  0  0  0
   56.1496   20.9841   42.3131 H   0  0  0  0  0  0  0  0  0  0  0  0
   57.9299   21.2232   42.3131 H   0  0  0  0  0  0  0  0  0  0  0  0
   56.3174   23.7858   42.3228 H   0  0  0  0  0  0  0  0  0  0  0  0
   56.2240   25.3280   44.3630 H   0  0  0  0  0  0  0  0  0  0  0  0
   55.8139   24.3882   47.2603 H   0  0  0  0  0  0  0  0  0  0  0  0
   57.4070   23.5860   47.5793 H   0  0  0  0  0  0  0  0  0  0  0  0
   58.5080   25.5960   47.2090 H   0  0  0  0  0  0  0  0  0  0  0  0
   59.5908   27.3261   47.2572 H   0  0  0  0  0  0  0  0  0  0  0  0
   60.9574   32.8067   46.0202 H   0  0  0  0  0  0  0  0  0  0  0  0
   62.7449   34.4863   45.8174 H   0  0  0  0  0  0  0  0  0  0  0  0
   64.5714   34.6055   47.5208 H   0  0  0  0  0  0  0  0  0  0  0  0
   64.4160   33.0046   50.6841 H   0  0  0  0  0  0  0  0  0  0  0  0
   65.5344   32.1877   49.5402 H   0  0  0  0  0  0  0  0  0  0  0  0
   65.4002   33.9790   49.5402 H   0  0  0  0  0  0  0  0  0  0  0  0
   58.2686   31.0488   43.6291 H   0  0  0  0  0  0  0  0  0  0  0  0
   57.9852   33.3589   42.9113 H   0  0  0  0  0  0  0  0  0  0  0  0
   57.6897   35.2077   44.5820 H   0  0  0  0  0  0  0  0  0  0  0  0
   57.6929   34.5907   46.9919 H   0  0  0  0  0  0  0  0  0  0  0  0
   57.9793   32.2797   47.7337 H   0  0  0  0  0  0  0  0  0  0  0  0
   56.3450   29.4160   45.5790 H   0  0  0  0  0  0  0  0  0  0  0  0
  1  2  1  0
  2  3  2  0
  3  4  1  0
  4  5  1  0
  5  6  1  0
  6  7  1  0
  7  8  1  0
  8  9  2  0
  8 10  1  0
 10 11  2  0
 11 12  1  0
 12 13  2  0
 13 14  1  0
 14 15  2  0
 14 16  1  0
 16 17  2  0
 17 18  1  0
 18 19  2  0
 19 20  1  0
 20 21  1  0
 20 22  2  0
 22 23  1  0
 12 24  1  0
 24 25  1  0
 25 26  2  0
 26 27  1  0
 27 28  2  0
 28 29  1  0
 29 30  2  0
 24 31  1  0
  5 32  2  0
 32  2  1  0
 31 10  1  0
 22 16  1  0
 30 25  1  0
  1 33  1  0
  1 34  1  0
  1 35  1  0
  3 36  1  0
  4 37  1  0
  6 38  1  0
  6 39  1  0
  7 40  1  0
 11 41  1  0
 17 42  1  0
 18 43  1  0
 19 44  1  0
 21 45  1  0
 21 46  1  0
 21 47  1  0
 26 48  1  0
 27 49  1  0
 28 50  1  0
 29 51  1  0
 30 52  1  0
 31 53  1  0
M  END
>  <smiles>  (62) 
Cc1c[nH]c(CNC(=O)c2cc(=NC(=O)c3cccc(C)c3Cl)n(-c3ccccc3)[nH]2)n1

>  <score_type>  (62) 
oracle

>  <origin>  (62) 
adg

>  <m_score__min__energy>  (62) 
-9.0800000000000001

>  <m_primary>  (62) 
energy

$$$$
63:0
     RDKit          3D

 66 69  0  0  0  0  0  0  0  0999 V2000
   50.0310   31.4090   53.7520 C   0  0  0  0  0  0  0  0  0  0  0  0
   51.0040   31.6580   52.6370 C   0  0  0  0  0  0  0  0  0  0  0  0
   50.6320   32.3520   51.6530 O   0  0  0  0  0  0  0  0  0  0  0  0
   52.3750   31.0830   52.6550 C   0  0  0  0  0  0  0  0  0  0  0  0
   53.2510   31.3220   51.5810 C   0  0  0  0  0  0  0  0  0  0  0  0
   54.5440   30.7980   51.5870 C   0  0  0  0  0  0  0  0  0  0  0  0
   54.9950   30.0170   52.6650 C   0  0  0  0  0  0  0  0  0  0  0  0
   56.3840   29.5000   52.6930 C   0  0  0  0  0  0  0  0  0  0  0  0
   56.7920   28.8420   53.6910 O   0  0  0  0  0  0  0  0  0  0  0  0
   57.2730   29.7780   51.6030 N   0  0  0  0  0  0  0  0  0  0  0  0
   58.0190   30.9870   51.3930 C   0  0  0  0  0  0  0  0  0  0  0  0
   57.7220   32.1050   52.1810 C   0  0  0  0  0  0  0  0  0  0  0  0
   58.3900   33.3160   51.9760 C   0  0  0  0  0  0  0  0  0  0  0  0
   59.3510   33.4240   50.9680 C   0  0  0  0  0  0  0  0  0  0  0  0
   59.6530   32.3160   50.1590 C   0  0  0  0  0  0  0  0  0  0  0  0
   60.6080   32.4650   49.0030 C   0  0  0  0  0  0  0  0  0  0  0  0
   59.9230   33.0850   47.8620 N   0  0  0  0  0  0  0  0  0  0  0  0
   59.6080   34.5190   47.9120 C   0  0  0  0  0  0  0  0  0  0  0  0
   59.5250   35.1410   46.5070 C   0  0  0  0  0  0  0  0  0  0  0  0
   58.9140   34.2230   45.4180 C   0  0  0  0  0  0  0  0  0  0  0  0
   58.2450   32.9550   45.9780 C   0  0  1  0  0  0  0  0  0  0  0  0
   57.7710   32.0290   44.8750 C   0  0  0  0  0  0  0  0  0  0  0  0
   58.3480   32.0480   43.7580 O   0  0  0  0  0  0  0  0  0  0  0  0
   56.7210   31.0770   45.0830 N   0  0  0  0  0  0  0  0  0  0  0  0
   56.2920   29.8080   43.9830 S   0  0  0  0  0  0  0  0  0  0  0  0
   55.1460   29.0140   44.5430 O   0  0  0  0  0  0  0  0  0  0  0  0
   55.9050   30.3980   42.6580 O   0  0  0  0  0  0  0  0  0  0  0  0
   57.6980   28.7250   43.7770 C   0  0  0  0  0  0  0  0  0  0  0  0
   58.3690   28.4690   45.1000 C   0  0  0  0  0  0  0  0  0  0  0  0
   57.6020   28.1590   46.2330 C   0  0  0  0  0  0  0  0  0  0  0  0
   58.2200   27.8940   47.4580 C   0  0  0  0  0  0  0  0  0  0  0  0
   59.6130   27.9430   47.5630 C   0  0  0  0  0  0  0  0  0  0  0  0
   60.3880   28.2460   46.4400 C   0  0  0  0  0  0  0  0  0  0  0  0
   59.7700   28.5030   45.2100 C   0  0  0  0  0  0  0  0  0  0  0  0
   59.2140   32.2780   46.9060 C   0  0  0  0  0  0  0  0  0  0  0  0
   59.3820   31.0290   46.8690 O   0  0  0  0  0  0  0  0  0  0  0  0
   58.9780   31.1000   50.3690 C   0  0  0  0  0  0  0  0  0  0  0  0
   54.1130   29.7570   53.7270 C   0  0  0  0  0  0  0  0  0  0  0  0
   52.8190   30.2900   53.7280 C   0  0  0  0  0  0  0  0  0  0  0  0
   50.5398   31.5392   54.7185 H   0  0  0  0  0  0  0  0  0  0  0  0
   49.1973   32.1227   53.6774 H   0  0  0  0  0  0  0  0  0  0  0  0
   49.6427   30.3825   53.6774 H   0  0  0  0  0  0  0  0  0  0  0  0
   52.9133   31.9283   50.7276 H   0  0  0  0  0  0  0  0  0  0  0  0
   55.2168   30.9980   50.7401 H   0  0  0  0  0  0  0  0  0  0  0  0
   56.9569   32.0303   52.9678 H   0  0  0  0  0  0  0  0  0  0  0  0
   58.1585   34.1850   52.6094 H   0  0  0  0  0  0  0  0  0  0  0  0
   59.8726   34.3791   50.8073 H   0  0  0  0  0  0  0  0  0  0  0  0
   61.4535   33.0989   49.3085 H   0  0  0  0  0  0  0  0  0  0  0  0
   60.9745   31.4709   48.7072 H   0  0  0  0  0  0  0  0  0  0  0  0
   58.6400   34.6524   48.4171 H   0  0  0  0  0  0  0  0  0  0  0  0
   60.4163   35.0252   48.4601 H   0  0  0  0  0  0  0  0  0  0  0  0
   58.9085   36.0497   46.5722 H   0  0  0  0  0  0  0  0  0  0  0  0
   60.5619   35.3373   46.1965 H   0  0  0  0  0  0  0  0  0  0  0  0
   58.1577   34.7983   44.8639 H   0  0  0  0  0  0  0  0  0  0  0  0
   59.7437   33.8908   44.7766 H   0  0  0  0  0  0  0  0  0  0  0  0
   57.3401   33.2352   46.5372 H   0  0  0  0  0  0  0  0  0  0  0  0
   57.3583   27.7685   43.3530 H   0  0  0  0  0  0  0  0  0  0  0  0
   58.4199   29.2064   43.1009 H   0  0  0  0  0  0  0  0  0  0  0  0
   56.5052   28.1242   46.1565 H   0  0  0  0  0  0  0  0  0  0  0  0
   57.6103   27.6469   48.3396 H   0  0  0  0  0  0  0  0  0  0  0  0
   60.0992   27.7431   48.5293 H   0  0  0  0  0  0  0  0  0  0  0  0
   61.4843   28.2826   46.5225 H   0  0  0  0  0  0  0  0  0  0  0  0
   60.3834   28.7324   44.3262 H   0  0  0  0  0  0  0  0  0  0  0  0
   59.2007   30.2330   49.7297 H   0  0  0  0  0  0  0  0  0  0  0  0
   54.4430   29.1278   54.5668 H   0  0  0  0  0  0  0  0  0  0  0  0
   52.1450   30.0874   54.5734 H   0  0  0  0  0  0  0  0  0  0  0  0
  1  2  1  0
  2  3  2  0
  2  4  1  0
  4  5  2  0
  5  6  1  0
  6  7  2  0
  7  8  1  0
  8  9  2  0
  8 10  1  0
 10 11  1  0
 11 12  2  0
 12 13  1  0
 13 14  2  0
 14 15  1  0
 15 16  1  0
 16 17  1  0
 17 18  1  0
 18 19  1  0
 19 20  1  0
 20 21  1  0
 21 22  1  0
 22 23  2  0
 22 24  1  0
 24 25  1  0
 25 26  2  0
 25 27  2  0
 25 28  1  0
 28 29  1  0
 29 30  2  0
 30 31  1  0
 31 32  2  0
 32 33  1  0
 33 34  2  0
 21 35  1  0
 35 36  2  0
 15 37  2  0
  7 38  1  0
 38 39  2  0
 39  4  1  0
 37 11  1  0
 35 17  1  0
 34 29  1  0
  1 40  1  0
  1 41  1  0
  1 42  1  0
  5 43  1  0
  6 44  1  0
 12 45  1  0
 13 46  1  0
 14 47  1  0
 16 48  1  0
 16 49  1  0
 18 50  1  0
 18 51  1  0
 19 52  1  0
 19 53  1  0
 20 54  1  0
 20 55  1  0
 21 56  1  1
 28 57  1  0
 28 58  1  0
 30 59  1  0
 31 60  1  0
 32 61  1  0
 33 62  1  0
 34 63  1  0
 37 64  1  0
 38 65  1  0
 39 66  1  0
M  CHG  2  10  -1  24  -1
M  END
>  <UniqueID>  (63) 
59

>  <SMILES>  (63) 
CC(=O)c1ccc(C(=O)[N-]c2cccc(CN3CCC[C@@H](C(=O)[N-]S(=O)(=O)Cc4ccccc4)C3=O)c2)cc1

>  <Energy>  (63) 
71.51138181576994

>  <Genealogy>  (63) 
CC(=O)c1ccc(C(=O)[N-]c2cccc(CN3CCCC(C(=O)[N-]S(=O)(=O)Cc4ccccc4)C3=O)c2)cc1 (protonated)
CC(=O)c1ccc(C(=O)[N-]c2cccc(CN3CCC[C@@H](C(=O)[N-]S(=O)(=O)Cc4ccccc4)C3=O)c2)cc1 (chirality)
CC(=O)c1ccc(C(=O)[N-]c2cccc(CN3CCC[C@@H](C(=O)[N-]S(=O)(=O)Cc4ccccc4)C3=O)c2)cc1 (3D coordinates assigned)
CC(=O)c1ccc(C(=O)[N-]c2cccc(CN3CCC[C@@H](C(=O)[N-]S(=O)(=O)Cc4ccccc4)C3=O)c2)cc1 (nonaromatic ring conformer: 71.51138181576994 kcal/mol)

>  <smiles>  (63) 
CC(=O)c1ccc(C(=O)Nc2cccc(CN3CCCC(C(=O)NS(=O)(=O)Cc4ccccc4)C3=O)c2)cc1

>  <score_type>  (63) 
oracle

>  <origin>  (63) 
adg

>  <m_score__min__energy>  (63) 
-14.4

>  <m_primary>  (63) 
energy

$$$$
64:0
     RDKit          3D

 37 39  0  0  0  0  0  0  0  0999 V2000
   50.8429   30.1157   51.7951 H   0  0  0  0  0  0  0  0  0  0  0  0
   51.3770   30.9930   52.1890 C   0  0  0  0  0  0  0  0  0  0  0  0
   51.0160   32.3080   51.6270 C   0  0  0  0  0  0  0  0  0  0  0  0
   51.4340   32.6770   50.4980 O   0  0  0  0  0  0  0  0  0  0  0  0
   50.2650   33.1890   52.3940 O   0  0  0  0  0  0  0  0  0  0  0  0
   52.3000   30.7720   53.1390 C   0  0  0  0  0  0  0  0  0  0  0  0
   51.9476   30.7177   54.1796 H   0  0  0  0  0  0  0  0  0  0  0  0
   53.7440   30.5960   52.9070 C   0  0  0  0  0  0  0  0  0  0  0  0
   54.5270   31.0050   51.4770 S   0  0  0  0  0  0  0  0  0  0  0  0
   56.0580   30.6680   52.0940 C   0  0  0  0  0  0  0  0  0  0  0  0
   57.3150   30.8030   51.3390 C   0  0  0  0  0  0  0  0  0  0  0  0
   57.6160   31.9930   50.7530 N   0  0  0  0  0  0  0  0  0  0  0  0
   58.7690   32.1930   50.0550 C   0  0  0  0  0  0  0  0  0  0  0  0
   59.0260   33.3390   49.4900 N   0  0  0  0  0  0  0  0  0  0  0  0
   58.9960   33.6290   48.0820 C   0  0  0  0  0  0  0  0  0  0  0  0
   59.7080   34.7100   47.5260 C   0  0  0  0  0  0  0  0  0  0  0  0
   60.2908   35.3766   48.1787 H   0  0  0  0  0  0  0  0  0  0  0  0
   59.6760   34.9380   46.1470 C   0  0  0  0  0  0  0  0  0  0  0  0
   60.2216   35.7921   45.7193 H   0  0  0  0  0  0  0  0  0  0  0  0
   58.9530   34.0840   45.3110 C   0  0  0  0  0  0  0  0  0  0  0  0
   58.9209   34.2721   44.2277 H   0  0  0  0  0  0  0  0  0  0  0  0
   58.2700   32.9900   45.8510 C   0  0  0  0  0  0  0  0  0  0  0  0
   57.3790   31.9060   44.8000 Cl  0  0  0  0  0  0  0  0  0  0  0  0
   58.3010   32.7590   47.2310 C   0  0  0  0  0  0  0  0  0  0  0  0
   57.7760   31.8882   47.6508 H   0  0  0  0  0  0  0  0  0  0  0  0
   59.6760   31.1380   49.9070 C   0  0  0  0  0  0  0  0  0  0  0  0
   60.6082   31.2850   49.3418 H   0  0  0  0  0  0  0  0  0  0  0  0
   59.3900   29.8930   50.4830 C   0  0  0  0  0  0  0  0  0  0  0  0
   60.3740   28.7650   50.3710 C   0  0  0  0  0  0  0  0  0  0  0  0
   60.6652   28.4312   51.3778 H   0  0  0  0  0  0  0  0  0  0  0  0
   59.9121   27.9282   49.8265 H   0  0  0  0  0  0  0  0  0  0  0  0
   61.2657   29.1090   49.8265 H   0  0  0  0  0  0  0  0  0  0  0  0
   58.2090   29.7300   51.2180 C   0  0  0  0  0  0  0  0  0  0  0  0
   57.9843   28.7658   51.6974 H   0  0  0  0  0  0  0  0  0  0  0  0
   55.9910   30.2790   53.3880 N   0  0  0  0  0  0  0  0  0  0  0  0
   54.7120   30.2470   53.8470 C   0  0  0  0  0  0  0  0  0  0  0  0
   54.4604   29.9672   54.8806 H   0  0  0  0  0  0  0  0  0  0  0  0
  1  2  1  0
  2  3  1  0
  3  4  2  0
  3  5  1  0
  2  6  2  0
  6  7  1  0
  6  8  1  0
  8  9  1  0
  9 10  1  0
 10 11  1  0
 11 12  1  0
 12 13  1  0
 13 14  2  0
 14 15  1  0
 15 16  2  0
 16 17  1  0
 16 18  1  0
 18 19  1  0
 18 20  2  0
 20 21  1  0
 20 22  1  0
 22 23  1  0
 22 24  2  0
 24 25  1  0
 13 26  1  0
 26 27  1  0
 26 28  2  0
 28 29  1  0
 29 30  1  0
 29 31  1  0
 29 32  1  0
 28 33  1  0
 33 34  1  0
 10 35  2  0
 35 36  1  0
 36 37  1  0
 36  8  2  0
 33 11  2  0
 24 15  1  0
M  CHG  2   5  -1  12  -1
M  END
>  <UniqueID>  (64) 
60

>  <SMILES>  (64) 
Cc1cc(-c2ncc(/C=C\C(=O)[O-])s2)[n-]/c(=N\c2cccc(Cl)c2)c1

>  <Energy>  (64) 
81.18921522353516

>  <Genealogy>  (64) 
Cc1cc(-c2ncc(C=CC(=O)[O-])s2)[n-]c(=Nc2cccc(Cl)c2)c1 (protonated)
Cc1cc(-c2ncc(/C=C\C(=O)[O-])s2)[n-]/c(=N\c2cccc(Cl)c2)c1 (cis-trans isomerization)
Cc1cc(-c2ncc(/C=C\C(=O)[O-])s2)[n-]/c(=N\c2cccc(Cl)c2)c1 (3D coordinates assigned)
Cc1cc(-c2ncc(/C=C\C(=O)[O-])s2)[n-]/c(=N\c2cccc(Cl)c2)c1 (optimized conformer: 81.18921522353516 kcal/mol)

>  <smiles>  (64) 
Cc1cc(-c2ncc(C=CC(=O)O)s2)[nH]c(=Nc2cccc(Cl)c2)c1

>  <score_type>  (64) 
oracle

>  <origin>  (64) 
adg

>  <m_score__min__energy>  (64) 
-12.76

>  <m_primary>  (64) 
energy

$$$$
65:0
     RDKit          3D

 66 69  0  0  0  0  0  0  0  0999 V2000
   62.7460   31.4650   50.9360 C   0  0  0  0  0  0  0  0  0  0  0  0
   62.3260   32.7850   51.2610 O   0  0  0  0  0  0  0  0  0  0  0  0
   62.5500   33.8800   50.4150 C   0  0  0  0  0  0  0  0  0  0  0  0
   63.3200   34.8150   50.7810 O   0  0  0  0  0  0  0  0  0  0  0  0
   61.8830   33.9370   49.0940 C   0  0  0  0  0  0  0  0  0  0  0  0
   60.6080   34.5200   48.9650 C   0  0  0  0  0  0  0  0  0  0  0  0
   59.9660   34.5660   47.7240 C   0  0  0  0  0  0  0  0  0  0  0  0
   60.5890   34.0370   46.5790 C   0  0  0  0  0  0  0  0  0  0  0  0
   59.9230   34.0110   45.3010 N   0  0  0  0  0  0  0  0  0  0  0  0
   58.5450   33.6550   45.1210 C   0  0  0  0  0  0  0  0  0  0  0  0
   57.6760   34.0270   45.9560 O   0  0  0  0  0  0  0  0  0  0  0  0
   58.1330   32.8400   43.9360 C   0  0  0  0  0  0  0  0  0  0  0  0
   57.5360   31.5270   44.3580 C   0  0  0  0  0  0  0  0  0  0  0  0
   56.6110   30.8700   43.5300 C   0  0  0  0  0  0  0  0  0  0  0  0
   56.0930   29.6270   43.9000 C   0  0  0  0  0  0  0  0  0  0  0  0
   56.4690   29.0320   45.1100 C   0  0  0  0  0  0  0  0  0  0  0  0
   55.9620   27.7230   45.4220 N   0  0  0  0  0  0  0  0  0  0  0  0
   56.7010   26.6440   46.0040 C   0  0  0  0  0  0  0  0  0  0  0  0
   56.2890   26.0820   47.0590 O   0  0  0  0  0  0  0  0  0  0  0  0
   57.9780   26.1920   45.3450 C   0  0  1  0  0  0  0  0  0  0  0  0
   57.7560   25.9390   43.8540 C   0  0  0  0  0  0  0  0  0  0  0  0
   58.2610   27.1930   43.1450 C   0  0  0  0  0  0  0  0  0  0  0  0
   59.2590   27.8330   44.1010 C   0  0  0  0  0  0  0  0  0  0  0  0
   58.9950   27.2330   45.3970 N   0  0  0  0  0  0  0  0  0  0  0  0
   59.7110   27.6050   46.5820 C   0  0  0  0  0  0  0  0  0  0  0  0
   60.0250   26.7270   47.4310 O   0  0  0  0  0  0  0  0  0  0  0  0
   60.0720   28.9450   46.7780 O   0  0  0  0  0  0  0  0  0  0  0  0
   60.8260   29.3990   47.9000 C   0  0  0  0  0  0  0  0  0  0  0  0
   59.9330   30.1430   48.8570 C   0  0  0  0  0  0  0  0  0  0  0  0
   59.3660   31.3730   48.4720 C   0  0  0  0  0  0  0  0  0  0  0  0
   58.5250   32.0690   49.3480 C   0  0  0  0  0  0  0  0  0  0  0  0
   58.2350   31.5370   50.6080 C   0  0  0  0  0  0  0  0  0  0  0  0
   58.7860   30.3110   50.9980 C   0  0  0  0  0  0  0  0  0  0  0  0
   59.6340   29.6140   50.1260 C   0  0  0  0  0  0  0  0  0  0  0  0
   57.3860   29.6940   45.9460 C   0  0  0  0  0  0  0  0  0  0  0  0
   57.9070   30.9380   45.5760 C   0  0  0  0  0  0  0  0  0  0  0  0
   61.8610   33.4540   46.7070 C   0  0  0  0  0  0  0  0  0  0  0  0
   62.5050   33.4080   47.9490 C   0  0  0  0  0  0  0  0  0  0  0  0
   62.9261   30.8991   51.8619 H   0  0  0  0  0  0  0  0  0  0  0  0
   61.9625   30.9654   50.3474 H   0  0  0  0  0  0  0  0  0  0  0  0
   63.6742   31.5100   50.3474 H   0  0  0  0  0  0  0  0  0  0  0  0
   60.1116   34.9439   49.8503 H   0  0  0  0  0  0  0  0  0  0  0  0
   58.9669   35.0189   47.6423 H   0  0  0  0  0  0  0  0  0  0  0  0
   60.4980   34.1780   44.4440 H   0  0  0  0  0  0  0  0  0  0  0  0
   57.3871   33.4029   43.3557 H   0  0  0  0  0  0  0  0  0  0  0  0
   59.0261   32.6359   43.3272 H   0  0  0  0  0  0  0  0  0  0  0  0
   56.2932   31.3366   42.5859 H   0  0  0  0  0  0  0  0  0  0  0  0
   55.3840   29.1115   43.2355 H   0  0  0  0  0  0  0  0  0  0  0  0
   58.2927   25.2847   45.8815 H   0  0  0  0  0  0  0  0  0  0  0  0
   58.3249   25.0567   43.5254 H   0  0  0  0  0  0  0  0  0  0  0  0
   56.6977   25.7419   43.6278 H   0  0  0  0  0  0  0  0  0  0  0  0
   58.7535   26.9263   42.1983 H   0  0  0  0  0  0  0  0  0  0  0  0
   57.4376   27.8794   42.8981 H   0  0  0  0  0  0  0  0  0  0  0  0
   60.2894   27.6189   43.7810 H   0  0  0  0  0  0  0  0  0  0  0  0
   59.1529   28.9275   44.1290 H   0  0  0  0  0  0  0  0  0  0  0  0
   61.2696   28.5337   48.4143 H   0  0  0  0  0  0  0  0  0  0  0  0
   61.6206   30.0744   47.5501 H   0  0  0  0  0  0  0  0  0  0  0  0
   59.5851   31.7891   47.4776 H   0  0  0  0  0  0  0  0  0  0  0  0
   58.0925   33.0340   49.0453 H   0  0  0  0  0  0  0  0  0  0  0  0
   57.5719   32.0836   51.2947 H   0  0  0  0  0  0  0  0  0  0  0  0
   58.5536   29.8942   51.9891 H   0  0  0  0  0  0  0  0  0  0  0  0
   60.0668   28.6510   50.4347 H   0  0  0  0  0  0  0  0  0  0  0  0
   57.6948   29.2313   46.8950 H   0  0  0  0  0  0  0  0  0  0  0  0
   58.6110   31.4570   46.2431 H   0  0  0  0  0  0  0  0  0  0  0  0
   62.3562   33.0290   45.8215 H   0  0  0  0  0  0  0  0  0  0  0  0
   63.5042   32.9551   48.0299 H   0  0  0  0  0  0  0  0  0  0  0  0
  1  2  1  0
  2  3  1  0
  3  4  2  0
  3  5  1  0
  5  6  2  0
  6  7  1  0
  7  8  2  0
  8  9  1  0
  9 10  1  0
 10 11  2  0
 10 12  1  0
 12 13  1  0
 13 14  2  0
 14 15  1  0
 15 16  2  0
 16 17  1  0
 17 18  1  0
 18 19  2  0
 18 20  1  0
 20 21  1  0
 21 22  1  0
 22 23  1  0
 23 24  1  0
 24 25  1  0
 25 26  2  0
 25 27  1  0
 27 28  1  0
 28 29  1  0
 29 30  2  0
 30 31  1  0
 31 32  2  0
 32 33  1  0
 33 34  2  0
 16 35  1  0
 35 36  2  0
  8 37  1  0
 37 38  2  0
 38  5  1  0
 36 13  1  0
 24 20  1  0
 34 29  1  0
  1 39  1  0
  1 40  1  0
  1 41  1  0
  6 42  1  0
  7 43  1  0
  9 44  1  0
 12 45  1  0
 12 46  1  0
 14 47  1  0
 15 48  1  0
 20 49  1  1
 21 50  1  0
 21 51  1  0
 22 52  1  0
 22 53  1  0
 23 54  1  0
 23 55  1  0
 28 56  1  0
 28 57  1  0
 30 58  1  0
 31 59  1  0
 32 60  1  0
 33 61  1  0
 34 62  1  0
 35 63  1  0
 36 64  1  0
 37 65  1  0
 38 66  1  0
M  CHG  1  17  -1
M  END
>  <UniqueID>  (65) 
61

>  <SMILES>  (65) 
COC(=O)c1ccc(NC(=O)Cc2ccc([N-]C(=O)[C@H]3CCCN3C(=O)OCc3ccccc3)cc2)cc1

>  <Energy>  (65) 
72.20842526446636

>  <Genealogy>  (65) 
COC(=O)c1ccc(NC(=O)Cc2ccc([N-]C(=O)C3CCCN3C(=O)OCc3ccccc3)cc2)cc1 (protonated)
COC(=O)c1ccc(NC(=O)Cc2ccc([N-]C(=O)[C@H]3CCCN3C(=O)OCc3ccccc3)cc2)cc1 (chirality)
COC(=O)c1ccc(NC(=O)Cc2ccc([N-]C(=O)[C@H]3CCCN3C(=O)OCc3ccccc3)cc2)cc1 (3D coordinates assigned)
COC(=O)c1ccc(NC(=O)Cc2ccc([N-]C(=O)[C@H]3CCCN3C(=O)OCc3ccccc3)cc2)cc1 (nonaromatic ring conformer: 72.20842526446636 kcal/mol)

>  <smiles>  (65) 
COC(=O)c1ccc(NC(=O)Cc2ccc(NC(=O)C3CCCN3C(=O)OCc3ccccc3)cc2)cc1

>  <score_type>  (65) 
oracle

>  <origin>  (65) 
adg

>  <m_score__min__energy>  (65) 
-11.4

>  <m_primary>  (65) 
energy

$$$$
66:0
     RDKit          3D

 35 36  0  0  0  0  0  0  0  0999 V2000
   57.0900   31.8710   45.0480 N   0  0  0  0  0  0  0  0  0  0  0  0
   56.6080   30.4270   44.2310 S   0  0  0  0  0  0  0  0  0  0  0  0
   55.1450   30.1760   44.4710 O   0  0  0  0  0  0  0  0  0  0  0  0
   56.8360   30.5880   42.7530 O   0  0  0  0  0  0  0  0  0  0  0  0
   57.5480   29.0710   44.8410 C   0  0  0  0  0  0  0  0  0  0  0  0
   58.0450   29.0970   46.1510 C   0  0  0  0  0  0  0  0  0  0  0  0
   58.8050   28.0290   46.6380 C   0  0  0  0  0  0  0  0  0  0  0  0
   59.0740   26.9210   45.8200 C   0  0  0  0  0  0  0  0  0  0  0  0
   59.9240   25.7880   46.3310 C   0  0  0  0  0  0  0  0  0  0  0  0
   59.2870   24.4420   45.9880 C   0  0  0  0  0  0  0  0  0  0  0  0
   58.2310   24.1440   46.9470 N   0  0  0  0  0  0  0  0  0  0  0  0
   56.8430   24.2900   46.6390 C   0  0  0  0  0  0  0  0  0  0  0  0
   56.0610   24.8440   47.4580 O   0  0  0  0  0  0  0  0  0  0  0  0
   56.3260   23.8260   45.3170 C   0  0  0  0  0  0  0  0  0  0  0  0
   54.8320   23.9010   45.2970 C   0  0  0  0  0  0  0  0  0  0  0  0
   54.0300   22.8910   44.9150 N   0  0  0  0  0  0  0  0  0  0  0  0
   52.7930   23.4290   44.9960 C   0  0  0  0  0  0  0  0  0  0  0  0
   51.7520   22.7790   44.7200 O   0  0  0  0  0  0  0  0  0  0  0  0
   52.7610   24.7190   45.3930 N   0  0  0  0  0  0  0  0  0  0  0  0
   54.0620   25.0050   45.5730 C   0  0  0  0  0  0  0  0  0  0  0  0
   54.5390   26.2480   45.9700 O   0  0  0  0  0  0  0  0  0  0  0  0
   58.5930   26.9060   44.5010 C   0  0  0  0  0  0  0  0  0  0  0  0
   57.8330   27.9750   44.0150 C   0  0  0  0  0  0  0  0  0  0  0  0
   57.3910   32.5520   44.3150 H   0  0  0  0  0  0  0  0  0  0  0  0
   57.8364   29.9611   46.7989 H   0  0  0  0  0  0  0  0  0  0  0  0
   59.1936   28.0575   47.6667 H   0  0  0  0  0  0  0  0  0  0  0  0
   60.9199   25.8454   45.8675 H   0  0  0  0  0  0  0  0  0  0  0  0
   60.0083   25.8726   47.4245 H   0  0  0  0  0  0  0  0  0  0  0  0
   58.8603   24.4862   44.9751 H   0  0  0  0  0  0  0  0  0  0  0  0
   60.0528   23.6534   46.0301 H   0  0  0  0  0  0  0  0  0  0  0  0
   56.7336   24.4668   44.5212 H   0  0  0  0  0  0  0  0  0  0  0  0
   56.6375   22.7838   45.1531 H   0  0  0  0  0  0  0  0  0  0  0  0
   55.1290   26.3370   46.7890 H   0  0  0  0  0  0  0  0  0  0  0  0
   58.8148   26.0498   43.8470 H   0  0  0  0  0  0  0  0  0  0  0  0
   57.4578   27.9555   42.9812 H   0  0  0  0  0  0  0  0  0  0  0  0
  1  2  1  0
  2  3  2  0
  2  4  2  0
  2  5  1  0
  5  6  2  0
  6  7  1  0
  7  8  2  0
  8  9  1  0
  9 10  1  0
 10 11  1  0
 11 12  1  0
 12 13  2  0
 12 14  1  0
 14 15  1  0
 15 16  1  0
 16 17  1  0
 17 18  2  0
 17 19  1  0
 19 20  1  0
 20 21  1  0
  8 22  1  0
 22 23  2  0
 23  5  1  0
 20 15  2  0
  1 24  1  0
  6 25  1  0
  7 26  1  0
  9 27  1  0
  9 28  1  0
 10 29  1  0
 10 30  1  0
 14 31  1  0
 14 32  1  0
 21 33  1  0
 22 34  1  0
 23 35  1  0
M  CHG  4   1  -1  11  -1  16  -1  19  -1
M  END
>  <UniqueID>  (66) 
62

>  <SMILES>  (66) 
[NH-]S(=O)(=O)c1ccc(CC[N-]C(=O)Cc2[n-]c(=O)[n-]c2O)cc1

>  <Energy>  (66) 
55.90100757672533

>  <Genealogy>  (66) 
[NH-]S(=O)(=O)c1ccc(CC[N-]C(=O)Cc2[n-]c(=O)[n-]c2O)cc1 (protonated)
[NH-]S(=O)(=O)c1ccc(CC[N-]C(=O)Cc2[n-]c(=O)[n-]c2O)cc1 (3D coordinates assigned)
[NH-]S(=O)(=O)c1ccc(CC[N-]C(=O)Cc2[n-]c(=O)[n-]c2O)cc1 (optimized conformer: 55.90100757672533 kcal/mol)

>  <smiles>  (66) 
NS(=O)(=O)c1ccc(CCNC(=O)Cc2[nH]c(=O)[nH]c2O)cc1

>  <score_type>  (66) 
oracle

>  <origin>  (66) 
adg

>  <m_score__min__energy>  (66) 
-14.73

>  <m_primary>  (66) 
energy

$$$$
67:0
     RDKit          3D

 34 35  0  0  0  0  0  0  0  0999 V2000
   54.5510   29.3470   45.3380 H   0  0  0  0  0  0  0  0  0  0  0  0
   55.1430   28.9960   44.5520 N   0  0  0  0  0  0  0  0  0  0  0  0
   56.4920   30.0680   44.4150 S   0  0  0  0  0  0  0  0  0  0  0  0
   56.0640   31.4520   44.8180 O   0  0  0  0  0  0  0  0  0  0  0  0
   56.9690   30.1030   42.9910 O   0  0  0  0  0  0  0  0  0  0  0  0
   57.7950   29.5060   45.4570 C   0  0  0  0  0  0  0  0  0  0  0  0
   57.7460   28.2350   46.0480 C   0  0  0  0  0  0  0  0  0  0  0  0
   56.8842   27.5766   45.8640 H   0  0  0  0  0  0  0  0  0  0  0  0
   58.7900   27.8040   46.8700 C   0  0  0  0  0  0  0  0  0  0  0  0
   58.7423   26.8117   47.3423 H   0  0  0  0  0  0  0  0  0  0  0  0
   59.8950   28.6300   47.0940 C   0  0  0  0  0  0  0  0  0  0  0  0
   60.7081   28.2908   47.7527 H   0  0  0  0  0  0  0  0  0  0  0  0
   59.9710   29.8880   46.4830 C   0  0  0  0  0  0  0  0  0  0  0  0
   61.1160   30.7150   46.7380 N   0  0  0  0  0  0  0  0  0  0  0  0
   61.4210   31.3800   47.9700 C   0  0  0  0  0  0  0  0  0  0  0  0
   61.2600   30.7530   49.0520 O   0  0  0  0  0  0  0  0  0  0  0  0
   61.9840   32.7470   47.9850 C   0  0  0  0  0  0  0  0  0  0  0  0
   63.0732   32.8723   48.0739 H   0  0  0  0  0  0  0  0  0  0  0  0
   61.2130   33.8370   47.8940 C   0  0  0  0  0  0  0  0  0  0  0  0
   61.5322   34.7529   48.4129 H   0  0  0  0  0  0  0  0  0  0  0  0
   59.9480   33.8620   47.1240 C   0  0  0  0  0  0  0  0  0  0  0  0
   59.9480   34.4870   45.8670 C   0  0  0  0  0  0  0  0  0  0  0  0
   60.8759   34.9333   45.4800 H   0  0  0  0  0  0  0  0  0  0  0  0
   58.7790   34.5470   45.1030 C   0  0  0  0  0  0  0  0  0  0  0  0
   58.7878   35.0486   44.1241 H   0  0  0  0  0  0  0  0  0  0  0  0
   57.6020   33.9720   45.5800 C   0  0  0  0  0  0  0  0  0  0  0  0
   56.6809   34.0288   44.9813 H   0  0  0  0  0  0  0  0  0  0  0  0
   57.5910   33.3240   46.8170 C   0  0  0  0  0  0  0  0  0  0  0  0
   56.6607   32.8693   47.1883 H   0  0  0  0  0  0  0  0  0  0  0  0
   58.7610   33.2500   47.5890 C   0  0  0  0  0  0  0  0  0  0  0  0
   58.7460   32.5500   48.7940 O   0  0  0  0  0  0  0  0  0  0  0  0
   59.3640   31.7630   48.9610 H   0  0  0  0  0  0  0  0  0  0  0  0
   58.9010   30.3340   45.6870 C   0  0  0  0  0  0  0  0  0  0  0  0
   58.9328   31.3395   45.2422 H   0  0  0  0  0  0  0  0  0  0  0  0
  1  2  1  0
  2  3  1  0
  3  4  2  0
  3  5  2  0
  3  6  1  0
  6  7  2  0
  7  8  1  0
  7  9  1  0
  9 10  1  0
  9 11  2  0
 11 12  1  0
 11 13  1  0
 13 14  1  0
 14 15  1  0
 15 16  2  0
 15 17  1  0
 17 18  1  0
 17 19  2  0
 19 20  1  0
 19 21  1  0
 21 22  2  0
 22 23  1  0
 22 24  1  0
 24 25  1  0
 24 26  2  0
 26 27  1  0
 26 28  1  0
 28 29  1  0
 28 30  2  0
 30 31  1  0
 31 32  1  0
 13 33  2  0
 33 34  1  0
 33  6  1  0
 30 21  1  0
M  CHG  2   2  -1  14  -1
M  END
>  <UniqueID>  (67) 
63

>  <SMILES>  (67) 
[NH-]S(=O)(=O)c1cccc([N-]C(=O)/C=C/c2ccccc2O)c1

>  <Energy>  (67) 
41.92302719045264

>  <Genealogy>  (67) 
[NH-]S(=O)(=O)c1cccc([N-]C(=O)C=Cc2ccccc2O)c1 (protonated)
[NH-]S(=O)(=O)c1cccc([N-]C(=O)/C=C/c2ccccc2O)c1 (cis-trans isomerization)
[NH-]S(=O)(=O)c1cccc([N-]C(=O)/C=C/c2ccccc2O)c1 (3D coordinates assigned)
[NH-]S(=O)(=O)c1cccc([N-]C(=O)/C=C/c2ccccc2O)c1 (optimized conformer: 41.92302719045264 kcal/mol)

>  <smiles>  (67) 
NS(=O)(=O)c1cccc(NC(=O)C=Cc2ccccc2O)c1

>  <score_type>  (67) 
oracle

>  <origin>  (67) 
adg

>  <m_score__min__energy>  (67) 
-12.029999999999999

>  <m_primary>  (67) 
energy

$$$$
68:0
     RDKit          3D

 44 47  0  0  0  0  0  0  0  0999 V2000
   50.3210   32.7250   52.0060 N   0  0  0  0  0  0  0  0  0  0  0  0
   51.3350   32.1360   51.1940 C   0  0  0  0  0  0  0  0  0  0  0  0
   51.3870   32.4320   49.9690 O   0  0  0  0  0  0  0  0  0  0  0  0
   52.3160   31.1880   51.7800 C   0  0  0  0  0  0  0  0  0  0  0  0
   51.9160   29.8940   52.1430 C   0  0  0  0  0  0  0  0  0  0  0  0
   52.8340   29.0010   52.6880 C   0  0  0  0  0  0  0  0  0  0  0  0
   54.1630   29.3810   52.8800 C   0  0  0  0  0  0  0  0  0  0  0  0
   55.0310   28.4880   53.4060 N   0  0  0  0  0  0  0  0  0  0  0  0
   56.3320   28.7930   53.6180 C   0  0  0  0  0  0  0  0  0  0  0  0
   57.2400   27.7200   54.1810 C   0  0  1  0  0  0  0  0  0  0  0  0
   56.5290   26.3510   54.2050 C   0  0  0  0  0  0  0  0  0  0  0  0
   57.4940   25.2420   54.5340 C   0  0  0  0  0  0  0  0  0  0  0  0
   58.7350   25.2890   54.1530 N   0  0  0  0  0  0  0  0  0  0  0  0
   59.2760   26.4440   53.5060 C   0  0  0  0  0  0  0  0  0  0  0  0
   60.4390   26.4130   53.0270 O   0  0  0  0  0  0  0  0  0  0  0  0
   58.4930   27.6390   53.4260 N   0  0  0  0  0  0  0  0  0  0  0  0
   56.7990   30.0750   53.2700 C   0  0  0  0  0  0  0  0  0  0  0  0
   58.0160   30.3550   53.4530 O   0  0  0  0  0  0  0  0  0  0  0  0
   55.9390   31.0130   52.7370 N   0  0  0  0  0  0  0  0  0  0  0  0
   56.5070   32.3340   52.3710 C   0  0  0  0  0  0  0  0  0  0  0  0
   57.7030   32.1720   51.4650 C   0  0  0  0  0  0  0  0  0  0  0  0
   57.7810   31.0960   50.5630 C   0  0  0  0  0  0  0  0  0  0  0  0
   58.9040   30.9380   49.7460 C   0  0  0  0  0  0  0  0  0  0  0  0
   59.9600   31.8510   49.8200 C   0  0  0  0  0  0  0  0  0  0  0  0
   61.0480   31.6950   49.0270 F   0  0  0  0  0  0  0  0  0  0  0  0
   59.8930   32.9220   50.7130 C   0  0  0  0  0  0  0  0  0  0  0  0
   58.7720   33.0840   51.5330 C   0  0  0  0  0  0  0  0  0  0  0  0
   54.6090   30.6790   52.5290 C   0  0  0  0  0  0  0  0  0  0  0  0
   53.6560   31.5740   51.9750 C   0  0  0  0  0  0  0  0  0  0  0  0
   50.1560   33.7560   51.9960 H   0  0  0  0  0  0  0  0  0  0  0  0
   50.8711   29.5830   51.9963 H   0  0  0  0  0  0  0  0  0  0  0  0
   52.5096   27.9883   52.9694 H   0  0  0  0  0  0  0  0  0  0  0  0
   57.4840   27.9981   55.2169 H   0  0  0  0  0  0  0  0  0  0  0  0
   55.7344   26.3726   54.9653 H   0  0  0  0  0  0  0  0  0  0  0  0
   56.1061   26.1605   53.2076 H   0  0  0  0  0  0  0  0  0  0  0  0
   57.1402   24.3737   55.1092 H   0  0  0  0  0  0  0  0  0  0  0  0
   58.9140   28.5000   53.0100 H   0  0  0  0  0  0  0  0  0  0  0  0
   55.7386   32.9252   51.8513 H   0  0  0  0  0  0  0  0  0  0  0  0
   56.8283   32.8459   53.2901 H   0  0  0  0  0  0  0  0  0  0  0  0
   56.9532   30.3743   50.5000 H   0  0  0  0  0  0  0  0  0  0  0  0
   58.9570   30.0934   49.0433 H   0  0  0  0  0  0  0  0  0  0  0  0
   60.7241   33.6402   50.7717 H   0  0  0  0  0  0  0  0  0  0  0  0
   58.7257   33.9294   52.2353 H   0  0  0  0  0  0  0  0  0  0  0  0
   53.9709   32.5894   51.6925 H   0  0  0  0  0  0  0  0  0  0  0  0
  1  2  1  0
  2  3  2  0
  2  4  1  0
  4  5  2  0
  5  6  1  0
  6  7  2  0
  7  8  1  0
  8  9  2  0
  9 10  1  0
 10 11  1  0
 11 12  1  0
 12 13  2  0
 13 14  1  0
 14 15  2  0
 14 16  1  0
  9 17  1  0
 17 18  2  0
 17 19  1  0
 19 20  1  0
 20 21  1  0
 21 22  2  0
 22 23  1  0
 23 24  2  0
 24 25  1  0
 24 26  1  0
 26 27  2  0
 19 28  1  0
 28 29  2  0
 29  4  1  0
 28  7  1  0
 16 10  1  0
 27 21  1  0
  1 30  1  0
  5 31  1  0
  6 32  1  0
 10 33  1  1
 11 34  1  0
 11 35  1  0
 12 36  1  0
 16 37  1  0
 20 38  1  0
 20 39  1  0
 22 40  1  0
 23 41  1  0
 26 42  1  0
 27 43  1  0
 29 44  1  0
M  CHG  1   1  -1
M  END
>  <UniqueID>  (68) 
64

>  <SMILES>  (68) 
[NH-]C(=O)c1ccc2nc([C@H]3CC=NC(=O)N3)c(=O)n(Cc3ccc(F)cc3)c2c1

>  <Energy>  (68) 
60.75742153763048

>  <Genealogy>  (68) 
[NH-]C(=O)c1ccc2nc(C3CC=NC(=O)N3)c(=O)n(Cc3ccc(F)cc3)c2c1 (protonated)
[NH-]C(=O)c1ccc2nc([C@H]3CC=NC(=O)N3)c(=O)n(Cc3ccc(F)cc3)c2c1 (chirality)
[NH-]C(=O)c1ccc2nc([C@H]3CC=NC(=O)N3)c(=O)n(Cc3ccc(F)cc3)c2c1 (3D coordinates assigned)
[NH-]C(=O)c1ccc2nc([C@H]3CC=NC(=O)N3)c(=O)n(Cc3ccc(F)cc3)c2c1 (nonaromatic ring conformer: 60.75742153763048 kcal/mol)

>  <smiles>  (68) 
NC(=O)c1ccc2nc(C3CC=NC(=O)N3)c(=O)n(Cc3ccc(F)cc3)c2c1

>  <score_type>  (68) 
oracle

>  <origin>  (68) 
adg

>  <m_score__min__energy>  (68) 
-10.720000000000001

>  <m_primary>  (68) 
energy

$$$$
69:0
     RDKit          3D

 47 51  0  0  0  0  0  0  0  0999 V2000
   52.7227   31.8797   53.2799 H   0  0  0  0  0  0  0  0  0  0  0  0
   53.0450   31.2160   52.4640 C   0  0  0  0  0  0  0  0  0  0  0  0
   52.2850   31.2780   51.2010 C   0  0  0  0  0  0  0  0  0  0  0  0
   52.2950   30.3390   50.2380 N   0  0  0  0  0  0  0  0  0  0  0  0
   51.3850   30.7900   49.3490 C   0  0  0  0  0  0  0  0  0  0  0  0
   51.1170   30.1750   48.2830 O   0  0  0  0  0  0  0  0  0  0  0  0
   50.7800   31.9460   49.6940 N   0  0  0  0  0  0  0  0  0  0  0  0
   51.3540   32.2340   50.8730 C   0  0  0  0  0  0  0  0  0  0  0  0
   51.0300   33.3490   51.6380 O   0  0  0  0  0  0  0  0  0  0  0  0
   54.0980   30.4160   52.7000 C   0  0  0  0  0  0  0  0  0  0  0  0
   54.0940   29.3210   53.5470 C   0  0  0  0  0  0  0  0  0  0  0  0
   53.2181   28.9448   54.0959 H   0  0  0  0  0  0  0  0  0  0  0  0
   55.3330   28.7870   53.5940 N   0  0  0  0  0  0  0  0  0  0  0  0
   55.5820   28.0460   54.2680 H   0  0  0  0  0  0  0  0  0  0  0  0
   56.1360   29.4760   52.7910 N   0  0  0  0  0  0  0  0  0  0  0  0
   57.4970   29.4040   52.5680 C   0  0  0  0  0  0  0  0  0  0  0  0
   58.2860   28.3860   52.8180 N   0  0  0  0  0  0  0  0  0  0  0  0
   59.6600   27.8560   52.7480 C   0  0  0  0  0  0  0  0  0  0  0  0
   59.3907   26.9153   53.2506 H   0  0  0  0  0  0  0  0  0  0  0  0
   60.4510   28.2310   51.5200 C   0  0  0  0  0  0  0  0  0  0  0  0
   61.1130   27.4933   51.0431 H   0  0  0  0  0  0  0  0  0  0  0  0
   60.2098   28.6491   50.5315 H   0  0  0  0  0  0  0  0  0  0  0  0
   60.8120   28.8170   52.9010 C   0  0  0  0  0  0  0  0  0  0  0  0
   61.7324   28.4986   53.4124 H   0  0  0  0  0  0  0  0  0  0  0  0
   60.9369   29.8293   53.3129 H   0  0  0  0  0  0  0  0  0  0  0  0
   58.0720   30.4490   51.9100 N   0  0  0  0  0  0  0  0  0  0  0  0
   57.3450   31.5030   51.4440 C   0  0  0  0  0  0  0  0  0  0  0  0
   57.9180   32.4860   50.8160 N   0  0  0  0  0  0  0  0  0  0  0  0
   58.3360   32.4510   49.4150 C   0  0  0  0  0  0  0  0  0  0  0  0
   58.0297   31.4929   48.9697 H   0  0  0  0  0  0  0  0  0  0  0  0
   57.8604   33.2868   48.8809 H   0  0  0  0  0  0  0  0  0  0  0  0
   59.8310   32.5920   49.3070 C   0  0  0  0  0  0  0  0  0  0  0  0
   60.4880   32.3100   48.1010 C   0  0  0  0  0  0  0  0  0  0  0  0
   59.9115   31.9594   47.2323 H   0  0  0  0  0  0  0  0  0  0  0  0
   61.8690   32.4720   47.9980 C   0  0  0  0  0  0  0  0  0  0  0  0
   62.3755   32.2481   47.0476 H   0  0  0  0  0  0  0  0  0  0  0  0
   62.6150   32.9170   49.0940 C   0  0  0  0  0  0  0  0  0  0  0  0
   64.3550   33.1020   48.8880 Cl  0  0  0  0  0  0  0  0  0  0  0  0
   61.9720   33.2080   50.3180 C   0  0  0  0  0  0  0  0  0  0  0  0
   62.7660   33.6980   51.5110 C   0  0  0  0  0  0  0  0  0  0  0  0
   63.3580   34.9100   51.2080 F   0  0  0  0  0  0  0  0  0  0  0  0
   61.9210   33.8600   52.5940 F   0  0  0  0  0  0  0  0  0  0  0  0
   63.7630   32.8050   51.8680 F   0  0  0  0  0  0  0  0  0  0  0  0
   60.5750   33.0410   50.4090 C   0  0  0  0  0  0  0  0  0  0  0  0
   60.0617   33.2655   51.3557 H   0  0  0  0  0  0  0  0  0  0  0  0
   56.0030   31.5240   51.6270 N   0  0  0  0  0  0  0  0  0  0  0  0
   55.4150   30.4940   52.2750 C   0  0  0  0  0  0  0  0  0  0  0  0
  1  2  1  0
  2  3  1  0
  3  4  1  0
  4  5  1  0
  5  6  2  0
  5  7  1  0
  7  8  1  0
  8  9  1  0
  2 10  2  3
 10 11  1  0
 11 12  1  0
 11 13  2  0
 13 14  1  0
 13 15  1  0
 15 16  1  0
 16 17  2  0
 17 18  1  0
 18 19  1  0
 18 20  1  0
 20 21  1  0
 20 22  1  0
 20 23  1  0
 23 24  1  0
 23 25  1  0
 16 26  1  0
 26 27  1  0
 27 28  2  3
 28 29  1  0
 29 30  1  0
 29 31  1  0
 29 32  1  0
 32 33  2  0
 33 34  1  0
 33 35  1  0
 35 36  1  0
 35 37  2  0
 37 38  1  0
 37 39  1  0
 39 40  1  0
 40 41  1  0
 40 42  1  0
 40 43  1  0
 39 44  2  0
 44 45  1  0
 27 46  1  0
 46 47  2  0
  8  3  2  0
 47 10  1  0
 47 15  1  0
 23 18  1  0
 44 32  1  0
M  CHG  5   4  -1   7  -1   9  -1  13   1  26  -1
M  END
>  <UniqueID>  (69) 
65

>  <SMILES>  (69) 
O=c1[n-]c([O-])c(C=c2c[nH+]n3/c(=N\C4CC4)[n-]c(=NCc4ccc(Cl)c(C(F)(F)F)c4)nc23)[n-]1

>  <Energy>  (69) 
430.65642149873673

>  <Genealogy>  (69) 
O=c1[n-]c([O-])c(C=c2c[nH+]n3c(=NC4CC4)[n-]c(=NCc4ccc(Cl)c(C(F)(F)F)c4)nc23)[n-]1 (protonated)
O=c1[n-]c([O-])c(C=c2c[nH+]n3/c(=N\C4CC4)[n-]c(=NCc4ccc(Cl)c(C(F)(F)F)c4)nc23)[n-]1 (cis-trans isomerization)
O=c1[n-]c([O-])c(C=c2c[nH+]n3/c(=N\C4CC4)[n-]c(=NCc4ccc(Cl)c(C(F)(F)F)c4)nc23)[n-]1 (3D coordinates assigned)
O=c1[n-]c([O-])c(C=c2c[nH+]n3/c(=N\C4CC4)[n-]c(=NCc4ccc(Cl)c(C(F)(F)F)c4)nc23)[n-]1 (nonaromatic ring conformer: 430.65642149873673 kcal/mol)

>  <smiles>  (69) 
O=c1[nH]c(O)c(C=c2cnn3c(=NC4CC4)[nH]c(=NCc4ccc(Cl)c(C(F)(F)F)c4)nc23)[nH]1

>  <score_type>  (69) 
oracle

>  <origin>  (69) 
adg

>  <m_score__min__energy>  (69) 
-17.620000000000001

>  <m_primary>  (69) 
energy

$$$$
70:0
     RDKit          3D

 31 32  0  0  0  0  0  0  0  0999 V2000
   57.0370   31.2910   42.3420 C   0  0  0  0  0  0  0  0  0  0  0  0
   56.6440   30.0420   43.5480 S   0  0  0  0  0  0  0  0  0  0  0  0
   56.8390   30.6250   44.9190 O   0  0  0  0  0  0  0  0  0  0  0  0
   55.2110   29.6080   43.4090 O   0  0  0  0  0  0  0  0  0  0  0  0
   57.7010   28.6780   43.3650 N   0  0  0  0  0  0  0  0  0  0  0  0
   58.3610   28.0050   44.4540 C   0  0  0  0  0  0  0  0  0  0  0  0
   59.7420   28.1390   44.6880 C   0  0  0  0  0  0  0  0  0  0  0  0
   60.3460   27.4690   45.7550 C   0  0  0  0  0  0  0  0  0  0  0  0
   59.5840   26.6570   46.5970 C   0  0  0  0  0  0  0  0  0  0  0  0
   58.2090   26.4990   46.3730 C   0  0  0  0  0  0  0  0  0  0  0  0
   57.3790   25.6490   47.2990 C   0  0  0  0  0  0  0  0  0  0  0  0
   56.3000   24.9220   46.5290 C   0  0  0  0  0  0  0  0  0  0  0  0
   55.2310   25.6220   45.9420 C   0  0  0  0  0  0  0  0  0  0  0  0
   55.1550   27.0080   46.0230 O   0  0  0  0  0  0  0  0  0  0  0  0
   54.2550   24.9450   45.2830 N   0  0  0  0  0  0  0  0  0  0  0  0
   54.2860   23.5930   45.1800 C   0  0  0  0  0  0  0  0  0  0  0  0
   53.3690   22.9880   44.5640 O   0  0  0  0  0  0  0  0  0  0  0  0
   55.3020   22.8920   45.7410 N   0  0  0  0  0  0  0  0  0  0  0  0
   56.3040   23.5180   46.4100 C   0  0  0  0  0  0  0  0  0  0  0  0
   57.2280   22.8310   46.9190 O   0  0  0  0  0  0  0  0  0  0  0  0
   57.6050   27.1770   45.3010 C   0  0  0  0  0  0  0  0  0  0  0  0
   57.3288   32.2185   42.8564 H   0  0  0  0  0  0  0  0  0  0  0  0
   57.8692   30.9436   41.7122 H   0  0  0  0  0  0  0  0  0  0  0  0
   56.1558   31.4827   41.7122 H   0  0  0  0  0  0  0  0  0  0  0  0
   57.7970   28.2880   42.4010 H   0  0  0  0  0  0  0  0  0  0  0  0
   60.3495   28.7748   44.0272 H   0  0  0  0  0  0  0  0  0  0  0  0
   61.4258   27.5817   45.9322 H   0  0  0  0  0  0  0  0  0  0  0  0
   60.0645   26.1388   47.4400 H   0  0  0  0  0  0  0  0  0  0  0  0
   58.0291   24.9123   47.7937 H   0  0  0  0  0  0  0  0  0  0  0  0
   56.9036   26.2998   48.0476 H   0  0  0  0  0  0  0  0  0  0  0  0
   56.5261   27.0581   45.1223 H   0  0  0  0  0  0  0  0  0  0  0  0
  1  2  1  0
  2  3  2  0
  2  4  2  0
  2  5  1  0
  5  6  1  0
  6  7  2  0
  7  8  1  0
  8  9  2  0
  9 10  1  0
 10 11  1  0
 11 12  1  0
 12 13  2  0
 13 14  1  0
 13 15  1  0
 15 16  1  0
 16 17  2  0
 16 18  1  0
 18 19  1  0
 19 20  2  0
 10 21  2  0
 21  6  1  0
 19 12  1  0
  1 22  1  0
  1 23  1  0
  1 24  1  0
  5 25  1  0
  7 26  1  0
  8 27  1  0
  9 28  1  0
 11 29  1  0
 11 30  1  0
 21 31  1  0
M  CHG  3  14  -1  15  -1  18  -1
M  END
>  <UniqueID>  (70) 
66

>  <SMILES>  (70) 
CS(=O)(=O)Nc1cccc(Cc2c([O-])[n-]c(=O)[n-]c2=O)c1

>  <Energy>  (70) 
32.03994221492681

>  <Genealogy>  (70) 
CS(=O)(=O)Nc1cccc(Cc2c([O-])[n-]c(=O)[n-]c2=O)c1 (protonated)
CS(=O)(=O)Nc1cccc(Cc2c([O-])[n-]c(=O)[n-]c2=O)c1 (3D coordinates assigned)
CS(=O)(=O)Nc1cccc(Cc2c([O-])[n-]c(=O)[n-]c2=O)c1 (optimized conformer: 32.03994221492681 kcal/mol)

>  <smiles>  (70) 
CS(=O)(=O)Nc1cccc(Cc2c(O)[nH]c(=O)[nH]c2=O)c1

>  <score_type>  (70) 
oracle

>  <origin>  (70) 
adg

>  <m_score__min__energy>  (70) 
-14.51

>  <m_primary>  (70) 
energy

$$$$
71:0
     RDKit          3D

 40 41  0  0  0  0  0  0  0  0999 V2000
   56.3090   29.9200   42.8570 C   0  0  0  0  0  0  0  0  0  0  0  0
   56.2150   29.7620   44.3360 C   0  0  0  0  0  0  0  0  0  0  0  0
   55.1410   29.3520   44.8530 O   0  0  0  0  0  0  0  0  0  0  0  0
   57.3340   30.0370   45.1290 O   0  0  0  0  0  0  0  0  0  0  0  0
   58.2800   29.0450   45.5250 C   0  0  0  0  0  0  0  0  0  0  0  0
   57.8890   28.4260   46.8800 C   0  0  1  0  0  0  0  0  0  0  0  0
   56.8620   27.4760   46.6740 O   0  0  0  0  0  0  0  0  0  0  0  0
   57.3420   26.2160   47.0940 C   0  0  1  0  0  0  0  0  0  0  0  0
   56.9690   25.1570   46.1330 N   0  0  0  0  0  0  0  0  0  0  0  0
   57.8660   24.1690   45.8230 C   0  0  0  0  0  0  0  0  0  0  0  0
   57.5280   23.1380   44.9330 C   0  0  0  0  0  0  0  0  0  0  0  0
   58.5110   22.0450   44.5770 C   0  0  0  0  0  0  0  0  0  0  0  0
   58.1830   21.5160   43.3420 F   0  0  0  0  0  0  0  0  0  0  0  0
   58.5010   21.0220   45.5110 F   0  0  0  0  0  0  0  0  0  0  0  0
   59.7890   22.5710   44.5200 F   0  0  0  0  0  0  0  0  0  0  0  0
   56.2320   23.1400   44.3980 C   0  0  0  0  0  0  0  0  0  0  0  0
   55.8630   22.2380   43.5990 O   0  0  0  0  0  0  0  0  0  0  0  0
   55.3590   24.1160   44.7450 N   0  0  0  0  0  0  0  0  0  0  0  0
   55.7050   25.1100   45.6020 C   0  0  0  0  0  0  0  0  0  0  0  0
   54.8460   25.9820   45.9020 O   0  0  0  0  0  0  0  0  0  0  0  0
   58.8500   26.2920   47.2570 C   0  0  0  0  0  0  0  0  0  0  0  0
   59.0600   27.7390   47.5920 C   0  0  1  0  0  0  0  0  0  0  0  0
   60.3340   28.2120   47.1460 O   0  0  0  0  0  0  0  0  0  0  0  0
   60.7750   29.5250   47.3410 C   0  0  0  0  0  0  0  0  0  0  0  0
   60.8180   30.0870   48.7210 C   0  0  0  0  0  0  0  0  0  0  0  0
   61.1770   30.2210   46.3700 O   0  0  0  0  0  0  0  0  0  0  0  0
   56.8583   30.8434   42.6211 H   0  0  0  0  0  0  0  0  0  0  0  0
   56.8409   29.0574   42.4292 H   0  0  0  0  0  0  0  0  0  0  0  0
   55.2971   29.9758   42.4292 H   0  0  0  0  0  0  0  0  0  0  0  0
   58.3123   28.2528   44.7625 H   0  0  0  0  0  0  0  0  0  0  0  0
   59.2671   29.5197   45.6261 H   0  0  0  0  0  0  0  0  0  0  0  0
   57.5539   29.2516   47.5251 H   0  0  0  0  0  0  0  0  0  0  0  0
   56.8819   25.9568   48.0590 H   0  0  0  0  0  0  0  0  0  0  0  0
   58.8670   24.1841   46.2789 H   0  0  0  0  0  0  0  0  0  0  0  0
   59.1964   25.6396   48.0721 H   0  0  0  0  0  0  0  0  0  0  0  0
   59.4074   25.9589   46.3691 H   0  0  0  0  0  0  0  0  0  0  0  0
   59.0742   27.9400   48.6734 H   0  0  0  0  0  0  0  0  0  0  0  0
   60.7553   29.2679   49.4526 H   0  0  0  0  0  0  0  0  0  0  0  0
   61.7607   30.6354   48.8644 H   0  0  0  0  0  0  0  0  0  0  0  0
   59.9697   30.7724   48.8644 H   0  0  0  0  0  0  0  0  0  0  0  0
  1  2  1  0
  2  3  2  0
  2  4  1  0
  4  5  1  0
  5  6  1  0
  6  7  1  0
  7  8  1  0
  8  9  1  0
  9 10  1  0
 10 11  2  0
 11 12  1  0
 12 13  1  0
 12 14  1  0
 12 15  1  0
 11 16  1  0
 16 17  2  0
 16 18  1  0
 18 19  1  0
 19 20  2  0
  8 21  1  0
 21 22  1  0
 22 23  1  0
 23 24  1  0
 24 25  1  0
 24 26  2  0
 22  6  1  0
 19  9  1  0
  1 27  1  0
  1 28  1  0
  1 29  1  0
  5 30  1  0
  5 31  1  0
  6 32  1  1
  8 33  1  1
 10 34  1  0
 21 35  1  0
 21 36  1  0
 22 37  1  1
 25 38  1  0
 25 39  1  0
 25 40  1  0
M  CHG  1  18  -1
M  END
>  <UniqueID>  (71) 
67

>  <SMILES>  (71) 
CC(=O)OC[C@H]1O[C@@H](n2cc(C(F)(F)F)c(=O)[n-]c2=O)CC1OC(C)=O

>  <Energy>  (71) 
38.57250459258286

>  <Genealogy>  (71) 
CC(=O)OCC1OC(n2cc(C(F)(F)F)c(=O)[n-]c2=O)CC1OC(C)=O (protonated)
CC(=O)OC[C@H]1O[C@@H](n2cc(C(F)(F)F)c(=O)[n-]c2=O)CC1OC(C)=O (chirality)
CC(=O)OC[C@H]1O[C@@H](n2cc(C(F)(F)F)c(=O)[n-]c2=O)CC1OC(C)=O (3D coordinates assigned)
CC(=O)OC[C@H]1O[C@@H](n2cc(C(F)(F)F)c(=O)[n-]c2=O)CC1OC(C)=O (nonaromatic ring conformer: 38.57250459258286 kcal/mol)

>  <smiles>  (71) 
CC(=O)OCC1OC(n2cc(C(F)(F)F)c(=O)[nH]c2=O)CC1OC(C)=O

>  <score_type>  (71) 
oracle

>  <origin>  (71) 
adg

>  <m_score__min__energy>  (71) 
-7.8499999999999996

>  <m_primary>  (71) 
energy

$$$$
72:0
     RDKit          3D

 38 39  0  0  0  0  0  0  0  0999 V2000
   60.6337   25.0946   47.2330 H   0  0  0  0  0  0  0  0  0  0  0  0
   60.0860   25.8970   46.7170 C   0  0  0  0  0  0  0  0  0  0  0  0
   60.3020   27.1210   47.1070 N   0  0  0  0  0  0  0  0  0  0  0  0
   59.8640   27.7650   48.3110 C   0  0  0  0  0  0  0  0  0  0  0  0
   60.3850   27.4190   49.4050 O   0  0  0  0  0  0  0  0  0  0  0  0
   58.9150   28.7900   48.2830 O   0  0  0  0  0  0  0  0  0  0  0  0
   59.2710   30.1660   48.2090 C   0  0  0  0  0  0  0  0  0  0  0  0
   59.3762   30.5727   49.2256 H   0  0  0  0  0  0  0  0  0  0  0  0
   60.2255   30.2694   47.6721 H   0  0  0  0  0  0  0  0  0  0  0  0
   58.4864   30.7194   47.6721 H   0  0  0  0  0  0  0  0  0  0  0  0
   59.1430   25.4980   45.6130 C   0  0  0  0  0  0  0  0  0  0  0  0
   58.8194   24.4598   45.7786 H   0  0  0  0  0  0  0  0  0  0  0  0
   59.6750   25.5975   44.6554 H   0  0  0  0  0  0  0  0  0  0  0  0
   57.9300   26.3850   45.5690 C   0  0  0  0  0  0  0  0  0  0  0  0
   56.6260   26.0210   45.9010 C   0  0  0  0  0  0  0  0  0  0  0  0
   56.3157   25.0101   46.2038 H   0  0  0  0  0  0  0  0  0  0  0  0
   55.7950   27.0840   45.7990 N   0  0  0  0  0  0  0  0  0  0  0  0
   54.7690   27.1020   45.9880 H   0  0  0  0  0  0  0  0  0  0  0  0
   56.5710   28.1130   45.4230 C   0  0  0  0  0  0  0  0  0  0  0  0
   56.1610   29.3890   45.2190 N   0  0  0  0  0  0  0  0  0  0  0  0
   57.0710   30.3480   44.8680 C   0  0  0  0  0  0  0  0  0  0  0  0
   56.6370   31.5600   44.6640 N   0  0  0  0  0  0  0  0  0  0  0  0
   57.0850   32.7640   45.3020 C   0  0  0  0  0  0  0  0  0  0  0  0
   56.6650   33.8730   44.8730 O   0  0  0  0  0  0  0  0  0  0  0  0
   57.9120   32.7120   46.4730 N   0  0  0  0  0  0  0  0  0  0  0  0
   58.0480   31.7940   46.9550 H   0  0  0  0  0  0  0  0  0  0  0  0
   58.5020   33.9060   47.0740 C   0  0  0  0  0  0  0  0  0  0  0  0
   59.0818   33.6151   47.9624 H   0  0  0  0  0  0  0  0  0  0  0  0
   57.6946   34.5973   47.3572 H   0  0  0  0  0  0  0  0  0  0  0  0
   59.4230   34.6050   46.0810 C   0  0  0  0  0  0  0  0  0  0  0  0
   60.1828   35.1817   46.6289 H   0  0  0  0  0  0  0  0  0  0  0  0
   59.9184   33.8535   45.4487 H   0  0  0  0  0  0  0  0  0  0  0  0
   58.8325   35.2843   45.4487 H   0  0  0  0  0  0  0  0  0  0  0  0
   58.4400   29.9840   44.6980 C   0  0  0  0  0  0  0  0  0  0  0  0
   59.1759   30.7427   44.3932 H   0  0  0  0  0  0  0  0  0  0  0  0
   58.8500   28.6590   44.9190 C   0  0  0  0  0  0  0  0  0  0  0  0
   59.9034   28.3620   44.8092 H   0  0  0  0  0  0  0  0  0  0  0  0
   57.8740   27.7360   45.2820 C   0  0  0  0  0  0  0  0  0  0  0  0
  1  2  1  0
  2  3  2  3
  3  4  1  0
  4  5  2  0
  4  6  1  0
  6  7  1  0
  7  8  1  0
  7  9  1  0
  7 10  1  0
  2 11  1  0
 11 12  1  0
 11 13  1  0
 11 14  1  0
 14 15  2  0
 15 16  1  0
 15 17  1  0
 17 18  1  0
 17 19  1  0
 19 20  1  0
 20 21  1  0
 21 22  2  0
 22 23  1  0
 23 24  2  0
 23 25  1  0
 25 26  1  0
 25 27  1  0
 27 28  1  0
 27 29  1  0
 27 30  1  0
 30 31  1  0
 30 32  1  0
 30 33  1  0
 21 34  1  0
 34 35  1  0
 34 36  2  0
 36 37  1  0
 36 38  1  0
 38 14  1  0
 38 19  2  0
M  CHG  1  20  -1
M  END
>  <UniqueID>  (72) 
68

>  <SMILES>  (72) 
CCNC(=O)/N=c1\ccc2c(CC=NC(=O)OC)c[nH]c2[n-]1

>  <Energy>  (72) 
74.40090686635926

>  <Genealogy>  (72) 
CCNC(=O)N=c1ccc2c(CC=NC(=O)OC)c[nH]c2[n-]1 (protonated)
CCNC(=O)/N=c1\ccc2c(CC=NC(=O)OC)c[nH]c2[n-]1 (cis-trans isomerization)
CCNC(=O)/N=c1\ccc2c(CC=NC(=O)OC)c[nH]c2[n-]1 (3D coordinates assigned)
CCNC(=O)/N=c1\ccc2c(CC=NC(=O)OC)c[nH]c2[n-]1 (optimized conformer: 74.40090686635926 kcal/mol)

>  <smiles>  (72) 
CCNC(=O)N=c1ccc2c(CC=NC(=O)OC)c[nH]c2[nH]1

>  <score_type>  (72) 
oracle

>  <origin>  (72) 
adg

>  <m_score__min__energy>  (72) 
-8.3599999999999994

>  <m_primary>  (72) 
energy

$$$$
73:0
     RDKit          3D

 55 58  0  0  0  0  0  0  0  0999 V2000
   55.8350   29.8880   44.9040 O   0  0  0  0  0  0  0  0  0  0  0  0
   57.0640   30.1640   44.9580 C   0  0  0  0  0  0  0  0  0  0  0  0
   57.4540   31.2910   45.7570 N   0  0  0  0  0  0  0  0  0  0  0  0
   58.7170   31.7560   46.2650 C   0  0  0  0  0  0  0  0  0  0  0  0
   58.7240   33.0190   46.8730 C   0  0  0  0  0  0  0  0  0  0  0  0
   59.8910   33.5420   47.4280 C   0  0  0  0  0  0  0  0  0  0  0  0
   61.0740   32.8020   47.3990 C   0  0  0  0  0  0  0  0  0  0  0  0
   62.5490   33.4860   48.0820 S   0  0  0  0  0  0  0  0  0  0  0  0
   62.2140   34.6120   49.0230 O   0  0  0  0  0  0  0  0  0  0  0  0
   63.3970   34.0300   46.9690 O   0  0  0  0  0  0  0  0  0  0  0  0
   63.4340   32.2530   48.9280 N   0  0  0  0  0  0  0  0  0  0  0  0
   62.9110   32.1110   50.2880 C   0  0  0  0  0  0  0  0  0  0  0  0
   61.5110   31.5680   50.2360 C   0  0  0  0  0  0  0  0  0  0  0  0
   60.4270   32.3540   50.6630 C   0  0  0  0  0  0  0  0  0  0  0  0
   59.1300   31.8310   50.6460 C   0  0  0  0  0  0  0  0  0  0  0  0
   58.9070   30.5210   50.2140 C   0  0  0  0  0  0  0  0  0  0  0  0
   59.9820   29.7280   49.8040 C   0  0  0  0  0  0  0  0  0  0  0  0
   61.2820   30.2460   49.8190 C   0  0  0  0  0  0  0  0  0  0  0  0
   61.0840   31.5390   46.7990 C   0  0  0  0  0  0  0  0  0  0  0  0
   59.9160   31.0030   46.2250 C   0  0  0  0  0  0  0  0  0  0  0  0
   59.9840   29.6430   45.5900 C   0  0  0  0  0  0  0  0  0  0  0  0
   59.4260   29.6840   44.1710 C   0  0  0  0  0  0  0  0  0  0  0  0
   57.9970   29.3720   44.1900 N   0  0  0  0  0  0  0  0  0  0  0  0
   57.5110   28.2060   43.4360 C   0  0  0  0  0  0  0  0  0  0  0  0
   58.3270   26.9630   43.7990 C   0  0  0  0  0  0  0  0  0  0  0  0
   58.6680   26.9600   45.2650 C   0  0  0  0  0  0  0  0  0  0  0  0
   59.9700   26.6490   45.6880 C   0  0  0  0  0  0  0  0  0  0  0  0
   60.2950   26.6780   47.0490 C   0  0  0  0  0  0  0  0  0  0  0  0
   59.3250   27.0290   47.9930 C   0  0  0  0  0  0  0  0  0  0  0  0
   58.0310   27.3530   47.5770 C   0  0  0  0  0  0  0  0  0  0  0  0
   57.7020   27.3250   46.2180 C   0  0  0  0  0  0  0  0  0  0  0  0
   57.7947   33.6063   46.9128 H   0  0  0  0  0  0  0  0  0  0  0  0
   59.8794   34.5403   47.8899 H   0  0  0  0  0  0  0  0  0  0  0  0
   64.4240   32.5830   48.9930 H   0  0  0  0  0  0  0  0  0  0  0  0
   63.5509   31.4196   50.8559 H   0  0  0  0  0  0  0  0  0  0  0  0
   62.9031   33.0945   50.7807 H   0  0  0  0  0  0  0  0  0  0  0  0
   60.5991   33.3831   51.0114 H   0  0  0  0  0  0  0  0  0  0  0  0
   58.2835   32.4524   50.9735 H   0  0  0  0  0  0  0  0  0  0  0  0
   57.8852   30.1140   50.1967 H   0  0  0  0  0  0  0  0  0  0  0  0
   59.8062   28.6951   49.4690 H   0  0  0  0  0  0  0  0  0  0  0  0
   62.1269   29.6163   49.5034 H   0  0  0  0  0  0  0  0  0  0  0  0
   62.0169   30.9567   46.7753 H   0  0  0  0  0  0  0  0  0  0  0  0
   61.0324   29.3117   45.5567 H   0  0  0  0  0  0  0  0  0  0  0  0
   59.3821   28.9424   46.1874 H   0  0  0  0  0  0  0  0  0  0  0  0
   59.5745   30.6891   43.7493 H   0  0  0  0  0  0  0  0  0  0  0  0
   59.9513   28.9408   43.5531 H   0  0  0  0  0  0  0  0  0  0  0  0
   56.4531   28.0303   43.6810 H   0  0  0  0  0  0  0  0  0  0  0  0
   57.6197   28.4045   42.3595 H   0  0  0  0  0  0  0  0  0  0  0  0
   57.7392   26.0636   43.5631 H   0  0  0  0  0  0  0  0  0  0  0  0
   59.2613   26.9713   43.2185 H   0  0  0  0  0  0  0  0  0  0  0  0
   60.7377   26.3815   44.9469 H   0  0  0  0  0  0  0  0  0  0  0  0
   61.3141   26.4245   47.3763 H   0  0  0  0  0  0  0  0  0  0  0  0
   59.5805   27.0501   49.0627 H   0  0  0  0  0  0  0  0  0  0  0  0
   57.2692   27.6308   48.3203 H   0  0  0  0  0  0  0  0  0  0  0  0
   56.6845   27.5894   45.8943 H   0  0  0  0  0  0  0  0  0  0  0  0
  1  2  2  0
  2  3  1  0
  3  4  1  0
  4  5  2  0
  5  6  1  0
  6  7  2  0
  7  8  1  0
  8  9  2  0
  8 10  2  0
  8 11  1  0
 11 12  1  0
 12 13  1  0
 13 14  2  0
 14 15  1  0
 15 16  2  0
 16 17  1  0
 17 18  2  0
  7 19  1  0
 19 20  2  0
 20 21  1  0
 21 22  1  0
 22 23  1  0
 23 24  1  0
 24 25  1  0
 25 26  1  0
 26 27  2  0
 27 28  1  0
 28 29  2  0
 29 30  1  0
 30 31  2  0
 23  2  1  0
 31 26  1  0
 20  4  1  0
 18 13  1  0
  5 32  1  0
  6 33  1  0
 11 34  1  0
 12 35  1  0
 12 36  1  0
 14 37  1  0
 15 38  1  0
 16 39  1  0
 17 40  1  0
 18 41  1  0
 19 42  1  0
 21 43  1  0
 21 44  1  0
 22 45  1  0
 22 46  1  0
 24 47  1  0
 24 48  1  0
 25 49  1  0
 25 50  1  0
 27 51  1  0
 28 52  1  0
 29 53  1  0
 30 54  1  0
 31 55  1  0
M  CHG  1   3  -1
M  END
>  <UniqueID>  (73) 
69

>  <SMILES>  (73) 
O=C1[N-]c2ccc(S(=O)(=O)NCc3ccccc3)cc2CCN1CCc1ccccc1

>  <Energy>  (73) 
61.07947179718024

>  <Genealogy>  (73) 
O=C1[N-]c2ccc(S(=O)(=O)NCc3ccccc3)cc2CCN1CCc1ccccc1 (protonated)
O=C1[N-]c2ccc(S(=O)(=O)NCc3ccccc3)cc2CCN1CCc1ccccc1 (3D coordinates assigned)
O=C1[N-]c2ccc(S(=O)(=O)NCc3ccccc3)cc2CCN1CCc1ccccc1 (nonaromatic ring conformer: 61.07947179718024 kcal/mol)

>  <smiles>  (73) 
O=C1Nc2ccc(S(=O)(=O)NCc3ccccc3)cc2CCN1CCc1ccccc1

>  <score_type>  (73) 
oracle

>  <origin>  (73) 
adg

>  <m_score__min__energy>  (73) 
-8.6699999999999999

>  <m_primary>  (73) 
energy

$$$$
74:0
     RDKit          3D

 39 40  0  0  0  0  0  0  0  0999 V2000
   65.5940   32.7850   49.8410 C   0  0  0  0  0  0  0  0  0  0  0  0
   64.7910   33.2230   48.7490 O   0  0  0  0  0  0  0  0  0  0  0  0
   63.3920   33.3220   48.7850 C   0  0  0  0  0  0  0  0  0  0  0  0
   62.7170   34.1410   49.7100 C   0  0  0  0  0  0  0  0  0  0  0  0
   61.3220   34.2170   49.6930 C   0  0  0  0  0  0  0  0  0  0  0  0
   60.5900   33.4740   48.7650 C   0  0  0  0  0  0  0  0  0  0  0  0
   61.2440   32.6330   47.8550 C   0  0  0  0  0  0  0  0  0  0  0  0
   60.4670   31.8960   46.8970 N   0  0  0  0  0  0  0  0  0  0  0  0
   59.1300   32.2480   46.5020 C   0  0  0  0  0  0  0  0  0  0  0  0
   58.5640   33.2650   46.9870 O   0  0  0  0  0  0  0  0  0  0  0  0
   58.3950   31.4140   45.5270 C   0  0  0  0  0  0  0  0  0  0  0  0
   57.8020   32.0540   44.4380 C   0  0  0  0  0  0  0  0  0  0  0  0
   57.0640   31.3260   43.5160 C   0  0  0  0  0  0  0  0  0  0  0  0
   56.8970   29.9550   43.6940 C   0  0  0  0  0  0  0  0  0  0  0  0
   56.2150   29.3170   42.8420 O   0  0  0  0  0  0  0  0  0  0  0  0
   57.4640   29.3100   44.7680 N   0  0  0  0  0  0  0  0  0  0  0  0
   57.2390   27.8570   44.9230 C   0  0  0  0  0  0  0  0  0  0  0  0
   55.9770   27.6280   45.6130 N   0  0  0  0  0  0  0  0  0  0  0  0
   55.5890   26.3260   46.0420 C   0  0  0  0  0  0  0  0  0  0  0  0
   54.3840   25.9750   45.9680 O   0  0  0  0  0  0  0  0  0  0  0  0
   58.2700   30.0050   45.6530 C   0  0  0  0  0  0  0  0  0  0  0  0
   59.0330   29.2730   46.7420 C   0  0  0  0  0  0  0  0  0  0  0  0
   62.6490   32.5780   47.8600 C   0  0  0  0  0  0  0  0  0  0  0  0
   65.1027   33.0530   50.7880 H   0  0  0  0  0  0  0  0  0  0  0  0
   65.7196   31.6934   49.7891 H   0  0  0  0  0  0  0  0  0  0  0  0
   66.5798   33.2704   49.7891 H   0  0  0  0  0  0  0  0  0  0  0  0
   63.2892   34.7225   50.4479 H   0  0  0  0  0  0  0  0  0  0  0  0
   60.7991   34.8640   50.4127 H   0  0  0  0  0  0  0  0  0  0  0  0
   59.4927   33.5493   48.7481 H   0  0  0  0  0  0  0  0  0  0  0  0
   60.9350   31.1010   46.4040 H   0  0  0  0  0  0  0  0  0  0  0  0
   57.9202   33.1401   44.3101 H   0  0  0  0  0  0  0  0  0  0  0  0
   56.6128   31.8295   42.6483 H   0  0  0  0  0  0  0  0  0  0  0  0
   57.2044   27.3841   43.9304 H   0  0  0  0  0  0  0  0  0  0  0  0
   58.0605   27.4212   45.5106 H   0  0  0  0  0  0  0  0  0  0  0  0
   56.3425   25.6289   46.4373 H   0  0  0  0  0  0  0  0  0  0  0  0
   58.6804   29.6113   47.7275 H   0  0  0  0  0  0  0  0  0  0  0  0
   58.8640   28.1905   46.6438 H   0  0  0  0  0  0  0  0  0  0  0  0
   60.1076   29.4867   46.6438 H   0  0  0  0  0  0  0  0  0  0  0  0
   63.1707   31.9431   47.1287 H   0  0  0  0  0  0  0  0  0  0  0  0
  1  2  1  0
  2  3  1  0
  3  4  2  0
  4  5  1  0
  5  6  2  0
  6  7  1  0
  7  8  1  0
  8  9  1  0
  9 10  2  0
  9 11  1  0
 11 12  1  0
 12 13  2  0
 13 14  1  0
 14 15  2  0
 14 16  1  0
 16 17  1  0
 17 18  1  0
 18 19  1  0
 19 20  2  0
 16 21  1  0
 21 22  1  0
  7 23  2  0
 23  3  1  0
 21 11  2  0
  1 24  1  0
  1 25  1  0
  1 26  1  0
  4 27  1  0
  5 28  1  0
  6 29  1  0
  8 30  1  0
 12 31  1  0
 13 32  1  0
 17 33  1  0
 17 34  1  0
 19 35  1  0
 22 36  1  0
 22 37  1  0
 22 38  1  0
 23 39  1  0
M  CHG  1  18  -1
M  END
>  <UniqueID>  (74) 
70

>  <SMILES>  (74) 
COc1cccc(NC(=O)c2ccc(=O)n(C[N-]C=O)c2C)c1

>  <Energy>  (74) 
52.16059931120756

>  <Genealogy>  (74) 
COc1cccc(NC(=O)c2ccc(=O)n(C[N-]C=O)c2C)c1 (protonated)
COc1cccc(NC(=O)c2ccc(=O)n(C[N-]C=O)c2C)c1 (3D coordinates assigned)
COc1cccc(NC(=O)c2ccc(=O)n(C[N-]C=O)c2C)c1 (optimized conformer: 52.16059931120756 kcal/mol)

>  <smiles>  (74) 
COc1cccc(NC(=O)c2ccc(=O)n(CNC=O)c2C)c1

>  <score_type>  (74) 
oracle

>  <origin>  (74) 
adg

>  <m_score__min__energy>  (74) 
-8.8200000000000003

>  <m_primary>  (74) 
energy

$$$$
75:0
     RDKit          3D

 24 25  0  0  0  0  0  0  0  0999 V2000
   64.1520   32.9580   47.2230 N   0  0  0  0  0  0  0  0  0  0  0  0
   62.8030   32.8290   48.2960 S   0  0  0  0  0  0  0  0  0  0  0  0
   63.1250   31.8510   49.3910 O   0  0  0  0  0  0  0  0  0  0  0  0
   62.5240   34.1700   48.9140 O   0  0  0  0  0  0  0  0  0  0  0  0
   61.3870   32.2780   47.4040 C   0  0  0  0  0  0  0  0  0  0  0  0
   60.3500   33.1710   47.1080 C   0  0  0  0  0  0  0  0  0  0  0  0
   59.2320   32.7390   46.3870 C   0  0  0  0  0  0  0  0  0  0  0  0
   59.1420   31.4070   45.9410 C   0  0  0  0  0  0  0  0  0  0  0  0
   57.9940   30.9410   45.2070 N   0  0  0  0  0  0  0  0  0  0  0  0
   57.1410   30.0450   45.6840 N   0  0  0  0  0  0  0  0  0  0  0  0
   56.2090   29.8350   44.7320 C   0  0  0  0  0  0  0  0  0  0  0  0
   55.1460   28.9540   44.8760 O   0  0  0  0  0  0  0  0  0  0  0  0
   56.4620   30.6010   43.6120 C   0  0  0  0  0  0  0  0  0  0  0  0
   57.6080   31.2800   43.9560 C   0  0  0  0  0  0  0  0  0  0  0  0
   58.2310   32.0730   43.2010 O   0  0  0  0  0  0  0  0  0  0  0  0
   60.1840   30.5170   46.2490 C   0  0  0  0  0  0  0  0  0  0  0  0
   61.3020   30.9500   46.9680 C   0  0  0  0  0  0  0  0  0  0  0  0
   64.2700   32.0240   46.7680 H   0  0  0  0  0  0  0  0  0  0  0  0
   64.9980   33.1130   47.8140 H   0  0  0  0  0  0  0  0  0  0  0  0
   60.4148   34.2165   47.4438 H   0  0  0  0  0  0  0  0  0  0  0  0
   58.4176   33.4450   46.1670 H   0  0  0  0  0  0  0  0  0  0  0  0
   55.8884   30.6552   42.6749 H   0  0  0  0  0  0  0  0  0  0  0  0
   60.1197   29.4689   45.9212 H   0  0  0  0  0  0  0  0  0  0  0  0
   62.1169   30.2458   47.1918 H   0  0  0  0  0  0  0  0  0  0  0  0
  1  2  1  0
  2  3  2  0
  2  4  2  0
  2  5  1  0
  5  6  2  0
  6  7  1  0
  7  8  2  0
  8  9  1  0
  9 10  1  0
 10 11  1  0
 11 12  1  0
 11 13  2  0
 13 14  1  0
 14 15  2  0
  8 16  1  0
 16 17  2  0
 17  5  1  0
 14  9  1  0
  1 18  1  0
  1 19  1  0
  6 20  1  0
  7 21  1  0
 13 22  1  0
 16 23  1  0
 17 24  1  0
M  CHG  2  10  -1  12  -1
M  END
>  <UniqueID>  (75) 
71

>  <SMILES>  (75) 
NS(=O)(=O)c1ccc(-n2[n-]c([O-])cc2=O)cc1

>  <Energy>  (75) 
60.11848036916013

>  <Genealogy>  (75) 
NS(=O)(=O)c1ccc(-n2[n-]c([O-])cc2=O)cc1 (protonated)
NS(=O)(=O)c1ccc(-n2[n-]c([O-])cc2=O)cc1 (3D coordinates assigned)
NS(=O)(=O)c1ccc(-n2[n-]c([O-])cc2=O)cc1 (optimized conformer: 60.11848036916013 kcal/mol)

>  <smiles>  (75) 
NS(=O)(=O)c1ccc(-n2[nH]c(O)cc2=O)cc1

>  <score_type>  (75) 
oracle

>  <origin>  (75) 
adg

>  <m_score__min__energy>  (75) 
-11.49

>  <m_primary>  (75) 
energy

$$$$
76:0
     RDKit          3D

 31 33  0  0  0  0  0  0  0  0999 V2000
   55.8160   29.3320   44.5750 O   0  0  0  0  0  0  0  0  0  0  0  0
   57.0180   29.6330   44.8040 C   0  0  0  0  0  0  0  0  0  0  0  0
   57.3170   30.8800   45.2490 N   0  0  0  0  0  0  0  0  0  0  0  0
   58.5990   31.2590   45.5050 C   0  0  0  0  0  0  0  0  0  0  0  0
   58.8660   32.6360   45.9910 C   0  0  0  0  0  0  0  0  0  0  0  0
   58.9960   33.7130   45.0920 C   0  0  0  0  0  0  0  0  0  0  0  0
   59.2560   35.0040   45.5670 C   0  0  0  0  0  0  0  0  0  0  0  0
   59.3920   35.2330   46.9380 C   0  0  0  0  0  0  0  0  0  0  0  0
   59.2770   34.1710   47.8370 C   0  0  0  0  0  0  0  0  0  0  0  0
   59.0190   32.8790   47.3690 C   0  0  0  0  0  0  0  0  0  0  0  0
   59.6140   30.3710   45.2920 N   0  0  0  0  0  0  0  0  0  0  0  0
   59.3600   29.1120   44.8480 C   0  0  0  0  0  0  0  0  0  0  0  0
   58.0450   28.6980   44.6040 C   0  0  0  0  0  0  0  0  0  0  0  0
   57.7710   27.3150   44.0740 C   0  0  0  0  0  0  0  0  0  0  0  0
   57.5190   26.3700   45.2060 C   0  0  0  0  0  0  0  0  0  0  0  0
   58.4230   25.4410   45.7060 C   0  0  0  0  0  0  0  0  0  0  0  0
   57.8850   24.6400   46.7210 C   0  0  0  0  0  0  0  0  0  0  0  0
   56.5560   24.9270   47.0120 C   0  0  0  0  0  0  0  0  0  0  0  0
   56.0510   26.1750   46.0040 S   0  0  0  0  0  0  0  0  0  0  0  0
   58.8926   33.5385   44.0109 H   0  0  0  0  0  0  0  0  0  0  0  0
   59.3534   35.8400   44.8587 H   0  0  0  0  0  0  0  0  0  0  0  0
   59.5896   36.2494   47.3093 H   0  0  0  0  0  0  0  0  0  0  0  0
   59.3897   34.3512   48.9163 H   0  0  0  0  0  0  0  0  0  0  0  0
   58.9350   32.0463   48.0829 H   0  0  0  0  0  0  0  0  0  0  0  0
   60.6090   30.6500   45.4340 H   0  0  0  0  0  0  0  0  0  0  0  0
   60.1930   28.4137   44.6792 H   0  0  0  0  0  0  0  0  0  0  0  0
   56.8862   27.3445   43.4211 H   0  0  0  0  0  0  0  0  0  0  0  0
   58.6458   26.9684   43.5043 H   0  0  0  0  0  0  0  0  0  0  0  0
   59.4564   25.3444   45.3416 H   0  0  0  0  0  0  0  0  0  0  0  0
   58.4594   23.8579   47.2390 H   0  0  0  0  0  0  0  0  0  0  0  0
   55.9400   24.4237   47.7718 H   0  0  0  0  0  0  0  0  0  0  0  0
  1  2  2  0
  2  3  1  0
  3  4  2  0
  4  5  1  0
  5  6  2  0
  6  7  1  0
  7  8  2  0
  8  9  1  0
  9 10  2  0
  4 11  1  0
 11 12  1  0
 12 13  2  0
 13 14  1  0
 14 15  1  0
 15 16  2  0
 16 17  1  0
 17 18  2  0
 18 19  1  0
 13  2  1  0
 19 15  1  0
 10  5  1  0
  6 20  1  0
  7 21  1  0
  8 22  1  0
  9 23  1  0
 10 24  1  0
 11 25  1  0
 12 26  1  0
 14 27  1  0
 14 28  1  0
 16 29  1  0
 17 30  1  0
 18 31  1  0
M  END
>  <UniqueID>  (76) 
72

>  <SMILES>  (76) 
O=c1nc(-c2ccccc2)[nH]cc1Cc1cccs1

>  <Energy>  (76) 
62.428955929988135

>  <Genealogy>  (76) 
O=c1nc(-c2ccccc2)[nH]cc1Cc1cccs1 (3D coordinates assigned)
O=c1nc(-c2ccccc2)[nH]cc1Cc1cccs1 (optimized conformer: 62.428955929988135 kcal/mol)

>  <smiles>  (76) 
O=c1nc(-c2ccccc2)[nH]cc1Cc1cccs1

>  <score_type>  (76) 
oracle

>  <origin>  (76) 
adg

>  <m_score__min__energy>  (76) 
-7.0800000000000001

>  <m_primary>  (76) 
energy

$$$$
77:0
     RDKit          3D

 40 42  0  0  0  0  0  0  0  0999 V2000
   59.5744   29.6150   46.3695 H   0  0  0  0  0  0  0  0  0  0  0  0
   58.5670   29.3100   46.0500 C   0  0  0  0  0  0  0  0  0  0  0  0
   58.0790   28.0980   46.4160 N   0  0  0  0  0  0  0  0  0  0  0  0
   56.8410   27.6880   46.0410 C   0  0  0  0  0  0  0  0  0  0  0  0
   56.4360   26.5090   46.4210 N   0  0  0  0  0  0  0  0  0  0  0  0
   56.4910   25.2860   45.6730 C   0  0  0  0  0  0  0  0  0  0  0  0
   55.2970   24.6500   45.3130 C   0  0  0  0  0  0  0  0  0  0  0  0
   54.3340   25.0666   45.6434 H   0  0  0  0  0  0  0  0  0  0  0  0
   55.3220   23.4870   44.5350 C   0  0  0  0  0  0  0  0  0  0  0  0
   54.3809   22.9823   44.2712 H   0  0  0  0  0  0  0  0  0  0  0  0
   56.5430   22.9650   44.0920 C   0  0  0  0  0  0  0  0  0  0  0  0
   56.5680   21.7700   43.2910 C   0  0  0  0  0  0  0  0  0  0  0  0
   56.5880   20.8080   42.6460 N   0  0  0  0  0  0  0  0  0  0  0  0
   57.7390   23.6170   44.4190 C   0  0  0  0  0  0  0  0  0  0  0  0
   58.6991   23.2139   44.0643 H   0  0  0  0  0  0  0  0  0  0  0  0
   57.7140   24.7800   45.1960 C   0  0  0  0  0  0  0  0  0  0  0  0
   58.6533   25.3004   45.4347 H   0  0  0  0  0  0  0  0  0  0  0  0
   56.0770   28.4980   45.2450 N   0  0  0  0  0  0  0  0  0  0  0  0
   55.1490   28.1830   44.8850 H   0  0  0  0  0  0  0  0  0  0  0  0
   56.5250   29.7240   44.8570 C   0  0  0  0  0  0  0  0  0  0  0  0
   55.8000   30.4470   44.1210 O   0  0  0  0  0  0  0  0  0  0  0  0
   57.7930   30.1720   45.2680 C   0  0  0  0  0  0  0  0  0  0  0  0
   58.3470   31.5050   44.8320 C   0  0  0  0  0  0  0  0  0  0  0  0
   57.5154   32.1728   44.5628 H   0  0  0  0  0  0  0  0  0  0  0  0
   59.0045   31.3518   43.9635 H   0  0  0  0  0  0  0  0  0  0  0  0
   59.1450   32.1300   45.9450 C   0  0  0  0  0  0  0  0  0  0  0  0
   58.6920   33.3030   46.5670 C   0  0  0  0  0  0  0  0  0  0  0  0
   57.7635   33.7799   46.2197 H   0  0  0  0  0  0  0  0  0  0  0  0
   59.4090   33.8720   47.6240 C   0  0  0  0  0  0  0  0  0  0  0  0
   58.9270   35.0080   48.1860 F   0  0  0  0  0  0  0  0  0  0  0  0
   60.6000   33.2620   48.0820 C   0  0  0  0  0  0  0  0  0  0  0  0
   61.3770   33.7710   49.1370 O   0  0  0  0  0  0  0  0  0  0  0  0
   62.7590   34.1050   49.0620 C   0  0  0  0  0  0  0  0  0  0  0  0
   63.1680   34.2038   50.0783 H   0  0  0  0  0  0  0  0  0  0  0  0
   63.2993   33.3116   48.5249 H   0  0  0  0  0  0  0  0  0  0  0  0
   62.8774   35.0576   48.5249 H   0  0  0  0  0  0  0  0  0  0  0  0
   61.0430   32.0860   47.4610 C   0  0  0  0  0  0  0  0  0  0  0  0
   62.1800   31.4810   47.8870 F   0  0  0  0  0  0  0  0  0  0  0  0
   60.3200   31.5220   46.4050 C   0  0  0  0  0  0  0  0  0  0  0  0
   60.6765   30.5948   45.9326 H   0  0  0  0  0  0  0  0  0  0  0  0
  1  2  1  0
  2  3  1  0
  3  4  1  0
  4  5  2  0
  5  6  1  0
  6  7  2  0
  7  8  1  0
  7  9  1  0
  9 10  1  0
  9 11  2  0
 11 12  1  0
 12 13  3  0
 11 14  1  0
 14 15  1  0
 14 16  2  0
 16 17  1  0
  4 18  1  0
 18 19  1  0
 18 20  1  0
 20 21  2  0
 20 22  1  0
 22 23  1  0
 23 24  1  0
 23 25  1  0
 23 26  1  0
 26 27  2  0
 27 28  1  0
 27 29  1  0
 29 30  1  0
 29 31  2  0
 31 32  1  0
 32 33  1  0
 33 34  1  0
 33 35  1  0
 33 36  1  0
 31 37  1  0
 37 38  1  0
 37 39  2  0
 39 40  1  0
 22  2  2  0
 39 26  1  0
 16  6  1  0
M  CHG  1   3  -1
M  END
>  <UniqueID>  (77) 
73

>  <SMILES>  (77) 
COc1c(F)cc(Cc2c[n-]/c(=N/c3ccc(C#N)cc3)[nH]c2=O)cc1F

>  <Energy>  (77) 
52.82072045207492

>  <Genealogy>  (77) 
COc1c(F)cc(Cc2c[n-]c(=Nc3ccc(C#N)cc3)[nH]c2=O)cc1F (protonated)
COc1c(F)cc(Cc2c[n-]/c(=N/c3ccc(C#N)cc3)[nH]c2=O)cc1F (cis-trans isomerization)
COc1c(F)cc(Cc2c[n-]/c(=N/c3ccc(C#N)cc3)[nH]c2=O)cc1F (3D coordinates assigned)
COc1c(F)cc(Cc2c[n-]/c(=N/c3ccc(C#N)cc3)[nH]c2=O)cc1F (optimized conformer: 52.82072045207492 kcal/mol)

>  <smiles>  (77) 
COc1c(F)cc(Cc2c[nH]c(=Nc3ccc(C#N)cc3)[nH]c2=O)cc1F

>  <score_type>  (77) 
oracle

>  <origin>  (77) 
adg

>  <m_score__min__energy>  (77) 
-9.5800000000000001

>  <m_primary>  (77) 
energy

$$$$
78:0
     RDKit          3D

 44 47  0  0  0  0  0  0  0  0999 V2000
   59.7720   33.6960   48.9940 C   0  0  0  0  0  0  0  0  0  0  0  0
   60.3940   33.0990   47.7070 C   0  0  1  0  0  0  0  0  0  0  0  0
   59.3540   33.2830   46.5710 C   0  0  0  0  0  0  0  0  0  0  0  0
   58.5550   32.1670   46.2220 C   0  0  0  0  0  0  0  0  0  0  0  0
   57.5670   32.2490   45.2260 C   0  0  0  0  0  0  0  0  0  0  0  0
   56.7700   31.1150   44.8520 N   0  0  0  0  0  0  0  0  0  0  0  0
   57.0000   29.7510   45.2250 C   0  0  0  0  0  0  0  0  0  0  0  0
   56.0540   28.9180   45.2410 O   0  0  0  0  0  0  0  0  0  0  0  0
   58.3640   29.3110   45.5360 C   0  0  0  0  0  0  0  0  0  0  0  0
   59.2940   28.8170   44.6480 C   0  0  0  0  0  0  0  0  0  0  0  0
   60.3940   28.5570   45.4370 C   0  0  0  0  0  0  0  0  0  0  0  0
   60.1160   28.8830   46.7140 N   0  0  0  0  0  0  0  0  0  0  0  0
   58.8930   29.3300   46.7370 O   0  0  0  0  0  0  0  0  0  0  0  0
   57.3890   33.4470   44.5370 C   0  0  0  0  0  0  0  0  0  0  0  0
   58.1480   34.5660   44.8680 C   0  0  0  0  0  0  0  0  0  0  0  0
   59.1110   34.5040   45.8780 C   0  0  0  0  0  0  0  0  0  0  0  0
   59.7860   35.6470   46.1410 F   0  0  0  0  0  0  0  0  0  0  0  0
   61.7520   33.7920   47.4190 C   0  0  0  0  0  0  0  0  0  0  0  0
   62.9900   33.4640   48.6660 S   0  0  0  0  0  0  0  0  0  0  0  0
   64.3320   33.3530   47.9980 O   0  0  0  0  0  0  0  0  0  0  0  0
   63.0200   34.6090   49.6400 O   0  0  0  0  0  0  0  0  0  0  0  0
   62.6000   31.9300   49.5070 C   0  0  0  0  0  0  0  0  0  0  0  0
   63.8010   31.2470   50.1600 C   0  0  0  0  0  0  0  0  0  0  0  0
   62.7480   31.9350   51.0240 C   0  0  0  0  0  0  0  0  0  0  0  0
   61.4690   31.0970   48.9300 C   0  0  0  0  0  0  0  0  0  0  0  0
   61.2220   29.8850   49.3400 N   0  0  0  0  0  0  0  0  0  0  0  0
   60.6420   31.6530   47.8930 N   0  0  0  0  0  0  0  0  0  0  0  0
   60.2464   33.2407   49.8758 H   0  0  0  0  0  0  0  0  0  0  0  0
   59.9359   34.7836   49.0100 H   0  0  0  0  0  0  0  0  0  0  0  0
   58.6920   33.4877   49.0100 H   0  0  0  0  0  0  0  0  0  0  0  0
   58.7118   31.2115   46.7439 H   0  0  0  0  0  0  0  0  0  0  0  0
   59.1846   28.6656   43.5640 H   0  0  0  0  0  0  0  0  0  0  0  0
   61.3501   28.1471   45.0794 H   0  0  0  0  0  0  0  0  0  0  0  0
   56.6458   33.5087   43.7284 H   0  0  0  0  0  0  0  0  0  0  0  0
   57.9875   35.5106   44.3276 H   0  0  0  0  0  0  0  0  0  0  0  0
   62.1287   33.4332   46.4498 H   0  0  0  0  0  0  0  0  0  0  0  0
   61.5707   34.8770   47.4166 H   0  0  0  0  0  0  0  0  0  0  0  0
   63.8790   30.1498   50.1568 H   0  0  0  0  0  0  0  0  0  0  0  0
   64.8932   31.3245   50.0543 H   0  0  0  0  0  0  0  0  0  0  0  0
   62.0676   31.3334   51.6446 H   0  0  0  0  0  0  0  0  0  0  0  0
   62.7679   32.7142   51.8002 H   0  0  0  0  0  0  0  0  0  0  0  0
   61.5920   29.4980   50.2330 H   0  0  0  0  0  0  0  0  0  0  0  0
   60.6020   29.2560   48.7830 H   0  0  0  0  0  0  0  0  0  0  0  0
   60.1940   30.9700   47.2390 H   0  0  0  0  0  0  0  0  0  0  0  0
  2  1  1  1
  2  3  1  0
  3  4  2  0
  4  5  1  0
  5  6  1  0
  6  7  1  0
  7  8  2  0
  7  9  1  0
  9 10  2  0
 10 11  1  0
 11 12  2  0
 12 13  1  0
  5 14  2  0
 14 15  1  0
 15 16  2  0
 16 17  1  0
  2 18  1  0
 18 19  1  0
 19 20  2  0
 19 21  2  0
 19 22  1  0
 22 23  1  0
 23 24  1  0
 22 25  1  0
 25 26  2  0
 25 27  1  0
 27  2  1  0
 16  3  1  0
 24 22  1  0
 13  9  1  0
  1 28  1  0
  1 29  1  0
  1 30  1  0
  4 31  1  0
 10 32  1  0
 11 33  1  0
 14 34  1  0
 15 35  1  0
 18 36  1  0
 18 37  1  0
 23 38  1  0
 23 39  1  0
 24 40  1  0
 24 41  1  0
 26 42  1  0
 26 43  1  0
 27 44  1  0
M  CHG  2   6  -1  26   1
M  END
>  <UniqueID>  (78) 
74

>  <SMILES>  (78) 
C[C@@]1(c2cc([N-]C(=O)c3ccno3)ccc2F)CS(=O)(=O)C2(CC2)C(=[NH2+])N1

>  <Energy>  (78) 
356.50499537977856

>  <Genealogy>  (78) 
CC1(c2cc([N-]C(=O)c3ccno3)ccc2F)CS(=O)(=O)C2(CC2)C(=[NH2+])N1 (protonated)
C[C@@]1(c2cc([N-]C(=O)c3ccno3)ccc2F)CS(=O)(=O)C2(CC2)C(=[NH2+])N1 (chirality)
C[C@@]1(c2cc([N-]C(=O)c3ccno3)ccc2F)CS(=O)(=O)C2(CC2)C(=[NH2+])N1 (3D coordinates assigned)
C[C@@]1(c2cc([N-]C(=O)c3ccno3)ccc2F)CS(=O)(=O)C2(CC2)C(=[NH2+])N1 (nonaromatic ring conformer: 356.50499537977856 kcal/mol)

>  <smiles>  (78) 
CC1(c2cc(NC(=O)c3ccno3)ccc2F)CS(=O)(=O)C2(CC2)C(=N)N1

>  <score_type>  (78) 
oracle

>  <origin>  (78) 
adg

>  <m_score__min__energy>  (78) 
-8.1099999999999994

>  <m_primary>  (78) 
energy

$$$$
79:0
     RDKit          3D

 45 47  0  0  0  0  0  0  0  0999 V2000
   57.7218   20.1609   44.5789 H   0  0  0  0  0  0  0  0  0  0  0  0
   57.4190   21.1720   44.2690 C   0  0  0  0  0  0  0  0  0  0  0  0
   57.4240   22.5470   45.2400 S   0  0  0  0  0  0  0  0  0  0  0  0
   56.8640   23.5490   44.0140 C   0  0  0  0  0  0  0  0  0  0  0  0
   56.6340   24.8190   44.1880 N   0  0  0  0  0  0  0  0  0  0  0  0
   56.6120   25.5620   45.4190 C   0  0  0  0  0  0  0  0  0  0  0  0
   55.8420   25.2270   46.3590 O   0  0  0  0  0  0  0  0  0  0  0  0
   57.4560   26.7730   45.5610 C   0  0  0  0  0  0  0  0  0  0  0  0
   58.6720   26.7150   46.2600 C   0  0  0  0  0  0  0  0  0  0  0  0
   58.9977   25.7658   46.7104 H   0  0  0  0  0  0  0  0  0  0  0  0
   59.4710   27.8520   46.3880 C   0  0  0  0  0  0  0  0  0  0  0  0
   60.4175   27.7908   46.9451 H   0  0  0  0  0  0  0  0  0  0  0  0
   59.0820   29.0720   45.8150 C   0  0  0  0  0  0  0  0  0  0  0  0
   59.9760   30.2720   45.9930 C   0  0  0  0  0  0  0  0  0  0  0  0
   60.1203   30.4657   47.0661 H   0  0  0  0  0  0  0  0  0  0  0  0
   60.9504   30.0765   45.5214 H   0  0  0  0  0  0  0  0  0  0  0  0
   59.5099   31.1497   45.5214 H   0  0  0  0  0  0  0  0  0  0  0  0
   57.8480   29.1510   45.1270 C   0  0  0  0  0  0  0  0  0  0  0  0
   57.2750   30.6570   44.3910 S   0  0  0  0  0  0  0  0  0  0  0  0
   58.2860   31.1730   43.4040 O   0  0  0  0  0  0  0  0  0  0  0  0
   55.9870   30.4020   43.6590 O   0  0  0  0  0  0  0  0  0  0  0  0
   57.0350   31.8420   45.6340 N   0  0  0  0  0  0  0  0  0  0  0  0
   57.9110   32.9570   45.8290 C   0  0  0  0  0  0  0  0  0  0  0  0
   58.0660   33.8610   44.7730 C   0  0  0  0  0  0  0  0  0  0  0  0
   57.4879   33.7225   43.8474 H   0  0  0  0  0  0  0  0  0  0  0  0
   58.9450   34.9340   44.8830 C   0  0  0  0  0  0  0  0  0  0  0  0
   59.0584   35.6382   44.0456 H   0  0  0  0  0  0  0  0  0  0  0  0
   59.6820   35.1190   46.0510 C   0  0  0  0  0  0  0  0  0  0  0  0
   60.3883   35.9592   46.1225 H   0  0  0  0  0  0  0  0  0  0  0  0
   59.5310   34.2420   47.1380 C   0  0  0  0  0  0  0  0  0  0  0  0
   60.3380   34.4900   48.3850 C   0  0  0  0  0  0  0  0  0  0  0  0
   59.7136   34.2981   49.2700 H   0  0  0  0  0  0  0  0  0  0  0  0
   61.2088   33.8180   48.3979 H   0  0  0  0  0  0  0  0  0  0  0  0
   60.6811   35.5350   48.3979 H   0  0  0  0  0  0  0  0  0  0  0  0
   58.5940   33.1770   47.0530 C   0  0  0  0  0  0  0  0  0  0  0  0
   58.3250   32.2940   48.2490 C   0  0  0  0  0  0  0  0  0  0  0  0
   58.4990   32.8651   49.1729 H   0  0  0  0  0  0  0  0  0  0  0  0
   57.2809   31.9487   48.2224 H   0  0  0  0  0  0  0  0  0  0  0  0
   58.9992   31.4253   48.2224 H   0  0  0  0  0  0  0  0  0  0  0  0
   57.0560   27.9970   44.9970 C   0  0  0  0  0  0  0  0  0  0  0  0
   56.1066   28.0527   44.4443 H   0  0  0  0  0  0  0  0  0  0  0  0
   56.6550   22.8550   42.8680 N   0  0  0  0  0  0  0  0  0  0  0  0
   56.2690   23.2350   41.9790 H   0  0  0  0  0  0  0  0  0  0  0  0
   56.9650   21.5380   43.0060 C   0  0  0  0  0  0  0  0  0  0  0  0
   56.8644   20.8169   42.1815 H   0  0  0  0  0  0  0  0  0  0  0  0
  1  2  1  0
  2  3  1  0
  3  4  1  0
  4  5  2  0
  5  6  1  0
  6  7  2  0
  6  8  1  0
  8  9  2  0
  9 10  1  0
  9 11  1  0
 11 12  1  0
 11 13  2  0
 13 14  1  0
 14 15  1  0
 14 16  1  0
 14 17  1  0
 13 18  1  0
 18 19  1  0
 19 20  2  0
 19 21  2  0
 19 22  1  0
 22 23  1  0
 23 24  2  0
 24 25  1  0
 24 26  1  0
 26 27  1  0
 26 28  2  0
 28 29  1  0
 28 30  1  0
 30 31  1  0
 31 32  1  0
 31 33  1  0
 31 34  1  0
 30 35  2  0
 35 36  1  0
 36 37  1  0
 36 38  1  0
 36 39  1  0
 18 40  2  0
 40 41  1  0
  4 42  1  0
 42 43  1  0
 42 44  1  0
 44 45  1  0
 44  2  2  0
 40  8  1  0
 35 23  1  0
M  CHG  1  22  -1
M  END
>  <UniqueID>  (79) 
75

>  <SMILES>  (79) 
Cc1ccc(C(=O)/N=c2\[nH]ccs2)cc1S(=O)(=O)[N-]c1cccc(C)c1C

>  <Energy>  (79) 
95.5366491948551

>  <Genealogy>  (79) 
Cc1ccc(C(=O)N=c2[nH]ccs2)cc1S(=O)(=O)[N-]c1cccc(C)c1C (protonated)
Cc1ccc(C(=O)/N=c2\[nH]ccs2)cc1S(=O)(=O)[N-]c1cccc(C)c1C (cis-trans isomerization)
Cc1ccc(C(=O)/N=c2\[nH]ccs2)cc1S(=O)(=O)[N-]c1cccc(C)c1C (3D coordinates assigned)
Cc1ccc(C(=O)/N=c2\[nH]ccs2)cc1S(=O)(=O)[N-]c1cccc(C)c1C (optimized conformer: 95.5366491948551 kcal/mol)

>  <smiles>  (79) 
Cc1ccc(C(=O)N=c2[nH]ccs2)cc1S(=O)(=O)Nc1cccc(C)c1C

>  <score_type>  (79) 
oracle

>  <origin>  (79) 
adg

>  <m_score__min__energy>  (79) 
-10.56

>  <m_primary>  (79) 
energy

$$$$
80:0
     RDKit          3D

 56 59  0  0  1  0  0  0  0  0999 V2000
   64.1480   32.7200   47.3920 N   0  0  0  0  0  0  0  0  0  0  0  0
   63.3310   33.7260   46.8260 C   0  0  0  0  0  0  0  0  0  0  0  0
   63.7440   34.5560   45.9940 O   0  0  0  0  0  0  0  0  0  0  0  0
   61.9370   33.7990   47.2320 C   0  0  0  0  0  0  0  0  0  0  0  0
   61.5990   34.1090   48.5550 C   0  0  0  0  0  0  0  0  0  0  0  0
   60.2680   34.1700   48.9110 C   0  0  0  0  0  0  0  0  0  0  0  0
   59.2570   33.9470   48.0530 N   0  0  0  0  0  0  0  0  0  0  0  0
   59.5530   33.6530   46.7980 C   0  0  0  0  0  0  0  0  0  0  0  0
   58.5290   33.4130   45.8670 N   0  0  0  0  0  0  0  0  0  0  0  0
   58.4310   32.2280   45.3660 C   0  0  0  0  0  0  0  0  0  0  0  0
   58.4940   30.9970   45.9910 C   0  0  0  0  0  0  0  0  0  0  0  0
   58.3300   30.0530   44.9990 C   0  0  0  0  0  0  0  0  0  0  0  0
   58.3210   28.6020   45.1590 C   0  0  0  0  0  0  0  0  0  0  0  0
   58.5490   28.0640   46.4100 C   0  0  0  0  0  0  0  0  0  0  0  0
   58.5450   26.6720   46.5770 C   0  0  0  0  0  0  0  0  0  0  0  0
   58.3130   25.8390   45.5030 C   0  0  0  0  0  0  0  0  0  0  0  0
   58.2940   24.3860   45.6000 C   0  0  0  0  0  0  0  0  0  0  0  0
   58.1460   23.8080   46.7320 O   0  0  0  0  0  0  0  0  0  0  0  0
   58.4320   23.5160   44.4870 N   0  0  0  0  0  0  0  0  0  0  0  0
   58.4130   22.0720   44.5880 C   0  0  0  0  0  0  0  0  0  0  0  0
   57.6180   21.4280   43.4960 C   0  0  0  0  0  0  0  0  0  0  0  0
   56.2380   21.2520   43.8020 N   0  0  0  0  0  0  0  0  0  0  0  0
   55.9310   20.0260   44.4790 C   0  0  0  0  0  0  0  0  0  0  0  0
   56.1930   20.3900   45.9260 C   0  0  0  0  0  0  0  0  0  0  0  0
   55.5680   21.7670   46.0130 C   0  0  0  0  0  0  0  0  0  0  0  0
   55.6710   22.3000   44.5910 C   0  0  0  0  0  0  0  0  0  0  0  0
   58.0900   26.4180   44.2700 C   0  0  0  0  0  0  0  0  0  0  0  0
   58.0870   27.7860   44.0710 C   0  0  0  0  0  0  0  0  0  0  0  0
   58.1770   30.7040   43.8300 N   0  0  0  0  0  0  0  0  0  0  0  0
   58.2370   32.0290   44.0420 N   0  0  0  0  0  0  0  0  0  0  0  0
   60.8840   33.5750   46.3720 C   0  0  0  0  0  0  0  0  0  0  0  0
   64.7730   32.8410   48.2060 H   0  0  0  0  0  0  0  0  0  0  0  0
   64.1010   31.7690   46.9280 H   0  0  0  0  0  0  0  0  0  0  0  0
   62.3847   34.3013   49.3005 H   0  0  0  0  0  0  0  0  0  0  0  0
   60.0198   34.4146   49.9544 H   0  0  0  0  0  0  0  0  0  0  0  0
   58.6447   30.8081   47.0641 H   0  0  0  0  0  0  0  0  0  0  0  0
   58.7327   28.7238   47.2707 H   0  0  0  0  0  0  0  0  0  0  0  0
   58.7283   26.2411   47.5724 H   0  0  0  0  0  0  0  0  0  0  0  0
   58.5550   23.9540   43.5470 H   0  0  0  0  0  0  0  0  0  0  0  0
   59.4475   21.7018   44.5357 H   0  0  0  0  0  0  0  0  0  0  0  0
   57.9362   21.8117   45.5445 H   0  0  0  0  0  0  0  0  0  0  0  0
   57.6941   22.0575   42.5971 H   0  0  0  0  0  0  0  0  0  0  0  0
   58.0394   20.4224   43.3502 H   0  0  0  0  0  0  0  0  0  0  0  0
   54.8814   19.7359   44.3238 H   0  0  0  0  0  0  0  0  0  0  0  0
   56.5178   19.1655   44.1253 H   0  0  0  0  0  0  0  0  0  0  0  0
   55.7037   19.6833   46.6124 H   0  0  0  0  0  0  0  0  0  0  0  0
   57.2558   20.3629   46.2084 H   0  0  0  0  0  0  0  0  0  0  0  0
   54.5174   21.7015   46.3323 H   0  0  0  0  0  0  0  0  0  0  0  0
   56.0660   22.4157   46.7487 H   0  0  0  0  0  0  0  0  0  0  0  0
   54.6728   22.5634   44.2112 H   0  0  0  0  0  0  0  0  0  0  0  0
   56.2924   23.2068   44.5514 H   0  0  0  0  0  0  0  0  0  0  0  0
   57.9064   25.7613   43.4069 H   0  0  0  0  0  0  0  0  0  0  0  0
   57.9033   28.2120   43.0736 H   0  0  0  0  0  0  0  0  0  0  0  0
   58.0300   30.3080   42.8650 H   0  0  0  0  0  0  0  0  0  0  0  0
   58.1450   32.7600   43.2890 H   0  0  0  0  0  0  0  0  0  0  0  0
   61.0953   33.3279   45.3211 H   0  0  0  0  0  0  0  0  0  0  0  0
  1  2  1  0
  2  3  2  0
  2  4  1  0
  4  5  2  0
  5  6  1  0
  6  7  2  0
  7  8  1  0
  8  9  1  0
  9 10  2  0
 10 11  1  0
 11 12  2  0
 12 13  1  0
 13 14  2  0
 14 15  1  0
 15 16  2  0
 16 17  1  0
 17 18  2  0
 17 19  1  0
 19 20  1  0
 20 21  1  0
 21 22  1  0
 22 23  1  0
 23 24  1  0
 24 25  1  0
 25 26  1  0
 16 27  1  0
 27 28  2  0
 12 29  1  0
 29 30  1  0
  8 31  2  0
 31  4  1  0
 30 10  1  0
 28 13  1  0
 26 22  1  0
  1 32  1  0
  1 33  1  0
  5 34  1  0
  6 35  1  0
 11 36  1  0
 14 37  1  0
 15 38  1  0
 19 39  1  0
 20 40  1  0
 20 41  1  0
 21 42  1  0
 21 43  1  0
 23 44  1  0
 23 45  1  0
 24 46  1  0
 24 47  1  0
 25 48  1  0
 25 49  1  0
 26 50  1  0
 26 51  1  0
 27 52  1  0
 28 53  1  0
 29 54  1  0
 30 55  1  0
 31 56  1  0
M  END
>  <smiles>  (80) 
NC(=O)c1ccnc(N=c2cc(-c3ccc(C(=O)NCCN4CCCC4)cc3)[nH][nH]2)c1

>  <score_type>  (80) 
oracle

>  <origin>  (80) 
adg

>  <m_score__min__energy>  (80) 
-9.0099999999999998

>  <m_primary>  (80) 
energy

$$$$
81:0
     RDKit          3D

 44 45  0  0  0  0  0  0  0  0999 V2000
   62.9210   33.5240   46.8360 C   0  0  0  0  0  0  0  0  0  0  0  0
   61.4520   33.7790   46.7550 C   0  0  0  0  0  0  0  0  0  0  0  0
   60.7490   34.1210   47.9980 C   0  0  0  0  0  0  0  0  0  0  0  0
   59.3100   33.7070   48.0770 C   0  0  0  0  0  0  0  0  0  0  0  0
   58.8160   33.1140   47.0350 O   0  0  0  0  0  0  0  0  0  0  0  0
   58.3250   32.5230   45.9970 C   0  0  0  0  0  0  0  0  0  0  0  0
   58.2930   33.2190   44.7680 C   0  0  0  0  0  0  0  0  0  0  0  0
   57.7750   32.6140   43.6530 C   0  0  0  0  0  0  0  0  0  0  0  0
   57.2830   31.3140   43.7350 C   0  0  0  0  0  0  0  0  0  0  0  0
   56.6440   30.6350   42.2640 Cl  0  0  0  0  0  0  0  0  0  0  0  0
   57.3100   30.6100   44.9550 C   0  0  0  0  0  0  0  0  0  0  0  0
   56.7920   29.2670   44.9270 C   0  0  0  0  0  0  0  0  0  0  0  0
   55.5370   29.1960   45.1920 O   0  0  0  0  0  0  0  0  0  0  0  0
   57.2770   27.9880   44.6890 N   0  0  0  0  0  0  0  0  0  0  0  0
   58.6570   28.0550   43.9890 C   0  0  0  0  0  0  0  0  0  0  0  0
   59.7030   28.6750   44.7840 C   0  0  0  0  0  0  0  0  0  0  0  0
   59.6580   28.6770   46.1980 N   0  0  0  0  0  0  0  0  0  0  0  0
   60.3660   29.7350   46.8370 C   0  0  0  0  0  0  0  0  0  0  0  0
   58.4260   28.2810   46.7880 C   0  0  0  0  0  0  0  0  0  0  0  0
   57.7470   27.3660   45.8310 C   0  0  0  0  0  0  0  0  0  0  0  0
   57.8350   31.3020   45.9650 N   0  0  0  0  0  0  0  0  0  0  0  0
   63.2263   33.4710   47.8915 H   0  0  0  0  0  0  0  0  0  0  0  0
   63.1558   32.5717   46.3381 H   0  0  0  0  0  0  0  0  0  0  0  0
   63.4631   34.3415   46.3381 H   0  0  0  0  0  0  0  0  0  0  0  0
   61.3014   34.6120   46.0526 H   0  0  0  0  0  0  0  0  0  0  0  0
   61.0192   32.8158   46.4468 H   0  0  0  0  0  0  0  0  0  0  0  0
   61.2835   33.6392   48.8300 H   0  0  0  0  0  0  0  0  0  0  0  0
   60.7432   35.2201   48.0415 H   0  0  0  0  0  0  0  0  0  0  0  0
   59.2070   33.0211   48.9308 H   0  0  0  0  0  0  0  0  0  0  0  0
   58.7442   34.6457   48.1704 H   0  0  0  0  0  0  0  0  0  0  0  0
   58.6835   34.2455   44.7062 H   0  0  0  0  0  0  0  0  0  0  0  0
   57.7479   33.1542   42.6952 H   0  0  0  0  0  0  0  0  0  0  0  0
   56.9110   27.6260   43.8760 H   0  0  0  0  0  0  0  0  0  0  0  0
   58.9707   27.0287   43.7477 H   0  0  0  0  0  0  0  0  0  0  0  0
   58.5263   28.6841   43.0962 H   0  0  0  0  0  0  0  0  0  0  0  0
   60.6419   28.1745   44.5048 H   0  0  0  0  0  0  0  0  0  0  0  0
   59.5798   29.7413   44.5436 H   0  0  0  0  0  0  0  0  0  0  0  0
   60.2895   29.6207   47.9284 H   0  0  0  0  0  0  0  0  0  0  0  0
   61.4241   29.7012   46.5381 H   0  0  0  0  0  0  0  0  0  0  0  0
   59.9312   30.7002   46.5381 H   0  0  0  0  0  0  0  0  0  0  0  0
   58.6148   27.7589   47.7376 H   0  0  0  0  0  0  0  0  0  0  0  0
   57.7969   29.1585   46.9986 H   0  0  0  0  0  0  0  0  0  0  0  0
   58.4638   26.5878   45.5299 H   0  0  0  0  0  0  0  0  0  0  0  0
   56.8690   26.9575   46.3528 H   0  0  0  0  0  0  0  0  0  0  0  0
  1  2  1  0
  2  3  1  0
  3  4  1  0
  4  5  1  0
  5  6  1  0
  6  7  2  0
  7  8  1  0
  8  9  2  0
  9 10  1  0
  9 11  1  0
 11 12  1  0
 12 13  2  0
 12 14  1  0
 14 15  1  0
 15 16  1  0
 16 17  1  0
 17 18  1  0
 17 19  1  0
 19 20  1  0
 11 21  2  0
 21  6  1  0
 20 14  1  0
  1 22  1  0
  1 23  1  0
  1 24  1  0
  2 25  1  0
  2 26  1  0
  3 27  1  0
  3 28  1  0
  4 29  1  0
  4 30  1  0
  7 31  1  0
  8 32  1  0
 14 33  1  0
 15 34  1  0
 15 35  1  0
 16 36  1  0
 16 37  1  0
 18 38  1  0
 18 39  1  0
 18 40  1  0
 19 41  1  0
 19 42  1  0
 20 43  1  0
 20 44  1  0
M  CHG  1  14   1
M  END
>  <UniqueID>  (81) 
76

>  <SMILES>  (81) 
CCCCOc1ccc(Cl)c(C(=O)[NH+]2CCN(C)CC2)n1

>  <Energy>  (81) 
325.51789120552854

>  <Genealogy>  (81) 
CCCCOc1ccc(Cl)c(C(=O)[NH+]2CCN(C)CC2)n1 (protonated)
CCCCOc1ccc(Cl)c(C(=O)[NH+]2CCN(C)CC2)n1 (3D coordinates assigned)
CCCCOc1ccc(Cl)c(C(=O)[NH+]2CCN(C)CC2)n1 (nonaromatic ring conformer: 325.51789120552854 kcal/mol)

>  <smiles>  (81) 
CCCCOc1ccc(Cl)c(C(=O)N2CCN(C)CC2)n1

>  <score_type>  (81) 
oracle

>  <origin>  (81) 
adg

>  <m_score__min__energy>  (81) 
-5.4900000000000002

>  <m_primary>  (81) 
energy

$$$$
82:0
     RDKit          3D

 44 46  0  0  0  0  0  0  0  0999 V2000
   56.4760   29.9600   42.5190 N   0  0  0  0  0  0  0  0  0  0  0  0
   56.4330   30.0840   44.2440 S   0  0  0  0  0  0  0  0  0  0  0  0
   56.3170   31.5300   44.6370 O   0  0  0  0  0  0  0  0  0  0  0  0
   55.2370   29.3430   44.7750 O   0  0  0  0  0  0  0  0  0  0  0  0
   57.9080   29.3980   44.9220 C   0  0  0  0  0  0  0  0  0  0  0  0
   58.4180   28.1900   44.4260 C   0  0  0  0  0  0  0  0  0  0  0  0
   59.5850   27.6470   44.9690 C   0  0  0  0  0  0  0  0  0  0  0  0
   60.2390   28.2980   46.0170 C   0  0  0  0  0  0  0  0  0  0  0  0
   59.7300   29.4920   46.5390 C   0  0  0  0  0  0  0  0  0  0  0  0
   60.4610   30.1440   47.5870 N   0  0  0  0  0  0  0  0  0  0  0  0
   60.5490   29.7560   48.9660 C   0  0  0  0  0  0  0  0  0  0  0  0
   61.6050   29.9460   49.6260 O   0  0  0  0  0  0  0  0  0  0  0  0
   59.3560   29.1610   49.6450 C   0  0  0  0  0  0  0  0  0  0  0  0
   58.2940   30.1100   49.6470 O   0  0  0  0  0  0  0  0  0  0  0  0
   57.8150   30.7390   50.7990 C   0  0  0  0  0  0  0  0  0  0  0  0
   57.2060   30.0820   51.6880 O   0  0  0  0  0  0  0  0  0  0  0  0
   58.0030   32.2200   50.9600 C   0  0  0  0  0  0  0  0  0  0  0  0
   59.2520   32.6560   50.3100 N   0  0  0  0  0  0  0  0  0  0  0  0
   60.4070   32.6930   51.0420 C   0  0  0  0  0  0  0  0  0  0  0  0
   61.5900   33.0020   50.4540 N   0  0  0  0  0  0  0  0  0  0  0  0
   61.6670   33.2750   49.1280 C   0  0  0  0  0  0  0  0  0  0  0  0
   62.9030   33.5730   48.5450 C   0  0  0  0  0  0  0  0  0  0  0  0
   62.9870   33.8300   47.1730 C   0  0  0  0  0  0  0  0  0  0  0  0
   61.8360   33.7920   46.3810 C   0  0  0  0  0  0  0  0  0  0  0  0
   60.5950   33.5010   46.9560 C   0  0  0  0  0  0  0  0  0  0  0  0
   60.5010   33.2410   48.3360 C   0  0  0  0  0  0  0  0  0  0  0  0
   59.2820   32.9280   48.9630 C   0  0  0  0  0  0  0  0  0  0  0  0
   58.2180   32.8820   48.2810 O   0  0  0  0  0  0  0  0  0  0  0  0
   58.5670   30.0510   45.9740 C   0  0  0  0  0  0  0  0  0  0  0  0
   55.7540   29.2550   42.2440 H   0  0  0  0  0  0  0  0  0  0  0  0
   57.4060   29.5510   42.2680 H   0  0  0  0  0  0  0  0  0  0  0  0
   57.8986   27.6690   43.6082 H   0  0  0  0  0  0  0  0  0  0  0  0
   59.9894   26.7049   44.5703 H   0  0  0  0  0  0  0  0  0  0  0  0
   61.1614   27.8688   46.4353 H   0  0  0  0  0  0  0  0  0  0  0  0
   59.0393   28.2562   49.1055 H   0  0  0  0  0  0  0  0  0  0  0  0
   59.6154   28.8958   50.6806 H   0  0  0  0  0  0  0  0  0  0  0  0
   57.1530   32.7449   50.4995 H   0  0  0  0  0  0  0  0  0  0  0  0
   58.0591   32.4567   52.0328 H   0  0  0  0  0  0  0  0  0  0  0  0
   60.3763   32.4699   52.1187 H   0  0  0  0  0  0  0  0  0  0  0  0
   63.8100   33.6052   49.1665 H   0  0  0  0  0  0  0  0  0  0  0  0
   63.9604   34.0624   46.7164 H   0  0  0  0  0  0  0  0  0  0  0  0
   61.9066   33.9917   45.3016 H   0  0  0  0  0  0  0  0  0  0  0  0
   59.6914   33.4753   46.3292 H   0  0  0  0  0  0  0  0  0  0  0  0
   58.1741   31.0034   46.3593 H   0  0  0  0  0  0  0  0  0  0  0  0
  1  2  1  0
  2  3  2  0
  2  4  2  0
  2  5  1  0
  5  6  2  0
  6  7  1  0
  7  8  2  0
  8  9  1  0
  9 10  1  0
 10 11  1  0
 11 12  2  0
 11 13  1  0
 13 14  1  0
 14 15  1  0
 15 16  2  0
 15 17  1  0
 17 18  1  0
 18 19  1  0
 19 20  2  0
 20 21  1  0
 21 22  2  0
 22 23  1  0
 23 24  2  0
 24 25  1  0
 25 26  2  0
 26 27  1  0
 27 28  2  0
  9 29  2  0
 29  5  1  0
 27 18  1  0
 26 21  1  0
  1 30  1  0
  1 31  1  0
  6 32  1  0
  7 33  1  0
  8 34  1  0
 13 35  1  0
 13 36  1  0
 17 37  1  0
 17 38  1  0
 19 39  1  0
 22 40  1  0
 23 41  1  0
 24 42  1  0
 25 43  1  0
 29 44  1  0
M  CHG  1  10  -1
M  END
>  <UniqueID>  (82) 
77

>  <SMILES>  (82) 
NS(=O)(=O)c1cccc([N-]C(=O)COC(=O)Cn2cnc3ccccc3c2=O)c1

>  <Energy>  (82) 
48.4326751440015

>  <Genealogy>  (82) 
NS(=O)(=O)c1cccc([N-]C(=O)COC(=O)Cn2cnc3ccccc3c2=O)c1 (protonated)
NS(=O)(=O)c1cccc([N-]C(=O)COC(=O)Cn2cnc3ccccc3c2=O)c1 (3D coordinates assigned)
NS(=O)(=O)c1cccc([N-]C(=O)COC(=O)Cn2cnc3ccccc3c2=O)c1 (optimized conformer: 48.4326751440015 kcal/mol)

>  <smiles>  (82) 
NS(=O)(=O)c1cccc(NC(=O)COC(=O)Cn2cnc3ccccc3c2=O)c1

>  <score_type>  (82) 
oracle

>  <origin>  (82) 
adg

>  <m_score__min__energy>  (82) 
-10.74

>  <m_primary>  (82) 
energy

$$$$
83:0
     RDKit          3D

 56 60  0  0  0  0  0  0  0  0999 V2000
   61.2530   30.5400   48.0170 N   0  0  0  0  0  0  0  0  0  0  0  0
   61.7780   31.3770   48.6440 C   0  0  0  0  0  0  0  0  0  0  0  0
   62.4300   32.4110   49.4160 C   0  0  0  0  0  0  0  0  0  0  0  0
   62.0480   33.7240   49.2520 C   0  0  0  0  0  0  0  0  0  0  0  0
   60.9970   34.0010   48.3250 N   0  0  0  0  0  0  0  0  0  0  0  0
   61.2840   34.1800   46.9260 C   0  0  0  0  0  0  0  0  0  0  0  0
   60.2800   33.6470   45.9830 C   0  0  0  0  0  0  0  0  0  0  0  0
   58.8630   33.5180   46.4840 C   0  0  0  0  0  0  0  0  0  0  0  0
   58.2550   32.3690   45.7120 C   0  0  0  0  0  0  0  0  0  0  0  0
   58.6000   31.0970   45.9690 N   0  0  0  0  0  0  0  0  0  0  0  0
   57.8860   30.2960   45.1330 C   0  0  0  0  0  0  0  0  0  0  0  0
   58.0070   28.8420   45.1700 C   0  0  0  0  0  0  0  0  0  0  0  0
   57.9460   28.1750   46.3790 C   0  0  0  0  0  0  0  0  0  0  0  0
   58.0050   26.8010   46.4890 C   0  0  0  0  0  0  0  0  0  0  0  0
   58.1320   26.0640   45.3120 C   0  0  0  0  0  0  0  0  0  0  0  0
   58.1890   24.7270   45.3860 O   0  0  0  0  0  0  0  0  0  0  0  0
   57.7530   23.7140   44.6000 C   0  0  0  0  0  0  0  0  0  0  0  0
   58.3180   22.4620   44.5040 C   0  0  0  0  0  0  0  0  0  0  0  0
   57.7580   21.5300   43.6590 C   0  0  0  0  0  0  0  0  0  0  0  0
   56.6400   21.8120   42.9030 C   0  0  0  0  0  0  0  0  0  0  0  0
   56.0560   23.0510   42.9760 C   0  0  0  0  0  0  0  0  0  0  0  0
   56.6140   23.9760   43.8160 C   0  0  0  0  0  0  0  0  0  0  0  0
   58.1950   26.7460   44.0980 C   0  0  0  0  0  0  0  0  0  0  0  0
   58.1350   28.1130   44.0070 C   0  0  0  0  0  0  0  0  0  0  0  0
   57.1170   31.1200   44.3800 C   0  0  0  0  0  0  0  0  0  0  0  0
   57.3390   32.4210   44.7330 N   0  0  0  0  0  0  0  0  0  0  0  0
   58.8430   33.1050   47.9270 C   0  0  0  0  0  0  0  0  0  0  0  0
   59.6070   34.1280   48.7300 C   0  0  0  0  0  0  0  0  0  0  0  0
   62.6460   34.7100   49.9590 N   0  0  0  0  0  0  0  0  0  0  0  0
   63.6420   34.4270   50.8530 C   0  0  0  0  0  0  0  0  0  0  0  0
   64.0040   33.1310   50.9990 N   0  0  0  0  0  0  0  0  0  0  0  0
   63.4440   32.1150   50.3230 C   0  0  0  0  0  0  0  0  0  0  0  0
   63.8140   30.8850   50.4820 N   0  0  0  0  0  0  0  0  0  0  0  0
   61.3814   35.2595   46.7384 H   0  0  0  0  0  0  0  0  0  0  0  0
   62.2019   33.6041   46.7368 H   0  0  0  0  0  0  0  0  0  0  0  0
   60.2620   34.3129   45.1076 H   0  0  0  0  0  0  0  0  0  0  0  0
   60.6031   32.6156   45.7783 H   0  0  0  0  0  0  0  0  0  0  0  0
   58.3348   34.4754   46.3644 H   0  0  0  0  0  0  0  0  0  0  0  0
   57.8454   28.7692   47.2992 H   0  0  0  0  0  0  0  0  0  0  0  0
   57.9537   26.3049   47.4694 H   0  0  0  0  0  0  0  0  0  0  0  0
   59.2090   22.2085   45.0972 H   0  0  0  0  0  0  0  0  0  0  0  0
   58.2155   20.5324   43.5851 H   0  0  0  0  0  0  0  0  0  0  0  0
   56.2160   21.0428   42.2408 H   0  0  0  0  0  0  0  0  0  0  0  0
   55.1658   23.2938   42.3772 H   0  0  0  0  0  0  0  0  0  0  0  0
   56.1504   24.9714   43.8815 H   0  0  0  0  0  0  0  0  0  0  0  0
   58.2974   26.1617   43.1717 H   0  0  0  0  0  0  0  0  0  0  0  0
   58.1877   28.6155   43.0299 H   0  0  0  0  0  0  0  0  0  0  0  0
   56.4166   30.7895   43.5989 H   0  0  0  0  0  0  0  0  0  0  0  0
   56.8990   33.2840   44.3380 H   0  0  0  0  0  0  0  0  0  0  0  0
   57.8037   33.0545   48.2838 H   0  0  0  0  0  0  0  0  0  0  0  0
   59.3070   32.1142   48.0412 H   0  0  0  0  0  0  0  0  0  0  0  0
   59.2363   35.1401   48.5106 H   0  0  0  0  0  0  0  0  0  0  0  0
   59.4863   33.9627   49.8108 H   0  0  0  0  0  0  0  0  0  0  0  0
   62.3550   35.7230   49.8380 H   0  0  0  0  0  0  0  0  0  0  0  0
   64.1311   35.2240   51.4323 H   0  0  0  0  0  0  0  0  0  0  0  0
   63.2110   30.0850   50.1540 H   0  0  0  0  0  0  0  0  0  0  0  0
  1  2  3  0
  2  3  1  0
  3  4  2  0
  4  5  1  0
  5  6  1  0
  6  7  1  0
  7  8  1  0
  8  9  1  0
  9 10  2  0
 10 11  1  0
 11 12  1  0
 12 13  2  0
 13 14  1  0
 14 15  2  0
 15 16  1  0
 16 17  1  0
 17 18  2  0
 18 19  1  0
 19 20  2  0
 20 21  1  0
 21 22  2  0
 15 23  1  0
 23 24  2  0
 11 25  2  0
 25 26  1  0
  8 27  1  0
 27 28  1  0
  4 29  1  0
 29 30  1  0
 30 31  2  0
 31 32  1  0
 32 33  2  3
 32  3  1  0
 28  5  1  0
 26  9  1  0
 24 12  1  0
 22 17  1  0
  6 34  1  0
  6 35  1  0
  7 36  1  0
  7 37  1  0
  8 38  1  0
 13 39  1  0
 14 40  1  0
 18 41  1  0
 19 42  1  0
 20 43  1  0
 21 44  1  0
 22 45  1  0
 23 46  1  0
 24 47  1  0
 25 48  1  0
 26 49  1  0
 27 50  1  0
 27 51  1  0
 28 52  1  0
 28 53  1  0
 29 54  1  0
 30 55  1  0
 33 56  1  0
M  END
>  <smiles>  (83) 
N#Cc1c(N2CCC(c3nc(-c4ccc(Oc5ccccc5)cc4)c[nH]3)CC2)[nH]cnc1=N

>  <score_type>  (83) 
oracle

>  <origin>  (83) 
adg

>  <m_score__min__energy>  (83) 
-7.8200000000000003

>  <m_primary>  (83) 
energy

$$$$
84:0
     RDKit          3D

 48 50  0  0  0  0  0  0  0  0999 V2000
   53.7860   25.9950   46.3590 H   0  0  0  0  0  0  0  0  0  0  0  0
   54.6590   25.7810   45.8230 N   0  0  0  0  0  0  0  0  0  0  0  0
   55.7720   26.4090   46.0320 C   0  0  0  0  0  0  0  0  0  0  0  0
   55.9040   27.6930   45.6080 N   0  0  0  0  0  0  0  0  0  0  0  0
   57.0480   28.4100   45.7950 C   0  0  0  0  0  0  0  0  0  0  0  0
   57.1350   29.7270   45.3290 O   0  0  0  0  0  0  0  0  0  0  0  0
   57.2900   30.0510   43.9520 C   0  0  0  0  0  0  0  0  0  0  0  0
   57.7630   31.0397   43.8590 H   0  0  0  0  0  0  0  0  0  0  0  0
   57.9236   29.2943   43.4663 H   0  0  0  0  0  0  0  0  0  0  0  0
   56.3032   30.0695   43.4663 H   0  0  0  0  0  0  0  0  0  0  0  0
   58.1470   27.8170   46.4470 C   0  0  0  0  0  0  0  0  0  0  0  0
   59.3970   28.5770   46.6930 C   0  0  0  0  0  0  0  0  0  0  0  0
   60.1610   28.8240   45.7210 O   0  0  0  0  0  0  0  0  0  0  0  0
   59.7690   29.0690   48.0430 C   0  0  0  0  0  0  0  0  0  0  0  0
   60.7480   28.4140   48.8050 C   0  0  0  0  0  0  0  0  0  0  0  0
   61.2465   27.5162   48.4107 H   0  0  0  0  0  0  0  0  0  0  0  0
   61.0860   28.9070   50.0650 C   0  0  0  0  0  0  0  0  0  0  0  0
   61.8518   28.3944   50.6657 H   0  0  0  0  0  0  0  0  0  0  0  0
   60.4740   30.0180   50.5550 N   0  0  0  0  0  0  0  0  0  0  0  0
   60.7480   30.3590   51.5050 H   0  0  0  0  0  0  0  0  0  0  0  0
   59.5220   30.6900   49.8460 C   0  0  0  0  0  0  0  0  0  0  0  0
   58.9700   31.7450   50.3820 N   0  0  0  0  0  0  0  0  0  0  0  0
   59.3310   33.1470   50.1630 C   0  0  0  0  0  0  0  0  0  0  0  0
   58.6106   33.7908   50.6889 H   0  0  0  0  0  0  0  0  0  0  0  0
   60.3476   33.3126   50.5492 H   0  0  0  0  0  0  0  0  0  0  0  0
   59.3130   33.4840   48.6930 C   0  0  0  0  0  0  0  0  0  0  0  0
   60.3920   34.1650   48.1160 C   0  0  0  0  0  0  0  0  0  0  0  0
   61.2539   34.4488   48.7378 H   0  0  0  0  0  0  0  0  0  0  0  0
   60.3820   34.4860   46.7590 C   0  0  0  0  0  0  0  0  0  0  0  0
   61.2346   35.0249   46.3200 H   0  0  0  0  0  0  0  0  0  0  0  0
   59.2920   34.1270   45.9470 C   0  0  0  0  0  0  0  0  0  0  0  0
   59.3110   34.4860   44.4850 C   0  0  0  0  0  0  0  0  0  0  0  0
   59.3689   35.5791   44.3766 H   0  0  0  0  0  0  0  0  0  0  0  0
   60.1859   34.0231   44.0051 H   0  0  0  0  0  0  0  0  0  0  0  0
   58.3921   34.1181   44.0051 H   0  0  0  0  0  0  0  0  0  0  0  0
   58.2090   33.4140   46.5150 C   0  0  0  0  0  0  0  0  0  0  0  0
   57.0220   33.0060   45.6840 C   0  0  0  0  0  0  0  0  0  0  0  0
   56.1914   32.7205   46.3463 H   0  0  0  0  0  0  0  0  0  0  0  0
   56.7116   33.8490   45.0492 H   0  0  0  0  0  0  0  0  0  0  0  0
   57.2955   32.1503   45.0492 H   0  0  0  0  0  0  0  0  0  0  0  0
   58.2310   33.1010   47.8860 C   0  0  0  0  0  0  0  0  0  0  0  0
   57.3898   32.5493   48.3310 H   0  0  0  0  0  0  0  0  0  0  0  0
   59.1650   30.2240   48.5630 C   0  0  0  0  0  0  0  0  0  0  0  0
   58.4133   30.7660   47.9704 H   0  0  0  0  0  0  0  0  0  0  0  0
   58.0220   26.4930   46.8990 C   0  0  0  0  0  0  0  0  0  0  0  0
   58.8623   26.0118   47.4209 H   0  0  0  0  0  0  0  0  0  0  0  0
   56.8390   25.7850   46.6900 C   0  0  0  0  0  0  0  0  0  0  0  0
   56.7448   24.7460   47.0388 H   0  0  0  0  0  0  0  0  0  0  0  0
  1  2  1  0
  2  3  2  0
  3  4  1  0
  4  5  1  0
  5  6  1  0
  6  7  1  0
  7  8  1  0
  7  9  1  0
  7 10  1  0
  5 11  2  0
 11 12  1  0
 12 13  2  0
 12 14  1  0
 14 15  1  0
 15 16  1  0
 15 17  2  0
 17 18  1  0
 17 19  1  0
 19 20  1  0
 19 21  1  0
 21 22  2  3
 22 23  1  0
 23 24  1  0
 23 25  1  0
 23 26  1  0
 26 27  2  0
 27 28  1  0
 27 29  1  0
 29 30  1  0
 29 31  2  0
 31 32  1  0
 32 33  1  0
 32 34  1  0
 32 35  1  0
 31 36  1  0
 36 37  1  0
 37 38  1  0
 37 39  1  0
 37 40  1  0
 36 41  2  0
 41 42  1  0
 21 43  1  0
 43 44  1  0
 11 45  1  0
 45 46  1  0
 45 47  2  0
 47 48  1  0
 47  3  1  0
 43 14  2  0
 41 26  1  0
M  CHG  1   4  -1
M  END
>  <UniqueID>  (84) 
78

>  <SMILES>  (84) 
[H]/N=c1\ccc(C(=O)c2cc[nH]c(=NCc3ccc(C)c(C)c3)c2)c(OC)[n-]1

>  <Energy>  (84) 
57.84684345822975

>  <Genealogy>  (84) 
COc1[n-]c(=N)ccc1C(=O)c1cc[nH]c(=NCc2ccc(C)c(C)c2)c1 (protonated)
[H]/N=c1\ccc(C(=O)c2cc[nH]c(=NCc3ccc(C)c(C)c3)c2)c(OC)[n-]1 (cis-trans isomerization)
[H]/N=c1\ccc(C(=O)c2cc[nH]c(=NCc3ccc(C)c(C)c3)c2)c(OC)[n-]1 (3D coordinates assigned)
[H]/N=c1\ccc(C(=O)c2cc[nH]c(=NCc3ccc(C)c(C)c3)c2)c(OC)[n-]1 (optimized conformer: 57.84684345822975 kcal/mol)

>  <smiles>  (84) 
COc1[nH]c(=N)ccc1C(=O)c1cc[nH]c(=NCc2ccc(C)c(C)c2)c1

>  <score_type>  (84) 
oracle

>  <origin>  (84) 
adg

>  <m_score__min__energy>  (84) 
-10.859999999999999

>  <m_primary>  (84) 
energy

$$$$
85:0
     RDKit          3D

 45 47  0  0  0  0  0  0  0  0999 V2000
   58.1610   21.6590   44.7810 C   0  0  0  0  0  0  0  0  0  0  0  0
   57.8250   23.0810   44.4850 C   0  0  0  0  0  0  0  0  0  0  0  0
   58.0140   24.1550   45.3260 C   0  0  0  0  0  0  0  0  0  0  0  0
   57.5210   25.2220   44.5980 C   0  0  0  0  0  0  0  0  0  0  0  0
   57.4620   26.6300   45.0250 C   0  0  0  0  0  0  0  0  0  0  0  0
   57.4080   26.8910   46.2580 O   0  0  0  0  0  0  0  0  0  0  0  0
   57.4220   27.6930   44.0580 N   0  0  0  0  0  0  0  0  0  0  0  0
   57.6390   29.0760   44.3860 C   0  0  0  0  0  0  0  0  0  0  0  0
   56.8270   30.0600   43.8010 C   0  0  0  0  0  0  0  0  0  0  0  0
   57.0110   31.4090   44.1150 C   0  0  0  0  0  0  0  0  0  0  0  0
   58.0190   31.7920   45.0100 C   0  0  0  0  0  0  0  0  0  0  0  0
   58.2030   33.4750   45.4960 S   0  0  0  0  0  0  0  0  0  0  0  0
   56.9120   34.2230   45.2960 O   0  0  0  0  0  0  0  0  0  0  0  0
   59.2640   34.1100   44.6440 O   0  0  0  0  0  0  0  0  0  0  0  0
   58.6870   33.5620   47.1670 N   0  0  0  0  0  0  0  0  0  0  0  0
   59.6980   34.6000   47.3870 C   0  0  0  0  0  0  0  0  0  0  0  0
   61.0650   34.0000   47.6380 C   0  0  0  0  0  0  0  0  0  0  0  0
   61.9440   33.8390   46.5510 C   0  0  0  0  0  0  0  0  0  0  0  0
   63.2340   33.3450   46.7450 C   0  0  0  0  0  0  0  0  0  0  0  0
   63.6640   33.0000   48.0260 C   0  0  0  0  0  0  0  0  0  0  0  0
   62.8020   33.1360   49.1140 C   0  0  0  0  0  0  0  0  0  0  0  0
   61.4950   33.6220   48.9360 C   0  0  0  0  0  0  0  0  0  0  0  0
   60.6000   33.7670   50.1400 C   0  0  0  0  0  0  0  0  0  0  0  0
   58.8650   30.8200   45.5550 C   0  0  0  0  0  0  0  0  0  0  0  0
   58.6790   29.4700   45.2460 C   0  0  0  0  0  0  0  0  0  0  0  0
   57.0670   24.7850   43.4060 N   0  0  0  0  0  0  0  0  0  0  0  0
   57.2640   23.4990   43.3740 O   0  0  0  0  0  0  0  0  0  0  0  0
   58.1963   21.5097   45.8702 H   0  0  0  0  0  0  0  0  0  0  0  0
   57.3932   21.0025   44.3456 H   0  0  0  0  0  0  0  0  0  0  0  0
   59.1414   21.4156   44.3456 H   0  0  0  0  0  0  0  0  0  0  0  0
   58.4521   24.1622   46.3350 H   0  0  0  0  0  0  0  0  0  0  0  0
   57.1070   27.4680   43.0880 H   0  0  0  0  0  0  0  0  0  0  0  0
   56.0402   29.7671   43.0903 H   0  0  0  0  0  0  0  0  0  0  0  0
   56.3632   32.1720   43.6587 H   0  0  0  0  0  0  0  0  0  0  0  0
   59.7485   35.2440   46.4966 H   0  0  0  0  0  0  0  0  0  0  0  0
   59.4081   35.1808   48.2750 H   0  0  0  0  0  0  0  0  0  0  0  0
   61.6102   34.1056   45.5373 H   0  0  0  0  0  0  0  0  0  0  0  0
   63.9124   33.2275   45.8871 H   0  0  0  0  0  0  0  0  0  0  0  0
   64.6849   32.6199   48.1786 H   0  0  0  0  0  0  0  0  0  0  0  0
   63.1482   32.8603   50.1210 H   0  0  0  0  0  0  0  0  0  0  0  0
   61.2001   33.6698   51.0568 H   0  0  0  0  0  0  0  0  0  0  0  0
   60.1170   34.7551   50.1210 H   0  0  0  0  0  0  0  0  0  0  0  0
   59.8297   32.9819   50.1210 H   0  0  0  0  0  0  0  0  0  0  0  0
   59.6803   31.1199   46.2298 H   0  0  0  0  0  0  0  0  0  0  0  0
   59.3493   28.7121   45.6776 H   0  0  0  0  0  0  0  0  0  0  0  0
  1  2  1  0
  2  3  2  0
  3  4  1  0
  4  5  1  0
  5  6  2  0
  5  7  1  0
  7  8  1  0
  8  9  2  0
  9 10  1  0
 10 11  2  0
 11 12  1  0
 12 13  2  0
 12 14  2  0
 12 15  1  0
 15 16  1  0
 16 17  1  0
 17 18  2  0
 18 19  1  0
 19 20  2  0
 20 21  1  0
 21 22  2  0
 22 23  1  0
 11 24  1  0
 24 25  2  0
  4 26  2  0
 26 27  1  0
 27  2  1  0
 25  8  1  0
 22 17  1  0
  1 28  1  0
  1 29  1  0
  1 30  1  0
  3 31  1  0
  7 32  1  0
  9 33  1  0
 10 34  1  0
 16 35  1  0
 16 36  1  0
 18 37  1  0
 19 38  1  0
 20 39  1  0
 21 40  1  0
 23 41  1  0
 23 42  1  0
 23 43  1  0
 24 44  1  0
 25 45  1  0
M  CHG  1  15  -1
M  END
>  <UniqueID>  (85) 
79

>  <SMILES>  (85) 
Cc1cc(C(=O)Nc2ccc(S(=O)(=O)[N-]Cc3ccccc3C)cc2)no1

>  <Energy>  (85) 
74.80636777170837

>  <Genealogy>  (85) 
Cc1cc(C(=O)Nc2ccc(S(=O)(=O)[N-]Cc3ccccc3C)cc2)no1 (protonated)
Cc1cc(C(=O)Nc2ccc(S(=O)(=O)[N-]Cc3ccccc3C)cc2)no1 (3D coordinates assigned)
Cc1cc(C(=O)Nc2ccc(S(=O)(=O)[N-]Cc3ccccc3C)cc2)no1 (optimized conformer: 74.80636777170837 kcal/mol)

>  <smiles>  (85) 
Cc1cc(C(=O)Nc2ccc(S(=O)(=O)NCc3ccccc3C)cc2)no1

>  <score_type>  (85) 
oracle

>  <origin>  (85) 
adg

>  <m_score__min__energy>  (85) 
-9.6999999999999993

>  <m_primary>  (85) 
energy

$$$$
86:0
     RDKit          3D

 38 39  0  0  0  0  0  0  0  0999 V2000
   58.9500   34.4510   46.6560 C   0  0  0  0  0  0  0  0  0  0  0  0
   60.6490   33.7930   46.6150 S   0  0  0  0  0  0  0  0  0  0  0  0
   60.2910   32.2820   47.5790 C   0  0  0  0  0  0  0  0  0  0  0  0
   59.9060   31.1460   46.6710 C   0  0  0  0  0  0  0  0  0  0  0  0
   60.7890   30.0850   46.4460 C   0  0  0  0  0  0  0  0  0  0  0  0
   60.4130   29.0160   45.6350 C   0  0  0  0  0  0  0  0  0  0  0  0
   59.1350   28.9690   45.0450 C   0  0  0  0  0  0  0  0  0  0  0  0
   58.7650   27.7700   44.1900 C   0  0  0  0  0  0  0  0  0  0  0  0
   57.4630   27.2160   44.5720 N   0  0  0  0  0  0  0  0  0  0  0  0
   57.2860   25.9780   45.2930 C   0  0  0  0  0  0  0  0  0  0  0  0
   58.2900   24.9880   45.3150 C   0  0  0  0  0  0  0  0  0  0  0  0
   58.0940   23.7930   46.0120 C   0  0  0  0  0  0  0  0  0  0  0  0
   56.8990   23.5680   46.6960 C   0  0  0  0  0  0  0  0  0  0  0  0
   56.7110   22.4080   47.3710 F   0  0  0  0  0  0  0  0  0  0  0  0
   55.8970   24.5400   46.6860 C   0  0  0  0  0  0  0  0  0  0  0  0
   56.0830   25.7390   45.9890 C   0  0  0  0  0  0  0  0  0  0  0  0
   55.0670   26.6870   45.9930 O   0  0  0  0  0  0  0  0  0  0  0  0
   58.2590   30.0730   45.2210 C   0  0  0  0  0  0  0  0  0  0  0  0
   56.6800   30.1650   44.4190 S   0  0  0  0  0  0  0  0  0  0  0  0
   55.5130   29.1930   45.2470 N   0  0  0  0  0  0  0  0  0  0  0  0
   56.1920   31.5870   44.4180 O   0  0  0  0  0  0  0  0  0  0  0  0
   56.8040   29.6720   43.0060 O   0  0  0  0  0  0  0  0  0  0  0  0
   58.6490   31.1360   46.0530 C   0  0  0  0  0  0  0  0  0  0  0  0
   58.6299   34.5750   47.7011 H   0  0  0  0  0  0  0  0  0  0  0  0
   58.9217   35.4251   46.1458 H   0  0  0  0  0  0  0  0  0  0  0  0
   58.2729   33.7501   46.1458 H   0  0  0  0  0  0  0  0  0  0  0  0
   61.1870   31.9986   48.1507 H   0  0  0  0  0  0  0  0  0  0  0  0
   59.4516   32.4890   48.2591 H   0  0  0  0  0  0  0  0  0  0  0  0
   61.7855   30.0944   46.9117 H   0  0  0  0  0  0  0  0  0  0  0  0
   61.1246   28.1971   45.4530 H   0  0  0  0  0  0  0  0  0  0  0  0
   58.7248   28.0820   43.1359 H   0  0  0  0  0  0  0  0  0  0  0  0
   59.5276   26.9917   44.3406 H   0  0  0  0  0  0  0  0  0  0  0  0
   56.6190   27.7600   44.2830 H   0  0  0  0  0  0  0  0  0  0  0  0
   59.2354   25.1580   44.7789 H   0  0  0  0  0  0  0  0  0  0  0  0
   58.8840   23.0276   46.0215 H   0  0  0  0  0  0  0  0  0  0  0  0
   54.9568   24.3625   47.2286 H   0  0  0  0  0  0  0  0  0  0  0  0
   55.4780   28.2720   44.7550 H   0  0  0  0  0  0  0  0  0  0  0  0
   57.9562   31.9736   46.2217 H   0  0  0  0  0  0  0  0  0  0  0  0
  1  2  1  0
  2  3  1  0
  3  4  1  0
  4  5  2  0
  5  6  1  0
  6  7  2  0
  7  8  1  0
  8  9  1  0
  9 10  1  0
 10 11  2  0
 11 12  1  0
 12 13  2  0
 13 14  1  0
 13 15  1  0
 15 16  2  0
 16 17  1  0
  7 18  1  0
 18 19  1  0
 19 20  1  0
 19 21  2  0
 19 22  2  0
 18 23  2  0
 23  4  1  0
 16 10  1  0
  1 24  1  0
  1 25  1  0
  1 26  1  0
  3 27  1  0
  3 28  1  0
  5 29  1  0
  6 30  1  0
  8 31  1  0
  8 32  1  0
  9 33  1  0
 11 34  1  0
 12 35  1  0
 15 36  1  0
 20 37  1  0
 23 38  1  0
M  CHG  2  17  -1  20  -1
M  END
>  <UniqueID>  (86) 
80

>  <SMILES>  (86) 
CSCc1ccc(CNc2ccc(F)cc2[O-])c(S([NH-])(=O)=O)c1

>  <Energy>  (86) 
37.06335192316972

>  <Genealogy>  (86) 
CSCc1ccc(CNc2ccc(F)cc2[O-])c(S([NH-])(=O)=O)c1 (protonated)
CSCc1ccc(CNc2ccc(F)cc2[O-])c(S([NH-])(=O)=O)c1 (3D coordinates assigned)
CSCc1ccc(CNc2ccc(F)cc2[O-])c(S([NH-])(=O)=O)c1 (optimized conformer: 37.06335192316972 kcal/mol)

>  <smiles>  (86) 
CSCc1ccc(CNc2ccc(F)cc2O)c(S(N)(=O)=O)c1

>  <score_type>  (86) 
oracle

>  <origin>  (86) 
adg

>  <m_score__min__energy>  (86) 
-14.49

>  <m_primary>  (86) 
energy

$$$$
87:0
     RDKit          3D

 33 34  0  0  0  0  0  0  0  0999 V2000
   57.6270   32.2920   44.1870 C   0  0  0  0  0  0  0  0  0  0  0  0
   56.6310   31.5000   44.8250 O   0  0  0  0  0  0  0  0  0  0  0  0
   56.6900   30.1050   44.8650 C   0  0  0  0  0  0  0  0  0  0  0  0
   55.6770   29.4160   44.5630 O   0  0  0  0  0  0  0  0  0  0  0  0
   57.9020   29.4710   45.2930 N   0  0  0  0  0  0  0  0  0  0  0  0
   58.1440   28.0570   45.2110 C   0  0  0  0  0  0  0  0  0  0  0  0
   57.6370   27.2970   44.3010 N   0  0  0  0  0  0  0  0  0  0  0  0
   58.1180   25.9270   44.4530 C   0  0  2  0  0  0  0  0  0  0  0  0
   56.9620   24.9720   44.6560 C   0  0  0  0  0  0  0  0  0  0  0  0
   56.0760   25.1320   45.7390 C   0  0  0  0  0  0  0  0  0  0  0  0
   55.0230   24.2320   45.9280 C   0  0  0  0  0  0  0  0  0  0  0  0
   54.8480   23.1630   45.0470 C   0  0  0  0  0  0  0  0  0  0  0  0
   55.7280   22.9890   43.9760 C   0  0  0  0  0  0  0  0  0  0  0  0
   56.7830   23.8870   43.7810 C   0  0  0  0  0  0  0  0  0  0  0  0
   59.0590   25.9760   45.6800 C   0  0  0  0  0  0  0  0  0  0  0  0
   59.0280   27.3730   46.0790 N   0  0  0  0  0  0  0  0  0  0  0  0
   59.7370   27.9450   47.2180 C   0  0  0  0  0  0  0  0  0  0  0  0
   58.2474   32.7853   44.9498 H   0  0  0  0  0  0  0  0  0  0  0  0
   58.2606   31.6484   43.5591 H   0  0  0  0  0  0  0  0  0  0  0  0
   57.1426   33.0543   43.5591 H   0  0  0  0  0  0  0  0  0  0  0  0
   58.6210   30.0700   45.7560 H   0  0  0  0  0  0  0  0  0  0  0  0
   57.0210   27.6180   43.5210 H   0  0  0  0  0  0  0  0  0  0  0  0
   58.6444   25.5593   43.5599 H   0  0  0  0  0  0  0  0  0  0  0  0
   56.2131   25.9690   46.4394 H   0  0  0  0  0  0  0  0  0  0  0  0
   54.3310   24.3663   46.7724 H   0  0  0  0  0  0  0  0  0  0  0  0
   54.0171   22.4577   45.1962 H   0  0  0  0  0  0  0  0  0  0  0  0
   55.5912   22.1444   43.2847 H   0  0  0  0  0  0  0  0  0  0  0  0
   57.4757   23.7431   42.9387 H   0  0  0  0  0  0  0  0  0  0  0  0
   58.6858   25.3286   46.4872 H   0  0  0  0  0  0  0  0  0  0  0  0
   60.0745   25.6184   45.4543 H   0  0  0  0  0  0  0  0  0  0  0  0
   59.2849   27.5803   48.1521 H   0  0  0  0  0  0  0  0  0  0  0  0
   60.7944   27.6441   47.1805 H   0  0  0  0  0  0  0  0  0  0  0  0
   59.6665   29.0421   47.1805 H   0  0  0  0  0  0  0  0  0  0  0  0
  1  2  1  0
  2  3  1  0
  3  4  2  0
  3  5  1  0
  5  6  1  0
  6  7  2  0
  7  8  1  0
  8  9  1  0
  9 10  2  0
 10 11  1  0
 11 12  2  0
 12 13  1  0
 13 14  2  0
  8 15  1  0
 15 16  1  0
 16 17  1  0
 16  6  1  0
 14  9  1  0
  1 18  1  0
  1 19  1  0
  1 20  1  0
  5 21  1  0
  7 22  1  0
  8 23  1  6
 10 24  1  0
 11 25  1  0
 12 26  1  0
 13 27  1  0
 14 28  1  0
 15 29  1  0
 15 30  1  0
 17 31  1  0
 17 32  1  0
 17 33  1  0
M  CHG  1   7   1
M  END
>  <UniqueID>  (87) 
81

>  <SMILES>  (87) 
COC(=O)NC1=[NH+][C@H](c2ccccc2)CN1C

>  <Energy>  (87) 
41.904564555899

>  <Genealogy>  (87) 
COC(=O)NC1=[NH+]C(c2ccccc2)CN1C (protonated)
COC(=O)NC1=[NH+][C@H](c2ccccc2)CN1C (chirality)
COC(=O)NC1=[NH+][C@H](c2ccccc2)CN1C (3D coordinates assigned)
COC(=O)NC1=[NH+][C@H](c2ccccc2)CN1C (nonaromatic ring conformer: 41.904564555899 kcal/mol)

>  <smiles>  (87) 
COC(=O)NC1=NC(c2ccccc2)CN1C

>  <score_type>  (87) 
oracle

>  <origin>  (87) 
adg

>  <m_score__min__energy>  (87) 
-4.0999999999999996

>  <m_primary>  (87) 
energy

$$$$
88:0
     RDKit          3D

 45 48  0  0  0  0  0  0  0  0999 V2000
   54.1590   24.0820   45.7240 O   0  0  0  0  0  0  0  0  0  0  0  0
   54.9390   25.0660   45.6240 C   0  0  0  0  0  0  0  0  0  0  0  0
   54.4980   26.3340   45.9820 O   0  0  0  0  0  0  0  0  0  0  0  0
   56.3490   24.8650   45.1740 C   0  0  0  0  0  0  0  0  0  0  0  0
   57.1700   26.0860   45.4830 C   0  0  0  0  0  0  0  0  0  0  0  0
   57.7900   26.8030   44.4490 C   0  0  0  0  0  0  0  0  0  0  0  0
   58.5280   27.9560   44.7320 C   0  0  0  0  0  0  0  0  0  0  0  0
   58.6510   28.4190   46.0550 C   0  0  0  0  0  0  0  0  0  0  0  0
   59.4340   29.6450   46.3560 C   0  0  0  0  0  0  0  0  0  0  0  0
   58.9490   30.9120   45.9880 C   0  0  0  0  0  0  0  0  0  0  0  0
   59.6840   32.0650   46.2730 C   0  0  0  0  0  0  0  0  0  0  0  0
   60.9200   31.9760   46.9400 C   0  0  0  0  0  0  0  0  0  0  0  0
   61.6980   33.1470   47.2470 N   0  0  0  0  0  0  0  0  0  0  0  0
   62.5160   33.2740   48.4210 C   0  0  0  0  0  0  0  0  0  0  0  0
   63.9070   33.3080   48.2650 C   0  0  0  0  0  0  0  0  0  0  0  0
   64.7430   33.4630   49.3700 C   0  0  0  0  0  0  0  0  0  0  0  0
   64.2050   33.5720   50.6540 C   0  0  0  0  0  0  0  0  0  0  0  0
   65.0660   33.7340   51.7340 O   0  0  0  0  0  0  0  0  0  0  0  0
   62.8110   33.5110   50.8430 C   0  0  0  0  0  0  0  0  0  0  0  0
   62.2550   33.6000   52.1310 C   0  0  0  0  0  0  0  0  0  0  0  0
   60.8730   33.5120   52.3130 C   0  0  0  0  0  0  0  0  0  0  0  0
   60.0330   33.3280   51.2160 C   0  0  0  0  0  0  0  0  0  0  0  0
   60.5650   33.2380   49.9290 C   0  0  0  0  0  0  0  0  0  0  0  0
   61.9540   33.3460   49.7190 C   0  0  0  0  0  0  0  0  0  0  0  0
   61.4090   30.7120   47.2980 C   0  0  0  0  0  0  0  0  0  0  0  0
   60.6740   29.5580   47.0130 C   0  0  0  0  0  0  0  0  0  0  0  0
   58.0170   27.7040   47.0870 C   0  0  0  0  0  0  0  0  0  0  0  0
   57.2800   26.5500   46.8020 C   0  0  0  0  0  0  0  0  0  0  0  0
   56.7773   23.9970   45.6966 H   0  0  0  0  0  0  0  0  0  0  0  0
   56.3585   24.6907   44.0879 H   0  0  0  0  0  0  0  0  0  0  0  0
   57.6949   26.4560   43.4095 H   0  0  0  0  0  0  0  0  0  0  0  0
   59.0164   28.5057   43.9139 H   0  0  0  0  0  0  0  0  0  0  0  0
   57.9818   30.9962   45.4709 H   0  0  0  0  0  0  0  0  0  0  0  0
   59.2941   33.0492   45.9741 H   0  0  0  0  0  0  0  0  0  0  0  0
   61.5580   34.0040   46.6660 H   0  0  0  0  0  0  0  0  0  0  0  0
   64.3447   33.2114   47.2605 H   0  0  0  0  0  0  0  0  0  0  0  0
   65.8334   33.4997   49.2294 H   0  0  0  0  0  0  0  0  0  0  0  0
   62.9128   33.7399   53.0015 H   0  0  0  0  0  0  0  0  0  0  0  0
   60.4466   33.5881   53.3241 H   0  0  0  0  0  0  0  0  0  0  0  0
   58.9458   33.2534   51.3654 H   0  0  0  0  0  0  0  0  0  0  0  0
   59.8943   33.0814   49.0713 H   0  0  0  0  0  0  0  0  0  0  0  0
   62.3800   30.6277   47.8079 H   0  0  0  0  0  0  0  0  0  0  0  0
   61.0688   28.5737   47.3050 H   0  0  0  0  0  0  0  0  0  0  0  0
   58.1014   28.0551   48.1261 H   0  0  0  0  0  0  0  0  0  0  0  0
   56.7837   26.0030   47.6172 H   0  0  0  0  0  0  0  0  0  0  0  0
  1  2  2  0
  2  3  1  0
  2  4  1  0
  4  5  1  0
  5  6  2  0
  6  7  1  0
  7  8  2  0
  8  9  1  0
  9 10  2  0
 10 11  1  0
 11 12  2  0
 12 13  1  0
 13 14  1  0
 14 15  2  0
 15 16  1  0
 16 17  2  0
 17 18  1  0
 17 19  1  0
 19 20  2  0
 20 21  1  0
 21 22  2  0
 22 23  1  0
 23 24  2  0
 12 25  1  0
 25 26  2  0
  8 27  1  0
 27 28  2  0
 28  5  1  0
 26  9  1  0
 24 14  1  0
 24 19  1  0
  4 29  1  0
  4 30  1  0
  6 31  1  0
  7 32  1  0
 10 33  1  0
 11 34  1  0
 13 35  1  0
 15 36  1  0
 16 37  1  0
 20 38  1  0
 21 39  1  0
 22 40  1  0
 23 41  1  0
 25 42  1  0
 26 43  1  0
 27 44  1  0
 28 45  1  0
M  CHG  2   3  -1  18  -1
M  END
>  <UniqueID>  (88) 
82

>  <SMILES>  (88) 
O=C([O-])Cc1ccc(-c2ccc(Nc3ccc([O-])c4ccccc34)cc2)cc1

>  <Energy>  (88) 
65.60112839269925

>  <Genealogy>  (88) 
O=C([O-])Cc1ccc(-c2ccc(Nc3ccc([O-])c4ccccc34)cc2)cc1 (protonated)
O=C([O-])Cc1ccc(-c2ccc(Nc3ccc([O-])c4ccccc34)cc2)cc1 (3D coordinates assigned)
O=C([O-])Cc1ccc(-c2ccc(Nc3ccc([O-])c4ccccc34)cc2)cc1 (optimized conformer: 65.60112839269925 kcal/mol)

>  <smiles>  (88) 
O=C(O)Cc1ccc(-c2ccc(Nc3ccc(O)c4ccccc34)cc2)cc1

>  <score_type>  (88) 
oracle

>  <origin>  (88) 
adg

>  <m_score__min__energy>  (88) 
-11.07

>  <m_primary>  (88) 
energy

$$$$
89:0
     RDKit          3D

 56 60  0  0  0  0  0  0  0  0999 V2000
   55.2470   26.7160   45.9140 N   0  0  0  0  0  0  0  0  0  0  0  0
   56.9430   27.0410   45.9680 S   0  0  0  0  0  0  0  0  0  0  0  0
   57.6870   25.9780   45.2130 O   0  0  0  0  0  0  0  0  0  0  0  0
   57.3870   27.0180   47.4040 O   0  0  0  0  0  0  0  0  0  0  0  0
   57.2720   28.6280   45.2510 C   0  0  0  0  0  0  0  0  0  0  0  0
   56.5930   29.0030   44.0800 C   0  0  0  0  0  0  0  0  0  0  0  0
   56.8630   30.2290   43.4640 C   0  0  0  0  0  0  0  0  0  0  0  0
   57.8130   31.0920   44.0080 C   0  0  0  0  0  0  0  0  0  0  0  0
   58.4910   30.7380   45.1770 C   0  0  0  0  0  0  0  0  0  0  0  0
   58.2230   29.5150   45.8120 C   0  0  0  0  0  0  0  0  0  0  0  0
   58.9400   29.1950   47.0590 C   0  0  0  0  0  0  0  0  0  0  0  0
   58.5640   29.8010   48.2660 C   0  0  0  0  0  0  0  0  0  0  0  0
   59.2260   29.4720   49.4530 C   0  0  0  0  0  0  0  0  0  0  0  0
   60.2680   28.5320   49.4490 C   0  0  0  0  0  0  0  0  0  0  0  0
   60.9340   28.1560   50.7160 C   0  0  0  0  0  0  0  0  0  0  0  0
   61.6390   27.1130   50.7600 O   0  0  0  0  0  0  0  0  0  0  0  0
   60.7750   28.9290   51.9140 N   0  0  0  0  0  0  0  0  0  0  0  0
   60.0400   30.1560   52.0320 C   0  0  0  0  0  0  0  0  0  0  0  0
   58.7310   30.1860   52.5420 C   0  0  0  0  0  0  0  0  0  0  0  0
   58.0390   31.3950   52.6330 C   0  0  0  0  0  0  0  0  0  0  0  0
   58.6370   32.5800   52.1970 C   0  0  0  0  0  0  0  0  0  0  0  0
   59.9330   32.5630   51.6570 C   0  0  0  0  0  0  0  0  0  0  0  0
   60.5490   33.8390   51.1430 C   0  0  0  0  0  0  0  0  0  0  0  0
   60.4860   33.8870   49.6350 C   0  0  0  0  0  0  0  0  0  0  0  0
   59.2610   34.0470   49.0650 N   0  0  0  0  0  0  0  0  0  0  0  0
   59.0800   34.0360   47.7460 N   0  0  0  0  0  0  0  0  0  0  0  0
   60.1120   33.8580   46.8860 C   0  0  0  0  0  0  0  0  0  0  0  0
   59.8870   33.8480   45.6470 O   0  0  0  0  0  0  0  0  0  0  0  0
   61.4120   33.6860   47.3900 C   0  0  0  0  0  0  0  0  0  0  0  0
   62.5110   33.5000   46.5280 C   0  0  0  0  0  0  0  0  0  0  0  0
   63.7950   33.3300   47.0480 C   0  0  0  0  0  0  0  0  0  0  0  0
   63.9980   33.3430   48.4260 C   0  0  0  0  0  0  0  0  0  0  0  0
   62.9200   33.5270   49.2970 C   0  0  0  0  0  0  0  0  0  0  0  0
   61.6120   33.7000   48.7940 C   0  0  0  0  0  0  0  0  0  0  0  0
   60.6280   31.3440   51.5790 C   0  0  0  0  0  0  0  0  0  0  0  0
   60.6680   27.9580   48.2290 C   0  0  0  0  0  0  0  0  0  0  0  0
   60.0100   28.2890   47.0420 C   0  0  0  0  0  0  0  0  0  0  0  0
   54.8370   27.0910   46.8000 H   0  0  0  0  0  0  0  0  0  0  0  0
   55.8428   28.3268   43.6440 H   0  0  0  0  0  0  0  0  0  0  0  0
   56.3244   30.5131   42.5479 H   0  0  0  0  0  0  0  0  0  0  0  0
   58.0289   32.0522   43.5166 H   0  0  0  0  0  0  0  0  0  0  0  0
   59.2398   31.4221   45.6027 H   0  0  0  0  0  0  0  0  0  0  0  0
   57.7465   30.5369   48.2793 H   0  0  0  0  0  0  0  0  0  0  0  0
   58.9280   29.9532   50.3962 H   0  0  0  0  0  0  0  0  0  0  0  0
   58.2497   29.2532   52.8708 H   0  0  0  0  0  0  0  0  0  0  0  0
   57.0208   31.4147   53.0488 H   0  0  0  0  0  0  0  0  0  0  0  0
   58.0899   33.5309   52.2772 H   0  0  0  0  0  0  0  0  0  0  0  0
   59.9997   34.6980   51.5557 H   0  0  0  0  0  0  0  0  0  0  0  0
   61.6028   33.8766   51.4563 H   0  0  0  0  0  0  0  0  0  0  0  0
   62.3561   33.4887   45.4390 H   0  0  0  0  0  0  0  0  0  0  0  0
   64.6480   33.1855   46.3686 H   0  0  0  0  0  0  0  0  0  0  0  0
   65.0118   33.2078   48.8310 H   0  0  0  0  0  0  0  0  0  0  0  0
   63.0923   33.5371   50.3834 H   0  0  0  0  0  0  0  0  0  0  0  0
   61.6440   31.3225   51.1580 H   0  0  0  0  0  0  0  0  0  0  0  0
   61.5044   27.2438   48.2093 H   0  0  0  0  0  0  0  0  0  0  0  0
   60.3320   27.8379   46.0919 H   0  0  0  0  0  0  0  0  0  0  0  0
  1  2  1  0
  2  3  2  0
  2  4  2  0
  2  5  1  0
  5  6  2  0
  6  7  1  0
  7  8  2  0
  8  9  1  0
  9 10  2  0
 10 11  1  0
 11 12  2  0
 12 13  1  0
 13 14  2  0
 14 15  1  0
 15 16  2  0
 15 17  1  0
 17 18  1  0
 18 19  2  0
 19 20  1  0
 20 21  2  0
 21 22  1  0
 22 23  1  0
 23 24  1  0
 24 25  2  0
 25 26  1  0
 26 27  1  0
 27 28  2  0
 27 29  1  0
 29 30  2  0
 30 31  1  0
 31 32  2  0
 32 33  1  0
 33 34  2  0
 22 35  2  0
 14 36  1  0
 36 37  2  0
 10  5  1  0
 37 11  1  0
 35 18  1  0
 34 24  1  0
 34 29  1  0
  1 38  1  0
  6 39  1  0
  7 40  1  0
  8 41  1  0
  9 42  1  0
 12 43  1  0
 13 44  1  0
 19 45  1  0
 20 46  1  0
 21 47  1  0
 23 48  1  0
 23 49  1  0
 30 50  1  0
 31 51  1  0
 32 52  1  0
 33 53  1  0
 35 54  1  0
 36 55  1  0
 37 56  1  0
M  CHG  3   1  -1  17  -1  26  -1
M  END
>  <UniqueID>  (89) 
83

>  <SMILES>  (89) 
[NH-]S(=O)(=O)c1ccccc1-c1ccc(C(=O)[N-]c2cccc(Cc3n[n-]c(=O)c4ccccc34)c2)cc1

>  <Energy>  (89) 
84.63703922916483

>  <Genealogy>  (89) 
[NH-]S(=O)(=O)c1ccccc1-c1ccc(C(=O)[N-]c2cccc(Cc3n[n-]c(=O)c4ccccc34)c2)cc1 (protonated)
[NH-]S(=O)(=O)c1ccccc1-c1ccc(C(=O)[N-]c2cccc(Cc3n[n-]c(=O)c4ccccc34)c2)cc1 (3D coordinates assigned)
[NH-]S(=O)(=O)c1ccccc1-c1ccc(C(=O)[N-]c2cccc(Cc3n[n-]c(=O)c4ccccc34)c2)cc1 (optimized conformer: 84.63703922916483 kcal/mol)

>  <smiles>  (89) 
NS(=O)(=O)c1ccccc1-c1ccc(C(=O)Nc2cccc(Cc3n[nH]c(=O)c4ccccc34)c2)cc1

>  <score_type>  (89) 
oracle

>  <origin>  (89) 
adg

>  <m_score__min__energy>  (89) 
-15.66

>  <m_primary>  (89) 
energy

$$$$
90:0
     RDKit          3D

 46 49  0  0  0  0  0  0  0  0999 V2000
   56.4147   20.3526   42.7472 H   0  0  0  0  0  0  0  0  0  0  0  0
   56.7380   21.2710   43.2590 C   0  0  0  0  0  0  0  0  0  0  0  0
   55.9260   22.3540   43.3960 N   0  0  0  0  0  0  0  0  0  0  0  0
   56.5410   23.3550   44.0570 C   0  0  0  0  0  0  0  0  0  0  0  0
   55.9510   24.4870   44.3020 N   0  0  0  0  0  0  0  0  0  0  0  0
   55.9450   25.2730   45.8490 S   0  0  0  0  0  0  0  0  0  0  0  0
   54.6930   26.0950   45.9760 O   0  0  0  0  0  0  0  0  0  0  0  0
   55.9540   24.2300   46.9310 O   0  0  0  0  0  0  0  0  0  0  0  0
   57.3740   26.2870   46.0180 C   0  0  0  0  0  0  0  0  0  0  0  0
   58.6490   25.7230   45.8830 C   0  0  0  0  0  0  0  0  0  0  0  0
   58.7551   24.6485   45.6729 H   0  0  0  0  0  0  0  0  0  0  0  0
   59.7860   26.5240   46.0150 C   0  0  0  0  0  0  0  0  0  0  0  0
   60.7861   26.0798   45.9030 H   0  0  0  0  0  0  0  0  0  0  0  0
   59.6560   27.8880   46.2890 C   0  0  0  0  0  0  0  0  0  0  0  0
   60.5539   28.5156   46.3883 H   0  0  0  0  0  0  0  0  0  0  0  0
   58.3810   28.4600   46.4380 C   0  0  0  0  0  0  0  0  0  0  0  0
   58.2120   29.8610   46.6920 N   0  0  0  0  0  0  0  0  0  0  0  0
   57.7790   30.8380   45.7360 C   0  0  0  0  0  0  0  0  0  0  0  0
   56.9170   30.5050   44.8800 O   0  0  0  0  0  0  0  0  0  0  0  0
   58.2620   32.2390   45.7730 C   0  0  0  0  0  0  0  0  0  0  0  0
   57.8280   33.1620   44.8060 C   0  0  0  0  0  0  0  0  0  0  0  0
   57.1639   32.8326   43.9933 H   0  0  0  0  0  0  0  0  0  0  0  0
   58.2370   34.4970   44.8730 C   0  0  0  0  0  0  0  0  0  0  0  0
   57.8952   35.2138   44.1118 H   0  0  0  0  0  0  0  0  0  0  0  0
   59.0780   34.9240   45.9030 C   0  0  0  0  0  0  0  0  0  0  0  0
   59.3866   35.9785   45.9553 H   0  0  0  0  0  0  0  0  0  0  0  0
   59.5300   34.0190   46.8680 C   0  0  0  0  0  0  0  0  0  0  0  0
   60.3520   34.4900   47.9020 O   0  0  0  0  0  0  0  0  0  0  0  0
   61.6530   34.0390   48.1680 C   0  0  0  0  0  0  0  0  0  0  0  0
   62.1780   34.0200   49.4720 C   0  0  0  0  0  0  0  0  0  0  0  0
   61.5755   34.3964   50.3118 H   0  0  0  0  0  0  0  0  0  0  0  0
   63.4660   33.5230   49.7040 C   0  0  0  0  0  0  0  0  0  0  0  0
   63.8746   33.5112   50.7252 H   0  0  0  0  0  0  0  0  0  0  0  0
   64.2330   33.0420   48.6400 C   0  0  0  0  0  0  0  0  0  0  0  0
   65.2457   32.6538   48.8235 H   0  0  0  0  0  0  0  0  0  0  0  0
   63.7140   33.0540   47.3430 C   0  0  0  0  0  0  0  0  0  0  0  0
   64.3191   32.6769   46.5053 H   0  0  0  0  0  0  0  0  0  0  0  0
   62.4260   33.5450   47.1090 C   0  0  0  0  0  0  0  0  0  0  0  0
   62.0172   33.5434   46.0878 H   0  0  0  0  0  0  0  0  0  0  0  0
   59.1080   32.6790   46.8090 C   0  0  0  0  0  0  0  0  0  0  0  0
   59.4418   31.9680   47.5791 H   0  0  0  0  0  0  0  0  0  0  0  0
   57.2450   27.6570   46.2870 C   0  0  0  0  0  0  0  0  0  0  0  0
   56.2440   28.1036   46.3800 H   0  0  0  0  0  0  0  0  0  0  0  0
   58.1150   22.9420   44.4990 S   0  0  0  0  0  0  0  0  0  0  0  0
   58.0070   21.4090   43.8130 C   0  0  0  0  0  0  0  0  0  0  0  0
   58.8015   20.6483   43.8041 H   0  0  0  0  0  0  0  0  0  0  0  0
  1  2  1  0
  2  3  1  0
  3  4  1  0
  4  5  2  0
  5  6  1  0
  6  7  2  0
  6  8  2  0
  6  9  1  0
  9 10  2  0
 10 11  1  0
 10 12  1  0
 12 13  1  0
 12 14  2  0
 14 15  1  0
 14 16  1  0
 16 17  1  0
 17 18  1  0
 18 19  2  0
 18 20  1  0
 20 21  2  0
 21 22  1  0
 21 23  1  0
 23 24  1  0
 23 25  2  0
 25 26  1  0
 25 27  1  0
 27 28  1  0
 28 29  1  0
 29 30  2  0
 30 31  1  0
 30 32  1  0
 32 33  1  0
 32 34  2  0
 34 35  1  0
 34 36  1  0
 36 37  1  0
 36 38  2  0
 38 39  1  0
 27 40  2  0
 40 41  1  0
 16 42  2  0
 42 43  1  0
  4 44  1  0
 44 45  1  0
 45 46  1  0
 45  2  2  0
 42  9  1  0
 40 20  1  0
 38 29  1  0
M  CHG  2   3  -1  17  -1
M  END
>  <UniqueID>  (90) 
84

>  <SMILES>  (90) 
O=C([N-]c1cccc(S(=O)(=O)/N=c2/[n-]ccs2)c1)c1cccc(Oc2ccccc2)c1

>  <Energy>  (90) 
94.10100302838168

>  <Genealogy>  (90) 
O=C([N-]c1cccc(S(=O)(=O)N=c2[n-]ccs2)c1)c1cccc(Oc2ccccc2)c1 (protonated)
O=C([N-]c1cccc(S(=O)(=O)/N=c2/[n-]ccs2)c1)c1cccc(Oc2ccccc2)c1 (cis-trans isomerization)
O=C([N-]c1cccc(S(=O)(=O)/N=c2/[n-]ccs2)c1)c1cccc(Oc2ccccc2)c1 (3D coordinates assigned)
O=C([N-]c1cccc(S(=O)(=O)/N=c2/[n-]ccs2)c1)c1cccc(Oc2ccccc2)c1 (optimized conformer: 94.10100302838168 kcal/mol)

>  <smiles>  (90) 
O=C(Nc1cccc(S(=O)(=O)N=c2[nH]ccs2)c1)c1cccc(Oc2ccccc2)c1

>  <score_type>  (90) 
oracle

>  <origin>  (90) 
adg

>  <m_score__min__energy>  (90) 
-13.470000000000001

>  <m_primary>  (90) 
energy

$$$$
91:0
     RDKit          3D

 41 43  0  0  0  0  0  0  0  0999 V2000
   54.7820   26.1440   46.0040 N   0  0  0  0  0  0  0  0  0  0  0  0
   56.4360   25.6560   45.9030 S   0  0  0  0  0  0  0  0  0  0  0  0
   56.5780   24.5750   44.8680 O   0  0  0  0  0  0  0  0  0  0  0  0
   56.8840   25.1140   47.2310 O   0  0  0  0  0  0  0  0  0  0  0  0
   57.4270   27.0430   45.4620 C   0  0  0  0  0  0  0  0  0  0  0  0
   58.7970   26.8820   45.2190 C   0  0  0  0  0  0  0  0  0  0  0  0
   59.5780   27.9820   44.8580 C   0  0  0  0  0  0  0  0  0  0  0  0
   58.9980   29.2460   44.7340 C   0  0  0  0  0  0  0  0  0  0  0  0
   57.6220   29.4260   44.9690 C   0  0  0  0  0  0  0  0  0  0  0  0
   57.0020   30.7650   44.8320 C   0  0  0  0  0  0  0  0  0  0  0  0
   56.1070   30.9570   43.9640 O   0  0  0  0  0  0  0  0  0  0  0  0
   57.3820   31.8270   45.7180 N   0  0  0  0  0  0  0  0  0  0  0  0
   58.7190   32.2010   46.0820 C   0  0  0  0  0  0  0  0  0  0  0  0
   59.5350   31.3770   46.8780 C   0  0  0  0  0  0  0  0  0  0  0  0
   60.8240   31.7900   47.2290 C   0  0  0  0  0  0  0  0  0  0  0  0
   61.3100   33.0310   46.7980 C   0  0  0  0  0  0  0  0  0  0  0  0
   62.9260   33.5570   47.2550 S   0  0  0  0  0  0  0  0  0  0  0  0
   63.4440   34.5310   46.2350 O   0  0  0  0  0  0  0  0  0  0  0  0
   63.8430   32.3670   47.3110 O   0  0  0  0  0  0  0  0  0  0  0  0
   62.8490   34.3170   48.8120 N   0  0  0  0  0  0  0  0  0  0  0  0
   61.9650   34.0240   49.7160 C   0  0  0  0  0  0  0  0  0  0  0  0
   62.3410   33.5570   50.9400 N   0  0  0  0  0  0  0  0  0  0  0  0
   61.4170   33.2500   51.8860 C   0  0  0  0  0  0  0  0  0  0  0  0
   60.0600   33.4110   51.6110 C   0  0  0  0  0  0  0  0  0  0  0  0
   59.6910   33.8890   50.3550 C   0  0  0  0  0  0  0  0  0  0  0  0
   60.6450   34.1860   49.4340 N   0  0  0  0  0  0  0  0  0  0  0  0
   60.4870   33.8670   46.0320 C   0  0  0  0  0  0  0  0  0  0  0  0
   59.1970   33.4550   45.6820 C   0  0  0  0  0  0  0  0  0  0  0  0
   56.8420   28.3110   45.3310 C   0  0  0  0  0  0  0  0  0  0  0  0
   54.7690   27.0830   46.4640 H   0  0  0  0  0  0  0  0  0  0  0  0
   59.2584   25.8878   45.3126 H   0  0  0  0  0  0  0  0  0  0  0  0
   60.6541   27.8521   44.6706 H   0  0  0  0  0  0  0  0  0  0  0  0
   59.6209   30.1072   44.4506 H   0  0  0  0  0  0  0  0  0  0  0  0
   59.1577   30.4040   47.2257 H   0  0  0  0  0  0  0  0  0  0  0  0
   61.4591   31.1375   47.8462 H   0  0  0  0  0  0  0  0  0  0  0  0
   61.7389   32.8746   52.8686 H   0  0  0  0  0  0  0  0  0  0  0  0
   59.2990   33.1667   52.3668 H   0  0  0  0  0  0  0  0  0  0  0  0
   58.6276   34.0259   50.1092 H   0  0  0  0  0  0  0  0  0  0  0  0
   60.8564   34.8501   45.7049 H   0  0  0  0  0  0  0  0  0  0  0  0
   58.5534   34.1208   45.0883 H   0  0  0  0  0  0  0  0  0  0  0  0
   55.7643   28.4355   45.5127 H   0  0  0  0  0  0  0  0  0  0  0  0
  1  2  1  0
  2  3  2  0
  2  4  2  0
  2  5  1  0
  5  6  2  0
  6  7  1  0
  7  8  2  0
  8  9  1  0
  9 10  1  0
 10 11  2  0
 10 12  1  0
 12 13  1  0
 13 14  2  0
 14 15  1  0
 15 16  2  0
 16 17  1  0
 17 18  2  0
 17 19  2  0
 17 20  1  0
 20 21  2  3
 21 22  1  0
 22 23  2  0
 23 24  1  0
 24 25  2  0
 25 26  1  0
 16 27  1  0
 27 28  2  0
  9 29  2  0
 29  5  1  0
 28 13  1  0
 26 21  1  0
  1 30  1  0
  6 31  1  0
  7 32  1  0
  8 33  1  0
 14 34  1  0
 15 35  1  0
 23 36  1  0
 24 37  1  0
 25 38  1  0
 27 39  1  0
 28 40  1  0
 29 41  1  0
M  CHG  3   1  -1  12  -1  26  -1
M  END
>  <UniqueID>  (91) 
85

>  <SMILES>  (91) 
[NH-]S(=O)(=O)c1cccc(C(=O)[N-]c2ccc(S(=O)(=O)N=c3nccc[n-]3)cc2)c1

>  <Energy>  (91) 
53.104343466726895

>  <Genealogy>  (91) 
[NH-]S(=O)(=O)c1cccc(C(=O)[N-]c2ccc(S(=O)(=O)N=c3nccc[n-]3)cc2)c1 (protonated)
[NH-]S(=O)(=O)c1cccc(C(=O)[N-]c2ccc(S(=O)(=O)N=c3nccc[n-]3)cc2)c1 (3D coordinates assigned)
[NH-]S(=O)(=O)c1cccc(C(=O)[N-]c2ccc(S(=O)(=O)N=c3nccc[n-]3)cc2)c1 (optimized conformer: 53.104343466726895 kcal/mol)

>  <smiles>  (91) 
NS(=O)(=O)c1cccc(C(=O)Nc2ccc(S(=O)(=O)N=c3nccc[nH]3)cc2)c1

>  <score_type>  (91) 
oracle

>  <origin>  (91) 
adg

>  <m_score__min__energy>  (91) 
-14.51

>  <m_primary>  (91) 
energy

$$$$
92:0
     RDKit          3D

 41 44  0  0  0  0  0  0  0  0999 V2000
   55.7540   27.3080   45.6260 O   0  0  0  0  0  0  0  0  0  0  0  0
   56.5710   28.2540   45.4650 C   0  0  0  0  0  0  0  0  0  0  0  0
   56.0950   29.5740   45.1630 N   0  0  0  0  0  0  0  0  0  0  0  0
   56.6850   30.5090   44.2450 C   0  0  0  0  0  0  0  0  0  0  0  0
   56.4380   30.4180   42.8620 C   0  0  0  0  0  0  0  0  0  0  0  0
   57.0300   31.3190   41.9760 C   0  0  0  0  0  0  0  0  0  0  0  0
   57.8860   32.3120   42.4550 C   0  0  0  0  0  0  0  0  0  0  0  0
   58.1600   32.3990   43.8200 C   0  0  0  0  0  0  0  0  0  0  0  0
   57.5700   31.5010   44.7270 C   0  0  0  0  0  0  0  0  0  0  0  0
   57.9090   31.6210   46.1940 C   0  0  0  0  0  0  0  0  0  0  0  0
   58.9560   32.6260   46.3940 N   0  0  0  0  0  0  0  0  0  0  0  0
   58.8400   33.9760   46.3110 C   0  0  0  0  0  0  0  0  0  0  0  0
   57.7720   34.5680   46.0040 O   0  0  0  0  0  0  0  0  0  0  0  0
   59.9640   34.6110   46.5910 O   0  0  0  0  0  0  0  0  0  0  0  0
   60.8380   33.6740   46.8720 C   0  0  0  0  0  0  0  0  0  0  0  0
   62.1740   33.8150   47.2360 C   0  0  0  0  0  0  0  0  0  0  0  0
   62.9080   32.6420   47.4950 C   0  0  0  0  0  0  0  0  0  0  0  0
   62.2920   31.3740   47.3850 C   0  0  0  0  0  0  0  0  0  0  0  0
   60.9390   31.2660   47.0130 C   0  0  0  0  0  0  0  0  0  0  0  0
   60.2400   32.4480   46.7620 C   0  0  0  0  0  0  0  0  0  0  0  0
   58.0230   28.0080   45.6270 C   0  0  0  0  0  0  0  0  0  0  0  0
   58.5020   27.1990   46.6770 C   0  0  0  0  0  0  0  0  0  0  0  0
   59.8730   26.9720   46.8260 C   0  0  0  0  0  0  0  0  0  0  0  0
   60.7810   27.5440   45.9320 C   0  0  0  0  0  0  0  0  0  0  0  0
   60.3200   28.3450   44.8830 C   0  0  0  0  0  0  0  0  0  0  0  0
   58.9490   28.5770   44.7290 C   0  0  0  0  0  0  0  0  0  0  0  0
   55.7733   29.6307   42.4769 H   0  0  0  0  0  0  0  0  0  0  0  0
   56.8217   31.2466   40.8983 H   0  0  0  0  0  0  0  0  0  0  0  0
   58.3448   33.0264   41.7557 H   0  0  0  0  0  0  0  0  0  0  0  0
   58.8438   33.1771   44.1902 H   0  0  0  0  0  0  0  0  0  0  0  0
   57.0087   31.9193   46.7511 H   0  0  0  0  0  0  0  0  0  0  0  0
   58.2726   30.6486   46.5576 H   0  0  0  0  0  0  0  0  0  0  0  0
   62.6399   34.8080   47.3184 H   0  0  0  0  0  0  0  0  0  0  0  0
   63.9669   32.7123   47.7846 H   0  0  0  0  0  0  0  0  0  0  0  0
   62.8751   30.4645   47.5919 H   0  0  0  0  0  0  0  0  0  0  0  0
   60.4496   30.2850   46.9232 H   0  0  0  0  0  0  0  0  0  0  0  0
   57.7925   26.7435   47.3835 H   0  0  0  0  0  0  0  0  0  0  0  0
   60.2380   26.3410   47.6498 H   0  0  0  0  0  0  0  0  0  0  0  0
   61.8594   27.3641   46.0534 H   0  0  0  0  0  0  0  0  0  0  0  0
   61.0358   28.7932   44.1782 H   0  0  0  0  0  0  0  0  0  0  0  0
   58.5911   29.2076   43.9018 H   0  0  0  0  0  0  0  0  0  0  0  0
  1  2  2  0
  2  3  1  0
  3  4  1  0
  4  5  2  0
  5  6  1  0
  6  7  2  0
  7  8  1  0
  8  9  2  0
  9 10  1  0
 10 11  1  0
 11 12  1  0
 12 13  2  0
 12 14  1  0
 14 15  1  0
 15 16  2  0
 16 17  1  0
 17 18  2  0
 18 19  1  0
 19 20  2  0
  2 21  1  0
 21 22  2  0
 22 23  1  0
 23 24  2  0
 24 25  1  0
 25 26  2  0
  9  4  1  0
 20 11  1  0
 26 21  1  0
 20 15  1  0
  5 27  1  0
  6 28  1  0
  7 29  1  0
  8 30  1  0
 10 31  1  0
 10 32  1  0
 16 33  1  0
 17 34  1  0
 18 35  1  0
 19 36  1  0
 22 37  1  0
 23 38  1  0
 24 39  1  0
 25 40  1  0
 26 41  1  0
M  CHG  1   3  -1
M  END
>  <UniqueID>  (92) 
86

>  <SMILES>  (92) 
O=C([N-]c1ccccc1Cn1c(=O)oc2ccccc21)c1ccccc1

>  <Energy>  (92) 
91.45334526735516

>  <Genealogy>  (92) 
O=C([N-]c1ccccc1Cn1c(=O)oc2ccccc21)c1ccccc1 (protonated)
O=C([N-]c1ccccc1Cn1c(=O)oc2ccccc21)c1ccccc1 (3D coordinates assigned)
O=C([N-]c1ccccc1Cn1c(=O)oc2ccccc21)c1ccccc1 (optimized conformer: 91.45334526735516 kcal/mol)

>  <smiles>  (92) 
O=C(Nc1ccccc1Cn1c(=O)oc2ccccc21)c1ccccc1

>  <score_type>  (92) 
oracle

>  <origin>  (92) 
adg

>  <m_score__min__energy>  (92) 
-10.35

>  <m_primary>  (92) 
energy

$$$$
93:0
     RDKit          3D

 29 30  0  0  0  0  0  0  0  0999 V2000
   56.3160   28.2190   44.2240 H   0  0  0  0  0  0  0  0  0  0  0  0
   56.2720   28.1330   45.2570 N   0  0  0  0  0  0  0  0  0  0  0  0
   56.2670   27.0280   45.9340 C   0  0  0  0  0  0  0  0  0  0  0  0
   55.2090   26.2010   45.9560 N   0  0  0  0  0  0  0  0  0  0  0  0
   55.5740   25.2000   46.7440 N   0  0  0  0  0  0  0  0  0  0  0  0
   56.8050   25.3970   47.1930 N   0  0  0  0  0  0  0  0  0  0  0  0
   57.2680   26.5340   46.7040 N   0  0  0  0  0  0  0  0  0  0  0  0
   58.5420   26.9950   47.0050 O   0  0  0  0  0  0  0  0  0  0  0  0
   59.5910   27.1870   46.0670 C   0  0  0  0  0  0  0  0  0  0  0  0
   60.5622   27.0949   46.5752 H   0  0  0  0  0  0  0  0  0  0  0  0
   59.5260   26.4269   45.2745 H   0  0  0  0  0  0  0  0  0  0  0  0
   59.4640   28.5520   45.4710 C   0  0  0  0  0  0  0  0  0  0  0  0
   60.1860   28.8670   44.4870 O   0  0  0  0  0  0  0  0  0  0  0  0
   58.4600   29.4550   45.9610 N   0  0  0  0  0  0  0  0  0  0  0  0
   57.7000   29.0570   46.5590 H   0  0  0  0  0  0  0  0  0  0  0  0
   58.3690   30.8400   45.5850 C   0  0  0  0  0  0  0  0  0  0  0  0
   57.8900   31.1760   44.3100 C   0  0  0  0  0  0  0  0  0  0  0  0
   57.6126   30.3800   43.6033 H   0  0  0  0  0  0  0  0  0  0  0  0
   57.7630   32.5140   43.9320 C   0  0  0  0  0  0  0  0  0  0  0  0
   57.3920   32.7676   42.9280 H   0  0  0  0  0  0  0  0  0  0  0  0
   58.1060   33.5320   44.8260 C   0  0  0  0  0  0  0  0  0  0  0  0
   58.0035   34.5848   44.5243 H   0  0  0  0  0  0  0  0  0  0  0  0
   58.5810   33.2140   46.1080 C   0  0  0  0  0  0  0  0  0  0  0  0
   58.8900   34.3060   47.0890 C   0  0  0  0  0  0  0  0  0  0  0  0
   58.7809   33.9203   48.1134 H   0  0  0  0  0  0  0  0  0  0  0  0
   59.9221   34.6547   46.9365 H   0  0  0  0  0  0  0  0  0  0  0  0
   58.1936   35.1438   46.9365 H   0  0  0  0  0  0  0  0  0  0  0  0
   58.6890   31.8680   46.4910 C   0  0  0  0  0  0  0  0  0  0  0  0
   59.0263   31.6149   47.5070 H   0  0  0  0  0  0  0  0  0  0  0  0
  1  2  1  0
  2  3  2  0
  3  4  1  0
  4  5  2  0
  5  6  1  0
  6  7  1  0
  7  8  1  0
  8  9  1  0
  9 10  1  0
  9 11  1  0
  9 12  1  0
 12 13  2  0
 12 14  1  0
 14 15  1  0
 14 16  1  0
 16 17  2  0
 17 18  1  0
 17 19  1  0
 19 20  1  0
 19 21  2  0
 21 22  1  0
 21 23  1  0
 23 24  1  0
 24 25  1  0
 24 26  1  0
 24 27  1  0
 23 28  2  0
 28 29  1  0
  7  3  1  0
 28 16  1  0
M  CHG  1   6  -1
M  END
>  <UniqueID>  (93) 
87

>  <SMILES>  (93) 
[H]/N=c1/nn[n-]n1OCC(=O)Nc1cccc(C)c1

>  <Energy>  (93) 
77.54935426773149

>  <Genealogy>  (93) 
Cc1cccc(NC(=O)COn2[n-]nnc2=N)c1 (protonated)
[H]/N=c1/nn[n-]n1OCC(=O)Nc1cccc(C)c1 (cis-trans isomerization)
[H]/N=c1/nn[n-]n1OCC(=O)Nc1cccc(C)c1 (3D coordinates assigned)
[H]/N=c1/nn[n-]n1OCC(=O)Nc1cccc(C)c1 (optimized conformer: 77.54935426773149 kcal/mol)

>  <smiles>  (93) 
Cc1cccc(NC(=O)COn2[nH]nnc2=N)c1

>  <score_type>  (93) 
oracle

>  <origin>  (93) 
adg

>  <m_score__min__energy>  (93) 
-9.4499999999999993

>  <m_primary>  (93) 
energy

$$$$
94:0
     RDKit          3D

 58 60  0  0  0  0  0  0  0  0999 V2000
   57.0380   23.5930   44.1330 C   0  0  0  0  0  0  0  0  0  0  0  0
   57.2240   25.0510   44.4550 C   0  0  0  0  0  0  0  0  0  0  0  0
   57.7710   25.9060   43.4840 C   0  0  0  0  0  0  0  0  0  0  0  0
   57.9440   27.2640   43.7520 C   0  0  0  0  0  0  0  0  0  0  0  0
   57.5810   27.7910   44.9950 C   0  0  0  0  0  0  0  0  0  0  0  0
   57.7740   29.5150   45.3240 S   0  0  0  0  0  0  0  0  0  0  0  0
   57.7520   29.7460   46.8090 O   0  0  0  0  0  0  0  0  0  0  0  0
   56.6140   30.2520   44.7190 O   0  0  0  0  0  0  0  0  0  0  0  0
   59.2570   30.1670   44.6760 N   0  0  0  0  0  0  0  0  0  0  0  0
   60.4070   29.2950   44.9270 C   0  0  0  0  0  0  0  0  0  0  0  0
   60.4270   28.7950   46.3450 C   0  0  0  0  0  0  0  0  0  0  0  0
   60.0170   27.5630   46.7070 N   0  0  0  0  0  0  0  0  0  0  0  0
   60.0910   27.5020   48.0290 N   0  0  0  0  0  0  0  0  0  0  0  0
   60.5330   28.7000   48.4530 C   0  0  0  0  0  0  0  0  0  0  0  0
   60.7370   29.1140   50.1890 S   0  0  0  0  0  0  0  0  0  0  0  0
   59.0010   29.6290   50.4280 C   0  0  0  0  0  0  0  0  0  0  0  0
   58.8370   31.1120   50.2740 C   0  0  0  0  0  0  0  0  0  0  0  0
   58.6510   31.8310   51.2930 O   0  0  0  0  0  0  0  0  0  0  0  0
   58.8410   31.7020   48.9670 N   0  0  0  0  0  0  0  0  0  0  0  0
   58.8420   33.1540   48.7690 C   0  0  1  0  0  0  0  0  0  0  0  0
   60.1700   33.7610   49.2330 C   0  0  0  0  0  0  0  0  0  0  0  0
   58.5920   33.4890   47.3140 C   0  0  0  0  0  0  0  0  0  0  0  0
   57.4120   33.0600   46.6830 C   0  0  0  0  0  0  0  0  0  0  0  0
   57.1730   33.3780   45.3420 C   0  0  0  0  0  0  0  0  0  0  0  0
   58.1060   34.1300   44.6230 C   0  0  0  0  0  0  0  0  0  0  0  0
   59.2770   34.5690   45.2440 C   0  0  0  0  0  0  0  0  0  0  0  0
   59.5200   34.2540   46.5840 C   0  0  0  0  0  0  0  0  0  0  0  0
   60.7540   29.5390   47.4210 N   0  0  0  0  0  0  0  0  0  0  0  0
   61.1420   30.9470   47.4630 C   0  0  0  0  0  0  0  0  0  0  0  0
   57.0370   26.9490   45.9720 C   0  0  0  0  0  0  0  0  0  0  0  0
   56.8520   25.5790   45.7150 C   0  0  0  0  0  0  0  0  0  0  0  0
   56.2540   24.7020   46.7830 C   0  0  0  0  0  0  0  0  0  0  0  0
   56.9646   23.0176   45.0676 H   0  0  0  0  0  0  0  0  0  0  0  0
   56.1158   23.4614   43.5480 H   0  0  0  0  0  0  0  0  0  0  0  0
   57.8976   23.2341   43.5480 H   0  0  0  0  0  0  0  0  0  0  0  0
   58.0653   25.5014   42.5044 H   0  0  0  0  0  0  0  0  0  0  0  0
   58.3684   27.9239   42.9810 H   0  0  0  0  0  0  0  0  0  0  0  0
   60.3560   28.4329   44.2457 H   0  0  0  0  0  0  0  0  0  0  0  0
   61.3236   29.8787   44.7563 H   0  0  0  0  0  0  0  0  0  0  0  0
   58.3724   29.1212   49.6817 H   0  0  0  0  0  0  0  0  0  0  0  0
   58.6990   29.3544   51.4495 H   0  0  0  0  0  0  0  0  0  0  0  0
   58.8470   31.0710   48.1330 H   0  0  0  0  0  0  0  0  0  0  0  0
   58.0312   33.5858   49.3741 H   0  0  0  0  0  0  0  0  0  0  0  0
   60.2022   33.7757   50.3324 H   0  0  0  0  0  0  0  0  0  0  0  0
   61.0040   33.1547   48.8499 H   0  0  0  0  0  0  0  0  0  0  0  0
   60.2573   34.7884   48.8499 H   0  0  0  0  0  0  0  0  0  0  0  0
   56.6728   32.4714   47.2462 H   0  0  0  0  0  0  0  0  0  0  0  0
   56.2493   33.0356   44.8526 H   0  0  0  0  0  0  0  0  0  0  0  0
   57.9178   34.3761   43.5675 H   0  0  0  0  0  0  0  0  0  0  0  0
   60.0092   35.1635   44.6780 H   0  0  0  0  0  0  0  0  0  0  0  0
   60.4417   34.6061   47.0703 H   0  0  0  0  0  0  0  0  0  0  0  0
   61.2314   31.2716   48.5102 H   0  0  0  0  0  0  0  0  0  0  0  0
   62.1092   31.0761   46.9552 H   0  0  0  0  0  0  0  0  0  0  0  0
   60.3775   31.5533   46.9552 H   0  0  0  0  0  0  0  0  0  0  0  0
   56.7515   27.3631   46.9503 H   0  0  0  0  0  0  0  0  0  0  0  0
   56.5228   25.0962   47.7741 H   0  0  0  0  0  0  0  0  0  0  0  0
   55.1591   24.6906   46.6775 H   0  0  0  0  0  0  0  0  0  0  0  0
   56.6432   23.6786   46.6775 H   0  0  0  0  0  0  0  0  0  0  0  0
  1  2  1  0
  2  3  2  0
  3  4  1  0
  4  5  2  0
  5  6  1  0
  6  7  2  0
  6  8  2  0
  6  9  1  0
  9 10  1  0
 10 11  1  0
 11 12  2  0
 12 13  1  0
 13 14  2  0
 14 15  1  0
 15 16  1  0
 16 17  1  0
 17 18  2  0
 17 19  1  0
 19 20  1  0
 20 21  1  0
 20 22  1  0
 22 23  2  0
 23 24  1  0
 24 25  2  0
 25 26  1  0
 26 27  2  0
 14 28  1  0
 28 29  1  0
  5 30  1  0
 30 31  2  0
 31 32  1  0
 31  2  1  0
 28 11  1  0
 27 22  1  0
  1 33  1  0
  1 34  1  0
  1 35  1  0
  3 36  1  0
  4 37  1  0
 10 38  1  0
 10 39  1  0
 16 40  1  0
 16 41  1  0
 19 42  1  0
 20 43  1  1
 21 44  1  0
 21 45  1  0
 21 46  1  0
 23 47  1  0
 24 48  1  0
 25 49  1  0
 26 50  1  0
 27 51  1  0
 29 52  1  0
 29 53  1  0
 29 54  1  0
 30 55  1  0
 32 56  1  0
 32 57  1  0
 32 58  1  0
M  CHG  1   9  -1
M  END
>  <UniqueID>  (94) 
88

>  <SMILES>  (94) 
Cc1ccc(S(=O)(=O)[N-]Cc2nnc(SCC(=O)N[C@@H](C)c3ccccc3)n2C)cc1C

>  <Energy>  (94) 
80.90039603577844

>  <Genealogy>  (94) 
Cc1ccc(S(=O)(=O)[N-]Cc2nnc(SCC(=O)NC(C)c3ccccc3)n2C)cc1C (protonated)
Cc1ccc(S(=O)(=O)[N-]Cc2nnc(SCC(=O)N[C@@H](C)c3ccccc3)n2C)cc1C (chirality)
Cc1ccc(S(=O)(=O)[N-]Cc2nnc(SCC(=O)N[C@@H](C)c3ccccc3)n2C)cc1C (3D coordinates assigned)
Cc1ccc(S(=O)(=O)[N-]Cc2nnc(SCC(=O)N[C@@H](C)c3ccccc3)n2C)cc1C (optimized conformer: 80.90039603577844 kcal/mol)

>  <smiles>  (94) 
Cc1ccc(S(=O)(=O)NCc2nnc(SCC(=O)NC(C)c3ccccc3)n2C)cc1C

>  <score_type>  (94) 
oracle

>  <origin>  (94) 
adg

>  <m_score__min__energy>  (94) 
-11.460000000000001

>  <m_primary>  (94) 
energy

$$$$
95:0
     RDKit          3D

 57 62  0  0  0  0  0  0  0  0999 V2000
   56.6310   22.3990   48.6340 C   0  0  0  0  0  0  0  0  0  0  0  0
   57.3880   22.7850   47.4920 O   0  0  0  0  0  0  0  0  0  0  0  0
   57.3880   24.0730   46.9340 C   0  0  0  0  0  0  0  0  0  0  0  0
   58.5790   24.7440   46.6080 C   0  0  0  0  0  0  0  0  0  0  0  0
   58.5410   26.0390   46.0790 C   0  0  0  0  0  0  0  0  0  0  0  0
   57.3110   26.6850   45.8820 C   0  0  0  0  0  0  0  0  0  0  0  0
   56.1120   26.0260   46.2230 C   0  0  0  0  0  0  0  0  0  0  0  0
   54.9000   26.7150   46.1460 O   0  0  0  0  0  0  0  0  0  0  0  0
   56.1550   24.6940   46.6940 C   0  0  0  0  0  0  0  0  0  0  0  0
   54.9800   23.9780   46.9490 O   0  0  0  0  0  0  0  0  0  0  0  0
   54.2850   23.2450   45.9380 C   0  0  0  0  0  0  0  0  0  0  0  0
   54.9220   21.8690   45.7210 C   0  0  0  0  0  0  0  0  0  0  0  0
   55.8190   21.8740   44.5630 N   0  0  0  0  0  0  0  0  0  0  0  0
   56.6220   20.8670   44.1690 C   0  0  0  0  0  0  0  0  0  0  0  0
   57.2670   21.2180   43.0000 C   0  0  0  0  0  0  0  0  0  0  0  0
   56.8230   22.4840   42.6690 C   0  0  0  0  0  0  0  0  0  0  0  0
   55.9240   22.8560   43.6460 C   0  0  0  0  0  0  0  0  0  0  0  0
   57.3330   28.0850   45.4020 C   0  0  0  0  0  0  0  0  0  0  0  0
   56.3040   28.6030   44.8880 O   0  0  0  0  0  0  0  0  0  0  0  0
   58.5350   28.8700   45.5480 N   0  0  0  0  0  0  0  0  0  0  0  0
   58.3990   30.3320   45.7170 C   0  0  0  0  0  0  0  0  0  0  0  0
   59.5140   30.9360   46.6010 C   0  0  0  0  0  0  0  0  0  0  0  0
   59.9170   29.9820   47.7000 C   0  0  0  0  0  0  0  0  0  0  0  0
   60.1780   30.4470   49.0060 C   0  0  0  0  0  0  0  0  0  0  0  0
   60.5740   29.5150   49.9600 C   0  0  0  0  0  0  0  0  0  0  0  0
   60.7180   28.1980   49.6650 C   0  0  0  0  0  0  0  0  0  0  0  0
   60.4820   27.6930   48.3900 C   0  0  0  0  0  0  0  0  0  0  0  0
   60.0800   28.6050   47.3830 C   0  0  0  0  0  0  0  0  0  0  0  0
   59.8020   28.2210   45.9420 C   0  0  1  0  0  0  0  0  0  0  0  0
   59.8050   26.7110   45.6180 C   0  0  0  0  0  0  0  0  0  0  0  0
   61.1190   27.5150   50.7960 O   0  0  0  0  0  0  0  0  0  0  0  0
   61.2350   28.4600   51.8680 C   0  0  0  0  0  0  0  0  0  0  0  0
   60.8770   29.7240   51.2910 O   0  0  0  0  0  0  0  0  0  0  0  0
   57.1772   22.6775   49.5473 H   0  0  0  0  0  0  0  0  0  0  0  0
   55.6574   22.9107   48.6186 H   0  0  0  0  0  0  0  0  0  0  0  0
   56.4734   21.3105   48.6186 H   0  0  0  0  0  0  0  0  0  0  0  0
   59.5474   24.2480   46.7697 H   0  0  0  0  0  0  0  0  0  0  0  0
   54.0130   26.2890   46.3830 H   0  0  0  0  0  0  0  0  0  0  0  0
   53.2375   23.1118   46.2463 H   0  0  0  0  0  0  0  0  0  0  0  0
   54.3408   23.8093   44.9954 H   0  0  0  0  0  0  0  0  0  0  0  0
   55.4966   21.5947   46.6180 H   0  0  0  0  0  0  0  0  0  0  0  0
   54.1192   21.1404   45.5349 H   0  0  0  0  0  0  0  0  0  0  0  0
   56.7451   19.9105   44.6981 H   0  0  0  0  0  0  0  0  0  0  0  0
   57.9927   20.6088   42.4411 H   0  0  0  0  0  0  0  0  0  0  0  0
   57.1276   23.0794   41.7957 H   0  0  0  0  0  0  0  0  0  0  0  0
   55.3759   23.8093   43.6729 H   0  0  0  0  0  0  0  0  0  0  0  0
   58.4402   30.8063   44.7254 H   0  0  0  0  0  0  0  0  0  0  0  0
   57.4383   30.5208   46.2183 H   0  0  0  0  0  0  0  0  0  0  0  0
   60.3915   31.1521   45.9739 H   0  0  0  0  0  0  0  0  0  0  0  0
   59.1309   31.8578   47.0632 H   0  0  0  0  0  0  0  0  0  0  0  0
   60.0719   31.5116   49.2617 H   0  0  0  0  0  0  0  0  0  0  0  0
   60.6035   26.6218   48.1713 H   0  0  0  0  0  0  0  0  0  0  0  0
   60.6519   28.5814   45.3438 H   0  0  0  0  0  0  0  0  0  0  0  0
   59.9015   26.5804   44.5301 H   0  0  0  0  0  0  0  0  0  0  0  0
   60.6510   26.2490   46.1479 H   0  0  0  0  0  0  0  0  0  0  0  0
   60.5483   28.2010   52.6874 H   0  0  0  0  0  0  0  0  0  0  0  0
   62.2476   28.4745   52.2975 H   0  0  0  0  0  0  0  0  0  0  0  0
  1  2  1  0
  2  3  1  0
  3  4  2  0
  4  5  1  0
  5  6  2  0
  6  7  1  0
  7  8  1  0
  7  9  2  0
  9 10  1  0
 10 11  1  0
 11 12  1  0
 12 13  1  0
 13 14  1  0
 14 15  2  0
 15 16  1  0
 16 17  2  0
  6 18  1  0
 18 19  2  0
 18 20  1  0
 20 21  1  0
 21 22  1  0
 22 23  1  0
 23 24  2  0
 24 25  1  0
 25 26  2  0
 26 27  1  0
 27 28  2  0
 28 29  1  0
 29 30  1  0
 26 31  1  0
 31 32  1  0
 32 33  1  0
  9  3  1  0
 17 13  1  0
 29 20  1  0
 30  5  1  0
 28 23  1  0
 33 25  1  0
  1 34  1  0
  1 35  1  0
  1 36  1  0
  4 37  1  0
  8 38  1  0
 11 39  1  0
 11 40  1  0
 12 41  1  0
 12 42  1  0
 14 43  1  0
 15 44  1  0
 16 45  1  0
 17 46  1  0
 21 47  1  0
 21 48  1  0
 22 49  1  0
 22 50  1  0
 24 51  1  0
 27 52  1  0
 29 53  1  6
 30 54  1  0
 30 55  1  0
 32 56  1  0
 32 57  1  0
M  END
>  <UniqueID>  (95) 
89

>  <SMILES>  (95) 
COc1cc2c(c(O)c1OCCn1cccc1)C(=O)N1CCc3cc4c(cc3[C@H]1C2)OCO4

>  <Energy>  (95) 
134.47169609723545

>  <Genealogy>  (95) 
COc1cc2c(c(O)c1OCCn1cccc1)C(=O)N1CCc3cc4c(cc3[C@H]1C2)OCO4 (chirality)
COc1cc2c(c(O)c1OCCn1cccc1)C(=O)N1CCc3cc4c(cc3[C@H]1C2)OCO4 (3D coordinates assigned)
COc1cc2c(c(O)c1OCCn1cccc1)C(=O)N1CCc3cc4c(cc3[C@H]1C2)OCO4 (nonaromatic ring conformer: 134.47169609723545 kcal/mol)

>  <smiles>  (95) 
COc1cc2c(c(O)c1OCCn1cccc1)C(=O)N1CCc3cc4c(cc3C1C2)OCO4

>  <score_type>  (95) 
oracle

>  <origin>  (95) 
adg

>  <m_score__min__energy>  (95) 
-9.0500000000000007

>  <m_primary>  (95) 
energy

$$$$
