0:0
     RDKit          3D

 52 54  0  0  0  0  0  0  0  0999 V2000
   63.8040   32.6090   49.8480 C   0  0  0  0  0  0  0  0  0  0  0  0
   62.8240   33.3730   50.7300 C   0  0  0  0  0  0  0  0  0  0  0  0
   61.4570   32.9070   50.4910 N   0  0  0  0  0  0  0  0  0  0  0  0
   60.8030   32.1740   51.4370 C   0  0  0  0  0  0  0  0  0  0  0  0
   59.5070   31.7050   51.1930 C   0  0  0  0  0  0  0  0  0  0  0  0
   58.8110   30.9080   52.2300 C   0  0  0  0  0  0  0  0  0  0  0  0
   58.8170   29.6480   52.1530 O   0  0  0  0  0  0  0  0  0  0  0  0
   58.1520   31.5500   53.3320 N   0  0  0  0  0  0  0  0  0  0  0  0
   57.1960   30.8480   54.1860 C   0  0  0  0  0  0  0  0  0  0  0  0
   55.8520   30.7910   53.5140 C   0  0  0  0  0  0  0  0  0  0  0  0
   55.6860   31.2650   52.2030 C   0  0  0  0  0  0  0  0  0  0  0  0
   54.4250   31.2410   51.5990 C   0  0  0  0  0  0  0  0  0  0  0  0
   53.3170   30.7460   52.3000 C   0  0  0  0  0  0  0  0  0  0  0  0
   51.7250   30.7370   51.5470 S   0  0  0  0  0  0  0  0  0  0  0  0
   51.1050   32.3490   51.4910 N   0  0  0  0  0  0  0  0  0  0  0  0
   50.7920   29.8670   52.3410 O   0  0  0  0  0  0  0  0  0  0  0  0
   51.8240   30.1900   50.1510 O   0  0  0  0  0  0  0  0  0  0  0  0
   53.4770   30.2860   53.6130 C   0  0  0  0  0  0  0  0  0  0  0  0
   54.7380   30.3080   54.2180 C   0  0  0  0  0  0  0  0  0  0  0  0
   58.9210   31.9740   49.9430 C   0  0  0  0  0  0  0  0  0  0  0  0
   57.7970   31.4820   49.6470 O   0  0  0  0  0  0  0  0  0  0  0  0
   59.6270   32.7500   49.0060 C   0  0  0  0  0  0  0  0  0  0  0  0
   59.0700   33.0920   47.6740 C   0  0  0  0  0  0  0  0  0  0  0  0
   59.2960   34.3680   47.1320 C   0  0  0  0  0  0  0  0  0  0  0  0
   58.7680   34.7100   45.8850 C   0  0  0  0  0  0  0  0  0  0  0  0
   58.0010   33.7870   45.1710 C   0  0  0  0  0  0  0  0  0  0  0  0
   57.7470   32.5160   45.6990 C   0  0  0  0  0  0  0  0  0  0  0  0
   56.9630   31.6290   44.9460 O   0  0  0  0  0  0  0  0  0  0  0  0
   57.3760   31.0310   43.7220 C   0  0  0  0  0  0  0  0  0  0  0  0
   58.2800   32.1740   46.9570 C   0  0  0  0  0  0  0  0  0  0  0  0
   60.8800   33.1740   49.3170 N   0  0  0  0  0  0  0  0  0  0  0  0
   64.5132   32.0561   50.4815 H   0  0  0  0  0  0  0  0  0  0  0  0
   63.2509   31.9014   49.2129 H   0  0  0  0  0  0  0  0  0  0  0  0
   64.3553   33.3180   49.2129 H   0  0  0  0  0  0  0  0  0  0  0  0
   63.0835   33.2103   51.7865 H   0  0  0  0  0  0  0  0  0  0  0  0
   62.8846   34.4444   50.4882 H   0  0  0  0  0  0  0  0  0  0  0  0
   61.2956   31.9506   52.3948 H   0  0  0  0  0  0  0  0  0  0  0  0
   58.3650   32.5510   53.5460 H   0  0  0  0  0  0  0  0  0  0  0  0
   57.5550   29.8247   54.3702 H   0  0  0  0  0  0  0  0  0  0  0  0
   57.1003   31.3869   55.1401 H   0  0  0  0  0  0  0  0  0  0  0  0
   56.5515   31.6569   51.6486 H   0  0  0  0  0  0  0  0  0  0  0  0
   54.3024   31.6117   50.5706 H   0  0  0  0  0  0  0  0  0  0  0  0
   50.2710   32.3320   50.8610 H   0  0  0  0  0  0  0  0  0  0  0  0
   52.6081   29.9061   54.1704 H   0  0  0  0  0  0  0  0  0  0  0  0
   54.8570   29.9453   55.2496 H   0  0  0  0  0  0  0  0  0  0  0  0
   59.8925   35.1024   47.6931 H   0  0  0  0  0  0  0  0  0  0  0  0
   58.9568   35.7087   45.4644 H   0  0  0  0  0  0  0  0  0  0  0  0
   57.5936   34.0608   44.1866 H   0  0  0  0  0  0  0  0  0  0  0  0
   57.9891   30.1432   43.9362 H   0  0  0  0  0  0  0  0  0  0  0  0
   56.4900   30.7335   43.1420 H   0  0  0  0  0  0  0  0  0  0  0  0
   57.9680   31.7542   43.1420 H   0  0  0  0  0  0  0  0  0  0  0  0
   58.0770   31.1804   47.3830 H   0  0  0  0  0  0  0  0  0  0  0  0
  1  2  1  0
  2  3  1  0
  3  4  1  0
  4  5  2  0
  5  6  1  0
  6  7  2  0
  6  8  1  0
  8  9  1  0
  9 10  1  0
 10 11  2  0
 11 12  1  0
 12 13  2  0
 13 14  1  0
 14 15  1  0
 14 16  2  0
 14 17  2  0
 13 18  1  0
 18 19  2  0
  5 20  1  0
 20 21  2  0
 20 22  1  0
 22 23  1  0
 23 24  2  0
 24 25  1  0
 25 26  2  0
 26 27  1  0
 27 28  1  0
 28 29  1  0
 27 30  2  0
 22 31  2  0
 31  3  1  0
 19 10  1  0
 30 23  1  0
  1 32  1  0
  1 33  1  0
  1 34  1  0
  2 35  1  0
  2 36  1  0
  4 37  1  0
  8 38  1  0
  9 39  1  0
  9 40  1  0
 11 41  1  0
 12 42  1  0
 15 43  1  0
 18 44  1  0
 19 45  1  0
 24 46  1  0
 25 47  1  0
 26 48  1  0
 29 49  1  0
 29 50  1  0
 29 51  1  0
 30 52  1  0
M  CHG  1  15  -1
M  END
>  <UniqueID>  (1) 
1

>  <SMILES>  (1) 
CCn1cc(C(=O)NCc2ccc(S([NH-])(=O)=O)cc2)c(=O)c(-c2cccc(OC)c2)n1

>  <Energy>  (1) 
57.86122919314908

>  <Genealogy>  (1) 
CCn1cc(C(=O)NCc2ccc(S([NH-])(=O)=O)cc2)c(=O)c(-c2cccc(OC)c2)n1 (protonated)
CCn1cc(C(=O)NCc2ccc(S([NH-])(=O)=O)cc2)c(=O)c(-c2cccc(OC)c2)n1 (3D coordinates assigned)
CCn1cc(C(=O)NCc2ccc(S([NH-])(=O)=O)cc2)c(=O)c(-c2cccc(OC)c2)n1 (optimized conformer: 57.86122919314908 kcal/mol)

>  <smiles>  (1) 
CCn1cc(C(=O)NCc2ccc(S(N)(=O)=O)cc2)c(=O)c(-c2cccc(OC)c2)n1

>  <score_type>  (1) 
oracle

>  <origin>  (1) 
adg

>  <m_score__min__energy>  (1) 
-10.949999999999999

>  <m_primary>  (1) 
energy

$$$$
1:0
     RDKit          3D

 47 50  0  0  0  0  0  0  0  0999 V2000
   56.3480   30.0860   42.8510 O   0  0  0  0  0  0  0  0  0  0  0  0
   56.3500   30.1380   44.3530 S   0  0  0  0  0  0  0  0  0  0  0  0
   55.1470   29.4020   44.8720 O   0  0  0  0  0  0  0  0  0  0  0  0
   56.2670   31.7920   44.8670 N   0  0  0  0  0  0  0  0  0  0  0  0
   57.3680   32.5490   45.3920 C   0  0  0  0  0  0  0  0  0  0  0  0
   58.3750   33.0800   44.5640 C   0  0  0  0  0  0  0  0  0  0  0  0
   59.4260   33.8200   45.1160 C   0  0  0  0  0  0  0  0  0  0  0  0
   59.4890   34.0370   46.5040 C   0  0  0  0  0  0  0  0  0  0  0  0
   60.5500   34.7410   47.0960 O   0  0  0  0  0  0  0  0  0  0  0  0
   61.6890   34.1530   47.6630 C   0  0  0  0  0  0  0  0  0  0  0  0
   61.9400   34.2090   49.0470 C   0  0  0  0  0  0  0  0  0  0  0  0
   63.0820   33.6020   49.5800 C   0  0  0  0  0  0  0  0  0  0  0  0
   63.9750   32.9310   48.7390 C   0  0  0  0  0  0  0  0  0  0  0  0
   63.7200   32.8540   47.3670 C   0  0  0  0  0  0  0  0  0  0  0  0
   62.5760   33.4560   46.8330 C   0  0  0  0  0  0  0  0  0  0  0  0
   58.4980   33.4920   47.3270 C   0  0  0  0  0  0  0  0  0  0  0  0
   57.4380   32.7640   46.7750 C   0  0  0  0  0  0  0  0  0  0  0  0
   57.8340   29.4010   44.9480 C   0  0  0  0  0  0  0  0  0  0  0  0
   58.5260   28.4650   44.1650 C   0  0  0  0  0  0  0  0  0  0  0  0
   59.6770   27.8520   44.6630 C   0  0  0  0  0  0  0  0  0  0  0  0
   60.1470   28.1680   45.9410 C   0  0  0  0  0  0  0  0  0  0  0  0
   59.4700   29.1140   46.7350 C   0  0  0  0  0  0  0  0  0  0  0  0
   59.9670   29.4520   48.0930 C   0  0  0  0  0  0  0  0  0  0  0  0
   60.5950   28.4740   48.8880 C   0  0  0  0  0  0  0  0  0  0  0  0
   61.0660   28.7950   50.1650 C   0  0  0  0  0  0  0  0  0  0  0  0
   60.9160   30.0920   50.6620 C   0  0  0  0  0  0  0  0  0  0  0  0
   60.2940   31.0720   49.8830 C   0  0  0  0  0  0  0  0  0  0  0  0
   60.1560   32.3310   50.3650 F   0  0  0  0  0  0  0  0  0  0  0  0
   59.8210   30.7560   48.6040 C   0  0  0  0  0  0  0  0  0  0  0  0
   58.3120   29.7280   46.2260 C   0  0  0  0  0  0  0  0  0  0  0  0
   58.3353   32.9122   43.4776 H   0  0  0  0  0  0  0  0  0  0  0  0
   60.2069   34.2341   44.4612 H   0  0  0  0  0  0  0  0  0  0  0  0
   61.2360   34.7316   49.7113 H   0  0  0  0  0  0  0  0  0  0  0  0
   63.2776   33.6526   50.6613 H   0  0  0  0  0  0  0  0  0  0  0  0
   64.8786   32.4635   49.1574 H   0  0  0  0  0  0  0  0  0  0  0  0
   64.4192   32.3198   46.7069 H   0  0  0  0  0  0  0  0  0  0  0  0
   62.3717   33.3816   45.7547 H   0  0  0  0  0  0  0  0  0  0  0  0
   58.5523   33.6367   48.4161 H   0  0  0  0  0  0  0  0  0  0  0  0
   56.6543   32.3577   47.4313 H   0  0  0  0  0  0  0  0  0  0  0  0
   58.1614   28.2140   43.1580 H   0  0  0  0  0  0  0  0  0  0  0  0
   60.2164   27.1172   44.0472 H   0  0  0  0  0  0  0  0  0  0  0  0
   61.0507   27.6750   46.3287 H   0  0  0  0  0  0  0  0  0  0  0  0
   60.7159   27.4510   48.5021 H   0  0  0  0  0  0  0  0  0  0  0  0
   61.5555   28.0249   50.7793 H   0  0  0  0  0  0  0  0  0  0  0  0
   61.2875   30.3422   51.6667 H   0  0  0  0  0  0  0  0  0  0  0  0
   59.3325   31.5307   47.9947 H   0  0  0  0  0  0  0  0  0  0  0  0
   57.7762   30.4711   46.8349 H   0  0  0  0  0  0  0  0  0  0  0  0
  1  2  2  0
  2  3  2  0
  2  4  1  0
  4  5  1  0
  5  6  2  0
  6  7  1  0
  7  8  2  0
  8  9  1  0
  9 10  1  0
 10 11  2  0
 11 12  1  0
 12 13  2  0
 13 14  1  0
 14 15  2  0
  8 16  1  0
 16 17  2  0
  2 18  1  0
 18 19  2  0
 19 20  1  0
 20 21  2  0
 21 22  1  0
 22 23  1  0
 23 24  2  0
 24 25  1  0
 25 26  2  0
 26 27  1  0
 27 28  1  0
 27 29  2  0
 22 30  2  0
 17  5  1  0
 30 18  1  0
 15 10  1  0
 29 23  1  0
  6 31  1  0
  7 32  1  0
 11 33  1  0
 12 34  1  0
 13 35  1  0
 14 36  1  0
 15 37  1  0
 16 38  1  0
 17 39  1  0
 19 40  1  0
 20 41  1  0
 21 42  1  0
 24 43  1  0
 25 44  1  0
 26 45  1  0
 29 46  1  0
 30 47  1  0
M  CHG  1   4  -1
M  END
>  <UniqueID>  (2) 
2

>  <SMILES>  (2) 
O=S(=O)([N-]c1ccc(Oc2ccccc2)cc1)c1cccc(-c2cccc(F)c2)c1

>  <Energy>  (2) 
66.46583945053005

>  <Genealogy>  (2) 
O=S(=O)([N-]c1ccc(Oc2ccccc2)cc1)c1cccc(-c2cccc(F)c2)c1 (protonated)
O=S(=O)([N-]c1ccc(Oc2ccccc2)cc1)c1cccc(-c2cccc(F)c2)c1 (3D coordinates assigned)
O=S(=O)([N-]c1ccc(Oc2ccccc2)cc1)c1cccc(-c2cccc(F)c2)c1 (optimized conformer: 66.46583945053005 kcal/mol)

>  <smiles>  (2) 
O=S(=O)(Nc1ccc(Oc2ccccc2)cc1)c1cccc(-c2cccc(F)c2)c1

>  <score_type>  (2) 
oracle

>  <origin>  (2) 
adg

>  <m_score__min__energy>  (2) 
-10.720000000000001

>  <m_primary>  (2) 
energy

$$$$
2:0
     RDKit          3D

 46 48  0  0  0  0  0  0  0  0999 V2000
   61.3180   34.0030   49.5210 C   0  0  0  0  0  0  0  0  0  0  0  0
   60.3710   33.8060   48.3730 C   0  0  0  0  0  0  0  0  0  0  0  0
   59.1200   33.2000   48.5730 C   0  0  0  0  0  0  0  0  0  0  0  0
   58.2430   33.0310   47.5000 C   0  0  0  0  0  0  0  0  0  0  0  0
   58.5980   33.4780   46.2190 C   0  0  0  0  0  0  0  0  0  0  0  0
   57.4850   33.3110   44.8640 S   0  0  0  0  0  0  0  0  0  0  0  0
   56.4460   34.3920   44.9610 O   0  0  0  0  0  0  0  0  0  0  0  0
   58.2080   33.4460   43.5530 O   0  0  0  0  0  0  0  0  0  0  0  0
   56.7070   31.7630   44.9300 N   0  0  0  0  0  0  0  0  0  0  0  0
   57.3670   30.5050   44.7360 C   0  0  0  0  0  0  0  0  0  0  0  0
   56.8580   29.6190   43.7810 C   0  0  0  0  0  0  0  0  0  0  0  0
   57.4410   28.3630   43.6030 C   0  0  0  0  0  0  0  0  0  0  0  0
   58.5330   27.9760   44.3840 C   0  0  0  0  0  0  0  0  0  0  0  0
   59.0740   28.8570   45.3410 C   0  0  0  0  0  0  0  0  0  0  0  0
   60.2110   28.4590   46.2120 C   0  0  0  0  0  0  0  0  0  0  0  0
   61.0340   29.3360   46.5980 O   0  0  0  0  0  0  0  0  0  0  0  0
   60.4290   27.0510   46.6090 C   0  0  0  0  0  0  0  0  0  0  0  0
   59.4970   26.2660   47.1730 C   0  0  0  0  0  0  0  0  0  0  0  0
   58.3560   25.6520   46.4560 C   0  0  0  0  0  0  0  0  0  0  0  0
   58.4930   24.4400   45.7540 C   0  0  0  0  0  0  0  0  0  0  0  0
   57.3910   23.8680   45.1150 C   0  0  0  0  0  0  0  0  0  0  0  0
   56.1400   24.4840   45.1870 C   0  0  0  0  0  0  0  0  0  0  0  0
   55.9860   25.6750   45.9090 C   0  0  0  0  0  0  0  0  0  0  0  0
   54.7400   26.2920   45.9980 O   0  0  0  0  0  0  0  0  0  0  0  0
   57.0880   26.2490   46.5480 C   0  0  0  0  0  0  0  0  0  0  0  0
   58.4890   30.1280   45.4970 C   0  0  0  0  0  0  0  0  0  0  0  0
   59.8380   34.0980   46.0220 C   0  0  0  0  0  0  0  0  0  0  0  0
   60.7200   34.2630   47.0940 C   0  0  0  0  0  0  0  0  0  0  0  0
   60.7728   33.8896   50.4696 H   0  0  0  0  0  0  0  0  0  0  0  0
   62.1205   33.2526   49.4673 H   0  0  0  0  0  0  0  0  0  0  0  0
   61.7546   35.0112   49.4673 H   0  0  0  0  0  0  0  0  0  0  0  0
   58.8304   32.8577   49.5775 H   0  0  0  0  0  0  0  0  0  0  0  0
   57.2692   32.5451   47.6600 H   0  0  0  0  0  0  0  0  0  0  0  0
   55.9940   29.9132   43.1671 H   0  0  0  0  0  0  0  0  0  0  0  0
   57.0389   27.6751   42.8446 H   0  0  0  0  0  0  0  0  0  0  0  0
   58.9732   26.9768   44.2507 H   0  0  0  0  0  0  0  0  0  0  0  0
   61.4237   26.6168   46.4298 H   0  0  0  0  0  0  0  0  0  0  0  0
   59.5880   26.0634   48.2504 H   0  0  0  0  0  0  0  0  0  0  0  0
   59.4723   23.9411   45.7085 H   0  0  0  0  0  0  0  0  0  0  0  0
   57.5088   22.9295   44.5534 H   0  0  0  0  0  0  0  0  0  0  0  0
   55.2753   24.0343   44.6769 H   0  0  0  0  0  0  0  0  0  0  0  0
   54.3000   26.7160   45.1900 H   0  0  0  0  0  0  0  0  0  0  0  0
   56.9616   27.1754   47.1275 H   0  0  0  0  0  0  0  0  0  0  0  0
   58.9147   30.8358   46.2235 H   0  0  0  0  0  0  0  0  0  0  0  0
   60.1189   34.4563   45.0207 H   0  0  0  0  0  0  0  0  0  0  0  0
   61.6916   34.7532   46.9336 H   0  0  0  0  0  0  0  0  0  0  0  0
  1  2  1  0
  2  3  2  0
  3  4  1  0
  4  5  2  0
  5  6  1  0
  6  7  2  0
  6  8  2  0
  6  9  1  0
  9 10  1  0
 10 11  2  0
 11 12  1  0
 12 13  2  0
 13 14  1  0
 14 15  1  0
 15 16  2  0
 15 17  1  0
 17 18  2  3
 18 19  1  0
 19 20  2  0
 20 21  1  0
 21 22  2  0
 22 23  1  0
 23 24  1  0
 23 25  2  0
 14 26  2  0
  5 27  1  0
 27 28  2  0
 28  2  1  0
 26 10  1  0
 25 19  1  0
  1 29  1  0
  1 30  1  0
  1 31  1  0
  3 32  1  0
  4 33  1  0
 11 34  1  0
 12 35  1  0
 13 36  1  0
 17 37  1  0
 18 38  1  0
 20 39  1  0
 21 40  1  0
 22 41  1  0
 24 42  1  0
 25 43  1  0
 26 44  1  0
 27 45  1  0
 28 46  1  0
M  CHG  1   9  -1
M  END
>  <UniqueID>  (3) 
3

>  <SMILES>  (3) 
Cc1ccc(S(=O)(=O)[N-]c2cccc(C(=O)C=Cc3cccc(O)c3)c2)cc1

>  <Energy>  (3) 
59.537938230099755

>  <Genealogy>  (3) 
Cc1ccc(S(=O)(=O)[N-]c2cccc(C(=O)C=Cc3cccc(O)c3)c2)cc1 (protonated)
Cc1ccc(S(=O)(=O)[N-]c2cccc(C(=O)C=Cc3cccc(O)c3)c2)cc1 (3D coordinates assigned)
Cc1ccc(S(=O)(=O)[N-]c2cccc(C(=O)C=Cc3cccc(O)c3)c2)cc1 (optimized conformer: 59.537938230099755 kcal/mol)

>  <smiles>  (3) 
Cc1ccc(S(=O)(=O)Nc2cccc(C(=O)C=Cc3cccc(O)c3)c2)cc1

>  <score_type>  (3) 
oracle

>  <origin>  (3) 
adg

>  <m_score__min__energy>  (3) 
-11.52

>  <m_primary>  (3) 
energy

$$$$
3:0
     RDKit          3D

 28 30  0  0  0  0  0  0  0  0999 V2000
   64.1870   34.9790   51.8200 C   0  0  0  0  0  0  0  0  0  0  0  0
   65.0860   33.8590   51.3890 C   0  0  0  0  0  0  0  0  0  0  0  0
   66.1970   33.4600   52.1520 C   0  0  0  0  0  0  0  0  0  0  0  0
   66.9340   32.4350   51.5780 C   0  0  0  0  0  0  0  0  0  0  0  0
   66.2030   32.0130   50.1260 S   0  0  0  0  0  0  0  0  0  0  0  0
   64.9350   33.1180   50.2120 C   0  0  0  0  0  0  0  0  0  0  0  0
   63.8760   33.2540   49.1890 C   0  0  0  0  0  0  0  0  0  0  0  0
   62.5890   33.6660   49.5690 C   0  0  0  0  0  0  0  0  0  0  0  0
   61.5880   33.7990   48.5990 C   0  0  0  0  0  0  0  0  0  0  0  0
   60.2900   34.1970   48.9530 C   0  0  0  0  0  0  0  0  0  0  0  0
   59.3030   34.3230   47.9700 C   0  0  0  0  0  0  0  0  0  0  0  0
   59.6030   34.0530   46.6320 C   0  0  0  0  0  0  0  0  0  0  0  0
   58.2490   34.2290   45.2970 Br  0  0  0  0  0  0  0  0  0  0  0  0
   60.8950   33.6560   46.2690 C   0  0  0  0  0  0  0  0  0  0  0  0
   61.8910   33.5260   47.2480 C   0  0  0  0  0  0  0  0  0  0  0  0
   63.1920   33.1340   46.9090 C   0  0  0  0  0  0  0  0  0  0  0  0
   64.1450   33.0130   47.8710 N   0  0  0  0  0  0  0  0  0  0  0  0
   64.1538   35.0204   52.9187 H   0  0  0  0  0  0  0  0  0  0  0  0
   64.5743   35.9313   51.4287 H   0  0  0  0  0  0  0  0  0  0  0  0
   63.1734   34.8069   51.4287 H   0  0  0  0  0  0  0  0  0  0  0  0
   66.4582   33.9191   53.1169 H   0  0  0  0  0  0  0  0  0  0  0  0
   67.8406   31.9775   52.0007 H   0  0  0  0  0  0  0  0  0  0  0  0
   62.3678   33.8834   50.6244 H   0  0  0  0  0  0  0  0  0  0  0  0
   60.0483   34.4102   50.0047 H   0  0  0  0  0  0  0  0  0  0  0  0
   58.2866   34.6359   48.2512 H   0  0  0  0  0  0  0  0  0  0  0  0
   61.1296   33.4457   45.2151 H   0  0  0  0  0  0  0  0  0  0  0  0
   63.4440   32.9230   45.8593 H   0  0  0  0  0  0  0  0  0  0  0  0
   65.1120   32.7560   47.5730 H   0  0  0  0  0  0  0  0  0  0  0  0
  1  2  1  0
  2  3  1  0
  3  4  2  0
  4  5  1  0
  5  6  1  0
  6  7  1  0
  7  8  2  0
  8  9  1  0
  9 10  2  0
 10 11  1  0
 11 12  2  0
 12 13  1  0
 12 14  1  0
 14 15  2  0
 15 16  1  0
 16 17  2  0
  6  2  2  0
 17  7  1  0
 15  9  1  0
  1 18  1  0
  1 19  1  0
  1 20  1  0
  3 21  1  0
  4 22  1  0
  8 23  1  0
 10 24  1  0
 11 25  1  0
 14 26  1  0
 16 27  1  0
 17 28  1  0
M  CHG  1  17   1
M  END
>  <UniqueID>  (4) 
4

>  <SMILES>  (4) 
Cc1ccsc1-c1cc2ccc(Br)cc2c[nH+]1

>  <Energy>  (4) 
63.00162231778035

>  <Genealogy>  (4) 
Cc1ccsc1-c1cc2ccc(Br)cc2c[nH+]1 (protonated)
Cc1ccsc1-c1cc2ccc(Br)cc2c[nH+]1 (3D coordinates assigned)
Cc1ccsc1-c1cc2ccc(Br)cc2c[nH+]1 (optimized conformer: 63.00162231778035 kcal/mol)

>  <smiles>  (4) 
Cc1ccsc1-c1cc2ccc(Br)cc2cn1

>  <score_type>  (4) 
oracle

>  <origin>  (4) 
adg

>  <m_score__min__energy>  (4) 
-5.8300000000000001

>  <m_primary>  (4) 
energy

$$$$
4:0
     RDKit          3D

 37 39  0  0  0  0  0  0  0  0999 V2000
   54.6323   24.6305   46.1543 H   0  0  0  0  0  0  0  0  0  0  0  0
   55.5440   25.2070   45.9390 C   0  0  0  0  0  0  0  0  0  0  0  0
   55.5800   26.5650   46.0040 N   0  0  0  0  0  0  0  0  0  0  0  0
   56.8010   27.0510   45.7010 C   0  0  0  0  0  0  0  0  0  0  0  0
   57.0520   28.3280   45.7020 N   0  0  0  0  0  0  0  0  0  0  0  0
   56.3850   29.3540   44.9490 C   0  0  0  0  0  0  0  0  0  0  0  0
   55.1340   29.3400   44.7930 O   0  0  0  0  0  0  0  0  0  0  0  0
   57.1650   30.4320   44.4250 N   0  0  0  0  0  0  0  0  0  0  0  0
   57.7310   31.5150   45.1800 C   0  0  0  0  0  0  0  0  0  0  0  0
   57.0480   32.7370   45.3200 C   0  0  0  0  0  0  0  0  0  0  0  0
   56.0348   32.8484   44.9065 H   0  0  0  0  0  0  0  0  0  0  0  0
   57.6510   33.8100   45.9820 C   0  0  0  0  0  0  0  0  0  0  0  0
   57.1038   34.7563   46.1048 H   0  0  0  0  0  0  0  0  0  0  0  0
   58.9440   33.6840   46.4870 C   0  0  0  0  0  0  0  0  0  0  0  0
   59.4168   34.5322   47.0038 H   0  0  0  0  0  0  0  0  0  0  0  0
   59.6400   32.4830   46.3380 C   0  0  0  0  0  0  0  0  0  0  0  0
   60.6669   32.3947   46.7223 H   0  0  0  0  0  0  0  0  0  0  0  0
   59.0380   31.3900   45.7020 C   0  0  0  0  0  0  0  0  0  0  0  0
   59.7750   30.2020   45.5790 O   0  0  0  0  0  0  0  0  0  0  0  0
   59.9560   29.2580   46.6020 C   0  0  0  0  0  0  0  0  0  0  0  0
   59.7830   29.5870   47.9580 C   0  0  0  0  0  0  0  0  0  0  0  0
   59.5002   30.6116   48.2413 H   0  0  0  0  0  0  0  0  0  0  0  0
   59.9690   28.6170   48.9480 C   0  0  0  0  0  0  0  0  0  0  0  0
   59.8211   28.8809   50.0056 H   0  0  0  0  0  0  0  0  0  0  0  0
   60.3420   27.3130   48.6030 C   0  0  0  0  0  0  0  0  0  0  0  0
   60.5120   26.3750   49.6320 O   0  0  0  0  0  0  0  0  0  0  0  0
   61.1160   26.6600   50.8890 C   0  0  0  0  0  0  0  0  0  0  0  0
   60.4433   26.3426   51.6994 H   0  0  0  0  0  0  0  0  0  0  0  0
   62.0690   26.1166   50.9695 H   0  0  0  0  0  0  0  0  0  0  0  0
   61.3025   27.7411   50.9695 H   0  0  0  0  0  0  0  0  0  0  0  0
   60.5350   26.9900   47.2460 C   0  0  0  0  0  0  0  0  0  0  0  0
   60.8339   25.9701   46.9625 H   0  0  0  0  0  0  0  0  0  0  0  0
   60.3480   27.9610   46.2580 C   0  0  0  0  0  0  0  0  0  0  0  0
   60.5106   27.7024   45.2013 H   0  0  0  0  0  0  0  0  0  0  0  0
   57.8860   25.8090   45.3390 S   0  0  0  0  0  0  0  0  0  0  0  0
   56.7420   24.6000   45.5810 C   0  0  0  0  0  0  0  0  0  0  0  0
   56.9121   23.5185   45.4746 H   0  0  0  0  0  0  0  0  0  0  0  0
  1  2  1  0
  2  3  1  0
  3  4  1  0
  4  5  2  0
  5  6  1  0
  6  7  2  0
  6  8  1  0
  8  9  1  0
  9 10  2  0
 10 11  1  0
 10 12  1  0
 12 13  1  0
 12 14  2  0
 14 15  1  0
 14 16  1  0
 16 17  1  0
 16 18  2  0
 18 19  1  0
 19 20  1  0
 20 21  2  0
 21 22  1  0
 21 23  1  0
 23 24  1  0
 23 25  2  0
 25 26  1  0
 26 27  1  0
 27 28  1  0
 27 29  1  0
 27 30  1  0
 25 31  1  0
 31 32  1  0
 31 33  2  0
 33 34  1  0
  4 35  1  0
 35 36  1  0
 36 37  1  0
 36  2  2  0
 18  9  1  0
 33 20  1  0
M  CHG  2   3  -1   8  -1
M  END
>  <UniqueID>  (5) 
5

>  <SMILES>  (5) 
COc1ccc(Oc2ccccc2[N-]C(=O)/N=c2/[n-]ccs2)cc1

>  <Energy>  (5) 
83.09012036538039

>  <Genealogy>  (5) 
COc1ccc(Oc2ccccc2[N-]C(=O)N=c2[n-]ccs2)cc1 (protonated)
COc1ccc(Oc2ccccc2[N-]C(=O)/N=c2/[n-]ccs2)cc1 (cis-trans isomerization)
COc1ccc(Oc2ccccc2[N-]C(=O)/N=c2/[n-]ccs2)cc1 (3D coordinates assigned)
COc1ccc(Oc2ccccc2[N-]C(=O)/N=c2/[n-]ccs2)cc1 (optimized conformer: 83.09012036538039 kcal/mol)

>  <smiles>  (5) 
COc1ccc(Oc2ccccc2NC(=O)N=c2[nH]ccs2)cc1

>  <score_type>  (5) 
oracle

>  <origin>  (5) 
adg

>  <m_score__min__energy>  (5) 
-10.140000000000001

>  <m_primary>  (5) 
energy

$$$$
5:0
     RDKit          3D

 56 59  0  0  1  0  0  0  0  0999 V2000
   55.9410   22.3050   43.3590 N   0  0  0  0  0  0  0  0  0  0  0  0
   56.3920   23.1070   44.0390 C   0  0  0  0  0  0  0  0  0  0  0  0
   56.9760   24.1210   44.9020 C   0  0  0  0  0  0  0  0  0  0  0  0
   56.2230   25.1870   45.3630 C   0  0  0  0  0  0  0  0  0  0  0  0
   56.7880   26.1580   46.1910 C   0  0  0  0  0  0  0  0  0  0  0  0
   58.1190   26.0100   46.5310 C   0  0  0  0  0  0  0  0  0  0  0  0
   58.7990   26.9520   47.3770 N   0  0  0  0  0  0  0  0  0  0  0  0
   59.4910   27.9130   46.8800 C   0  0  0  0  0  0  0  0  0  0  0  0
   60.0700   27.7270   45.6950 N   0  0  0  0  0  0  0  0  0  0  0  0
   60.7920   28.7280   45.1730 C   0  0  0  0  0  0  0  0  0  0  0  0
   60.9390   29.8930   45.8170 N   0  0  0  0  0  0  0  0  0  0  0  0
   60.3960   30.1650   47.0030 C   0  0  0  0  0  0  0  0  0  0  0  0
   60.5160   31.3750   47.7290 N   0  0  0  0  0  0  0  0  0  0  0  0
   61.6820   32.0680   48.0440 C   0  0  0  0  0  0  0  0  0  0  0  0
   62.7620   31.4120   48.6330 C   0  0  0  0  0  0  0  0  0  0  0  0
   63.9450   32.0850   48.9580 C   0  0  0  0  0  0  0  0  0  0  0  0
   64.0750   33.4180   48.7040 C   0  0  0  0  0  0  0  0  0  0  0  0
   62.9990   34.0620   48.1190 C   0  0  0  0  0  0  0  0  0  0  0  0
   61.8170   33.4360   47.7840 C   0  0  0  0  0  0  0  0  0  0  0  0
   60.7740   34.2410   47.1840 C   0  0  0  0  0  0  0  0  0  0  0  0
   60.2030   35.2250   47.7190 O   0  0  0  0  0  0  0  0  0  0  0  0
   60.2840   33.9630   45.8590 N   0  0  0  0  0  0  0  0  0  0  0  0
   59.2380   34.7800   45.2550 C   0  0  0  0  0  0  0  0  0  0  0  0
   57.8990   34.1700   45.5810 C   0  0  0  0  0  0  0  0  0  0  0  0
   57.8020   32.7780   45.0520 C   0  0  0  0  0  0  0  0  0  0  0  0
   57.7650   31.6860   45.9260 C   0  0  0  0  0  0  0  0  0  0  0  0
   57.6690   30.3920   45.4870 C   0  0  0  0  0  0  0  0  0  0  0  0
   57.6030   30.1150   44.1380 C   0  0  0  0  0  0  0  0  0  0  0  0
   57.4800   28.4470   43.6150 Cl  0  0  0  0  0  0  0  0  0  0  0  0
   57.6360   31.1680   43.2520 C   0  0  0  0  0  0  0  0  0  0  0  0
   57.7330   32.4760   43.7140 C   0  0  0  0  0  0  0  0  0  0  0  0
   59.6350   29.1080   47.5510 C   0  0  0  0  0  0  0  0  0  0  0  0
   58.9870   29.2370   48.8150 C   0  0  0  0  0  0  0  0  0  0  0  0
   58.4700   29.3410   49.8330 N   0  0  0  0  0  0  0  0  0  0  0  0
   58.8680   24.9370   46.0650 C   0  0  0  0  0  0  0  0  0  0  0  0
   58.3070   23.9730   45.2410 C   0  0  0  0  0  0  0  0  0  0  0  0
   55.1652   25.2699   45.0729 H   0  0  0  0  0  0  0  0  0  0  0  0
   56.1961   27.0090   46.5590 H   0  0  0  0  0  0  0  0  0  0  0  0
   59.9650   26.8320   45.1880 H   0  0  0  0  0  0  0  0  0  0  0  0
   61.2745   28.5898   44.1942 H   0  0  0  0  0  0  0  0  0  0  0  0
   59.6000   31.7720   48.0500 H   0  0  0  0  0  0  0  0  0  0  0  0
   62.6820   30.3362   48.8481 H   0  0  0  0  0  0  0  0  0  0  0  0
   64.7764   31.5342   49.4220 H   0  0  0  0  0  0  0  0  0  0  0  0
   64.9988   33.9603   48.9542 H   0  0  0  0  0  0  0  0  0  0  0  0
   63.0922   35.1377   47.9086 H   0  0  0  0  0  0  0  0  0  0  0  0
   60.6360   33.1860   45.2750 H   0  0  0  0  0  0  0  0  0  0  0  0
   59.2872   35.8020   45.6588 H   0  0  0  0  0  0  0  0  0  0  0  0
   59.3762   34.8193   44.1644 H   0  0  0  0  0  0  0  0  0  0  0  0
   57.7694   34.1495   46.6732 H   0  0  0  0  0  0  0  0  0  0  0  0
   57.1128   34.7790   45.1108 H   0  0  0  0  0  0  0  0  0  0  0  0
   57.8150   31.8741   47.0086 H   0  0  0  0  0  0  0  0  0  0  0  0
   57.6444   29.5683   46.2157 H   0  0  0  0  0  0  0  0  0  0  0  0
   57.5853   30.9733   42.1705 H   0  0  0  0  0  0  0  0  0  0  0  0
   57.7552   33.2972   42.9825 H   0  0  0  0  0  0  0  0  0  0  0  0
   59.9256   24.8504   46.3549 H   0  0  0  0  0  0  0  0  0  0  0  0
   58.8992   23.1229   44.8714 H   0  0  0  0  0  0  0  0  0  0  0  0
  1  2  3  0
  2  3  1  0
  3  4  2  0
  4  5  1  0
  5  6  2  0
  6  7  1  0
  7  8  2  0
  8  9  1  0
  9 10  1  0
 10 11  2  0
 11 12  1  0
 12 13  1  0
 13 14  1  0
 14 15  2  0
 15 16  1  0
 16 17  2  0
 17 18  1  0
 18 19  2  0
 19 20  1  0
 20 21  2  0
 20 22  1  0
 22 23  1  0
 23 24  1  0
 24 25  1  0
 25 26  2  0
 26 27  1  0
 27 28  2  0
 28 29  1  0
 28 30  1  0
 30 31  2  0
 12 32  2  0
 32 33  1  0
 33 34  3  0
  6 35  1  0
 35 36  2  0
 36  3  1  0
 32  8  1  0
 19 14  1  0
 31 25  1  0
  4 37  1  0
  5 38  1  0
  9 39  1  0
 10 40  1  0
 13 41  1  0
 15 42  1  0
 16 43  1  0
 17 44  1  0
 18 45  1  0
 22 46  1  0
 23 47  1  0
 23 48  1  0
 24 49  1  0
 24 50  1  0
 26 51  1  0
 27 52  1  0
 30 53  1  0
 31 54  1  0
 35 55  1  0
 36 56  1  0
M  END
>  <smiles>  (6) 
N#Cc1ccc(N=c2[nH]cnc(Nc3ccccc3C(=O)NCCc3ccc(Cl)cc3)c2C#N)cc1

>  <score_type>  (6) 
oracle

>  <origin>  (6) 
adg

>  <m_score__min__energy>  (6) 
-9.7799999999999994

>  <m_primary>  (6) 
energy

$$$$
6:0
     RDKit          3D

 35 38  0  0  0  0  0  0  0  0999 V2000
   54.8760   29.3610   43.5110 O   0  0  0  0  0  0  0  0  0  0  0  0
   55.9100   29.8210   44.0650 C   0  0  0  0  0  0  0  0  0  0  0  0
   55.9210   31.1150   44.5100 N   0  0  0  0  0  0  0  0  0  0  0  0
   57.0200   31.6530   45.1110 C   0  0  0  0  0  0  0  0  0  0  0  0
   56.9830   32.8310   45.5520 O   0  0  0  0  0  0  0  0  0  0  0  0
   58.1540   30.8530   45.2460 C   0  0  0  0  0  0  0  0  0  0  0  0
   59.4000   31.0420   45.8310 C   0  0  0  0  0  0  0  0  0  0  0  0
   59.9660   32.2600   46.4370 C   0  0  0  0  0  0  0  0  0  0  0  0
   59.6960   33.5610   45.9780 C   0  0  0  0  0  0  0  0  0  0  0  0
   60.3780   34.5480   46.6750 C   0  0  0  0  0  0  0  0  0  0  0  0
   61.3280   33.8030   47.8430 S   0  0  0  0  0  0  0  0  0  0  0  0
   60.8850   32.2240   47.4800 C   0  0  0  0  0  0  0  0  0  0  0  0
   60.0460   29.8100   45.7420 C   0  0  0  0  0  0  0  0  0  0  0  0
   59.2610   28.9070   45.1090 N   0  0  0  0  0  0  0  0  0  0  0  0
   59.5750   27.4930   44.9030 C   0  0  0  0  0  0  0  0  0  0  0  0
   58.5000   26.6290   45.5080 C   0  0  0  0  0  0  0  0  0  0  0  0
   58.3890   26.4940   46.9020 C   0  0  0  0  0  0  0  0  0  0  0  0
   57.4040   25.6690   47.4530 C   0  0  0  0  0  0  0  0  0  0  0  0
   56.5260   24.9710   46.6180 C   0  0  0  0  0  0  0  0  0  0  0  0
   56.6320   25.0990   45.2300 C   0  0  0  0  0  0  0  0  0  0  0  0
   57.6160   25.9230   44.6750 C   0  0  0  0  0  0  0  0  0  0  0  0
   58.1130   29.5530   44.8200 C   0  0  0  0  0  0  0  0  0  0  0  0
   57.0090   29.0250   44.2280 N   0  0  0  0  0  0  0  0  0  0  0  0
   59.0096   33.7760   45.1458 H   0  0  0  0  0  0  0  0  0  0  0  0
   60.3086   35.6308   46.4941 H   0  0  0  0  0  0  0  0  0  0  0  0
   61.2574   31.3181   47.9807 H   0  0  0  0  0  0  0  0  0  0  0  0
   61.0531   29.6008   46.1318 H   0  0  0  0  0  0  0  0  0  0  0  0
   59.6413   27.2888   43.8242 H   0  0  0  0  0  0  0  0  0  0  0  0
   60.5354   27.2639   45.3878 H   0  0  0  0  0  0  0  0  0  0  0  0
   59.0795   27.0393   47.5622 H   0  0  0  0  0  0  0  0  0  0  0  0
   57.3195   25.5688   48.5452 H   0  0  0  0  0  0  0  0  0  0  0  0
   55.7522   24.3215   47.0532 H   0  0  0  0  0  0  0  0  0  0  0  0
   55.9404   24.5507   44.5735 H   0  0  0  0  0  0  0  0  0  0  0  0
   57.6982   26.0188   43.5823 H   0  0  0  0  0  0  0  0  0  0  0  0
   56.9930   28.0340   43.9030 H   0  0  0  0  0  0  0  0  0  0  0  0
  1  2  2  0
  2  3  1  0
  3  4  1  0
  4  5  2  0
  4  6  1  0
  6  7  1  0
  7  8  1  0
  8  9  1  0
  9 10  2  0
 10 11  1  0
 11 12  1  0
  7 13  2  0
 13 14  1  0
 14 15  1  0
 15 16  1  0
 16 17  2  0
 17 18  1  0
 18 19  2  0
 19 20  1  0
 20 21  2  0
 14 22  1  0
 22 23  1  0
 23  2  1  0
 22  6  2  0
 12  8  2  0
 21 16  1  0
  9 24  1  0
 10 25  1  0
 12 26  1  0
 13 27  1  0
 15 28  1  0
 15 29  1  0
 17 30  1  0
 18 31  1  0
 19 32  1  0
 20 33  1  0
 21 34  1  0
 23 35  1  0
M  CHG  1   3  -1
M  END
>  <UniqueID>  (7) 
6

>  <SMILES>  (7) 
O=c1[n-]c(=O)c2c(-c3ccsc3)cn(Cc3ccccc3)c2[nH]1

>  <Energy>  (7) 
105.25514101928624

>  <Genealogy>  (7) 
O=c1[n-]c(=O)c2c(-c3ccsc3)cn(Cc3ccccc3)c2[nH]1 (protonated)
O=c1[n-]c(=O)c2c(-c3ccsc3)cn(Cc3ccccc3)c2[nH]1 (3D coordinates assigned)
O=c1[n-]c(=O)c2c(-c3ccsc3)cn(Cc3ccccc3)c2[nH]1 (optimized conformer: 105.25514101928624 kcal/mol)

>  <smiles>  (7) 
O=c1[nH]c(=O)c2c(-c3ccsc3)cn(Cc3ccccc3)c2[nH]1

>  <score_type>  (7) 
oracle

>  <origin>  (7) 
adg

>  <m_score__min__energy>  (7) 
-9.0600000000000005

>  <m_primary>  (7) 
energy

$$$$
7:0
     RDKit          3D

 45 48  0  0  0  0  0  0  0  0999 V2000
   58.2672   27.5769   43.6473 H   0  0  0  0  0  0  0  0  0  0  0  0
   57.7810   27.0890   44.5050 C   0  0  0  0  0  0  0  0  0  0  0  0
   57.2470   27.8710   45.4520 C   0  0  0  0  0  0  0  0  0  0  0  0
   56.8920   27.4065   46.3838 H   0  0  0  0  0  0  0  0  0  0  0  0
   57.1170   29.3300   45.2930 C   0  0  0  0  0  0  0  0  0  0  0  0
   56.0670   29.9090   44.6650 N   0  0  0  0  0  0  0  0  0  0  0  0
   56.2330   31.2290   44.6610 N   0  0  0  0  0  0  0  0  0  0  0  0
   57.3970   31.4880   45.2800 C   0  0  0  0  0  0  0  0  0  0  0  0
   57.9930   32.7310   45.4710 C   0  0  0  0  0  0  0  0  0  0  0  0
   57.4970   33.6533   45.1342 H   0  0  0  0  0  0  0  0  0  0  0  0
   59.2560   32.7760   46.1110 C   0  0  0  0  0  0  0  0  0  0  0  0
   59.9260   34.0410   46.3150 N   0  0  0  0  0  0  0  0  0  0  0  0
   60.1320   34.5210   45.4090 H   0  0  0  0  0  0  0  0  0  0  0  0
   59.2710   34.6740   46.8310 H   0  0  0  0  0  0  0  0  0  0  0  0
   61.1530   33.8600   47.0620 C   0  0  0  0  0  0  0  0  0  0  0  0
   62.3360   33.5350   46.3710 C   0  0  0  0  0  0  0  0  0  0  0  0
   62.3059   33.3982   45.2800 H   0  0  0  0  0  0  0  0  0  0  0  0
   63.5450   33.3840   47.0490 C   0  0  0  0  0  0  0  0  0  0  0  0
   64.4579   33.1279   46.4913 H   0  0  0  0  0  0  0  0  0  0  0  0
   63.6010   33.5570   48.4360 C   0  0  0  0  0  0  0  0  0  0  0  0
   64.8420   33.4050   49.1300 N   0  0  0  0  0  0  0  0  0  0  0  0
   65.6970   33.0740   48.6300 H   0  0  0  0  0  0  0  0  0  0  0  0
   64.9150   33.6230   50.1490 H   0  0  0  0  0  0  0  0  0  0  0  0
   62.4350   33.8810   49.1390 C   0  0  0  0  0  0  0  0  0  0  0  0
   62.4793   34.0177   50.2296 H   0  0  0  0  0  0  0  0  0  0  0  0
   61.2090   34.0340   48.4710 C   0  0  0  0  0  0  0  0  0  0  0  0
   60.0450   34.3600   49.2440 N   0  0  0  0  0  0  0  0  0  0  0  0
   59.6630   35.3310   49.2380 H   0  0  0  0  0  0  0  0  0  0  0  0
   59.5610   33.6680   49.8520 H   0  0  0  0  0  0  0  0  0  0  0  0
   59.8910   31.5590   46.4820 C   0  0  0  0  0  0  0  0  0  0  0  0
   60.8892   31.5866   46.9434 H   0  0  0  0  0  0  0  0  0  0  0  0
   59.2600   30.3200   46.2670 C   0  0  0  0  0  0  0  0  0  0  0  0
   59.7503   29.3765   46.5489 H   0  0  0  0  0  0  0  0  0  0  0  0
   57.9930   30.3270   45.6850 C   0  0  0  0  0  0  0  0  0  0  0  0
   57.7580   25.6050   44.5400 C   0  0  0  0  0  0  0  0  0  0  0  0
   58.4830   24.9490   45.5500 C   0  0  0  0  0  0  0  0  0  0  0  0
   59.0517   25.5394   46.2835 H   0  0  0  0  0  0  0  0  0  0  0  0
   58.4880   23.5540   45.6310 C   0  0  0  0  0  0  0  0  0  0  0  0
   59.0653   23.0516   46.4212 H   0  0  0  0  0  0  0  0  0  0  0  0
   57.7610   22.7970   44.7100 C   0  0  0  0  0  0  0  0  0  0  0  0
   57.7684   21.6988   44.7727 H   0  0  0  0  0  0  0  0  0  0  0  0
   57.0250   23.4340   43.7100 C   0  0  0  0  0  0  0  0  0  0  0  0
   56.4508   22.8362   42.9869 H   0  0  0  0  0  0  0  0  0  0  0  0
   57.0150   24.8300   43.6240 C   0  0  0  0  0  0  0  0  0  0  0  0
   56.4254   25.3260   42.8389 H   0  0  0  0  0  0  0  0  0  0  0  0
  1  2  1  0
  2  3  2  0
  3  4  1  0
  3  5  1  0
  5  6  1  0
  6  7  1  0
  7  8  2  0
  8  9  1  0
  9 10  1  0
  9 11  2  0
 11 12  1  0
 12 13  1  0
 12 14  1  0
 12 15  1  0
 15 16  2  0
 16 17  1  0
 16 18  1  0
 18 19  1  0
 18 20  2  0
 20 21  1  0
 21 22  1  0
 21 23  1  0
 20 24  1  0
 24 25  1  0
 24 26  2  0
 26 27  1  0
 27 28  1  0
 27 29  1  0
 11 30  1  0
 30 31  1  0
 30 32  2  0
 32 33  1  0
 32 34  1  0
  2 35  1  0
 35 36  2  0
 36 37  1  0
 36 38  1  0
 38 39  1  0
 38 40  2  0
 40 41  1  0
 40 42  1  0
 42 43  1  0
 42 44  2  0
 44 45  1  0
 34  5  2  0
 44 35  1  0
 34  8  1  0
 26 15  1  0
M  CHG  2   6  -1  12   1
M  END
>  <UniqueID>  (8) 
7

>  <SMILES>  (8) 
Nc1ccc([NH2+]c2ccc3c(/C=C/c4ccccc4)[n-]nc3c2)c(N)c1

>  <Energy>  (8) 
96.56404041969152

>  <Genealogy>  (8) 
Nc1ccc([NH2+]c2ccc3c(C=Cc4ccccc4)[n-]nc3c2)c(N)c1 (protonated)
Nc1ccc([NH2+]c2ccc3c(/C=C/c4ccccc4)[n-]nc3c2)c(N)c1 (cis-trans isomerization)
Nc1ccc([NH2+]c2ccc3c(/C=C/c4ccccc4)[n-]nc3c2)c(N)c1 (3D coordinates assigned)
Nc1ccc([NH2+]c2ccc3c(/C=C/c4ccccc4)[n-]nc3c2)c(N)c1 (optimized conformer: 96.56404041969152 kcal/mol)

>  <smiles>  (8) 
Nc1ccc(Nc2ccc3c(C=Cc4ccccc4)[nH]nc3c2)c(N)c1

>  <score_type>  (8) 
oracle

>  <origin>  (8) 
adg

>  <m_score__min__energy>  (8) 
-9.4800000000000004

>  <m_primary>  (8) 
energy

$$$$
8:0
     RDKit          3D

 18 18  0  0  0  0  0  0  0  0999 V2000
   60.3526   30.2119   48.0703 H   0  0  0  0  0  0  0  0  0  0  0  0
   59.8910   30.2300   47.0720 C   0  0  0  0  0  0  0  0  0  0  0  0
   58.8120   30.8590   46.9090 O   0  0  0  0  0  0  0  0  0  0  0  0
   60.5540   29.5170   45.9640 C   0  0  0  0  0  0  0  0  0  0  0  0
   61.5635   29.8533   45.6850 H   0  0  0  0  0  0  0  0  0  0  0  0
   60.0360   28.4950   45.2660 C   0  0  0  0  0  0  0  0  0  0  0  0
   60.6857   28.0118   44.5214 H   0  0  0  0  0  0  0  0  0  0  0  0
   58.6650   27.9650   45.4150 C   0  0  0  0  0  0  0  0  0  0  0  0
   58.4740   26.7150   46.0240 C   0  0  0  0  0  0  0  0  0  0  0  0
   59.3439   26.1250   46.3483 H   0  0  0  0  0  0  0  0  0  0  0  0
   57.1830   26.2170   46.2200 C   0  0  0  0  0  0  0  0  0  0  0  0
   57.0408   25.2292   46.6827 H   0  0  0  0  0  0  0  0  0  0  0  0
   56.0720   26.9700   45.8300 C   0  0  0  0  0  0  0  0  0  0  0  0
   54.7910   26.4670   46.0260 O   0  0  0  0  0  0  0  0  0  0  0  0
   56.2520   28.2310   45.2500 C   0  0  0  0  0  0  0  0  0  0  0  0
   55.1510   28.9920   44.8750 O   0  0  0  0  0  0  0  0  0  0  0  0
   57.5430   28.7320   45.0530 C   0  0  0  0  0  0  0  0  0  0  0  0
   57.6814   29.7306   44.6129 H   0  0  0  0  0  0  0  0  0  0  0  0
  1  2  1  0
  2  3  2  0
  2  4  1  0
  4  5  1  0
  4  6  2  0
  6  7  1  0
  6  8  1  0
  8  9  2  0
  9 10  1  0
  9 11  1  0
 11 12  1  0
 11 13  2  0
 13 14  1  0
 13 15  1  0
 15 16  1  0
 15 17  2  0
 17 18  1  0
 17  8  1  0
M  CHG  2  14  -1  16  -1
M  END
>  <UniqueID>  (9) 
8

>  <SMILES>  (9) 
O=C/C=C\c1ccc([O-])c([O-])c1

>  <Energy>  (9) 
24.49878015285856

>  <Genealogy>  (9) 
O=CC=Cc1ccc([O-])c([O-])c1 (protonated)
O=C/C=C\c1ccc([O-])c([O-])c1 (cis-trans isomerization)
O=C/C=C\c1ccc([O-])c([O-])c1 (3D coordinates assigned)
O=C/C=C\c1ccc([O-])c([O-])c1 (optimized conformer: 24.49878015285856 kcal/mol)

>  <smiles>  (9) 
O=CC=Cc1ccc(O)c(O)c1

>  <score_type>  (9) 
oracle

>  <origin>  (9) 
adg

>  <m_score__min__energy>  (9) 
-14.029999999999999

>  <m_primary>  (9) 
energy

$$$$
9:0
     RDKit          3D

 37 38  0  0  0  0  0  0  0  0999 V2000
   56.6820   24.8110   44.6060 C   0  0  0  0  0  0  0  0  0  0  0  0
   55.8990   25.8750   45.7990 S   0  0  0  0  0  0  0  0  0  0  0  0
   56.2750   25.4120   47.1780 O   0  0  0  0  0  0  0  0  0  0  0  0
   54.4040   25.8110   45.6610 O   0  0  0  0  0  0  0  0  0  0  0  0
   56.4460   27.5080   45.5930 N   0  0  0  0  0  0  0  0  0  0  0  0
   57.6280   28.0860   46.1730 C   0  0  0  0  0  0  0  0  0  0  0  0
   58.4810   27.3390   47.0050 C   0  0  0  0  0  0  0  0  0  0  0  0
   59.6080   27.9300   47.5760 C   0  0  0  0  0  0  0  0  0  0  0  0
   59.9090   29.2650   47.3130 C   0  0  0  0  0  0  0  0  0  0  0  0
   59.0960   30.0220   46.4620 C   0  0  0  0  0  0  0  0  0  0  0  0
   59.4390   31.3930   46.2150 N   0  0  0  0  0  0  0  0  0  0  0  0
   58.9690   32.4700   47.0360 C   0  0  0  0  0  0  0  0  0  0  0  0
   58.0750   32.2670   47.9030 O   0  0  0  0  0  0  0  0  0  0  0  0
   59.5540   33.8400   46.8850 C   0  0  0  0  0  0  0  0  0  0  0  0
   60.9910   33.8370   47.3430 C   0  0  0  0  0  0  0  0  0  0  0  0
   62.0180   33.7860   46.3830 C   0  0  0  0  0  0  0  0  0  0  0  0
   63.3570   33.7380   46.7780 C   0  0  0  0  0  0  0  0  0  0  0  0
   63.6860   33.7310   48.1340 C   0  0  0  0  0  0  0  0  0  0  0  0
   62.6780   33.7680   49.0990 C   0  0  0  0  0  0  0  0  0  0  0  0
   61.3320   33.8160   48.7150 C   0  0  0  0  0  0  0  0  0  0  0  0
   60.1060   33.8360   49.9780 Cl  0  0  0  0  0  0  0  0  0  0  0  0
   57.9350   29.4370   45.9070 C   0  0  0  0  0  0  0  0  0  0  0  0
   57.0210   30.2320   45.1150 C   0  0  0  0  0  0  0  0  0  0  0  0
   56.2890   30.8670   44.4830 N   0  0  0  0  0  0  0  0  0  0  0  0
   57.2553   24.0320   45.1299 H   0  0  0  0  0  0  0  0  0  0  0  0
   55.9139   24.3394   43.9754 H   0  0  0  0  0  0  0  0  0  0  0  0
   57.3607   25.4041   43.9754 H   0  0  0  0  0  0  0  0  0  0  0  0
   58.2578   26.2810   47.2069 H   0  0  0  0  0  0  0  0  0  0  0  0
   60.2613   27.3404   48.2360 H   0  0  0  0  0  0  0  0  0  0  0  0
   60.7923   29.7272   47.7779 H   0  0  0  0  0  0  0  0  0  0  0  0
   59.9370   31.6260   45.3260 H   0  0  0  0  0  0  0  0  0  0  0  0
   59.5085   34.1417   45.8282 H   0  0  0  0  0  0  0  0  0  0  0  0
   58.9794   34.5492   47.4988 H   0  0  0  0  0  0  0  0  0  0  0  0
   61.7646   33.7839   45.3126 H   0  0  0  0  0  0  0  0  0  0  0  0
   64.1528   33.7057   46.0193 H   0  0  0  0  0  0  0  0  0  0  0  0
   64.7411   33.6963   48.4430 H   0  0  0  0  0  0  0  0  0  0  0  0
   62.9423   33.7594   50.1667 H   0  0  0  0  0  0  0  0  0  0  0  0
  1  2  1  0
  2  3  2  0
  2  4  2  0
  2  5  1  0
  5  6  1  0
  6  7  2  0
  7  8  1  0
  8  9  2  0
  9 10  1  0
 10 11  1  0
 11 12  1  0
 12 13  2  0
 12 14  1  0
 14 15  1  0
 15 16  2  0
 16 17  1  0
 17 18  2  0
 18 19  1  0
 19 20  2  0
 20 21  1  0
 10 22  2  0
 22 23  1  0
 23 24  3  0
 22  6  1  0
 20 15  1  0
  1 25  1  0
  1 26  1  0
  1 27  1  0
  7 28  1  0
  8 29  1  0
  9 30  1  0
 11 31  1  0
 14 32  1  0
 14 33  1  0
 16 34  1  0
 17 35  1  0
 18 36  1  0
 19 37  1  0
M  CHG  1   5  -1
M  END
>  <UniqueID>  (10) 
9

>  <SMILES>  (10) 
CS(=O)(=O)[N-]c1cccc(NC(=O)Cc2ccccc2Cl)c1C#N

>  <Energy>  (10) 
40.89349413606806

>  <Genealogy>  (10) 
CS(=O)(=O)[N-]c1cccc(NC(=O)Cc2ccccc2Cl)c1C#N (protonated)
CS(=O)(=O)[N-]c1cccc(NC(=O)Cc2ccccc2Cl)c1C#N (3D coordinates assigned)
CS(=O)(=O)[N-]c1cccc(NC(=O)Cc2ccccc2Cl)c1C#N (optimized conformer: 40.89349413606806 kcal/mol)

>  <smiles>  (10) 
CS(=O)(=O)Nc1cccc(NC(=O)Cc2ccccc2Cl)c1C#N

>  <score_type>  (10) 
oracle

>  <origin>  (10) 
adg

>  <m_score__min__energy>  (10) 
-10.199999999999999

>  <m_primary>  (10) 
energy

$$$$
10:0
     RDKit          3D

 51 54  0  0  0  0  0  0  0  0999 V2000
   59.7390   34.5660   48.1230 C   0  0  0  0  0  0  0  0  0  0  0  0
   59.2610   35.2340   46.8380 C   0  0  0  0  0  0  0  0  0  0  0  0
   58.6580   34.2190   45.9030 C   0  0  0  0  0  0  0  0  0  0  0  0
   57.6080   33.3940   46.3350 C   0  0  0  0  0  0  0  0  0  0  0  0
   57.0260   32.4740   45.4590 C   0  0  0  0  0  0  0  0  0  0  0  0
   57.4890   32.3650   44.1330 C   0  0  0  0  0  0  0  0  0  0  0  0
   56.9300   31.4650   43.2150 O   0  0  0  0  0  0  0  0  0  0  0  0
   56.9310   30.0680   43.3410 C   0  0  0  0  0  0  0  0  0  0  0  0
   56.2690   29.3540   42.5390 O   0  0  0  0  0  0  0  0  0  0  0  0
   57.6660   29.4350   44.4580 C   0  0  0  0  0  0  0  0  0  0  0  0
   57.0280   28.5150   45.3100 C   0  0  0  0  0  0  0  0  0  0  0  0
   57.7270   27.9200   46.3630 C   0  0  0  0  0  0  0  0  0  0  0  0
   59.0780   28.2330   46.5930 C   0  0  0  0  0  0  0  0  0  0  0  0
   59.8130   27.5920   47.7100 C   0  0  0  0  0  0  0  0  0  0  0  0
   60.4410   26.5170   47.5040 O   0  0  0  0  0  0  0  0  0  0  0  0
   59.7780   28.1530   49.0330 N   0  0  0  0  0  0  0  0  0  0  0  0
   60.7510   27.8580   50.0520 C   0  0  0  0  0  0  0  0  0  0  0  0
   61.5170   28.8780   50.6520 C   0  0  0  0  0  0  0  0  0  0  0  0
   62.4360   28.5710   51.6620 C   0  0  0  0  0  0  0  0  0  0  0  0
   62.5860   27.2500   52.0900 C   0  0  0  0  0  0  0  0  0  0  0  0
   61.8360   26.2300   51.4910 C   0  0  0  0  0  0  0  0  0  0  0  0
   60.9060   26.5350   50.4930 C   0  0  0  0  0  0  0  0  0  0  0  0
   62.0300   24.9090   51.9090 O   0  0  0  0  0  0  0  0  0  0  0  0
   63.1540   24.5490   52.7170 C   0  0  0  0  0  0  0  0  0  0  0  0
   63.4390   25.6460   53.7520 C   0  0  0  0  0  0  0  0  0  0  0  0
   63.4760   26.9270   53.1170 O   0  0  0  0  0  0  0  0  0  0  0  0
   59.7180   29.1450   45.7350 C   0  0  0  0  0  0  0  0  0  0  0  0
   59.0190   29.7400   44.6810 C   0  0  0  0  0  0  0  0  0  0  0  0
   58.5140   33.2120   43.6970 C   0  0  0  0  0  0  0  0  0  0  0  0
   59.0970   34.1320   44.5730 C   0  0  0  0  0  0  0  0  0  0  0  0
   59.3454   35.1160   48.9905 H   0  0  0  0  0  0  0  0  0  0  0  0
   59.3778   33.5274   48.1527 H   0  0  0  0  0  0  0  0  0  0  0  0
   60.8386   34.5727   48.1527 H   0  0  0  0  0  0  0  0  0  0  0  0
   58.5033   35.9921   47.0854 H   0  0  0  0  0  0  0  0  0  0  0  0
   60.1230   35.7038   46.3418 H   0  0  0  0  0  0  0  0  0  0  0  0
   57.2411   33.4721   47.3691 H   0  0  0  0  0  0  0  0  0  0  0  0
   56.2029   31.8322   45.8062 H   0  0  0  0  0  0  0  0  0  0  0  0
   55.9701   28.2622   45.1456 H   0  0  0  0  0  0  0  0  0  0  0  0
   57.2154   27.1997   47.0184 H   0  0  0  0  0  0  0  0  0  0  0  0
   58.9400   28.7130   49.3070 H   0  0  0  0  0  0  0  0  0  0  0  0
   61.3918   29.9207   50.3247 H   0  0  0  0  0  0  0  0  0  0  0  0
   63.0396   29.3694   52.1183 H   0  0  0  0  0  0  0  0  0  0  0  0
   60.2934   25.7349   50.0518 H   0  0  0  0  0  0  0  0  0  0  0  0
   62.9383   23.6050   53.2388 H   0  0  0  0  0  0  0  0  0  0  0  0
   64.0358   24.4292   52.0704 H   0  0  0  0  0  0  0  0  0  0  0  0
   62.6459   25.6412   54.5143 H   0  0  0  0  0  0  0  0  0  0  0  0
   64.4138   25.4506   54.2227 H   0  0  0  0  0  0  0  0  0  0  0  0
   60.7779   29.3923   45.8947 H   0  0  0  0  0  0  0  0  0  0  0  0
   59.5330   30.4535   44.0202 H   0  0  0  0  0  0  0  0  0  0  0  0
   58.8640   33.1533   42.6558 H   0  0  0  0  0  0  0  0  0  0  0  0
   59.9034   34.7907   44.2183 H   0  0  0  0  0  0  0  0  0  0  0  0
  1  2  1  0
  2  3  1  0
  3  4  2  0
  4  5  1  0
  5  6  2  0
  6  7  1  0
  7  8  1  0
  8  9  2  0
  8 10  1  0
 10 11  2  0
 11 12  1  0
 12 13  2  0
 13 14  1  0
 14 15  2  0
 14 16  1  0
 16 17  1  0
 17 18  2  0
 18 19  1  0
 19 20  2  0
 20 21  1  0
 21 22  2  0
 21 23  1  0
 23 24  1  0
 24 25  1  0
 25 26  1  0
 13 27  1  0
 27 28  2  0
  6 29  1  0
 29 30  2  0
 30  3  1  0
 28 10  1  0
 22 17  1  0
 26 20  1  0
  1 31  1  0
  1 32  1  0
  1 33  1  0
  2 34  1  0
  2 35  1  0
  4 36  1  0
  5 37  1  0
 11 38  1  0
 12 39  1  0
 16 40  1  0
 18 41  1  0
 19 42  1  0
 22 43  1  0
 24 44  1  0
 24 45  1  0
 25 46  1  0
 25 47  1  0
 27 48  1  0
 28 49  1  0
 29 50  1  0
 30 51  1  0
M  END
>  <UniqueID>  (11) 
10

>  <SMILES>  (11) 
CCc1ccc(OC(=O)c2ccc(C(=O)Nc3ccc4c(c3)OCCO4)cc2)cc1

>  <Energy>  (11) 
63.20918206825748

>  <Genealogy>  (11) 
CCc1ccc(OC(=O)c2ccc(C(=O)Nc3ccc4c(c3)OCCO4)cc2)cc1 (3D coordinates assigned)
CCc1ccc(OC(=O)c2ccc(C(=O)Nc3ccc4c(c3)OCCO4)cc2)cc1 (nonaromatic ring conformer: 63.20918206825748 kcal/mol)

>  <smiles>  (11) 
CCc1ccc(OC(=O)c2ccc(C(=O)Nc3ccc4c(c3)OCCO4)cc2)cc1

>  <score_type>  (11) 
oracle

>  <origin>  (11) 
adg

>  <m_score__min__energy>  (11) 
-8.8399999999999999

>  <m_primary>  (11) 
energy

$$$$
11:0
     RDKit          3D

 54 57  0  0  1  0  0  0  0  0999 V2000
   60.0980   34.7320   55.0280 C   0  0  0  0  0  0  0  0  0  0  0  0
   60.4630   34.0600   53.8400 O   0  0  0  0  0  0  0  0  0  0  0  0
   59.6330   33.3080   53.0570 C   0  0  0  0  0  0  0  0  0  0  0  0
   58.2670   33.6150   53.1030 C   0  0  0  0  0  0  0  0  0  0  0  0
   57.3800   32.8900   52.3310 C   0  0  0  0  0  0  0  0  0  0  0  0
   57.8670   31.8850   51.5390 C   0  0  0  0  0  0  0  0  0  0  0  0
   59.1980   31.5430   51.4580 C   0  0  0  0  0  0  0  0  0  0  0  0
   59.7150   30.4760   50.6150 C   0  0  0  0  0  0  0  0  0  0  0  0
   60.5690   29.6500   51.0840 O   0  0  0  0  0  0  0  0  0  0  0  0
   59.3360   30.2710   49.2690 N   0  0  0  0  0  0  0  0  0  0  0  0
   59.8410   29.2350   48.4480 C   0  0  0  0  0  0  0  0  0  0  0  0
   60.6840   28.4530   48.9750 O   0  0  0  0  0  0  0  0  0  0  0  0
   59.4520   29.0230   47.0630 C   0  0  0  0  0  0  0  0  0  0  0  0
   60.2810   28.3560   46.1860 C   0  0  0  0  0  0  0  0  0  0  0  0
   59.9030   28.1580   44.8800 C   0  0  0  0  0  0  0  0  0  0  0  0
   58.6830   28.6340   44.4590 C   0  0  0  0  0  0  0  0  0  0  0  0
   57.8170   29.3050   45.2900 C   0  0  0  0  0  0  0  0  0  0  0  0
   56.5220   29.8150   44.8870 C   0  0  0  0  0  0  0  0  0  0  0  0
   55.5400   29.0110   44.8810 O   0  0  0  0  0  0  0  0  0  0  0  0
   56.2570   31.1500   44.4960 N   0  0  0  0  0  0  0  0  0  0  0  0
   57.0800   32.1020   44.5990 C   0  0  0  0  0  0  0  0  0  0  0  0
   57.7640   32.8020   43.6640 N   0  0  0  0  0  0  0  0  0  0  0  0
   58.5310   33.7170   44.1300 N   0  0  0  0  0  0  0  0  0  0  0  0
   58.7630   34.0760   45.2180 C   0  0  0  0  0  0  0  0  0  0  0  0
   59.5680   35.0360   46.0240 C   0  0  0  0  0  0  0  0  0  0  0  0
   60.3140   34.2760   47.0280 C   0  0  0  0  0  0  0  0  0  0  0  0
   61.2740   33.3290   46.7660 C   0  0  0  0  0  0  0  0  0  0  0  0
   61.9240   32.6640   47.7910 C   0  0  0  0  0  0  0  0  0  0  0  0
   61.6280   32.9310   49.1280 C   0  0  0  0  0  0  0  0  0  0  0  0
   60.6750   33.8720   49.3790 C   0  0  0  0  0  0  0  0  0  0  0  0
   60.0230   34.5390   48.3700 C   0  0  0  0  0  0  0  0  0  0  0  0
   57.6210   32.8580   46.1830 S   0  0  0  0  0  0  0  0  0  0  0  0
   58.2360   29.4840   46.6020 C   0  0  0  0  0  0  0  0  0  0  0  0
   60.0760   32.2740   52.2330 C   0  0  0  0  0  0  0  0  0  0  0  0
   60.4195   34.1401   55.8976 H   0  0  0  0  0  0  0  0  0  0  0  0
   60.5844   35.7182   55.0556 H   0  0  0  0  0  0  0  0  0  0  0  0
   59.0059   34.8609   55.0556 H   0  0  0  0  0  0  0  0  0  0  0  0
   57.9033   34.4275   53.7492 H   0  0  0  0  0  0  0  0  0  0  0  0
   56.3036   33.1157   52.3522 H   0  0  0  0  0  0  0  0  0  0  0  0
   57.1501   31.3154   50.9294 H   0  0  0  0  0  0  0  0  0  0  0  0
   58.6390   30.9360   48.8720 H   0  0  0  0  0  0  0  0  0  0  0  0
   61.2537   27.9791   46.5351 H   0  0  0  0  0  0  0  0  0  0  0  0
   60.5661   27.6267   44.1814 H   0  0  0  0  0  0  0  0  0  0  0  0
   58.3874   28.4708   43.4121 H   0  0  0  0  0  0  0  0  0  0  0  0
   57.6170   32.5560   42.6350 H   0  0  0  0  0  0  0  0  0  0  0  0
   60.2681   35.5763   45.3698 H   0  0  0  0  0  0  0  0  0  0  0  0
   58.9087   35.7679   46.5135 H   0  0  0  0  0  0  0  0  0  0  0  0
   61.5308   33.0949   45.7223 H   0  0  0  0  0  0  0  0  0  0  0  0
   62.6880   31.9111   47.5471 H   0  0  0  0  0  0  0  0  0  0  0  0
   62.1423   32.4040   49.9452 H   0  0  0  0  0  0  0  0  0  0  0  0
   60.4193   34.1052   50.4231 H   0  0  0  0  0  0  0  0  0  0  0  0
   59.2608   35.2911   48.6218 H   0  0  0  0  0  0  0  0  0  0  0  0
   57.5724   30.0141   47.3010 H   0  0  0  0  0  0  0  0  0  0  0  0
   61.1493   32.0354   52.1997 H   0  0  0  0  0  0  0  0  0  0  0  0
  1  2  1  0
  2  3  1  0
  3  4  2  0
  4  5  1  0
  5  6  2  0
  6  7  1  0
  7  8  1  0
  8  9  2  0
  8 10  1  0
 10 11  1  0
 11 12  2  0
 11 13  1  0
 13 14  2  0
 14 15  1  0
 15 16  2  0
 16 17  1  0
 17 18  1  0
 18 19  2  0
 18 20  1  0
 20 21  2  0
 21 22  1  0
 22 23  1  0
 23 24  2  0
 24 25  1  0
 25 26  1  0
 26 27  2  0
 27 28  1  0
 28 29  2  0
 29 30  1  0
 30 31  2  0
 24 32  1  0
 17 33  2  0
  7 34  2  0
 34  3  1  0
 33 13  1  0
 32 21  1  0
 31 26  1  0
  1 35  1  0
  1 36  1  0
  1 37  1  0
  4 38  1  0
  5 39  1  0
  6 40  1  0
 10 41  1  0
 14 42  1  0
 15 43  1  0
 16 44  1  0
 22 45  1  0
 25 46  1  0
 25 47  1  0
 27 48  1  0
 28 49  1  0
 29 50  1  0
 30 51  1  0
 31 52  1  0
 33 53  1  0
 34 54  1  0
M  END
>  <smiles>  (12) 
COc1cccc(C(=O)NC(=O)c2cccc(C(=O)N=c3[nH]nc(Cc4ccccc4)s3)c2)c1

>  <score_type>  (12) 
oracle

>  <origin>  (12) 
adg

>  <m_score__min__energy>  (12) 
-11.08

>  <m_primary>  (12) 
energy

$$$$
12:0
     RDKit          3D

 34 36  0  0  0  0  0  0  0  0999 V2000
   55.8980   27.5010   45.6160 O   0  0  0  0  0  0  0  0  0  0  0  0
   56.7290   28.4070   45.3430 C   0  0  0  0  0  0  0  0  0  0  0  0
   58.1800   28.0400   45.1550 C   0  0  0  0  0  0  0  0  0  0  0  0
   59.0410   28.7810   46.0900 N   0  0  0  0  0  0  0  0  0  0  0  0
   60.1480   29.4420   45.6280 C   0  0  0  0  0  0  0  0  0  0  0  0
   61.0000   30.1060   46.5140 C   0  0  0  0  0  0  0  0  0  0  0  0
   60.7030   30.1120   47.8750 C   0  0  0  0  0  0  0  0  0  0  0  0
   59.5570   29.4650   48.3350 C   0  0  0  0  0  0  0  0  0  0  0  0
   58.7280   28.8070   47.4230 C   0  0  0  0  0  0  0  0  0  0  0  0
   56.2590   29.7510   45.1800 N   0  0  0  0  0  0  0  0  0  0  0  0
   56.8900   30.7260   44.3400 C   0  0  0  0  0  0  0  0  0  0  0  0
   56.7600   30.6290   42.9470 C   0  0  0  0  0  0  0  0  0  0  0  0
   57.3430   31.5830   42.1130 C   0  0  0  0  0  0  0  0  0  0  0  0
   58.0630   32.6480   42.6580 C   0  0  0  0  0  0  0  0  0  0  0  0
   58.2080   32.7630   44.0470 C   0  0  0  0  0  0  0  0  0  0  0  0
   58.9120   33.8450   44.5980 C   0  0  0  0  0  0  0  0  0  0  0  0
   59.0380   33.9700   45.9840 C   0  0  0  0  0  0  0  0  0  0  0  0
   58.4640   33.0170   46.8290 C   0  0  0  0  0  0  0  0  0  0  0  0
   57.7640   31.9320   46.2960 C   0  0  0  0  0  0  0  0  0  0  0  0
   57.6280   31.7900   44.9010 C   0  0  0  0  0  0  0  0  0  0  0  0
   58.3032   26.9613   45.3317 H   0  0  0  0  0  0  0  0  0  0  0  0
   58.4753   28.3007   44.1279 H   0  0  0  0  0  0  0  0  0  0  0  0
   60.3681   29.4501   44.5503 H   0  0  0  0  0  0  0  0  0  0  0  0
   61.8979   30.6198   46.1400 H   0  0  0  0  0  0  0  0  0  0  0  0
   61.3698   30.6250   48.5837 H   0  0  0  0  0  0  0  0  0  0  0  0
   59.3077   29.4725   49.4064 H   0  0  0  0  0  0  0  0  0  0  0  0
   57.8159   28.3054   47.7787 H   0  0  0  0  0  0  0  0  0  0  0  0
   56.1938   29.7940   42.5086 H   0  0  0  0  0  0  0  0  0  0  0  0
   57.2351   31.4960   41.0218 H   0  0  0  0  0  0  0  0  0  0  0  0
   58.5177   33.3989   41.9951 H   0  0  0  0  0  0  0  0  0  0  0  0
   59.3662   34.5973   43.9364 H   0  0  0  0  0  0  0  0  0  0  0  0
   59.5902   34.8204   46.4106 H   0  0  0  0  0  0  0  0  0  0  0  0
   58.5638   33.1215   47.9195 H   0  0  0  0  0  0  0  0  0  0  0  0
   57.3170   31.1851   46.9685 H   0  0  0  0  0  0  0  0  0  0  0  0
  1  2  2  0
  2  3  1  0
  3  4  1  0
  4  5  2  0
  5  6  1  0
  6  7  2  0
  7  8  1  0
  8  9  2  0
  2 10  1  0
 10 11  1  0
 11 12  2  0
 12 13  1  0
 13 14  2  0
 14 15  1  0
 15 16  2  0
 16 17  1  0
 17 18  2  0
 18 19  1  0
 19 20  2  0
  9  4  1  0
 20 11  1  0
 20 15  1  0
  3 21  1  0
  3 22  1  0
  5 23  1  0
  6 24  1  0
  7 25  1  0
  8 26  1  0
  9 27  1  0
 12 28  1  0
 13 29  1  0
 14 30  1  0
 16 31  1  0
 17 32  1  0
 18 33  1  0
 19 34  1  0
M  CHG  2   4   1  10  -1
M  END
>  <UniqueID>  (13) 
11

>  <SMILES>  (13) 
O=C(C[n+]1ccccc1)[N-]c1cccc2ccccc12

>  <Energy>  (13) 
43.7256957240116

>  <Genealogy>  (13) 
O=C(C[n+]1ccccc1)[N-]c1cccc2ccccc12 (protonated)
O=C(C[n+]1ccccc1)[N-]c1cccc2ccccc12 (3D coordinates assigned)
O=C(C[n+]1ccccc1)[N-]c1cccc2ccccc12 (optimized conformer: 43.7256957240116 kcal/mol)

>  <smiles>  (13) 
O=C(C[n+]1ccccc1)Nc1cccc2ccccc12

>  <score_type>  (13) 
oracle

>  <origin>  (13) 
adg

>  <m_score__min__energy>  (13) 
-7.3799999999999999

>  <m_primary>  (13) 
energy

$$$$
13:0
     RDKit          3D

 39 41  0  0  0  0  0  0  0  0999 V2000
   59.0230   29.2170   44.5760 C   0  0  0  0  0  0  0  0  0  0  0  0
   57.8350   29.0240   43.7480 N   0  0  0  0  0  0  0  0  0  0  0  0
   56.8420   30.4500   43.8030 S   0  0  0  0  0  0  0  0  0  0  0  0
   55.5420   30.1350   44.4900 O   0  0  0  0  0  0  0  0  0  0  0  0
   56.5430   30.8970   42.4000 O   0  0  0  0  0  0  0  0  0  0  0  0
   57.6780   31.7480   44.6550 C   0  0  0  0  0  0  0  0  0  0  0  0
   58.2080   32.8250   43.9350 C   0  0  0  0  0  0  0  0  0  0  0  0
   58.8930   33.8470   44.5990 C   0  0  0  0  0  0  0  0  0  0  0  0
   59.0720   33.7950   45.9920 C   0  0  0  0  0  0  0  0  0  0  0  0
   59.8030   34.8790   46.6910 C   0  0  0  0  0  0  0  0  0  0  0  0
   59.6320   36.0740   46.3290 O   0  0  0  0  0  0  0  0  0  0  0  0
   60.6530   34.6180   47.8180 N   0  0  0  0  0  0  0  0  0  0  0  0
   61.8170   34.0410   47.7700 C   0  0  0  0  0  0  0  0  0  0  0  0
   62.4430   33.5960   48.8790 N   0  0  0  0  0  0  0  0  0  0  0  0
   63.6610   33.0560   48.5980 C   0  0  0  0  0  0  0  0  0  0  0  0
   64.5440   32.5120   49.6570 C   0  0  0  0  0  0  0  0  0  0  0  0
   65.8470   33.0260   49.8000 C   0  0  0  0  0  0  0  0  0  0  0  0
   66.6970   32.5480   50.8030 C   0  0  0  0  0  0  0  0  0  0  0  0
   68.3140   33.2070   50.9710 Cl  0  0  0  0  0  0  0  0  0  0  0  0
   66.2580   31.5480   51.6720 C   0  0  0  0  0  0  0  0  0  0  0  0
   64.9720   31.0230   51.5400 C   0  0  0  0  0  0  0  0  0  0  0  0
   64.1110   31.4940   50.5410 C   0  0  0  0  0  0  0  0  0  0  0  0
   62.5300   30.7290   50.3980 Cl  0  0  0  0  0  0  0  0  0  0  0  0
   64.0160   33.0910   47.2460 C   0  0  0  0  0  0  0  0  0  0  0  0
   62.7590   33.8080   46.3900 S   0  0  0  0  0  0  0  0  0  0  0  0
   58.5280   32.7160   46.7110 C   0  0  0  0  0  0  0  0  0  0  0  0
   57.8410   31.6970   46.0450 C   0  0  0  0  0  0  0  0  0  0  0  0
   58.7410   29.1712   45.6382 H   0  0  0  0  0  0  0  0  0  0  0  0
   59.7553   28.4260   44.3566 H   0  0  0  0  0  0  0  0  0  0  0  0
   59.4673   30.1991   44.3566 H   0  0  0  0  0  0  0  0  0  0  0  0
   58.1510   28.9070   42.7580 H   0  0  0  0  0  0  0  0  0  0  0  0
   58.0851   32.8674   42.8427 H   0  0  0  0  0  0  0  0  0  0  0  0
   59.2943   34.6970   44.0277 H   0  0  0  0  0  0  0  0  0  0  0  0
   66.2003   33.8116   49.1159 H   0  0  0  0  0  0  0  0  0  0  0  0
   66.9262   31.1735   52.4614 H   0  0  0  0  0  0  0  0  0  0  0  0
   64.6319   30.2331   52.2259 H   0  0  0  0  0  0  0  0  0  0  0  0
   64.9559   32.7143   46.8164 H   0  0  0  0  0  0  0  0  0  0  0  0
   58.6437   32.6735   47.8041 H   0  0  0  0  0  0  0  0  0  0  0  0
   57.4269   30.8520   46.6147 H   0  0  0  0  0  0  0  0  0  0  0  0
  1  2  1  0
  2  3  1  0
  3  4  2  0
  3  5  2  0
  3  6  1  0
  6  7  2  0
  7  8  1  0
  8  9  2  0
  9 10  1  0
 10 11  2  0
 10 12  1  0
 12 13  2  3
 13 14  1  0
 14 15  1  0
 15 16  1  0
 16 17  2  0
 17 18  1  0
 18 19  1  0
 18 20  2  0
 20 21  1  0
 21 22  2  0
 22 23  1  0
 15 24  2  0
 24 25  1  0
  9 26  1  0
 26 27  2  0
 27  6  1  0
 25 13  1  0
 22 16  1  0
  1 28  1  0
  1 29  1  0
  1 30  1  0
  2 31  1  0
  7 32  1  0
  8 33  1  0
 17 34  1  0
 20 35  1  0
 21 36  1  0
 24 37  1  0
 26 38  1  0
 27 39  1  0
M  CHG  1  14  -1
M  END
>  <UniqueID>  (14) 
12

>  <SMILES>  (14) 
CNS(=O)(=O)c1ccc(C(=O)N=c2[n-]c(-c3cc(Cl)ccc3Cl)cs2)cc1

>  <Energy>  (14) 
82.58946615778358

>  <Genealogy>  (14) 
CNS(=O)(=O)c1ccc(C(=O)N=c2[n-]c(-c3cc(Cl)ccc3Cl)cs2)cc1 (protonated)
CNS(=O)(=O)c1ccc(C(=O)N=c2[n-]c(-c3cc(Cl)ccc3Cl)cs2)cc1 (3D coordinates assigned)
CNS(=O)(=O)c1ccc(C(=O)N=c2[n-]c(-c3cc(Cl)ccc3Cl)cs2)cc1 (optimized conformer: 82.58946615778358 kcal/mol)

>  <smiles>  (14) 
CNS(=O)(=O)c1ccc(C(=O)N=c2[nH]c(-c3cc(Cl)ccc3Cl)cs2)cc1

>  <score_type>  (14) 
oracle

>  <origin>  (14) 
adg

>  <m_score__min__energy>  (14) 
-10.66

>  <m_primary>  (14) 
energy

$$$$
14:0
     RDKit          3D

 50 55  0  0  1  0  0  0  0  0999 V2000
   57.1890   21.0840   42.9820 C   0  0  0  0  0  0  0  0  0  0  0  0
   56.0490   21.8890   43.1700 O   0  0  0  0  0  0  0  0  0  0  0  0
   56.0320   22.9610   44.0480 C   0  0  0  0  0  0  0  0  0  0  0  0
   55.1770   22.8640   45.1480 C   0  0  0  0  0  0  0  0  0  0  0  0
   55.1210   23.9160   46.0650 C   0  0  0  0  0  0  0  0  0  0  0  0
   55.9100   25.0480   45.8820 C   0  0  0  0  0  0  0  0  0  0  0  0
   56.0620   26.1790   46.5760 N   0  0  0  0  0  0  0  0  0  0  0  0
   56.9660   26.9890   45.9760 C   0  0  0  0  0  0  0  0  0  0  0  0
   57.4490   28.2530   46.3190 C   0  0  0  0  0  0  0  0  0  0  0  0
   58.3880   28.8570   45.5080 C   0  0  0  0  0  0  0  0  0  0  0  0
   58.8810   30.1770   45.8840 C   0  0  0  0  0  0  0  0  0  0  0  0
   58.0790   31.3100   45.7030 C   0  0  0  0  0  0  0  0  0  0  0  0
   58.5830   32.5490   46.0750 C   0  0  0  0  0  0  0  0  0  0  0  0
   59.8520   32.6440   46.6100 C   0  0  0  0  0  0  0  0  0  0  0  0
   60.5420   33.7140   47.0360 N   0  0  0  0  0  0  0  0  0  0  0  0
   61.7610   33.3130   47.4860 C   0  0  0  0  0  0  0  0  0  0  0  0
   62.7790   34.1550   48.0180 N   0  0  0  0  0  0  0  0  0  0  0  0
   63.5550   33.6840   48.9500 C   0  0  0  0  0  0  0  0  0  0  0  0
   63.3780   34.2230   50.2150 C   0  0  0  0  0  0  0  0  0  0  0  0
   64.1600   33.7770   51.2570 C   0  0  0  0  0  0  0  0  0  0  0  0
   65.0950   32.8060   50.9940 C   0  0  0  0  0  0  0  0  0  0  0  0
   65.2430   32.2990   49.7400 C   0  0  0  0  0  0  0  0  0  0  0  0
   64.4750   32.7310   48.6990 N   0  0  0  0  0  0  0  0  0  0  0  0
   61.8050   31.9630   47.3260 N   0  0  0  0  0  0  0  0  0  0  0  0
   60.6600   31.5240   46.7950 C   0  0  0  0  0  0  0  0  0  0  0  0
   60.1460   30.2910   46.4210 C   0  0  0  0  0  0  0  0  0  0  0  0
   58.8610   28.2390   44.3650 C   0  0  0  0  0  0  0  0  0  0  0  0
   58.3670   26.9750   44.0350 C   0  0  0  0  0  0  0  0  0  0  0  0
   57.4290   26.3610   44.8370 C   0  0  0  0  0  0  0  0  0  0  0  0
   56.7670   25.1510   44.7830 C   0  0  0  0  0  0  0  0  0  0  0  0
   56.7990   24.0930   43.8950 C   0  0  0  0  0  0  0  0  0  0  0  0
   57.5989   20.7945   43.9609 H   0  0  0  0  0  0  0  0  0  0  0  0
   56.9112   20.1807   42.4191 H   0  0  0  0  0  0  0  0  0  0  0  0
   57.9474   21.6480   42.4191 H   0  0  0  0  0  0  0  0  0  0  0  0
   54.5543   21.9685   45.2907 H   0  0  0  0  0  0  0  0  0  0  0  0
   54.4510   23.8497   46.9349 H   0  0  0  0  0  0  0  0  0  0  0  0
   55.5330   26.3780   47.4620 H   0  0  0  0  0  0  0  0  0  0  0  0
   57.0857   28.7612   47.2244 H   0  0  0  0  0  0  0  0  0  0  0  0
   57.0698   31.2204   45.2747 H   0  0  0  0  0  0  0  0  0  0  0  0
   57.9717   33.4540   45.9436 H   0  0  0  0  0  0  0  0  0  0  0  0
   60.1650   34.7070   47.0120 H   0  0  0  0  0  0  0  0  0  0  0  0
   62.6189   35.0008   50.3850 H   0  0  0  0  0  0  0  0  0  0  0  0
   64.0393   34.1866   52.2707 H   0  0  0  0  0  0  0  0  0  0  0  0
   65.7332   32.4329   51.8086 H   0  0  0  0  0  0  0  0  0  0  0  0
   66.0006   31.5217   49.5615 H   0  0  0  0  0  0  0  0  0  0  0  0
   64.5940   32.3380   47.7470 H   0  0  0  0  0  0  0  0  0  0  0  0
   60.7589   29.3875   46.5553 H   0  0  0  0  0  0  0  0  0  0  0  0
   59.6106   28.7326   43.7290 H   0  0  0  0  0  0  0  0  0  0  0  0
   58.7288   26.4662   43.1293 H   0  0  0  0  0  0  0  0  0  0  0  0
   57.4690   24.1587   43.0251 H   0  0  0  0  0  0  0  0  0  0  0  0
  1  2  1  0
  2  3  1  0
  3  4  2  0
  4  5  1  0
  5  6  2  0
  6  7  1  0
  7  8  1  0
  8  9  2  0
  9 10  1  0
 10 11  1  0
 11 12  2  0
 12 13  1  0
 13 14  2  0
 14 15  1  0
 15 16  1  0
 16 17  1  0
 17 18  2  0
 18 19  1  0
 19 20  2  0
 20 21  1  0
 21 22  2  0
 22 23  1  0
 16 24  2  0
 24 25  1  0
 25 26  2  0
 10 27  2  0
 27 28  1  0
 28 29  2  0
 29 30  1  0
 30 31  2  0
 31  3  1  0
 30  6  1  0
 29  8  1  0
 26 11  1  0
 25 14  1  0
 23 18  1  0
  1 32  1  0
  1 33  1  0
  1 34  1  0
  4 35  1  0
  5 36  1  0
  7 37  1  0
  9 38  1  0
 12 39  1  0
 13 40  1  0
 15 41  1  0
 19 42  1  0
 20 43  1  0
 21 44  1  0
 22 45  1  0
 23 46  1  0
 26 47  1  0
 27 48  1  0
 28 49  1  0
 31 50  1  0
M  END
>  <smiles>  (15) 
COc1ccc2[nH]c3cc(-c4ccc5[nH]c(N=c6cccc[nH]6)nc5c4)ccc3c2c1

>  <score_type>  (15) 
oracle

>  <origin>  (15) 
adg

>  <m_score__min__energy>  (15) 
-9.4100000000000001

>  <m_primary>  (15) 
energy

$$$$
15:0
     RDKit          3D

 57 60  0  0  0  0  0  0  0  0999 V2000
   56.2440   30.4160   43.5370 C   0  0  0  0  0  0  0  0  0  0  0  0
   56.7040   30.4960   44.8820 O   0  0  0  0  0  0  0  0  0  0  0  0
   57.9360   29.9960   45.3320 C   0  0  0  0  0  0  0  0  0  0  0  0
   58.6850   29.1990   44.4600 C   0  0  0  0  0  0  0  0  0  0  0  0
   59.9220   28.6910   44.8540 C   0  0  0  0  0  0  0  0  0  0  0  0
   60.4230   28.9760   46.1260 C   0  0  0  0  0  0  0  0  0  0  0  0
   59.6900   29.7630   47.0200 C   0  0  0  0  0  0  0  0  0  0  0  0
   60.2490   30.0200   48.2840 O   0  0  0  0  0  0  0  0  0  0  0  0
   61.0120   31.1750   48.6390 C   0  0  1  0  0  0  0  0  0  0  0  0
   61.3060   31.1650   50.1220 C   0  0  0  0  0  0  0  0  0  0  0  0
   62.5050   31.5020   50.6190 C   0  0  0  0  0  0  0  0  0  0  0  0
   63.7030   31.7240   49.7160 C   0  0  2  0  0  0  0  0  0  0  0  0
   64.7590   32.6430   50.3180 C   0  0  0  0  0  0  0  0  0  0  0  0
   66.0830   32.6870   49.8340 C   0  0  0  0  0  0  0  0  0  0  0  0
   67.0310   33.5170   50.4400 C   0  0  0  0  0  0  0  0  0  0  0  0
   66.6770   34.3040   51.5370 C   0  0  0  0  0  0  0  0  0  0  0  0
   65.3720   34.2620   52.0330 C   0  0  0  0  0  0  0  0  0  0  0  0
   64.4190   33.4340   51.4310 C   0  0  0  0  0  0  0  0  0  0  0  0
   63.3110   32.1330   48.3400 N   0  0  2  0  0  0  0  0  0  0  0  0
   62.7770   33.8060   48.2180 S   0  0  0  0  0  0  0  0  0  0  0  0
   63.7710   34.5950   47.4100 O   0  0  0  0  0  0  0  0  0  0  0  0
   62.6730   34.4290   49.5820 O   0  0  0  0  0  0  0  0  0  0  0  0
   61.2170   33.9160   47.4010 C   0  0  0  0  0  0  0  0  0  0  0  0
   60.0530   34.1180   48.1540 C   0  0  0  0  0  0  0  0  0  0  0  0
   58.8140   34.2220   47.5190 C   0  0  0  0  0  0  0  0  0  0  0  0
   58.7250   34.1380   46.1210 C   0  0  0  0  0  0  0  0  0  0  0  0
   57.3880   34.2120   45.4440 C   0  0  0  0  0  0  0  0  0  0  0  0
   59.8880   33.9150   45.3690 C   0  0  0  0  0  0  0  0  0  0  0  0
   61.1290   33.8100   46.0050 C   0  0  0  0  0  0  0  0  0  0  0  0
   62.3040   31.1910   47.8030 C   0  0  0  0  0  0  0  0  0  0  0  0
   58.4380   30.2710   46.6190 C   0  0  0  0  0  0  0  0  0  0  0  0
   55.1603   30.2275   43.5307 H   0  0  0  0  0  0  0  0  0  0  0  0
   56.4543   31.3642   43.0206 H   0  0  0  0  0  0  0  0  0  0  0  0
   56.7620   29.5945   43.0206 H   0  0  0  0  0  0  0  0  0  0  0  0
   58.2954   28.9716   43.4568 H   0  0  0  0  0  0  0  0  0  0  0  0
   60.5042   28.0648   44.1620 H   0  0  0  0  0  0  0  0  0  0  0  0
   61.4031   28.5779   46.4275 H   0  0  0  0  0  0  0  0  0  0  0  0
   60.4425   32.0911   48.4235 H   0  0  0  0  0  0  0  0  0  0  0  0
   60.5073   30.8706   50.8187 H   0  0  0  0  0  0  0  0  0  0  0  0
   62.6223   31.6201   51.7063 H   0  0  0  0  0  0  0  0  0  0  0  0
   64.1876   30.7404   49.6275 H   0  0  0  0  0  0  0  0  0  0  0  0
   66.3716   32.0644   48.9743 H   0  0  0  0  0  0  0  0  0  0  0  0
   68.0593   33.5499   50.0509 H   0  0  0  0  0  0  0  0  0  0  0  0
   67.4251   34.9568   52.0105 H   0  0  0  0  0  0  0  0  0  0  0  0
   65.0933   34.8811   52.8985 H   0  0  0  0  0  0  0  0  0  0  0  0
   63.3949   33.4009   51.8311 H   0  0  0  0  0  0  0  0  0  0  0  0
   64.1570   32.0500   47.7290 H   0  0  0  0  0  0  0  0  0  0  0  0
   60.1155   34.1949   49.2495 H   0  0  0  0  0  0  0  0  0  0  0  0
   57.9031   34.3705   48.1175 H   0  0  0  0  0  0  0  0  0  0  0  0
   56.5941   34.2559   46.2041 H   0  0  0  0  0  0  0  0  0  0  0  0
   57.3445   35.1139   44.8158 H   0  0  0  0  0  0  0  0  0  0  0  0
   57.2452   33.3204   44.8158 H   0  0  0  0  0  0  0  0  0  0  0  0
   59.8236   33.8224   44.2748 H   0  0  0  0  0  0  0  0  0  0  0  0
   62.0385   33.6439   45.4090 H   0  0  0  0  0  0  0  0  0  0  0  0
   62.0552   31.4886   46.7737 H   0  0  0  0  0  0  0  0  0  0  0  0
   62.7380   30.1808   47.8364 H   0  0  0  0  0  0  0  0  0  0  0  0
   57.8492   30.8861   47.3154 H   0  0  0  0  0  0  0  0  0  0  0  0
  1  2  1  0
  2  3  1  0
  3  4  2  0
  4  5  1  0
  5  6  2  0
  6  7  1  0
  7  8  1  0
  8  9  1  0
  9 10  1  0
 10 11  2  0
 11 12  1  0
 12 13  1  0
 13 14  2  0
 14 15  1  0
 15 16  2  0
 16 17  1  0
 17 18  2  0
 12 19  1  0
 19 20  1  0
 20 21  2  0
 20 22  2  0
 20 23  1  0
 23 24  2  0
 24 25  1  0
 25 26  2  0
 26 27  1  0
 26 28  1  0
 28 29  2  0
 19 30  1  0
  7 31  2  0
 31  3  1  0
 30  9  1  0
 18 13  1  0
 29 23  1  0
  1 32  1  0
  1 33  1  0
  1 34  1  0
  4 35  1  0
  5 36  1  0
  6 37  1  0
  9 38  1  1
 10 39  1  0
 11 40  1  0
 12 41  1  6
 14 42  1  0
 15 43  1  0
 16 44  1  0
 17 45  1  0
 18 46  1  0
 19 47  1  6
 24 48  1  0
 25 49  1  0
 27 50  1  0
 27 51  1  0
 27 52  1  0
 28 53  1  0
 29 54  1  0
 30 55  1  0
 30 56  1  0
 31 57  1  0
M  CHG  1  19   1
M  END
>  <UniqueID>  (16) 
13

>  <SMILES>  (16) 
COc1cccc(O[C@H]2C=C[C@H](c3ccccc3)[NH+](S(=O)(=O)c3ccc(C)cc3)C2)c1

>  <Energy>  (16) 
67.47151385571686

>  <Genealogy>  (16) 
COc1cccc(OC2C=CC(c3ccccc3)[NH+](S(=O)(=O)c3ccc(C)cc3)C2)c1 (protonated)
COc1cccc(O[C@H]2C=C[C@H](c3ccccc3)[NH+](S(=O)(=O)c3ccc(C)cc3)C2)c1 (chirality)
COc1cccc(O[C@H]2C=C[C@H](c3ccccc3)[NH+](S(=O)(=O)c3ccc(C)cc3)C2)c1 (3D coordinates assigned)
COc1cccc(O[C@H]2C=C[C@H](c3ccccc3)[NH+](S(=O)(=O)c3ccc(C)cc3)C2)c1 (nonaromatic ring conformer: 67.47151385571686 kcal/mol)

>  <smiles>  (16) 
COc1cccc(OC2C=CC(c3ccccc3)N(S(=O)(=O)c3ccc(C)cc3)C2)c1

>  <score_type>  (16) 
oracle

>  <origin>  (16) 
adg

>  <m_score__min__energy>  (16) 
-8.1099999999999994

>  <m_primary>  (16) 
energy

$$$$
16:0
     RDKit          3D

 44 46  0  0  0  0  0  0  0  0999 V2000
   59.2760   34.9460   46.0020 C   0  0  0  0  0  0  0  0  0  0  0  0
   58.2070   33.5410   45.7890 S   0  0  0  0  0  0  0  0  0  0  0  0
   56.7740   33.9710   45.9370 O   0  0  0  0  0  0  0  0  0  0  0  0
   58.4000   32.9680   44.4130 O   0  0  0  0  0  0  0  0  0  0  0  0
   58.5930   32.3260   47.0040 C   0  0  0  0  0  0  0  0  0  0  0  0
   58.8710   31.0100   46.6190 C   0  0  0  0  0  0  0  0  0  0  0  0
   59.1710   30.0450   47.5820 C   0  0  0  0  0  0  0  0  0  0  0  0
   59.1780   30.3790   48.9420 C   0  0  0  0  0  0  0  0  0  0  0  0
   59.6730   29.1500   50.1000 Cl  0  0  0  0  0  0  0  0  0  0  0  0
   58.8580   31.6940   49.3390 C   0  0  0  0  0  0  0  0  0  0  0  0
   58.8450   32.0890   50.7170 N   0  0  0  0  0  0  0  0  0  0  0  0
   57.7590   31.8490   51.6180 C   0  0  0  0  0  0  0  0  0  0  0  0
   56.8680   32.7240   51.7940 O   0  0  0  0  0  0  0  0  0  0  0  0
   57.7300   30.5910   52.4220 C   0  0  0  0  0  0  0  0  0  0  0  0
   56.6840   29.7460   51.9520 O   0  0  0  0  0  0  0  0  0  0  0  0
   55.3220   29.9460   52.2250 C   0  0  0  0  0  0  0  0  0  0  0  0
   54.6330   31.1040   51.8190 C   0  0  0  0  0  0  0  0  0  0  0  0
   53.2750   31.2550   52.1120 C   0  0  0  0  0  0  0  0  0  0  0  0
   52.5850   30.2570   52.8200 C   0  0  0  0  0  0  0  0  0  0  0  0
   51.1140   30.4020   53.0910 C   0  0  0  0  0  0  0  0  0  0  0  0
   50.7340   31.8490   53.1010 C   0  0  0  0  0  0  0  0  0  0  0  0
   50.5270   32.5670   54.2190 N   0  0  0  0  0  0  0  0  0  0  0  0
   50.3020   33.8160   53.7540 C   0  0  0  0  0  0  0  0  0  0  0  0
   49.9950   35.0810   54.7390 S   0  0  0  0  0  0  0  0  0  0  0  0
   50.3680   33.9350   52.4100 N   0  0  0  0  0  0  0  0  0  0  0  0
   50.6480   32.6840   52.0140 C   0  0  0  0  0  0  0  0  0  0  0  0
   50.8310   32.3150   50.6870 O   0  0  0  0  0  0  0  0  0  0  0  0
   53.2700   29.0980   53.2160 C   0  0  0  0  0  0  0  0  0  0  0  0
   54.6310   28.9490   52.9250 C   0  0  0  0  0  0  0  0  0  0  0  0
   58.5910   32.6630   48.3640 C   0  0  0  0  0  0  0  0  0  0  0  0
   59.4212   35.1368   47.0755 H   0  0  0  0  0  0  0  0  0  0  0  0
   60.2488   34.7413   45.5311 H   0  0  0  0  0  0  0  0  0  0  0  0
   58.8193   35.8290   45.5311 H   0  0  0  0  0  0  0  0  0  0  0  0
   58.8531   30.7349   45.5541 H   0  0  0  0  0  0  0  0  0  0  0  0
   59.4033   29.0159   47.2707 H   0  0  0  0  0  0  0  0  0  0  0  0
   58.6938   30.0704   52.3217 H   0  0  0  0  0  0  0  0  0  0  0  0
   57.5523   30.8378   53.4791 H   0  0  0  0  0  0  0  0  0  0  0  0
   55.1657   31.8936   51.2687 H   0  0  0  0  0  0  0  0  0  0  0  0
   52.7430   32.1610   51.7862 H   0  0  0  0  0  0  0  0  0  0  0  0
   50.5462   29.8820   52.3054 H   0  0  0  0  0  0  0  0  0  0  0  0
   50.8833   29.9621   54.0725 H   0  0  0  0  0  0  0  0  0  0  0  0
   52.7353   28.3035   53.7572 H   0  0  0  0  0  0  0  0  0  0  0  0
   55.1620   28.0417   53.2487 H   0  0  0  0  0  0  0  0  0  0  0  0
   58.3777   33.6982   48.6686 H   0  0  0  0  0  0  0  0  0  0  0  0
  1  2  1  0
  2  3  2  0
  2  4  2  0
  2  5  1  0
  5  6  2  0
  6  7  1  0
  7  8  2  0
  8  9  1  0
  8 10  1  0
 10 11  1  0
 11 12  1  0
 12 13  2  0
 12 14  1  0
 14 15  1  0
 15 16  1  0
 16 17  2  0
 17 18  1  0
 18 19  2  0
 19 20  1  0
 20 21  1  0
 21 22  1  0
 22 23  1  0
 23 24  2  0
 23 25  1  0
 25 26  1  0
 26 27  1  0
 19 28  1  0
 28 29  2  0
 10 30  2  0
 30  5  1  0
 29 16  1  0
 26 21  2  0
  1 31  1  0
  1 32  1  0
  1 33  1  0
  6 34  1  0
  7 35  1  0
 14 36  1  0
 14 37  1  0
 17 38  1  0
 18 39  1  0
 20 40  1  0
 20 41  1  0
 28 42  1  0
 29 43  1  0
 30 44  1  0
M  CHG  4  11  -1  22  -1  25  -1  27  -1
M  END
>  <UniqueID>  (17) 
14

>  <SMILES>  (17) 
CS(=O)(=O)c1ccc(Cl)c([N-]C(=O)COc2ccc(Cc3[n-]c(=S)[n-]c3[O-])cc2)c1

>  <Energy>  (17) 
76.20086576745553

>  <Genealogy>  (17) 
CS(=O)(=O)c1ccc(Cl)c([N-]C(=O)COc2ccc(Cc3[n-]c(=S)[n-]c3[O-])cc2)c1 (protonated)
CS(=O)(=O)c1ccc(Cl)c([N-]C(=O)COc2ccc(Cc3[n-]c(=S)[n-]c3[O-])cc2)c1 (3D coordinates assigned)
CS(=O)(=O)c1ccc(Cl)c([N-]C(=O)COc2ccc(Cc3[n-]c(=S)[n-]c3[O-])cc2)c1 (optimized conformer: 76.20086576745553 kcal/mol)

>  <smiles>  (17) 
CS(=O)(=O)c1ccc(Cl)c(NC(=O)COc2ccc(Cc3[nH]c(=S)[nH]c3O)cc2)c1

>  <score_type>  (17) 
oracle

>  <origin>  (17) 
adg

>  <m_score__min__energy>  (17) 
-18.77

>  <m_primary>  (17) 
energy

$$$$
17:0
     RDKit          3D

 30 32  0  0  0  0  0  0  0  0999 V2000
   55.1330   27.9910   44.9450 H   0  0  0  0  0  0  0  0  0  0  0  0
   55.2040   28.9760   44.7210 O   0  0  0  0  0  0  0  0  0  0  0  0
   56.4020   29.6830   44.8300 C   0  0  0  0  0  0  0  0  0  0  0  0
   56.5740   30.8370   44.0560 C   0  0  0  0  0  0  0  0  0  0  0  0
   55.7679   31.1712   43.3863 H   0  0  0  0  0  0  0  0  0  0  0  0
   57.7620   31.5660   44.1290 C   0  0  0  0  0  0  0  0  0  0  0  0
   57.8868   32.4761   43.5240 H   0  0  0  0  0  0  0  0  0  0  0  0
   58.7920   31.1400   44.9700 C   0  0  0  0  0  0  0  0  0  0  0  0
   59.7306   31.7112   45.0217 H   0  0  0  0  0  0  0  0  0  0  0  0
   58.6320   29.9890   45.7460 C   0  0  0  0  0  0  0  0  0  0  0  0
   59.4527   29.6485   46.3944 H   0  0  0  0  0  0  0  0  0  0  0  0
   57.4260   29.2620   45.7030 C   0  0  0  0  0  0  0  0  0  0  0  0
   57.2470   28.0560   46.4680 N   0  0  0  0  0  0  0  0  0  0  0  0
   56.8860   26.8950   46.0090 C   0  0  0  0  0  0  0  0  0  0  0  0
   55.7130   26.2920   46.2970 N   0  0  0  0  0  0  0  0  0  0  0  0
   55.5750   25.1020   45.6470 C   0  0  0  0  0  0  0  0  0  0  0  0
   54.3590   24.2650   45.8210 C   0  0  0  0  0  0  0  0  0  0  0  0
   53.2190   24.4350   45.0070 C   0  0  0  0  0  0  0  0  0  0  0  0
   53.2192   25.2052   44.2216 H   0  0  0  0  0  0  0  0  0  0  0  0
   52.0890   23.6320   45.1910 C   0  0  0  0  0  0  0  0  0  0  0  0
   51.2051   23.7747   44.5519 H   0  0  0  0  0  0  0  0  0  0  0  0
   52.0790   22.6500   46.1830 C   0  0  0  0  0  0  0  0  0  0  0  0
   51.1878   22.0212   46.3256 H   0  0  0  0  0  0  0  0  0  0  0  0
   53.2000   22.4660   46.9940 C   0  0  0  0  0  0  0  0  0  0  0  0
   53.1921   21.6916   47.7752 H   0  0  0  0  0  0  0  0  0  0  0  0
   54.3340   23.2660   46.8140 C   0  0  0  0  0  0  0  0  0  0  0  0
   55.2151   23.1132   47.4546 H   0  0  0  0  0  0  0  0  0  0  0  0
   56.6560   24.7730   44.8190 C   0  0  0  0  0  0  0  0  0  0  0  0
   56.7444   23.8630   44.2074 H   0  0  0  0  0  0  0  0  0  0  0  0
   57.7970   26.0070   44.9190 S   0  0  0  0  0  0  0  0  0  0  0  0
  1  2  1  0
  2  3  1  0
  3  4  2  0
  4  5  1  0
  4  6  1  0
  6  7  1  0
  6  8  2  0
  8  9  1  0
  8 10  1  0
 10 11  1  0
 10 12  2  0
 12 13  1  0
 13 14  2  0
 14 15  1  0
 15 16  1  0
 16 17  1  0
 17 18  2  0
 18 19  1  0
 18 20  1  0
 20 21  1  0
 20 22  2  0
 22 23  1  0
 22 24  1  0
 24 25  1  0
 24 26  2  0
 26 27  1  0
 16 28  2  0
 28 29  1  0
 28 30  1  0
 12  3  1  0
 30 14  1  0
 26 17  1  0
M  CHG  1  15  -1
M  END
>  <UniqueID>  (18) 
15

>  <SMILES>  (18) 
Oc1ccccc1/N=c1\[n-]c(-c2ccccc2)cs1

>  <Energy>  (18) 
71.0014763445062

>  <Genealogy>  (18) 
Oc1ccccc1N=c1[n-]c(-c2ccccc2)cs1 (protonated)
Oc1ccccc1/N=c1\[n-]c(-c2ccccc2)cs1 (cis-trans isomerization)
Oc1ccccc1/N=c1\[n-]c(-c2ccccc2)cs1 (3D coordinates assigned)
Oc1ccccc1/N=c1\[n-]c(-c2ccccc2)cs1 (optimized conformer: 71.0014763445062 kcal/mol)

>  <smiles>  (18) 
Oc1ccccc1N=c1[nH]c(-c2ccccc2)cs1

>  <score_type>  (18) 
oracle

>  <origin>  (18) 
adg

>  <m_score__min__energy>  (18) 
-11.56

>  <m_primary>  (18) 
energy

$$$$
18:0
     RDKit          3D

 39 41  0  0  0  0  0  0  0  0999 V2000
   53.8790   25.7530   46.1690 H   0  0  0  0  0  0  0  0  0  0  0  0
   54.7830   25.2710   45.9680 N   0  0  0  0  0  0  0  0  0  0  0  0
   55.8510   25.9440   45.6880 C   0  0  0  0  0  0  0  0  0  0  0  0
   55.8880   27.2920   45.6500 N   0  0  0  0  0  0  0  0  0  0  0  0
   57.1320   27.7460   45.3260 C   0  0  0  0  0  0  0  0  0  0  0  0
   57.4320   29.1900   45.2170 C   0  0  0  0  0  0  0  0  0  0  0  0
   56.5000   30.0000   44.8020 N   0  0  0  0  0  0  0  0  0  0  0  0
   55.1490   29.8220   45.0310 O   0  0  0  0  0  0  0  0  0  0  0  0
   54.7640   28.9540   45.3830 H   0  0  0  0  0  0  0  0  0  0  0  0
   58.7950   29.6760   45.5320 C   0  0  0  0  0  0  0  0  0  0  0  0
   59.7710   29.2250   44.8780 O   0  0  0  0  0  0  0  0  0  0  0  0
   59.0480   30.6160   46.5860 N   0  0  0  0  0  0  0  0  0  0  0  0
   59.0040   30.3390   47.8550 C   0  0  0  0  0  0  0  0  0  0  0  0
   59.0506   29.2919   48.1888 H   0  0  0  0  0  0  0  0  0  0  0  0
   58.8900   31.4400   48.8660 C   0  0  0  0  0  0  0  0  0  0  0  0
   57.8332   31.5486   49.1512 H   0  0  0  0  0  0  0  0  0  0  0  0
   59.5164   31.1673   49.7281 H   0  0  0  0  0  0  0  0  0  0  0  0
   59.4020   32.8030   48.3240 C   0  0  1  0  0  0  0  0  0  0  0  0
   59.4130   33.4941   49.1797 H   0  0  0  0  0  0  0  0  0  0  0  0
   60.8420   32.7800   47.7990 C   0  0  0  0  0  0  0  0  0  0  0  0
   61.8230   31.9010   48.3030 C   0  0  0  0  0  0  0  0  0  0  0  0
   61.5442   31.1464   49.0533 H   0  0  0  0  0  0  0  0  0  0  0  0
   63.1450   31.9790   47.8590 C   0  0  0  0  0  0  0  0  0  0  0  0
   63.8951   31.2732   48.2453 H   0  0  0  0  0  0  0  0  0  0  0  0
   63.5180   32.9480   46.9280 C   0  0  0  0  0  0  0  0  0  0  0  0
   64.5602   33.0040   46.5807 H   0  0  0  0  0  0  0  0  0  0  0  0
   62.5710   33.8460   46.4370 C   0  0  0  0  0  0  0  0  0  0  0  0
   62.8705   34.6164   45.7112 H   0  0  0  0  0  0  0  0  0  0  0  0
   61.2370   33.7700   46.8660 C   0  0  0  0  0  0  0  0  0  0  0  0
   60.2490   34.7370   46.3490 C   0  0  0  0  0  0  0  0  0  0  0  0
   60.5904   35.6162   45.7829 H   0  0  0  0  0  0  0  0  0  0  0  0
   58.9450   34.5530   46.5630 C   0  0  0  0  0  0  0  0  0  0  0  0
   58.2289   35.3315   46.2610 H   0  0  0  0  0  0  0  0  0  0  0  0
   58.4440   33.2940   47.2120 C   0  0  0  0  0  0  0  0  0  0  0  0
   58.3547   32.5094   46.4463 H   0  0  0  0  0  0  0  0  0  0  0  0
   57.4679   33.5097   47.6709 H   0  0  0  0  0  0  0  0  0  0  0  0
   58.0830   26.7430   45.1140 C   0  0  0  0  0  0  0  0  0  0  0  0
   59.1388   26.9019   44.8495 H   0  0  0  0  0  0  0  0  0  0  0  0
   57.3350   25.2500   45.3330 S   0  0  0  0  0  0  0  0  0  0  0  0
  1  2  1  0
  2  3  2  0
  3  4  1  0
  4  5  1  0
  5  6  1  0
  6  7  2  3
  7  8  1  0
  8  9  1  0
  6 10  1  0
 10 11  2  0
 10 12  1  0
 12 13  2  3
 13 14  1  0
 13 15  1  0
 15 16  1  0
 15 17  1  0
 15 18  1  0
 18 19  1  1
 18 20  1  0
 20 21  2  0
 21 22  1  0
 21 23  1  0
 23 24  1  0
 23 25  2  0
 25 26  1  0
 25 27  1  0
 27 28  1  0
 27 29  2  0
 29 30  1  0
 30 31  1  0
 30 32  2  0
 32 33  1  0
 32 34  1  0
 34 35  1  0
 34 36  1  0
  5 37  2  0
 37 38  1  0
 37 39  1  0
 39  3  1  0
 34 18  1  0
 29 20  1  0
M  CHG  1   4  -1
M  END
>  <UniqueID>  (19) 
16

>  <SMILES>  (19) 
[H]/N=c1\[n-]c(C(=NO)C(=O)N=CC[C@@H]2CC=Cc3ccccc32)cs1

>  <Energy>  (19) 
81.11081163595362

>  <Genealogy>  (19) 
N=c1[n-]c(C(=NO)C(=O)N=CCC2CC=Cc3ccccc32)cs1 (protonated)
N=c1[n-]c(C(=NO)C(=O)N=CC[C@@H]2CC=Cc3ccccc32)cs1 (chirality)
[H]/N=c1\[n-]c(C(=NO)C(=O)N=CC[C@@H]2CC=Cc3ccccc32)cs1 (cis-trans isomerization)
[H]/N=c1\[n-]c(C(=NO)C(=O)N=CC[C@@H]2CC=Cc3ccccc32)cs1 (3D coordinates assigned)
[H]/N=c1\[n-]c(C(=NO)C(=O)N=CC[C@@H]2CC=Cc3ccccc32)cs1 (nonaromatic ring conformer: 81.11081163595362 kcal/mol)

>  <smiles>  (19) 
N=c1[nH]c(C(=NO)C(=O)N=CCC2CC=Cc3ccccc32)cs1

>  <score_type>  (19) 
oracle

>  <origin>  (19) 
adg

>  <m_score__min__energy>  (19) 
-11.6

>  <m_primary>  (19) 
energy

$$$$
19:0
     RDKit          3D

 32 33  0  0  0  0  0  0  0  0999 V2000
   56.4300   29.9020   42.8350 O   0  0  0  0  0  0  0  0  0  0  0  0
   56.4180   29.9790   44.3370 S   0  0  0  0  0  0  0  0  0  0  0  0
   55.1540   29.3380   44.8350 O   0  0  0  0  0  0  0  0  0  0  0  0
   56.4500   31.6410   44.8400 N   0  0  0  0  0  0  0  0  0  0  0  0
   57.5050   32.3570   44.1250 C   0  0  0  0  0  0  0  0  0  0  0  0
   57.6450   33.7750   44.6780 C   0  0  0  0  0  0  0  0  0  0  0  0
   58.4630   33.7910   45.9440 C   0  0  0  0  0  0  0  0  0  0  0  0
   58.0140   33.1040   47.0850 C   0  0  0  0  0  0  0  0  0  0  0  0
   58.7860   33.0930   48.2510 C   0  0  0  0  0  0  0  0  0  0  0  0
   60.0140   33.7600   48.2830 C   0  0  0  0  0  0  0  0  0  0  0  0
   60.4720   34.4370   47.1500 C   0  0  0  0  0  0  0  0  0  0  0  0
   59.7020   34.4510   45.9830 C   0  0  0  0  0  0  0  0  0  0  0  0
   57.8020   29.1130   45.0000 C   0  0  0  0  0  0  0  0  0  0  0  0
   59.0980   29.3740   44.5300 C   0  0  0  0  0  0  0  0  0  0  0  0
   60.1930   28.6950   45.0740 C   0  0  0  0  0  0  0  0  0  0  0  0
   59.9980   27.7570   46.0930 C   0  0  0  0  0  0  0  0  0  0  0  0
   58.7100   27.4990   46.5700 C   0  0  0  0  0  0  0  0  0  0  0  0
   57.6140   28.1770   46.0260 C   0  0  0  0  0  0  0  0  0  0  0  0
   58.4577   31.8217   44.2508 H   0  0  0  0  0  0  0  0  0  0  0  0
   57.2441   32.4108   43.0577 H   0  0  0  0  0  0  0  0  0  0  0  0
   58.1386   34.4063   43.9245 H   0  0  0  0  0  0  0  0  0  0  0  0
   56.6402   34.1583   44.9091 H   0  0  0  0  0  0  0  0  0  0  0  0
   57.0511   32.5727   47.0607 H   0  0  0  0  0  0  0  0  0  0  0  0
   58.4268   32.5593   49.1432 H   0  0  0  0  0  0  0  0  0  0  0  0
   60.6202   33.7518   49.2009 H   0  0  0  0  0  0  0  0  0  0  0  0
   61.4395   34.9597   47.1761 H   0  0  0  0  0  0  0  0  0  0  0  0
   60.0683   34.9813   45.0916 H   0  0  0  0  0  0  0  0  0  0  0  0
   59.2532   30.1146   43.7316 H   0  0  0  0  0  0  0  0  0  0  0  0
   61.2074   28.8986   44.7005 H   0  0  0  0  0  0  0  0  0  0  0  0
   60.8593   27.2218   46.5194 H   0  0  0  0  0  0  0  0  0  0  0  0
   58.5581   26.7629   47.3731 H   0  0  0  0  0  0  0  0  0  0  0  0
   56.6013   27.9748   46.4048 H   0  0  0  0  0  0  0  0  0  0  0  0
  1  2  2  0
  2  3  2  0
  2  4  1  0
  4  5  1  0
  5  6  1  0
  6  7  1  0
  7  8  2  0
  8  9  1  0
  9 10  2  0
 10 11  1  0
 11 12  2  0
  2 13  1  0
 13 14  2  0
 14 15  1  0
 15 16  2  0
 16 17  1  0
 17 18  2  0
 12  7  1  0
 18 13  1  0
  5 19  1  0
  5 20  1  0
  6 21  1  0
  6 22  1  0
  8 23  1  0
  9 24  1  0
 10 25  1  0
 11 26  1  0
 12 27  1  0
 14 28  1  0
 15 29  1  0
 16 30  1  0
 17 31  1  0
 18 32  1  0
M  CHG  1   4  -1
M  END
>  <UniqueID>  (20) 
17

>  <SMILES>  (20) 
O=S(=O)([N-]CCc1ccccc1)c1ccccc1

>  <Energy>  (20) 
28.04706586748045

>  <Genealogy>  (20) 
O=S(=O)([N-]CCc1ccccc1)c1ccccc1 (protonated)
O=S(=O)([N-]CCc1ccccc1)c1ccccc1 (3D coordinates assigned)
O=S(=O)([N-]CCc1ccccc1)c1ccccc1 (optimized conformer: 28.04706586748045 kcal/mol)

>  <smiles>  (20) 
O=S(=O)(NCCc1ccccc1)c1ccccc1

>  <score_type>  (20) 
oracle

>  <origin>  (20) 
adg

>  <m_score__min__energy>  (20) 
-8.9600000000000009

>  <m_primary>  (20) 
energy

$$$$
20:0
     RDKit          3D

 37 38  0  0  0  0  0  0  0  0999 V2000
   55.7865   32.0414   44.7697 H   0  0  0  0  0  0  0  0  0  0  0  0
   56.4950   31.2510   44.4810 C   0  0  0  0  0  0  0  0  0  0  0  0
   55.9250   29.9360   44.1140 C   0  0  0  0  0  0  0  0  0  0  0  0
   55.6260   29.7310   42.9090 O   0  0  0  0  0  0  0  0  0  0  0  0
   55.6880   28.8880   45.0670 N   0  0  0  0  0  0  0  0  0  0  0  0
   56.6480   27.9570   45.5900 C   0  0  0  0  0  0  0  0  0  0  0  0
   57.9990   28.3210   45.5720 C   0  0  0  0  0  0  0  0  0  0  0  0
   58.2981   29.2845   45.1336 H   0  0  0  0  0  0  0  0  0  0  0  0
   58.9700   27.4730   46.1050 C   0  0  0  0  0  0  0  0  0  0  0  0
   60.0275   27.7759   46.0992 H   0  0  0  0  0  0  0  0  0  0  0  0
   58.6010   26.2420   46.6450 C   0  0  0  0  0  0  0  0  0  0  0  0
   59.3655   25.5816   47.0803 H   0  0  0  0  0  0  0  0  0  0  0  0
   57.2610   25.8460   46.6340 C   0  0  0  0  0  0  0  0  0  0  0  0
   56.9767   24.8694   47.0529 H   0  0  0  0  0  0  0  0  0  0  0  0
   56.2710   26.6890   46.0900 C   0  0  0  0  0  0  0  0  0  0  0  0
   54.9280   26.2890   46.0090 O   0  0  0  0  0  0  0  0  0  0  0  0
   54.4910   24.9940   45.6100 C   0  0  0  0  0  0  0  0  0  0  0  0
   54.2855   24.3851   46.5028 H   0  0  0  0  0  0  0  0  0  0  0  0
   53.5739   25.0854   45.0095 H   0  0  0  0  0  0  0  0  0  0  0  0
   55.2759   24.5110   45.0095 H   0  0  0  0  0  0  0  0  0  0  0  0
   57.7990   31.5650   44.4930 C   0  0  0  0  0  0  0  0  0  0  0  0
   58.4770   30.9287   43.9053 H   0  0  0  0  0  0  0  0  0  0  0  0
   58.4000   32.6970   45.2320 C   0  0  0  0  0  0  0  0  0  0  0  0
   58.7190   33.8960   44.5710 C   0  0  0  0  0  0  0  0  0  0  0  0
   58.5307   33.9920   43.4915 H   0  0  0  0  0  0  0  0  0  0  0  0
   59.2730   34.9650   45.2760 C   0  0  0  0  0  0  0  0  0  0  0  0
   59.5309   35.8957   44.7494 H   0  0  0  0  0  0  0  0  0  0  0  0
   59.5000   34.8550   46.6470 C   0  0  0  0  0  0  0  0  0  0  0  0
   59.9428   35.6973   47.1988 H   0  0  0  0  0  0  0  0  0  0  0  0
   59.1670   33.6790   47.3220 C   0  0  0  0  0  0  0  0  0  0  0  0
   59.3401   33.6024   48.4056 H   0  0  0  0  0  0  0  0  0  0  0  0
   58.6100   32.5890   46.6220 C   0  0  0  0  0  0  0  0  0  0  0  0
   58.2790   31.3860   47.2670 O   0  0  0  0  0  0  0  0  0  0  0  0
   59.2190   30.5220   47.8980 C   0  0  0  0  0  0  0  0  0  0  0  0
   59.1227   30.6105   48.9902 H   0  0  0  0  0  0  0  0  0  0  0  0
   59.0224   29.4828   47.5956 H   0  0  0  0  0  0  0  0  0  0  0  0
   60.2380   30.8053   47.5956 H   0  0  0  0  0  0  0  0  0  0  0  0
  1  2  1  0
  2  3  1  0
  3  4  2  0
  3  5  1  0
  5  6  1  0
  6  7  2  0
  7  8  1  0
  7  9  1  0
  9 10  1  0
  9 11  2  0
 11 12  1  0
 11 13  1  0
 13 14  1  0
 13 15  2  0
 15 16  1  0
 16 17  1  0
 17 18  1  0
 17 19  1  0
 17 20  1  0
  2 21  2  0
 21 22  1  0
 21 23  1  0
 23 24  2  0
 24 25  1  0
 24 26  1  0
 26 27  1  0
 26 28  2  0
 28 29  1  0
 28 30  1  0
 30 31  1  0
 30 32  2  0
 32 33  1  0
 33 34  1  0
 34 35  1  0
 34 36  1  0
 34 37  1  0
 15  6  1  0
 32 23  1  0
M  CHG  1   5  -1
M  END
>  <UniqueID>  (21) 
18

>  <SMILES>  (21) 
COc1ccccc1/C=C\C(=O)[N-]c1ccccc1OC

>  <Energy>  (21) 
47.26463377431422

>  <Genealogy>  (21) 
COc1ccccc1C=CC(=O)[N-]c1ccccc1OC (protonated)
COc1ccccc1/C=C\C(=O)[N-]c1ccccc1OC (cis-trans isomerization)
COc1ccccc1/C=C\C(=O)[N-]c1ccccc1OC (3D coordinates assigned)
COc1ccccc1/C=C\C(=O)[N-]c1ccccc1OC (optimized conformer: 47.26463377431422 kcal/mol)

>  <smiles>  (21) 
COc1ccccc1C=CC(=O)Nc1ccccc1OC

>  <score_type>  (21) 
oracle

>  <origin>  (21) 
adg

>  <m_score__min__energy>  (21) 
-9.8300000000000001

>  <m_primary>  (21) 
energy

$$$$
21:0
     RDKit          3D

 74 77  0  0  0  0  0  0  0  0999 V2000
   52.5400   20.9060   48.2730 C   0  0  0  0  0  0  0  0  0  0  0  0
   53.6790   21.0100   47.4240 O   0  0  0  0  0  0  0  0  0  0  0  0
   54.2530   22.2230   47.0130 C   0  0  0  0  0  0  0  0  0  0  0  0
   55.3850   22.7660   47.6470 C   0  0  0  0  0  0  0  0  0  0  0  0
   55.9330   23.9710   47.2070 C   0  0  0  0  0  0  0  0  0  0  0  0
   55.3450   24.6770   46.1440 C   0  0  0  0  0  0  0  0  0  0  0  0
   55.9620   25.9550   45.6260 C   0  0  0  0  0  0  0  0  0  0  0  0
   57.3860   26.1290   46.1030 C   0  0  0  0  0  0  0  0  0  0  0  0
   57.7320   27.2580   46.8670 C   0  0  0  0  0  0  0  0  0  0  0  0
   59.0400   27.4190   47.3600 C   0  0  0  0  0  0  0  0  0  0  0  0
   59.4050   28.6210   48.1450 C   0  0  0  0  0  0  0  0  0  0  0  0
   58.5530   29.3700   48.9570 C   0  0  0  0  0  0  0  0  0  0  0  0
   59.1870   30.4330   49.6100 C   0  0  0  0  0  0  0  0  0  0  0  0
   60.5460   30.5270   49.3250 C   0  0  0  0  0  0  0  0  0  0  0  0
   61.4740   31.5240   49.8900 C   0  0  0  0  0  0  0  0  0  0  0  0
   62.4300   31.1370   50.6160 O   0  0  0  0  0  0  0  0  0  0  0  0
   61.3080   32.9190   49.6070 N   0  0  0  0  0  0  0  0  0  0  0  0
   62.2180   33.9270   50.1550 C   0  0  0  0  0  0  0  0  0  0  0  0
   63.5990   33.8050   49.5030 C   0  0  0  0  0  0  0  0  0  0  0  0
   63.5740   34.2110   48.0230 C   0  0  0  0  0  0  0  0  0  0  0  0
   62.6600   33.3100   47.1740 C   0  0  0  0  0  0  0  0  0  0  0  0
   61.3410   33.8510   47.0610 O   0  0  0  0  0  0  0  0  0  0  0  0
   60.2480   33.2230   46.4410 C   0  0  0  0  0  0  0  0  0  0  0  0
   60.1030   31.8220   46.3930 C   0  0  0  0  0  0  0  0  0  0  0  0
   58.9350   31.2510   45.8770 C   0  0  0  0  0  0  0  0  0  0  0  0
   57.9040   32.0710   45.3870 C   0  0  0  0  0  0  0  0  0  0  0  0
   56.6530   31.5340   44.9420 N   0  0  0  0  0  0  0  0  0  0  0  0
   56.4240   29.9320   44.3220 S   0  0  0  0  0  0  0  0  0  0  0  0
   56.3080   30.0190   42.5500 C   0  0  0  0  0  0  0  0  0  0  0  0
   55.1430   29.3520   44.8550 O   0  0  0  0  0  0  0  0  0  0  0  0
   57.5850   29.0590   44.7110 O   0  0  0  0  0  0  0  0  0  0  0  0
   58.0890   33.4580   45.3560 C   0  0  0  0  0  0  0  0  0  0  0  0
   59.2550   34.0280   45.8750 C   0  0  0  0  0  0  0  0  0  0  0  0
   60.9490   29.2910   48.2520 S   0  0  0  0  0  0  0  0  0  0  0  0
   60.0000   26.4300   47.0820 C   0  0  0  0  0  0  0  0  0  0  0  0
   59.6630   25.3110   46.3200 C   0  0  0  0  0  0  0  0  0  0  0  0
   58.3670   25.1550   45.8290 C   0  0  0  0  0  0  0  0  0  0  0  0
   58.0610   24.0260   45.0760 O   0  0  0  0  0  0  0  0  0  0  0  0
   54.2220   24.1290   45.5030 C   0  0  0  0  0  0  0  0  0  0  0  0
   53.6730   22.9040   45.9310 C   0  0  0  0  0  0  0  0  0  0  0  0
   52.5590   22.3240   45.3010 O   0  0  0  0  0  0  0  0  0  0  0  0
   51.2340   22.8430   45.3620 C   0  0  0  0  0  0  0  0  0  0  0  0
   52.8624   20.9354   49.3243 H   0  0  0  0  0  0  0  0  0  0  0  0
   51.8573   21.7455   48.0752 H   0  0  0  0  0  0  0  0  0  0  0  0
   52.0207   19.9567   48.0752 H   0  0  0  0  0  0  0  0  0  0  0  0
   55.8416   22.2365   48.4962 H   0  0  0  0  0  0  0  0  0  0  0  0
   56.8329   24.3718   47.6963 H   0  0  0  0  0  0  0  0  0  0  0  0
   55.9559   25.9322   44.5263 H   0  0  0  0  0  0  0  0  0  0  0  0
   55.3693   26.7987   46.0092 H   0  0  0  0  0  0  0  0  0  0  0  0
   56.9717   28.0235   47.0815 H   0  0  0  0  0  0  0  0  0  0  0  0
   57.4824   29.1458   49.0732 H   0  0  0  0  0  0  0  0  0  0  0  0
   58.6622   31.1269   50.2832 H   0  0  0  0  0  0  0  0  0  0  0  0
   60.5340   33.2190   48.9740 H   0  0  0  0  0  0  0  0  0  0  0  0
   61.8106   34.9296   49.9578 H   0  0  0  0  0  0  0  0  0  0  0  0
   62.3180   33.7682   51.2389 H   0  0  0  0  0  0  0  0  0  0  0  0
   64.3036   34.4582   50.0386 H   0  0  0  0  0  0  0  0  0  0  0  0
   63.9103   32.7516   49.5611 H   0  0  0  0  0  0  0  0  0  0  0  0
   63.2133   35.2475   47.9487 H   0  0  0  0  0  0  0  0  0  0  0  0
   64.5973   34.1067   47.6331 H   0  0  0  0  0  0  0  0  0  0  0  0
   63.0922   33.2113   46.1673 H   0  0  0  0  0  0  0  0  0  0  0  0
   62.5876   32.3307   47.6697 H   0  0  0  0  0  0  0  0  0  0  0  0
   60.9118   31.1747   46.7629 H   0  0  0  0  0  0  0  0  0  0  0  0
   58.8230   30.1569   45.8546 H   0  0  0  0  0  0  0  0  0  0  0  0
   55.4572   30.6571   42.2691 H   0  0  0  0  0  0  0  0  0  0  0  0
   57.2364   30.4454   42.1423 H   0  0  0  0  0  0  0  0  0  0  0  0
   56.1586   29.0083   42.1423 H   0  0  0  0  0  0  0  0  0  0  0  0
   57.3120   34.1035   44.9205 H   0  0  0  0  0  0  0  0  0  0  0  0
   59.3924   35.1188   45.8378 H   0  0  0  0  0  0  0  0  0  0  0  0
   61.0242   26.5394   47.4681 H   0  0  0  0  0  0  0  0  0  0  0  0
   60.4244   24.5468   46.1051 H   0  0  0  0  0  0  0  0  0  0  0  0
   53.7654   24.6627   44.6564 H   0  0  0  0  0  0  0  0  0  0  0  0
   50.9343   22.9604   46.4138 H   0  0  0  0  0  0  0  0  0  0  0  0
   51.1998   23.8210   44.8596 H   0  0  0  0  0  0  0  0  0  0  0  0
   50.5447   22.1484   44.8596 H   0  0  0  0  0  0  0  0  0  0  0  0
  1  2  1  0
  2  3  1  0
  3  4  2  0
  4  5  1  0
  5  6  2  0
  6  7  1  0
  7  8  1  0
  8  9  2  0
  9 10  1  0
 10 11  1  0
 11 12  2  0
 12 13  1  0
 13 14  2  0
 14 15  1  0
 15 16  2  0
 15 17  1  0
 17 18  1  0
 18 19  1  0
 19 20  1  0
 20 21  1  0
 21 22  1  0
 22 23  1  0
 23 24  2  0
 24 25  1  0
 25 26  2  0
 26 27  1  0
 27 28  1  0
 28 29  1  0
 28 30  2  0
 28 31  2  0
 26 32  1  0
 32 33  2  0
 14 34  1  0
 10 35  2  0
 35 36  1  0
 36 37  2  0
 37 38  1  0
  6 39  1  0
 39 40  2  0
 40 41  1  0
 41 42  1  0
 40  3  1  0
 37  8  1  0
 34 11  1  0
 33 23  1  0
  1 43  1  0
  1 44  1  0
  1 45  1  0
  4 46  1  0
  5 47  1  0
  7 48  1  0
  7 49  1  0
  9 50  1  0
 12 51  1  0
 13 52  1  0
 17 53  1  0
 18 54  1  0
 18 55  1  0
 19 56  1  0
 19 57  1  0
 20 58  1  0
 20 59  1  0
 21 60  1  0
 21 61  1  0
 24 62  1  0
 25 63  1  0
 29 64  1  0
 29 65  1  0
 29 66  1  0
 32 67  1  0
 33 68  1  0
 35 69  1  0
 36 70  1  0
 39 71  1  0
 42 72  1  0
 42 73  1  0
 42 74  1  0
M  CHG  2  27  -1  38  -1
M  END
>  <UniqueID>  (22) 
19

>  <SMILES>  (22) 
COc1ccc(Cc2cc(-c3ccc(C(=O)NCCCCOc4ccc([N-]S(C)(=O)=O)cc4)s3)ccc2[O-])cc1OC

>  <Energy>  (22) 
97.66792408895489

>  <Genealogy>  (22) 
COc1ccc(Cc2cc(-c3ccc(C(=O)NCCCCOc4ccc([N-]S(C)(=O)=O)cc4)s3)ccc2[O-])cc1OC (protonated)
COc1ccc(Cc2cc(-c3ccc(C(=O)NCCCCOc4ccc([N-]S(C)(=O)=O)cc4)s3)ccc2[O-])cc1OC (3D coordinates assigned)
COc1ccc(Cc2cc(-c3ccc(C(=O)NCCCCOc4ccc([N-]S(C)(=O)=O)cc4)s3)ccc2[O-])cc1OC (optimized conformer: 97.66792408895489 kcal/mol)

>  <smiles>  (22) 
COc1ccc(Cc2cc(-c3ccc(C(=O)NCCCCOc4ccc(NS(C)(=O)=O)cc4)s3)ccc2O)cc1OC

>  <score_type>  (22) 
oracle

>  <origin>  (22) 
adg

>  <m_score__min__energy>  (22) 
-12.65

>  <m_primary>  (22) 
energy

$$$$
22:0
     RDKit          3D

 40 42  0  0  0  0  0  0  0  0999 V2000
   56.6290   26.6880   45.7090 C   0  0  0  0  0  0  0  0  0  0  0  0
   58.0030   27.2970   45.6120 C   0  0  0  0  0  0  0  0  0  0  0  0
   58.9000   27.1080   46.6790 C   0  0  0  0  0  0  0  0  0  0  0  0
   60.1730   27.6790   46.6510 C   0  0  0  0  0  0  0  0  0  0  0  0
   60.5690   28.4510   45.5620 C   0  0  0  0  0  0  0  0  0  0  0  0
   59.6960   28.6510   44.4920 C   0  0  0  0  0  0  0  0  0  0  0  0
   58.4090   28.0750   44.4910 C   0  0  0  0  0  0  0  0  0  0  0  0
   57.5530   28.2800   43.3390 N   0  0  0  0  0  0  0  0  0  0  0  0
   56.5700   29.3540   43.5710 C   0  0  0  0  0  0  0  0  0  0  0  0
   57.2390   30.6640   43.9090 C   0  0  0  0  0  0  0  0  0  0  0  0
   57.4300   31.0310   45.2500 C   0  0  0  0  0  0  0  0  0  0  0  0
   57.9670   32.2830   45.5670 C   0  0  0  0  0  0  0  0  0  0  0  0
   58.3250   33.1780   44.5480 C   0  0  0  0  0  0  0  0  0  0  0  0
   58.8140   34.5570   44.8880 C   0  0  0  0  0  0  0  0  0  0  0  0
   59.4940   34.5310   46.1780 N   0  0  0  0  0  0  0  0  0  0  0  0
   60.7520   34.1270   46.4170 C   0  0  0  0  0  0  0  0  0  0  0  0
   61.0230   34.1440   47.7360 N   0  0  0  0  0  0  0  0  0  0  0  0
   59.8570   34.5700   48.2690 C   0  0  0  0  0  0  0  0  0  0  0  0
   58.9150   34.8000   47.3330 N   0  0  0  0  0  0  0  0  0  0  0  0
   58.1300   32.8110   43.2070 C   0  0  0  0  0  0  0  0  0  0  0  0
   57.5950   31.5600   42.8910 C   0  0  0  0  0  0  0  0  0  0  0  0
   56.3556   26.5668   46.7676 H   0  0  0  0  0  0  0  0  0  0  0  0
   55.9000   27.3473   45.2151 H   0  0  0  0  0  0  0  0  0  0  0  0
   56.6279   25.7051   45.2151 H   0  0  0  0  0  0  0  0  0  0  0  0
   58.5944   26.5031   47.5455 H   0  0  0  0  0  0  0  0  0  0  0  0
   60.8650   27.5189   47.4909 H   0  0  0  0  0  0  0  0  0  0  0  0
   61.5713   28.9038   45.5452 H   0  0  0  0  0  0  0  0  0  0  0  0
   60.0160   29.2661   43.6380 H   0  0  0  0  0  0  0  0  0  0  0  0
   58.0970   28.4830   42.4690 H   0  0  0  0  0  0  0  0  0  0  0  0
   57.0300   27.3920   43.1560 H   0  0  0  0  0  0  0  0  0  0  0  0
   55.9667   29.4869   42.6609 H   0  0  0  0  0  0  0  0  0  0  0  0
   55.9402   29.0620   44.4243 H   0  0  0  0  0  0  0  0  0  0  0  0
   57.1566   30.3320   46.0541 H   0  0  0  0  0  0  0  0  0  0  0  0
   58.1092   32.5670   46.6201 H   0  0  0  0  0  0  0  0  0  0  0  0
   59.5145   34.8987   44.1118 H   0  0  0  0  0  0  0  0  0  0  0  0
   57.9577   35.2455   44.9403 H   0  0  0  0  0  0  0  0  0  0  0  0
   61.4668   33.8224   45.6383 H   0  0  0  0  0  0  0  0  0  0  0  0
   59.6945   34.7133   49.3475 H   0  0  0  0  0  0  0  0  0  0  0  0
   58.3995   33.5110   42.4024 H   0  0  0  0  0  0  0  0  0  0  0  0
   57.4522   31.2763   41.8379 H   0  0  0  0  0  0  0  0  0  0  0  0
  1  2  1  0
  2  3  2  0
  3  4  1  0
  4  5  2  0
  5  6  1  0
  6  7  2  0
  7  8  1  0
  8  9  1  0
  9 10  1  0
 10 11  2  0
 11 12  1  0
 12 13  2  0
 13 14  1  0
 14 15  1  0
 15 16  1  0
 16 17  2  0
 17 18  1  0
 18 19  2  0
 13 20  1  0
 20 21  2  0
  7  2  1  0
 21 10  1  0
 19 15  1  0
  1 22  1  0
  1 23  1  0
  1 24  1  0
  3 25  1  0
  4 26  1  0
  5 27  1  0
  6 28  1  0
  8 29  1  0
  8 30  1  0
  9 31  1  0
  9 32  1  0
 11 33  1  0
 12 34  1  0
 14 35  1  0
 14 36  1  0
 16 37  1  0
 18 38  1  0
 20 39  1  0
 21 40  1  0
M  CHG  1   8   1
M  END
>  <UniqueID>  (23) 
20

>  <SMILES>  (23) 
Cc1ccccc1[NH2+]Cc1ccc(Cn2cncn2)cc1

>  <Energy>  (23) 
73.86708823681543

>  <Genealogy>  (23) 
Cc1ccccc1[NH2+]Cc1ccc(Cn2cncn2)cc1 (protonated)
Cc1ccccc1[NH2+]Cc1ccc(Cn2cncn2)cc1 (3D coordinates assigned)
Cc1ccccc1[NH2+]Cc1ccc(Cn2cncn2)cc1 (optimized conformer: 73.86708823681543 kcal/mol)

>  <smiles>  (23) 
Cc1ccccc1NCc1ccc(Cn2cncn2)cc1

>  <score_type>  (23) 
oracle

>  <origin>  (23) 
adg

>  <m_score__min__energy>  (23) 
-6.0800000000000001

>  <m_primary>  (23) 
energy

$$$$
23:0
     RDKit          3D

 53 57  0  0  0  0  0  0  0  0999 V2000
   54.7240   26.3390   45.9930 O   0  0  0  0  0  0  0  0  0  0  0  0
   55.9640   26.2470   45.7690 C   0  0  0  0  0  0  0  0  0  0  0  0
   56.5910   24.9740   45.9480 C   0  0  0  0  0  0  0  0  0  0  0  0
   55.8230   23.8630   46.3670 C   0  0  0  0  0  0  0  0  0  0  0  0
   56.4110   22.6070   46.5500 C   0  0  0  0  0  0  0  0  0  0  0  0
   57.7740   22.4310   46.3200 C   0  0  0  0  0  0  0  0  0  0  0  0
   58.5570   23.5080   45.9060 C   0  0  0  0  0  0  0  0  0  0  0  0
   57.9730   24.7660   45.7220 C   0  0  0  0  0  0  0  0  0  0  0  0
   58.9140   26.0700   45.2210 S   0  0  0  0  0  0  0  0  0  0  0  0
   58.0060   27.4830   45.0650 C   0  0  0  0  0  0  0  0  0  0  0  0
   58.5830   28.6920   44.6570 C   0  0  0  0  0  0  0  0  0  0  0  0
   59.8180   28.7340   44.3990 O   0  0  0  0  0  0  0  0  0  0  0  0
   57.8060   29.8180   44.5310 N   0  0  0  0  0  0  0  0  0  0  0  0
   58.3900   31.0910   44.0620 C   0  0  0  0  0  0  0  0  0  0  0  0
   58.7140   32.0480   45.2300 C   0  0  0  0  0  0  0  0  0  0  0  0
   57.9890   31.7090   46.4880 N   0  0  0  0  0  0  0  0  0  0  0  0
   57.7030   32.9250   47.2890 C   0  0  0  0  0  0  0  0  0  0  0  0
   58.9970   33.6000   47.7790 C   0  0  0  0  0  0  0  0  0  0  0  0
   59.9940   32.5890   48.1460 N   0  0  0  0  0  0  0  0  0  0  0  0
   61.3990   32.9090   48.1140 C   0  0  0  0  0  0  0  0  0  0  0  0
   61.9670   33.4970   46.9700 C   0  0  0  0  0  0  0  0  0  0  0  0
   63.3340   33.7900   46.9330 C   0  0  0  0  0  0  0  0  0  0  0  0
   64.1450   33.4940   48.0310 C   0  0  0  0  0  0  0  0  0  0  0  0
   63.5930   32.8990   49.1670 C   0  0  0  0  0  0  0  0  0  0  0  0
   62.2260   32.6050   49.2100 C   0  0  0  0  0  0  0  0  0  0  0  0
   59.5240   31.2390   48.4670 C   0  0  0  0  0  0  0  0  0  0  0  0
   58.7050   30.6700   47.2930 C   0  0  0  0  0  0  0  0  0  0  0  0
   56.4660   29.7460   44.8210 C   0  0  0  0  0  0  0  0  0  0  0  0
   55.7290   30.7640   44.7190 O   0  0  0  0  0  0  0  0  0  0  0  0
   55.9100   28.5740   45.2200 N   0  0  0  0  0  0  0  0  0  0  0  0
   56.6330   27.4310   45.3510 C   0  0  0  0  0  0  0  0  0  0  0  0
   54.7460   23.9885   46.5520 H   0  0  0  0  0  0  0  0  0  0  0  0
   55.7956   21.7557   46.8764 H   0  0  0  0  0  0  0  0  0  0  0  0
   58.2326   21.4418   46.4651 H   0  0  0  0  0  0  0  0  0  0  0  0
   59.6329   23.3687   45.7242 H   0  0  0  0  0  0  0  0  0  0  0  0
   59.3184   30.8742   43.5133 H   0  0  0  0  0  0  0  0  0  0  0  0
   57.6497   31.5849   43.4154 H   0  0  0  0  0  0  0  0  0  0  0  0
   59.7953   32.0045   45.4275 H   0  0  0  0  0  0  0  0  0  0  0  0
   58.3884   33.0541   44.9271 H   0  0  0  0  0  0  0  0  0  0  0  0
   57.0520   31.3170   46.2310 H   0  0  0  0  0  0  0  0  0  0  0  0
   57.1422   33.6381   46.6670 H   0  0  0  0  0  0  0  0  0  0  0  0
   57.1168   32.6256   48.1704 H   0  0  0  0  0  0  0  0  0  0  0  0
   59.4018   34.2334   46.9759 H   0  0  0  0  0  0  0  0  0  0  0  0
   58.7672   34.2119   48.6637 H   0  0  0  0  0  0  0  0  0  0  0  0
   61.3336   33.7275   46.1007 H   0  0  0  0  0  0  0  0  0  0  0  0
   63.7715   34.2547   46.0371 H   0  0  0  0  0  0  0  0  0  0  0  0
   65.2190   33.7298   48.0007 H   0  0  0  0  0  0  0  0  0  0  0  0
   64.2336   32.6612   50.0290 H   0  0  0  0  0  0  0  0  0  0  0  0
   61.7957   32.1335   50.1059 H   0  0  0  0  0  0  0  0  0  0  0  0
   60.3901   30.5876   48.6558 H   0  0  0  0  0  0  0  0  0  0  0  0
   58.8865   31.2833   49.3623 H   0  0  0  0  0  0  0  0  0  0  0  0
   59.3897   30.1267   46.6252 H   0  0  0  0  0  0  0  0  0  0  0  0
   57.9332   30.0194   47.7301 H   0  0  0  0  0  0  0  0  0  0  0  0
  1  2  2  0
  2  3  1  0
  3  4  2  0
  4  5  1  0
  5  6  2  0
  6  7  1  0
  7  8  2  0
  8  9  1  0
  9 10  1  0
 10 11  1  0
 11 12  2  0
 11 13  1  0
 13 14  1  0
 14 15  1  0
 15 16  1  0
 16 17  1  0
 17 18  1  0
 18 19  1  0
 19 20  1  0
 20 21  2  0
 21 22  1  0
 22 23  2  0
 23 24  1  0
 24 25  2  0
 19 26  1  0
 26 27  1  0
 13 28  1  0
 28 29  2  0
 28 30  1  0
 30 31  1  0
 31  2  1  0
  8  3  1  0
 31 10  2  0
 27 16  1  0
 25 20  1  0
  4 32  1  0
  5 33  1  0
  6 34  1  0
  7 35  1  0
 14 36  1  0
 14 37  1  0
 15 38  1  0
 15 39  1  0
 16 40  1  0
 17 41  1  0
 17 42  1  0
 18 43  1  0
 18 44  1  0
 21 45  1  0
 22 46  1  0
 23 47  1  0
 24 48  1  0
 25 49  1  0
 26 50  1  0
 26 51  1  0
 27 52  1  0
 27 53  1  0
M  CHG  2  16   1  30  -1
M  END
>  <UniqueID>  (24) 
21

>  <SMILES>  (24) 
O=c1c2ccccc2sc2c(=O)n(CC[NH+]3CCN(c4ccccc4)CC3)c(=O)[n-]c12

>  <Energy>  (24) 
86.3949668410542

>  <Genealogy>  (24) 
O=c1c2ccccc2sc2c(=O)n(CC[NH+]3CCN(c4ccccc4)CC3)c(=O)[n-]c12 (protonated)
O=c1c2ccccc2sc2c(=O)n(CC[NH+]3CCN(c4ccccc4)CC3)c(=O)[n-]c12 (3D coordinates assigned)
O=c1c2ccccc2sc2c(=O)n(CC[NH+]3CCN(c4ccccc4)CC3)c(=O)[n-]c12 (nonaromatic ring conformer: 86.3949668410542 kcal/mol)

>  <smiles>  (24) 
O=c1c2ccccc2sc2c(=O)n(CCN3CCN(c4ccccc4)CC3)c(=O)[nH]c12

>  <score_type>  (24) 
oracle

>  <origin>  (24) 
adg

>  <m_score__min__energy>  (24) 
-9.7899999999999991

>  <m_primary>  (24) 
energy

$$$$
24:0
     RDKit          3D

 40 42  0  0  0  0  0  0  0  0999 V2000
   60.2228   26.6550   48.6097 H   0  0  0  0  0  0  0  0  0  0  0  0
   59.7550   27.6260   48.3900 C   0  0  0  0  0  0  0  0  0  0  0  0
   59.7410   28.6280   49.3630 C   0  0  0  0  0  0  0  0  0  0  0  0
   60.1853   28.4386   50.3513 H   0  0  0  0  0  0  0  0  0  0  0  0
   59.1600   29.8800   49.0830 C   0  0  0  0  0  0  0  0  0  0  0  0
   59.0870   30.9240   50.0690 N   0  0  0  0  0  0  0  0  0  0  0  0
   58.2680   30.9920   51.0770 C   0  0  0  0  0  0  0  0  0  0  0  0
   57.0240   30.4440   51.0160 N   0  0  0  0  0  0  0  0  0  0  0  0
   56.1890   30.5070   52.0830 C   0  0  0  0  0  0  0  0  0  0  0  0
   55.0120   29.9590   52.0010 N   0  0  0  0  0  0  0  0  0  0  0  0
   53.7420   30.6340   52.0280 C   0  0  0  0  0  0  0  0  0  0  0  0
   53.0000   30.7870   53.2160 C   0  0  0  0  0  0  0  0  0  0  0  0
   53.3783   30.3625   54.1576 H   0  0  0  0  0  0  0  0  0  0  0  0
   51.7840   31.4770   53.2010 C   0  0  0  0  0  0  0  0  0  0  0  0
   51.2000   31.5788   54.1276 H   0  0  0  0  0  0  0  0  0  0  0  0
   51.3080   32.0380   52.0120 C   0  0  0  0  0  0  0  0  0  0  0  0
   50.1000   32.7230   52.0010 O   0  0  0  0  0  0  0  0  0  0  0  0
   52.0550   31.9150   50.8370 C   0  0  0  0  0  0  0  0  0  0  0  0
   51.6854   32.3621   49.9024 H   0  0  0  0  0  0  0  0  0  0  0  0
   53.2710   31.2250   50.8470 C   0  0  0  0  0  0  0  0  0  0  0  0
   53.8618   31.1453   49.9226 H   0  0  0  0  0  0  0  0  0  0  0  0
   56.6150   31.1000   53.2300 N   0  0  0  0  0  0  0  0  0  0  0  0
   57.8590   31.6430   53.3040 C   0  0  0  0  0  0  0  0  0  0  0  0
   58.2720   32.2170   54.3930 N   0  0  0  0  0  0  0  0  0  0  0  0
   59.0120   33.4750   54.4200 C   0  0  0  0  0  0  0  0  0  0  0  0
   59.1882   33.7745   55.4637 H   0  0  0  0  0  0  0  0  0  0  0  0
   59.9769   33.3439   53.9083 H   0  0  0  0  0  0  0  0  0  0  0  0
   58.4286   34.2546   53.9083 H   0  0  0  0  0  0  0  0  0  0  0  0
   58.6820   31.5830   52.2270 N   0  0  0  0  0  0  0  0  0  0  0  0
   58.5530   30.0870   47.8370 C   0  0  0  0  0  0  0  0  0  0  0  0
   58.0549   31.0449   47.6266 H   0  0  0  0  0  0  0  0  0  0  0  0
   58.5740   29.0860   46.8560 C   0  0  0  0  0  0  0  0  0  0  0  0
   57.8160   29.3600   45.2920 S   0  0  0  0  0  0  0  0  0  0  0  0
   57.2000   30.7310   45.2580 O   0  0  0  0  0  0  0  0  0  0  0  0
   58.8480   29.2680   44.2030 O   0  0  0  0  0  0  0  0  0  0  0  0
   56.5890   28.1710   45.0320 N   0  0  0  0  0  0  0  0  0  0  0  0
   57.0290   27.3900   44.4950 H   0  0  0  0  0  0  0  0  0  0  0  0
   55.8720   28.6010   44.4060 H   0  0  0  0  0  0  0  0  0  0  0  0
   59.1770   27.8530   47.1390 C   0  0  0  0  0  0  0  0  0  0  0  0
   59.1951   27.0624   46.3744 H   0  0  0  0  0  0  0  0  0  0  0  0
  1  2  1  0
  2  3  2  0
  3  4  1  0
  3  5  1  0
  5  6  1  0
  6  7  2  0
  7  8  1  0
  8  9  1  0
  9 10  2  3
 10 11  1  0
 11 12  2  0
 12 13  1  0
 12 14  1  0
 14 15  1  0
 14 16  2  0
 16 17  1  0
 16 18  1  0
 18 19  1  0
 18 20  2  0
 20 21  1  0
  9 22  1  0
 22 23  1  0
 23 24  2  0
 24 25  1  0
 25 26  1  0
 25 27  1  0
 25 28  1  0
 23 29  1  0
  5 30  2  0
 30 31  1  0
 30 32  1  0
 32 33  1  0
 33 34  2  0
 33 35  2  0
 33 36  1  0
 36 37  1  0
 36 38  1  0
 32 39  2  0
 39 40  1  0
 39  2  1  0
 29  7  1  0
 20 11  1  0
M  CHG  4   8  -1  17  -1  22  -1  29  -1
M  END
>  <UniqueID>  (25) 
22

>  <SMILES>  (25) 
C/N=c1\[n-]c(=Nc2ccc([O-])cc2)[n-]/c(=N\c2cccc(S(N)(=O)=O)c2)[n-]1

>  <Energy>  (25) 
52.93179947654953

>  <Genealogy>  (25) 
CN=c1[n-]c(=Nc2ccc([O-])cc2)[n-]c(=Nc2cccc(S(N)(=O)=O)c2)[n-]1 (protonated)
C/N=c1\[n-]c(=Nc2ccc([O-])cc2)[n-]/c(=N\c2cccc(S(N)(=O)=O)c2)[n-]1 (cis-trans isomerization)
C/N=c1\[n-]c(=Nc2ccc([O-])cc2)[n-]/c(=N\c2cccc(S(N)(=O)=O)c2)[n-]1 (3D coordinates assigned)
C/N=c1\[n-]c(=Nc2ccc([O-])cc2)[n-]/c(=N\c2cccc(S(N)(=O)=O)c2)[n-]1 (optimized conformer: 52.93179947654953 kcal/mol)

>  <smiles>  (25) 
CN=c1[nH]c(=Nc2ccc(O)cc2)[nH]c(=Nc2cccc(S(N)(=O)=O)c2)[nH]1

>  <score_type>  (25) 
oracle

>  <origin>  (25) 
adg

>  <m_score__min__energy>  (25) 
-14.69

>  <m_primary>  (25) 
energy

$$$$
25:0
     RDKit          3D

 54 57  0  0  0  0  0  0  0  0999 V2000
   60.4505   35.9232   46.0251 H   0  0  0  0  0  0  0  0  0  0  0  0
   59.8800   34.9830   46.0480 C   0  0  0  0  0  0  0  0  0  0  0  0
   58.4490   34.6800   45.2200 S   0  0  0  0  0  0  0  0  0  0  0  0
   58.3110   33.1120   45.8210 C   0  0  0  0  0  0  0  0  0  0  0  0
   57.3860   32.2490   45.5220 N   0  0  0  0  0  0  0  0  0  0  0  0
   57.5820   30.9580   44.9250 C   0  0  0  0  0  0  0  0  0  0  0  0
   56.5230   30.2530   44.3240 C   0  0  0  0  0  0  0  0  0  0  0  0
   55.5215   30.7054   44.2760 H   0  0  0  0  0  0  0  0  0  0  0  0
   56.7380   28.9810   43.7880 C   0  0  0  0  0  0  0  0  0  0  0  0
   55.9108   28.4469   43.2976 H   0  0  0  0  0  0  0  0  0  0  0  0
   58.0040   28.3810   43.8720 C   0  0  0  0  0  0  0  0  0  0  0  0
   58.2440   27.0270   43.2580 C   0  0  0  0  0  0  0  0  0  0  0  0
   59.3010   26.7519   43.3890 H   0  0  0  0  0  0  0  0  0  0  0  0
   57.9946   27.0716   42.1876 H   0  0  0  0  0  0  0  0  0  0  0  0
   57.3950   26.0120   43.9040 N   0  0  0  0  0  0  0  0  0  0  0  0
   56.5560   26.4690   44.3330 H   0  0  0  0  0  0  0  0  0  0  0  0
   57.0620   25.3370   43.1740 H   0  0  0  0  0  0  0  0  0  0  0  0
   58.1280   25.2470   44.9270 C   0  0  0  0  0  0  0  0  0  0  0  0
   58.9485   24.6987   44.4411 H   0  0  0  0  0  0  0  0  0  0  0  0
   57.4201   24.5564   45.4086 H   0  0  0  0  0  0  0  0  0  0  0  0
   58.7060   26.1450   45.9950 C   0  0  0  0  0  0  0  0  0  0  0  0
   57.8620   26.9750   46.7500 C   0  0  0  0  0  0  0  0  0  0  0  0
   56.7759   26.9547   46.5767 H   0  0  0  0  0  0  0  0  0  0  0  0
   58.3960   27.8270   47.7210 C   0  0  0  0  0  0  0  0  0  0  0  0
   57.7281   28.4778   48.3043 H   0  0  0  0  0  0  0  0  0  0  0  0
   59.7790   27.8570   47.9560 C   0  0  0  0  0  0  0  0  0  0  0  0
   60.3570   28.8010   48.9750 C   0  0  0  0  0  0  0  0  0  0  0  0
   61.3149   28.3992   49.3369 H   0  0  0  0  0  0  0  0  0  0  0  0
   59.6456   28.9007   49.8081 H   0  0  0  0  0  0  0  0  0  0  0  0
   60.5910   30.1780   48.3630 C   0  0  0  0  0  0  0  0  0  0  0  0
   60.7170   30.9194   49.1658 H   0  0  0  0  0  0  0  0  0  0  0  0
   61.4979   30.1535   47.7409 H   0  0  0  0  0  0  0  0  0  0  0  0
   59.7269   30.4544   47.7409 H   0  0  0  0  0  0  0  0  0  0  0  0
   60.6250   27.0390   47.1890 C   0  0  0  0  0  0  0  0  0  0  0  0
   61.7123   27.0690   47.3532 H   0  0  0  0  0  0  0  0  0  0  0  0
   60.0910   26.1870   46.2180 C   0  0  0  0  0  0  0  0  0  0  0  0
   60.7601   25.5458   45.6253 H   0  0  0  0  0  0  0  0  0  0  0  0
   59.0550   29.0780   44.4880 C   0  0  0  0  0  0  0  0  0  0  0  0
   60.0538   28.6210   44.5477 H   0  0  0  0  0  0  0  0  0  0  0  0
   58.8390   30.3500   45.0260 C   0  0  0  0  0  0  0  0  0  0  0  0
   59.6618   30.8765   45.5318 H   0  0  0  0  0  0  0  0  0  0  0  0
   59.3430   32.8010   46.6320 N   0  0  0  0  0  0  0  0  0  0  0  0
   60.2220   33.8340   46.7720 C   0  0  0  0  0  0  0  0  0  0  0  0
   61.4280   33.7110   47.6330 C   0  0  0  0  0  0  0  0  0  0  0  0
   61.4230   34.1400   48.9760 C   0  0  0  0  0  0  0  0  0  0  0  0
   60.5092   34.5757   49.4062 H   0  0  0  0  0  0  0  0  0  0  0  0
   62.5710   34.0160   49.7660 C   0  0  0  0  0  0  0  0  0  0  0  0
   62.5557   34.3516   50.8134 H   0  0  0  0  0  0  0  0  0  0  0  0
   63.7360   33.4670   49.2270 C   0  0  0  0  0  0  0  0  0  0  0  0
   64.6367   33.3678   49.8506 H   0  0  0  0  0  0  0  0  0  0  0  0
   63.7580   33.0440   47.8970 C   0  0  0  0  0  0  0  0  0  0  0  0
   64.6775   32.6149   47.4722 H   0  0  0  0  0  0  0  0  0  0  0  0
   62.6130   33.1650   47.1040 C   0  0  0  0  0  0  0  0  0  0  0  0
   62.6382   32.8303   46.0565 H   0  0  0  0  0  0  0  0  0  0  0  0
  1  2  1  0
  2  3  1  0
  3  4  1  0
  4  5  2  0
  5  6  1  0
  6  7  2  0
  7  8  1  0
  7  9  1  0
  9 10  1  0
  9 11  2  0
 11 12  1  0
 12 13  1  0
 12 14  1  0
 12 15  1  0
 15 16  1  0
 15 17  1  0
 15 18  1  0
 18 19  1  0
 18 20  1  0
 18 21  1  0
 21 22  2  0
 22 23  1  0
 22 24  1  0
 24 25  1  0
 24 26  2  0
 26 27  1  0
 27 28  1  0
 27 29  1  0
 27 30  1  0
 30 31  1  0
 30 32  1  0
 30 33  1  0
 26 34  1  0
 34 35  1  0
 34 36  2  0
 36 37  1  0
 11 38  1  0
 38 39  1  0
 38 40  2  0
 40 41  1  0
  4 42  1  0
 42 43  1  0
 43 44  1  0
 44 45  2  0
 45 46  1  0
 45 47  1  0
 47 48  1  0
 47 49  2  0
 49 50  1  0
 49 51  1  0
 51 52  1  0
 51 53  2  0
 53 54  1  0
 43  2  2  0
 53 44  1  0
 40  6  1  0
 36 21  1  0
M  CHG  2  15   1  42  -1
M  END
>  <UniqueID>  (26) 
23

>  <SMILES>  (26) 
CCc1ccc(C[NH2+]Cc2ccc(/N=c3/[n-]c(-c4ccccc4)cs3)cc2)cc1

>  <Energy>  (26) 
93.42699474924689

>  <Genealogy>  (26) 
CCc1ccc(C[NH2+]Cc2ccc(N=c3[n-]c(-c4ccccc4)cs3)cc2)cc1 (protonated)
CCc1ccc(C[NH2+]Cc2ccc(/N=c3/[n-]c(-c4ccccc4)cs3)cc2)cc1 (cis-trans isomerization)
CCc1ccc(C[NH2+]Cc2ccc(/N=c3/[n-]c(-c4ccccc4)cs3)cc2)cc1 (3D coordinates assigned)
CCc1ccc(C[NH2+]Cc2ccc(/N=c3/[n-]c(-c4ccccc4)cs3)cc2)cc1 (optimized conformer: 93.42699474924689 kcal/mol)

>  <smiles>  (26) 
CCc1ccc(CNCc2ccc(N=c3[nH]c(-c4ccccc4)cs3)cc2)cc1

>  <score_type>  (26) 
oracle

>  <origin>  (26) 
adg

>  <m_score__min__energy>  (26) 
-9.0899999999999999

>  <m_primary>  (26) 
energy

$$$$
26:0
     RDKit          3D

 25 26  0  0  0  0  0  0  0  0999 V2000
   57.6120   28.2620   43.5830 N   0  0  0  0  0  0  0  0  0  0  0  0
   57.0210   29.1650   44.9330 S   0  0  0  0  0  0  0  0  0  0  0  0
   55.5190   29.2020   44.8940 O   0  0  0  0  0  0  0  0  0  0  0  0
   57.4520   28.4950   46.2080 O   0  0  0  0  0  0  0  0  0  0  0  0
   57.6570   30.8060   44.8700 C   0  0  0  0  0  0  0  0  0  0  0  0
   57.6560   31.5150   43.6630 C   0  0  0  0  0  0  0  0  0  0  0  0
   58.1470   32.8190   43.6150 C   0  0  0  0  0  0  0  0  0  0  0  0
   58.6390   33.4320   44.7720 C   0  0  0  0  0  0  0  0  0  0  0  0
   59.1120   34.7030   44.7030 N   0  0  0  0  0  0  0  0  0  0  0  0
   59.5980   35.3480   45.7910 C   0  0  0  0  0  0  0  0  0  0  0  0
   60.0260   36.5270   45.6770 O   0  0  0  0  0  0  0  0  0  0  0  0
   59.6250   34.7110   47.0320 C   0  0  0  0  0  0  0  0  0  0  0  0
   59.1470   33.3920   47.1620 C   0  0  0  0  0  0  0  0  0  0  0  0
   59.1840   32.7150   48.5220 C   0  0  0  0  0  0  0  0  0  0  0  0
   59.7840   33.5120   49.4810 F   0  0  0  0  0  0  0  0  0  0  0  0
   59.9020   31.5360   48.4360 F   0  0  0  0  0  0  0  0  0  0  0  0
   57.8940   32.4400   48.9400 F   0  0  0  0  0  0  0  0  0  0  0  0
   58.6420   32.7340   46.0070 C   0  0  0  0  0  0  0  0  0  0  0  0
   58.1410   31.4140   46.0370 C   0  0  0  0  0  0  0  0  0  0  0  0
   58.0120   28.9510   42.9070 H   0  0  0  0  0  0  0  0  0  0  0  0
   56.7820   27.8320   43.1180 H   0  0  0  0  0  0  0  0  0  0  0  0
   57.2666   31.0418   42.7495 H   0  0  0  0  0  0  0  0  0  0  0  0
   58.1475   33.3687   42.6622 H   0  0  0  0  0  0  0  0  0  0  0  0
   60.0206   35.2401   47.9115 H   0  0  0  0  0  0  0  0  0  0  0  0
   58.1304   30.8572   46.9856 H   0  0  0  0  0  0  0  0  0  0  0  0
  1  2  1  0
  2  3  2  0
  2  4  2  0
  2  5  1  0
  5  6  2  0
  6  7  1  0
  7  8  2  0
  8  9  1  0
  9 10  1  0
 10 11  2  0
 10 12  1  0
 12 13  2  0
 13 14  1  0
 14 15  1  0
 14 16  1  0
 14 17  1  0
 13 18  1  0
 18 19  2  0
 19  5  1  0
 18  8  1  0
  1 20  1  0
  1 21  1  0
  6 22  1  0
  7 23  1  0
 12 24  1  0
 19 25  1  0
M  CHG  1   9  -1
M  END
>  <UniqueID>  (27) 
24

>  <SMILES>  (27) 
NS(=O)(=O)c1ccc2[n-]c(=O)cc(C(F)(F)F)c2c1

>  <Energy>  (27) 
31.356117372515563

>  <Genealogy>  (27) 
NS(=O)(=O)c1ccc2[n-]c(=O)cc(C(F)(F)F)c2c1 (protonated)
NS(=O)(=O)c1ccc2[n-]c(=O)cc(C(F)(F)F)c2c1 (3D coordinates assigned)
NS(=O)(=O)c1ccc2[n-]c(=O)cc(C(F)(F)F)c2c1 (optimized conformer: 31.356117372515563 kcal/mol)

>  <smiles>  (27) 
NS(=O)(=O)c1ccc2[nH]c(=O)cc(C(F)(F)F)c2c1

>  <score_type>  (27) 
oracle

>  <origin>  (27) 
adg

>  <m_score__min__energy>  (27) 
-7.8300000000000001

>  <m_primary>  (27) 
energy

$$$$
27:0
     RDKit          3D

 35 37  0  0  0  0  0  0  0  0999 V2000
   63.9570   33.4670   48.0060 C   0  0  0  0  0  0  0  0  0  0  0  0
   63.7360   32.4020   47.2990 N   0  0  0  0  0  0  0  0  0  0  0  0
   62.4830   31.6390   47.3170 C   0  0  0  0  0  0  0  0  0  0  0  0
   61.2910   32.3620   47.9960 C   0  0  2  0  0  0  0  0  0  0  0  0
   60.2550   32.9450   47.0240 C   0  0  0  0  0  0  0  0  0  0  0  0
   60.2710   34.3440   46.8250 C   0  0  0  0  0  0  0  0  0  0  0  0
   59.3780   34.9640   45.9520 C   0  0  0  0  0  0  0  0  0  0  0  0
   58.4490   34.2050   45.2480 C   0  0  0  0  0  0  0  0  0  0  0  0
   58.4140   32.8240   45.4130 C   0  0  0  0  0  0  0  0  0  0  0  0
   59.3040   32.1770   46.2880 C   0  0  0  0  0  0  0  0  0  0  0  0
   59.1880   30.7130   46.3730 C   0  0  0  0  0  0  0  0  0  0  0  0
   59.5050   29.9160   45.2620 C   0  0  0  0  0  0  0  0  0  0  0  0
   59.4950   28.5220   45.3710 C   0  0  0  0  0  0  0  0  0  0  0  0
   59.2010   27.9180   46.5980 C   0  0  0  0  0  0  0  0  0  0  0  0
   58.9300   28.7080   47.7190 C   0  0  0  0  0  0  0  0  0  0  0  0
   58.9380   30.1020   47.6120 C   0  0  0  0  0  0  0  0  0  0  0  0
   61.7010   33.3420   49.1120 C   0  0  0  0  0  0  0  0  0  0  0  0
   62.9250   34.0590   48.7930 N   0  0  0  0  0  0  0  0  0  0  0  0
   64.9585   33.9219   47.9985 H   0  0  0  0  0  0  0  0  0  0  0  0
   64.5200   32.0210   46.7220 H   0  0  0  0  0  0  0  0  0  0  0  0
   62.2017   31.4184   46.2767 H   0  0  0  0  0  0  0  0  0  0  0  0
   62.6787   30.7364   47.9145 H   0  0  0  0  0  0  0  0  0  0  0  0
   60.7577   31.5483   48.5092 H   0  0  0  0  0  0  0  0  0  0  0  0
   61.0036   34.9569   47.3705 H   0  0  0  0  0  0  0  0  0  0  0  0
   59.4082   36.0556   45.8197 H   0  0  0  0  0  0  0  0  0  0  0  0
   57.7431   34.6959   44.5619 H   0  0  0  0  0  0  0  0  0  0  0  0
   57.6790   32.2296   44.8505 H   0  0  0  0  0  0  0  0  0  0  0  0
   59.7620   30.3893   44.3029 H   0  0  0  0  0  0  0  0  0  0  0  0
   59.7184   27.9001   44.4916 H   0  0  0  0  0  0  0  0  0  0  0  0
   59.1831   26.8213   46.6808 H   0  0  0  0  0  0  0  0  0  0  0  0
   58.7102   28.2324   48.6862 H   0  0  0  0  0  0  0  0  0  0  0  0
   58.7479   30.7216   48.5008 H   0  0  0  0  0  0  0  0  0  0  0  0
   60.8909   34.0718   49.2574 H   0  0  0  0  0  0  0  0  0  0  0  0
   61.8819   32.7562   50.0253 H   0  0  0  0  0  0  0  0  0  0  0  0
   63.1340   34.9480   49.3000 H   0  0  0  0  0  0  0  0  0  0  0  0
  1  2  2  0
  2  3  1  0
  3  4  1  0
  4  5  1  0
  5  6  2  0
  6  7  1  0
  7  8  2  0
  8  9  1  0
  9 10  2  0
 10 11  1  0
 11 12  2  0
 12 13  1  0
 13 14  2  0
 14 15  1  0
 15 16  2  0
  4 17  1  0
 17 18  1  0
 18  1  1  0
 10  5  1  0
 16 11  1  0
  1 19  1  0
  2 20  1  0
  3 21  1  0
  3 22  1  0
  4 23  1  1
  6 24  1  0
  7 25  1  0
  8 26  1  0
  9 27  1  0
 12 28  1  0
 13 29  1  0
 14 30  1  0
 15 31  1  0
 16 32  1  0
 17 33  1  0
 17 34  1  0
 18 35  1  0
M  CHG  1   2   1
M  END
>  <UniqueID>  (28) 
25

>  <SMILES>  (28) 
C1=[NH+]C[C@H](c2ccccc2-c2ccccc2)CN1

>  <Energy>  (28) 
53.20799656885077

>  <Genealogy>  (28) 
C1=[NH+]CC(c2ccccc2-c2ccccc2)CN1 (protonated)
C1=[NH+]C[C@H](c2ccccc2-c2ccccc2)CN1 (chirality)
C1=[NH+]C[C@H](c2ccccc2-c2ccccc2)CN1 (3D coordinates assigned)
C1=[NH+]C[C@H](c2ccccc2-c2ccccc2)CN1 (nonaromatic ring conformer: 53.20799656885077 kcal/mol)

>  <smiles>  (28) 
C1=NCC(c2ccccc2-c2ccccc2)CN1

>  <score_type>  (28) 
oracle

>  <origin>  (28) 
adg

>  <m_score__min__energy>  (28) 
-5.4500000000000002

>  <m_primary>  (28) 
energy

$$$$
28:0
     RDKit          3D

 43 45  0  0  0  0  0  0  0  0999 V2000
   55.7640   30.2570   43.4800 O   0  0  0  0  0  0  0  0  0  0  0  0
   56.1680   29.7230   44.5470 C   0  0  0  0  0  0  0  0  0  0  0  0
   55.5220   28.5830   45.0120 O   0  0  0  0  0  0  0  0  0  0  0  0
   57.3470   30.2740   45.2580 C   0  0  0  0  0  0  0  0  0  0  0  0
   57.6500   31.6390   45.1040 C   0  0  0  0  0  0  0  0  0  0  0  0
   58.7910   32.1990   45.6900 C   0  0  0  0  0  0  0  0  0  0  0  0
   59.0460   33.5960   45.4950 N   0  0  0  0  0  0  0  0  0  0  0  0
   59.7840   34.6510   46.6560 S   0  0  0  0  0  0  0  0  0  0  0  0
   58.8520   34.8280   47.8190 O   0  0  0  0  0  0  0  0  0  0  0  0
   60.0320   35.9890   46.0150 O   0  0  0  0  0  0  0  0  0  0  0  0
   61.2930   33.9540   47.2370 C   0  0  0  0  0  0  0  0  0  0  0  0
   62.3930   33.8290   46.3770 C   0  0  0  0  0  0  0  0  0  0  0  0
   63.5860   33.2640   46.8400 C   0  0  0  0  0  0  0  0  0  0  0  0
   63.6860   32.8250   48.1630 C   0  0  0  0  0  0  0  0  0  0  0  0
   62.5940   32.9530   49.0260 C   0  0  0  0  0  0  0  0  0  0  0  0
   61.4000   33.5180   48.5670 C   0  0  0  0  0  0  0  0  0  0  0  0
   59.6450   31.3810   46.4440 C   0  0  0  0  0  0  0  0  0  0  0  0
   59.3470   30.0320   46.6250 C   0  0  0  0  0  0  0  0  0  0  0  0
   58.2010   29.4620   46.0460 C   0  0  0  0  0  0  0  0  0  0  0  0
   57.8800   28.0880   46.3120 N   0  0  0  0  0  0  0  0  0  0  0  0
   59.0960   26.8570   46.4340 S   0  0  0  0  0  0  0  0  0  0  0  0
   60.3430   27.3280   45.7380 O   0  0  0  0  0  0  0  0  0  0  0  0
   59.4060   26.6020   47.8820 O   0  0  0  0  0  0  0  0  0  0  0  0
   58.5100   25.3610   45.7110 C   0  0  0  0  0  0  0  0  0  0  0  0
   59.3140   24.2120   45.7410 C   0  0  0  0  0  0  0  0  0  0  0  0
   58.8470   23.0140   45.1940 C   0  0  0  0  0  0  0  0  0  0  0  0
   57.5790   22.9580   44.6080 C   0  0  0  0  0  0  0  0  0  0  0  0
   56.7770   24.1010   44.5700 C   0  0  0  0  0  0  0  0  0  0  0  0
   57.2390   25.3010   45.1180 C   0  0  0  0  0  0  0  0  0  0  0  0
   56.9780   32.2779   44.5123 H   0  0  0  0  0  0  0  0  0  0  0  0
   62.3179   34.1760   45.3359 H   0  0  0  0  0  0  0  0  0  0  0  0
   64.4465   33.1651   46.1619 H   0  0  0  0  0  0  0  0  0  0  0  0
   64.6240   32.3788   48.5251 H   0  0  0  0  0  0  0  0  0  0  0  0
   62.6739   32.6088   50.0677 H   0  0  0  0  0  0  0  0  0  0  0  0
   60.5433   33.6209   49.2492 H   0  0  0  0  0  0  0  0  0  0  0  0
   60.5540   31.8063   46.8944 H   0  0  0  0  0  0  0  0  0  0  0  0
   60.0184   29.4046   47.2297 H   0  0  0  0  0  0  0  0  0  0  0  0
   56.8830   27.7930   46.3980 H   0  0  0  0  0  0  0  0  0  0  0  0
   60.3145   24.2541   46.1962 H   0  0  0  0  0  0  0  0  0  0  0  0
   59.4781   22.1136   45.2245 H   0  0  0  0  0  0  0  0  0  0  0  0
   57.2131   22.0144   44.1771 H   0  0  0  0  0  0  0  0  0  0  0  0
   55.7798   24.0567   44.1079 H   0  0  0  0  0  0  0  0  0  0  0  0
   56.6057   26.1998   45.0845 H   0  0  0  0  0  0  0  0  0  0  0  0
  1  2  2  0
  2  3  1  0
  2  4  1  0
  4  5  2  0
  5  6  1  0
  6  7  1  0
  7  8  1  0
  8  9  2  0
  8 10  2  0
  8 11  1  0
 11 12  2  0
 12 13  1  0
 13 14  2  0
 14 15  1  0
 15 16  2  0
  6 17  2  0
 17 18  1  0
 18 19  2  0
 19 20  1  0
 20 21  1  0
 21 22  2  0
 21 23  2  0
 21 24  1  0
 24 25  2  0
 25 26  1  0
 26 27  2  0
 27 28  1  0
 28 29  2  0
 19  4  1  0
 29 24  1  0
 16 11  1  0
  5 30  1  0
 12 31  1  0
 13 32  1  0
 14 33  1  0
 15 34  1  0
 16 35  1  0
 17 36  1  0
 18 37  1  0
 20 38  1  0
 25 39  1  0
 26 40  1  0
 27 41  1  0
 28 42  1  0
 29 43  1  0
M  CHG  2   3  -1   7  -1
M  END
>  <UniqueID>  (29) 
26

>  <SMILES>  (29) 
O=C([O-])c1cc([N-]S(=O)(=O)c2ccccc2)ccc1NS(=O)(=O)c1ccccc1

>  <Energy>  (29) 
56.88385231689419

>  <Genealogy>  (29) 
O=C([O-])c1cc([N-]S(=O)(=O)c2ccccc2)ccc1NS(=O)(=O)c1ccccc1 (protonated)
O=C([O-])c1cc([N-]S(=O)(=O)c2ccccc2)ccc1NS(=O)(=O)c1ccccc1 (3D coordinates assigned)
O=C([O-])c1cc([N-]S(=O)(=O)c2ccccc2)ccc1NS(=O)(=O)c1ccccc1 (optimized conformer: 56.88385231689419 kcal/mol)

>  <smiles>  (29) 
O=C(O)c1cc(NS(=O)(=O)c2ccccc2)ccc1NS(=O)(=O)c1ccccc1

>  <score_type>  (29) 
oracle

>  <origin>  (29) 
adg

>  <m_score__min__energy>  (29) 
-13.720000000000001

>  <m_primary>  (29) 
energy

$$$$
29:0
     RDKit          3D

 47 49  0  0  0  0  0  0  0  0999 V2000
   57.8190   32.3480   41.5100 C   0  0  0  0  0  0  0  0  0  0  0  0
   57.4330   31.5060   42.6900 C   0  0  0  0  0  0  0  0  0  0  0  0
   56.5610   30.4160   42.5360 C   0  0  0  0  0  0  0  0  0  0  0  0
   56.2280   29.6200   43.6360 C   0  0  0  0  0  0  0  0  0  0  0  0
   56.7730   29.8970   44.8930 C   0  0  0  0  0  0  0  0  0  0  0  0
   57.6540   30.9760   45.0590 C   0  0  0  0  0  0  0  0  0  0  0  0
   58.2740   31.2460   46.4070 C   0  0  0  0  0  0  0  0  0  0  0  0
   58.6850   29.9940   47.0840 N   0  0  0  0  0  0  0  0  0  0  0  0
   59.7780   29.2760   46.3880 C   0  0  0  0  0  0  0  0  0  0  0  0
   61.0960   30.0600   46.4410 C   0  0  0  0  0  0  0  0  0  0  0  0
   61.3160   30.6430   47.7700 N   0  0  0  0  0  0  0  0  0  0  0  0
   62.4590   31.5080   47.9620 C   0  0  0  0  0  0  0  0  0  0  0  0
   63.2420   31.7260   46.9960 O   0  0  0  0  0  0  0  0  0  0  0  0
   62.7460   32.2000   49.2660 C   0  0  0  0  0  0  0  0  0  0  0  0
   62.7750   34.0160   49.0600 S   0  0  0  0  0  0  0  0  0  0  0  0
   61.2880   34.0920   48.0560 C   0  0  0  0  0  0  0  0  0  0  0  0
   61.3840   34.1470   46.6620 C   0  0  0  0  0  0  0  0  0  0  0  0
   60.2180   34.1940   45.8960 C   0  0  0  0  0  0  0  0  0  0  0  0
   59.0020   34.1810   46.5060 N   0  0  0  0  0  0  0  0  0  0  0  0
   58.8820   34.1260   47.8610 C   0  0  0  0  0  0  0  0  0  0  0  0
   60.0270   34.0760   48.6620 C   0  0  0  0  0  0  0  0  0  0  0  0
   60.4830   30.1660   48.8860 C   0  0  0  0  0  0  0  0  0  0  0  0
   58.9840   30.2230   48.5240 C   0  0  0  0  0  0  0  0  0  0  0  0
   57.9830   31.7760   43.9520 C   0  0  0  0  0  0  0  0  0  0  0  0
   58.2533   33.2954   41.8619 H   0  0  0  0  0  0  0  0  0  0  0  0
   58.5598   31.8087   40.9014 H   0  0  0  0  0  0  0  0  0  0  0  0
   56.9269   32.5573   40.9014 H   0  0  0  0  0  0  0  0  0  0  0  0
   56.1385   30.1877   41.5464 H   0  0  0  0  0  0  0  0  0  0  0  0
   55.5358   28.7741   43.5121 H   0  0  0  0  0  0  0  0  0  0  0  0
   56.5101   29.2666   45.7552 H   0  0  0  0  0  0  0  0  0  0  0  0
   59.1595   31.8841   46.2703 H   0  0  0  0  0  0  0  0  0  0  0  0
   57.5214   31.7438   47.0361 H   0  0  0  0  0  0  0  0  0  0  0  0
   59.9253   28.2980   46.8695 H   0  0  0  0  0  0  0  0  0  0  0  0
   59.4922   29.1566   45.3325 H   0  0  0  0  0  0  0  0  0  0  0  0
   61.9276   29.3794   46.2060 H   0  0  0  0  0  0  0  0  0  0  0  0
   61.0436   30.8778   45.7072 H   0  0  0  0  0  0  0  0  0  0  0  0
   61.9643   31.9340   49.9927 H   0  0  0  0  0  0  0  0  0  0  0  0
   63.7345   31.8746   49.6222 H   0  0  0  0  0  0  0  0  0  0  0  0
   62.3695   34.1532   46.1734 H   0  0  0  0  0  0  0  0  0  0  0  0
   60.2824   34.2416   44.7989 H   0  0  0  0  0  0  0  0  0  0  0  0
   57.8849   34.1209   48.3254 H   0  0  0  0  0  0  0  0  0  0  0  0
   59.9373   34.0246   49.7571 H   0  0  0  0  0  0  0  0  0  0  0  0
   60.7568   29.1267   49.1201 H   0  0  0  0  0  0  0  0  0  0  0  0
   60.6575   30.8169   49.7554 H   0  0  0  0  0  0  0  0  0  0  0  0
   58.4601   29.4533   49.1098 H   0  0  0  0  0  0  0  0  0  0  0  0
   58.6465   31.2444   48.7538 H   0  0  0  0  0  0  0  0  0  0  0  0
   58.6770   32.6204   44.0757 H   0  0  0  0  0  0  0  0  0  0  0  0
  1  2  1  0
  2  3  2  0
  3  4  1  0
  4  5  2  0
  5  6  1  0
  6  7  1  0
  7  8  1  0
  8  9  1  0
  9 10  1  0
 10 11  1  0
 11 12  1  0
 12 13  2  0
 12 14  1  0
 14 15  1  0
 15 16  1  0
 16 17  2  0
 17 18  1  0
 18 19  2  0
 19 20  1  0
 20 21  2  0
 11 22  1  0
 22 23  1  0
  6 24  2  0
 24  2  1  0
 23  8  1  0
 21 16  1  0
  1 25  1  0
  1 26  1  0
  1 27  1  0
  3 28  1  0
  4 29  1  0
  5 30  1  0
  7 31  1  0
  7 32  1  0
  9 33  1  0
  9 34  1  0
 10 35  1  0
 10 36  1  0
 14 37  1  0
 14 38  1  0
 17 39  1  0
 18 40  1  0
 20 41  1  0
 21 42  1  0
 22 43  1  0
 22 44  1  0
 23 45  1  0
 23 46  1  0
 24 47  1  0
M  END
>  <UniqueID>  (30) 
27

>  <SMILES>  (30) 
Cc1cccc(CN2CCN(C(=O)CSc3ccncc3)CC2)c1

>  <Energy>  (30) 
52.20214146730073

>  <Genealogy>  (30) 
Cc1cccc(CN2CCN(C(=O)CSc3ccncc3)CC2)c1 (3D coordinates assigned)
Cc1cccc(CN2CCN(C(=O)CSc3ccncc3)CC2)c1 (nonaromatic ring conformer: 52.20214146730073 kcal/mol)

>  <smiles>  (30) 
Cc1cccc(CN2CCN(C(=O)CSc3ccncc3)CC2)c1

>  <score_type>  (30) 
oracle

>  <origin>  (30) 
adg

>  <m_score__min__energy>  (30) 
-7.8099999999999996

>  <m_primary>  (30) 
energy

$$$$
30:0
     RDKit          3D

 39 42  0  0  0  0  0  0  0  0999 V2000
   57.4650   28.3130   43.4580 N   0  0  0  0  0  0  0  0  0  0  0  0
   56.5220   29.7300   43.7570 S   0  0  0  0  0  0  0  0  0  0  0  0
   56.2440   30.4350   42.4580 O   0  0  0  0  0  0  0  0  0  0  0  0
   55.2130   29.3390   44.3830 O   0  0  0  0  0  0  0  0  0  0  0  0
   57.4050   30.8020   44.8380 C   0  0  0  0  0  0  0  0  0  0  0  0
   58.3900   30.2860   45.6920 C   0  0  0  0  0  0  0  0  0  0  0  0
   59.0820   31.1340   46.5620 C   0  0  0  0  0  0  0  0  0  0  0  0
   58.7740   32.4980   46.6110 C   0  0  0  0  0  0  0  0  0  0  0  0
   59.5320   33.3600   47.4700 N   0  0  0  0  0  0  0  0  0  0  0  0
   60.2030   33.0910   48.5650 C   0  0  0  0  0  0  0  0  0  0  0  0
   59.5970   32.7730   49.8230 C   0  0  0  0  0  0  0  0  0  0  0  0
   58.2570   32.3420   49.9690 C   0  0  0  0  0  0  0  0  0  0  0  0
   57.7160   32.0920   51.2330 C   0  0  0  0  0  0  0  0  0  0  0  0
   58.5080   32.2160   52.3730 C   0  0  0  0  0  0  0  0  0  0  0  0
   59.8570   32.5380   52.2490 C   0  0  0  0  0  0  0  0  0  0  0  0
   60.4130   32.7790   50.9860 C   0  0  0  0  0  0  0  0  0  0  0  0
   61.7520   32.9610   50.8870 N   0  0  0  0  0  0  0  0  0  0  0  0
   62.3720   33.1280   49.6950 C   0  0  0  0  0  0  0  0  0  0  0  0
   63.7650   33.2650   49.6580 C   0  0  0  0  0  0  0  0  0  0  0  0
   64.4220   33.4470   48.4400 C   0  0  0  0  0  0  0  0  0  0  0  0
   63.6910   33.5000   47.2530 C   0  0  0  0  0  0  0  0  0  0  0  0
   62.2980   33.3720   47.2780 C   0  0  0  0  0  0  0  0  0  0  0  0
   61.6170   33.1770   48.5000 C   0  0  0  0  0  0  0  0  0  0  0  0
   57.8100   33.0210   45.7320 C   0  0  0  0  0  0  0  0  0  0  0  0
   57.1170   32.1730   44.8630 C   0  0  0  0  0  0  0  0  0  0  0  0
   56.8420   27.6260   42.9780 H   0  0  0  0  0  0  0  0  0  0  0  0
   58.2060   28.5780   42.7730 H   0  0  0  0  0  0  0  0  0  0  0  0
   58.6192   29.2102   45.6775 H   0  0  0  0  0  0  0  0  0  0  0  0
   59.8718   30.7272   47.2106 H   0  0  0  0  0  0  0  0  0  0  0  0
   57.6322   32.2017   49.0746 H   0  0  0  0  0  0  0  0  0  0  0  0
   56.6608   31.7962   51.3285 H   0  0  0  0  0  0  0  0  0  0  0  0
   58.0682   32.0598   53.3691 H   0  0  0  0  0  0  0  0  0  0  0  0
   60.4890   32.6034   53.1469 H   0  0  0  0  0  0  0  0  0  0  0  0
   64.3439   33.2291   50.5926 H   0  0  0  0  0  0  0  0  0  0  0  0
   65.5170   33.5487   48.4161 H   0  0  0  0  0  0  0  0  0  0  0  0
   64.2114   33.6429   46.2945 H   0  0  0  0  0  0  0  0  0  0  0  0
   61.7285   33.4237   46.3383 H   0  0  0  0  0  0  0  0  0  0  0  0
   57.6002   34.1008   45.7278 H   0  0  0  0  0  0  0  0  0  0  0  0
   56.3435   32.5832   44.1971 H   0  0  0  0  0  0  0  0  0  0  0  0
  1  2  1  0
  2  3  2  0
  2  4  2  0
  2  5  1  0
  5  6  2  0
  6  7  1  0
  7  8  2  0
  8  9  1  0
  9 10  2  3
 10 11  1  0
 11 12  2  0
 12 13  1  0
 13 14  2  0
 14 15  1  0
 15 16  2  0
 16 17  1  0
 17 18  1  0
 18 19  2  0
 19 20  1  0
 20 21  2  0
 21 22  1  0
 22 23  2  0
  8 24  1  0
 24 25  2  0
 25  5  1  0
 23 10  1  0
 16 11  1  0
 23 18  1  0
  1 26  1  0
  1 27  1  0
  6 28  1  0
  7 29  1  0
 12 30  1  0
 13 31  1  0
 14 32  1  0
 15 33  1  0
 19 34  1  0
 20 35  1  0
 21 36  1  0
 22 37  1  0
 24 38  1  0
 25 39  1  0
M  CHG  1  17  -1
M  END
>  <UniqueID>  (31) 
28

>  <SMILES>  (31) 
NS(=O)(=O)c1ccc(N=c2c3ccccc3[n-]c3ccccc23)cc1

>  <Energy>  (31) 
70.80097346308594

>  <Genealogy>  (31) 
NS(=O)(=O)c1ccc(N=c2c3ccccc3[n-]c3ccccc23)cc1 (protonated)
NS(=O)(=O)c1ccc(N=c2c3ccccc3[n-]c3ccccc23)cc1 (3D coordinates assigned)
NS(=O)(=O)c1ccc(N=c2c3ccccc3[n-]c3ccccc23)cc1 (optimized conformer: 70.80097346308594 kcal/mol)

>  <smiles>  (31) 
NS(=O)(=O)c1ccc(N=c2c3ccccc3[nH]c3ccccc23)cc1

>  <score_type>  (31) 
oracle

>  <origin>  (31) 
adg

>  <m_score__min__energy>  (31) 
-9.6099999999999994

>  <m_primary>  (31) 
energy

$$$$
31:0
     RDKit          3D

 45 47  0  0  0  0  0  0  0  0999 V2000
   56.2980   29.7240   42.6280 C   0  0  0  0  0  0  0  0  0  0  0  0
   56.6160   30.0470   44.3500 S   0  0  0  0  0  0  0  0  0  0  0  0
   55.7480   29.1770   45.2150 O   0  0  0  0  0  0  0  0  0  0  0  0
   56.2910   31.4860   44.6320 O   0  0  0  0  0  0  0  0  0  0  0  0
   58.2910   29.7690   44.7160 N   0  0  0  0  0  0  0  0  0  0  0  0
   59.0530   30.5310   45.6720 C   0  0  0  0  0  0  0  0  0  0  0  0
   58.5330   31.6870   46.2820 C   0  0  0  0  0  0  0  0  0  0  0  0
   59.2960   32.4100   47.2030 C   0  0  0  0  0  0  0  0  0  0  0  0
   60.5990   31.9990   47.5330 C   0  0  0  0  0  0  0  0  0  0  0  0
   61.4070   32.7680   48.5070 C   0  0  0  0  0  0  0  0  0  0  0  0
   62.3320   33.5240   48.1010 O   0  0  0  0  0  0  0  0  0  0  0  0
   61.1750   32.6110   49.9140 N   0  0  0  0  0  0  0  0  0  0  0  0
   60.0000   32.0650   50.5330 C   0  0  0  0  0  0  0  0  0  0  0  0
   58.9720   32.9160   50.9840 C   0  0  0  0  0  0  0  0  0  0  0  0
   57.8060   32.3910   51.5390 C   0  0  0  0  0  0  0  0  0  0  0  0
   57.6380   31.0120   51.6380 C   0  0  0  0  0  0  0  0  0  0  0  0
   56.1680   30.3570   52.3380 Cl  0  0  0  0  0  0  0  0  0  0  0  0
   58.6360   30.1510   51.1770 C   0  0  0  0  0  0  0  0  0  0  0  0
   59.8260   30.6580   50.6150 C   0  0  0  0  0  0  0  0  0  0  0  0
   60.8650   29.7020   50.1420 C   0  0  0  0  0  0  0  0  0  0  0  0
   62.0610   30.0810   50.0050 O   0  0  0  0  0  0  0  0  0  0  0  0
   60.4990   28.3400   49.8550 N   0  0  0  0  0  0  0  0  0  0  0  0
   59.9640   27.8830   48.7580 C   0  0  0  0  0  0  0  0  0  0  0  0
   58.7270   28.3880   48.3390 C   0  0  0  0  0  0  0  0  0  0  0  0
   58.1480   27.9030   47.1640 C   0  0  0  0  0  0  0  0  0  0  0  0
   58.8050   26.9230   46.4180 C   0  0  0  0  0  0  0  0  0  0  0  0
   58.0930   26.3080   44.9370 Cl  0  0  0  0  0  0  0  0  0  0  0  0
   60.0380   26.4410   46.8630 C   0  0  0  0  0  0  0  0  0  0  0  0
   60.5840   26.9260   48.0090 N   0  0  0  0  0  0  0  0  0  0  0  0
   61.1210   30.8470   46.9200 C   0  0  0  0  0  0  0  0  0  0  0  0
   60.3580   30.1220   45.9980 C   0  0  0  0  0  0  0  0  0  0  0  0
   60.8960   29.0150   45.4280 F   0  0  0  0  0  0  0  0  0  0  0  0
   55.5289   28.9428   42.5374 H   0  0  0  0  0  0  0  0  0  0  0  0
   55.9443   30.6449   42.1414 H   0  0  0  0  0  0  0  0  0  0  0  0
   57.2243   29.3847   42.1414 H   0  0  0  0  0  0  0  0  0  0  0  0
   58.7340   28.9460   44.2530 H   0  0  0  0  0  0  0  0  0  0  0  0
   57.5165   32.0250   46.0318 H   0  0  0  0  0  0  0  0  0  0  0  0
   58.8728   33.3094   47.6742 H   0  0  0  0  0  0  0  0  0  0  0  0
   59.0906   34.0061   50.8973 H   0  0  0  0  0  0  0  0  0  0  0  0
   57.0169   33.0673   51.8995 H   0  0  0  0  0  0  0  0  0  0  0  0
   58.4921   29.0631   51.2532 H   0  0  0  0  0  0  0  0  0  0  0  0
   58.2150   29.1610   48.9308 H   0  0  0  0  0  0  0  0  0  0  0  0
   57.1760   28.2926   46.8271 H   0  0  0  0  0  0  0  0  0  0  0  0
   60.5673   25.6686   46.2857 H   0  0  0  0  0  0  0  0  0  0  0  0
   62.1392   30.5121   47.1674 H   0  0  0  0  0  0  0  0  0  0  0  0
  1  2  1  0
  2  3  2  0
  2  4  2  0
  2  5  1  0
  5  6  1  0
  6  7  2  0
  7  8  1  0
  8  9  2  0
  9 10  1  0
 10 11  2  0
 10 12  1  0
 12 13  1  0
 13 14  2  0
 14 15  1  0
 15 16  2  0
 16 17  1  0
 16 18  1  0
 18 19  2  0
 19 20  1  0
 20 21  2  0
 20 22  1  0
 22 23  2  3
 23 24  1  0
 24 25  2  0
 25 26  1  0
 26 27  1  0
 26 28  2  0
 28 29  1  0
  9 30  1  0
 30 31  2  0
 31 32  1  0
 31  6  1  0
 19 13  1  0
 29 23  1  0
  1 33  1  0
  1 34  1  0
  1 35  1  0
  5 36  1  0
  7 37  1  0
  8 38  1  0
 14 39  1  0
 15 40  1  0
 18 41  1  0
 24 42  1  0
 25 43  1  0
 28 44  1  0
 30 45  1  0
M  CHG  2  12  -1  29  -1
M  END
>  <UniqueID>  (32) 
29

>  <SMILES>  (32) 
CS(=O)(=O)Nc1ccc(C(=O)[N-]c2ccc(Cl)cc2C(=O)N=c2ccc(Cl)c[n-]2)cc1F

>  <Energy>  (32) 
58.12896724026844

>  <Genealogy>  (32) 
CS(=O)(=O)Nc1ccc(C(=O)[N-]c2ccc(Cl)cc2C(=O)N=c2ccc(Cl)c[n-]2)cc1F (protonated)
CS(=O)(=O)Nc1ccc(C(=O)[N-]c2ccc(Cl)cc2C(=O)N=c2ccc(Cl)c[n-]2)cc1F (3D coordinates assigned)
CS(=O)(=O)Nc1ccc(C(=O)[N-]c2ccc(Cl)cc2C(=O)N=c2ccc(Cl)c[n-]2)cc1F (optimized conformer: 58.12896724026844 kcal/mol)

>  <smiles>  (32) 
CS(=O)(=O)Nc1ccc(C(=O)Nc2ccc(Cl)cc2C(=O)N=c2ccc(Cl)c[nH]2)cc1F

>  <score_type>  (32) 
oracle

>  <origin>  (32) 
adg

>  <m_score__min__energy>  (32) 
-12.69

>  <m_primary>  (32) 
energy

$$$$
32:0
     RDKit          3D

 39 42  0  0  0  0  0  0  0  0999 V2000
   60.2330   29.8740   48.9120 O   0  0  0  0  0  0  0  0  0  0  0  0
   60.1880   30.0900   47.6720 C   0  0  0  0  0  0  0  0  0  0  0  0
   61.2020   30.8840   47.0300 N   0  0  0  0  0  0  0  0  0  0  0  0
   62.2000   31.6340   47.7390 C   0  0  0  0  0  0  0  0  0  0  0  0
   62.7690   32.7630   47.1300 C   0  0  0  0  0  0  0  0  0  0  0  0
   63.7580   33.5000   47.7880 C   0  0  0  0  0  0  0  0  0  0  0  0
   64.1970   33.1060   49.0550 C   0  0  0  0  0  0  0  0  0  0  0  0
   63.6550   31.9690   49.6600 C   0  0  0  0  0  0  0  0  0  0  0  0
   62.6650   31.2290   49.0040 C   0  0  0  0  0  0  0  0  0  0  0  0
   59.0820   29.5110   46.8860 C   0  0  0  0  0  0  0  0  0  0  0  0
   58.2220   30.1480   45.9790 C   0  0  0  0  0  0  0  0  0  0  0  0
   58.0950   31.5960   45.7020 C   0  0  0  0  0  0  0  0  0  0  0  0
   58.1450   32.5340   46.7480 C   0  0  0  0  0  0  0  0  0  0  0  0
   58.0260   33.9010   46.4770 C   0  0  0  0  0  0  0  0  0  0  0  0
   57.8430   34.3410   45.1630 C   0  0  0  0  0  0  0  0  0  0  0  0
   57.7740   33.4140   44.1200 C   0  0  0  0  0  0  0  0  0  0  0  0
   57.8940   32.0470   44.3870 C   0  0  0  0  0  0  0  0  0  0  0  0
   57.4160   29.1560   45.4250 C   0  0  0  0  0  0  0  0  0  0  0  0
   57.7520   27.9800   45.9770 N   0  0  0  0  0  0  0  0  0  0  0  0
   58.7280   28.1750   46.8450 C   0  0  0  0  0  0  0  0  0  0  0  0
   59.2770   26.9840   47.5250 C   0  0  0  0  0  0  0  0  0  0  0  0
   58.2930   25.5710   46.8750 S   0  0  0  0  0  0  0  0  0  0  0  0
   57.2760   26.6340   45.7730 C   0  0  0  0  0  0  0  0  0  0  0  0
   61.1450   31.0200   45.9970 H   0  0  0  0  0  0  0  0  0  0  0  0
   62.4345   33.0701   46.1281 H   0  0  0  0  0  0  0  0  0  0  0  0
   64.1908   34.3903   47.3084 H   0  0  0  0  0  0  0  0  0  0  0  0
   64.9692   33.6910   49.5760 H   0  0  0  0  0  0  0  0  0  0  0  0
   64.0072   31.6551   50.6537 H   0  0  0  0  0  0  0  0  0  0  0  0
   62.2490   30.3280   49.4785 H   0  0  0  0  0  0  0  0  0  0  0  0
   58.2784   32.1911   47.7847 H   0  0  0  0  0  0  0  0  0  0  0  0
   58.0765   34.6305   47.2987 H   0  0  0  0  0  0  0  0  0  0  0  0
   57.7534   35.4165   44.9502 H   0  0  0  0  0  0  0  0  0  0  0  0
   57.6250   33.7604   43.0867 H   0  0  0  0  0  0  0  0  0  0  0  0
   57.8307   31.3209   43.5631 H   0  0  0  0  0  0  0  0  0  0  0  0
   56.6366   29.3105   44.6643 H   0  0  0  0  0  0  0  0  0  0  0  0
   60.3426   26.8572   47.2831 H   0  0  0  0  0  0  0  0  0  0  0  0
   59.2109   27.0654   48.6200 H   0  0  0  0  0  0  0  0  0  0  0  0
   57.4096   26.3355   44.7227 H   0  0  0  0  0  0  0  0  0  0  0  0
   56.2036   26.5448   46.0012 H   0  0  0  0  0  0  0  0  0  0  0  0
  1  2  2  0
  2  3  1  0
  3  4  1  0
  4  5  2  0
  5  6  1  0
  6  7  2  0
  7  8  1  0
  8  9  2  0
  2 10  1  0
 10 11  1  0
 11 12  1  0
 12 13  2  0
 13 14  1  0
 14 15  2  0
 15 16  1  0
 16 17  2  0
 11 18  2  0
 18 19  1  0
 19 20  1  0
 20 21  1  0
 21 22  1  0
 22 23  1  0
  9  4  1  0
 20 10  2  0
 17 12  1  0
 23 19  1  0
  3 24  1  0
  5 25  1  0
  6 26  1  0
  7 27  1  0
  8 28  1  0
  9 29  1  0
 13 30  1  0
 14 31  1  0
 15 32  1  0
 16 33  1  0
 17 34  1  0
 18 35  1  0
 21 36  1  0
 21 37  1  0
 23 38  1  0
 23 39  1  0
M  END
>  <UniqueID>  (33) 
30

>  <SMILES>  (33) 
O=C(Nc1ccccc1)c1c(-c2ccccc2)cn2c1CSC2

>  <Energy>  (33) 
85.28541038216554

>  <Genealogy>  (33) 
O=C(Nc1ccccc1)c1c(-c2ccccc2)cn2c1CSC2 (3D coordinates assigned)
O=C(Nc1ccccc1)c1c(-c2ccccc2)cn2c1CSC2 (nonaromatic ring conformer: 85.28541038216554 kcal/mol)

>  <smiles>  (33) 
O=C(Nc1ccccc1)c1c(-c2ccccc2)cn2c1CSC2

>  <score_type>  (33) 
oracle

>  <origin>  (33) 
adg

>  <m_score__min__energy>  (33) 
-7.2400000000000002

>  <m_primary>  (33) 
energy

$$$$
33:0
     RDKit          3D

 39 42  0  0  1  0  0  0  0  0999 V2000
   57.4000   31.9840   51.5610 C   0  0  0  0  0  0  0  0  0  0  0  0
   58.3730   31.5030   50.5380 C   0  0  0  0  0  0  0  0  0  0  0  0
   59.3940   32.3230   50.2220 N   0  0  0  0  0  0  0  0  0  0  0  0
   60.2980   31.9370   49.3050 C   0  0  0  0  0  0  0  0  0  0  0  0
   60.1560   30.7020   48.7060 C   0  0  0  0  0  0  0  0  0  0  0  0
   61.1430   30.5590   47.8650 O   0  0  0  0  0  0  0  0  0  0  0  0
   61.9410   31.5840   47.8390 C   0  0  0  0  0  0  0  0  0  0  0  0
   63.0820   31.8690   47.1250 C   0  0  0  0  0  0  0  0  0  0  0  0
   63.7300   33.0910   47.3270 C   0  0  0  0  0  0  0  0  0  0  0  0
   63.2160   34.0060   48.2460 C   0  0  0  0  0  0  0  0  0  0  0  0
   62.0670   33.6980   48.9540 C   0  0  0  0  0  0  0  0  0  0  0  0
   61.4330   32.4890   48.7480 C   0  0  0  0  0  0  0  0  0  0  0  0
   59.0890   29.8760   49.0530 C   0  0  0  0  0  0  0  0  0  0  0  0
   59.0270   28.7460   48.4520 N   0  0  0  0  0  0  0  0  0  0  0  0
   59.0450   28.7070   47.0310 C   0  0  0  0  0  0  0  0  0  0  0  0
   60.0910   28.1840   46.3000 C   0  0  0  0  0  0  0  0  0  0  0  0
   59.9760   28.2110   44.9290 C   0  0  0  0  0  0  0  0  0  0  0  0
   58.8620   28.7370   44.2810 C   0  0  0  0  0  0  0  0  0  0  0  0
   57.8110   29.2630   45.0210 C   0  0  0  0  0  0  0  0  0  0  0  0
   56.3840   29.9390   44.2680 S   0  0  0  0  0  0  0  0  0  0  0  0
   56.5000   29.7500   42.5570 N   0  0  0  0  0  0  0  0  0  0  0  0
   55.1410   29.3570   44.8230 O   0  0  0  0  0  0  0  0  0  0  0  0
   56.4210   31.4340   44.5460 O   0  0  0  0  0  0  0  0  0  0  0  0
   57.9380   29.2310   46.3850 C   0  0  0  0  0  0  0  0  0  0  0  0
   58.2050   30.2880   49.9700 N   0  0  0  0  0  0  0  0  0  0  0  0
   57.7985   31.7870   52.5672 H   0  0  0  0  0  0  0  0  0  0  0  0
   57.2400   33.0650   51.4351 H   0  0  0  0  0  0  0  0  0  0  0  0
   56.4440   31.4547   51.4351 H   0  0  0  0  0  0  0  0  0  0  0  0
   63.4806   31.1421   46.4020 H   0  0  0  0  0  0  0  0  0  0  0  0
   64.6432   33.3306   46.7625 H   0  0  0  0  0  0  0  0  0  0  0  0
   63.7221   34.9692   48.4076 H   0  0  0  0  0  0  0  0  0  0  0  0
   61.6593   34.4163   49.6805 H   0  0  0  0  0  0  0  0  0  0  0  0
   60.9800   27.7629   46.7923 H   0  0  0  0  0  0  0  0  0  0  0  0
   60.7963   27.8010   44.3215 H   0  0  0  0  0  0  0  0  0  0  0  0
   58.8140   28.7361   43.1820 H   0  0  0  0  0  0  0  0  0  0  0  0
   57.3930   29.2770   42.3070 H   0  0  0  0  0  0  0  0  0  0  0  0
   55.7350   29.1530   42.1860 H   0  0  0  0  0  0  0  0  0  0  0  0
   57.1209   29.6415   46.9964 H   0  0  0  0  0  0  0  0  0  0  0  0
   57.4270   29.6540   50.2050 H   0  0  0  0  0  0  0  0  0  0  0  0
  1  2  1  0
  2  3  2  0
  3  4  1  0
  4  5  2  0
  5  6  1  0
  6  7  1  0
  7  8  2  0
  8  9  1  0
  9 10  2  0
 10 11  1  0
 11 12  2  0
  5 13  1  0
 13 14  2  0
 14 15  1  0
 15 16  2  0
 16 17  1  0
 17 18  2  0
 18 19  1  0
 19 20  1  0
 20 21  1  0
 20 22  2  0
 20 23  2  0
 19 24  2  0
 13 25  1  0
 25  2  1  0
 12  4  1  0
 24 15  1  0
 12  7  1  0
  1 26  1  0
  1 27  1  0
  1 28  1  0
  8 29  1  0
  9 30  1  0
 10 31  1  0
 11 32  1  0
 16 33  1  0
 17 34  1  0
 18 35  1  0
 21 36  1  0
 21 37  1  0
 24 38  1  0
 25 39  1  0
M  END
>  <smiles>  (34) 
Cc1nc2c(oc3ccccc32)c(=Nc2cccc(S(N)(=O)=O)c2)[nH]1

>  <score_type>  (34) 
oracle

>  <origin>  (34) 
adg

>  <m_score__min__energy>  (34) 
-9.3300000000000001

>  <m_primary>  (34) 
energy

$$$$
34:0
     RDKit          3D

 25 27  0  0  0  0  0  0  0  0999 V2000
   55.6414   29.3836   44.9912 H   0  0  0  0  0  0  0  0  0  0  0  0
   56.1910   30.1130   44.3780 C   0  0  0  0  0  0  0  0  0  0  0  0
   56.7770   31.1900   44.9660 N   0  0  0  0  0  0  0  0  0  0  0  0
   57.4680   32.1200   44.2470 C   0  0  0  0  0  0  0  0  0  0  0  0
   58.0260   33.1480   44.8190 N   0  0  0  0  0  0  0  0  0  0  0  0
   58.5200   33.2570   46.1650 C   0  0  0  0  0  0  0  0  0  0  0  0
   59.5520   34.4630   46.7740 S   0  0  0  0  0  0  0  0  0  0  0  0
   59.5570   33.7900   48.3140 C   0  0  0  0  0  0  0  0  0  0  0  0
   60.2210   34.2330   49.4560 C   0  0  0  0  0  0  0  0  0  0  0  0
   60.8466   35.1374   49.4322 H   0  0  0  0  0  0  0  0  0  0  0  0
   60.0680   33.4910   50.6380 C   0  0  0  0  0  0  0  0  0  0  0  0
   60.6970   33.8890   51.7700 F   0  0  0  0  0  0  0  0  0  0  0  0
   59.2620   32.3330   50.6530 C   0  0  0  0  0  0  0  0  0  0  0  0
   59.1479   31.7594   51.5846 H   0  0  0  0  0  0  0  0  0  0  0  0
   58.6040   31.9070   49.4870 C   0  0  0  0  0  0  0  0  0  0  0  0
   57.9761   31.0039   49.4954 H   0  0  0  0  0  0  0  0  0  0  0  0
   58.7630   32.6530   48.3170 C   0  0  0  0  0  0  0  0  0  0  0  0
   58.1870   32.3580   47.1230 N   0  0  0  0  0  0  0  0  0  0  0  0
   57.5620   31.5370   46.9590 H   0  0  0  0  0  0  0  0  0  0  0  0
   57.5820   31.9670   42.8590 C   0  0  0  0  0  0  0  0  0  0  0  0
   58.1366   32.7078   42.2643 H   0  0  0  0  0  0  0  0  0  0  0  0
   56.9870   30.8680   42.2350 C   0  0  0  0  0  0  0  0  0  0  0  0
   57.0705   30.7403   41.1456 H   0  0  0  0  0  0  0  0  0  0  0  0
   56.2860   29.9320   42.9980 C   0  0  0  0  0  0  0  0  0  0  0  0
   55.8144   29.0625   42.5168 H   0  0  0  0  0  0  0  0  0  0  0  0
  1  2  1  0
  2  3  1  0
  3  4  1  0
  4  5  2  0
  5  6  1  0
  6  7  1  0
  7  8  1  0
  8  9  2  0
  9 10  1  0
  9 11  1  0
 11 12  1  0
 11 13  2  0
 13 14  1  0
 13 15  1  0
 15 16  1  0
 15 17  2  0
 17 18  1  0
 18 19  1  0
  4 20  1  0
 20 21  1  0
 20 22  2  0
 22 23  1  0
 22 24  1  0
 24 25  1  0
 24  2  2  0
 18  6  2  0
 17  8  1  0
M  CHG  2   3  -1  18   1
M  END
>  <UniqueID>  (35) 
31

>  <SMILES>  (35) 
Fc1ccc2[nH+]c(/N=c3/cccc[n-]3)sc2c1

>  <Energy>  (35) 
67.05258023346242

>  <Genealogy>  (35) 
Fc1ccc2[nH+]c(N=c3cccc[n-]3)sc2c1 (protonated)
Fc1ccc2[nH+]c(/N=c3/cccc[n-]3)sc2c1 (cis-trans isomerization)
Fc1ccc2[nH+]c(/N=c3/cccc[n-]3)sc2c1 (3D coordinates assigned)
Fc1ccc2[nH+]c(/N=c3/cccc[n-]3)sc2c1 (optimized conformer: 67.05258023346242 kcal/mol)

>  <smiles>  (35) 
Fc1ccc2nc(N=c3cccc[nH]3)sc2c1

>  <score_type>  (35) 
oracle

>  <origin>  (35) 
adg

>  <m_score__min__energy>  (35) 
-5.3700000000000001

>  <m_primary>  (35) 
energy

$$$$
35:0
     RDKit          3D

 60 63  0  0  0  0  0  0  0  0999 V2000
   57.5470   28.3970   43.6600 N   0  0  0  0  0  0  0  0  0  0  0  0
   56.4950   29.7460   43.9210 S   0  0  0  0  0  0  0  0  0  0  0  0
   55.3730   29.3380   44.8340 O   0  0  0  0  0  0  0  0  0  0  0  0
   55.9110   30.1880   42.6070 O   0  0  0  0  0  0  0  0  0  0  0  0
   57.4060   31.0670   44.6470 C   0  0  0  0  0  0  0  0  0  0  0  0
   57.7570   31.0190   46.0020 C   0  0  0  0  0  0  0  0  0  0  0  0
   58.4370   32.0900   46.5900 C   0  0  0  0  0  0  0  0  0  0  0  0
   58.7690   33.2180   45.8290 C   0  0  0  0  0  0  0  0  0  0  0  0
   59.5230   34.6060   46.6070 S   0  0  0  0  0  0  0  0  0  0  0  0
   58.5310   35.3000   47.4970 O   0  0  0  0  0  0  0  0  0  0  0  0
   60.0080   35.5840   45.5720 O   0  0  0  0  0  0  0  0  0  0  0  0
   60.8520   34.0490   47.5620 N   0  0  0  0  0  0  0  0  0  0  0  0
   60.6320   33.4980   48.8600 C   0  0  0  0  0  0  0  0  0  0  0  0
   59.7420   34.1290   49.7390 C   0  0  0  0  0  0  0  0  0  0  0  0
   59.5110   33.5940   51.0100 C   0  0  0  0  0  0  0  0  0  0  0  0
   60.1710   32.4260   51.4090 C   0  0  0  0  0  0  0  0  0  0  0  0
   61.0630   31.7940   50.5380 C   0  0  0  0  0  0  0  0  0  0  0  0
   61.2960   32.3210   49.2600 C   0  0  0  0  0  0  0  0  0  0  0  0
   62.4810   31.5090   48.1730 S   0  0  0  0  0  0  0  0  0  0  0  0
   61.3350   31.3480   46.7600 C   0  0  0  0  0  0  0  0  0  0  0  0
   60.8070   29.9440   46.6520 C   0  0  0  0  0  0  0  0  0  0  0  0
   60.7500   29.2990   45.4070 C   0  0  0  0  0  0  0  0  0  0  0  0
   60.3010   27.9800   45.3160 C   0  0  0  0  0  0  0  0  0  0  0  0
   59.9100   27.2790   46.4690 C   0  0  0  0  0  0  0  0  0  0  0  0
   59.4150   25.8870   46.3730 C   0  0  0  0  0  0  0  0  0  0  0  0
   60.2330   24.9480   46.1770 O   0  0  0  0  0  0  0  0  0  0  0  0
   58.0210   25.5790   46.5160 N   0  0  0  0  0  0  0  0  0  0  0  0
   57.0150   26.2980   45.7290 C   0  0  0  0  0  0  0  0  0  0  0  0
   55.8230   25.3720   45.4600 C   0  0  0  0  0  0  0  0  0  0  0  0
   55.3450   24.8110   46.6710 O   0  0  0  0  0  0  0  0  0  0  0  0
   56.3270   23.9540   47.2220 C   0  0  0  0  0  0  0  0  0  0  0  0
   57.5760   24.7460   47.6320 C   0  0  0  0  0  0  0  0  0  0  0  0
   59.9590   27.9290   47.7140 C   0  0  0  0  0  0  0  0  0  0  0  0
   60.4070   29.2500   47.8040 C   0  0  0  0  0  0  0  0  0  0  0  0
   58.4130   33.2680   44.4740 C   0  0  0  0  0  0  0  0  0  0  0  0
   57.7370   32.1960   43.8850 C   0  0  0  0  0  0  0  0  0  0  0  0
   58.2310   28.6830   42.9230 H   0  0  0  0  0  0  0  0  0  0  0  0
   56.9650   27.6310   43.2510 H   0  0  0  0  0  0  0  0  0  0  0  0
   57.4971   30.1366   46.6051 H   0  0  0  0  0  0  0  0  0  0  0  0
   58.7122   32.0465   47.6541 H   0  0  0  0  0  0  0  0  0  0  0  0
   59.2234   35.0480   49.4283 H   0  0  0  0  0  0  0  0  0  0  0  0
   58.8102   34.0913   51.6967 H   0  0  0  0  0  0  0  0  0  0  0  0
   59.9876   32.0052   52.4086 H   0  0  0  0  0  0  0  0  0  0  0  0
   61.5843   30.8793   50.8567 H   0  0  0  0  0  0  0  0  0  0  0  0
   60.4914   32.0398   46.9003 H   0  0  0  0  0  0  0  0  0  0  0  0
   61.8814   31.5891   45.8362 H   0  0  0  0  0  0  0  0  0  0  0  0
   61.0606   29.8352   44.4982 H   0  0  0  0  0  0  0  0  0  0  0  0
   60.2531   27.4861   44.3343 H   0  0  0  0  0  0  0  0  0  0  0  0
   56.6744   27.1819   46.2881 H   0  0  0  0  0  0  0  0  0  0  0  0
   57.4554   26.6177   44.7731 H   0  0  0  0  0  0  0  0  0  0  0  0
   55.0160   25.9497   44.9857 H   0  0  0  0  0  0  0  0  0  0  0  0
   56.1486   24.5579   44.7957 H   0  0  0  0  0  0  0  0  0  0  0  0
   55.9112   23.4526   48.1084 H   0  0  0  0  0  0  0  0  0  0  0  0
   56.6142   23.2131   46.4614 H   0  0  0  0  0  0  0  0  0  0  0  0
   57.3360   25.3868   48.4933 H   0  0  0  0  0  0  0  0  0  0  0  0
   58.3782   24.0446   47.9049 H   0  0  0  0  0  0  0  0  0  0  0  0
   59.6431   27.3954   48.6225 H   0  0  0  0  0  0  0  0  0  0  0  0
   60.4462   29.7485   48.7838 H   0  0  0  0  0  0  0  0  0  0  0  0
   58.6665   34.1535   43.8727 H   0  0  0  0  0  0  0  0  0  0  0  0
   57.4639   32.2383   42.8203 H   0  0  0  0  0  0  0  0  0  0  0  0
  1  2  1  0
  2  3  2  0
  2  4  2  0
  2  5  1  0
  5  6  2  0
  6  7  1  0
  7  8  2  0
  8  9  1  0
  9 10  2  0
  9 11  2  0
  9 12  1  0
 12 13  1  0
 13 14  2  0
 14 15  1  0
 15 16  2  0
 16 17  1  0
 17 18  2  0
 18 19  1  0
 19 20  1  0
 20 21  1  0
 21 22  2  0
 22 23  1  0
 23 24  2  0
 24 25  1  0
 25 26  2  0
 25 27  1  0
 27 28  1  0
 28 29  1  0
 29 30  1  0
 30 31  1  0
 31 32  1  0
 24 33  1  0
 33 34  2  0
  8 35  1  0
 35 36  2  0
 36  5  1  0
 18 13  1  0
 34 21  1  0
 32 27  1  0
  1 37  1  0
  1 38  1  0
  6 39  1  0
  7 40  1  0
 14 41  1  0
 15 42  1  0
 16 43  1  0
 17 44  1  0
 20 45  1  0
 20 46  1  0
 22 47  1  0
 23 48  1  0
 28 49  1  0
 28 50  1  0
 29 51  1  0
 29 52  1  0
 31 53  1  0
 31 54  1  0
 32 55  1  0
 32 56  1  0
 33 57  1  0
 34 58  1  0
 35 59  1  0
 36 60  1  0
M  CHG  1  12  -1
M  END
>  <UniqueID>  (36) 
32

>  <SMILES>  (36) 
NS(=O)(=O)c1ccc(S(=O)(=O)[N-]c2ccccc2SCc2ccc(C(=O)N3CCOCC3)cc2)cc1

>  <Energy>  (36) 
70.47962293926022

>  <Genealogy>  (36) 
NS(=O)(=O)c1ccc(S(=O)(=O)[N-]c2ccccc2SCc2ccc(C(=O)N3CCOCC3)cc2)cc1 (protonated)
NS(=O)(=O)c1ccc(S(=O)(=O)[N-]c2ccccc2SCc2ccc(C(=O)N3CCOCC3)cc2)cc1 (3D coordinates assigned)
NS(=O)(=O)c1ccc(S(=O)(=O)[N-]c2ccccc2SCc2ccc(C(=O)N3CCOCC3)cc2)cc1 (nonaromatic ring conformer: 70.47962293926022 kcal/mol)

>  <smiles>  (36) 
NS(=O)(=O)c1ccc(S(=O)(=O)Nc2ccccc2SCc2ccc(C(=O)N3CCOCC3)cc2)cc1

>  <score_type>  (36) 
oracle

>  <origin>  (36) 
adg

>  <m_score__min__energy>  (36) 
-12.279999999999999

>  <m_primary>  (36) 
energy

$$$$
36:0
     RDKit          3D

 38 40  0  0  0  0  0  0  0  0999 V2000
   57.9830   32.0560   43.0160 O   0  0  0  0  0  0  0  0  0  0  0  0
   57.4890   31.9030   44.1640 C   0  0  0  0  0  0  0  0  0  0  0  0
   57.3900   33.0520   45.0180 N   0  0  0  0  0  0  0  0  0  0  0  0
   57.5760   33.1000   46.4670 C   0  0  0  0  0  0  0  0  0  0  0  0
   58.6050   34.1650   46.8680 C   0  0  0  0  0  0  0  0  0  0  0  0
   59.9580   33.5540   47.1370 C   0  0  0  0  0  0  0  0  0  0  0  0
   61.1120   34.1260   46.5730 C   0  0  0  0  0  0  0  0  0  0  0  0
   62.3660   33.5490   46.7950 C   0  0  0  0  0  0  0  0  0  0  0  0
   63.4740   34.1080   46.2500 F   0  0  0  0  0  0  0  0  0  0  0  0
   62.4780   32.3950   47.5740 C   0  0  0  0  0  0  0  0  0  0  0  0
   61.3360   31.8150   48.1320 C   0  0  0  0  0  0  0  0  0  0  0  0
   60.0780   32.3870   47.9140 C   0  0  0  0  0  0  0  0  0  0  0  0
   58.9800   31.8020   48.4570 F   0  0  0  0  0  0  0  0  0  0  0  0
   57.0430   30.5530   44.5680 C   0  0  0  0  0  0  0  0  0  0  0  0
   57.8740   29.4800   44.8220 C   0  0  0  0  0  0  0  0  0  0  0  0
   57.0130   28.4640   45.1950 C   0  0  0  0  0  0  0  0  0  0  0  0
   57.3760   27.0870   45.6120 C   0  0  0  0  0  0  0  0  0  0  0  0
   58.7300   26.7040   45.5860 C   0  0  0  0  0  0  0  0  0  0  0  0
   59.1120   25.4130   45.9580 C   0  0  0  0  0  0  0  0  0  0  0  0
   58.1510   24.4900   46.3690 C   0  0  0  0  0  0  0  0  0  0  0  0
   56.8040   24.8580   46.4160 C   0  0  0  0  0  0  0  0  0  0  0  0
   56.4090   26.1530   46.0500 C   0  0  0  0  0  0  0  0  0  0  0  0
   55.0650   26.5110   46.1470 O   0  0  0  0  0  0  0  0  0  0  0  0
   55.7480   28.9270   45.1800 N   0  0  0  0  0  0  0  0  0  0  0  0
   55.7660   30.1950   44.7980 N   0  0  0  0  0  0  0  0  0  0  0  0
   56.6130   33.3366   46.9431 H   0  0  0  0  0  0  0  0  0  0  0  0
   57.9475   32.1194   46.7994 H   0  0  0  0  0  0  0  0  0  0  0  0
   58.6991   34.8962   46.0516 H   0  0  0  0  0  0  0  0  0  0  0  0
   58.2564   34.6510   47.7912 H   0  0  0  0  0  0  0  0  0  0  0  0
   61.0278   35.0316   45.9543 H   0  0  0  0  0  0  0  0  0  0  0  0
   63.4655   31.9428   47.7482 H   0  0  0  0  0  0  0  0  0  0  0  0
   61.4263   30.9058   48.7446 H   0  0  0  0  0  0  0  0  0  0  0  0
   58.9707   29.4419   44.7452 H   0  0  0  0  0  0  0  0  0  0  0  0
   59.4949   27.4284   45.2696 H   0  0  0  0  0  0  0  0  0  0  0  0
   60.1729   25.1239   45.9267 H   0  0  0  0  0  0  0  0  0  0  0  0
   58.4534   23.4721   46.6562 H   0  0  0  0  0  0  0  0  0  0  0  0
   56.0488   24.1277   46.7420 H   0  0  0  0  0  0  0  0  0  0  0  0
   54.7790   27.4670   46.3230 H   0  0  0  0  0  0  0  0  0  0  0  0
  1  2  2  0
  2  3  1  0
  3  4  1  0
  4  5  1  0
  5  6  1  0
  6  7  2  0
  7  8  1  0
  8  9  1  0
  8 10  2  0
 10 11  1  0
 11 12  2  0
 12 13  1  0
  2 14  1  0
 14 15  2  0
 15 16  1  0
 16 17  1  0
 17 18  2  0
 18 19  1  0
 19 20  2  0
 20 21  1  0
 21 22  2  0
 22 23  1  0
 16 24  2  0
 24 25  1  0
 12  6  1  0
 25 14  1  0
 22 17  1  0
  4 26  1  0
  4 27  1  0
  5 28  1  0
  5 29  1  0
  7 30  1  0
 10 31  1  0
 11 32  1  0
 15 33  1  0
 18 34  1  0
 19 35  1  0
 20 36  1  0
 21 37  1  0
 23 38  1  0
M  CHG  2   3  -1  25  -1
M  END
>  <UniqueID>  (37) 
33

>  <SMILES>  (37) 
O=C([N-]CCc1cc(F)ccc1F)c1cc(-c2ccccc2O)n[n-]1

>  <Energy>  (37) 
71.83646068036718

>  <Genealogy>  (37) 
O=C([N-]CCc1cc(F)ccc1F)c1cc(-c2ccccc2O)n[n-]1 (protonated)
O=C([N-]CCc1cc(F)ccc1F)c1cc(-c2ccccc2O)n[n-]1 (3D coordinates assigned)
O=C([N-]CCc1cc(F)ccc1F)c1cc(-c2ccccc2O)n[n-]1 (optimized conformer: 71.83646068036718 kcal/mol)

>  <smiles>  (37) 
O=C(NCCc1cc(F)ccc1F)c1cc(-c2ccccc2O)n[nH]1

>  <score_type>  (37) 
oracle

>  <origin>  (37) 
adg

>  <m_score__min__energy>  (37) 
-12.210000000000001

>  <m_primary>  (37) 
energy

$$$$
37:0
     RDKit          3D

 39 41  0  0  0  0  0  0  0  0999 V2000
   56.2900   30.1030   42.7430 C   0  0  0  0  0  0  0  0  0  0  0  0
   56.9400   29.8920   44.0830 C   0  0  0  0  0  0  0  0  0  0  0  0
   57.0080   28.5870   44.5990 C   0  0  0  0  0  0  0  0  0  0  0  0
   57.6690   28.3220   45.8080 C   0  0  0  0  0  0  0  0  0  0  0  0
   57.7040   26.9750   46.3120 N   0  0  0  0  0  0  0  0  0  0  0  0
   56.5960   26.0620   46.2340 C   0  0  0  0  0  0  0  0  0  0  0  0
   55.4330   26.4950   46.0060 O   0  0  0  0  0  0  0  0  0  0  0  0
   56.7940   24.6180   46.4580 C   0  0  0  0  0  0  0  0  0  0  0  0
   56.8020   23.6150   45.5080 C   0  0  0  0  0  0  0  0  0  0  0  0
   57.0070   22.4450   46.2090 C   0  0  0  0  0  0  0  0  0  0  0  0
   57.1170   22.7050   47.4920 O   0  0  0  0  0  0  0  0  0  0  0  0
   56.9920   23.9990   47.6770 C   0  0  0  0  0  0  0  0  0  0  0  0
   58.2390   29.3850   46.5240 C   0  0  0  0  0  0  0  0  0  0  0  0
   58.1580   30.6890   46.0320 C   0  0  0  0  0  0  0  0  0  0  0  0
   57.4860   30.9620   44.8360 C   0  0  0  0  0  0  0  0  0  0  0  0
   57.4020   32.3270   44.4050 N   0  0  0  0  0  0  0  0  0  0  0  0
   57.5120   33.4840   45.2470 C   0  0  0  0  0  0  0  0  0  0  0  0
   56.6030   34.3550   45.1910 O   0  0  0  0  0  0  0  0  0  0  0  0
   58.6650   33.6980   46.1530 C   0  0  0  0  0  0  0  0  0  0  0  0
   59.9350   33.9790   45.6170 C   0  0  0  0  0  0  0  0  0  0  0  0
   61.0290   34.1860   46.4620 C   0  0  0  0  0  0  0  0  0  0  0  0
   60.8700   34.1040   47.8470 C   0  0  0  0  0  0  0  0  0  0  0  0
   59.6180   33.8060   48.3890 C   0  0  0  0  0  0  0  0  0  0  0  0
   58.5210   33.5970   47.5490 C   0  0  0  0  0  0  0  0  0  0  0  0
   55.2528   30.4397   42.8875 H   0  0  0  0  0  0  0  0  0  0  0  0
   56.8482   30.8661   42.1808 H   0  0  0  0  0  0  0  0  0  0  0  0
   56.2936   29.1575   42.1808 H   0  0  0  0  0  0  0  0  0  0  0  0
   56.5361   27.7608   44.0470 H   0  0  0  0  0  0  0  0  0  0  0  0
   58.5480   26.6800   46.8510 H   0  0  0  0  0  0  0  0  0  0  0  0
   56.6722   23.7261   44.4213 H   0  0  0  0  0  0  0  0  0  0  0  0
   57.0692   21.4426   45.7602 H   0  0  0  0  0  0  0  0  0  0  0  0
   57.0378   24.5100   48.6500 H   0  0  0  0  0  0  0  0  0  0  0  0
   58.7521   29.1903   47.4773 H   0  0  0  0  0  0  0  0  0  0  0  0
   58.6281   31.5113   46.5914 H   0  0  0  0  0  0  0  0  0  0  0  0
   60.0678   34.0361   44.5265 H   0  0  0  0  0  0  0  0  0  0  0  0
   62.0169   34.4139   46.0353 H   0  0  0  0  0  0  0  0  0  0  0  0
   61.7306   34.2741   48.5107 H   0  0  0  0  0  0  0  0  0  0  0  0
   59.4950   33.7356   49.4798 H   0  0  0  0  0  0  0  0  0  0  0  0
   57.5396   33.3522   47.9814 H   0  0  0  0  0  0  0  0  0  0  0  0
  1  2  1  0
  2  3  2  0
  3  4  1  0
  4  5  1  0
  5  6  1  0
  6  7  2  0
  6  8  1  0
  8  9  1  0
  9 10  2  0
 10 11  1  0
 11 12  1  0
  4 13  2  0
 13 14  1  0
 14 15  2  0
 15 16  1  0
 16 17  1  0
 17 18  2  0
 17 19  1  0
 19 20  2  0
 20 21  1  0
 21 22  2  0
 22 23  1  0
 23 24  2  0
 15  2  1  0
 24 19  1  0
 12  8  2  0
  1 25  1  0
  1 26  1  0
  1 27  1  0
  3 28  1  0
  5 29  1  0
  9 30  1  0
 10 31  1  0
 12 32  1  0
 13 33  1  0
 14 34  1  0
 20 35  1  0
 21 36  1  0
 22 37  1  0
 23 38  1  0
 24 39  1  0
M  CHG  1  16  -1
M  END
>  <UniqueID>  (38) 
34

>  <SMILES>  (38) 
Cc1cc(NC(=O)c2ccoc2)ccc1[N-]C(=O)c1ccccc1

>  <Energy>  (38) 
80.69144221851484

>  <Genealogy>  (38) 
Cc1cc(NC(=O)c2ccoc2)ccc1[N-]C(=O)c1ccccc1 (protonated)
Cc1cc(NC(=O)c2ccoc2)ccc1[N-]C(=O)c1ccccc1 (3D coordinates assigned)
Cc1cc(NC(=O)c2ccoc2)ccc1[N-]C(=O)c1ccccc1 (optimized conformer: 80.69144221851484 kcal/mol)

>  <smiles>  (38) 
Cc1cc(NC(=O)c2ccoc2)ccc1NC(=O)c1ccccc1

>  <score_type>  (38) 
oracle

>  <origin>  (38) 
adg

>  <m_score__min__energy>  (38) 
-9.1199999999999992

>  <m_primary>  (38) 
energy

$$$$
38:0
     RDKit          3D

 35 36  0  0  0  0  0  0  0  0999 V2000
   55.5170   29.1260   44.8370 N   0  0  0  0  0  0  0  0  0  0  0  0
   56.6370   29.4360   44.2590 C   0  0  0  0  0  0  0  0  0  0  0  0
   57.1840   28.5380   43.2900 N   0  0  0  0  0  0  0  0  0  0  0  0
   57.3390   30.7030   44.5850 C   0  0  0  0  0  0  0  0  0  0  0  0
   57.1370   31.8570   43.8070 C   0  0  0  0  0  0  0  0  0  0  0  0
   57.7880   33.0500   44.1310 C   0  0  0  0  0  0  0  0  0  0  0  0
   58.6530   33.1040   45.2250 C   0  0  0  0  0  0  0  0  0  0  0  0
   58.8840   31.9550   46.0000 C   0  0  0  0  0  0  0  0  0  0  0  0
   59.7490   31.9700   47.1460 N   0  0  0  0  0  0  0  0  0  0  0  0
   60.9340   31.1860   47.3410 C   0  0  0  0  0  0  0  0  0  0  0  0
   62.0730   31.6960   47.1700 O   0  0  0  0  0  0  0  0  0  0  0  0
   60.8430   29.8140   47.7400 N   0  0  0  0  0  0  0  0  0  0  0  0
   59.8910   28.8540   47.2590 C   0  0  0  0  0  0  0  0  0  0  0  0
   58.8040   28.4280   48.0430 C   0  0  0  0  0  0  0  0  0  0  0  0
   57.8840   27.5080   47.5310 C   0  0  0  0  0  0  0  0  0  0  0  0
   58.0310   27.0120   46.2300 C   0  0  0  0  0  0  0  0  0  0  0  0
   56.8650   25.8610   45.5870 S   0  0  0  0  0  0  0  0  0  0  0  0
   55.2580   26.3940   45.9380 N   0  0  0  0  0  0  0  0  0  0  0  0
   57.0740   24.5130   46.2160 O   0  0  0  0  0  0  0  0  0  0  0  0
   57.0420   25.7510   44.0990 O   0  0  0  0  0  0  0  0  0  0  0  0
   59.0940   27.4610   45.4360 C   0  0  0  0  0  0  0  0  0  0  0  0
   60.0140   28.3830   45.9470 C   0  0  0  0  0  0  0  0  0  0  0  0
   58.2080   30.7690   45.6880 C   0  0  0  0  0  0  0  0  0  0  0  0
   55.1510   28.1500   44.8750 H   0  0  0  0  0  0  0  0  0  0  0  0
   58.1250   28.7040   42.8680 H   0  0  0  0  0  0  0  0  0  0  0  0
   56.6710   27.6670   43.0290 H   0  0  0  0  0  0  0  0  0  0  0  0
   56.4628   31.8202   42.9386 H   0  0  0  0  0  0  0  0  0  0  0  0
   57.6182   33.9499   43.5217 H   0  0  0  0  0  0  0  0  0  0  0  0
   59.1552   34.0486   45.4811 H   0  0  0  0  0  0  0  0  0  0  0  0
   58.6771   28.8201   49.0629 H   0  0  0  0  0  0  0  0  0  0  0  0
   57.0411   27.1725   48.1530 H   0  0  0  0  0  0  0  0  0  0  0  0
   55.2890   27.4360   46.0010 H   0  0  0  0  0  0  0  0  0  0  0  0
   59.2059   27.0875   44.4074 H   0  0  0  0  0  0  0  0  0  0  0  0
   60.8393   28.7399   45.3134 H   0  0  0  0  0  0  0  0  0  0  0  0
   58.3590   29.8773   46.3142 H   0  0  0  0  0  0  0  0  0  0  0  0
  1  2  2  3
  2  3  1  0
  2  4  1  0
  4  5  2  0
  5  6  1  0
  6  7  2  0
  7  8  1  0
  8  9  1  0
  9 10  1  0
 10 11  2  0
 10 12  1  0
 12 13  1  0
 13 14  2  0
 14 15  1  0
 15 16  2  0
 16 17  1  0
 17 18  1  0
 17 19  2  0
 17 20  2  0
 16 21  1  0
 21 22  2  0
  8 23  2  0
 23  4  1  0
 22 13  1  0
  1 24  1  0
  3 25  1  0
  3 26  1  0
  5 27  1  0
  6 28  1  0
  7 29  1  0
 14 30  1  0
 15 31  1  0
 18 32  1  0
 21 33  1  0
 22 34  1  0
 23 35  1  0
M  CHG  3   9  -1  12  -1  18  -1
M  END
>  <UniqueID>  (39) 
35

>  <SMILES>  (39) 
N=C(N)c1cccc([N-]C(=O)[N-]c2ccc(S([NH-])(=O)=O)cc2)c1

>  <Energy>  (39) 
44.67889624541341

>  <Genealogy>  (39) 
N=C(N)c1cccc([N-]C(=O)[N-]c2ccc(S([NH-])(=O)=O)cc2)c1 (protonated)
N=C(N)c1cccc([N-]C(=O)[N-]c2ccc(S([NH-])(=O)=O)cc2)c1 (3D coordinates assigned)
N=C(N)c1cccc([N-]C(=O)[N-]c2ccc(S([NH-])(=O)=O)cc2)c1 (optimized conformer: 44.67889624541341 kcal/mol)

>  <smiles>  (39) 
N=C(N)c1cccc(NC(=O)Nc2ccc(S(N)(=O)=O)cc2)c1

>  <score_type>  (39) 
oracle

>  <origin>  (39) 
adg

>  <m_score__min__energy>  (39) 
-12.109999999999999

>  <m_primary>  (39) 
energy

$$$$
39:0
     RDKit          3D

 25 26  0  0  0  0  0  0  0  0999 V2000
   54.2910   24.7620   45.7910 H   0  0  0  0  0  0  0  0  0  0  0  0
   54.7210   24.1480   46.5200 N   0  0  0  0  0  0  0  0  0  0  0  0
   56.8980   25.1770   46.2740 C   0  0  0  0  0  0  0  0  0  0  0  0
   56.5700   22.9410   47.3750 C   0  0  0  0  0  0  0  0  0  0  0  0
   57.0250   22.0320   47.9270 N   0  0  0  0  0  0  0  0  0  0  0  0
   56.5140   26.4260   45.9590 C   0  0  0  0  0  0  0  0  0  0  0  0
   57.9741   24.9555   46.2200 H   0  0  0  0  0  0  0  0  0  0  0  0
   56.0030   24.0730   46.6870 C   0  0  0  0  0  0  0  0  0  0  0  0
   55.1540   26.7290   46.0180 O   0  0  0  0  0  0  0  0  0  0  0  0
   54.5540   26.3280   46.7290 H   0  0  0  0  0  0  0  0  0  0  0  0
   57.4550   27.4940   45.5620 C   0  0  0  0  0  0  0  0  0  0  0  0
   58.8420   27.3960   45.5450 C   0  0  0  0  0  0  0  0  0  0  0  0
   59.4132   26.5191   45.8838 H   0  0  0  0  0  0  0  0  0  0  0  0
   59.3900   28.5310   45.0530 N   0  0  0  0  0  0  0  0  0  0  0  0
   60.4080   28.7280   44.9240 H   0  0  0  0  0  0  0  0  0  0  0  0
   58.3600   29.3350   44.7370 C   0  0  0  0  0  0  0  0  0  0  0  0
   58.4260   30.6030   44.1590 C   0  0  0  0  0  0  0  0  0  0  0  0
   59.3942   31.0766   43.9392 H   0  0  0  0  0  0  0  0  0  0  0  0
   57.2150   31.2570   43.8660 C   0  0  0  0  0  0  0  0  0  0  0  0
   57.2306   32.2615   43.4179 H   0  0  0  0  0  0  0  0  0  0  0  0
   55.9790   30.6310   44.1440 C   0  0  0  0  0  0  0  0  0  0  0  0
   55.0385   31.1494   43.9058 H   0  0  0  0  0  0  0  0  0  0  0  0
   55.9430   29.3500   44.7230 C   0  0  0  0  0  0  0  0  0  0  0  0
   54.9866   28.8491   44.9337 H   0  0  0  0  0  0  0  0  0  0  0  0
   57.1600   28.7340   45.0220 C   0  0  0  0  0  0  0  0  0  0  0  0
  1  2  1  0
  2  3  2  0
  3  4  1  0
  4  5  3  0
  3  6  1  0
  6  7  1  0
  6  8  2  0
  8  9  1  0
  9 10  1  0
  8 11  1  0
 11 12  2  0
 12 13  1  0
 12 14  1  0
 14 15  1  0
 14 16  1  0
 16 17  2  0
 17 18  1  0
 17 19  1  0
 19 20  1  0
 19 21  2  0
 21 22  1  0
 21 23  1  0
 23 24  1  0
 23 25  2  0
 25 11  1  0
 25 16  1  0
M  END
>  <UniqueID>  (40) 
36

>  <SMILES>  (40) 
[H]/N=C(C#N)/C=C(/O)c1c[nH]c2ccccc12

>  <Energy>  (40) 
64.76731866235959

>  <Genealogy>  (40) 
[H]/N=C(C#N)/C=C(/O)c1c[nH]c2ccccc12 (cis-trans isomerization)
[H]/N=C(C#N)/C=C(/O)c1c[nH]c2ccccc12 (3D coordinates assigned)
[H]/N=C(C#N)/C=C(/O)c1c[nH]c2ccccc12 (optimized conformer: 64.76731866235959 kcal/mol)

>  <smiles>  (40) 
N#CC(=N)C=C(O)c1c[nH]c2ccccc12

>  <score_type>  (40) 
oracle

>  <origin>  (40) 
adg

>  <m_score__min__energy>  (40) 
-7.3499999999999996

>  <m_primary>  (40) 
energy

$$$$
40:0
     RDKit          3D

 29 30  0  0  0  0  0  0  0  0999 V2000
   57.2790   33.8910   45.6470 C   0  0  0  0  0  0  0  0  0  0  0  0
   58.1470   33.0140   44.7520 C   0  0  0  0  0  0  0  0  0  0  0  0
   57.5900   31.6290   44.6750 C   0  0  0  0  0  0  0  0  0  0  0  0
   56.2850   31.3360   44.8650 N   0  0  0  0  0  0  0  0  0  0  0  0
   56.0220   30.0310   44.8130 N   0  0  0  0  0  0  0  0  0  0  0  0
   57.1220   29.2790   44.5910 C   0  0  0  0  0  0  0  0  0  0  0  0
   57.0730   27.9840   44.5180 N   0  0  0  0  0  0  0  0  0  0  0  0
   56.8660   26.9360   45.8850 S   0  0  0  0  0  0  0  0  0  0  0  0
   55.4030   26.6400   46.0600 O   0  0  0  0  0  0  0  0  0  0  0  0
   57.3770   27.6270   47.1170 O   0  0  0  0  0  0  0  0  0  0  0  0
   57.7760   25.4460   45.6470 C   0  0  0  0  0  0  0  0  0  0  0  0
   57.1800   24.3630   44.9870 C   0  0  0  0  0  0  0  0  0  0  0  0
   57.8910   23.1720   44.8060 C   0  0  0  0  0  0  0  0  0  0  0  0
   59.2060   23.0560   45.2790 C   0  0  0  0  0  0  0  0  0  0  0  0
   59.9320   21.8390   45.0950 N   0  0  0  0  0  0  0  0  0  0  0  0
   59.8020   24.1420   45.9340 C   0  0  0  0  0  0  0  0  0  0  0  0
   59.0910   25.3320   46.1160 C   0  0  0  0  0  0  0  0  0  0  0  0
   58.5100   30.2330   44.4480 S   0  0  0  0  0  0  0  0  0  0  0  0
   57.4986   33.6692   46.7018 H   0  0  0  0  0  0  0  0  0  0  0  0
   57.4944   34.9502   45.4425 H   0  0  0  0  0  0  0  0  0  0  0  0
   56.2177   33.6865   45.4425 H   0  0  0  0  0  0  0  0  0  0  0  0
   58.1788   33.4478   43.7416 H   0  0  0  0  0  0  0  0  0  0  0  0
   59.1605   32.9661   45.1769 H   0  0  0  0  0  0  0  0  0  0  0  0
   56.1502   24.4497   44.6102 H   0  0  0  0  0  0  0  0  0  0  0  0
   57.4169   22.3235   44.2909 H   0  0  0  0  0  0  0  0  0  0  0  0
   59.4730   20.9140   45.2510 H   0  0  0  0  0  0  0  0  0  0  0  0
   60.9350   21.8540   44.8010 H   0  0  0  0  0  0  0  0  0  0  0  0
   60.8336   24.0579   46.3065 H   0  0  0  0  0  0  0  0  0  0  0  0
   59.5657   26.1814   46.6291 H   0  0  0  0  0  0  0  0  0  0  0  0
  1  2  1  0
  2  3  1  0
  3  4  2  0
  4  5  1  0
  5  6  1  0
  6  7  2  3
  7  8  1  0
  8  9  2  0
  8 10  2  0
  8 11  1  0
 11 12  2  0
 12 13  1  0
 13 14  2  0
 14 15  1  0
 14 16  1  0
 16 17  2  0
  6 18  1  0
 18  3  1  0
 17 11  1  0
  1 19  1  0
  1 20  1  0
  1 21  1  0
  2 22  1  0
  2 23  1  0
 12 24  1  0
 13 25  1  0
 15 26  1  0
 15 27  1  0
 16 28  1  0
 17 29  1  0
M  CHG  1   5  -1
M  END
>  <UniqueID>  (41) 
37

>  <SMILES>  (41) 
CCc1n[n-]c(=NS(=O)(=O)c2ccc(N)cc2)s1

>  <Energy>  (41) 
61.49599219258952

>  <Genealogy>  (41) 
CCc1n[n-]c(=NS(=O)(=O)c2ccc(N)cc2)s1 (protonated)
CCc1n[n-]c(=NS(=O)(=O)c2ccc(N)cc2)s1 (3D coordinates assigned)
CCc1n[n-]c(=NS(=O)(=O)c2ccc(N)cc2)s1 (optimized conformer: 61.49599219258952 kcal/mol)

>  <smiles>  (41) 
CCc1n[nH]c(=NS(=O)(=O)c2ccc(N)cc2)s1

>  <score_type>  (41) 
oracle

>  <origin>  (41) 
adg

>  <m_score__min__energy>  (41) 
-9.0299999999999994

>  <m_primary>  (41) 
energy

$$$$
41:0
     RDKit          3D

 58 62  0  0  1  0  0  0  0  0999 V2000
   60.5800   33.7470   50.4320 C   0  0  0  0  0  0  0  0  0  0  0  0
   61.8780   33.5170   49.7570 C   0  0  0  0  0  0  0  0  0  0  0  0
   63.0420   33.6800   50.4750 C   0  0  0  0  0  0  0  0  0  0  0  0
   64.2950   33.4840   49.9630 C   0  0  0  0  0  0  0  0  0  0  0  0
   64.3950   33.0970   48.6320 C   0  0  0  0  0  0  0  0  0  0  0  0
   63.2380   32.9210   47.8680 C   0  0  0  0  0  0  0  0  0  0  0  0
   61.9690   33.1290   48.4260 C   0  0  0  0  0  0  0  0  0  0  0  0
   60.7630   32.9020   47.6170 C   0  0  0  0  0  0  0  0  0  0  0  0
   60.2280   33.9350   46.8830 C   0  0  0  0  0  0  0  0  0  0  0  0
   59.1240   33.6550   46.0910 C   0  0  0  0  0  0  0  0  0  0  0  0
   58.3840   34.4180   45.2620 N   0  0  0  0  0  0  0  0  0  0  0  0
   57.4280   33.6800   44.7160 N   0  0  0  0  0  0  0  0  0  0  0  0
   57.5480   32.4360   45.1910 C   0  0  0  0  0  0  0  0  0  0  0  0
   56.7980   31.4630   44.8640 N   0  0  0  0  0  0  0  0  0  0  0  0
   57.0230   30.5350   43.8160 C   0  0  0  0  0  0  0  0  0  0  0  0
   57.0300   30.8440   42.5980 O   0  0  0  0  0  0  0  0  0  0  0  0
   57.2460   29.1400   44.2730 C   0  0  0  0  0  0  0  0  0  0  0  0
   57.7690   28.2720   43.3600 C   0  0  0  0  0  0  0  0  0  0  0  0
   57.9680   26.9310   43.6610 C   0  0  0  0  0  0  0  0  0  0  0  0
   57.6120   26.4960   44.9420 C   0  0  0  0  0  0  0  0  0  0  0  0
   57.7900   25.1180   45.1970 N   0  0  0  0  0  0  0  0  0  0  0  0
   58.9750   24.4620   45.6320 C   0  0  0  0  0  0  0  0  0  0  0  0
   59.0130   23.0030   45.3600 C   0  0  0  0  0  0  0  0  0  0  0  0
   58.1140   22.4580   44.4250 N   0  0  0  0  0  0  0  0  0  0  0  0
   57.6810   21.1040   44.6980 C   0  0  0  0  0  0  0  0  0  0  0  0
   57.0810   23.2700   43.8920 C   0  0  0  0  0  0  0  0  0  0  0  0
   56.6190   24.2480   44.9580 C   0  0  0  0  0  0  0  0  0  0  0  0
   57.0850   27.3830   45.8620 C   0  0  0  0  0  0  0  0  0  0  0  0
   56.8940   28.7290   45.5370 C   0  0  0  0  0  0  0  0  0  0  0  0
   58.6000   32.3780   46.0590 C   0  0  0  0  0  0  0  0  0  0  0  0
   59.1480   31.3650   46.8000 C   0  0  0  0  0  0  0  0  0  0  0  0
   60.2190   31.6740   47.5550 N   0  0  0  0  0  0  0  0  0  0  0  0
   60.7241   33.7215   51.5222 H   0  0  0  0  0  0  0  0  0  0  0  0
   60.1826   34.7296   50.1376 H   0  0  0  0  0  0  0  0  0  0  0  0
   59.8692   32.9608   50.1376 H   0  0  0  0  0  0  0  0  0  0  0  0
   62.9585   33.9876   51.5278 H   0  0  0  0  0  0  0  0  0  0  0  0
   65.1922   33.6277   50.5830 H   0  0  0  0  0  0  0  0  0  0  0  0
   65.3838   32.9294   48.1802 H   0  0  0  0  0  0  0  0  0  0  0  0
   63.3243   32.6152   46.8149 H   0  0  0  0  0  0  0  0  0  0  0  0
   60.6597   34.9460   46.9226 H   0  0  0  0  0  0  0  0  0  0  0  0
   58.4850   35.4310   45.0390 H   0  0  0  0  0  0  0  0  0  0  0  0
   56.6960   33.9850   44.0330 H   0  0  0  0  0  0  0  0  0  0  0  0
   58.0398   28.6434   42.3606 H   0  0  0  0  0  0  0  0  0  0  0  0
   58.3899   26.2365   42.9196 H   0  0  0  0  0  0  0  0  0  0  0  0
   59.8312   24.9278   45.1221 H   0  0  0  0  0  0  0  0  0  0  0  0
   59.0084   24.5747   46.7257 H   0  0  0  0  0  0  0  0  0  0  0  0
   60.0276   22.7678   45.0060 H   0  0  0  0  0  0  0  0  0  0  0  0
   58.7067   22.5496   46.3143 H   0  0  0  0  0  0  0  0  0  0  0  0
   57.6309   20.9473   45.7856 H   0  0  0  0  0  0  0  0  0  0  0  0
   56.6861   20.9414   44.2579 H   0  0  0  0  0  0  0  0  0  0  0  0
   58.3970   20.3943   44.2579 H   0  0  0  0  0  0  0  0  0  0  0  0
   57.4608   23.8256   43.0219 H   0  0  0  0  0  0  0  0  0  0  0  0
   56.2373   22.6381   43.5775 H   0  0  0  0  0  0  0  0  0  0  0  0
   55.7632   24.8384   44.5989 H   0  0  0  0  0  0  0  0  0  0  0  0
   56.2827   23.7396   45.8736 H   0  0  0  0  0  0  0  0  0  0  0  0
   56.8118   27.0241   46.8652 H   0  0  0  0  0  0  0  0  0  0  0  0
   56.4758   29.4362   46.2684 H   0  0  0  0  0  0  0  0  0  0  0  0
   58.7326   30.3467   46.7793 H   0  0  0  0  0  0  0  0  0  0  0  0
  1  2  1  0
  2  3  2  0
  3  4  1  0
  4  5  2  0
  5  6  1  0
  6  7  2  0
  7  8  1  0
  8  9  2  0
  9 10  1  0
 10 11  1  0
 11 12  1  0
 12 13  1  0
 13 14  2  0
 14 15  1  0
 15 16  2  0
 15 17  1  0
 17 18  2  0
 18 19  1  0
 19 20  2  0
 20 21  1  0
 21 22  1  0
 22 23  1  0
 23 24  1  0
 24 25  1  0
 24 26  1  0
 26 27  1  0
 20 28  1  0
 28 29  2  0
 13 30  1  0
 30 31  1  0
 31 32  2  0
  7  2  1  0
 32  8  1  0
 30 10  2  0
 29 17  1  0
 27 21  1  0
  1 33  1  0
  1 34  1  0
  1 35  1  0
  3 36  1  0
  4 37  1  0
  5 38  1  0
  6 39  1  0
  9 40  1  0
 11 41  1  0
 12 42  1  0
 18 43  1  0
 19 44  1  0
 22 45  1  0
 22 46  1  0
 23 47  1  0
 23 48  1  0
 25 49  1  0
 25 50  1  0
 25 51  1  0
 26 52  1  0
 26 53  1  0
 27 54  1  0
 27 55  1  0
 28 56  1  0
 29 57  1  0
 31 58  1  0
M  END
>  <smiles>  (42) 
Cc1ccccc1-c1cc2[nH][nH]c(=NC(=O)c3ccc(N4CCN(C)CC4)cc3)c2cn1

>  <score_type>  (42) 
oracle

>  <origin>  (42) 
adg

>  <m_score__min__energy>  (42) 
-9.5299999999999994

>  <m_primary>  (42) 
energy

$$$$
42:0
     RDKit          3D

 57 59  0  0  0  0  0  0  0  0999 V2000
   56.1500   20.2810   44.5450 C   0  0  0  0  0  0  0  0  0  0  0  0
   56.2630   21.6600   44.0400 N   0  0  0  0  0  0  0  0  0  0  0  0
   56.6710   21.6380   42.6260 C   0  0  0  0  0  0  0  0  0  0  0  0
   57.1990   22.4660   44.8650 C   0  0  0  0  0  0  0  0  0  0  0  0
   56.6630   23.9110   45.0730 C   0  0  0  0  0  0  0  0  0  0  0  0
   56.8430   24.3320   46.5470 C   0  0  0  0  0  0  0  0  0  0  0  0
   55.1540   23.9330   44.7490 C   0  0  0  0  0  0  0  0  0  0  0  0
   57.4240   24.9200   44.1690 C   0  0  0  0  0  0  0  0  0  0  0  0
   58.3070   25.7580   44.9210 O   0  0  0  0  0  0  0  0  0  0  0  0
   58.2770   27.1600   44.9990 C   0  0  0  0  0  0  0  0  0  0  0  0
   59.4940   27.8290   45.1650 C   0  0  0  0  0  0  0  0  0  0  0  0
   59.5370   29.2220   45.2430 C   0  0  0  0  0  0  0  0  0  0  0  0
   58.3550   29.9750   45.1680 C   0  0  0  0  0  0  0  0  0  0  0  0
   58.4180   31.4540   45.2460 C   0  0  0  0  0  0  0  0  0  0  0  0
   59.1330   32.0670   46.2880 C   0  0  0  0  0  0  0  0  0  0  0  0
   59.1890   33.4680   46.3910 C   0  0  0  0  0  0  0  0  0  0  0  0
   59.9060   34.1090   47.4120 O   0  0  0  0  0  0  0  0  0  0  0  0
   61.2590   33.8950   47.7140 C   0  0  0  0  0  0  0  0  0  0  0  0
   61.6850   34.0460   49.0400 C   0  0  0  0  0  0  0  0  0  0  0  0
   63.0240   33.8300   49.3810 C   0  0  0  0  0  0  0  0  0  0  0  0
   63.9440   33.4500   48.4010 C   0  0  0  0  0  0  0  0  0  0  0  0
   63.5240   33.2770   47.0790 C   0  0  0  0  0  0  0  0  0  0  0  0
   62.1860   33.4910   46.7340 C   0  0  0  0  0  0  0  0  0  0  0  0
   58.5510   34.2520   45.4250 C   0  0  0  0  0  0  0  0  0  0  0  0
   57.8340   33.6510   44.3880 C   0  0  0  0  0  0  0  0  0  0  0  0
   57.7580   32.2580   44.2990 C   0  0  0  0  0  0  0  0  0  0  0  0
   57.0190   31.6990   43.3080 F   0  0  0  0  0  0  0  0  0  0  0  0
   57.1280   29.3100   45.0010 C   0  0  0  0  0  0  0  0  0  0  0  0
   55.9710   30.0090   44.8780 F   0  0  0  0  0  0  0  0  0  0  0  0
   57.0880   27.9130   44.9210 C   0  0  0  0  0  0  0  0  0  0  0  0
   56.1509   20.2921   45.6449 H   0  0  0  0  0  0  0  0  0  0  0  0
   55.2122   19.8339   44.1836 H   0  0  0  0  0  0  0  0  0  0  0  0
   57.0025   19.6872   44.1836 H   0  0  0  0  0  0  0  0  0  0  0  0
   57.7675   21.5789   42.5617 H   0  0  0  0  0  0  0  0  0  0  0  0
   56.2268   20.7625   42.1298 H   0  0  0  0  0  0  0  0  0  0  0  0
   56.3236   22.5562   42.1298 H   0  0  0  0  0  0  0  0  0  0  0  0
   57.3196   21.9832   45.8460 H   0  0  0  0  0  0  0  0  0  0  0  0
   58.1641   22.5244   44.3405 H   0  0  0  0  0  0  0  0  0  0  0  0
   56.4964   23.5213   47.2048 H   0  0  0  0  0  0  0  0  0  0  0  0
   57.9063   24.5343   46.7433 H   0  0  0  0  0  0  0  0  0  0  0  0
   56.2546   25.2404   46.7433 H   0  0  0  0  0  0  0  0  0  0  0  0
   54.5779   23.9414   45.6860 H   0  0  0  0  0  0  0  0  0  0  0  0
   54.9175   24.8347   44.1650 H   0  0  0  0  0  0  0  0  0  0  0  0
   54.8913   23.0386   44.1650 H   0  0  0  0  0  0  0  0  0  0  0  0
   58.0128   24.3586   43.4287 H   0  0  0  0  0  0  0  0  0  0  0  0
   56.6790   25.5654   43.6807 H   0  0  0  0  0  0  0  0  0  0  0  0
   60.4274   27.2511   45.2348 H   0  0  0  0  0  0  0  0  0  0  0  0
   60.5036   29.7329   45.3640 H   0  0  0  0  0  0  0  0  0  0  0  0
   59.6542   31.4449   47.0306 H   0  0  0  0  0  0  0  0  0  0  0  0
   60.9625   34.3360   49.8171 H   0  0  0  0  0  0  0  0  0  0  0  0
   63.3532   33.9596   50.4226 H   0  0  0  0  0  0  0  0  0  0  0  0
   64.9982   33.2870   48.6694 H   0  0  0  0  0  0  0  0  0  0  0  0
   64.2475   32.9719   46.3086 H   0  0  0  0  0  0  0  0  0  0  0  0
   61.8568   33.3435   45.6948 H   0  0  0  0  0  0  0  0  0  0  0  0
   58.6141   35.3487   45.4821 H   0  0  0  0  0  0  0  0  0  0  0  0
   57.3271   34.2763   43.6383 H   0  0  0  0  0  0  0  0  0  0  0  0
   56.1230   27.3999   44.7965 H   0  0  0  0  0  0  0  0  0  0  0  0
  1  2  1  0
  2  3  1  0
  2  4  1  0
  4  5  1  0
  5  6  1  0
  5  7  1  0
  5  8  1  0
  8  9  1  0
  9 10  1  0
 10 11  2  0
 11 12  1  0
 12 13  2  0
 13 14  1  0
 14 15  2  0
 15 16  1  0
 16 17  1  0
 17 18  1  0
 18 19  2  0
 19 20  1  0
 20 21  2  0
 21 22  1  0
 22 23  2  0
 16 24  2  0
 24 25  1  0
 25 26  2  0
 26 27  1  0
 13 28  1  0
 28 29  1  0
 28 30  2  0
 30 10  1  0
 26 14  1  0
 23 18  1  0
  1 31  1  0
  1 32  1  0
  1 33  1  0
  3 34  1  0
  3 35  1  0
  3 36  1  0
  4 37  1  0
  4 38  1  0
  6 39  1  0
  6 40  1  0
  6 41  1  0
  7 42  1  0
  7 43  1  0
  7 44  1  0
  8 45  1  0
  8 46  1  0
 11 47  1  0
 12 48  1  0
 15 49  1  0
 19 50  1  0
 20 51  1  0
 21 52  1  0
 22 53  1  0
 23 54  1  0
 24 55  1  0
 25 56  1  0
 30 57  1  0
M  END
>  <UniqueID>  (43) 
38

>  <SMILES>  (43) 
CN(C)CC(C)(C)COc1ccc(-c2cc(Oc3ccccc3)ccc2F)c(F)c1

>  <Energy>  (43) 
72.22850704575023

>  <Genealogy>  (43) 
CN(C)CC(C)(C)COc1ccc(-c2cc(Oc3ccccc3)ccc2F)c(F)c1 (3D coordinates assigned)
CN(C)CC(C)(C)COc1ccc(-c2cc(Oc3ccccc3)ccc2F)c(F)c1 (optimized conformer: 72.22850704575023 kcal/mol)

>  <smiles>  (43) 
CN(C)CC(C)(C)COc1ccc(-c2cc(Oc3ccccc3)ccc2F)c(F)c1

>  <score_type>  (43) 
oracle

>  <origin>  (43) 
adg

>  <m_score__min__energy>  (43) 
-8.1899999999999995

>  <m_primary>  (43) 
energy

$$$$
43:0
     RDKit          3D

 43 44  0  0  0  0  0  0  0  0999 V2000
   57.5780   32.0820   41.5650 C   0  0  0  0  0  0  0  0  0  0  0  0
   57.8260   31.7570   43.0460 C   0  0  0  0  0  0  0  0  0  0  0  0
   57.8220   33.0490   43.8730 C   0  0  0  0  0  0  0  0  0  0  0  0
   56.7740   30.7720   43.5960 C   0  0  0  0  0  0  0  0  0  0  0  0
   57.3560   29.8560   44.6360 C   0  0  0  0  0  0  0  0  0  0  0  0
   58.4330   30.2620   45.4290 C   0  0  0  0  0  0  0  0  0  0  0  0
   58.9310   29.3760   46.3900 C   0  0  0  0  0  0  0  0  0  0  0  0
   60.3330   29.8270   47.3560 S   0  0  0  0  0  0  0  0  0  0  0  0
   60.8240   28.6320   48.1250 O   0  0  0  0  0  0  0  0  0  0  0  0
   61.4360   30.3010   46.4520 O   0  0  0  0  0  0  0  0  0  0  0  0
   59.8930   31.1360   48.4890 C   0  0  0  0  0  0  0  0  0  0  0  0
   59.7070   32.4300   47.7450 C   0  0  0  0  0  0  0  0  0  0  0  0
   60.8080   33.0740   47.1580 C   0  0  0  0  0  0  0  0  0  0  0  0
   60.6240   34.2380   46.4050 C   0  0  0  0  0  0  0  0  0  0  0  0
   59.3420   34.7640   46.2300 C   0  0  0  0  0  0  0  0  0  0  0  0
   58.2410   34.1250   46.8070 C   0  0  0  0  0  0  0  0  0  0  0  0
   58.4190   32.9590   47.5590 C   0  0  0  0  0  0  0  0  0  0  0  0
   58.3630   28.1480   46.5350 N   0  0  0  0  0  0  0  0  0  0  0  0
   57.3050   27.7740   45.7630 C   0  0  0  0  0  0  0  0  0  0  0  0
   56.5770   26.1900   45.9680 S   0  0  0  0  0  0  0  0  0  0  0  0
   54.8560   26.3410   46.0140 N   0  0  0  0  0  0  0  0  0  0  0  0
   56.9630   25.3060   44.8170 O   0  0  0  0  0  0  0  0  0  0  0  0
   57.0550   25.5820   47.2560 O   0  0  0  0  0  0  0  0  0  0  0  0
   56.8110   28.6250   44.8280 N   0  0  0  0  0  0  0  0  0  0  0  0
   56.9124   32.9543   41.4875 H   0  0  0  0  0  0  0  0  0  0  0  0
   58.5360   32.3070   41.0736 H   0  0  0  0  0  0  0  0  0  0  0  0
   57.1080   31.2173   41.0736 H   0  0  0  0  0  0  0  0  0  0  0  0
   58.8109   31.2736   43.1255 H   0  0  0  0  0  0  0  0  0  0  0  0
   57.8228   32.7987   44.9441 H   0  0  0  0  0  0  0  0  0  0  0  0
   58.7183   33.6402   43.6339 H   0  0  0  0  0  0  0  0  0  0  0  0
   56.9220   33.6346   43.6339 H   0  0  0  0  0  0  0  0  0  0  0  0
   55.9510   31.3456   44.0473 H   0  0  0  0  0  0  0  0  0  0  0  0
   56.4140   30.1545   42.7598 H   0  0  0  0  0  0  0  0  0  0  0  0
   58.8802   31.2587   45.2999 H   0  0  0  0  0  0  0  0  0  0  0  0
   58.9551   30.8734   49.0003 H   0  0  0  0  0  0  0  0  0  0  0  0
   60.7015   31.2593   49.2246 H   0  0  0  0  0  0  0  0  0  0  0  0
   61.8190   32.6614   47.2909 H   0  0  0  0  0  0  0  0  0  0  0  0
   61.4904   34.7401   45.9498 H   0  0  0  0  0  0  0  0  0  0  0  0
   59.1990   35.6804   45.6386 H   0  0  0  0  0  0  0  0  0  0  0  0
   57.2317   34.5402   46.6694 H   0  0  0  0  0  0  0  0  0  0  0  0
   57.5489   32.4554   48.0055 H   0  0  0  0  0  0  0  0  0  0  0  0
   58.7440   27.4800   47.2420 H   0  0  0  0  0  0  0  0  0  0  0  0
   54.6320   27.0820   46.7160 H   0  0  0  0  0  0  0  0  0  0  0  0
  1  2  1  0
  2  3  1  0
  2  4  1  0
  4  5  1  0
  5  6  2  0
  6  7  1  0
  7  8  1  0
  8  9  2  0
  8 10  2  0
  8 11  1  0
 11 12  1  0
 12 13  2  0
 13 14  1  0
 14 15  2  0
 15 16  1  0
 16 17  2  0
  7 18  2  0
 18 19  1  0
 19 20  1  0
 20 21  1  0
 20 22  2  0
 20 23  2  0
 19 24  2  0
 24  5  1  0
 17 12  1  0
  1 25  1  0
  1 26  1  0
  1 27  1  0
  2 28  1  0
  3 29  1  0
  3 30  1  0
  3 31  1  0
  4 32  1  0
  4 33  1  0
  6 34  1  0
 11 35  1  0
 11 36  1  0
 13 37  1  0
 14 38  1  0
 15 39  1  0
 16 40  1  0
 17 41  1  0
 18 42  1  0
 21 43  1  0
M  CHG  2  18   1  21  -1
M  END
>  <UniqueID>  (44) 
39

>  <SMILES>  (44) 
CC(C)Cc1cc(S(=O)(=O)Cc2ccccc2)[nH+]c(S([NH-])(=O)=O)n1

>  <Energy>  (44) 
30.44921650642553

>  <Genealogy>  (44) 
CC(C)Cc1cc(S(=O)(=O)Cc2ccccc2)[nH+]c(S([NH-])(=O)=O)n1 (protonated)
CC(C)Cc1cc(S(=O)(=O)Cc2ccccc2)[nH+]c(S([NH-])(=O)=O)n1 (3D coordinates assigned)
CC(C)Cc1cc(S(=O)(=O)Cc2ccccc2)[nH+]c(S([NH-])(=O)=O)n1 (optimized conformer: 30.44921650642553 kcal/mol)

>  <smiles>  (44) 
CC(C)Cc1cc(S(=O)(=O)Cc2ccccc2)nc(S(N)(=O)=O)n1

>  <score_type>  (44) 
oracle

>  <origin>  (44) 
adg

>  <m_score__min__energy>  (44) 
-10.26

>  <m_primary>  (44) 
energy

$$$$
44:0
     RDKit          3D

 59 62  0  0  0  0  0  0  0  0999 V2000
   59.5620   26.4270   48.2030 C   0  0  0  0  0  0  0  0  0  0  0  0
   58.5620   25.6390   47.3620 C   0  0  1  0  0  0  0  0  0  0  0  0
   57.3680   25.5180   48.0470 F   0  0  0  0  0  0  0  0  0  0  0  0
   58.3670   26.2910   46.0060 C   0  0  0  0  0  0  0  0  0  0  0  0
   58.3110   27.6970   45.9520 C   0  0  0  0  0  0  0  0  0  0  0  0
   57.9940   28.3660   44.7570 C   0  0  0  0  0  0  0  0  0  0  0  0
   57.9590   29.8020   44.6870 N   0  0  0  0  0  0  0  0  0  0  0  0
   56.7540   30.5710   44.5490 C   0  0  0  0  0  0  0  0  0  0  0  0
   55.7140   30.0400   44.0770 O   0  0  0  0  0  0  0  0  0  0  0  0
   56.7400   31.9720   44.8430 N   0  0  0  0  0  0  0  0  0  0  0  0
   57.7200   32.6800   45.6150 C   0  0  0  0  0  0  0  0  0  0  0  0
   58.5330   31.9600   46.4990 C   0  0  0  0  0  0  0  0  0  0  0  0
   59.5120   32.6140   47.2520 C   0  0  0  0  0  0  0  0  0  0  0  0
   59.7120   33.9990   47.1070 C   0  0  0  0  0  0  0  0  0  0  0  0
   60.6700   34.6950   47.8580 O   0  0  0  0  0  0  0  0  0  0  0  0
   61.9030   34.1770   48.2850 C   0  0  0  0  0  0  0  0  0  0  0  0
   62.8490   33.6670   47.3780 C   0  0  0  0  0  0  0  0  0  0  0  0
   64.0730   33.1740   47.8410 C   0  0  0  0  0  0  0  0  0  0  0  0
   64.3710   33.1960   49.2100 C   0  0  0  0  0  0  0  0  0  0  0  0
   65.6200   32.6880   49.6840 N   0  0  0  0  0  0  0  0  0  0  0  0
   63.4360   33.7240   50.1120 C   0  0  0  0  0  0  0  0  0  0  0  0
   62.2120   34.2180   49.6490 C   0  0  0  0  0  0  0  0  0  0  0  0
   58.9040   34.7160   46.2180 C   0  0  0  0  0  0  0  0  0  0  0  0
   57.9250   34.0630   45.4650 C   0  0  0  0  0  0  0  0  0  0  0  0
   57.7450   27.6190   43.6030 C   0  0  0  0  0  0  0  0  0  0  0  0
   57.7850   26.2260   43.6400 C   0  0  0  0  0  0  0  0  0  0  0  0
   58.1140   25.5500   44.8230 C   0  0  0  0  0  0  0  0  0  0  0  0
   58.1690   23.7450   44.7850 S   0  0  0  0  0  0  0  0  0  0  0  0
   56.4300   23.5430   45.2220 C   0  0  0  0  0  0  0  0  0  0  0  0
   55.4510   23.7370   44.2360 C   0  0  0  0  0  0  0  0  0  0  0  0
   54.0960   23.6050   44.5480 C   0  0  0  0  0  0  0  0  0  0  0  0
   53.7050   23.2700   45.8440 C   0  0  0  0  0  0  0  0  0  0  0  0
   54.6700   23.0570   46.8300 C   0  0  0  0  0  0  0  0  0  0  0  0
   56.0360   23.1800   46.5310 C   0  0  0  0  0  0  0  0  0  0  0  0
   57.0000   22.9170   47.5590 N   0  0  0  0  0  0  0  0  0  0  0  0
   59.3533   26.2626   49.2704 H   0  0  0  0  0  0  0  0  0  0  0  0
   60.5827   26.0878   47.9724 H   0  0  0  0  0  0  0  0  0  0  0  0
   59.4709   27.4987   47.9724 H   0  0  0  0  0  0  0  0  0  0  0  0
   58.9587   24.6290   47.1819 H   0  0  0  0  0  0  0  0  0  0  0  0
   58.5188   28.2817   46.8603 H   0  0  0  0  0  0  0  0  0  0  0  0
   58.8690   30.3150   44.6430 H   0  0  0  0  0  0  0  0  0  0  0  0
   58.4003   30.8728   46.6014 H   0  0  0  0  0  0  0  0  0  0  0  0
   60.1291   32.0431   47.9614 H   0  0  0  0  0  0  0  0  0  0  0  0
   62.6255   33.6558   46.3010 H   0  0  0  0  0  0  0  0  0  0  0  0
   64.8048   32.7673   47.1276 H   0  0  0  0  0  0  0  0  0  0  0  0
   65.7300   32.3780   50.6760 H   0  0  0  0  0  0  0  0  0  0  0  0
   66.4450   32.6160   49.0470 H   0  0  0  0  0  0  0  0  0  0  0  0
   63.6660   33.7498   51.1874 H   0  0  0  0  0  0  0  0  0  0  0  0
   61.4883   34.6411   50.3612 H   0  0  0  0  0  0  0  0  0  0  0  0
   59.0406   35.8022   46.1111 H   0  0  0  0  0  0  0  0  0  0  0  0
   57.3119   34.6333   44.7517 H   0  0  0  0  0  0  0  0  0  0  0  0
   57.5157   28.1337   42.6583 H   0  0  0  0  0  0  0  0  0  0  0  0
   57.5558   25.6510   42.7307 H   0  0  0  0  0  0  0  0  0  0  0  0
   55.7526   23.9949   43.2101 H   0  0  0  0  0  0  0  0  0  0  0  0
   53.3355   23.7657   43.7696 H   0  0  0  0  0  0  0  0  0  0  0  0
   52.6370   23.1737   46.0892 H   0  0  0  0  0  0  0  0  0  0  0  0
   54.3572   22.7904   47.8503 H   0  0  0  0  0  0  0  0  0  0  0  0
   56.7880   23.0640   48.5700 H   0  0  0  0  0  0  0  0  0  0  0  0
   57.9610   22.5890   47.3140 H   0  0  0  0  0  0  0  0  0  0  0  0
  1  2  1  0
  2  3  1  0
  2  4  1  0
  4  5  2  0
  5  6  1  0
  6  7  1  0
  7  8  1  0
  8  9  2  0
  8 10  1  0
 10 11  1  0
 11 12  2  0
 12 13  1  0
 13 14  2  0
 14 15  1  0
 15 16  1  0
 16 17  2  0
 17 18  1  0
 18 19  2  0
 19 20  1  0
 19 21  1  0
 21 22  2  0
 14 23  1  0
 23 24  2  0
  6 25  2  0
 25 26  1  0
 26 27  2  0
 27 28  1  0
 28 29  1  0
 29 30  2  0
 30 31  1  0
 31 32  2  0
 32 33  1  0
 33 34  2  0
 34 35  1  0
 27  4  1  0
 34 29  1  0
 24 11  1  0
 22 16  1  0
  1 36  1  0
  1 37  1  0
  1 38  1  0
  2 39  1  6
  5 40  1  0
  7 41  1  0
 12 42  1  0
 13 43  1  0
 17 44  1  0
 18 45  1  0
 20 46  1  0
 20 47  1  0
 21 48  1  0
 22 49  1  0
 23 50  1  0
 24 51  1  0
 25 52  1  0
 26 53  1  0
 30 54  1  0
 31 55  1  0
 32 56  1  0
 33 57  1  0
 35 58  1  0
 35 59  1  0
M  CHG  1  10  -1
M  END
>  <UniqueID>  (45) 
40

>  <SMILES>  (45) 
C[C@@H](F)c1cc(NC(=O)[N-]c2ccc(Oc3ccc(N)cc3)cc2)ccc1Sc1ccccc1N

>  <Energy>  (45) 
73.75309690215546

>  <Genealogy>  (45) 
CC(F)c1cc(NC(=O)[N-]c2ccc(Oc3ccc(N)cc3)cc2)ccc1Sc1ccccc1N (protonated)
C[C@@H](F)c1cc(NC(=O)[N-]c2ccc(Oc3ccc(N)cc3)cc2)ccc1Sc1ccccc1N (chirality)
C[C@@H](F)c1cc(NC(=O)[N-]c2ccc(Oc3ccc(N)cc3)cc2)ccc1Sc1ccccc1N (3D coordinates assigned)
C[C@@H](F)c1cc(NC(=O)[N-]c2ccc(Oc3ccc(N)cc3)cc2)ccc1Sc1ccccc1N (optimized conformer: 73.75309690215546 kcal/mol)

>  <smiles>  (45) 
CC(F)c1cc(NC(=O)Nc2ccc(Oc3ccc(N)cc3)cc2)ccc1Sc1ccccc1N

>  <score_type>  (45) 
oracle

>  <origin>  (45) 
adg

>  <m_score__min__energy>  (45) 
-10.43

>  <m_primary>  (45) 
energy

$$$$
45:0
     RDKit          3D

 42 44  0  0  0  0  0  0  0  0999 V2000
   63.7170   32.5810   50.1000 C   0  0  0  0  0  0  0  0  0  0  0  0
   63.6340   33.6360   49.0740 N   0  0  0  0  0  0  0  0  0  0  0  0
   62.2680   34.2150   48.9870 C   0  0  0  0  0  0  0  0  0  0  0  0
   61.4670   33.7500   47.7560 C   0  0  0  0  0  0  0  0  0  0  0  0
   61.8520   32.3860   47.3790 N   0  0  0  0  0  0  0  0  0  0  0  0
   60.8680   31.3430   47.2420 C   0  0  0  0  0  0  0  0  0  0  0  0
   60.9150   30.2140   48.0740 C   0  0  0  0  0  0  0  0  0  0  0  0
   59.9630   29.2060   47.9300 C   0  0  0  0  0  0  0  0  0  0  0  0
   58.9660   29.3220   46.9570 C   0  0  0  0  0  0  0  0  0  0  0  0
   57.9910   28.3260   46.7980 C   0  0  0  0  0  0  0  0  0  0  0  0
   56.9940   28.4600   45.8140 C   0  0  0  0  0  0  0  0  0  0  0  0
   55.9690   27.4740   45.6210 N   0  0  0  0  0  0  0  0  0  0  0  0
   56.1130   25.7800   45.9610 S   0  0  0  0  0  0  0  0  0  0  0  0
   57.1540   24.9980   44.7450 C   0  0  0  0  0  0  0  0  0  0  0  0
   56.7410   25.6110   47.3160 O   0  0  0  0  0  0  0  0  0  0  0  0
   54.7530   25.1390   45.9760 O   0  0  0  0  0  0  0  0  0  0  0  0
   56.9880   29.5950   44.9940 C   0  0  0  0  0  0  0  0  0  0  0  0
   57.9560   30.5910   45.1460 C   0  0  0  0  0  0  0  0  0  0  0  0
   58.9510   30.4650   46.1260 C   0  0  0  0  0  0  0  0  0  0  0  0
   59.8980   31.4350   46.2830 N   0  0  0  0  0  0  0  0  0  0  0  0
   63.2690   32.0920   47.1440 C   0  0  0  0  0  0  0  0  0  0  0  0
   64.1610   33.1790   47.7700 C   0  0  0  0  0  0  0  0  0  0  0  0
   63.6810   33.0382   51.0998 H   0  0  0  0  0  0  0  0  0  0  0  0
   62.8706   31.8883   49.9829 H   0  0  0  0  0  0  0  0  0  0  0  0
   64.6613   32.0292   49.9829 H   0  0  0  0  0  0  0  0  0  0  0  0
   61.7117   33.9260   49.8909 H   0  0  0  0  0  0  0  0  0  0  0  0
   62.3896   35.3043   48.8943 H   0  0  0  0  0  0  0  0  0  0  0  0
   60.3932   33.7706   47.9937 H   0  0  0  0  0  0  0  0  0  0  0  0
   61.6818   34.4259   46.9152 H   0  0  0  0  0  0  0  0  0  0  0  0
   61.7013   30.1246   48.8381 H   0  0  0  0  0  0  0  0  0  0  0  0
   59.9962   28.3202   48.5813 H   0  0  0  0  0  0  0  0  0  0  0  0
   58.0059   27.4366   47.4451 H   0  0  0  0  0  0  0  0  0  0  0  0
   57.9342   24.4119   45.2527 H   0  0  0  0  0  0  0  0  0  0  0  0
   56.5458   24.3315   44.1158 H   0  0  0  0  0  0  0  0  0  0  0  0
   57.6247   25.7677   44.1158 H   0  0  0  0  0  0  0  0  0  0  0  0
   56.2125   29.7037   44.2215 H   0  0  0  0  0  0  0  0  0  0  0  0
   57.9375   31.4772   44.4946 H   0  0  0  0  0  0  0  0  0  0  0  0
   59.8700   32.2800   45.6700 H   0  0  0  0  0  0  0  0  0  0  0  0
   63.5155   31.1191   47.5942 H   0  0  0  0  0  0  0  0  0  0  0  0
   63.4500   32.0672   46.0593 H   0  0  0  0  0  0  0  0  0  0  0  0
   65.1712   32.7696   47.9176 H   0  0  0  0  0  0  0  0  0  0  0  0
   64.1806   34.0412   47.0872 H   0  0  0  0  0  0  0  0  0  0  0  0
  1  2  1  0
  2  3  1  0
  3  4  1  0
  4  5  1  0
  5  6  1  0
  6  7  2  0
  7  8  1  0
  8  9  2  0
  9 10  1  0
 10 11  2  0
 11 12  1  0
 12 13  1  0
 13 14  1  0
 13 15  2  0
 13 16  2  0
 11 17  1  0
 17 18  2  0
 18 19  1  0
 19 20  2  0
  5 21  1  0
 21 22  1  0
 22  2  1  0
 20  6  1  0
 19  9  1  0
  1 23  1  0
  1 24  1  0
  1 25  1  0
  3 26  1  0
  3 27  1  0
  4 28  1  0
  4 29  1  0
  7 30  1  0
  8 31  1  0
 10 32  1  0
 14 33  1  0
 14 34  1  0
 14 35  1  0
 17 36  1  0
 18 37  1  0
 20 38  1  0
 21 39  1  0
 21 40  1  0
 22 41  1  0
 22 42  1  0
M  CHG  2  12  -1  20   1
M  END
>  <UniqueID>  (46) 
41

>  <SMILES>  (46) 
CN1CCN(c2ccc3cc([N-]S(C)(=O)=O)ccc3[nH+]2)CC1

>  <Energy>  (46) 
56.19032253526136

>  <Genealogy>  (46) 
CN1CCN(c2ccc3cc([N-]S(C)(=O)=O)ccc3[nH+]2)CC1 (protonated)
CN1CCN(c2ccc3cc([N-]S(C)(=O)=O)ccc3[nH+]2)CC1 (3D coordinates assigned)
CN1CCN(c2ccc3cc([N-]S(C)(=O)=O)ccc3[nH+]2)CC1 (nonaromatic ring conformer: 56.19032253526136 kcal/mol)

>  <smiles>  (46) 
CN1CCN(c2ccc3cc(NS(C)(=O)=O)ccc3n2)CC1

>  <score_type>  (46) 
oracle

>  <origin>  (46) 
adg

>  <m_score__min__energy>  (46) 
-7.7599999999999998

>  <m_primary>  (46) 
energy

$$$$
46:0
     RDKit          3D

 20 21  0  0  0  0  0  0  0  0999 V2000
   55.1400   29.3570   44.8740 O   0  0  0  0  0  0  0  0  0  0  0  0
   56.3900   29.5140   44.8870 C   0  0  0  0  0  0  0  0  0  0  0  0
   57.1660   28.6930   45.6970 O   0  0  0  0  0  0  0  0  0  0  0  0
   57.0080   30.6130   44.1100 C   0  0  0  0  0  0  0  0  0  0  0  0
   56.8940   30.5700   42.7090 C   0  0  0  0  0  0  0  0  0  0  0  0
   57.3830   31.6080   41.9180 C   0  0  0  0  0  0  0  0  0  0  0  0
   58.0000   32.7090   42.5060 C   0  0  0  0  0  0  0  0  0  0  0  0
   58.1570   32.7710   43.8970 C   0  0  0  0  0  0  0  0  0  0  0  0
   58.8050   33.8740   44.4770 C   0  0  0  0  0  0  0  0  0  0  0  0
   59.0020   33.9290   45.8560 C   0  0  0  0  0  0  0  0  0  0  0  0
   58.5670   32.8820   46.6680 C   0  0  0  0  0  0  0  0  0  0  0  0
   57.9170   31.7790   46.1080 C   0  0  0  0  0  0  0  0  0  0  0  0
   57.6760   31.7130   44.7180 C   0  0  0  0  0  0  0  0  0  0  0  0
   56.4120   29.7047   42.2306 H   0  0  0  0  0  0  0  0  0  0  0  0
   57.2810   31.5572   40.8239 H   0  0  0  0  0  0  0  0  0  0  0  0
   58.3656   33.5334   41.8761 H   0  0  0  0  0  0  0  0  0  0  0  0
   59.1587   34.6982   43.8402 H   0  0  0  0  0  0  0  0  0  0  0  0
   59.5017   34.8002   46.3046 H   0  0  0  0  0  0  0  0  0  0  0  0
   58.7363   32.9246   47.7541 H   0  0  0  0  0  0  0  0  0  0  0  0
   57.5895   30.9533   46.7568 H   0  0  0  0  0  0  0  0  0  0  0  0
  1  2  2  0
  2  3  1  0
  2  4  1  0
  4  5  2  0
  5  6  1  0
  6  7  2  0
  7  8  1  0
  8  9  2  0
  9 10  1  0
 10 11  2  0
 11 12  1  0
 12 13  2  0
 13  4  1  0
 13  8  1  0
  5 14  1  0
  6 15  1  0
  7 16  1  0
  9 17  1  0
 10 18  1  0
 11 19  1  0
 12 20  1  0
M  CHG  1   3  -1
M  END
>  <UniqueID>  (47) 
42

>  <SMILES>  (47) 
O=C([O-])c1cccc2ccccc12

>  <Energy>  (47) 
31.20999645231519

>  <Genealogy>  (47) 
O=C([O-])c1cccc2ccccc12 (protonated)
O=C([O-])c1cccc2ccccc12 (3D coordinates assigned)
O=C([O-])c1cccc2ccccc12 (optimized conformer: 31.20999645231519 kcal/mol)

>  <smiles>  (47) 
O=C(O)c1cccc2ccccc12

>  <score_type>  (47) 
oracle

>  <origin>  (47) 
adg

>  <m_score__min__energy>  (47) 
-8.7599999999999998

>  <m_primary>  (47) 
energy

$$$$
47:0
     RDKit          3D

 42 44  0  0  0  0  0  0  0  0999 V2000
   55.1530   28.9600   44.8880 O   0  0  0  0  0  0  0  0  0  0  0  0
   56.5090   28.9920   45.1910 C   0  0  0  0  0  0  0  0  0  0  0  0
   57.3000   30.0540   44.7470 C   0  0  0  0  0  0  0  0  0  0  0  0
   58.6640   30.0870   45.0490 C   0  0  0  0  0  0  0  0  0  0  0  0
   59.2530   29.0490   45.7910 C   0  0  0  0  0  0  0  0  0  0  0  0
   60.7290   29.0850   46.1190 C   0  0  0  0  0  0  0  0  0  0  0  0
   61.1100   30.0620   47.2580 C   0  0  2  0  0  0  0  0  0  0  0  0
   60.8580   29.4830   48.6620 C   0  0  0  0  0  0  0  0  0  0  0  0
   61.4170   30.4190   49.7490 C   0  0  0  0  0  0  0  0  0  0  0  0
   61.2710   31.9070   49.3780 C   0  0  0  0  0  0  0  0  0  0  0  0
   60.1670   32.0880   48.4180 N   0  0  0  0  0  0  0  0  0  0  0  0
   59.6980   33.4880   48.3100 C   0  0  0  0  0  0  0  0  0  0  0  0
   58.8240   33.7520   47.1020 C   0  0  0  0  0  0  0  0  0  0  0  0
   59.3150   34.4840   46.0090 C   0  0  0  0  0  0  0  0  0  0  0  0
   58.5020   34.7180   44.9010 C   0  0  0  0  0  0  0  0  0  0  0  0
   57.2020   34.2100   44.8870 C   0  0  0  0  0  0  0  0  0  0  0  0
   56.7410   33.4900   45.9450 N   0  0  0  0  0  0  0  0  0  0  0  0
   57.5140   33.2510   47.0380 C   0  0  0  0  0  0  0  0  0  0  0  0
   60.4610   31.4670   47.1050 C   0  0  0  0  0  0  0  0  0  0  0  0
   58.4460   27.9930   46.2480 C   0  0  0  0  0  0  0  0  0  0  0  0
   57.0820   27.9630   45.9440 C   0  0  0  0  0  0  0  0  0  0  0  0
   56.8484   30.8661   44.1584 H   0  0  0  0  0  0  0  0  0  0  0  0
   59.2802   30.9303   44.7039 H   0  0  0  0  0  0  0  0  0  0  0  0
   61.0396   28.0726   46.4165 H   0  0  0  0  0  0  0  0  0  0  0  0
   61.2418   29.4439   45.2144 H   0  0  0  0  0  0  0  0  0  0  0  0
   62.1967   30.1983   47.1556 H   0  0  0  0  0  0  0  0  0  0  0  0
   59.7752   29.3617   48.8128 H   0  0  0  0  0  0  0  0  0  0  0  0
   61.3671   28.5109   48.7386 H   0  0  0  0  0  0  0  0  0  0  0  0
   60.8733   30.2343   50.6873 H   0  0  0  0  0  0  0  0  0  0  0  0
   62.4907   30.2046   49.8549 H   0  0  0  0  0  0  0  0  0  0  0  0
   61.0604   32.4889   50.2874 H   0  0  0  0  0  0  0  0  0  0  0  0
   62.2072   32.2548   48.9170 H   0  0  0  0  0  0  0  0  0  0  0  0
   59.1208   33.7304   49.2145 H   0  0  0  0  0  0  0  0  0  0  0  0
   60.5938   34.1166   48.1989 H   0  0  0  0  0  0  0  0  0  0  0  0
   60.3435   34.8737   46.0271 H   0  0  0  0  0  0  0  0  0  0  0  0
   58.8812   35.2972   44.0462 H   0  0  0  0  0  0  0  0  0  0  0  0
   56.5500   34.3920   44.0200 H   0  0  0  0  0  0  0  0  0  0  0  0
   57.1112   32.6626   47.8756 H   0  0  0  0  0  0  0  0  0  0  0  0
   59.5215   31.3650   46.5420 H   0  0  0  0  0  0  0  0  0  0  0  0
   61.1741   32.1150   46.5744 H   0  0  0  0  0  0  0  0  0  0  0  0
   58.8903   27.1855   46.8484 H   0  0  0  0  0  0  0  0  0  0  0  0
   56.4586   27.1286   46.2978 H   0  0  0  0  0  0  0  0  0  0  0  0
  1  2  1  0
  2  3  2  0
  3  4  1  0
  4  5  2  0
  5  6  1  0
  6  7  1  0
  7  8  1  0
  8  9  1  0
  9 10  1  0
 10 11  1  0
 11 12  1  0
 12 13  1  0
 13 14  2  0
 14 15  1  0
 15 16  2  0
 16 17  1  0
 17 18  2  0
 11 19  1  0
  5 20  1  0
 20 21  2  0
 21  2  1  0
 19  7  1  0
 18 13  1  0
  3 22  1  0
  4 23  1  0
  6 24  1  0
  6 25  1  0
  7 26  1  1
  8 27  1  0
  8 28  1  0
  9 29  1  0
  9 30  1  0
 10 31  1  0
 10 32  1  0
 12 33  1  0
 12 34  1  0
 14 35  1  0
 15 36  1  0
 16 37  1  0
 18 38  1  0
 19 39  1  0
 19 40  1  0
 20 41  1  0
 21 42  1  0
M  CHG  1   1  -1
M  END
>  <UniqueID>  (48) 
43

>  <SMILES>  (48) 
[O-]c1ccc(C[C@@H]2CCCN(Cc3cccnc3)C2)cc1

>  <Energy>  (48) 
52.39456427140491

>  <Genealogy>  (48) 
[O-]c1ccc(CC2CCCN(Cc3cccnc3)C2)cc1 (protonated)
[O-]c1ccc(C[C@@H]2CCCN(Cc3cccnc3)C2)cc1 (chirality)
[O-]c1ccc(C[C@@H]2CCCN(Cc3cccnc3)C2)cc1 (3D coordinates assigned)
[O-]c1ccc(C[C@@H]2CCCN(Cc3cccnc3)C2)cc1 (nonaromatic ring conformer: 52.39456427140491 kcal/mol)

>  <smiles>  (48) 
Oc1ccc(CC2CCCN(Cc3cccnc3)C2)cc1

>  <score_type>  (48) 
oracle

>  <origin>  (48) 
adg

>  <m_score__min__energy>  (48) 
-10.94

>  <m_primary>  (48) 
energy

$$$$
48:0
     RDKit          3D

 40 42  0  0  0  0  0  0  0  0999 V2000
   65.7790   33.0990   49.4750 N   0  0  0  0  0  0  0  0  0  0  0  0
   64.5970   32.3410   49.7340 C   0  0  0  0  0  0  0  0  0  0  0  0
   64.5910   31.5240   50.6950 O   0  0  0  0  0  0  0  0  0  0  0  0
   63.3920   32.5120   48.8890 C   0  0  0  0  0  0  0  0  0  0  0  0
   63.3070   33.5710   47.9680 C   0  0  0  0  0  0  0  0  0  0  0  0
   62.1690   33.7280   47.1710 C   0  0  0  0  0  0  0  0  0  0  0  0
   61.0880   32.8440   47.2900 C   0  0  0  0  0  0  0  0  0  0  0  0
   59.9390   33.0180   46.4430 N   0  0  0  0  0  0  0  0  0  0  0  0
   58.9970   34.0940   46.5750 C   0  0  0  0  0  0  0  0  0  0  0  0
   59.2450   35.0780   47.3240 O   0  0  0  0  0  0  0  0  0  0  0  0
   57.7480   34.1010   45.7470 C   0  0  0  0  0  0  0  0  0  0  0  0
   57.6900   32.8650   44.8910 C   0  0  0  0  0  0  0  0  0  0  0  0
   57.8350   32.9620   43.4990 C   0  0  0  0  0  0  0  0  0  0  0  0
   57.7590   31.8170   42.7040 C   0  0  0  0  0  0  0  0  0  0  0  0
   57.5260   30.5690   43.2890 C   0  0  0  0  0  0  0  0  0  0  0  0
   57.3530   30.4520   44.6790 C   0  0  0  0  0  0  0  0  0  0  0  0
   57.1020   29.1180   45.2830 C   0  0  0  0  0  0  0  0  0  0  0  0
   58.0720   28.4550   46.0510 C   0  0  0  0  0  0  0  0  0  0  0  0
   57.7790   27.2070   46.5960 C   0  0  0  0  0  0  0  0  0  0  0  0
   56.5220   26.6470   46.3720 C   0  0  0  0  0  0  0  0  0  0  0  0
   56.2320   25.5200   46.8540 O   0  0  0  0  0  0  0  0  0  0  0  0
   55.6090   27.3260   45.6340 N   0  0  0  0  0  0  0  0  0  0  0  0
   55.8900   28.5210   45.1090 N   0  0  0  0  0  0  0  0  0  0  0  0
   57.4430   31.6110   45.4750 C   0  0  0  0  0  0  0  0  0  0  0  0
   61.1790   31.7720   48.1930 C   0  0  0  0  0  0  0  0  0  0  0  0
   62.3170   31.6110   48.9880 C   0  0  0  0  0  0  0  0  0  0  0  0
   66.3620   32.9120   48.6300 H   0  0  0  0  0  0  0  0  0  0  0  0
   64.1418   34.2811   47.8738 H   0  0  0  0  0  0  0  0  0  0  0  0
   62.1217   34.5524   46.4443 H   0  0  0  0  0  0  0  0  0  0  0  0
   59.8320   32.3760   45.6240 H   0  0  0  0  0  0  0  0  0  0  0  0
   56.8712   34.1256   46.4108 H   0  0  0  0  0  0  0  0  0  0  0  0
   57.7504   34.9893   45.0982 H   0  0  0  0  0  0  0  0  0  0  0  0
   58.0091   33.9430   43.0327 H   0  0  0  0  0  0  0  0  0  0  0  0
   57.8828   31.8971   41.6139 H   0  0  0  0  0  0  0  0  0  0  0  0
   57.4776   29.6707   42.6560 H   0  0  0  0  0  0  0  0  0  0  0  0
   59.0556   28.9172   46.2211 H   0  0  0  0  0  0  0  0  0  0  0  0
   58.5294   26.6704   47.1952 H   0  0  0  0  0  0  0  0  0  0  0  0
   57.3186   31.5334   46.5652 H   0  0  0  0  0  0  0  0  0  0  0  0
   60.3492   31.0546   48.2749 H   0  0  0  0  0  0  0  0  0  0  0  0
   62.3723   30.7721   49.6974 H   0  0  0  0  0  0  0  0  0  0  0  0
  1  2  1  0
  2  3  2  0
  2  4  1  0
  4  5  2  0
  5  6  1  0
  6  7  2  0
  7  8  1  0
  8  9  1  0
  9 10  2  0
  9 11  1  0
 11 12  1  0
 12 13  2  0
 13 14  1  0
 14 15  2  0
 15 16  1  0
 16 17  1  0
 17 18  1  0
 18 19  2  0
 19 20  1  0
 20 21  2  0
 20 22  1  0
 22 23  1  0
 16 24  2  0
  7 25  1  0
 25 26  2  0
 26  4  1  0
 24 12  1  0
 23 17  2  0
  1 27  1  0
  5 28  1  0
  6 29  1  0
  8 30  1  0
 11 31  1  0
 11 32  1  0
 13 33  1  0
 14 34  1  0
 15 35  1  0
 18 36  1  0
 19 37  1  0
 24 38  1  0
 25 39  1  0
 26 40  1  0
M  CHG  2   1  -1  22  -1
M  END
>  <UniqueID>  (49) 
44

>  <SMILES>  (49) 
[NH-]C(=O)c1ccc(NC(=O)Cc2cccc(-c3ccc(=O)[n-]n3)c2)cc1

>  <Energy>  (49) 
49.597467057700435

>  <Genealogy>  (49) 
[NH-]C(=O)c1ccc(NC(=O)Cc2cccc(-c3ccc(=O)[n-]n3)c2)cc1 (protonated)
[NH-]C(=O)c1ccc(NC(=O)Cc2cccc(-c3ccc(=O)[n-]n3)c2)cc1 (3D coordinates assigned)
[NH-]C(=O)c1ccc(NC(=O)Cc2cccc(-c3ccc(=O)[n-]n3)c2)cc1 (optimized conformer: 49.597467057700435 kcal/mol)

>  <smiles>  (49) 
NC(=O)c1ccc(NC(=O)Cc2cccc(-c3ccc(=O)[nH]n3)c2)cc1

>  <score_type>  (49) 
oracle

>  <origin>  (49) 
adg

>  <m_score__min__energy>  (49) 
-11.81

>  <m_primary>  (49) 
energy

$$$$
49:0
     RDKit          3D

 26 27  0  0  0  0  0  0  0  0999 V2000
   61.0660   34.0260   46.4230 C   0  0  0  0  0  0  0  0  0  0  0  0
   59.4970   34.6480   45.8550 S   0  0  0  0  0  0  0  0  0  0  0  0
   58.5490   34.6840   47.0210 O   0  0  0  0  0  0  0  0  0  0  0  0
   59.6480   36.0420   45.3140 O   0  0  0  0  0  0  0  0  0  0  0  0
   58.8440   33.6010   44.6340 N   0  0  0  0  0  0  0  0  0  0  0  0
   58.3950   32.2530   44.8680 C   0  0  0  0  0  0  0  0  0  0  0  0
   57.6020   31.5560   43.9370 C   0  0  0  0  0  0  0  0  0  0  0  0
   57.1840   30.2470   44.2010 C   0  0  0  0  0  0  0  0  0  0  0  0
   57.5460   29.6130   45.3990 C   0  0  0  0  0  0  0  0  0  0  0  0
   57.1080   28.2320   45.6820 C   0  0  0  0  0  0  0  0  0  0  0  0
   57.9350   27.2270   46.0410 N   0  0  0  0  0  0  0  0  0  0  0  0
   57.1760   26.1530   46.2050 N   0  0  0  0  0  0  0  0  0  0  0  0
   55.9220   26.5530   45.9390 C   0  0  0  0  0  0  0  0  0  0  0  0
   54.8950   25.7700   45.9970 N   0  0  0  0  0  0  0  0  0  0  0  0
   55.8620   27.8210   45.6180 O   0  0  0  0  0  0  0  0  0  0  0  0
   58.3310   30.3090   46.3310 C   0  0  0  0  0  0  0  0  0  0  0  0
   58.7490   31.6160   46.0670 C   0  0  0  0  0  0  0  0  0  0  0  0
   61.0815   34.0198   47.5229 H   0  0  0  0  0  0  0  0  0  0  0  0
   61.2118   33.0020   46.0485 H   0  0  0  0  0  0  0  0  0  0  0  0
   61.8738   34.6719   46.0485 H   0  0  0  0  0  0  0  0  0  0  0  0
   58.7210   34.0140   43.6830 H   0  0  0  0  0  0  0  0  0  0  0  0
   57.3089   32.0437   42.9956 H   0  0  0  0  0  0  0  0  0  0  0  0
   56.5674   29.7114   43.4642 H   0  0  0  0  0  0  0  0  0  0  0  0
   53.9790   26.1140   46.3620 H   0  0  0  0  0  0  0  0  0  0  0  0
   58.6189   29.8229   47.2748 H   0  0  0  0  0  0  0  0  0  0  0  0
   59.3621   32.1512   46.8071 H   0  0  0  0  0  0  0  0  0  0  0  0
  1  2  1  0
  2  3  2  0
  2  4  2  0
  2  5  1  0
  5  6  1  0
  6  7  2  0
  7  8  1  0
  8  9  2  0
  9 10  1  0
 10 11  2  0
 11 12  1  0
 12 13  1  0
 13 14  2  3
 13 15  1  0
  9 16  1  0
 16 17  2  0
 17  6  1  0
 15 10  1  0
  1 18  1  0
  1 19  1  0
  1 20  1  0
  5 21  1  0
  7 22  1  0
  8 23  1  0
 14 24  1  0
 16 25  1  0
 17 26  1  0
M  CHG  1  12  -1
M  END
>  <UniqueID>  (50) 
45

>  <SMILES>  (50) 
CS(=O)(=O)Nc1ccc(-c2n[n-]c(=N)o2)cc1

>  <Energy>  (50) 
60.33780493551212

>  <Genealogy>  (50) 
CS(=O)(=O)Nc1ccc(-c2n[n-]c(=N)o2)cc1 (protonated)
CS(=O)(=O)Nc1ccc(-c2n[n-]c(=N)o2)cc1 (3D coordinates assigned)
CS(=O)(=O)Nc1ccc(-c2n[n-]c(=N)o2)cc1 (optimized conformer: 60.33780493551212 kcal/mol)

>  <smiles>  (50) 
CS(=O)(=O)Nc1ccc(-c2n[nH]c(=N)o2)cc1

>  <score_type>  (50) 
oracle

>  <origin>  (50) 
adg

>  <m_score__min__energy>  (50) 
-8.3300000000000001

>  <m_primary>  (50) 
energy

$$$$
50:0
     RDKit          3D

 50 54  0  0  0  0  0  0  0  0999 V2000
   60.4670   24.2660   45.5430 H   0  0  0  0  0  0  0  0  0  0  0  0
   59.5640   23.8130   45.6220 O   0  0  0  0  0  0  0  0  0  0  0  0
   58.3720   24.5350   45.7210 C   0  0  0  0  0  0  0  0  0  0  0  0
   58.3970   25.9380   45.7910 C   0  0  0  0  0  0  0  0  0  0  0  0
   59.5620   26.5800   45.7660 O   0  0  0  0  0  0  0  0  0  0  0  0
   59.6670   27.9030   45.8290 C   0  0  0  0  0  0  0  0  0  0  0  0
   60.8160   28.4200   45.7980 O   0  0  0  0  0  0  0  0  0  0  0  0
   58.5110   28.7060   45.9280 C   0  0  0  0  0  0  0  0  0  0  0  0
   58.5510   30.1870   46.0060 C   0  0  0  0  0  0  0  0  0  0  0  0
   57.6614   30.7322   46.3544 H   0  0  0  0  0  0  0  0  0  0  0  0
   59.6160   30.8540   45.6710 N   0  0  0  0  0  0  0  0  0  0  0  0
   60.5300   31.5090   46.5670 C   0  0  0  0  0  0  0  0  0  0  0  0
   60.5980   32.9110   46.6980 C   0  0  0  0  0  0  0  0  0  0  0  0
   59.9396   33.5502   46.0914 H   0  0  0  0  0  0  0  0  0  0  0  0
   61.4990   33.4930   47.5960 C   0  0  0  0  0  0  0  0  0  0  0  0
   61.5472   34.5881   47.6877 H   0  0  0  0  0  0  0  0  0  0  0  0
   62.3420   32.6910   48.3810 C   0  0  0  0  0  0  0  0  0  0  0  0
   63.2590   33.2970   49.3120 N   0  0  0  0  0  0  0  0  0  0  0  0
   64.6760   32.9120   49.3000 C   0  0  0  0  0  0  0  0  0  0  0  0
   64.7538   31.8151   49.2712 H   0  0  0  0  0  0  0  0  0  0  0  0
   65.1575   33.3474   48.4120 H   0  0  0  0  0  0  0  0  0  0  0  0
   65.3790   33.4350   50.5540 C   0  0  0  0  0  0  0  0  0  0  0  0
   66.2861   32.8415   50.7407 H   0  0  0  0  0  0  0  0  0  0  0  0
   65.6557   34.4895   50.4075 H   0  0  0  0  0  0  0  0  0  0  0  0
   64.5080   33.3250   51.6600 O   0  0  0  0  0  0  0  0  0  0  0  0
   63.4870   34.3070   51.5760 C   0  0  0  0  0  0  0  0  0  0  0  0
   62.7114   34.0657   52.3178 H   0  0  0  0  0  0  0  0  0  0  0  0
   63.9617   35.2809   51.7662 H   0  0  0  0  0  0  0  0  0  0  0  0
   62.8200   34.3940   50.1830 C   0  0  0  0  0  0  0  0  0  0  0  0
   61.7281   34.3400   50.3046 H   0  0  0  0  0  0  0  0  0  0  0  0
   63.1130   35.3462   49.7166 H   0  0  0  0  0  0  0  0  0  0  0  0
   62.2570   31.2940   48.2650 C   0  0  0  0  0  0  0  0  0  0  0  0
   62.9022   30.6535   48.8842 H   0  0  0  0  0  0  0  0  0  0  0  0
   61.3570   30.7130   47.3670 C   0  0  0  0  0  0  0  0  0  0  0  0
   61.2983   29.6174   47.2884 H   0  0  0  0  0  0  0  0  0  0  0  0
   57.2680   28.0640   45.9580 C   0  0  0  0  0  0  0  0  0  0  0  0
   56.3459   28.6589   46.0345 H   0  0  0  0  0  0  0  0  0  0  0  0
   57.1930   26.6660   45.8910 C   0  0  0  0  0  0  0  0  0  0  0  0
   55.9600   25.9910   45.9190 C   0  0  0  0  0  0  0  0  0  0  0  0
   54.7730   26.7140   46.0170 O   0  0  0  0  0  0  0  0  0  0  0  0
   55.9270   24.5850   45.8490 C   0  0  0  0  0  0  0  0  0  0  0  0
   54.7020   23.8910   45.8780 C   0  0  0  0  0  0  0  0  0  0  0  0
   53.7585   24.4510   45.9571 H   0  0  0  0  0  0  0  0  0  0  0  0
   54.6770   22.4970   45.8070 C   0  0  0  0  0  0  0  0  0  0  0  0
   53.7149   21.9642   45.8293 H   0  0  0  0  0  0  0  0  0  0  0  0
   55.8670   21.7780   45.7080 C   0  0  0  0  0  0  0  0  0  0  0  0
   55.8408   20.6797   45.6525 H   0  0  0  0  0  0  0  0  0  0  0  0
   57.0920   22.4470   45.6790 C   0  0  0  0  0  0  0  0  0  0  0  0
   58.0267   21.8722   45.6018 H   0  0  0  0  0  0  0  0  0  0  0  0
   57.1390   23.8530   45.7480 C   0  0  0  0  0  0  0  0  0  0  0  0
  1  2  1  0
  2  3  1  0
  3  4  2  0
  4  5  1  0
  5  6  1  0
  6  7  2  0
  6  8  1  0
  8  9  1  0
  9 10  1  0
  9 11  2  0
 11 12  1  0
 12 13  2  0
 13 14  1  0
 13 15  1  0
 15 16  1  0
 15 17  2  0
 17 18  1  0
 18 19  1  0
 19 20  1  0
 19 21  1  0
 19 22  1  0
 22 23  1  0
 22 24  1  0
 22 25  1  0
 25 26  1  0
 26 27  1  0
 26 28  1  0
 26 29  1  0
 29 30  1  0
 29 31  1  0
 17 32  1  0
 32 33  1  0
 32 34  2  0
 34 35  1  0
  8 36  2  0
 36 37  1  0
 36 38  1  0
 38 39  2  0
 39 40  1  0
 39 41  1  0
 41 42  2  0
 42 43  1  0
 42 44  1  0
 44 45  1  0
 44 46  2  0
 46 47  1  0
 46 48  1  0
 48 49  1  0
 48 50  2  0
 50  3  1  0
 38  4  1  0
 50 41  1  0
 34 12  1  0
 29 18  1  0
M  CHG  1  40  -1
M  END
>  <UniqueID>  (51) 
46

>  <SMILES>  (51) 
O=c1oc2c(O)c3ccccc3c([O-])c2cc1/C=N/c1ccc(N2CCOCC2)cc1

>  <Energy>  (51) 
81.4068983989888

>  <Genealogy>  (51) 
O=c1oc2c(O)c3ccccc3c([O-])c2cc1C=Nc1ccc(N2CCOCC2)cc1 (protonated)
O=c1oc2c(O)c3ccccc3c([O-])c2cc1/C=N/c1ccc(N2CCOCC2)cc1 (cis-trans isomerization)
O=c1oc2c(O)c3ccccc3c([O-])c2cc1/C=N/c1ccc(N2CCOCC2)cc1 (3D coordinates assigned)
O=c1oc2c(O)c3ccccc3c([O-])c2cc1/C=N/c1ccc(N2CCOCC2)cc1 (nonaromatic ring conformer: 81.4068983989888 kcal/mol)

>  <smiles>  (51) 
O=c1oc2c(O)c3ccccc3c(O)c2cc1C=Nc1ccc(N2CCOCC2)cc1

>  <score_type>  (51) 
oracle

>  <origin>  (51) 
adg

>  <m_score__min__energy>  (51) 
-11.57

>  <m_primary>  (51) 
energy

$$$$
51:0
     RDKit          3D

 41 43  0  0  0  0  0  0  0  0999 V2000
   57.4120   32.1140   41.5840 C   0  0  0  0  0  0  0  0  0  0  0  0
   58.3210   32.7210   42.4970 O   0  0  0  0  0  0  0  0  0  0  0  0
   58.1350   32.7830   43.8870 C   0  0  0  0  0  0  0  0  0  0  0  0
   57.9400   34.0080   44.5570 C   0  0  0  0  0  0  0  0  0  0  0  0
   57.7610   34.0360   45.9400 C   0  0  0  0  0  0  0  0  0  0  0  0
   57.7760   32.8490   46.6720 C   0  0  0  0  0  0  0  0  0  0  0  0
   57.9670   31.6280   46.0220 C   0  0  0  0  0  0  0  0  0  0  0  0
   58.1330   31.5820   44.6270 C   0  0  0  0  0  0  0  0  0  0  0  0
   58.3060   30.3250   43.9510 N   0  0  0  0  0  0  0  0  0  0  0  0
   57.4870   28.8750   44.4440 S   0  0  0  0  0  0  0  0  0  0  0  0
   56.0940   29.2170   44.8910 O   0  0  0  0  0  0  0  0  0  0  0  0
   57.3950   27.9550   43.2590 O   0  0  0  0  0  0  0  0  0  0  0  0
   58.3470   28.1140   45.8040 C   0  0  0  0  0  0  0  0  0  0  0  0
   57.7290   27.1290   46.6160 C   0  0  0  0  0  0  0  0  0  0  0  0
   56.3900   26.6610   46.3520 N   0  0  0  0  0  0  0  0  0  0  0  0
   56.0940   25.5110   45.5410 C   0  0  0  0  0  0  0  0  0  0  0  0
   57.0760   25.0100   44.6730 C   0  0  0  0  0  0  0  0  0  0  0  0
   56.8150   23.8860   43.8840 C   0  0  0  0  0  0  0  0  0  0  0  0
   55.5790   23.2420   43.9700 C   0  0  0  0  0  0  0  0  0  0  0  0
   54.6060   23.7160   44.8540 C   0  0  0  0  0  0  0  0  0  0  0  0
   54.8630   24.8410   45.6430 C   0  0  0  0  0  0  0  0  0  0  0  0
   58.4070   26.6350   47.6880 N   0  0  0  0  0  0  0  0  0  0  0  0
   59.6660   27.0380   47.9870 C   0  0  0  0  0  0  0  0  0  0  0  0
   60.2600   26.5550   48.9850 O   0  0  0  0  0  0  0  0  0  0  0  0
   60.2840   27.9580   47.2110 N   0  0  0  0  0  0  0  0  0  0  0  0
   59.6620   28.5020   46.1350 C   0  0  0  0  0  0  0  0  0  0  0  0
   60.2780   29.3590   45.4480 O   0  0  0  0  0  0  0  0  0  0  0  0
   56.6251   31.5885   42.1449 H   0  0  0  0  0  0  0  0  0  0  0  0
   56.9557   32.8892   40.9510 H   0  0  0  0  0  0  0  0  0  0  0  0
   57.9532   31.3954   40.9510 H   0  0  0  0  0  0  0  0  0  0  0  0
   57.9289   34.9478   43.9854 H   0  0  0  0  0  0  0  0  0  0  0  0
   57.6077   34.9962   46.4543 H   0  0  0  0  0  0  0  0  0  0  0  0
   57.6372   32.8747   47.7629 H   0  0  0  0  0  0  0  0  0  0  0  0
   57.9877   30.6958   46.6056 H   0  0  0  0  0  0  0  0  0  0  0  0
   58.7990   30.3000   43.0310 H   0  0  0  0  0  0  0  0  0  0  0  0
   55.5810   27.0840   46.8540 H   0  0  0  0  0  0  0  0  0  0  0  0
   58.0568   25.5045   44.6131 H   0  0  0  0  0  0  0  0  0  0  0  0
   57.5843   23.5083   43.1944 H   0  0  0  0  0  0  0  0  0  0  0  0
   55.3715   22.3626   43.3426 H   0  0  0  0  0  0  0  0  0  0  0  0
   53.6359   23.2028   44.9291 H   0  0  0  0  0  0  0  0  0  0  0  0
   54.0987   25.2031   46.3464 H   0  0  0  0  0  0  0  0  0  0  0  0
  1  2  1  0
  2  3  1  0
  3  4  2  0
  4  5  1  0
  5  6  2  0
  6  7  1  0
  7  8  2  0
  8  9  1  0
  9 10  1  0
 10 11  2  0
 10 12  2  0
 10 13  1  0
 13 14  2  0
 14 15  1  0
 15 16  1  0
 16 17  2  0
 17 18  1  0
 18 19  2  0
 19 20  1  0
 20 21  2  0
 14 22  1  0
 22 23  1  0
 23 24  2  0
 23 25  1  0
 25 26  1  0
 26 27  2  0
  8  3  1  0
 26 13  1  0
 21 16  1  0
  1 28  1  0
  1 29  1  0
  1 30  1  0
  4 31  1  0
  5 32  1  0
  6 33  1  0
  7 34  1  0
  9 35  1  0
 15 36  1  0
 17 37  1  0
 18 38  1  0
 19 39  1  0
 20 40  1  0
 21 41  1  0
M  CHG  2  22  -1  25  -1
M  END
>  <UniqueID>  (52) 
47

>  <SMILES>  (52) 
COc1ccccc1NS(=O)(=O)c1c(Nc2ccccc2)[n-]c(=O)[n-]c1=O

>  <Energy>  (52) 
54.84635366163745

>  <Genealogy>  (52) 
COc1ccccc1NS(=O)(=O)c1c(Nc2ccccc2)[n-]c(=O)[n-]c1=O (protonated)
COc1ccccc1NS(=O)(=O)c1c(Nc2ccccc2)[n-]c(=O)[n-]c1=O (3D coordinates assigned)
COc1ccccc1NS(=O)(=O)c1c(Nc2ccccc2)[n-]c(=O)[n-]c1=O (optimized conformer: 54.84635366163745 kcal/mol)

>  <smiles>  (52) 
COc1ccccc1NS(=O)(=O)c1c(Nc2ccccc2)[nH]c(=O)[nH]c1=O

>  <score_type>  (52) 
oracle

>  <origin>  (52) 
adg

>  <m_score__min__energy>  (52) 
-10.859999999999999

>  <m_primary>  (52) 
energy

$$$$
52:0
     RDKit          3D

 28 29  0  0  0  0  0  0  0  0999 V2000
   60.0370   33.4850   50.8080 C   0  0  0  0  0  0  0  0  0  0  0  0
   59.6430   33.4180   49.3620 C   0  0  0  0  0  0  0  0  0  0  0  0
   58.8650   32.3490   48.8900 C   0  0  0  0  0  0  0  0  0  0  0  0
   58.4670   32.3050   47.5510 C   0  0  0  0  0  0  0  0  0  0  0  0
   58.8320   33.3320   46.6720 C   0  0  0  0  0  0  0  0  0  0  0  0
   58.3340   33.2670   44.9850 S   0  0  0  0  0  0  0  0  0  0  0  0
   56.9180   33.7550   44.8780 O   0  0  0  0  0  0  0  0  0  0  0  0
   59.2160   34.1390   44.1340 O   0  0  0  0  0  0  0  0  0  0  0  0
   58.4140   31.6320   44.3970 N   0  0  0  0  0  0  0  0  0  0  0  0
   57.5180   30.7020   44.5690 C   0  0  0  0  0  0  0  0  0  0  0  0
   57.7480   29.5580   45.3610 C   0  0  0  0  0  0  0  0  0  0  0  0
   56.7360   28.6060   45.5060 C   0  0  0  0  0  0  0  0  0  0  0  0
   55.5390   28.7810   44.8860 N   0  0  0  0  0  0  0  0  0  0  0  0
   55.2890   29.8720   44.1160 C   0  0  0  0  0  0  0  0  0  0  0  0
   56.2730   30.8490   43.9450 C   0  0  0  0  0  0  0  0  0  0  0  0
   59.5890   34.4120   47.1460 C   0  0  0  0  0  0  0  0  0  0  0  0
   59.9870   34.4580   48.4850 C   0  0  0  0  0  0  0  0  0  0  0  0
   59.1478   33.3338   51.4377 H   0  0  0  0  0  0  0  0  0  0  0  0
   60.7766   32.6997   51.0233 H   0  0  0  0  0  0  0  0  0  0  0  0
   60.4755   34.4706   51.0233 H   0  0  0  0  0  0  0  0  0  0  0  0
   58.5675   31.5429   49.5767 H   0  0  0  0  0  0  0  0  0  0  0  0
   57.8645   31.4601   47.1861 H   0  0  0  0  0  0  0  0  0  0  0  0
   58.7175   29.4163   45.8611 H   0  0  0  0  0  0  0  0  0  0  0  0
   56.9082   27.7122   46.1236 H   0  0  0  0  0  0  0  0  0  0  0  0
   54.3106   29.9863   43.6265 H   0  0  0  0  0  0  0  0  0  0  0  0
   56.0701   31.7321   43.3213 H   0  0  0  0  0  0  0  0  0  0  0  0
   59.8708   35.2261   46.4620 H   0  0  0  0  0  0  0  0  0  0  0  0
   60.5726   35.3134   48.8530 H   0  0  0  0  0  0  0  0  0  0  0  0
  1  2  1  0
  2  3  2  0
  3  4  1  0
  4  5  2  0
  5  6  1  0
  6  7  2  0
  6  8  2  0
  6  9  1  0
  9 10  2  3
 10 11  1  0
 11 12  2  0
 12 13  1  0
 13 14  1  0
 14 15  2  0
  5 16  1  0
 16 17  2  0
 17  2  1  0
 15 10  1  0
  1 18  1  0
  1 19  1  0
  1 20  1  0
  3 21  1  0
  4 22  1  0
 11 23  1  0
 12 24  1  0
 14 25  1  0
 15 26  1  0
 16 27  1  0
 17 28  1  0
M  CHG  1  13  -1
M  END
>  <UniqueID>  (53) 
48

>  <SMILES>  (53) 
Cc1ccc(S(=O)(=O)N=c2cc[n-]cc2)cc1

>  <Energy>  (53) 
33.94992265239612

>  <Genealogy>  (53) 
Cc1ccc(S(=O)(=O)N=c2cc[n-]cc2)cc1 (protonated)
Cc1ccc(S(=O)(=O)N=c2cc[n-]cc2)cc1 (3D coordinates assigned)
Cc1ccc(S(=O)(=O)N=c2cc[n-]cc2)cc1 (optimized conformer: 33.94992265239612 kcal/mol)

>  <smiles>  (53) 
Cc1ccc(S(=O)(=O)N=c2cc[nH]cc2)cc1

>  <score_type>  (53) 
oracle

>  <origin>  (53) 
adg

>  <m_score__min__energy>  (53) 
-8.5299999999999994

>  <m_primary>  (53) 
energy

$$$$
53:0
     RDKit          3D

 60 63  0  0  0  0  0  0  0  0999 V2000
   58.2192   32.3505   42.5623 H   0  0  0  0  0  0  0  0  0  0  0  0
   57.3860   31.6450   42.4280 C   0  0  0  0  0  0  0  0  0  0  0  0
   56.8977   31.5510   41.4468 H   0  0  0  0  0  0  0  0  0  0  0  0
   56.9670   30.9020   43.4570 C   0  0  0  0  0  0  0  0  0  0  0  0
   57.4686   31.0109   44.4299 H   0  0  0  0  0  0  0  0  0  0  0  0
   55.8330   29.9220   43.3300 C   0  0  0  0  0  0  0  0  0  0  0  0
   54.9438   30.4429   42.9454 H   0  0  0  0  0  0  0  0  0  0  0  0
   56.1272   29.1201   42.6369 H   0  0  0  0  0  0  0  0  0  0  0  0
   55.5240   29.3370   44.6330 N   0  0  0  0  0  0  0  0  0  0  0  0
   56.2610   28.4670   45.2560 C   0  0  0  0  0  0  0  0  0  0  0  0
   55.7240   27.2770   45.6200 N   0  0  0  0  0  0  0  0  0  0  0  0
   56.4640   26.3690   46.3060 C   0  0  0  0  0  0  0  0  0  0  0  0
   55.9130   25.2500   46.6760 N   0  0  0  0  0  0  0  0  0  0  0  0
   56.5780   23.9450   46.6830 C   0  0  0  0  0  0  0  0  0  0  0  0
   57.6075   24.0735   47.0487 H   0  0  0  0  0  0  0  0  0  0  0  0
   56.0022   23.2750   47.3385 H   0  0  0  0  0  0  0  0  0  0  0  0
   56.6240   23.3220   45.3050 C   0  0  0  0  0  0  0  0  0  0  0  0
   57.4550   22.2190   45.0200 C   0  0  0  0  0  0  0  0  0  0  0  0
   58.0902   21.7947   45.8115 H   0  0  0  0  0  0  0  0  0  0  0  0
   57.4770   21.6610   43.7380 C   0  0  0  0  0  0  0  0  0  0  0  0
   58.1450   20.8154   43.5174 H   0  0  0  0  0  0  0  0  0  0  0  0
   56.6500   22.1780   42.7370 C   0  0  0  0  0  0  0  0  0  0  0  0
   56.6769   21.7470   41.7253 H   0  0  0  0  0  0  0  0  0  0  0  0
   55.7880   23.2430   43.0200 C   0  0  0  0  0  0  0  0  0  0  0  0
   55.1248   23.6367   42.2357 H   0  0  0  0  0  0  0  0  0  0  0  0
   55.7690   23.8080   44.3010 C   0  0  0  0  0  0  0  0  0  0  0  0
   55.0809   24.6370   44.5228 H   0  0  0  0  0  0  0  0  0  0  0  0
   57.7570   26.6530   46.6160 N   0  0  0  0  0  0  0  0  0  0  0  0
   58.3080   27.8400   46.2410 C   0  0  0  0  0  0  0  0  0  0  0  0
   59.5330   28.1430   46.5530 N   0  0  0  0  0  0  0  0  0  0  0  0
   59.9840   28.6320   47.8600 C   0  0  0  0  0  0  0  0  0  0  0  0
   60.5207   27.8397   48.4024 H   0  0  0  0  0  0  0  0  0  0  0  0
   60.9490   29.8130   47.6430 C   0  0  0  0  0  0  0  0  0  0  0  0
   61.6028   29.9122   48.5220 H   0  0  0  0  0  0  0  0  0  0  0  0
   61.5503   29.6197   46.7424 H   0  0  0  0  0  0  0  0  0  0  0  0
   60.1670   31.1180   47.4460 C   0  0  0  0  0  0  0  0  0  0  0  0
   60.8792   31.9330   47.2496 H   0  0  0  0  0  0  0  0  0  0  0  0
   59.4798   30.9786   46.5985 H   0  0  0  0  0  0  0  0  0  0  0  0
   59.3590   31.4650   48.6400 N   0  0  0  0  0  0  0  0  0  0  0  0
   58.2480   32.4060   48.3540 C   0  0  0  0  0  0  0  0  0  0  0  0
   57.3291   31.8203   48.2036 H   0  0  0  0  0  0  0  0  0  0  0  0
   58.1804   33.0883   49.2141 H   0  0  0  0  0  0  0  0  0  0  0  0
   58.4690   33.2690   47.1270 C   0  0  0  0  0  0  0  0  0  0  0  0
   57.6960   33.0730   45.9700 C   0  0  0  0  0  0  0  0  0  0  0  0
   56.9449   32.2698   45.9430 H   0  0  0  0  0  0  0  0  0  0  0  0
   57.8770   33.8940   44.8530 C   0  0  0  0  0  0  0  0  0  0  0  0
   57.2618   33.7405   43.9541 H   0  0  0  0  0  0  0  0  0  0  0  0
   58.8380   34.9100   44.8750 C   0  0  0  0  0  0  0  0  0  0  0  0
   58.9659   35.5654   44.0009 H   0  0  0  0  0  0  0  0  0  0  0  0
   59.6350   35.0920   46.0070 C   0  0  0  0  0  0  0  0  0  0  0  0
   60.3972   35.8850   46.0208 H   0  0  0  0  0  0  0  0  0  0  0  0
   59.4650   34.2670   47.1230 C   0  0  0  0  0  0  0  0  0  0  0  0
   60.1120   34.3973   48.0030 H   0  0  0  0  0  0  0  0  0  0  0  0
   58.9990   30.3260   49.5190 C   0  0  0  0  0  0  0  0  0  0  0  0
   59.8182   30.1568   50.2333 H   0  0  0  0  0  0  0  0  0  0  0  0
   58.0630   30.5816   50.0372 H   0  0  0  0  0  0  0  0  0  0  0  0
   58.7610   29.0350   48.7250 C   0  0  0  0  0  0  0  0  0  0  0  0
   58.5465   28.2207   49.4328 H   0  0  0  0  0  0  0  0  0  0  0  0
   57.9160   29.2140   48.0439 H   0  0  0  0  0  0  0  0  0  0  0  0
   57.5570   28.7390   45.5590 N   0  0  0  0  0  0  0  0  0  0  0  0
  1  2  1  0
  2  3  1  0
  2  4  2  0
  4  5  1  0
  4  6  1  0
  6  7  1  0
  6  8  1  0
  6  9  1  0
  9 10  2  0
 10 11  1  0
 11 12  1  0
 12 13  2  3
 13 14  1  0
 14 15  1  0
 14 16  1  0
 14 17  1  0
 17 18  2  0
 18 19  1  0
 18 20  1  0
 20 21  1  0
 20 22  2  0
 22 23  1  0
 22 24  1  0
 24 25  1  0
 24 26  2  0
 26 27  1  0
 12 28  1  0
 28 29  1  0
 29 30  2  3
 30 31  1  0
 31 32  1  0
 31 33  1  0
 33 34  1  0
 33 35  1  0
 33 36  1  0
 36 37  1  0
 36 38  1  0
 36 39  1  0
 39 40  1  0
 40 41  1  0
 40 42  1  0
 40 43  1  0
 43 44  2  0
 44 45  1  0
 44 46  1  0
 46 47  1  0
 46 48  2  0
 48 49  1  0
 48 50  1  0
 50 51  1  0
 50 52  2  0
 52 53  1  0
 39 54  1  0
 54 55  1  0
 54 56  1  0
 54 57  1  0
 57 58  1  0
 57 59  1  0
 29 60  1  0
 60 10  1  0
 26 17  1  0
 57 31  1  0
 52 43  1  0
M  CHG  3  11  -1  28  -1  60  -1
M  END
>  <UniqueID>  (54) 
49

>  <SMILES>  (54) 
C=CC/N=c1/[n-]c(=NCc2ccccc2)[n-]c(=NC2CCN(Cc3ccccc3)CC2)[n-]1

>  <Energy>  (54) 
67.59438811755784

>  <Genealogy>  (54) 
C=CCN=c1[n-]c(=NCc2ccccc2)[n-]c(=NC2CCN(Cc3ccccc3)CC2)[n-]1 (protonated)
C=CC/N=c1/[n-]c(=NCc2ccccc2)[n-]c(=NC2CCN(Cc3ccccc3)CC2)[n-]1 (cis-trans isomerization)
C=CC/N=c1/[n-]c(=NCc2ccccc2)[n-]c(=NC2CCN(Cc3ccccc3)CC2)[n-]1 (3D coordinates assigned)
C=CC/N=c1/[n-]c(=NCc2ccccc2)[n-]c(=NC2CCN(Cc3ccccc3)CC2)[n-]1 (nonaromatic ring conformer: 67.59438811755784 kcal/mol)

>  <smiles>  (54) 
C=CCN=c1[nH]c(=NCc2ccccc2)[nH]c(=NC2CCN(Cc3ccccc3)CC2)[nH]1

>  <score_type>  (54) 
oracle

>  <origin>  (54) 
adg

>  <m_score__min__energy>  (54) 
-14.630000000000001

>  <m_primary>  (54) 
energy

$$$$
54:0
     RDKit          3D

 45 47  0  0  0  0  0  0  0  0999 V2000
   55.5240   24.6820   47.1360 O   0  0  0  0  0  0  0  0  0  0  0  0
   55.4670   25.2460   46.0130 C   0  0  0  0  0  0  0  0  0  0  0  0
   54.9430   24.4790   44.8370 C   0  0  0  0  0  0  0  0  0  0  0  0
   54.9430   23.0530   45.1500 N   0  0  0  0  0  0  0  0  0  0  0  0
   56.0640   22.2160   44.1210 S   0  0  0  0  0  0  0  0  0  0  0  0
   55.8870   22.6440   42.6910 O   0  0  0  0  0  0  0  0  0  0  0  0
   55.8040   20.7390   44.2150 O   0  0  0  0  0  0  0  0  0  0  0  0
   57.7110   22.5370   44.6350 C   0  0  0  0  0  0  0  0  0  0  0  0
   58.8330   21.8090   44.2660 C   0  0  0  0  0  0  0  0  0  0  0  0
   60.0160   22.3140   44.8180 C   0  0  0  0  0  0  0  0  0  0  0  0
   59.8240   23.4340   45.6200 C   0  0  0  0  0  0  0  0  0  0  0  0
   58.1820   23.7990   45.6390 S   0  0  0  0  0  0  0  0  0  0  0  0
   55.9200   26.6020   45.8900 N   0  0  0  0  0  0  0  0  0  0  0  0
   57.2550   27.0330   46.1660 C   0  0  0  0  0  0  0  0  0  0  0  0
   57.9010   26.5360   47.3040 C   0  0  0  0  0  0  0  0  0  0  0  0
   59.1770   26.9910   47.6500 C   0  0  0  0  0  0  0  0  0  0  0  0
   59.8150   27.9460   46.8580 C   0  0  0  0  0  0  0  0  0  0  0  0
   59.1880   28.4330   45.7080 C   0  0  0  0  0  0  0  0  0  0  0  0
   57.9190   27.9670   45.3390 C   0  0  0  0  0  0  0  0  0  0  0  0
   57.3510   28.4400   44.1130 N   0  0  0  0  0  0  0  0  0  0  0  0
   56.3910   29.8800   44.0050 S   0  0  0  0  0  0  0  0  0  0  0  0
   55.9520   30.0960   42.5840 O   0  0  0  0  0  0  0  0  0  0  0  0
   55.1720   29.7260   44.8720 O   0  0  0  0  0  0  0  0  0  0  0  0
   57.3230   31.2580   44.5870 C   0  0  0  0  0  0  0  0  0  0  0  0
   57.5430   32.3470   43.7370 C   0  0  0  0  0  0  0  0  0  0  0  0
   58.2470   33.4610   44.1930 C   0  0  0  0  0  0  0  0  0  0  0  0
   58.7300   33.5110   45.5060 C   0  0  0  0  0  0  0  0  0  0  0  0
   59.6660   34.9240   45.9800 Cl  0  0  0  0  0  0  0  0  0  0  0  0
   58.4980   32.4230   46.3830 C   0  0  0  0  0  0  0  0  0  0  0  0
   58.9520   32.4390   47.7500 N   0  0  0  0  0  0  0  0  0  0  0  0
   58.1370   32.4630   48.6950 O   0  0  0  0  0  0  0  0  0  0  0  0
   60.2870   32.2550   48.0360 O   0  0  0  0  0  0  0  0  0  0  0  0
   57.8050   31.2970   45.9040 C   0  0  0  0  0  0  0  0  0  0  0  0
   53.9168   24.8058   44.6133 H   0  0  0  0  0  0  0  0  0  0  0  0
   55.5841   24.6635   43.9624 H   0  0  0  0  0  0  0  0  0  0  0  0
   58.7967   20.9277   43.6088 H   0  0  0  0  0  0  0  0  0  0  0  0
   61.0043   21.8672   44.6348 H   0  0  0  0  0  0  0  0  0  0  0  0
   60.6122   23.9873   46.1517 H   0  0  0  0  0  0  0  0  0  0  0  0
   57.4014   25.7823   47.9304 H   0  0  0  0  0  0  0  0  0  0  0  0
   59.6776   26.5961   48.5463 H   0  0  0  0  0  0  0  0  0  0  0  0
   60.8121   28.3158   47.1389 H   0  0  0  0  0  0  0  0  0  0  0  0
   59.6942   29.1875   45.0880 H   0  0  0  0  0  0  0  0  0  0  0  0
   57.1597   32.3245   42.7062 H   0  0  0  0  0  0  0  0  0  0  0  0
   58.4245   34.3085   43.5146 H   0  0  0  0  0  0  0  0  0  0  0  0
   57.6389   30.4370   46.5695 H   0  0  0  0  0  0  0  0  0  0  0  0
  1  2  2  0
  2  3  1  0
  3  4  1  0
  4  5  1  0
  5  6  2  0
  5  7  2  0
  5  8  1  0
  8  9  2  0
  9 10  1  0
 10 11  2  0
 11 12  1  0
  2 13  1  0
 13 14  1  0
 14 15  2  0
 15 16  1  0
 16 17  2  0
 17 18  1  0
 18 19  2  0
 19 20  1  0
 20 21  1  0
 21 22  2  0
 21 23  2  0
 21 24  1  0
 24 25  2  0
 25 26  1  0
 26 27  2  0
 27 28  1  0
 27 29  1  0
 29 30  1  0
 30 31  2  0
 30 32  1  0
 29 33  2  0
 12  8  1  0
 19 14  1  0
 33 24  1  0
  3 34  1  0
  3 35  1  0
  9 36  1  0
 10 37  1  0
 11 38  1  0
 15 39  1  0
 16 40  1  0
 17 41  1  0
 18 42  1  0
 25 43  1  0
 26 44  1  0
 33 45  1  0
M  CHG  5   4  -1  13  -1  20  -1  30   1  32  -1
M  END
>  <UniqueID>  (55) 
50

>  <SMILES>  (55) 
O=C(C[N-]S(=O)(=O)c1cccs1)[N-]c1ccccc1[N-]S(=O)(=O)c1ccc(Cl)c([N+](=O)[O-])c1

>  <Energy>  (55) 
85.70034250946787

>  <Genealogy>  (55) 
O=C(C[N-]S(=O)(=O)c1cccs1)[N-]c1ccccc1[N-]S(=O)(=O)c1ccc(Cl)c([N+](=O)[O-])c1 (protonated)
O=C(C[N-]S(=O)(=O)c1cccs1)[N-]c1ccccc1[N-]S(=O)(=O)c1ccc(Cl)c([N+](=O)[O-])c1 (3D coordinates assigned)
O=C(C[N-]S(=O)(=O)c1cccs1)[N-]c1ccccc1[N-]S(=O)(=O)c1ccc(Cl)c([N+](=O)[O-])c1 (optimized conformer: 85.70034250946787 kcal/mol)

>  <smiles>  (55) 
O=C(CNS(=O)(=O)c1cccs1)Nc1ccccc1NS(=O)(=O)c1ccc(Cl)c([N+](=O)[O-])c1

>  <score_type>  (55) 
oracle

>  <origin>  (55) 
adg

>  <m_score__min__energy>  (55) 
-14.83

>  <m_primary>  (55) 
energy

$$$$
55:0
     RDKit          3D

 42 43  0  0  0  0  0  0  0  0999 V2000
   58.3510   32.2380   50.6670 C   0  0  0  0  0  0  0  0  0  0  0  0
   58.5170   32.1750   49.1510 C   0  0  0  0  0  0  0  0  0  0  0  0
   58.8470   33.4610   48.6300 O   0  0  0  0  0  0  0  0  0  0  0  0
   58.9420   33.7350   47.2610 C   0  0  0  0  0  0  0  0  0  0  0  0
   58.0300   33.3800   46.4640 O   0  0  0  0  0  0  0  0  0  0  0  0
   60.1190   34.5000   46.7480 C   0  0  0  0  0  0  0  0  0  0  0  0
   61.3870   33.8080   47.1370 C   0  0  0  0  0  0  0  0  0  0  0  0
   62.5580   33.8810   46.3840 C   0  0  0  0  0  0  0  0  0  0  0  0
   63.7220   32.9330   47.1450 S   0  0  0  0  0  0  0  0  0  0  0  0
   62.6880   32.4790   48.3890 C   0  0  0  0  0  0  0  0  0  0  0  0
   63.1400   31.4210   49.7630 S   0  0  0  0  0  0  0  0  0  0  0  0
   61.4370   30.8370   50.0880 C   0  0  0  0  0  0  0  0  0  0  0  0
   60.9830   29.8290   49.0740 C   0  0  0  0  0  0  0  0  0  0  0  0
   60.9530   28.6080   49.3910 O   0  0  0  0  0  0  0  0  0  0  0  0
   60.6550   30.2410   47.7380 N   0  0  0  0  0  0  0  0  0  0  0  0
   59.8500   29.4680   46.8290 C   0  0  0  0  0  0  0  0  0  0  0  0
   60.0670   28.0890   46.6450 C   0  0  0  0  0  0  0  0  0  0  0  0
   59.2440   27.3530   45.7880 C   0  0  0  0  0  0  0  0  0  0  0  0
   58.1950   27.9800   45.1130 C   0  0  0  0  0  0  0  0  0  0  0  0
   57.9630   29.3510   45.2910 C   0  0  0  0  0  0  0  0  0  0  0  0
   56.6350   30.1420   44.4480 S   0  0  0  0  0  0  0  0  0  0  0  0
   55.1460   29.3450   44.8160 N   0  0  0  0  0  0  0  0  0  0  0  0
   56.8790   30.0880   42.9660 O   0  0  0  0  0  0  0  0  0  0  0  0
   56.5340   31.5780   44.8860 O   0  0  0  0  0  0  0  0  0  0  0  0
   58.7820   30.0850   46.1610 C   0  0  0  0  0  0  0  0  0  0  0  0
   61.4620   33.0230   48.2460 N   0  0  0  0  0  0  0  0  0  0  0  0
   59.2742   31.8876   51.1518 H   0  0  0  0  0  0  0  0  0  0  0  0
   58.1483   33.2756   50.9709 H   0  0  0  0  0  0  0  0  0  0  0  0
   57.5109   31.5962   50.9709 H   0  0  0  0  0  0  0  0  0  0  0  0
   59.3220   31.4672   48.9042 H   0  0  0  0  0  0  0  0  0  0  0  0
   57.5688   31.8427   48.7032 H   0  0  0  0  0  0  0  0  0  0  0  0
   60.0612   34.5655   45.6515 H   0  0  0  0  0  0  0  0  0  0  0  0
   60.1107   35.5104   47.1827 H   0  0  0  0  0  0  0  0  0  0  0  0
   62.6966   34.4563   45.4567 H   0  0  0  0  0  0  0  0  0  0  0  0
   61.4047   30.3755   51.0860 H   0  0  0  0  0  0  0  0  0  0  0  0
   60.7639   31.7050   50.0277 H   0  0  0  0  0  0  0  0  0  0  0  0
   61.0440   31.1510   47.4010 H   0  0  0  0  0  0  0  0  0  0  0  0
   60.8885   27.5884   47.1785 H   0  0  0  0  0  0  0  0  0  0  0  0
   59.4232   26.2772   45.6450 H   0  0  0  0  0  0  0  0  0  0  0  0
   57.5491   27.3969   44.4400 H   0  0  0  0  0  0  0  0  0  0  0  0
   54.9400   29.5340   45.8210 H   0  0  0  0  0  0  0  0  0  0  0  0
   58.5850   31.1553   46.3212 H   0  0  0  0  0  0  0  0  0  0  0  0
  1  2  1  0
  2  3  1  0
  3  4  1  0
  4  5  2  0
  4  6  1  0
  6  7  1  0
  7  8  2  0
  8  9  1  0
  9 10  1  0
 10 11  1  0
 11 12  1  0
 12 13  1  0
 13 14  2  0
 13 15  1  0
 15 16  1  0
 16 17  2  0
 17 18  1  0
 18 19  2  0
 19 20  1  0
 20 21  1  0
 21 22  1  0
 21 23  2  0
 21 24  2  0
 20 25  2  0
 10 26  2  0
 26  7  1  0
 25 16  1  0
  1 27  1  0
  1 28  1  0
  1 29  1  0
  2 30  1  0
  2 31  1  0
  6 32  1  0
  6 33  1  0
  8 34  1  0
 12 35  1  0
 12 36  1  0
 15 37  1  0
 17 38  1  0
 18 39  1  0
 19 40  1  0
 22 41  1  0
 25 42  1  0
M  CHG  1  22  -1
M  END
>  <UniqueID>  (56) 
51

>  <SMILES>  (56) 
CCOC(=O)Cc1csc(SCC(=O)Nc2cccc(S([NH-])(=O)=O)c2)n1

>  <Energy>  (56) 
61.555716453664836

>  <Genealogy>  (56) 
CCOC(=O)Cc1csc(SCC(=O)Nc2cccc(S([NH-])(=O)=O)c2)n1 (protonated)
CCOC(=O)Cc1csc(SCC(=O)Nc2cccc(S([NH-])(=O)=O)c2)n1 (3D coordinates assigned)
CCOC(=O)Cc1csc(SCC(=O)Nc2cccc(S([NH-])(=O)=O)c2)n1 (optimized conformer: 61.555716453664836 kcal/mol)

>  <smiles>  (56) 
CCOC(=O)Cc1csc(SCC(=O)Nc2cccc(S(N)(=O)=O)c2)n1

>  <score_type>  (56) 
oracle

>  <origin>  (56) 
adg

>  <m_score__min__energy>  (56) 
-11.279999999999999

>  <m_primary>  (56) 
energy

$$$$
56:0
     RDKit          3D

 43 45  0  0  0  0  0  0  0  0999 V2000
   58.1672   32.4888   45.1626 H   0  0  0  0  0  0  0  0  0  0  0  0
   57.6320   31.7370   44.5640 C   0  0  0  0  0  0  0  0  0  0  0  0
   56.9830   30.7130   45.1810 N   0  0  0  0  0  0  0  0  0  0  0  0
   56.3020   29.7600   44.4870 C   0  0  0  0  0  0  0  0  0  0  0  0
   55.7050   28.8140   45.1580 N   0  0  0  0  0  0  0  0  0  0  0  0
   56.2740   27.5780   45.6170 C   0  0  0  0  0  0  0  0  0  0  0  0
   55.5060   26.6580   45.9990 O   0  0  0  0  0  0  0  0  0  0  0  0
   57.6900   27.3480   45.6220 N   0  0  0  0  0  0  0  0  0  0  0  0
   58.6870   28.2220   46.1720 C   0  0  0  0  0  0  0  0  0  0  0  0
   59.6090   28.8930   45.3560 C   0  0  0  0  0  0  0  0  0  0  0  0
   59.5799   28.7516   44.2655 H   0  0  0  0  0  0  0  0  0  0  0  0
   60.5640   29.7400   45.9220 C   0  0  0  0  0  0  0  0  0  0  0  0
   61.2732   30.2748   45.2732 H   0  0  0  0  0  0  0  0  0  0  0  0
   60.6250   29.9140   47.3180 C   0  0  0  0  0  0  0  0  0  0  0  0
   61.5700   30.7570   47.9280 O   0  0  0  0  0  0  0  0  0  0  0  0
   61.2790   31.9950   48.5770 C   0  0  0  0  0  0  0  0  0  0  0  0
   60.8115   31.7902   49.5514 H   0  0  0  0  0  0  0  0  0  0  0  0
   62.2182   32.5514   48.7123 H   0  0  0  0  0  0  0  0  0  0  0  0
   60.3400   32.8280   47.7440 C   0  0  0  0  0  0  0  0  0  0  0  0
   58.9520   32.7680   47.9570 C   0  0  0  0  0  0  0  0  0  0  0  0
   58.5444   32.1030   48.7327 H   0  0  0  0  0  0  0  0  0  0  0  0
   58.0880   33.5510   47.1860 C   0  0  0  0  0  0  0  0  0  0  0  0
   57.0020   33.4951   47.3515 H   0  0  0  0  0  0  0  0  0  0  0  0
   58.6010   34.4050   46.2050 C   0  0  0  0  0  0  0  0  0  0  0  0
   57.9189   35.0184   45.5980 H   0  0  0  0  0  0  0  0  0  0  0  0
   59.9810   34.4790   45.9960 C   0  0  0  0  0  0  0  0  0  0  0  0
   60.3848   35.1529   45.2260 H   0  0  0  0  0  0  0  0  0  0  0  0
   60.8490   33.6970   46.7650 C   0  0  0  0  0  0  0  0  0  0  0  0
   61.9349   33.7629   46.6024 H   0  0  0  0  0  0  0  0  0  0  0  0
   59.7190   29.2270   48.1400 C   0  0  0  0  0  0  0  0  0  0  0  0
   59.8050   29.4170   49.5290 O   0  0  0  0  0  0  0  0  0  0  0  0
   60.8150   28.8490   50.3590 C   0  0  0  0  0  0  0  0  0  0  0  0
   60.5484   28.9989   51.4156 H   0  0  0  0  0  0  0  0  0  0  0  0
   60.8978   27.7720   50.1510 H   0  0  0  0  0  0  0  0  0  0  0  0
   61.7783   29.3377   50.1510 H   0  0  0  0  0  0  0  0  0  0  0  0
   58.7580   28.3760   47.5610 C   0  0  0  0  0  0  0  0  0  0  0  0
   58.0566   27.8272   48.2066 H   0  0  0  0  0  0  0  0  0  0  0  0
   56.2920   29.8180   43.0770 C   0  0  0  0  0  0  0  0  0  0  0  0
   55.7712   29.0441   42.4941 H   0  0  0  0  0  0  0  0  0  0  0  0
   56.9480   30.8650   42.4280 C   0  0  0  0  0  0  0  0  0  0  0  0
   56.9355   30.9255   41.3297 H   0  0  0  0  0  0  0  0  0  0  0  0
   57.6190   31.8340   43.1720 C   0  0  0  0  0  0  0  0  0  0  0  0
   58.1325   32.6658   42.6676 H   0  0  0  0  0  0  0  0  0  0  0  0
  1  2  1  0
  2  3  1  0
  3  4  1  0
  4  5  2  0
  5  6  1  0
  6  7  2  0
  6  8  1  0
  8  9  1  0
  9 10  2  0
 10 11  1  0
 10 12  1  0
 12 13  1  0
 12 14  2  0
 14 15  1  0
 15 16  1  0
 16 17  1  0
 16 18  1  0
 16 19  1  0
 19 20  2  0
 20 21  1  0
 20 22  1  0
 22 23  1  0
 22 24  2  0
 24 25  1  0
 24 26  1  0
 26 27  1  0
 26 28  2  0
 28 29  1  0
 14 30  1  0
 30 31  1  0
 31 32  1  0
 32 33  1  0
 32 34  1  0
 32 35  1  0
 30 36  2  0
 36 37  1  0
  4 38  1  0
 38 39  1  0
 38 40  2  0
 40 41  1  0
 40 42  1  0
 42 43  1  0
 42  2  2  0
 36  9  1  0
 28 19  1  0
M  CHG  2   3  -1   8  -1
M  END
>  <UniqueID>  (57) 
52

>  <SMILES>  (57) 
COc1cc([N-]C(=O)/N=c2\cccc[n-]2)ccc1OCc1ccccc1

>  <Energy>  (57) 
56.81989025847643

>  <Genealogy>  (57) 
COc1cc([N-]C(=O)N=c2cccc[n-]2)ccc1OCc1ccccc1 (protonated)
COc1cc([N-]C(=O)/N=c2\cccc[n-]2)ccc1OCc1ccccc1 (cis-trans isomerization)
COc1cc([N-]C(=O)/N=c2\cccc[n-]2)ccc1OCc1ccccc1 (3D coordinates assigned)
COc1cc([N-]C(=O)/N=c2\cccc[n-]2)ccc1OCc1ccccc1 (optimized conformer: 56.81989025847643 kcal/mol)

>  <smiles>  (57) 
COc1cc(NC(=O)N=c2cccc[nH]2)ccc1OCc1ccccc1

>  <score_type>  (57) 
oracle

>  <origin>  (57) 
adg

>  <m_score__min__energy>  (57) 
-10.390000000000001

>  <m_primary>  (57) 
energy

$$$$
57:0
     RDKit          3D

 31 32  0  0  0  0  0  0  0  0999 V2000
   57.8518   32.1925   41.3615 H   0  0  0  0  0  0  0  0  0  0  0  0
   57.7970   32.0860   42.4550 C   0  0  0  0  0  0  0  0  0  0  0  0
   57.2260   30.9420   43.0140 C   0  0  0  0  0  0  0  0  0  0  0  0
   56.8228   30.1561   42.3585 H   0  0  0  0  0  0  0  0  0  0  0  0
   57.1630   30.7880   44.4090 C   0  0  0  0  0  0  0  0  0  0  0  0
   56.5740   29.5590   44.9980 C   0  0  0  0  0  0  0  0  0  0  0  0
   55.3380   29.3430   44.8780 O   0  0  0  0  0  0  0  0  0  0  0  0
   57.3590   28.6390   45.7730 N   0  0  0  0  0  0  0  0  0  0  0  0
   57.1760   27.3520   45.8950 C   0  0  0  0  0  0  0  0  0  0  0  0
   58.2340   26.4660   46.1870 C   0  0  0  0  0  0  0  0  0  0  0  0
   59.2552   26.8502   46.3270 H   0  0  0  0  0  0  0  0  0  0  0  0
   57.9770   25.1000   46.2970 C   0  0  0  0  0  0  0  0  0  0  0  0
   58.7955   24.4033   46.5307 H   0  0  0  0  0  0  0  0  0  0  0  0
   56.6840   24.6180   46.1110 C   0  0  0  0  0  0  0  0  0  0  0  0
   56.4772   23.5406   46.1907 H   0  0  0  0  0  0  0  0  0  0  0  0
   55.6500   25.5150   45.8220 C   0  0  0  0  0  0  0  0  0  0  0  0
   54.2610   25.0040   45.5750 C   0  0  0  0  0  0  0  0  0  0  0  0
   53.7614   24.8202   46.5376 H   0  0  0  0  0  0  0  0  0  0  0  0
   53.6916   25.7515   45.0032 H   0  0  0  0  0  0  0  0  0  0  0  0
   54.3118   24.0657   45.0032 H   0  0  0  0  0  0  0  0  0  0  0  0
   55.9220   26.8470   45.7010 N   0  0  0  0  0  0  0  0  0  0  0  0
   55.1440   27.5050   45.4610 H   0  0  0  0  0  0  0  0  0  0  0  0
   57.6580   31.8160   45.2330 C   0  0  0  0  0  0  0  0  0  0  0  0
   57.6106   31.7061   46.3265 H   0  0  0  0  0  0  0  0  0  0  0  0
   58.2120   32.9810   44.6760 C   0  0  0  0  0  0  0  0  0  0  0  0
   58.7930   34.0480   45.5710 C   0  0  0  0  0  0  0  0  0  0  0  0
   57.9430   34.2550   46.6410 F   0  0  0  0  0  0  0  0  0  0  0  0
   60.0360   33.6690   46.0490 F   0  0  0  0  0  0  0  0  0  0  0  0
   58.9420   35.2360   44.8760 F   0  0  0  0  0  0  0  0  0  0  0  0
   58.2990   33.0960   43.2780 C   0  0  0  0  0  0  0  0  0  0  0  0
   58.7649   33.9861   42.8300 H   0  0  0  0  0  0  0  0  0  0  0  0
  1  2  1  0
  2  3  2  0
  3  4  1  0
  3  5  1  0
  5  6  1  0
  6  7  2  0
  6  8  1  0
  8  9  2  0
  9 10  1  0
 10 11  1  0
 10 12  2  0
 12 13  1  0
 12 14  1  0
 14 15  1  0
 14 16  2  0
 16 17  1  0
 17 18  1  0
 17 19  1  0
 17 20  1  0
 16 21  1  0
 21 22  1  0
  5 23  2  0
 23 24  1  0
 23 25  1  0
 25 26  1  0
 26 27  1  0
 26 28  1  0
 26 29  1  0
 25 30  2  0
 30 31  1  0
 30  2  1  0
 21  9  1  0
M  END
>  <UniqueID>  (58) 
53

>  <SMILES>  (58) 
Cc1ccc/c(=N\C(=O)c2cccc(C(F)(F)F)c2)[nH]1

>  <Energy>  (58) 
42.052066501686234

>  <Genealogy>  (58) 
Cc1ccc/c(=N\C(=O)c2cccc(C(F)(F)F)c2)[nH]1 (cis-trans isomerization)
Cc1ccc/c(=N\C(=O)c2cccc(C(F)(F)F)c2)[nH]1 (3D coordinates assigned)
Cc1ccc/c(=N\C(=O)c2cccc(C(F)(F)F)c2)[nH]1 (optimized conformer: 42.052066501686234 kcal/mol)

>  <smiles>  (58) 
Cc1cccc(=NC(=O)c2cccc(C(F)(F)F)c2)[nH]1

>  <score_type>  (58) 
oracle

>  <origin>  (58) 
adg

>  <m_score__min__energy>  (58) 
-6.9299999999999997

>  <m_primary>  (58) 
energy

$$$$
58:0
     RDKit          3D

 37 38  0  0  0  0  0  0  0  0999 V2000
   63.4660   32.7000   47.1470 C   0  0  0  0  0  0  0  0  0  0  0  0
   62.1110   32.2510   47.6830 C   0  0  0  0  0  0  0  0  0  0  0  0
   61.7760   30.9530   47.1900 O   0  0  0  0  0  0  0  0  0  0  0  0
   60.5950   30.6180   46.5090 C   0  0  0  0  0  0  0  0  0  0  0  0
   60.5050   29.5180   45.6320 C   0  0  0  0  0  0  0  0  0  0  0  0
   59.3000   29.2290   44.9870 C   0  0  0  0  0  0  0  0  0  0  0  0
   58.1720   30.0310   45.2020 C   0  0  0  0  0  0  0  0  0  0  0  0
   56.6440   29.6140   44.4340 S   0  0  0  0  0  0  0  0  0  0  0  0
   56.9080   29.2100   43.0110 O   0  0  0  0  0  0  0  0  0  0  0  0
   55.7230   30.8030   44.4280 O   0  0  0  0  0  0  0  0  0  0  0  0
   55.8860   28.2890   45.2680 N   0  0  0  0  0  0  0  0  0  0  0  0
   56.8720   27.4600   45.9700 C   0  0  0  0  0  0  0  0  0  0  0  0
   56.3570   26.0250   46.1470 C   0  0  2  0  0  0  0  0  0  0  0  0
   56.9840   25.0540   45.1600 C   0  0  0  0  0  0  0  0  0  0  0  0
   55.9080   24.0290   44.9890 C   0  0  0  0  0  0  0  0  0  0  0  0
   54.6390   24.8060   45.2870 C   0  0  0  0  0  0  0  0  0  0  0  0
   54.9590   25.9960   45.9740 O   0  0  0  0  0  0  0  0  0  0  0  0
   58.2600   31.1260   46.0710 C   0  0  0  0  0  0  0  0  0  0  0  0
   59.4640   31.4180   46.7150 C   0  0  0  0  0  0  0  0  0  0  0  0
   64.1379   32.9226   47.9890 H   0  0  0  0  0  0  0  0  0  0  0  0
   63.9013   31.8981   46.5327 H   0  0  0  0  0  0  0  0  0  0  0  0
   63.3363   33.6032   46.5327 H   0  0  0  0  0  0  0  0  0  0  0  0
   62.1498   32.2206   48.7819 H   0  0  0  0  0  0  0  0  0  0  0  0
   61.3445   32.9648   47.3469 H   0  0  0  0  0  0  0  0  0  0  0  0
   61.3869   28.8848   45.4549 H   0  0  0  0  0  0  0  0  0  0  0  0
   59.2367   28.3670   44.3066 H   0  0  0  0  0  0  0  0  0  0  0  0
   57.8044   27.4383   45.3868 H   0  0  0  0  0  0  0  0  0  0  0  0
   57.0502   27.8939   46.9650 H   0  0  0  0  0  0  0  0  0  0  0  0
   56.6365   25.7096   47.1631 H   0  0  0  0  0  0  0  0  0  0  0  0
   57.2157   25.5505   44.2062 H   0  0  0  0  0  0  0  0  0  0  0  0
   57.9403   24.6336   45.5047 H   0  0  0  0  0  0  0  0  0  0  0  0
   55.8976   23.6355   43.9618 H   0  0  0  0  0  0  0  0  0  0  0  0
   56.0400   23.1521   45.6399 H   0  0  0  0  0  0  0  0  0  0  0  0
   54.1322   25.0542   44.3428 H   0  0  0  0  0  0  0  0  0  0  0  0
   53.9750   24.1919   45.9130 H   0  0  0  0  0  0  0  0  0  0  0  0
   57.3772   31.7583   46.2468 H   0  0  0  0  0  0  0  0  0  0  0  0
   59.5248   32.2842   47.3903 H   0  0  0  0  0  0  0  0  0  0  0  0
  1  2  1  0
  2  3  1  0
  3  4  1  0
  4  5  2  0
  5  6  1  0
  6  7  2  0
  7  8  1  0
  8  9  2  0
  8 10  2  0
  8 11  1  0
 11 12  1  0
 12 13  1  0
 13 14  1  0
 14 15  1  0
 15 16  1  0
 16 17  1  0
  7 18  1  0
 18 19  2  0
 19  4  1  0
 17 13  1  0
  1 20  1  0
  1 21  1  0
  1 22  1  0
  2 23  1  0
  2 24  1  0
  5 25  1  0
  6 26  1  0
 12 27  1  0
 12 28  1  0
 13 29  1  1
 14 30  1  0
 14 31  1  0
 15 32  1  0
 15 33  1  0
 16 34  1  0
 16 35  1  0
 18 36  1  0
 19 37  1  0
M  CHG  1  11  -1
M  END
>  <UniqueID>  (59) 
54

>  <SMILES>  (59) 
CCOc1ccc(S(=O)(=O)[N-]C[C@@H]2CCCO2)cc1

>  <Energy>  (59) 
30.92330859296876

>  <Genealogy>  (59) 
CCOc1ccc(S(=O)(=O)[N-]CC2CCCO2)cc1 (protonated)
CCOc1ccc(S(=O)(=O)[N-]C[C@@H]2CCCO2)cc1 (chirality)
CCOc1ccc(S(=O)(=O)[N-]C[C@@H]2CCCO2)cc1 (3D coordinates assigned)
CCOc1ccc(S(=O)(=O)[N-]C[C@@H]2CCCO2)cc1 (nonaromatic ring conformer: 30.92330859296876 kcal/mol)

>  <smiles>  (59) 
CCOc1ccc(S(=O)(=O)NCC2CCCO2)cc1

>  <score_type>  (59) 
oracle

>  <origin>  (59) 
adg

>  <m_score__min__energy>  (59) 
-8.8499999999999996

>  <m_primary>  (59) 
energy

$$$$
59:0
     RDKit          3D

 64 67  0  0  0  0  0  0  0  0999 V2000
   57.6900   31.1020   54.3110 C   0  0  0  0  0  0  0  0  0  0  0  0
   57.8850   31.4970   52.9050 N   0  0  0  0  0  0  0  0  0  0  0  0
   56.5960   31.9370   52.3370 C   0  0  0  0  0  0  0  0  0  0  0  0
   58.9100   32.5660   52.8120 C   0  0  0  0  0  0  0  0  0  0  0  0
   59.8840   32.3380   51.6420 C   0  0  0  0  0  0  0  0  0  0  0  0
   59.1720   31.7870   50.4790 N   0  0  0  0  0  0  0  0  0  0  0  0
   58.5040   32.7100   49.5490 C   0  0  0  0  0  0  0  0  0  0  0  0
   59.5380   33.5170   48.7550 C   0  0  0  0  0  0  0  0  0  0  0  0
   58.9950   33.8850   47.4000 C   0  0  0  0  0  0  0  0  0  0  0  0
   57.7260   33.4360   47.0000 C   0  0  0  0  0  0  0  0  0  0  0  0
   57.2350   33.7520   45.7300 C   0  0  0  0  0  0  0  0  0  0  0  0
   58.0110   34.5110   44.8480 C   0  0  0  0  0  0  0  0  0  0  0  0
   59.2810   34.9500   45.2340 C   0  0  0  0  0  0  0  0  0  0  0  0
   59.7750   34.6350   46.5030 C   0  0  0  0  0  0  0  0  0  0  0  0
   59.1430   30.3670   50.2090 C   0  0  0  0  0  0  0  0  0  0  0  0
   58.1510   29.6880   50.5960 O   0  0  0  0  0  0  0  0  0  0  0  0
   60.2770   29.6600   49.4860 C   0  0  2  0  0  0  0  0  0  0  0  0
   60.7610   30.4690   48.2530 C   0  0  0  0  0  0  0  0  0  0  0  0
   59.7210   30.5370   47.1150 C   0  0  0  0  0  0  0  0  0  0  0  0
   59.0810   29.1940   46.8920 C   0  0  0  0  0  0  0  0  0  0  0  0
   59.0800   28.1980   47.8350 C   0  0  0  0  0  0  0  0  0  0  0  0
   58.1980   27.2450   47.3720 C   0  0  0  0  0  0  0  0  0  0  0  0
   57.6600   27.6790   46.2120 N   0  0  0  0  0  0  0  0  0  0  0  0
   58.1970   28.8590   45.9260 N   0  0  0  0  0  0  0  0  0  0  0  0
   57.8010   29.6470   44.7930 C   0  0  0  0  0  0  0  0  0  0  0  0
   58.5350   30.7910   44.4470 C   0  0  0  0  0  0  0  0  0  0  0  0
   58.1470   31.5730   43.3530 C   0  0  0  0  0  0  0  0  0  0  0  0
   57.0160   31.2260   42.6100 C   0  0  0  0  0  0  0  0  0  0  0  0
   56.6390   31.9870   41.5530 F   0  0  0  0  0  0  0  0  0  0  0  0
   56.2650   30.1010   42.9650 C   0  0  0  0  0  0  0  0  0  0  0  0
   56.6520   29.3160   44.0560 C   0  0  0  0  0  0  0  0  0  0  0  0
   59.8850   28.2110   49.0970 C   0  0  0  0  0  0  0  0  0  0  0  0
   58.0796   31.8911   54.9710 H   0  0  0  0  0  0  0  0  0  0  0  0
   56.6171   30.9576   54.5059 H   0  0  0  0  0  0  0  0  0  0  0  0
   58.2278   30.1624   54.5059 H   0  0  0  0  0  0  0  0  0  0  0  0
   58.2100   30.6500   52.3800 H   0  0  0  0  0  0  0  0  0  0  0  0
   55.8980   32.1753   53.1531 H   0  0  0  0  0  0  0  0  0  0  0  0
   56.7548   32.8318   51.7173 H   0  0  0  0  0  0  0  0  0  0  0  0
   56.1745   31.1319   51.7173 H   0  0  0  0  0  0  0  0  0  0  0  0
   58.4028   33.5314   52.6677 H   0  0  0  0  0  0  0  0  0  0  0  0
   59.4939   32.5558   53.7442 H   0  0  0  0  0  0  0  0  0  0  0  0
   60.3455   33.2968   51.3630 H   0  0  0  0  0  0  0  0  0  0  0  0
   60.6576   31.6224   51.9574 H   0  0  0  0  0  0  0  0  0  0  0  0
   57.8822   32.1317   48.8498 H   0  0  0  0  0  0  0  0  0  0  0  0
   57.8787   33.4060   50.1275 H   0  0  0  0  0  0  0  0  0  0  0  0
   59.7822   34.4357   49.3084 H   0  0  0  0  0  0  0  0  0  0  0  0
   60.4406   32.9028   48.6208 H   0  0  0  0  0  0  0  0  0  0  0  0
   57.1159   32.8332   47.6888 H   0  0  0  0  0  0  0  0  0  0  0  0
   56.2376   33.4035   45.4240 H   0  0  0  0  0  0  0  0  0  0  0  0
   57.6220   34.7626   43.8503 H   0  0  0  0  0  0  0  0  0  0  0  0
   59.8920   35.5439   44.5383 H   0  0  0  0  0  0  0  0  0  0  0  0
   60.7778   34.9753   46.8007 H   0  0  0  0  0  0  0  0  0  0  0  0
   61.1226   29.5959   50.1866 H   0  0  0  0  0  0  0  0  0  0  0  0
   60.9897   31.4949   48.5775 H   0  0  0  0  0  0  0  0  0  0  0  0
   61.6452   29.9513   47.8529 H   0  0  0  0  0  0  0  0  0  0  0  0
   58.9426   31.2671   47.3816 H   0  0  0  0  0  0  0  0  0  0  0  0
   60.2320   30.8409   46.1895 H   0  0  0  0  0  0  0  0  0  0  0  0
   57.9701   26.2889   47.8660 H   0  0  0  0  0  0  0  0  0  0  0  0
   59.4187   31.0746   45.0375 H   0  0  0  0  0  0  0  0  0  0  0  0
   58.7334   32.4621   43.0778 H   0  0  0  0  0  0  0  0  0  0  0  0
   55.3691   29.8332   42.3857 H   0  0  0  0  0  0  0  0  0  0  0  0
   56.0545   28.4364   44.3378 H   0  0  0  0  0  0  0  0  0  0  0  0
   59.2895   27.7683   49.9090 H   0  0  0  0  0  0  0  0  0  0  0  0
   60.8041   27.6289   48.9346 H   0  0  0  0  0  0  0  0  0  0  0  0
  1  2  1  0
  2  3  1  0
  2  4  1  0
  4  5  1  0
  5  6  1  0
  6  7  1  0
  7  8  1  0
  8  9  1  0
  9 10  2  0
 10 11  1  0
 11 12  2  0
 12 13  1  0
 13 14  2  0
  6 15  1  0
 15 16  2  0
 15 17  1  0
 17 18  1  0
 18 19  1  0
 19 20  1  0
 20 21  2  0
 21 22  1  0
 22 23  2  0
 23 24  1  0
 24 25  1  0
 25 26  2  0
 26 27  1  0
 27 28  2  0
 28 29  1  0
 28 30  1  0
 30 31  2  0
 21 32  1  0
 14  9  1  0
 32 17  1  0
 24 20  1  0
 31 25  1  0
  1 33  1  0
  1 34  1  0
  1 35  1  0
  2 36  1  0
  3 37  1  0
  3 38  1  0
  3 39  1  0
  4 40  1  0
  4 41  1  0
  5 42  1  0
  5 43  1  0
  7 44  1  0
  7 45  1  0
  8 46  1  0
  8 47  1  0
 10 48  1  0
 11 49  1  0
 12 50  1  0
 13 51  1  0
 14 52  1  0
 17 53  1  1
 18 54  1  0
 18 55  1  0
 19 56  1  0
 19 57  1  0
 22 58  1  0
 26 59  1  0
 27 60  1  0
 30 61  1  0
 31 62  1  0
 32 63  1  0
 32 64  1  0
M  CHG  1   2   1
M  END
>  <UniqueID>  (60) 
55

>  <SMILES>  (60) 
C[NH+](C)CCN(CCc1ccccc1)C(=O)[C@@H]1CCc2c(cnn2-c2ccc(F)cc2)C1

>  <Energy>  (60) 
100.91768224032361

>  <Genealogy>  (60) 
C[NH+](C)CCN(CCc1ccccc1)C(=O)C1CCc2c(cnn2-c2ccc(F)cc2)C1 (protonated)
C[NH+](C)CCN(CCc1ccccc1)C(=O)[C@@H]1CCc2c(cnn2-c2ccc(F)cc2)C1 (chirality)
C[NH+](C)CCN(CCc1ccccc1)C(=O)[C@@H]1CCc2c(cnn2-c2ccc(F)cc2)C1 (3D coordinates assigned)
C[NH+](C)CCN(CCc1ccccc1)C(=O)[C@@H]1CCc2c(cnn2-c2ccc(F)cc2)C1 (nonaromatic ring conformer: 100.91768224032361 kcal/mol)

>  <smiles>  (60) 
CN(C)CCN(CCc1ccccc1)C(=O)C1CCc2c(cnn2-c2ccc(F)cc2)C1

>  <score_type>  (60) 
oracle

>  <origin>  (60) 
adg

>  <m_score__min__energy>  (60) 
-7.3899999999999997

>  <m_primary>  (60) 
energy

$$$$
60:0
     RDKit          3D

 47 50  0  0  0  0  0  0  0  0999 V2000
   63.5400   32.7840   47.0840 C   0  0  0  0  0  0  0  0  0  0  0  0
   62.5780   33.3290   48.1340 C   0  0  0  0  0  0  0  0  0  0  0  0
   61.7660   32.2460   48.6850 N   0  0  0  0  0  0  0  0  0  0  0  0
   61.8310   30.9350   48.3430 C   0  0  0  0  0  0  0  0  0  0  0  0
   60.8350   30.2130   49.0040 C   0  0  0  0  0  0  0  0  0  0  0  0
   60.5910   28.7640   48.8730 C   0  0  0  0  0  0  0  0  0  0  0  0
   61.0520   27.9940   49.7580 O   0  0  0  0  0  0  0  0  0  0  0  0
   59.8620   28.1880   47.7170 C   0  0  0  0  0  0  0  0  0  0  0  0
   60.3350   27.0200   47.0960 C   0  0  0  0  0  0  0  0  0  0  0  0
   59.6560   26.4730   46.0100 C   0  0  0  0  0  0  0  0  0  0  0  0
   58.4810   27.0660   45.5470 C   0  0  0  0  0  0  0  0  0  0  0  0
   57.9640   28.2040   46.1750 C   0  0  0  0  0  0  0  0  0  0  0  0
   56.7390   28.7520   45.6740 N   0  0  0  0  0  0  0  0  0  0  0  0
   56.5910   29.8540   44.3430 S   0  0  0  0  0  0  0  0  0  0  0  0
   55.1350   30.1380   44.0910 O   0  0  0  0  0  0  0  0  0  0  0  0
   57.2040   29.2610   43.1040 O   0  0  0  0  0  0  0  0  0  0  0  0
   57.4510   31.3470   44.7330 C   0  0  0  0  0  0  0  0  0  0  0  0
   57.7760   31.6280   46.0700 C   0  0  0  0  0  0  0  0  0  0  0  0
   58.4510   32.8060   46.4030 C   0  0  0  0  0  0  0  0  0  0  0  0
   58.8080   33.7140   45.4050 C   0  0  0  0  0  0  0  0  0  0  0  0
   59.6530   35.1930   45.8250 Cl  0  0  0  0  0  0  0  0  0  0  0  0
   58.4910   33.4450   44.0700 C   0  0  0  0  0  0  0  0  0  0  0  0
   57.8120   32.2690   43.7270 C   0  0  0  0  0  0  0  0  0  0  0  0
   57.4030   31.9830   41.8740 Br  0  0  0  0  0  0  0  0  0  0  0  0
   58.6670   28.7790   47.2550 C   0  0  0  0  0  0  0  0  0  0  0  0
   58.2420   29.9400   47.8110 F   0  0  0  0  0  0  0  0  0  0  0  0
   60.1600   31.1400   49.7830 C   0  0  0  0  0  0  0  0  0  0  0  0
   59.1120   31.0420   50.6900 C   0  0  0  0  0  0  0  0  0  0  0  0
   58.6820   32.1880   51.2980 N   0  0  0  0  0  0  0  0  0  0  0  0
   59.2700   33.3980   51.0350 C   0  0  0  0  0  0  0  0  0  0  0  0
   60.3160   33.4860   50.1590 N   0  0  0  0  0  0  0  0  0  0  0  0
   60.7430   32.3510   49.5530 C   0  0  0  0  0  0  0  0  0  0  0  0
   64.3927   32.3009   47.5835 H   0  0  0  0  0  0  0  0  0  0  0  0
   63.0179   32.0475   46.4555 H   0  0  0  0  0  0  0  0  0  0  0  0
   63.9034   33.6104   46.4555 H   0  0  0  0  0  0  0  0  0  0  0  0
   63.1535   33.8001   48.9444 H   0  0  0  0  0  0  0  0  0  0  0  0
   61.9157   34.0706   47.6635 H   0  0  0  0  0  0  0  0  0  0  0  0
   62.5632   30.5026   47.6452 H   0  0  0  0  0  0  0  0  0  0  0  0
   61.2481   26.5340   47.4702 H   0  0  0  0  0  0  0  0  0  0  0  0
   60.0470   25.5713   45.5161 H   0  0  0  0  0  0  0  0  0  0  0  0
   57.9569   26.6351   44.6811 H   0  0  0  0  0  0  0  0  0  0  0  0
   57.4974   30.9161   46.8609 H   0  0  0  0  0  0  0  0  0  0  0  0
   58.7011   33.0176   47.4531 H   0  0  0  0  0  0  0  0  0  0  0  0
   58.7764   34.1608   43.2850 H   0  0  0  0  0  0  0  0  0  0  0  0
   58.6429   30.0721   50.9118 H   0  0  0  0  0  0  0  0  0  0  0  0
   57.8950   32.1400   51.9800 H   0  0  0  0  0  0  0  0  0  0  0  0
   58.8973   34.3054   51.5327 H   0  0  0  0  0  0  0  0  0  0  0  0
  1  2  1  0
  2  3  1  0
  3  4  1  0
  4  5  2  0
  5  6  1  0
  6  7  2  0
  6  8  1  0
  8  9  2  0
  9 10  1  0
 10 11  2  0
 11 12  1  0
 12 13  1  0
 13 14  1  0
 14 15  2  0
 14 16  2  0
 14 17  1  0
 17 18  2  0
 18 19  1  0
 19 20  2  0
 20 21  1  0
 20 22  1  0
 22 23  2  0
 23 24  1  0
 12 25  2  0
 25 26  1  0
  5 27  1  0
 27 28  2  0
 28 29  1  0
 29 30  2  0
 30 31  1  0
 31 32  2  0
 32  3  1  0
 25  8  1  0
 32 27  1  0
 23 17  1  0
  1 33  1  0
  1 34  1  0
  1 35  1  0
  2 36  1  0
  2 37  1  0
  4 38  1  0
  9 39  1  0
 10 40  1  0
 11 41  1  0
 18 42  1  0
 19 43  1  0
 22 44  1  0
 28 45  1  0
 29 46  1  0
 30 47  1  0
M  CHG  2  13  -1  29   1
M  END
>  <UniqueID>  (61) 
56

>  <SMILES>  (61) 
CCn1cc(C(=O)c2cccc([N-]S(=O)(=O)c3ccc(Cl)cc3Br)c2F)c2c[nH+]cnc21

>  <Energy>  (61) 
98.87802893494856

>  <Genealogy>  (61) 
CCn1cc(C(=O)c2cccc([N-]S(=O)(=O)c3ccc(Cl)cc3Br)c2F)c2c[nH+]cnc21 (protonated)
CCn1cc(C(=O)c2cccc([N-]S(=O)(=O)c3ccc(Cl)cc3Br)c2F)c2c[nH+]cnc21 (3D coordinates assigned)
CCn1cc(C(=O)c2cccc([N-]S(=O)(=O)c3ccc(Cl)cc3Br)c2F)c2c[nH+]cnc21 (optimized conformer: 98.87802893494856 kcal/mol)

>  <smiles>  (61) 
CCn1cc(C(=O)c2cccc(NS(=O)(=O)c3ccc(Cl)cc3Br)c2F)c2cncnc21

>  <score_type>  (61) 
oracle

>  <origin>  (61) 
adg

>  <m_score__min__energy>  (61) 
-10.380000000000001

>  <m_primary>  (61) 
energy

$$$$
61:0
     RDKit          3D

 32 34  0  0  0  0  0  0  0  0999 V2000
   58.9640   34.8240   51.1170 H   0  0  0  0  0  0  0  0  0  0  0  0
   59.4950   34.2150   50.5050 O   0  0  0  0  0  0  0  0  0  0  0  0
   59.3370   32.8290   50.5160 C   0  0  0  0  0  0  0  0  0  0  0  0
   60.0470   32.0610   49.5890 C   0  0  0  0  0  0  0  0  0  0  0  0
   60.7074   32.5544   48.8607 H   0  0  0  0  0  0  0  0  0  0  0  0
   59.9220   30.6700   49.5830 C   0  0  0  0  0  0  0  0  0  0  0  0
   60.4972   30.0697   48.8627 H   0  0  0  0  0  0  0  0  0  0  0  0
   59.0680   30.0410   50.4900 C   0  0  0  0  0  0  0  0  0  0  0  0
   58.9795   28.9446   50.4862 H   0  0  0  0  0  0  0  0  0  0  0  0
   58.3220   30.7960   51.4060 C   0  0  0  0  0  0  0  0  0  0  0  0
   57.4030   30.0870   52.3160 C   0  0  0  0  0  0  0  0  0  0  0  0
   57.8394   29.4271   53.0803 H   0  0  0  0  0  0  0  0  0  0  0  0
   56.0710   30.1980   52.2680 C   0  0  0  0  0  0  0  0  0  0  0  0
   55.4190   31.3080   51.7250 O   0  0  0  0  0  0  0  0  0  0  0  0
   54.0500   31.0850   51.8430 C   0  0  0  0  0  0  0  0  0  0  0  0
   53.0240   31.9310   51.4260 C   0  0  0  0  0  0  0  0  0  0  0  0
   53.2473   32.8930   50.9416 H   0  0  0  0  0  0  0  0  0  0  0  0
   51.6950   31.5220   51.6410 C   0  0  0  0  0  0  0  0  0  0  0  0
   50.6470   32.3400   51.2390 O   0  0  0  0  0  0  0  0  0  0  0  0
   51.4210   30.2850   52.2660 C   0  0  0  0  0  0  0  0  0  0  0  0
   50.3785   29.9749   52.4305 H   0  0  0  0  0  0  0  0  0  0  0  0
   52.4720   29.4480   52.6790 C   0  0  0  0  0  0  0  0  0  0  0  0
   52.2700   28.4840   53.1687 H   0  0  0  0  0  0  0  0  0  0  0  0
   53.7780   29.8770   52.4490 C   0  0  0  0  0  0  0  0  0  0  0  0
   55.0510   29.2590   52.7580 C   0  0  0  0  0  0  0  0  0  0  0  0
   55.2280   28.1800   53.3830 O   0  0  0  0  0  0  0  0  0  0  0  0
   58.4890   32.2000   51.4490 C   0  0  0  0  0  0  0  0  0  0  0  0
   57.8200   32.9860   52.3950 O   0  0  0  0  0  0  0  0  0  0  0  0
   58.4990   33.6320   53.4650 C   0  0  0  0  0  0  0  0  0  0  0  0
   58.1088   33.2608   54.4241 H   0  0  0  0  0  0  0  0  0  0  0  0
   59.5757   33.4167   53.3992 H   0  0  0  0  0  0  0  0  0  0  0  0
   58.3376   34.7181   53.3992 H   0  0  0  0  0  0  0  0  0  0  0  0
  1  2  1  0
  2  3  1  0
  3  4  2  0
  4  5  1  0
  4  6  1  0
  6  7  1  0
  6  8  2  0
  8  9  1  0
  8 10  1  0
 10 11  1  0
 11 12  1  0
 11 13  2  0
 13 14  1  0
 14 15  1  0
 15 16  2  0
 16 17  1  0
 16 18  1  0
 18 19  1  0
 18 20  2  0
 20 21  1  0
 20 22  1  0
 22 23  1  0
 22 24  2  0
 24 25  1  0
 25 26  2  0
 10 27  2  0
 27 28  1  0
 28 29  1  0
 29 30  1  0
 29 31  1  0
 29 32  1  0
 27  3  1  0
 25 13  1  0
 24 15  1  0
M  CHG  1  19  -1
M  END
>  <UniqueID>  (62) 
57

>  <SMILES>  (62) 
COc1c(O)cccc1/C=C1/Oc2cc([O-])ccc2C1=O

>  <Energy>  (62) 
79.19521935090408

>  <Genealogy>  (62) 
COc1c(O)cccc1C=C1Oc2cc([O-])ccc2C1=O (protonated)
COc1c(O)cccc1/C=C1/Oc2cc([O-])ccc2C1=O (cis-trans isomerization)
COc1c(O)cccc1/C=C1/Oc2cc([O-])ccc2C1=O (3D coordinates assigned)
COc1c(O)cccc1/C=C1/Oc2cc([O-])ccc2C1=O (nonaromatic ring conformer: 79.19521935090408 kcal/mol)

>  <smiles>  (62) 
COc1c(O)cccc1C=C1Oc2cc(O)ccc2C1=O

>  <score_type>  (62) 
oracle

>  <origin>  (62) 
adg

>  <m_score__min__energy>  (62) 
-9.5299999999999994

>  <m_primary>  (62) 
energy

$$$$
62:0
     RDKit          3D

 32 34  0  0  0  0  0  0  0  0999 V2000
   59.5870   35.2980   46.0860 C   0  0  0  0  0  0  0  0  0  0  0  0
   60.3360   34.8560   47.2130 O   0  0  0  0  0  0  0  0  0  0  0  0
   61.0330   33.6400   47.2730 C   0  0  0  0  0  0  0  0  0  0  0  0
   62.3130   33.6380   47.8380 C   0  0  0  0  0  0  0  0  0  0  0  0
   63.0500   32.4540   47.9210 C   0  0  0  0  0  0  0  0  0  0  0  0
   62.5120   31.2590   47.4380 C   0  0  0  0  0  0  0  0  0  0  0  0
   61.2310   31.2370   46.8680 C   0  0  0  0  0  0  0  0  0  0  0  0
   60.6680   29.9710   46.3600 C   0  0  0  0  0  0  0  0  0  0  0  0
   61.0980   29.3310   45.2540 N   0  0  0  0  0  0  0  0  0  0  0  0
   60.3500   28.2460   45.1350 N   0  0  0  0  0  0  0  0  0  0  0  0
   59.4900   28.2620   46.1730 C   0  0  0  0  0  0  0  0  0  0  0  0
   58.4680   27.2290   46.4280 C   0  0  0  0  0  0  0  0  0  0  0  0
   58.8330   26.0060   47.0150 C   0  0  0  0  0  0  0  0  0  0  0  0
   57.8680   25.0240   47.2590 C   0  0  0  0  0  0  0  0  0  0  0  0
   56.5300   25.2480   46.9210 C   0  0  0  0  0  0  0  0  0  0  0  0
   55.5890   24.2520   47.1760 O   0  0  0  0  0  0  0  0  0  0  0  0
   56.1560   26.4690   46.3340 C   0  0  0  0  0  0  0  0  0  0  0  0
   54.8320   26.7100   45.9920 O   0  0  0  0  0  0  0  0  0  0  0  0
   57.1220   27.4520   46.0900 C   0  0  0  0  0  0  0  0  0  0  0  0
   59.6810   29.3180   46.9270 O   0  0  0  0  0  0  0  0  0  0  0  0
   60.4930   32.4320   46.7860 C   0  0  0  0  0  0  0  0  0  0  0  0
   58.6870   35.8291   46.4293 H   0  0  0  0  0  0  0  0  0  0  0  0
   60.2041   35.9767   45.4789 H   0  0  0  0  0  0  0  0  0  0  0  0
   59.2912   34.4297   45.4789 H   0  0  0  0  0  0  0  0  0  0  0  0
   62.7424   34.5760   48.2198 H   0  0  0  0  0  0  0  0  0  0  0  0
   64.0553   32.4629   48.3673 H   0  0  0  0  0  0  0  0  0  0  0  0
   63.0966   30.3296   47.5051 H   0  0  0  0  0  0  0  0  0  0  0  0
   59.8832   25.8200   47.2840 H   0  0  0  0  0  0  0  0  0  0  0  0
   58.1633   24.0697   47.7196 H   0  0  0  0  0  0  0  0  0  0  0  0
   54.5930   24.4400   47.1760 H   0  0  0  0  0  0  0  0  0  0  0  0
   56.8256   28.4063   45.6302 H   0  0  0  0  0  0  0  0  0  0  0  0
   59.4880   32.4238   46.3390 H   0  0  0  0  0  0  0  0  0  0  0  0
  1  2  1  0
  2  3  1  0
  3  4  2  0
  4  5  1  0
  5  6  2  0
  6  7  1  0
  7  8  1  0
  8  9  2  0
  9 10  1  0
 10 11  2  0
 11 12  1  0
 12 13  2  0
 13 14  1  0
 14 15  2  0
 15 16  1  0
 15 17  1  0
 17 18  1  0
 17 19  2  0
 11 20  1  0
  7 21  2  0
 21  3  1  0
 20  8  1  0
 19 12  1  0
  1 22  1  0
  1 23  1  0
  1 24  1  0
  4 25  1  0
  5 26  1  0
  6 27  1  0
 13 28  1  0
 14 29  1  0
 16 30  1  0
 19 31  1  0
 21 32  1  0
M  CHG  1  18  -1
M  END
>  <UniqueID>  (63) 
58

>  <SMILES>  (63) 
COc1cccc(-c2nnc(-c3ccc(O)c([O-])c3)o2)c1

>  <Energy>  (63) 
69.1790665803786

>  <Genealogy>  (63) 
COc1cccc(-c2nnc(-c3ccc(O)c([O-])c3)o2)c1 (protonated)
COc1cccc(-c2nnc(-c3ccc(O)c([O-])c3)o2)c1 (3D coordinates assigned)
COc1cccc(-c2nnc(-c3ccc(O)c([O-])c3)o2)c1 (optimized conformer: 69.1790665803786 kcal/mol)

>  <smiles>  (63) 
COc1cccc(-c2nnc(-c3ccc(O)c(O)c3)o2)c1

>  <score_type>  (63) 
oracle

>  <origin>  (63) 
adg

>  <m_score__min__energy>  (63) 
-10.130000000000001

>  <m_primary>  (63) 
energy

$$$$
63:0
     RDKit          3D

 44 47  0  0  0  0  0  0  0  0999 V2000
   61.8101   34.4460   50.2034 H   0  0  0  0  0  0  0  0  0  0  0  0
   61.9410   34.2290   49.1330 C   0  0  0  0  0  0  0  0  0  0  0  0
   63.1910   34.0790   48.6190 N   0  0  0  0  0  0  0  0  0  0  0  0
   63.3920   33.8080   47.3020 C   0  0  0  0  0  0  0  0  0  0  0  0
   64.4152   33.6908   46.9156 H   0  0  0  0  0  0  0  0  0  0  0  0
   62.3010   33.6780   46.4380 C   0  0  0  0  0  0  0  0  0  0  0  0
   62.4615   33.4644   45.3709 H   0  0  0  0  0  0  0  0  0  0  0  0
   61.0000   33.8220   46.9420 C   0  0  0  0  0  0  0  0  0  0  0  0
   59.8180   33.7100   46.0190 C   0  0  0  0  0  0  0  0  0  0  0  0
   60.1701   33.6988   44.9769 H   0  0  0  0  0  0  0  0  0  0  0  0
   59.1527   34.5710   46.1805 H   0  0  0  0  0  0  0  0  0  0  0  0
   59.0810   32.4790   46.2930 N   0  0  0  0  0  0  0  0  0  0  0  0
   58.9050   32.2280   47.2910 H   0  0  0  0  0  0  0  0  0  0  0  0
   58.5460   31.6550   45.2440 C   0  0  0  0  0  0  0  0  0  0  0  0
   58.5120   32.0960   44.0620 O   0  0  0  0  0  0  0  0  0  0  0  0
   58.0190   30.2990   45.5300 C   0  0  0  0  0  0  0  0  0  0  0  0
   58.6580   29.4790   46.4760 C   0  0  0  0  0  0  0  0  0  0  0  0
   59.5539   29.8453   46.9987 H   0  0  0  0  0  0  0  0  0  0  0  0
   58.1650   28.2030   46.7580 C   0  0  0  0  0  0  0  0  0  0  0  0
   58.6692   27.5772   47.5091 H   0  0  0  0  0  0  0  0  0  0  0  0
   57.0350   27.7140   46.0930 C   0  0  0  0  0  0  0  0  0  0  0  0
   56.5420   26.4080   46.4390 N   0  0  0  0  0  0  0  0  0  0  0  0
   56.1070   25.4940   45.6200 C   0  0  0  0  0  0  0  0  0  0  0  0
   54.8220   25.0680   45.7280 N   0  0  0  0  0  0  0  0  0  0  0  0
   54.3240   24.0980   44.9130 C   0  0  0  0  0  0  0  0  0  0  0  0
   52.9220   23.6670   45.0570 C   0  0  0  0  0  0  0  0  0  0  0  0
   52.5540   22.4590   45.4190 O   0  0  0  0  0  0  0  0  0  0  0  0
   51.2420   22.4110   45.4480 C   0  0  0  0  0  0  0  0  0  0  0  0
   50.6463   21.5264   45.7175 H   0  0  0  0  0  0  0  0  0  0  0  0
   50.7240   23.6390   45.0890 C   0  0  0  0  0  0  0  0  0  0  0  0
   49.6609   23.9129   45.0191 H   0  0  0  0  0  0  0  0  0  0  0  0
   51.8060   24.4520   44.8360 C   0  0  0  0  0  0  0  0  0  0  0  0
   51.7864   25.5064   44.5232 H   0  0  0  0  0  0  0  0  0  0  0  0
   55.1550   23.5190   43.9480 C   0  0  0  0  0  0  0  0  0  0  0  0
   54.7749   22.7351   43.2764 H   0  0  0  0  0  0  0  0  0  0  0  0
   56.4750   23.9570   43.8560 C   0  0  0  0  0  0  0  0  0  0  0  0
   57.1503   23.5169   43.1075 H   0  0  0  0  0  0  0  0  0  0  0  0
   56.9260   24.9270   44.6910 N   0  0  0  0  0  0  0  0  0  0  0  0
   56.3660   28.5470   45.1790 C   0  0  0  0  0  0  0  0  0  0  0  0
   55.4502   28.1911   44.6843 H   0  0  0  0  0  0  0  0  0  0  0  0
   56.8570   29.8240   44.8950 C   0  0  0  0  0  0  0  0  0  0  0  0
   56.3312   30.4624   44.1698 H   0  0  0  0  0  0  0  0  0  0  0  0
   60.8220   34.1080   48.3040 C   0  0  0  0  0  0  0  0  0  0  0  0
   59.8102   34.2360   48.7161 H   0  0  0  0  0  0  0  0  0  0  0  0
  1  2  1  0
  2  3  2  0
  3  4  1  0
  4  5  1  0
  4  6  2  0
  6  7  1  0
  6  8  1  0
  8  9  1  0
  9 10  1  0
  9 11  1  0
  9 12  1  0
 12 13  1  0
 12 14  1  0
 14 15  2  0
 14 16  1  0
 16 17  2  0
 17 18  1  0
 17 19  1  0
 19 20  1  0
 19 21  2  0
 21 22  1  0
 22 23  2  0
 23 24  1  0
 24 25  2  0
 25 26  1  0
 26 27  1  0
 27 28  1  0
 28 29  1  0
 28 30  2  0
 30 31  1  0
 30 32  1  0
 32 33  1  0
 25 34  1  0
 34 35  1  0
 34 36  2  0
 36 37  1  0
 36 38  1  0
 21 39  1  0
 39 40  1  0
 39 41  2  0
 41 42  1  0
  8 43  2  0
 43 44  1  0
 43  2  1  0
 41 16  1  0
 38 23  1  0
 32 26  2  0
M  CHG  1  38  -1
M  END
>  <UniqueID>  (64) 
59

>  <SMILES>  (64) 
O=C(NCc1ccncc1)c1ccc(/N=c2/nc(-c3ccco3)cc[n-]2)cc1

>  <Energy>  (64) 
82.48413486277572

>  <Genealogy>  (64) 
O=C(NCc1ccncc1)c1ccc(N=c2nc(-c3ccco3)cc[n-]2)cc1 (protonated)
O=C(NCc1ccncc1)c1ccc(/N=c2/nc(-c3ccco3)cc[n-]2)cc1 (cis-trans isomerization)
O=C(NCc1ccncc1)c1ccc(/N=c2/nc(-c3ccco3)cc[n-]2)cc1 (3D coordinates assigned)
O=C(NCc1ccncc1)c1ccc(/N=c2/nc(-c3ccco3)cc[n-]2)cc1 (optimized conformer: 82.48413486277572 kcal/mol)

>  <smiles>  (64) 
O=C(NCc1ccncc1)c1ccc(N=c2nc(-c3ccco3)cc[nH]2)cc1

>  <score_type>  (64) 
oracle

>  <origin>  (64) 
adg

>  <m_score__min__energy>  (64) 
-9.5

>  <m_primary>  (64) 
energy

$$$$
64:0
     RDKit          3D

 36 38  0  0  0  0  0  0  0  0999 V2000
   54.7730   28.1740   44.5020 H   0  0  0  0  0  0  0  0  0  0  0  0
   55.1500   29.0970   44.6880 O   0  0  0  0  0  0  0  0  0  0  0  0
   56.4790   29.2810   45.0700 C   0  0  0  0  0  0  0  0  0  0  0  0
   57.1010   30.5110   44.8140 C   0  0  0  0  0  0  0  0  0  0  0  0
   56.5361   31.3169   44.3226 H   0  0  0  0  0  0  0  0  0  0  0  0
   58.4310   30.7200   45.1780 C   0  0  0  0  0  0  0  0  0  0  0  0
   58.9031   31.6959   44.9914 H   0  0  0  0  0  0  0  0  0  0  0  0
   59.1690   29.6910   45.7810 C   0  0  0  0  0  0  0  0  0  0  0  0
   60.5370   29.8860   46.1740 N   0  0  0  0  0  0  0  0  0  0  0  0
   60.9240   30.4170   47.2730 N   0  0  0  0  0  0  0  0  0  0  0  0
   60.0910   30.6300   48.4220 C   0  0  0  0  0  0  0  0  0  0  0  0
   59.7420   29.5410   49.2300 C   0  0  0  0  0  0  0  0  0  0  0  0
   60.1456   28.5419   49.0089 H   0  0  0  0  0  0  0  0  0  0  0  0
   58.8810   29.7210   50.3180 C   0  0  0  0  0  0  0  0  0  0  0  0
   58.5898   28.8585   50.9355 H   0  0  0  0  0  0  0  0  0  0  0  0
   58.3890   30.9960   50.6230 C   0  0  0  0  0  0  0  0  0  0  0  0
   57.2100   31.1890   51.9160 S   0  0  0  0  0  0  0  0  0  0  0  0
   56.7150   32.6070   51.9860 O   0  0  0  0  0  0  0  0  0  0  0  0
   57.8630   30.8430   53.2250 O   0  0  0  0  0  0  0  0  0  0  0  0
   55.8690   30.1220   51.6460 N   0  0  0  0  0  0  0  0  0  0  0  0
   54.6380   30.4010   51.9480 C   0  0  0  0  0  0  0  0  0  0  0  0
   53.7530   30.8450   51.0320 N   0  0  0  0  0  0  0  0  0  0  0  0
   52.5450   31.0820   51.5450 N   0  0  0  0  0  0  0  0  0  0  0  0
   52.4590   30.8280   52.8710 C   0  0  0  0  0  0  0  0  0  0  0  0
   51.5484   30.9618   53.4735 H   0  0  0  0  0  0  0  0  0  0  0  0
   53.9310   30.2800   53.4760 S   0  0  0  0  0  0  0  0  0  0  0  0
   58.7880   32.0970   49.8520 C   0  0  0  0  0  0  0  0  0  0  0  0
   58.4290   33.1050   50.1071 H   0  0  0  0  0  0  0  0  0  0  0  0
   59.6410   31.9160   48.7600 C   0  0  0  0  0  0  0  0  0  0  0  0
   59.9606   32.7834   48.1638 H   0  0  0  0  0  0  0  0  0  0  0  0
   58.5410   28.4760   46.0720 C   0  0  0  0  0  0  0  0  0  0  0  0
   59.1048   27.6860   46.5897 H   0  0  0  0  0  0  0  0  0  0  0  0
   57.1980   28.2470   45.7130 C   0  0  0  0  0  0  0  0  0  0  0  0
   56.5710   26.9340   46.0170 C   0  0  0  0  0  0  0  0  0  0  0  0
   57.2840   25.9560   46.3710 O   0  0  0  0  0  0  0  0  0  0  0  0
   55.1970   26.7530   45.9190 O   0  0  0  0  0  0  0  0  0  0  0  0
  1  2  1  0
  2  3  1  0
  3  4  2  0
  4  5  1  0
  4  6  1  0
  6  7  1  0
  6  8  2  0
  8  9  1  0
  9 10  2  3
 10 11  1  0
 11 12  2  0
 12 13  1  0
 12 14  1  0
 14 15  1  0
 14 16  2  0
 16 17  1  0
 17 18  2  0
 17 19  2  0
 17 20  1  0
 20 21  2  0
 21 22  1  0
 22 23  1  0
 23 24  2  0
 24 25  1  0
 24 26  1  0
 16 27  1  0
 27 28  1  0
 27 29  2  0
 29 30  1  0
  8 31  1  0
 31 32  1  0
 31 33  2  0
 33 34  1  0
 34 35  2  0
 34 36  1  0
 33  3  1  0
 29 11  1  0
 26 21  1  0
M  CHG  2  22  -1  36  -1
M  END
>  <UniqueID>  (65) 
60

>  <SMILES>  (65) 
O=C([O-])c1cc(N=Nc2ccc(S(=O)(=O)/N=c3/[n-]ncs3)cc2)ccc1O

>  <Energy>  (65) 
90.54407605047412

>  <Genealogy>  (65) 
O=C([O-])c1cc(N=Nc2ccc(S(=O)(=O)N=c3[n-]ncs3)cc2)ccc1O (protonated)
O=C([O-])c1cc(N=Nc2ccc(S(=O)(=O)/N=c3/[n-]ncs3)cc2)ccc1O (cis-trans isomerization)
O=C([O-])c1cc(N=Nc2ccc(S(=O)(=O)/N=c3/[n-]ncs3)cc2)ccc1O (3D coordinates assigned)
O=C([O-])c1cc(N=Nc2ccc(S(=O)(=O)/N=c3/[n-]ncs3)cc2)ccc1O (optimized conformer: 90.54407605047412 kcal/mol)

>  <smiles>  (65) 
O=C(O)c1cc(N=Nc2ccc(S(=O)(=O)N=c3[nH]ncs3)cc2)ccc1O

>  <score_type>  (65) 
oracle

>  <origin>  (65) 
adg

>  <m_score__min__energy>  (65) 
-12.300000000000001

>  <m_primary>  (65) 
energy

$$$$
65:0
     RDKit          3D

 25 26  0  0  0  0  0  0  0  0999 V2000
   58.2480   32.7200   42.9480 O   0  0  0  0  0  0  0  0  0  0  0  0
   58.1500   32.4150   44.1680 C   0  0  0  0  0  0  0  0  0  0  0  0
   58.6330   33.3800   45.1880 C   0  0  0  0  0  0  0  0  0  0  0  0
   58.4610   33.1010   46.5560 C   0  0  0  0  0  0  0  0  0  0  0  0
   58.8970   34.0110   47.5230 C   0  0  0  0  0  0  0  0  0  0  0  0
   59.4970   35.2120   47.1370 C   0  0  0  0  0  0  0  0  0  0  0  0
   59.6570   35.5070   45.7810 C   0  0  0  0  0  0  0  0  0  0  0  0
   59.2240   34.6000   44.8090 C   0  0  0  0  0  0  0  0  0  0  0  0
   57.5560   31.1060   44.5330 C   0  0  0  0  0  0  0  0  0  0  0  0
   58.2400   30.2080   45.3740 C   0  0  0  0  0  0  0  0  0  0  0  0
   57.6610   28.9850   45.7250 C   0  0  0  0  0  0  0  0  0  0  0  0
   56.3880   28.6470   45.2480 C   0  0  0  0  0  0  0  0  0  0  0  0
   55.8010   27.4300   45.5900 O   0  0  0  0  0  0  0  0  0  0  0  0
   55.6960   29.5400   44.4250 C   0  0  0  0  0  0  0  0  0  0  0  0
   56.2730   30.7640   44.0730 C   0  0  0  0  0  0  0  0  0  0  0  0
   57.9807   32.1614   46.8664 H   0  0  0  0  0  0  0  0  0  0  0  0
   58.7674   33.7809   48.5908 H   0  0  0  0  0  0  0  0  0  0  0  0
   59.8431   35.9247   47.9001 H   0  0  0  0  0  0  0  0  0  0  0  0
   60.1248   36.4551   45.4772 H   0  0  0  0  0  0  0  0  0  0  0  0
   59.3458   34.8411   43.7427 H   0  0  0  0  0  0  0  0  0  0  0  0
   59.2370   30.4704   45.7576 H   0  0  0  0  0  0  0  0  0  0  0  0
   58.2061   28.2867   46.3771 H   0  0  0  0  0  0  0  0  0  0  0  0
   55.8980   26.6120   44.9990 H   0  0  0  0  0  0  0  0  0  0  0  0
   54.6942   29.2790   44.0530 H   0  0  0  0  0  0  0  0  0  0  0  0
   55.7185   31.4644   43.4312 H   0  0  0  0  0  0  0  0  0  0  0  0
  1  2  2  0
  2  3  1  0
  3  4  2  0
  4  5  1  0
  5  6  2  0
  6  7  1  0
  7  8  2  0
  2  9  1  0
  9 10  2  0
 10 11  1  0
 11 12  2  0
 12 13  1  0
 12 14  1  0
 14 15  2  0
  8  3  1  0
 15  9  1  0
  4 16  1  0
  5 17  1  0
  6 18  1  0
  7 19  1  0
  8 20  1  0
 10 21  1  0
 11 22  1  0
 13 23  1  0
 14 24  1  0
 15 25  1  0
M  END
>  <UniqueID>  (66) 
61

>  <SMILES>  (66) 
O=C(c1ccccc1)c1ccc(O)cc1

>  <Energy>  (66) 
31.749262057763705

>  <Genealogy>  (66) 
O=C(c1ccccc1)c1ccc(O)cc1 (3D coordinates assigned)
O=C(c1ccccc1)c1ccc(O)cc1 (optimized conformer: 31.749262057763705 kcal/mol)

>  <smiles>  (66) 
O=C(c1ccccc1)c1ccc(O)cc1

>  <score_type>  (66) 
oracle

>  <origin>  (66) 
adg

>  <m_score__min__energy>  (66) 
-6.6900000000000004

>  <m_primary>  (66) 
energy

$$$$
66:0
     RDKit          3D

 46 49  0  0  0  0  0  0  0  0999 V2000
   56.3060   25.1140   47.6660 O   0  0  0  0  0  0  0  0  0  0  0  0
   56.3580   25.6690   46.2700 S   0  0  0  0  0  0  0  0  0  0  0  0
   55.1530   26.5290   46.0060 O   0  0  0  0  0  0  0  0  0  0  0  0
   57.7870   26.6350   46.0960 N   0  0  0  0  0  0  0  0  0  0  0  0
   57.8120   28.0040   45.6760 C   0  0  0  0  0  0  0  0  0  0  0  0
   58.9890   28.7680   45.6930 C   0  0  0  0  0  0  0  0  0  0  0  0
   58.9560   30.0930   45.2570 C   0  0  0  0  0  0  0  0  0  0  0  0
   57.7510   30.6620   44.8110 C   0  0  0  0  0  0  0  0  0  0  0  0
   57.6750   32.0280   44.3600 N   0  0  0  0  0  0  0  0  0  0  0  0
   57.8850   33.4060   45.3960 S   0  0  0  0  0  0  0  0  0  0  0  0
   56.5740   33.7390   46.0500 O   0  0  0  0  0  0  0  0  0  0  0  0
   58.3280   34.5800   44.5670 O   0  0  0  0  0  0  0  0  0  0  0  0
   59.0690   33.0430   46.6480 C   0  0  0  0  0  0  0  0  0  0  0  0
   58.6590   32.5010   47.8770 C   0  0  0  0  0  0  0  0  0  0  0  0
   59.6040   32.2270   48.8710 C   0  0  0  0  0  0  0  0  0  0  0  0
   60.9580   32.4880   48.6430 C   0  0  0  0  0  0  0  0  0  0  0  0
   61.3730   33.0300   47.4210 C   0  0  0  0  0  0  0  0  0  0  0  0
   63.2190   33.4160   47.1220 Br  0  0  0  0  0  0  0  0  0  0  0  0
   60.4290   33.3040   46.4230 C   0  0  0  0  0  0  0  0  0  0  0  0
   56.5960   29.8630   44.8170 C   0  0  0  0  0  0  0  0  0  0  0  0
   55.4050   30.3670   44.4040 F   0  0  0  0  0  0  0  0  0  0  0  0
   56.6570   28.5730   45.2410 N   0  0  0  0  0  0  0  0  0  0  0  0
   56.3760   24.3230   45.1150 C   0  0  0  0  0  0  0  0  0  0  0  0
   55.2130   24.0620   44.3710 C   0  0  0  0  0  0  0  0  0  0  0  0
   55.1750   23.0220   43.4440 C   0  0  0  0  0  0  0  0  0  0  0  0
   56.2950   22.2210   43.2370 C   0  0  0  0  0  0  0  0  0  0  0  0
   57.4710   22.4550   43.9610 C   0  0  0  0  0  0  0  0  0  0  0  0
   58.5970   21.6470   43.7420 C   0  0  0  0  0  0  0  0  0  0  0  0
   59.7760   21.8730   44.4540 C   0  0  0  0  0  0  0  0  0  0  0  0
   59.8410   22.9080   45.3870 C   0  0  0  0  0  0  0  0  0  0  0  0
   58.7310   23.7220   45.6180 C   0  0  0  0  0  0  0  0  0  0  0  0
   57.5260   23.5130   44.9110 C   0  0  0  0  0  0  0  0  0  0  0  0
   59.9314   28.3252   46.0477 H   0  0  0  0  0  0  0  0  0  0  0  0
   59.8769   30.6946   45.2624 H   0  0  0  0  0  0  0  0  0  0  0  0
   57.4500   32.2260   43.3600 H   0  0  0  0  0  0  0  0  0  0  0  0
   57.5943   32.2919   48.0579 H   0  0  0  0  0  0  0  0  0  0  0  0
   59.2809   31.8052   49.8342 H   0  0  0  0  0  0  0  0  0  0  0  0
   61.6990   32.2670   49.4254 H   0  0  0  0  0  0  0  0  0  0  0  0
   60.7549   33.7249   45.4604 H   0  0  0  0  0  0  0  0  0  0  0  0
   54.3205   24.6869   44.5222 H   0  0  0  0  0  0  0  0  0  0  0  0
   54.2545   22.8328   42.8723 H   0  0  0  0  0  0  0  0  0  0  0  0
   56.2561   21.4025   42.5031 H   0  0  0  0  0  0  0  0  0  0  0  0
   58.5503   20.8313   43.0055 H   0  0  0  0  0  0  0  0  0  0  0  0
   60.6545   21.2345   44.2793 H   0  0  0  0  0  0  0  0  0  0  0  0
   60.7730   23.0837   45.9442 H   0  0  0  0  0  0  0  0  0  0  0  0
   58.7951   24.5338   46.3575 H   0  0  0  0  0  0  0  0  0  0  0  0
  1  2  2  0
  2  3  2  0
  2  4  1  0
  4  5  1  0
  5  6  2  0
  6  7  1  0
  7  8  2  0
  8  9  1  0
  9 10  1  0
 10 11  2  0
 10 12  2  0
 10 13  1  0
 13 14  2  0
 14 15  1  0
 15 16  2  0
 16 17  1  0
 17 18  1  0
 17 19  2  0
  8 20  1  0
 20 21  1  0
 20 22  2  0
  2 23  1  0
 23 24  2  0
 24 25  1  0
 25 26  2  0
 26 27  1  0
 27 28  2  0
 28 29  1  0
 29 30  2  0
 30 31  1  0
 31 32  2  0
 22  5  1  0
 32 23  1  0
 19 13  1  0
 32 27  1  0
  6 33  1  0
  7 34  1  0
  9 35  1  0
 14 36  1  0
 15 37  1  0
 16 38  1  0
 19 39  1  0
 24 40  1  0
 25 41  1  0
 26 42  1  0
 28 43  1  0
 29 44  1  0
 30 45  1  0
 31 46  1  0
M  CHG  1   4  -1
M  END
>  <UniqueID>  (67) 
62

>  <SMILES>  (67) 
O=S(=O)([N-]c1ccc(NS(=O)(=O)c2cccc(Br)c2)c(F)n1)c1cccc2ccccc12

>  <Energy>  (67) 
64.80772084453389

>  <Genealogy>  (67) 
O=S(=O)([N-]c1ccc(NS(=O)(=O)c2cccc(Br)c2)c(F)n1)c1cccc2ccccc12 (protonated)
O=S(=O)([N-]c1ccc(NS(=O)(=O)c2cccc(Br)c2)c(F)n1)c1cccc2ccccc12 (3D coordinates assigned)
O=S(=O)([N-]c1ccc(NS(=O)(=O)c2cccc(Br)c2)c(F)n1)c1cccc2ccccc12 (optimized conformer: 64.80772084453389 kcal/mol)

>  <smiles>  (67) 
O=S(=O)(Nc1ccc(NS(=O)(=O)c2cccc3ccccc23)nc1F)c1cccc(Br)c1

>  <score_type>  (67) 
oracle

>  <origin>  (67) 
adg

>  <m_score__min__energy>  (67) 
-12.460000000000001

>  <m_primary>  (67) 
energy

$$$$
67:0
     RDKit          3D

 30 32  0  0  0  0  0  0  0  0999 V2000
   56.4900   22.7030   44.4120 C   0  0  0  0  0  0  0  0  0  0  0  0
   57.7580   23.3260   44.4460 C   0  0  0  0  0  0  0  0  0  0  0  0
   57.8870   24.6570   44.8850 C   0  0  0  0  0  0  0  0  0  0  0  0
   56.7240   25.3240   45.2730 C   0  0  0  0  0  0  0  0  0  0  0  0
   56.4790   26.5950   45.7470 C   0  0  0  0  0  0  0  0  0  0  0  0
   57.4780   27.7020   45.9630 C   0  0  0  0  0  0  0  0  0  0  0  0
   56.9880   29.0300   45.5300 N   0  0  0  0  0  0  0  0  0  0  0  0
   57.8010   30.1680   46.0230 C   0  0  0  0  0  0  0  0  0  0  0  0
   58.7040   30.7740   44.9440 C   0  0  0  0  0  0  0  0  0  0  0  0
   57.7330   31.5930   43.6240 S   0  0  0  0  0  0  0  0  0  0  0  0
   56.2690   30.4900   43.6510 C   0  0  0  0  0  0  0  0  0  0  0  0
   56.6330   29.0740   44.0940 C   0  0  0  0  0  0  0  0  0  0  0  0
   55.1520   26.7080   45.9940 N   0  0  0  0  0  0  0  0  0  0  0  0
   54.5510   25.5620   45.6880 N   0  0  0  0  0  0  0  0  0  0  0  0
   55.5000   24.7180   45.2470 C   0  0  0  0  0  0  0  0  0  0  0  0
   55.3390   23.4020   44.8200 C   0  0  0  0  0  0  0  0  0  0  0  0
   56.4021   21.6633   44.0638 H   0  0  0  0  0  0  0  0  0  0  0  0
   58.6501   22.7670   44.1272 H   0  0  0  0  0  0  0  0  0  0  0  0
   58.8681   25.1532   44.9210 H   0  0  0  0  0  0  0  0  0  0  0  0
   57.7169   27.7514   47.0356 H   0  0  0  0  0  0  0  0  0  0  0  0
   58.3607   27.4664   45.3503 H   0  0  0  0  0  0  0  0  0  0  0  0
   57.1210   30.9507   46.3904 H   0  0  0  0  0  0  0  0  0  0  0  0
   58.4549   29.7830   46.8194 H   0  0  0  0  0  0  0  0  0  0  0  0
   59.3672   31.5170   45.4110 H   0  0  0  0  0  0  0  0  0  0  0  0
   59.2833   29.9587   44.4860 H   0  0  0  0  0  0  0  0  0  0  0  0
   55.5260   30.9017   44.3499 H   0  0  0  0  0  0  0  0  0  0  0  0
   55.8637   30.4350   42.6299 H   0  0  0  0  0  0  0  0  0  0  0  0
   55.7723   28.4120   43.9180 H   0  0  0  0  0  0  0  0  0  0  0  0
   57.5061   28.7438   43.5121 H   0  0  0  0  0  0  0  0  0  0  0  0
   54.3474   22.9261   44.8024 H   0  0  0  0  0  0  0  0  0  0  0  0
  1  2  1  0
  2  3  2  0
  3  4  1  0
  4  5  2  0
  5  6  1  0
  6  7  1  0
  7  8  1  0
  8  9  1  0
  9 10  1  0
 10 11  1  0
 11 12  1  0
  5 13  1  0
 13 14  1  0
 14 15  2  0
 15 16  1  0
 16  1  2  0
 15  4  1  0
 12  7  1  0
  1 17  1  0
  2 18  1  0
  3 19  1  0
  6 20  1  0
  6 21  1  0
  8 22  1  0
  8 23  1  0
  9 24  1  0
  9 25  1  0
 11 26  1  0
 11 27  1  0
 12 28  1  0
 12 29  1  0
 16 30  1  0
M  CHG  1  13  -1
M  END
>  <UniqueID>  (68) 
63

>  <SMILES>  (68) 
c1ccc2c(CN3CCSCC3)[n-]nc2c1

>  <Energy>  (68) 
76.7003891944823

>  <Genealogy>  (68) 
c1ccc2c(CN3CCSCC3)[n-]nc2c1 (protonated)
c1ccc2c(CN3CCSCC3)[n-]nc2c1 (3D coordinates assigned)
c1ccc2c(CN3CCSCC3)[n-]nc2c1 (nonaromatic ring conformer: 76.7003891944823 kcal/mol)

>  <smiles>  (68) 
c1ccc2c(CN3CCSCC3)[nH]nc2c1

>  <score_type>  (68) 
oracle

>  <origin>  (68) 
adg

>  <m_score__min__energy>  (68) 
-9.0700000000000003

>  <m_primary>  (68) 
energy

$$$$
68:0
     RDKit          3D

 27 30  0  0  0  0  0  0  0  0999 V2000
   56.9970   33.3630   44.9700 O   0  0  0  0  0  0  0  0  0  0  0  0
   57.7770   32.3900   45.1540 C   0  0  0  0  0  0  0  0  0  0  0  0
   57.5120   31.0600   44.5490 C   0  0  0  0  0  0  0  0  0  0  0  0
   56.3840   30.8350   43.7510 C   0  0  0  0  0  0  0  0  0  0  0  0
   56.1750   29.6060   43.2150 N   0  0  0  0  0  0  0  0  0  0  0  0
   57.0190   28.5940   43.4270 N   0  0  0  0  0  0  0  0  0  0  0  0
   58.1320   28.7490   44.1930 C   0  0  0  0  0  0  0  0  0  0  0  0
   58.4060   29.9920   44.7750 C   0  0  0  0  0  0  0  0  0  0  0  0
   59.6110   30.2040   45.6180 C   0  0  0  0  0  0  0  0  0  0  0  0
   60.4200   29.2630   45.8330 O   0  0  0  0  0  0  0  0  0  0  0  0
   59.8280   31.5080   46.1840 N   0  0  0  0  0  0  0  0  0  0  0  0
   58.9830   32.5420   45.9790 C   0  0  0  0  0  0  0  0  0  0  0  0
   59.4170   33.6890   46.6330 C   0  0  0  0  0  0  0  0  0  0  0  0
   60.5870   33.3100   47.2610 C   0  0  0  0  0  0  0  0  0  0  0  0
   61.4540   34.0510   48.0590 C   0  0  0  0  0  0  0  0  0  0  0  0
   62.5880   33.4020   48.5770 C   0  0  0  0  0  0  0  0  0  0  0  0
   62.8280   32.0420   48.2870 C   0  0  0  0  0  0  0  0  0  0  0  0
   61.9370   31.3150   47.4770 C   0  0  0  0  0  0  0  0  0  0  0  0
   60.8150   31.9830   46.9730 C   0  0  0  0  0  0  0  0  0  0  0  0
   55.6708   31.6502   43.5595 H   0  0  0  0  0  0  0  0  0  0  0  0
   56.8180   27.6650   42.9950 H   0  0  0  0  0  0  0  0  0  0  0  0
   58.8139   27.9011   44.3544 H   0  0  0  0  0  0  0  0  0  0  0  0
   58.9358   34.6781   46.6472 H   0  0  0  0  0  0  0  0  0  0  0  0
   61.2578   35.1111   48.2773 H   0  0  0  0  0  0  0  0  0  0  0  0
   63.2930   33.9578   49.2126 H   0  0  0  0  0  0  0  0  0  0  0  0
   63.7197   31.5460   48.6980 H   0  0  0  0  0  0  0  0  0  0  0  0
   62.1164   30.2544   47.2468 H   0  0  0  0  0  0  0  0  0  0  0  0
  1  2  2  0
  2  3  1  0
  3  4  2  0
  4  5  1  0
  5  6  2  0
  6  7  1  0
  7  8  2  0
  8  9  1  0
  9 10  2  0
  9 11  1  0
 11 12  1  0
 12 13  2  0
 13 14  1  0
 14 15  2  0
 15 16  1  0
 16 17  2  0
 17 18  1  0
 18 19  2  0
 12  2  1  0
 19 14  1  0
  8  3  1  0
 19 11  1  0
  4 20  1  0
  6 21  1  0
  7 22  1  0
 13 23  1  0
 15 24  1  0
 16 25  1  0
 17 26  1  0
 18 27  1  0
M  CHG  1   6   1
M  END
>  <UniqueID>  (69) 
64

>  <SMILES>  (69) 
O=C1c2cn[nH+]cc2C(=O)n2c1cc1ccccc12

>  <Energy>  (69) 
71.86871640797897

>  <Genealogy>  (69) 
O=C1c2cn[nH+]cc2C(=O)n2c1cc1ccccc12 (protonated)
O=C1c2cn[nH+]cc2C(=O)n2c1cc1ccccc12 (3D coordinates assigned)
O=C1c2cn[nH+]cc2C(=O)n2c1cc1ccccc12 (nonaromatic ring conformer: 71.86871640797897 kcal/mol)

>  <smiles>  (69) 
O=C1c2cnncc2C(=O)n2c1cc1ccccc12

>  <score_type>  (69) 
oracle

>  <origin>  (69) 
adg

>  <m_score__min__energy>  (69) 
-6.0700000000000003

>  <m_primary>  (69) 
energy

$$$$
69:0
     RDKit          3D

 47 49  0  0  0  0  0  0  0  0999 V2000
   59.3050   29.6530   49.4710 C   0  0  0  0  0  0  0  0  0  0  0  0
   59.1510   30.0620   48.0810 N   0  0  0  0  0  0  0  0  0  0  0  0
   59.7840   29.3490   47.0120 C   0  0  0  0  0  0  0  0  0  0  0  0
   60.4230   28.2900   47.2520 O   0  0  0  0  0  0  0  0  0  0  0  0
   59.6400   29.8380   45.5980 C   0  0  0  0  0  0  0  0  0  0  0  0
   58.2290   29.9570   45.2020 N   0  0  0  0  0  0  0  0  0  0  0  0
   57.3010   28.9780   45.0950 C   0  0  0  0  0  0  0  0  0  0  0  0
   57.4970   27.5480   45.4120 C   0  0  0  0  0  0  0  0  0  0  0  0
   57.3960   27.1070   46.7420 C   0  0  0  0  0  0  0  0  0  0  0  0
   57.5980   25.7600   47.0560 C   0  0  0  0  0  0  0  0  0  0  0  0
   57.8940   24.8410   46.0450 C   0  0  0  0  0  0  0  0  0  0  0  0
   58.0910   23.5360   46.3520 F   0  0  0  0  0  0  0  0  0  0  0  0
   57.9780   25.2680   44.7170 C   0  0  0  0  0  0  0  0  0  0  0  0
   57.7730   26.6150   44.3990 C   0  0  0  0  0  0  0  0  0  0  0  0
   56.1150   29.5430   44.6800 C   0  0  0  0  0  0  0  0  0  0  0  0
   56.2910   30.8640   44.4860 N   0  0  0  0  0  0  0  0  0  0  0  0
   57.5810   31.0820   44.8150 C   0  0  0  0  0  0  0  0  0  0  0  0
   58.3430   32.7050   44.6850 S   0  0  0  0  0  0  0  0  0  0  0  0
   57.5830   33.3880   46.2050 C   0  0  0  0  0  0  0  0  0  0  0  0
   58.6230   33.8640   47.2150 C   0  0  0  0  0  0  0  0  0  0  0  0
   59.5200   32.8030   47.5340 O   0  0  0  0  0  0  0  0  0  0  0  0
   60.9110   32.8660   47.3610 C   0  0  0  0  0  0  0  0  0  0  0  0
   61.5250   33.8190   46.5250 C   0  0  0  0  0  0  0  0  0  0  0  0
   62.9160   33.8580   46.4090 C   0  0  0  0  0  0  0  0  0  0  0  0
   63.7060   32.9500   47.1190 C   0  0  0  0  0  0  0  0  0  0  0  0
   63.1020   31.9960   47.9420 C   0  0  0  0  0  0  0  0  0  0  0  0
   61.7100   31.9520   48.0600 C   0  0  0  0  0  0  0  0  0  0  0  0
   58.9951   30.4760   50.1318 H   0  0  0  0  0  0  0  0  0  0  0  0
   58.6775   28.7707   49.6653 H   0  0  0  0  0  0  0  0  0  0  0  0
   60.3586   29.4036   49.6653 H   0  0  0  0  0  0  0  0  0  0  0  0
   58.5780   30.9100   47.8660 H   0  0  0  0  0  0  0  0  0  0  0  0
   60.1183   30.8249   45.5122 H   0  0  0  0  0  0  0  0  0  0  0  0
   60.1211   29.1060   44.9326 H   0  0  0  0  0  0  0  0  0  0  0  0
   57.1568   27.8252   47.5401 H   0  0  0  0  0  0  0  0  0  0  0  0
   57.5239   25.4225   48.1003 H   0  0  0  0  0  0  0  0  0  0  0  0
   58.2056   24.5441   43.9206 H   0  0  0  0  0  0  0  0  0  0  0  0
   57.8282   26.9448   43.3510 H   0  0  0  0  0  0  0  0  0  0  0  0
   55.1705   28.9993   44.5303 H   0  0  0  0  0  0  0  0  0  0  0  0
   56.9445   34.2398   45.9281 H   0  0  0  0  0  0  0  0  0  0  0  0
   57.0010   32.5835   46.6784 H   0  0  0  0  0  0  0  0  0  0  0  0
   59.1902   34.7026   46.7849 H   0  0  0  0  0  0  0  0  0  0  0  0
   58.1104   34.1891   48.1324 H   0  0  0  0  0  0  0  0  0  0  0  0
   60.9072   34.5342   45.9622 H   0  0  0  0  0  0  0  0  0  0  0  0
   63.3912   34.6056   45.7569 H   0  0  0  0  0  0  0  0  0  0  0  0
   64.8018   32.9862   47.0301 H   0  0  0  0  0  0  0  0  0  0  0  0
   63.7231   31.2783   48.4980 H   0  0  0  0  0  0  0  0  0  0  0  0
   61.2393   31.1956   48.7052 H   0  0  0  0  0  0  0  0  0  0  0  0
  1  2  1  0
  2  3  1  0
  3  4  2  0
  3  5  1  0
  5  6  1  0
  6  7  1  0
  7  8  1  0
  8  9  2  0
  9 10  1  0
 10 11  2  0
 11 12  1  0
 11 13  1  0
 13 14  2  0
  7 15  2  0
 15 16  1  0
 16 17  2  0
 17 18  1  0
 18 19  1  0
 19 20  1  0
 20 21  1  0
 21 22  1  0
 22 23  2  0
 23 24  1  0
 24 25  2  0
 25 26  1  0
 26 27  2  0
 17  6  1  0
 27 22  1  0
 14  8  1  0
  1 28  1  0
  1 29  1  0
  1 30  1  0
  2 31  1  0
  5 32  1  0
  5 33  1  0
  9 34  1  0
 10 35  1  0
 13 36  1  0
 14 37  1  0
 15 38  1  0
 19 39  1  0
 19 40  1  0
 20 41  1  0
 20 42  1  0
 23 43  1  0
 24 44  1  0
 25 45  1  0
 26 46  1  0
 27 47  1  0
M  END
>  <UniqueID>  (70) 
65

>  <SMILES>  (70) 
CNC(=O)Cn1c(-c2ccc(F)cc2)cnc1SCCOc1ccccc1

>  <Energy>  (70) 
71.16301480363494

>  <Genealogy>  (70) 
CNC(=O)Cn1c(-c2ccc(F)cc2)cnc1SCCOc1ccccc1 (3D coordinates assigned)
CNC(=O)Cn1c(-c2ccc(F)cc2)cnc1SCCOc1ccccc1 (optimized conformer: 71.16301480363494 kcal/mol)

>  <smiles>  (70) 
CNC(=O)Cn1c(-c2ccc(F)cc2)cnc1SCCOc1ccccc1

>  <score_type>  (70) 
oracle

>  <origin>  (70) 
adg

>  <m_score__min__energy>  (70) 
-7.3399999999999999

>  <m_primary>  (70) 
energy

$$$$
70:0
     RDKit          3D

 54 57  0  0  0  0  0  0  0  0999 V2000
   55.1380   29.4230   43.9660 N   0  0  0  0  0  0  0  0  0  0  0  0
   56.2160   29.8930   44.5140 C   0  0  0  0  0  0  0  0  0  0  0  0
   56.2720   31.2220   44.7950 N   0  0  0  0  0  0  0  0  0  0  0  0
   57.3740   31.8110   45.3260 C   0  0  0  0  0  0  0  0  0  0  0  0
   58.5150   31.0500   45.6120 C   0  0  0  0  0  0  0  0  0  0  0  0
   59.7320   31.6830   46.1770 C   0  0  0  0  0  0  0  0  0  0  0  0
   59.8860   33.0810   46.1600 C   0  0  0  0  0  0  0  0  0  0  0  0
   61.0280   33.6770   46.7000 C   0  0  0  0  0  0  0  0  0  0  0  0
   62.0440   32.8900   47.2640 C   0  0  0  0  0  0  0  0  0  0  0  0
   63.2540   33.5200   47.8400 C   0  0  0  0  0  0  0  0  0  0  0  0
   63.8840   34.3820   47.1690 O   0  0  0  0  0  0  0  0  0  0  0  0
   63.7230   33.1650   49.1540 N   0  0  0  0  0  0  0  0  0  0  0  0
   62.8140   33.3310   50.3020 C   0  0  0  0  0  0  0  0  0  0  0  0
   62.8880   32.1390   51.2580 C   0  0  0  0  0  0  0  0  0  0  0  0
   64.5760   31.8320   51.7240 S   0  0  0  0  0  0  0  0  0  0  0  0
   65.0600   32.9060   52.6560 O   0  0  0  0  0  0  0  0  0  0  0  0
   64.6930   30.4910   52.3920 O   0  0  0  0  0  0  0  0  0  0  0  0
   65.5260   31.8520   50.2220 C   0  0  0  0  0  0  0  0  0  0  0  0
   65.1710   33.0880   49.3960 C   0  0  0  0  0  0  0  0  0  0  0  0
   61.8870   31.4940   47.2960 C   0  0  0  0  0  0  0  0  0  0  0  0
   60.7440   30.8980   46.7540 C   0  0  0  0  0  0  0  0  0  0  0  0
   58.4800   29.6730   45.3450 C   0  0  0  0  0  0  0  0  0  0  0  0
   57.3380   29.0760   44.7900 C   0  0  0  0  0  0  0  0  0  0  0  0
   57.3290   27.6650   44.5180 N   0  0  0  0  0  0  0  0  0  0  0  0
   57.3980   26.4820   45.7850 S   0  0  0  0  0  0  0  0  0  0  0  0
   56.0390   26.3540   46.4170 O   0  0  0  0  0  0  0  0  0  0  0  0
   57.7970   25.1530   45.2100 O   0  0  0  0  0  0  0  0  0  0  0  0
   58.6000   26.9660   46.9820 C   0  0  0  0  0  0  0  0  0  0  0  0
   58.3300   28.0140   47.8780 C   0  0  0  0  0  0  0  0  0  0  0  0
   59.3050   28.4230   48.7930 C   0  0  0  0  0  0  0  0  0  0  0  0
   60.5500   27.7910   48.8200 C   0  0  0  0  0  0  0  0  0  0  0  0
   60.8250   26.7470   47.9320 C   0  0  0  0  0  0  0  0  0  0  0  0
   59.8550   26.3350   47.0120 C   0  0  0  0  0  0  0  0  0  0  0  0
   60.1430   25.3300   46.1470 F   0  0  0  0  0  0  0  0  0  0  0  0
   54.3430   28.9990   44.4910 H   0  0  0  0  0  0  0  0  0  0  0  0
   57.3710   32.8914   45.5328 H   0  0  0  0  0  0  0  0  0  0  0  0
   59.1000   33.7106   45.7175 H   0  0  0  0  0  0  0  0  0  0  0  0
   61.1319   34.7720   46.6831 H   0  0  0  0  0  0  0  0  0  0  0  0
   63.0925   34.2442   50.8483 H   0  0  0  0  0  0  0  0  0  0  0  0
   61.7854   33.4000   49.9183 H   0  0  0  0  0  0  0  0  0  0  0  0
   62.2961   32.3581   52.1589 H   0  0  0  0  0  0  0  0  0  0  0  0
   62.4865   31.2478   50.7534 H   0  0  0  0  0  0  0  0  0  0  0  0
   66.5977   31.8743   50.4690 H   0  0  0  0  0  0  0  0  0  0  0  0
   65.2968   30.9488   49.6375 H   0  0  0  0  0  0  0  0  0  0  0  0
   65.4926   33.9882   49.9402 H   0  0  0  0  0  0  0  0  0  0  0  0
   65.6842   33.0188   48.4255 H   0  0  0  0  0  0  0  0  0  0  0  0
   62.6679   30.8663   47.7501 H   0  0  0  0  0  0  0  0  0  0  0  0
   60.6363   29.8036   46.7797 H   0  0  0  0  0  0  0  0  0  0  0  0
   59.3595   29.0533   45.5738 H   0  0  0  0  0  0  0  0  0  0  0  0
   57.3380   27.3160   43.5340 H   0  0  0  0  0  0  0  0  0  0  0  0
   57.3501   28.5135   47.8596 H   0  0  0  0  0  0  0  0  0  0  0  0
   59.0909   29.2442   49.4929 H   0  0  0  0  0  0  0  0  0  0  0  0
   61.3151   28.1151   49.5408 H   0  0  0  0  0  0  0  0  0  0  0  0
   61.8054   26.2488   47.9567 H   0  0  0  0  0  0  0  0  0  0  0  0
  1  2  2  3
  2  3  1  0
  3  4  1  0
  4  5  2  0
  5  6  1  0
  6  7  2  0
  7  8  1  0
  8  9  2  0
  9 10  1  0
 10 11  2  0
 10 12  1  0
 12 13  1  0
 13 14  1  0
 14 15  1  0
 15 16  2  0
 15 17  2  0
 15 18  1  0
 18 19  1  0
  9 20  1  0
 20 21  2  0
  5 22  1  0
 22 23  2  0
 23 24  1  0
 24 25  1  0
 25 26  2  0
 25 27  2  0
 25 28  1  0
 28 29  2  0
 29 30  1  0
 30 31  2  0
 31 32  1  0
 32 33  2  0
 33 34  1  0
 23  2  1  0
 33 28  1  0
 21  6  1  0
 19 12  1  0
  1 35  1  0
  4 36  1  0
  7 37  1  0
  8 38  1  0
 13 39  1  0
 13 40  1  0
 14 41  1  0
 14 42  1  0
 18 43  1  0
 18 44  1  0
 19 45  1  0
 19 46  1  0
 20 47  1  0
 21 48  1  0
 22 49  1  0
 24 50  1  0
 29 51  1  0
 30 52  1  0
 31 53  1  0
 32 54  1  0
M  CHG  1   3  -1
M  END
>  <UniqueID>  (71) 
66

>  <SMILES>  (71) 
N=c1[n-]cc(-c2ccc(C(=O)N3CCS(=O)(=O)CC3)cc2)cc1NS(=O)(=O)c1ccccc1F

>  <Energy>  (71) 
67.487940946622

>  <Genealogy>  (71) 
N=c1[n-]cc(-c2ccc(C(=O)N3CCS(=O)(=O)CC3)cc2)cc1NS(=O)(=O)c1ccccc1F (protonated)
N=c1[n-]cc(-c2ccc(C(=O)N3CCS(=O)(=O)CC3)cc2)cc1NS(=O)(=O)c1ccccc1F (3D coordinates assigned)
N=c1[n-]cc(-c2ccc(C(=O)N3CCS(=O)(=O)CC3)cc2)cc1NS(=O)(=O)c1ccccc1F (nonaromatic ring conformer: 67.487940946622 kcal/mol)

>  <smiles>  (71) 
N=c1[nH]cc(-c2ccc(C(=O)N3CCS(=O)(=O)CC3)cc2)cc1NS(=O)(=O)c1ccccc1F

>  <score_type>  (71) 
oracle

>  <origin>  (71) 
adg

>  <m_score__min__energy>  (71) 
-12.02

>  <m_primary>  (71) 
energy

$$$$
71:0
     RDKit          3D

 49 52  0  0  0  0  0  0  0  0999 V2000
   59.6586   34.7253   43.6970 H   0  0  0  0  0  0  0  0  0  0  0  0
   59.1090   34.2170   44.5030 C   0  0  0  0  0  0  0  0  0  0  0  0
   59.2930   34.6120   45.8300 C   0  0  0  0  0  0  0  0  0  0  0  0
   59.9816   35.4362   46.0676 H   0  0  0  0  0  0  0  0  0  0  0  0
   58.6030   33.9610   46.8560 C   0  0  0  0  0  0  0  0  0  0  0  0
   58.8000   34.3310   48.1450 F   0  0  0  0  0  0  0  0  0  0  0  0
   57.7190   32.9180   46.5540 C   0  0  0  0  0  0  0  0  0  0  0  0
   57.1865   32.3983   47.3642 H   0  0  0  0  0  0  0  0  0  0  0  0
   57.5100   32.5330   45.2170 C   0  0  0  0  0  0  0  0  0  0  0  0
   56.6320   31.4550   44.8630 N   0  0  0  0  0  0  0  0  0  0  0  0
   57.0170   30.1390   44.4410 C   0  0  0  0  0  0  0  0  0  0  0  0
   57.0950   29.8590   43.2150 O   0  0  0  0  0  0  0  0  0  0  0  0
   57.4320   29.1450   45.4580 C   0  0  0  0  0  0  0  0  0  0  0  0
   56.6500   27.9890   45.6010 C   0  0  0  0  0  0  0  0  0  0  0  0
   55.7699   27.8419   44.9578 H   0  0  0  0  0  0  0  0  0  0  0  0
   56.9840   27.0160   46.5620 C   0  0  0  0  0  0  0  0  0  0  0  0
   56.2880   25.9250   46.7250 N   0  0  0  0  0  0  0  0  0  0  0  0
   56.2370   24.7900   45.8460 C   0  0  0  0  0  0  0  0  0  0  0  0
   55.0360   24.4980   45.1920 C   0  0  0  0  0  0  0  0  0  0  0  0
   54.1585   25.1424   45.3491 H   0  0  0  0  0  0  0  0  0  0  0  0
   54.9420   23.3960   44.3420 C   0  0  0  0  0  0  0  0  0  0  0  0
   53.9952   23.1871   43.8224 H   0  0  0  0  0  0  0  0  0  0  0  0
   56.0410   22.5550   44.1450 C   0  0  0  0  0  0  0  0  0  0  0  0
   55.8970   21.4660   43.2730 O   0  0  0  0  0  0  0  0  0  0  0  0
   56.9810   20.7140   42.7350 C   0  0  0  0  0  0  0  0  0  0  0  0
   57.5817   20.2973   43.5569 H   0  0  0  0  0  0  0  0  0  0  0  0
   56.5871   19.8941   42.1164 H   0  0  0  0  0  0  0  0  0  0  0  0
   57.6110   21.3700   42.1164 H   0  0  0  0  0  0  0  0  0  0  0  0
   57.2440   22.8240   44.8270 C   0  0  0  0  0  0  0  0  0  0  0  0
   58.1121   22.1641   44.6822 H   0  0  0  0  0  0  0  0  0  0  0  0
   57.3450   23.9310   45.6930 C   0  0  0  0  0  0  0  0  0  0  0  0
   58.5160   24.1990   46.4200 O   0  0  0  0  0  0  0  0  0  0  0  0
   59.5620   25.0600   45.9840 C   0  0  0  0  0  0  0  0  0  0  0  0
   60.0768   25.4837   46.8589 H   0  0  0  0  0  0  0  0  0  0  0  0
   60.2796   24.4874   45.3781 H   0  0  0  0  0  0  0  0  0  0  0  0
   59.1380   25.8743   45.3781 H   0  0  0  0  0  0  0  0  0  0  0  0
   58.0490   27.2300   47.3750 N   0  0  0  0  0  0  0  0  0  0  0  0
   58.8380   28.3310   47.2740 C   0  0  0  0  0  0  0  0  0  0  0  0
   59.9350   28.4720   48.1310 C   0  0  0  0  0  0  0  0  0  0  0  0
   60.1303   27.7105   48.9004 H   0  0  0  0  0  0  0  0  0  0  0  0
   60.7820   29.5740   48.0140 C   0  0  0  0  0  0  0  0  0  0  0  0
   61.6375   29.6846   48.6966 H   0  0  0  0  0  0  0  0  0  0  0  0
   60.5450   30.5360   47.0320 C   0  0  0  0  0  0  0  0  0  0  0  0
   61.2226   31.3970   46.9344 H   0  0  0  0  0  0  0  0  0  0  0  0
   59.4500   30.4110   46.1710 C   0  0  0  0  0  0  0  0  0  0  0  0
   59.2780   31.1693   45.3930 H   0  0  0  0  0  0  0  0  0  0  0  0
   58.5640   29.3190   46.2930 C   0  0  0  0  0  0  0  0  0  0  0  0
   58.2260   33.1750   44.1980 C   0  0  0  0  0  0  0  0  0  0  0  0
   58.0934   32.8584   43.1529 H   0  0  0  0  0  0  0  0  0  0  0  0
  1  2  1  0
  2  3  2  0
  3  4  1  0
  3  5  1  0
  5  6  1  0
  5  7  2  0
  7  8  1  0
  7  9  1  0
  9 10  1  0
 10 11  1  0
 11 12  2  0
 11 13  1  0
 13 14  2  0
 14 15  1  0
 14 16  1  0
 16 17  2  0
 17 18  1  0
 18 19  2  0
 19 20  1  0
 19 21  1  0
 21 22  1  0
 21 23  2  0
 23 24  1  0
 24 25  1  0
 25 26  1  0
 25 27  1  0
 25 28  1  0
 23 29  1  0
 29 30  1  0
 29 31  2  0
 31 32  1  0
 32 33  1  0
 33 34  1  0
 33 35  1  0
 33 36  1  0
 16 37  1  0
 37 38  1  0
 38 39  2  0
 39 40  1  0
 39 41  1  0
 41 42  1  0
 41 43  2  0
 43 44  1  0
 43 45  1  0
 45 46  1  0
 45 47  2  0
  9 48  2  0
 48 49  1  0
 48  2  1  0
 47 13  1  0
 31 18  1  0
 47 38  1  0
M  CHG  2  10  -1  37  -1
M  END
>  <UniqueID>  (72) 
67

>  <SMILES>  (72) 
COc1ccc(/N=c2\cc(C(=O)[N-]c3cccc(F)c3)c3ccccc3[n-]2)c(OC)c1

>  <Energy>  (72) 
75.3340096838314

>  <Genealogy>  (72) 
COc1ccc(N=c2cc(C(=O)[N-]c3cccc(F)c3)c3ccccc3[n-]2)c(OC)c1 (protonated)
COc1ccc(/N=c2\cc(C(=O)[N-]c3cccc(F)c3)c3ccccc3[n-]2)c(OC)c1 (cis-trans isomerization)
COc1ccc(/N=c2\cc(C(=O)[N-]c3cccc(F)c3)c3ccccc3[n-]2)c(OC)c1 (3D coordinates assigned)
COc1ccc(/N=c2\cc(C(=O)[N-]c3cccc(F)c3)c3ccccc3[n-]2)c(OC)c1 (optimized conformer: 75.3340096838314 kcal/mol)

>  <smiles>  (72) 
COc1ccc(N=c2cc(C(=O)Nc3cccc(F)c3)c3ccccc3[nH]2)c(OC)c1

>  <score_type>  (72) 
oracle

>  <origin>  (72) 
adg

>  <m_score__min__energy>  (72) 
-11.83

>  <m_primary>  (72) 
energy

$$$$
72:0
     RDKit          3D

 31 32  0  0  0  0  0  0  0  0999 V2000
   60.7880   27.1730   48.2000 C   0  0  0  0  0  0  0  0  0  0  0  0
   60.4010   26.8790   46.4890 S   0  0  0  0  0  0  0  0  0  0  0  0
   61.0900   25.6250   46.0280 O   0  0  0  0  0  0  0  0  0  0  0  0
   60.8890   28.0310   45.6560 O   0  0  0  0  0  0  0  0  0  0  0  0
   58.6590   26.7130   46.3040 C   0  0  0  0  0  0  0  0  0  0  0  0
   58.0130   25.5360   46.7030 C   0  0  0  0  0  0  0  0  0  0  0  0
   56.6270   25.4180   46.5680 C   0  0  0  0  0  0  0  0  0  0  0  0
   55.8800   26.4690   46.0280 C   0  0  0  0  0  0  0  0  0  0  0  0
   54.5020   26.3370   45.9000 O   0  0  0  0  0  0  0  0  0  0  0  0
   56.5180   27.6470   45.6120 C   0  0  0  0  0  0  0  0  0  0  0  0
   55.7290   28.7180   45.0720 N   0  0  0  0  0  0  0  0  0  0  0  0
   56.1840   29.7340   44.1680 C   0  0  0  0  0  0  0  0  0  0  0  0
   55.7910   29.6970   42.9710 O   0  0  0  0  0  0  0  0  0  0  0  0
   57.1360   30.7920   44.5860 C   0  0  0  0  0  0  0  0  0  0  0  0
   57.3730   31.9110   43.7690 C   0  0  0  0  0  0  0  0  0  0  0  0
   58.2790   32.8990   44.1680 C   0  0  0  0  0  0  0  0  0  0  0  0
   58.9470   32.7850   45.3900 C   0  0  0  0  0  0  0  0  0  0  0  0
   59.8250   33.7450   45.7740 F   0  0  0  0  0  0  0  0  0  0  0  0
   58.7050   31.6840   46.2180 C   0  0  0  0  0  0  0  0  0  0  0  0
   59.3480   31.5740   47.4070 F   0  0  0  0  0  0  0  0  0  0  0  0
   57.8000   30.6940   45.8210 C   0  0  0  0  0  0  0  0  0  0  0  0
   57.9090   27.7730   45.7790 C   0  0  0  0  0  0  0  0  0  0  0  0
   60.0734   26.6301   48.8361 H   0  0  0  0  0  0  0  0  0  0  0  0
   61.8083   26.8202   48.4110 H   0  0  0  0  0  0  0  0  0  0  0  0
   60.7217   28.2505   48.4110 H   0  0  0  0  0  0  0  0  0  0  0  0
   58.5971   24.7038   47.1230 H   0  0  0  0  0  0  0  0  0  0  0  0
   56.1220   24.4946   46.8879 H   0  0  0  0  0  0  0  0  0  0  0  0
   56.8429   32.0102   42.8103 H   0  0  0  0  0  0  0  0  0  0  0  0
   58.4660   33.7671   43.5188 H   0  0  0  0  0  0  0  0  0  0  0  0
   57.6069   29.8339   46.4790 H   0  0  0  0  0  0  0  0  0  0  0  0
   58.4109   28.7099   45.4955 H   0  0  0  0  0  0  0  0  0  0  0  0
  1  2  1  0
  2  3  2  0
  2  4  2  0
  2  5  1  0
  5  6  2  0
  6  7  1  0
  7  8  2  0
  8  9  1  0
  8 10  1  0
 10 11  1  0
 11 12  1  0
 12 13  2  0
 12 14  1  0
 14 15  2  0
 15 16  1  0
 16 17  2  0
 17 18  1  0
 17 19  1  0
 19 20  1  0
 19 21  2  0
 10 22  2  0
 22  5  1  0
 21 14  1  0
  1 23  1  0
  1 24  1  0
  1 25  1  0
  6 26  1  0
  7 27  1  0
 15 28  1  0
 16 29  1  0
 21 30  1  0
 22 31  1  0
M  CHG  2   9  -1  11  -1
M  END
>  <UniqueID>  (73) 
68

>  <SMILES>  (73) 
CS(=O)(=O)c1ccc([O-])c([N-]C(=O)c2ccc(F)c(F)c2)c1

>  <Energy>  (73) 
35.86490626653173

>  <Genealogy>  (73) 
CS(=O)(=O)c1ccc([O-])c([N-]C(=O)c2ccc(F)c(F)c2)c1 (protonated)
CS(=O)(=O)c1ccc([O-])c([N-]C(=O)c2ccc(F)c(F)c2)c1 (3D coordinates assigned)
CS(=O)(=O)c1ccc([O-])c([N-]C(=O)c2ccc(F)c(F)c2)c1 (optimized conformer: 35.86490626653173 kcal/mol)

>  <smiles>  (73) 
CS(=O)(=O)c1ccc(O)c(NC(=O)c2ccc(F)c(F)c2)c1

>  <score_type>  (73) 
oracle

>  <origin>  (73) 
adg

>  <m_score__min__energy>  (73) 
-13.01

>  <m_primary>  (73) 
energy

$$$$
73:0
     RDKit          3D

 48 51  0  0  0  0  0  0  0  0999 V2000
   61.0170   33.7860   46.7940 C   0  0  0  0  0  0  0  0  0  0  0  0
   59.6700   33.2970   46.3500 C   0  0  0  0  0  0  0  0  0  0  0  0
   58.6220   34.2070   46.1420 C   0  0  0  0  0  0  0  0  0  0  0  0
   57.3770   33.7550   45.6910 C   0  0  0  0  0  0  0  0  0  0  0  0
   57.1750   32.3970   45.4350 C   0  0  0  0  0  0  0  0  0  0  0  0
   58.2190   31.4810   45.6260 C   0  0  0  0  0  0  0  0  0  0  0  0
   58.0150   30.0830   45.3510 N   0  0  0  0  0  0  0  0  0  0  0  0
   57.5820   29.6730   44.1130 C   0  0  0  0  0  0  0  0  0  0  0  0
   57.3000   30.6520   43.0080 C   0  0  0  0  0  0  0  0  0  0  0  0
   57.4010   28.3500   43.8610 N   0  0  0  0  0  0  0  0  0  0  0  0
   57.6270   27.4070   44.8080 C   0  0  0  0  0  0  0  0  0  0  0  0
   57.4270   26.0550   44.5080 C   0  0  0  0  0  0  0  0  0  0  0  0
   57.6600   25.0680   45.4810 C   0  0  0  0  0  0  0  0  0  0  0  0
   57.4470   23.6740   45.1740 N   0  0  0  0  0  0  0  0  0  0  0  0
   57.4860   23.2340   43.7730 C   0  0  0  0  0  0  0  0  0  0  0  0
   57.1100   21.7550   43.6520 C   0  0  0  0  0  0  0  0  0  0  0  0
   57.8470   20.9700   44.6490 N   0  0  0  0  0  0  0  0  0  0  0  0
   57.5130   21.3370   46.0430 C   0  0  0  0  0  0  0  0  0  0  0  0
   56.9360   22.7610   46.2060 C   0  0  0  0  0  0  0  0  0  0  0  0
   58.0940   25.4590   46.7610 C   0  0  0  0  0  0  0  0  0  0  0  0
   58.2940   26.8080   47.0630 C   0  0  0  0  0  0  0  0  0  0  0  0
   58.0620   27.7930   46.0880 C   0  0  0  0  0  0  0  0  0  0  0  0
   58.2520   29.1620   46.3400 C   0  0  0  0  0  0  0  0  0  0  0  0
   58.6480   29.5430   47.4780 O   0  0  0  0  0  0  0  0  0  0  0  0
   59.4680   31.9360   46.0740 C   0  0  0  0  0  0  0  0  0  0  0  0
   61.0577   33.8008   47.8931 H   0  0  0  0  0  0  0  0  0  0  0  0
   61.7970   33.1136   46.4072 H   0  0  0  0  0  0  0  0  0  0  0  0
   61.1840   34.8021   46.4072 H   0  0  0  0  0  0  0  0  0  0  0  0
   58.7798   35.2785   46.3341 H   0  0  0  0  0  0  0  0  0  0  0  0
   56.5558   34.4706   45.5378 H   0  0  0  0  0  0  0  0  0  0  0  0
   56.1942   32.0452   45.0826 H   0  0  0  0  0  0  0  0  0  0  0  0
   57.0202   31.6235   43.4414 H   0  0  0  0  0  0  0  0  0  0  0  0
   58.1998   30.7731   42.3869 H   0  0  0  0  0  0  0  0  0  0  0  0
   56.4737   30.2759   42.3869 H   0  0  0  0  0  0  0  0  0  0  0  0
   57.0852   25.7628   43.5041 H   0  0  0  0  0  0  0  0  0  0  0  0
   56.7749   23.8351   43.1872 H   0  0  0  0  0  0  0  0  0  0  0  0
   58.5091   23.3679   43.3919 H   0  0  0  0  0  0  0  0  0  0  0  0
   56.0295   21.6381   43.8217 H   0  0  0  0  0  0  0  0  0  0  0  0
   57.3687   21.3964   42.6448 H   0  0  0  0  0  0  0  0  0  0  0  0
   57.6320   19.9570   44.5020 H   0  0  0  0  0  0  0  0  0  0  0  0
   58.8760   21.1000   44.4910 H   0  0  0  0  0  0  0  0  0  0  0  0
   56.7694   20.6191   46.4193 H   0  0  0  0  0  0  0  0  0  0  0  0
   58.4559   21.3130   46.6090 H   0  0  0  0  0  0  0  0  0  0  0  0
   55.8398   22.7128   46.1287 H   0  0  0  0  0  0  0  0  0  0  0  0
   57.2444   23.1464   47.1891 H   0  0  0  0  0  0  0  0  0  0  0  0
   58.2775   24.6952   47.5310 H   0  0  0  0  0  0  0  0  0  0  0  0
   58.6342   27.1003   48.0674 H   0  0  0  0  0  0  0  0  0  0  0  0
   60.2937   31.2220   46.2097 H   0  0  0  0  0  0  0  0  0  0  0  0
  1  2  1  0
  2  3  2  0
  3  4  1  0
  4  5  2  0
  5  6  1  0
  6  7  1  0
  7  8  1  0
  8  9  1  0
  8 10  2  0
 10 11  1  0
 11 12  2  0
 12 13  1  0
 13 14  1  0
 14 15  1  0
 15 16  1  0
 16 17  1  0
 17 18  1  0
 18 19  1  0
 13 20  2  0
 20 21  1  0
 21 22  2  0
 22 23  1  0
 23 24  2  0
  6 25  2  0
 25  2  1  0
 23  7  1  0
 22 11  1  0
 19 14  1  0
  1 26  1  0
  1 27  1  0
  1 28  1  0
  3 29  1  0
  4 30  1  0
  5 31  1  0
  9 32  1  0
  9 33  1  0
  9 34  1  0
 12 35  1  0
 15 36  1  0
 15 37  1  0
 16 38  1  0
 16 39  1  0
 17 40  1  0
 17 41  1  0
 18 42  1  0
 18 43  1  0
 19 44  1  0
 19 45  1  0
 20 46  1  0
 21 47  1  0
 25 48  1  0
M  CHG  1  17   1
M  END
>  <UniqueID>  (74) 
69

>  <SMILES>  (74) 
Cc1cccc(-n2c(C)nc3cc(N4CC[NH2+]CC4)ccc3c2=O)c1

>  <Energy>  (74) 
71.98897837452294

>  <Genealogy>  (74) 
Cc1cccc(-n2c(C)nc3cc(N4CC[NH2+]CC4)ccc3c2=O)c1 (protonated)
Cc1cccc(-n2c(C)nc3cc(N4CC[NH2+]CC4)ccc3c2=O)c1 (3D coordinates assigned)
Cc1cccc(-n2c(C)nc3cc(N4CC[NH2+]CC4)ccc3c2=O)c1 (nonaromatic ring conformer: 71.98897837452294 kcal/mol)

>  <smiles>  (74) 
Cc1cccc(-n2c(C)nc3cc(N4CCNCC4)ccc3c2=O)c1

>  <score_type>  (74) 
oracle

>  <origin>  (74) 
adg

>  <m_score__min__energy>  (74) 
-7.04

>  <m_primary>  (74) 
energy

$$$$
74:0
     RDKit          3D

 67 71  0  0  0  0  0  0  0  0999 V2000
   63.7700   34.2800   47.4130 C   0  0  0  0  0  0  0  0  0  0  0  0
   62.4840   33.5660   47.3120 N   0  0  0  0  0  0  0  0  0  0  0  0
   61.8480   33.8350   46.0050 C   0  0  0  0  0  0  0  0  0  0  0  0
   60.3490   33.8280   46.1410 C   0  0  0  0  0  0  0  0  0  0  0  0
   59.7410   33.4600   47.3530 C   0  0  0  0  0  0  0  0  0  0  0  0
   58.3470   33.4480   47.4650 C   0  0  0  0  0  0  0  0  0  0  0  0
   57.5530   33.8030   46.3710 C   0  0  0  0  0  0  0  0  0  0  0  0
   58.1510   34.1680   45.1620 C   0  0  0  0  0  0  0  0  0  0  0  0
   59.5450   34.1810   45.0460 C   0  0  0  0  0  0  0  0  0  0  0  0
   62.6990   32.1190   47.5200 C   0  0  0  0  0  0  0  0  0  0  0  0
   61.8210   31.6020   48.6370 C   0  0  0  0  0  0  0  0  0  0  0  0
   61.8470   32.0270   49.9660 C   0  0  0  0  0  0  0  0  0  0  0  0
   62.7160   33.0760   50.5540 C   0  0  0  0  0  0  0  0  0  0  0  0
   62.2050   34.1910   50.8410 O   0  0  0  0  0  0  0  0  0  0  0  0
   64.1240   32.8560   50.8110 N   0  0  0  0  0  0  0  0  0  0  0  0
   64.8540   31.7860   50.1120 C   0  0  0  0  0  0  0  0  0  0  0  0
   66.3640   31.9740   50.2400 C   0  0  0  0  0  0  0  0  0  0  0  0
   66.6730   33.3480   50.1850 O   0  0  0  0  0  0  0  0  0  0  0  0
   66.2990   33.9620   51.4040 C   0  0  0  0  0  0  0  0  0  0  0  0
   64.8260   33.7000   51.7950 C   0  0  0  0  0  0  0  0  0  0  0  0
   60.8990   31.3700   50.6720 N   0  0  0  0  0  0  0  0  0  0  0  0
   60.3220   30.5580   49.7640 C   0  0  0  0  0  0  0  0  0  0  0  0
   59.2990   29.6990   50.0330 N   0  0  0  0  0  0  0  0  0  0  0  0
   58.7380   29.6070   51.3850 C   0  0  0  0  0  0  0  0  0  0  0  0
   58.7810   28.9530   49.0100 C   0  0  0  0  0  0  0  0  0  0  0  0
   59.3020   29.0570   47.7060 C   0  0  0  0  0  0  0  0  0  0  0  0
   58.6330   28.0820   46.3960 S   0  0  0  0  0  0  0  0  0  0  0  0
   59.7160   27.2880   45.7230 O   0  0  0  0  0  0  0  0  0  0  0  0
   57.6230   27.1200   46.9580 O   0  0  0  0  0  0  0  0  0  0  0  0
   57.8810   29.1470   45.2130 C   0  0  0  0  0  0  0  0  0  0  0  0
   58.6250   30.1920   44.6480 C   0  0  0  0  0  0  0  0  0  0  0  0
   58.0360   31.0490   43.7140 C   0  0  0  0  0  0  0  0  0  0  0  0
   56.7000   30.8690   43.3430 C   0  0  0  0  0  0  0  0  0  0  0  0
   55.9520   29.8320   43.9080 C   0  0  0  0  0  0  0  0  0  0  0  0
   56.5390   28.9730   44.8430 C   0  0  0  0  0  0  0  0  0  0  0  0
   60.3720   29.9400   47.4780 C   0  0  0  0  0  0  0  0  0  0  0  0
   60.8700   30.0510   46.3260 O   0  0  0  0  0  0  0  0  0  0  0  0
   60.8440   30.6690   48.5290 N   0  0  0  0  0  0  0  0  0  0  0  0
   64.0277   34.4231   48.4728 H   0  0  0  0  0  0  0  0  0  0  0  0
   64.5568   33.6896   46.9208 H   0  0  0  0  0  0  0  0  0  0  0  0
   63.6849   35.2600   46.9208 H   0  0  0  0  0  0  0  0  0  0  0  0
   62.1743   34.8195   45.6386 H   0  0  0  0  0  0  0  0  0  0  0  0
   62.1460   33.0501   45.2943 H   0  0  0  0  0  0  0  0  0  0  0  0
   60.3631   33.1806   48.2161 H   0  0  0  0  0  0  0  0  0  0  0  0
   57.8748   33.1588   48.4155 H   0  0  0  0  0  0  0  0  0  0  0  0
   56.4568   33.7951   46.4617 H   0  0  0  0  0  0  0  0  0  0  0  0
   57.5252   34.4453   44.3009 H   0  0  0  0  0  0  0  0  0  0  0  0
   60.0128   34.4690   44.0930 H   0  0  0  0  0  0  0  0  0  0  0  0
   62.4562   31.5810   46.5918 H   0  0  0  0  0  0  0  0  0  0  0  0
   63.7517   31.9542   47.7933 H   0  0  0  0  0  0  0  0  0  0  0  0
   64.5747   30.8161   50.5493 H   0  0  0  0  0  0  0  0  0  0  0  0
   64.5874   31.8213   49.0454 H   0  0  0  0  0  0  0  0  0  0  0  0
   66.7049   31.5597   51.2003 H   0  0  0  0  0  0  0  0  0  0  0  0
   66.8697   31.4513   49.4148 H   0  0  0  0  0  0  0  0  0  0  0  0
   66.9468   33.5734   52.2036 H   0  0  0  0  0  0  0  0  0  0  0  0
   66.4119   35.0479   51.2695 H   0  0  0  0  0  0  0  0  0  0  0  0
   64.8045   33.1954   52.7722 H   0  0  0  0  0  0  0  0  0  0  0  0
   64.3111   34.6714   51.8310 H   0  0  0  0  0  0  0  0  0  0  0  0
   59.5412   29.7387   52.1250 H   0  0  0  0  0  0  0  0  0  0  0  0
   57.9807   30.3930   51.5220 H   0  0  0  0  0  0  0  0  0  0  0  0
   58.2714   28.6203   51.5220 H   0  0  0  0  0  0  0  0  0  0  0  0
   57.9473   28.2635   49.2085 H   0  0  0  0  0  0  0  0  0  0  0  0
   59.6753   30.3380   44.9405 H   0  0  0  0  0  0  0  0  0  0  0  0
   58.6241   31.8659   43.2704 H   0  0  0  0  0  0  0  0  0  0  0  0
   56.2377   31.5431   42.6069 H   0  0  0  0  0  0  0  0  0  0  0  0
   54.9006   29.6913   43.6170 H   0  0  0  0  0  0  0  0  0  0  0  0
   55.9474   28.1598   45.2888 H   0  0  0  0  0  0  0  0  0  0  0  0
  1  2  1  0
  2  3  1  0
  3  4  1  0
  4  5  2  0
  5  6  1  0
  6  7  2  0
  7  8  1  0
  8  9  2  0
  2 10  1  0
 10 11  1  0
 11 12  2  0
 12 13  1  0
 13 14  2  0
 13 15  1  0
 15 16  1  0
 16 17  1  0
 17 18  1  0
 18 19  1  0
 19 20  1  0
 12 21  1  0
 21 22  2  0
 22 23  1  0
 23 24  1  0
 23 25  1  0
 25 26  2  0
 26 27  1  0
 27 28  2  0
 27 29  2  0
 27 30  1  0
 30 31  2  0
 31 32  1  0
 32 33  2  0
 33 34  1  0
 34 35  2  0
 26 36  1  0
 36 37  2  0
 36 38  1  0
  9  4  1  0
 38 11  1  0
 20 15  1  0
 38 22  1  0
 35 30  1  0
  1 39  1  0
  1 40  1  0
  1 41  1  0
  3 42  1  0
  3 43  1  0
  5 44  1  0
  6 45  1  0
  7 46  1  0
  8 47  1  0
  9 48  1  0
 10 49  1  0
 10 50  1  0
 16 51  1  0
 16 52  1  0
 17 53  1  0
 17 54  1  0
 19 55  1  0
 19 56  1  0
 20 57  1  0
 20 58  1  0
 24 59  1  0
 24 60  1  0
 24 61  1  0
 25 62  1  0
 31 63  1  0
 32 64  1  0
 33 65  1  0
 34 66  1  0
 35 67  1  0
M  END
>  <UniqueID>  (75) 
70

>  <SMILES>  (75) 
CN(Cc1ccccc1)Cc1c(C(=O)N2CCOCC2)nc2n(C)cc(S(=O)(=O)c3ccccc3)c(=O)n12

>  <Energy>  (75) 
122.70174384127277

>  <Genealogy>  (75) 
CN(Cc1ccccc1)Cc1c(C(=O)N2CCOCC2)nc2n(C)cc(S(=O)(=O)c3ccccc3)c(=O)n12 (3D coordinates assigned)
CN(Cc1ccccc1)Cc1c(C(=O)N2CCOCC2)nc2n(C)cc(S(=O)(=O)c3ccccc3)c(=O)n12 (nonaromatic ring conformer: 122.70174384127277 kcal/mol)

>  <smiles>  (75) 
CN(Cc1ccccc1)Cc1c(C(=O)N2CCOCC2)nc2n(C)cc(S(=O)(=O)c3ccccc3)c(=O)n12

>  <score_type>  (75) 
oracle

>  <origin>  (75) 
adg

>  <m_score__min__energy>  (75) 
-9.0899999999999999

>  <m_primary>  (75) 
energy

$$$$
75:0
     RDKit          3D

 46 48  0  0  0  0  0  0  0  0999 V2000
   58.1700   27.1200   42.8780 C   0  0  0  0  0  0  0  0  0  0  0  0
   57.7950   27.1880   44.3560 C   0  0  0  0  0  0  0  0  0  0  0  0
   57.9140   28.5600   44.8660 N   0  0  0  0  0  0  0  0  0  0  0  0
   58.8730   28.8870   45.8930 C   0  0  0  0  0  0  0  0  0  0  0  0
   58.6290   28.5340   47.2310 C   0  0  0  0  0  0  0  0  0  0  0  0
   59.5700   28.8270   48.2230 C   0  0  0  0  0  0  0  0  0  0  0  0
   60.7610   29.4760   47.8900 C   0  0  0  0  0  0  0  0  0  0  0  0
   61.0120   29.8330   46.5620 C   0  0  0  0  0  0  0  0  0  0  0  0
   60.0760   29.5400   45.5670 C   0  0  0  0  0  0  0  0  0  0  0  0
   56.8650   29.8040   44.2430 S   0  0  0  0  0  0  0  0  0  0  0  0
   56.7710   29.6670   42.7490 O   0  0  0  0  0  0  0  0  0  0  0  0
   55.4830   29.6580   44.8160 O   0  0  0  0  0  0  0  0  0  0  0  0
   57.5150   31.3830   44.6670 C   0  0  0  0  0  0  0  0  0  0  0  0
   57.7590   31.6960   46.0080 C   0  0  0  0  0  0  0  0  0  0  0  0
   58.3740   32.8630   46.3200 N   0  0  0  0  0  0  0  0  0  0  0  0
   58.7390   33.7460   45.3560 C   0  0  0  0  0  0  0  0  0  0  0  0
   59.6660   35.2140   45.8060 S   0  0  0  0  0  0  0  0  0  0  0  0
   61.1550   34.3070   46.3720 C   0  0  0  0  0  0  0  0  0  0  0  0
   61.0030   33.7880   47.7780 C   0  0  0  0  0  0  0  0  0  0  0  0
   59.9750   34.2730   48.6070 C   0  0  0  0  0  0  0  0  0  0  0  0
   59.8660   33.8290   49.9280 C   0  0  0  0  0  0  0  0  0  0  0  0
   60.7810   32.9010   50.4320 C   0  0  0  0  0  0  0  0  0  0  0  0
   61.8060   32.4140   49.6140 C   0  0  0  0  0  0  0  0  0  0  0  0
   61.9180   32.8560   48.2920 C   0  0  0  0  0  0  0  0  0  0  0  0
   58.4530   33.4610   44.0190 C   0  0  0  0  0  0  0  0  0  0  0  0
   57.8540   32.2830   43.7010 N   0  0  0  0  0  0  0  0  0  0  0  0
   59.2482   26.9245   42.7819 H   0  0  0  0  0  0  0  0  0  0  0  0
   57.6058   26.3095   42.3935 H   0  0  0  0  0  0  0  0  0  0  0  0
   57.9263   28.0770   42.3935 H   0  0  0  0  0  0  0  0  0  0  0  0
   56.7566   26.8469   44.4798 H   0  0  0  0  0  0  0  0  0  0  0  0
   58.4825   26.5425   44.9223 H   0  0  0  0  0  0  0  0  0  0  0  0
   57.6921   28.0241   47.4997 H   0  0  0  0  0  0  0  0  0  0  0  0
   59.3718   28.5457   49.2678 H   0  0  0  0  0  0  0  0  0  0  0  0
   61.5003   29.7058   48.6714 H   0  0  0  0  0  0  0  0  0  0  0  0
   61.9490   30.3460   46.2997 H   0  0  0  0  0  0  0  0  0  0  0  0
   60.2806   29.8212   44.5234 H   0  0  0  0  0  0  0  0  0  0  0  0
   57.4541   31.0003   46.8037 H   0  0  0  0  0  0  0  0  0  0  0  0
   61.3298   33.4562   45.6970 H   0  0  0  0  0  0  0  0  0  0  0  0
   62.0030   35.0076   46.3597 H   0  0  0  0  0  0  0  0  0  0  0  0
   59.2539   35.0048   48.2140 H   0  0  0  0  0  0  0  0  0  0  0  0
   59.0593   34.2105   50.5712 H   0  0  0  0  0  0  0  0  0  0  0  0
   60.6953   32.5534   51.4721 H   0  0  0  0  0  0  0  0  0  0  0  0
   62.5249   31.6823   50.0112 H   0  0  0  0  0  0  0  0  0  0  0  0
   62.7263   32.4718   47.6525 H   0  0  0  0  0  0  0  0  0  0  0  0
   58.7102   34.1834   43.2303 H   0  0  0  0  0  0  0  0  0  0  0  0
   57.6810   32.0640   42.6950 H   0  0  0  0  0  0  0  0  0  0  0  0
  1  2  1  0
  2  3  1  0
  3  4  1  0
  4  5  2  0
  5  6  1  0
  6  7  2  0
  7  8  1  0
  8  9  2  0
  3 10  1  0
 10 11  2  0
 10 12  2  0
 10 13  1  0
 13 14  2  0
 14 15  1  0
 15 16  2  0
 16 17  1  0
 17 18  1  0
 18 19  1  0
 19 20  2  0
 20 21  1  0
 21 22  2  0
 22 23  1  0
 23 24  2  0
 16 25  1  0
 25 26  2  0
  9  4  1  0
 26 13  1  0
 24 19  1  0
  1 27  1  0
  1 28  1  0
  1 29  1  0
  2 30  1  0
  2 31  1  0
  5 32  1  0
  6 33  1  0
  7 34  1  0
  8 35  1  0
  9 36  1  0
 14 37  1  0
 18 38  1  0
 18 39  1  0
 20 40  1  0
 21 41  1  0
 22 42  1  0
 23 43  1  0
 24 44  1  0
 25 45  1  0
 26 46  1  0
M  CHG  1  26   1
M  END
>  <UniqueID>  (76) 
71

>  <SMILES>  (76) 
CCN(c1ccccc1)S(=O)(=O)c1cnc(SCc2ccccc2)c[nH+]1

>  <Energy>  (76) 
43.98324506060832

>  <Genealogy>  (76) 
CCN(c1ccccc1)S(=O)(=O)c1cnc(SCc2ccccc2)c[nH+]1 (protonated)
CCN(c1ccccc1)S(=O)(=O)c1cnc(SCc2ccccc2)c[nH+]1 (3D coordinates assigned)
CCN(c1ccccc1)S(=O)(=O)c1cnc(SCc2ccccc2)c[nH+]1 (optimized conformer: 43.98324506060832 kcal/mol)

>  <smiles>  (76) 
CCN(c1ccccc1)S(=O)(=O)c1cnc(SCc2ccccc2)cn1

>  <score_type>  (76) 
oracle

>  <origin>  (76) 
adg

>  <m_score__min__energy>  (76) 
-7.1500000000000004

>  <m_primary>  (76) 
energy

$$$$
76:0
     RDKit          3D

 39 40  0  0  0  0  0  0  0  0999 V2000
   58.1310   25.5540   46.7270 C   0  0  0  0  0  0  0  0  0  0  0  0
   57.6530   26.8380   46.1080 C   0  0  0  0  0  0  0  0  0  0  0  0
   58.5400   27.8990   45.8910 C   0  0  0  0  0  0  0  0  0  0  0  0
   58.1040   29.0770   45.3540 N   0  0  0  0  0  0  0  0  0  0  0  0
   59.0790   30.1560   45.1210 C   0  0  0  0  0  0  0  0  0  0  0  0
   58.5960   31.4890   45.7110 C   0  0  0  0  0  0  0  0  0  0  0  0
   58.8150   31.5650   47.2250 C   0  0  0  0  0  0  0  0  0  0  0  0
   58.5420   33.2620   47.8440 S   0  0  0  0  0  0  0  0  0  0  0  0
   59.9430   33.9730   46.9690 C   0  0  0  0  0  0  0  0  0  0  0  0
   59.6470   34.8310   45.6030 S   0  0  0  0  0  0  0  0  0  0  0  0
   61.2730   33.8840   47.5190 N   0  0  0  0  0  0  0  0  0  0  0  0
   61.4370   33.7920   48.9770 C   0  0  0  0  0  0  0  0  0  0  0  0
   62.8780   34.0570   49.4130 C   0  0  0  0  0  0  0  0  0  0  0  0
   64.0450   32.8270   48.7240 S   0  0  0  0  0  0  0  0  0  0  0  0
   63.3570   32.6810   47.0300 C   0  0  0  0  0  0  0  0  0  0  0  0
   62.4490   33.8440   46.6380 C   0  0  0  0  0  0  0  0  0  0  0  0
   56.7790   29.2250   45.0270 C   0  0  0  0  0  0  0  0  0  0  0  0
   56.3540   30.2970   44.5180 O   0  0  0  0  0  0  0  0  0  0  0  0
   55.9050   28.2090   45.2470 N   0  0  0  0  0  0  0  0  0  0  0  0
   56.3050   27.0300   45.7820 C   0  0  0  0  0  0  0  0  0  0  0  0
   55.4570   26.1200   45.9770 O   0  0  0  0  0  0  0  0  0  0  0  0
   58.0986   25.6410   47.8231 H   0  0  0  0  0  0  0  0  0  0  0  0
   57.4804   24.7274   46.4054 H   0  0  0  0  0  0  0  0  0  0  0  0
   59.1638   25.3541   46.4054 H   0  0  0  0  0  0  0  0  0  0  0  0
   59.6012   27.7827   46.1562 H   0  0  0  0  0  0  0  0  0  0  0  0
   60.0345   29.8821   45.5921 H   0  0  0  0  0  0  0  0  0  0  0  0
   59.1997   30.2831   44.0351 H   0  0  0  0  0  0  0  0  0  0  0  0
   59.1494   32.3098   45.2314 H   0  0  0  0  0  0  0  0  0  0  0  0
   57.5155   31.5702   45.5217 H   0  0  0  0  0  0  0  0  0  0  0  0
   58.1115   30.8827   47.7246 H   0  0  0  0  0  0  0  0  0  0  0  0
   59.8538   31.2763   47.4429 H   0  0  0  0  0  0  0  0  0  0  0  0
   60.7800   34.5335   49.4550 H   0  0  0  0  0  0  0  0  0  0  0  0
   61.1740   32.7686   49.2829 H   0  0  0  0  0  0  0  0  0  0  0  0
   63.1742   35.0586   49.0679 H   0  0  0  0  0  0  0  0  0  0  0  0
   62.9182   33.9838   50.5098 H   0  0  0  0  0  0  0  0  0  0  0  0
   64.1937   32.6372   46.3172 H   0  0  0  0  0  0  0  0  0  0  0  0
   62.7418   31.7694   47.0086 H   0  0  0  0  0  0  0  0  0  0  0  0
   63.0059   34.7881   46.7310 H   0  0  0  0  0  0  0  0  0  0  0  0
   62.1164   33.7074   45.5984 H   0  0  0  0  0  0  0  0  0  0  0  0
  1  2  1  0
  2  3  2  0
  3  4  1  0
  4  5  1  0
  5  6  1  0
  6  7  1  0
  7  8  1  0
  8  9  1  0
  9 10  2  0
  9 11  1  0
 11 12  1  0
 12 13  1  0
 13 14  1  0
 14 15  1  0
 15 16  1  0
  4 17  1  0
 17 18  2  0
 17 19  1  0
 19 20  1  0
 20 21  2  0
 20  2  1  0
 16 11  1  0
  1 22  1  0
  1 23  1  0
  1 24  1  0
  3 25  1  0
  5 26  1  0
  5 27  1  0
  6 28  1  0
  6 29  1  0
  7 30  1  0
  7 31  1  0
 12 32  1  0
 12 33  1  0
 13 34  1  0
 13 35  1  0
 15 36  1  0
 15 37  1  0
 16 38  1  0
 16 39  1  0
M  CHG  1  19  -1
M  END
>  <UniqueID>  (77) 
72

>  <SMILES>  (77) 
Cc1cn(CCCSC(=S)N2CCSCC2)c(=O)[n-]c1=O

>  <Energy>  (77) 
35.136887605874385

>  <Genealogy>  (77) 
Cc1cn(CCCSC(=S)N2CCSCC2)c(=O)[n-]c1=O (protonated)
Cc1cn(CCCSC(=S)N2CCSCC2)c(=O)[n-]c1=O (3D coordinates assigned)
Cc1cn(CCCSC(=S)N2CCSCC2)c(=O)[n-]c1=O (nonaromatic ring conformer: 35.136887605874385 kcal/mol)

>  <smiles>  (77) 
Cc1cn(CCCSC(=S)N2CCSCC2)c(=O)[nH]c1=O

>  <score_type>  (77) 
oracle

>  <origin>  (77) 
adg

>  <m_score__min__energy>  (77) 
-9.4800000000000004

>  <m_primary>  (77) 
energy

$$$$
77:0
     RDKit          3D

 42 43  0  0  0  0  0  0  0  0999 V2000
   58.1270   21.4810   43.6950 C   0  0  0  0  0  0  0  0  0  0  0  0
   56.6340   21.4030   43.7800 C   0  0  0  0  0  0  0  0  0  0  0  0
   55.9440   21.7650   42.7920 O   0  0  0  0  0  0  0  0  0  0  0  0
   55.9660   20.9100   44.9470 N   0  0  0  0  0  0  0  0  0  0  0  0
   56.1080   21.6100   46.5270 S   0  0  0  0  0  0  0  0  0  0  0  0
   57.3640   21.1060   47.1790 O   0  0  0  0  0  0  0  0  0  0  0  0
   54.9300   21.1950   47.3640 O   0  0  0  0  0  0  0  0  0  0  0  0
   56.2030   23.3620   46.3940 C   0  0  0  0  0  0  0  0  0  0  0  0
   57.3370   24.0300   46.8710 C   0  0  0  0  0  0  0  0  0  0  0  0
   57.4510   25.4140   46.7190 C   0  0  0  0  0  0  0  0  0  0  0  0
   56.4510   26.1430   46.0650 C   0  0  0  0  0  0  0  0  0  0  0  0
   56.6490   27.5530   45.8790 N   0  0  0  0  0  0  0  0  0  0  0  0
   57.7960   28.3280   46.2540 C   0  0  0  0  0  0  0  0  0  0  0  0
   58.1460   28.4360   47.4590 O   0  0  0  0  0  0  0  0  0  0  0  0
   58.5340   29.0970   45.2060 C   0  0  0  0  0  0  0  0  0  0  0  0
   57.7610   29.1400   43.9590 N   0  0  0  0  0  0  0  0  0  0  0  0
   56.8130   30.5980   43.8400 S   0  0  0  0  0  0  0  0  0  0  0  0
   56.6240   30.9400   42.3900 O   0  0  0  0  0  0  0  0  0  0  0  0
   55.4630   30.3770   44.4640 O   0  0  0  0  0  0  0  0  0  0  0  0
   57.6310   31.9470   44.6280 C   0  0  0  0  0  0  0  0  0  0  0  0
   58.1670   32.9970   43.8670 C   0  0  0  0  0  0  0  0  0  0  0  0
   58.8180   34.0610   44.4990 C   0  0  0  0  0  0  0  0  0  0  0  0
   58.9330   34.0850   45.8920 C   0  0  0  0  0  0  0  0  0  0  0  0
   58.4040   33.0400   46.6550 C   0  0  0  0  0  0  0  0  0  0  0  0
   57.7630   31.9680   46.0240 C   0  0  0  0  0  0  0  0  0  0  0  0
   55.2910   25.4770   45.6280 C   0  0  0  0  0  0  0  0  0  0  0  0
   55.1730   24.0930   45.7870 C   0  0  0  0  0  0  0  0  0  0  0  0
   58.5514   21.5032   44.7096 H   0  0  0  0  0  0  0  0  0  0  0  0
   58.5100   20.6016   43.1565 H   0  0  0  0  0  0  0  0  0  0  0  0
   58.4163   22.3955   43.1565 H   0  0  0  0  0  0  0  0  0  0  0  0
   58.1397   23.4641   47.3664 H   0  0  0  0  0  0  0  0  0  0  0  0
   58.3342   25.9353   47.1167 H   0  0  0  0  0  0  0  0  0  0  0  0
   58.7032   30.1238   45.5625 H   0  0  0  0  0  0  0  0  0  0  0  0
   59.4956   28.5996   45.0112 H   0  0  0  0  0  0  0  0  0  0  0  0
   57.0810   28.3450   43.9830 H   0  0  0  0  0  0  0  0  0  0  0  0
   58.0749   32.9831   42.7710 H   0  0  0  0  0  0  0  0  0  0  0  0
   59.2404   34.8805   43.8990 H   0  0  0  0  0  0  0  0  0  0  0  0
   59.4397   34.9262   46.3877 H   0  0  0  0  0  0  0  0  0  0  0  0
   58.4916   33.0603   47.7513 H   0  0  0  0  0  0  0  0  0  0  0  0
   57.3613   31.1389   46.6251 H   0  0  0  0  0  0  0  0  0  0  0  0
   54.4748   26.0469   45.1600 H   0  0  0  0  0  0  0  0  0  0  0  0
   54.2684   23.5760   45.4343 H   0  0  0  0  0  0  0  0  0  0  0  0
  1  2  1  0
  2  3  2  0
  2  4  1  0
  4  5  1  0
  5  6  2  0
  5  7  2  0
  5  8  1  0
  8  9  2  0
  9 10  1  0
 10 11  2  0
 11 12  1  0
 12 13  1  0
 13 14  2  0
 13 15  1  0
 15 16  1  0
 16 17  1  0
 17 18  2  0
 17 19  2  0
 17 20  1  0
 20 21  2  0
 21 22  1  0
 22 23  2  0
 23 24  1  0
 24 25  2  0
 11 26  1  0
 26 27  2  0
 27  8  1  0
 25 20  1  0
  1 28  1  0
  1 29  1  0
  1 30  1  0
  9 31  1  0
 10 32  1  0
 15 33  1  0
 15 34  1  0
 16 35  1  0
 21 36  1  0
 22 37  1  0
 23 38  1  0
 24 39  1  0
 25 40  1  0
 26 41  1  0
 27 42  1  0
M  CHG  2   4  -1  12  -1
M  END
>  <UniqueID>  (78) 
73

>  <SMILES>  (78) 
CC(=O)[N-]S(=O)(=O)c1ccc([N-]C(=O)CNS(=O)(=O)c2ccccc2)cc1

>  <Energy>  (78) 
39.68983333675461

>  <Genealogy>  (78) 
CC(=O)[N-]S(=O)(=O)c1ccc([N-]C(=O)CNS(=O)(=O)c2ccccc2)cc1 (protonated)
CC(=O)[N-]S(=O)(=O)c1ccc([N-]C(=O)CNS(=O)(=O)c2ccccc2)cc1 (3D coordinates assigned)
CC(=O)[N-]S(=O)(=O)c1ccc([N-]C(=O)CNS(=O)(=O)c2ccccc2)cc1 (optimized conformer: 39.68983333675461 kcal/mol)

>  <smiles>  (78) 
CC(=O)NS(=O)(=O)c1ccc(NC(=O)CNS(=O)(=O)c2ccccc2)cc1

>  <score_type>  (78) 
oracle

>  <origin>  (78) 
adg

>  <m_score__min__energy>  (78) 
-11.58

>  <m_primary>  (78) 
energy

$$$$
78:0
     RDKit          3D

 44 45  0  0  1  0  0  0  0  0999 V2000
   60.0470   34.3180   45.9540 C   0  0  0  0  0  0  0  0  0  0  0  0
   59.1840   33.7940   46.9510 N   0  0  0  0  0  0  0  0  0  0  0  0
   59.6310   33.8820   48.2990 C   0  0  0  0  0  0  0  0  0  0  0  0
   57.7900   33.8300   46.7220 C   0  0  0  0  0  0  0  0  0  0  0  0
   57.3580   34.2670   45.3480 C   0  0  0  0  0  0  0  0  0  0  0  0
   57.6530   32.9480   44.1310 S   0  0  0  0  0  0  0  0  0  0  0  0
   57.8740   31.3810   44.9900 C   0  0  0  0  0  0  0  0  0  0  0  0
   56.9270   30.4240   44.8180 N   0  0  0  0  0  0  0  0  0  0  0  0
   56.9930   29.2220   45.4170 C   0  0  0  0  0  0  0  0  0  0  0  0
   56.0040   28.2200   45.2450 N   0  0  0  0  0  0  0  0  0  0  0  0
   58.0720   28.9860   46.2290 C   0  0  0  0  0  0  0  0  0  0  0  0
   58.2260   27.2970   47.1060 Br  0  0  0  0  0  0  0  0  0  0  0  0
   59.0260   29.9820   46.3860 C   0  0  0  0  0  0  0  0  0  0  0  0
   60.0160   29.6970   47.1560 N   0  0  0  0  0  0  0  0  0  0  0  0
   60.2640   30.3630   48.3630 C   0  0  0  0  0  0  0  0  0  0  0  0
   59.2710   30.9010   48.9570 O   0  0  0  0  0  0  0  0  0  0  0  0
   61.5810   30.4990   49.0170 C   0  0  0  0  0  0  0  0  0  0  0  0
   62.3230   31.6720   48.4740 C   0  0  0  0  0  0  0  0  0  0  0  0
   62.5970   32.6880   49.3830 C   0  0  0  0  0  0  0  0  0  0  0  0
   63.2690   33.8380   49.0370 C   0  0  0  0  0  0  0  0  0  0  0  0
   63.6780   33.9710   47.7380 C   0  0  0  0  0  0  0  0  0  0  0  0
   63.4070   32.9720   46.8490 C   0  0  0  0  0  0  0  0  0  0  0  0
   62.7300   31.8040   47.1850 C   0  0  0  0  0  0  0  0  0  0  0  0
   58.9430   31.1720   45.7810 N   0  0  0  0  0  0  0  0  0  0  0  0
   60.8929   34.8316   46.4343 H   0  0  0  0  0  0  0  0  0  0  0  0
   60.4247   33.4966   45.3274 H   0  0  0  0  0  0  0  0  0  0  0  0
   59.4924   35.0320   45.3274 H   0  0  0  0  0  0  0  0  0  0  0  0
   58.7822   33.7149   48.9784 H   0  0  0  0  0  0  0  0  0  0  0  0
   60.4017   33.1183   48.4803 H   0  0  0  0  0  0  0  0  0  0  0  0
   60.0547   34.8808   48.4803 H   0  0  0  0  0  0  0  0  0  0  0  0
   57.3946   32.8179   46.8930 H   0  0  0  0  0  0  0  0  0  0  0  0
   57.3956   34.5900   47.4125 H   0  0  0  0  0  0  0  0  0  0  0  0
   56.2848   34.5077   45.3665 H   0  0  0  0  0  0  0  0  0  0  0  0
   57.9430   35.1524   45.0585 H   0  0  0  0  0  0  0  0  0  0  0  0
   55.1450   28.1910   45.8330 H   0  0  0  0  0  0  0  0  0  0  0  0
   56.1090   27.4890   44.5290 H   0  0  0  0  0  0  0  0  0  0  0  0
   61.4342   30.6344   50.0987 H   0  0  0  0  0  0  0  0  0  0  0  0
   62.1676   29.5893   48.8211 H   0  0  0  0  0  0  0  0  0  0  0  0
   62.2621   32.5672   50.4238 H   0  0  0  0  0  0  0  0  0  0  0  0
   63.4706   34.6239   49.7797 H   0  0  0  0  0  0  0  0  0  0  0  0
   64.2188   34.8725   47.4143 H   0  0  0  0  0  0  0  0  0  0  0  0
   63.7424   33.0971   45.8089 H   0  0  0  0  0  0  0  0  0  0  0  0
   62.5327   31.0207   46.4384 H   0  0  0  0  0  0  0  0  0  0  0  0
   59.6790   31.8880   45.9310 H   0  0  0  0  0  0  0  0  0  0  0  0
  1  2  1  0
  2  3  1  0
  2  4  1  0
  4  5  1  0
  5  6  1  0
  6  7  1  0
  7  8  2  0
  8  9  1  0
  9 10  1  0
  9 11  2  0
 11 12  1  0
 11 13  1  0
 13 14  2  0
 14 15  1  0
 15 16  2  0
 15 17  1  0
 17 18  1  0
 18 19  2  0
 19 20  1  0
 20 21  2  0
 21 22  1  0
 22 23  2  0
 13 24  1  0
 24  7  1  0
 23 18  1  0
  1 25  1  0
  1 26  1  0
  1 27  1  0
  3 28  1  0
  3 29  1  0
  3 30  1  0
  4 31  1  0
  4 32  1  0
  5 33  1  0
  5 34  1  0
 10 35  1  0
 10 36  1  0
 17 37  1  0
 17 38  1  0
 19 39  1  0
 20 40  1  0
 21 41  1  0
 22 42  1  0
 23 43  1  0
 24 44  1  0
M  END
>  <smiles>  (79) 
CN(C)CCSc1nc(N)c(Br)c(=NC(=O)Cc2ccccc2)[nH]1

>  <score_type>  (79) 
oracle

>  <origin>  (79) 
adg

>  <m_score__min__energy>  (79) 
-7.6100000000000003

>  <m_primary>  (79) 
energy

$$$$
79:0
     RDKit          3D

 49 52  0  0  0  0  0  0  0  0999 V2000
   60.4250   25.6540   45.6470 H   0  0  0  0  0  0  0  0  0  0  0  0
   60.9860   26.0180   46.3810 O   0  0  0  0  0  0  0  0  0  0  0  0
   60.2060   26.9680   47.0650 C   0  0  1  0  0  0  0  0  0  0  0  0
   60.5288   27.9728   46.7548 H   0  0  0  0  0  0  0  0  0  0  0  0
   58.7330   26.8370   46.6910 C   0  0  0  0  0  0  0  0  0  0  0  0
   58.0450   25.6500   47.0190 C   0  0  0  0  0  0  0  0  0  0  0  0
   58.5853   24.8336   47.5206 H   0  0  0  0  0  0  0  0  0  0  0  0
   56.6930   25.4930   46.7190 C   0  0  0  0  0  0  0  0  0  0  0  0
   56.1814   24.5540   46.9769 H   0  0  0  0  0  0  0  0  0  0  0  0
   55.9860   26.5170   46.0950 C   0  0  0  0  0  0  0  0  0  0  0  0
   54.6380   26.3410   45.8030 O   0  0  0  0  0  0  0  0  0  0  0  0
   56.6280   27.7150   45.7690 C   0  0  0  0  0  0  0  0  0  0  0  0
   55.9210   28.7120   45.1710 N   0  0  0  0  0  0  0  0  0  0  0  0
   56.4860   29.8980   44.8360 C   0  0  0  0  0  0  0  0  0  0  0  0
   55.7900   30.7910   44.2870 O   0  0  0  0  0  0  0  0  0  0  0  0
   57.8340   30.1260   45.1030 C   0  0  0  0  0  0  0  0  0  0  0  0
   58.2966   31.0867   44.8328 H   0  0  0  0  0  0  0  0  0  0  0  0
   58.5940   29.1290   45.7150 C   0  0  0  0  0  0  0  0  0  0  0  0
   59.6584   29.3071   45.9280 H   0  0  0  0  0  0  0  0  0  0  0  0
   58.0070   27.8930   46.0630 C   0  0  0  0  0  0  0  0  0  0  0  0
   60.4310   26.8640   48.5960 C   0  0  0  0  0  0  0  0  0  0  0  0
   59.6341   26.2341   49.0180 H   0  0  0  0  0  0  0  0  0  0  0  0
   61.4360   26.4390   48.7355 H   0  0  0  0  0  0  0  0  0  0  0  0
   60.4210   28.1550   49.3060 N   0  0  0  0  0  0  0  0  0  0  0  0
   59.4670   28.3710   49.6760 H   0  0  0  0  0  0  0  0  0  0  0  0
   61.4070   28.2300   50.3930 C   0  0  0  0  0  0  0  0  0  0  0  0
   61.2745   27.3687   51.0642 H   0  0  0  0  0  0  0  0  0  0  0  0
   62.4190   28.2171   49.9620 H   0  0  0  0  0  0  0  0  0  0  0  0
   61.2180   29.5250   51.1880 C   0  0  0  0  0  0  0  0  0  0  0  0
   60.4033   29.3849   51.9137 H   0  0  0  0  0  0  0  0  0  0  0  0
   62.1611   29.7579   51.7040 H   0  0  0  0  0  0  0  0  0  0  0  0
   60.8740   30.6770   50.2790 C   0  0  0  0  0  0  0  0  0  0  0  0
   61.8790   31.3190   49.5370 C   0  0  0  0  0  0  0  0  0  0  0  0
   62.9168   30.9585   49.5925 H   0  0  0  0  0  0  0  0  0  0  0  0
   61.5640   32.4150   48.7280 C   0  0  0  0  0  0  0  0  0  0  0  0
   62.3510   32.8990   48.1311 H   0  0  0  0  0  0  0  0  0  0  0  0
   60.2470   32.9010   48.6740 C   0  0  0  0  0  0  0  0  0  0  0  0
   59.8870   34.0040   47.8270 N   0  0  0  0  0  0  0  0  0  0  0  0
   59.0190   33.9800   46.8580 C   0  0  0  0  0  0  0  0  0  0  0  0
   57.7760   33.4820   47.0240 N   0  0  0  0  0  0  0  0  0  0  0  0
   57.0280   33.6090   45.8950 C   0  0  0  0  0  0  0  0  0  0  0  0
   55.9893   33.2523   45.8333 H   0  0  0  0  0  0  0  0  0  0  0  0
   57.6700   34.2220   44.8240 C   0  0  0  0  0  0  0  0  0  0  0  0
   57.2335   34.4135   43.8326 H   0  0  0  0  0  0  0  0  0  0  0  0
   59.2300   34.6190   45.3100 S   0  0  0  0  0  0  0  0  0  0  0  0
   59.2430   32.2430   49.3920 C   0  0  0  0  0  0  0  0  0  0  0  0
   58.2016   32.5896   49.3184 H   0  0  0  0  0  0  0  0  0  0  0  0
   59.5550   31.1470   50.2030 C   0  0  0  0  0  0  0  0  0  0  0  0
   58.7626   30.6518   50.7835 H   0  0  0  0  0  0  0  0  0  0  0  0
  1  2  1  0
  2  3  1  0
  3  4  1  6
  3  5  1  0
  5  6  2  0
  6  7  1  0
  6  8  1  0
  8  9  1  0
  8 10  2  0
 10 11  1  0
 10 12  1  0
 12 13  1  0
 13 14  1  0
 14 15  2  0
 14 16  1  0
 16 17  1  0
 16 18  2  0
 18 19  1  0
 18 20  1  0
  3 21  1  0
 21 22  1  0
 21 23  1  0
 21 24  1  0
 24 25  1  0
 24 26  1  0
 26 27  1  0
 26 28  1  0
 26 29  1  0
 29 30  1  0
 29 31  1  0
 29 32  1  0
 32 33  2  0
 33 34  1  0
 33 35  1  0
 35 36  1  0
 35 37  2  0
 37 38  1  0
 38 39  2  0
 39 40  1  0
 40 41  1  0
 41 42  1  0
 41 43  2  0
 43 44  1  0
 43 45  1  0
 37 46  1  0
 46 47  1  0
 46 48  2  0
 48 49  1  0
 20  5  1  0
 48 32  1  0
 20 12  2  0
 45 39  1  0
M  CHG  3  11  -1  13  -1  40  -1
M  END
>  <UniqueID>  (80) 
74

>  <SMILES>  (80) 
O=c1ccc2c([C@H](O)CNCCc3ccc(/N=c4/[n-]ccs4)cc3)ccc([O-])c2[n-]1

>  <Energy>  (80) 
96.94620128483864

>  <Genealogy>  (80) 
O=c1ccc2c(C(O)CNCCc3ccc(N=c4[n-]ccs4)cc3)ccc([O-])c2[n-]1 (protonated)
O=c1ccc2c([C@H](O)CNCCc3ccc(N=c4[n-]ccs4)cc3)ccc([O-])c2[n-]1 (chirality)
O=c1ccc2c([C@H](O)CNCCc3ccc(/N=c4/[n-]ccs4)cc3)ccc([O-])c2[n-]1 (cis-trans isomerization)
O=c1ccc2c([C@H](O)CNCCc3ccc(/N=c4/[n-]ccs4)cc3)ccc([O-])c2[n-]1 (3D coordinates assigned)
O=c1ccc2c([C@H](O)CNCCc3ccc(/N=c4/[n-]ccs4)cc3)ccc([O-])c2[n-]1 (optimized conformer: 96.94620128483864 kcal/mol)

>  <smiles>  (80) 
O=c1ccc2c(C(O)CNCCc3ccc(N=c4[nH]ccs4)cc3)ccc(O)c2[nH]1

>  <score_type>  (80) 
oracle

>  <origin>  (80) 
adg

>  <m_score__min__energy>  (80) 
-15.119999999999999

>  <m_primary>  (80) 
energy

$$$$
80:0
     RDKit          3D

 33 34  0  0  0  0  0  0  0  0999 V2000
   55.8780   29.8490   43.4680 C   0  0  0  0  0  0  0  0  0  0  0  0
   56.1450   29.7890   44.8650 O   0  0  0  0  0  0  0  0  0  0  0  0
   57.4160   29.5850   45.4270 C   0  0  0  0  0  0  0  0  0  0  0  0
   58.1630   30.6490   45.9700 C   0  0  0  0  0  0  0  0  0  0  0  0
   59.4200   30.4180   46.5300 C   0  0  0  0  0  0  0  0  0  0  0  0
   59.9500   29.1280   46.5500 C   0  0  0  0  0  0  0  0  0  0  0  0
   59.2240   28.0650   46.0130 C   0  0  0  0  0  0  0  0  0  0  0  0
   57.9490   28.2770   45.4530 C   0  0  0  0  0  0  0  0  0  0  0  0
   57.1890   27.1860   44.8970 N   0  0  0  0  0  0  0  0  0  0  0  0
   56.6320   25.8310   45.8280 S   0  0  0  0  0  0  0  0  0  0  0  0
   55.1420   25.9310   45.9960 O   0  0  0  0  0  0  0  0  0  0  0  0
   57.2790   25.8600   47.1840 O   0  0  0  0  0  0  0  0  0  0  0  0
   57.0730   24.3270   45.0250 C   0  0  0  0  0  0  0  0  0  0  0  0
   56.2000   23.7560   44.0910 C   0  0  0  0  0  0  0  0  0  0  0  0
   56.5350   22.5550   43.4590 C   0  0  0  0  0  0  0  0  0  0  0  0
   57.7450   21.9210   43.7550 C   0  0  0  0  0  0  0  0  0  0  0  0
   58.6280   22.4880   44.6850 C   0  0  0  0  0  0  0  0  0  0  0  0
   59.8670   21.8400   44.9870 N   0  0  0  0  0  0  0  0  0  0  0  0
   58.2890   23.6930   45.3180 C   0  0  0  0  0  0  0  0  0  0  0  0
   54.8162   30.0876   43.3075 H   0  0  0  0  0  0  0  0  0  0  0  0
   56.5026   30.6292   43.0085 H   0  0  0  0  0  0  0  0  0  0  0  0
   56.1088   28.8766   43.0085 H   0  0  0  0  0  0  0  0  0  0  0  0
   57.7523   31.6693   45.9524 H   0  0  0  0  0  0  0  0  0  0  0  0
   59.9936   31.2543   46.9562 H   0  0  0  0  0  0  0  0  0  0  0  0
   60.9421   28.9487   46.9900 H   0  0  0  0  0  0  0  0  0  0  0  0
   59.6512   27.0514   46.0269 H   0  0  0  0  0  0  0  0  0  0  0  0
   56.8610   27.2360   43.9070 H   0  0  0  0  0  0  0  0  0  0  0  0
   55.2481   24.2538   43.8540 H   0  0  0  0  0  0  0  0  0  0  0  0
   55.8454   22.1082   42.7277 H   0  0  0  0  0  0  0  0  0  0  0  0
   58.0051   20.9752   43.2573 H   0  0  0  0  0  0  0  0  0  0  0  0
   59.8900   20.8340   45.2630 H   0  0  0  0  0  0  0  0  0  0  0  0
   60.7700   22.3630   44.9380 H   0  0  0  0  0  0  0  0  0  0  0  0
   58.9796   24.1423   46.0469 H   0  0  0  0  0  0  0  0  0  0  0  0
  1  2  1  0
  2  3  1  0
  3  4  2  0
  4  5  1  0
  5  6  2  0
  6  7  1  0
  7  8  2  0
  8  9  1  0
  9 10  1  0
 10 11  2  0
 10 12  2  0
 10 13  1  0
 13 14  2  0
 14 15  1  0
 15 16  2  0
 16 17  1  0
 17 18  1  0
 17 19  2  0
  8  3  1  0
 19 13  1  0
  1 20  1  0
  1 21  1  0
  1 22  1  0
  4 23  1  0
  5 24  1  0
  6 25  1  0
  7 26  1  0
  9 27  1  0
 14 28  1  0
 15 29  1  0
 16 30  1  0
 18 31  1  0
 18 32  1  0
 19 33  1  0
M  END
>  <UniqueID>  (81) 
75

>  <SMILES>  (81) 
COc1ccccc1NS(=O)(=O)c1cccc(N)c1

>  <Energy>  (81) 
35.31135339125781

>  <Genealogy>  (81) 
COc1ccccc1NS(=O)(=O)c1cccc(N)c1 (3D coordinates assigned)
COc1ccccc1NS(=O)(=O)c1cccc(N)c1 (optimized conformer: 35.31135339125781 kcal/mol)

>  <smiles>  (81) 
COc1ccccc1NS(=O)(=O)c1cccc(N)c1

>  <score_type>  (81) 
oracle

>  <origin>  (81) 
adg

>  <m_score__min__energy>  (81) 
-7.9400000000000004

>  <m_primary>  (81) 
energy

$$$$
81:0
     RDKit          3D

 44 46  0  0  0  0  0  0  0  0999 V2000
   61.0400   30.5620   49.6630 C   0  0  0  0  0  0  0  0  0  0  0  0
   59.7610   30.3200   48.9190 C   0  0  0  0  0  0  0  0  0  0  0  0
   58.6800   30.6870   49.4570 O   0  0  0  0  0  0  0  0  0  0  0  0
   59.7350   29.6700   47.5810 C   0  0  0  0  0  0  0  0  0  0  0  0
   60.7780   29.9040   46.6650 C   0  0  0  0  0  0  0  0  0  0  0  0
   60.7710   29.2960   45.4080 C   0  0  0  0  0  0  0  0  0  0  0  0
   59.7350   28.4340   45.0520 C   0  0  0  0  0  0  0  0  0  0  0  0
   58.7000   28.1650   45.9530 C   0  0  0  0  0  0  0  0  0  0  0  0
   57.6670   27.2450   45.5660 N   0  0  0  0  0  0  0  0  0  0  0  0
   56.2530   27.4870   45.6290 C   0  0  0  0  0  0  0  0  0  0  0  0
   55.4970   26.5720   46.0420 O   0  0  0  0  0  0  0  0  0  0  0  0
   55.6780   28.7400   45.2350 N   0  0  0  0  0  0  0  0  0  0  0  0
   56.3550   29.7620   44.4910 C   0  0  0  0  0  0  0  0  0  0  0  0
   56.3400   29.7760   43.0880 C   0  0  0  0  0  0  0  0  0  0  0  0
   56.9690   30.8090   42.3920 C   0  0  0  0  0  0  0  0  0  0  0  0
   57.6130   31.8360   43.0870 C   0  0  0  0  0  0  0  0  0  0  0  0
   57.6430   31.8330   44.4940 C   0  0  0  0  0  0  0  0  0  0  0  0
   58.2820   32.9440   45.2360 C   0  0  0  0  0  0  0  0  0  0  0  0
   57.6000   33.9500   45.5730 O   0  0  0  0  0  0  0  0  0  0  0  0
   59.6580   32.8400   45.6310 N   0  0  0  0  0  0  0  0  0  0  0  0
   60.2330   33.2740   46.8700 C   0  0  0  0  0  0  0  0  0  0  0  0
   61.6280   33.2880   46.9930 C   0  0  0  0  0  0  0  0  0  0  0  0
   62.2310   33.7210   48.1780 C   0  0  0  0  0  0  0  0  0  0  0  0
   61.4420   34.1590   49.2450 C   0  0  0  0  0  0  0  0  0  0  0  0
   62.0270   34.5810   50.3930 F   0  0  0  0  0  0  0  0  0  0  0  0
   60.0500   34.1710   49.1240 C   0  0  0  0  0  0  0  0  0  0  0  0
   59.4450   33.7380   47.9400 C   0  0  0  0  0  0  0  0  0  0  0  0
   57.0310   30.7710   45.1850 C   0  0  0  0  0  0  0  0  0  0  0  0
   58.6840   28.8110   47.2020 C   0  0  0  0  0  0  0  0  0  0  0  0
   60.8471   30.5255   50.7453 H   0  0  0  0  0  0  0  0  0  0  0  0
   61.7726   29.7865   49.3948 H   0  0  0  0  0  0  0  0  0  0  0  0
   61.4386   31.5515   49.3948 H   0  0  0  0  0  0  0  0  0  0  0  0
   61.6066   30.5723   46.9422 H   0  0  0  0  0  0  0  0  0  0  0  0
   61.5854   29.4978   44.6966 H   0  0  0  0  0  0  0  0  0  0  0  0
   59.7316   27.9633   44.0578 H   0  0  0  0  0  0  0  0  0  0  0  0
   55.8317   28.9716   42.5361 H   0  0  0  0  0  0  0  0  0  0  0  0
   56.9578   30.8149   41.2921 H   0  0  0  0  0  0  0  0  0  0  0  0
   58.0992   32.6513   42.5313 H   0  0  0  0  0  0  0  0  0  0  0  0
   62.2538   32.9560   46.1515 H   0  0  0  0  0  0  0  0  0  0  0  0
   63.3271   33.7168   48.2704 H   0  0  0  0  0  0  0  0  0  0  0  0
   59.4291   34.5217   49.9615 H   0  0  0  0  0  0  0  0  0  0  0  0
   58.3494   33.7601   47.8445 H   0  0  0  0  0  0  0  0  0  0  0  0
   57.0847   30.7338   46.2831 H   0  0  0  0  0  0  0  0  0  0  0  0
   57.8424   28.6441   47.8903 H   0  0  0  0  0  0  0  0  0  0  0  0
  1  2  1  0
  2  3  2  0
  2  4  1  0
  4  5  2  0
  5  6  1  0
  6  7  2  0
  7  8  1  0
  8  9  1  0
  9 10  1  0
 10 11  2  0
 10 12  1  0
 12 13  1  0
 13 14  2  0
 14 15  1  0
 15 16  2  0
 16 17  1  0
 17 18  1  0
 18 19  2  0
 18 20  1  0
 20 21  1  0
 21 22  2  0
 22 23  1  0
 23 24  2  0
 24 25  1  0
 24 26  1  0
 26 27  2  0
 17 28  2  0
  8 29  2  0
 29  4  1  0
 28 13  1  0
 27 21  1  0
  1 30  1  0
  1 31  1  0
  1 32  1  0
  5 33  1  0
  6 34  1  0
  7 35  1  0
 14 36  1  0
 15 37  1  0
 16 38  1  0
 22 39  1  0
 23 40  1  0
 26 41  1  0
 27 42  1  0
 28 43  1  0
 29 44  1  0
M  CHG  3   9  -1  12  -1  20  -1
M  END
>  <UniqueID>  (82) 
76

>  <SMILES>  (82) 
CC(=O)c1cccc([N-]C(=O)[N-]c2cccc(C(=O)[N-]c3ccc(F)cc3)c2)c1

>  <Energy>  (82) 
56.95383780608529

>  <Genealogy>  (82) 
CC(=O)c1cccc([N-]C(=O)[N-]c2cccc(C(=O)[N-]c3ccc(F)cc3)c2)c1 (protonated)
CC(=O)c1cccc([N-]C(=O)[N-]c2cccc(C(=O)[N-]c3ccc(F)cc3)c2)c1 (3D coordinates assigned)
CC(=O)c1cccc([N-]C(=O)[N-]c2cccc(C(=O)[N-]c3ccc(F)cc3)c2)c1 (optimized conformer: 56.95383780608529 kcal/mol)

>  <smiles>  (82) 
CC(=O)c1cccc(NC(=O)Nc2cccc(C(=O)Nc3ccc(F)cc3)c2)c1

>  <score_type>  (82) 
oracle

>  <origin>  (82) 
adg

>  <m_score__min__energy>  (82) 
-13.66

>  <m_primary>  (82) 
energy

$$$$
82:0
     RDKit          3D

 54 57  0  0  0  0  0  0  0  0999 V2000
   56.6750   28.4180   45.9790 H   0  0  0  0  0  0  0  0  0  0  0  0
   57.2460   27.6410   46.3810 N   0  0  0  0  0  0  0  0  0  0  0  0
   58.4420   27.9140   47.1050 C   0  0  0  0  0  0  0  0  0  0  0  0
   59.1070   26.9600   47.5900 O   0  0  0  0  0  0  0  0  0  0  0  0
   58.8490   29.3110   47.3420 C   0  0  0  0  0  0  0  0  0  0  0  0
   59.9510   29.6790   48.0880 C   0  0  0  0  0  0  0  0  0  0  0  0
   60.5443   29.0037   48.7220 H   0  0  0  0  0  0  0  0  0  0  0  0
   60.1870   31.0010   47.9170 N   0  0  0  0  0  0  0  0  0  0  0  0
   61.3600   31.7730   48.3990 C   0  0  0  0  0  0  0  0  0  0  0  0
   62.5090   31.5200   47.3830 C   0  0  0  0  0  0  0  0  0  0  0  0
   62.0844   31.0303   46.4943 H   0  0  0  0  0  0  0  0  0  0  0  0
   63.2553   30.8933   47.8932 H   0  0  0  0  0  0  0  0  0  0  0  0
   63.2020   32.7460   46.9510 C   0  0  0  0  0  0  0  0  0  0  0  0
   63.7460   33.7090   46.6120 N   0  0  0  0  0  0  0  0  0  0  0  0
   61.7900   31.2980   49.8150 C   0  0  0  0  0  0  0  0  0  0  0  0
   62.0245   30.2240   49.7750 H   0  0  0  0  0  0  0  0  0  0  0  0
   62.6706   31.8822   50.1204 H   0  0  0  0  0  0  0  0  0  0  0  0
   60.6750   31.5280   50.8560 C   0  0  0  0  0  0  0  0  0  0  0  0
   59.9234   30.7334   50.7388 H   0  0  0  0  0  0  0  0  0  0  0  0
   61.1561   31.5144   51.8451 H   0  0  0  0  0  0  0  0  0  0  0  0
   59.9900   32.8410   50.7300 N   0  0  0  0  0  0  0  0  0  0  0  0
   58.5640   32.7160   50.3540 C   0  0  0  0  0  0  0  0  0  0  0  0
   58.0764   33.6963   50.4605 H   0  0  0  0  0  0  0  0  0  0  0  0
   58.5050   32.3680   49.3122 H   0  0  0  0  0  0  0  0  0  0  0  0
   57.8600   31.7170   51.2350 C   0  0  0  0  0  0  0  0  0  0  0  0
   57.7930   30.3620   50.8770 C   0  0  0  0  0  0  0  0  0  0  0  0
   58.2686   30.0156   49.9476 H   0  0  0  0  0  0  0  0  0  0  0  0
   57.1410   29.4760   51.6770 N   0  0  0  0  0  0  0  0  0  0  0  0
   56.5400   29.8640   52.8330 C   0  0  0  0  0  0  0  0  0  0  0  0
   55.7150   28.6770   53.8230 Cl  0  0  0  0  0  0  0  0  0  0  0  0
   56.5800   31.2030   53.2260 C   0  0  0  0  0  0  0  0  0  0  0  0
   56.0943   31.5221   54.1599 H   0  0  0  0  0  0  0  0  0  0  0  0
   57.2420   32.1330   52.4230 C   0  0  0  0  0  0  0  0  0  0  0  0
   57.2789   33.1910   52.7217 H   0  0  0  0  0  0  0  0  0  0  0  0
   60.7300   33.8160   49.8980 C   0  0  0  0  0  0  0  0  0  0  0  0
   60.1362   34.7394   49.8293 H   0  0  0  0  0  0  0  0  0  0  0  0
   61.7034   33.9872   50.3809 H   0  0  0  0  0  0  0  0  0  0  0  0
   61.0090   33.3040   48.4690 C   0  0  0  0  0  0  0  0  0  0  0  0
   60.1133   33.4825   47.8559 H   0  0  0  0  0  0  0  0  0  0  0  0
   61.8890   33.8509   48.0996 H   0  0  0  0  0  0  0  0  0  0  0  0
   59.3070   31.4820   47.0480 N   0  0  0  0  0  0  0  0  0  0  0  0
   58.4600   30.4940   46.7140 C   0  0  0  0  0  0  0  0  0  0  0  0
   57.4370   30.7060   45.9330 N   0  0  0  0  0  0  0  0  0  0  0  0
   57.4510   31.0940   44.5550 C   0  0  0  0  0  0  0  0  0  0  0  0
   58.1230   32.2650   44.1790 C   0  0  0  0  0  0  0  0  0  0  0  0
   58.6696   32.8496   44.9336 H   0  0  0  0  0  0  0  0  0  0  0  0
   58.1010   32.6930   42.8470 C   0  0  0  0  0  0  0  0  0  0  0  0
   58.6469   33.6014   42.5523 H   0  0  0  0  0  0  0  0  0  0  0  0
   57.3850   31.9660   41.8900 C   0  0  0  0  0  0  0  0  0  0  0  0
   57.3620   32.3840   40.6000 F   0  0  0  0  0  0  0  0  0  0  0  0
   56.6810   30.8180   42.2660 C   0  0  0  0  0  0  0  0  0  0  0  0
   56.1107   30.2518   41.5149 H   0  0  0  0  0  0  0  0  0  0  0  0
   56.7020   30.3900   43.5960 C   0  0  0  0  0  0  0  0  0  0  0  0
   56.1302   29.4987   43.8938 H   0  0  0  0  0  0  0  0  0  0  0  0
  1  2  1  0
  2  3  1  0
  3  4  2  0
  3  5  1  0
  5  6  2  0
  6  7  1  0
  6  8  1  0
  8  9  1  0
  9 10  1  0
 10 11  1  0
 10 12  1  0
 10 13  1  0
 13 14  3  0
  9 15  1  0
 15 16  1  0
 15 17  1  0
 15 18  1  0
 18 19  1  0
 18 20  1  0
 18 21  1  0
 21 22  1  0
 22 23  1  0
 22 24  1  0
 22 25  1  0
 25 26  2  0
 26 27  1  0
 26 28  1  0
 28 29  2  0
 29 30  1  0
 29 31  1  0
 31 32  1  0
 31 33  2  0
 33 34  1  0
 21 35  1  0
 35 36  1  0
 35 37  1  0
 35 38  1  0
 38 39  1  0
 38 40  1  0
  8 41  1  0
 41 42  1  0
 42 43  2  0
 43 44  1  0
 44 45  2  0
 45 46  1  0
 45 47  1  0
 47 48  1  0
 47 49  2  0
 49 50  1  0
 49 51  1  0
 51 52  1  0
 51 53  2  0
 53 54  1  0
 42  5  1  0
 53 44  1  0
 38  9  1  0
 33 25  1  0
M  CHG  2   2  -1  41  -1
M  END
>  <UniqueID>  (83) 
77

>  <SMILES>  (83) 
N#CCC1(n2cc(C([NH-])=O)/c(=N\c3ccc(F)cc3)[n-]2)CCN(Cc2ccc(Cl)nc2)CC1

>  <Energy>  (83) 
116.79591017839898

>  <Genealogy>  (83) 
N#CCC1(n2cc(C([NH-])=O)c(=Nc3ccc(F)cc3)[n-]2)CCN(Cc2ccc(Cl)nc2)CC1 (protonated)
N#CCC1(n2cc(C([NH-])=O)/c(=N\c3ccc(F)cc3)[n-]2)CCN(Cc2ccc(Cl)nc2)CC1 (cis-trans isomerization)
N#CCC1(n2cc(C([NH-])=O)/c(=N\c3ccc(F)cc3)[n-]2)CCN(Cc2ccc(Cl)nc2)CC1 (3D coordinates assigned)
N#CCC1(n2cc(C([NH-])=O)/c(=N\c3ccc(F)cc3)[n-]2)CCN(Cc2ccc(Cl)nc2)CC1 (nonaromatic ring conformer: 116.79591017839898 kcal/mol)

>  <smiles>  (83) 
N#CCC1(n2cc(C(N)=O)c(=Nc3ccc(F)cc3)[nH]2)CCN(Cc2ccc(Cl)nc2)CC1

>  <score_type>  (83) 
oracle

>  <origin>  (83) 
adg

>  <m_score__min__energy>  (83) 
-12.359999999999999

>  <m_primary>  (83) 
energy

$$$$
83:0
     RDKit          3D

 63 67  0  0  1  0  0  0  0  0999 V2000
   65.3230   32.9060   49.7400 C   0  0  0  0  0  0  0  0  0  0  0  0
   64.6380   31.6680   49.7040 O   0  0  0  0  0  0  0  0  0  0  0  0
   63.2540   31.6370   49.5800 C   0  0  0  0  0  0  0  0  0  0  0  0
   62.5610   32.4550   48.7090 C   0  0  0  0  0  0  0  0  0  0  0  0
   61.1900   32.3610   48.6490 C   0  0  0  0  0  0  0  0  0  0  0  0
   60.3960   33.2410   47.7370 C   0  0  0  0  0  0  0  0  0  0  0  0
   60.3650   34.5990   48.0340 C   0  0  0  0  0  0  0  0  0  0  0  0
   59.2710   35.3290   46.7640 S   0  0  0  0  0  0  0  0  0  0  0  0
   58.9700   33.7670   45.9730 C   0  0  0  0  0  0  0  0  0  0  0  0
   58.2150   33.4970   44.8860 N   0  0  0  0  0  0  0  0  0  0  0  0
   58.1160   32.2340   44.4200 C   0  0  0  0  0  0  0  0  0  0  0  0
   57.3910   31.9980   43.3840 N   0  0  0  0  0  0  0  0  0  0  0  0
   56.6180   30.8040   43.2750 C   0  0  0  0  0  0  0  0  0  0  0  0
   60.1680   30.5290   46.6940 N   0  0  0  0  0  0  0  0  0  0  0  0
   55.4870   29.7540   44.9920 O   0  0  0  0  0  0  0  0  0  0  0  0
   58.8000   31.2960   45.0910 N   0  0  0  0  0  0  0  0  0  0  0  0
   59.5580   31.5240   46.1700 C   0  0  0  0  0  0  0  0  0  0  0  0
   56.6410   30.0150   44.3020 N   0  0  0  0  0  0  0  0  0  0  0  0
   59.6040   29.2280   46.6190 C   0  0  0  0  0  0  0  0  0  0  0  0
   58.7150   28.7960   47.5970 C   0  0  0  0  0  0  0  0  0  0  0  0
   58.1510   27.5490   47.5580 C   0  0  0  0  0  0  0  0  0  0  0  0
   58.4780   26.7020   46.5210 C   0  0  0  0  0  0  0  0  0  0  0  0
   57.8680   25.4170   46.5250 N   0  0  0  0  0  0  0  0  0  0  0  0
   56.4700   25.2200   46.3380 C   0  0  0  0  0  0  0  0  0  0  0  0
   55.6570   26.1580   46.1540 O   0  0  0  0  0  0  0  0  0  0  0  0
   56.0030   23.8970   46.3650 O   0  0  0  0  0  0  0  0  0  0  0  0
   56.2180   23.0470   45.2920 C   0  0  0  0  0  0  0  0  0  0  0  0
   56.1120   23.5870   44.0270 C   0  0  0  0  0  0  0  0  0  0  0  0
   56.3290   22.7290   42.9670 C   0  0  0  0  0  0  0  0  0  0  0  0
   56.6370   21.4050   43.1760 C   0  0  0  0  0  0  0  0  0  0  0  0
   56.7400   20.8760   44.4610 C   0  0  0  0  0  0  0  0  0  0  0  0
   56.5260   21.7220   45.5280 C   0  0  0  0  0  0  0  0  0  0  0  0
   59.3670   27.0810   45.5100 C   0  0  0  0  0  0  0  0  0  0  0  0
   59.8990   28.3490   45.6070 C   0  0  0  0  0  0  0  0  0  0  0  0
   59.6740   32.8410   46.6770 C   0  0  0  0  0  0  0  0  0  0  0  0
   60.4500   31.4850   49.4170 C   0  0  0  0  0  0  0  0  0  0  0  0
   61.1410   30.6700   50.2860 C   0  0  0  0  0  0  0  0  0  0  0  0
   62.5170   30.7610   50.3490 C   0  0  0  0  0  0  0  0  0  0  0  0
   63.2370   29.8980   51.2680 C   0  0  0  0  0  0  0  0  0  0  0  0
   62.7880   28.7510   51.5630 O   0  0  0  0  0  0  0  0  0  0  0  0
   64.4340   30.2640   51.8700 O   0  0  0  0  0  0  0  0  0  0  0  0
   65.4877   33.2036   50.7861 H   0  0  0  0  0  0  0  0  0  0  0  0
   66.2927   32.8034   49.2310 H   0  0  0  0  0  0  0  0  0  0  0  0
   64.7210   33.6731   49.2310 H   0  0  0  0  0  0  0  0  0  0  0  0
   63.0986   33.1724   48.0715 H   0  0  0  0  0  0  0  0  0  0  0  0
   60.8841   35.1193   48.8524 H   0  0  0  0  0  0  0  0  0  0  0  0
   57.7160   34.2880   44.4240 H   0  0  0  0  0  0  0  0  0  0  0  0
   56.0365   30.5672   42.3718 H   0  0  0  0  0  0  0  0  0  0  0  0
   55.5320   29.7440   45.9990 H   0  0  0  0  0  0  0  0  0  0  0  0
   58.7180   30.3180   44.7210 H   0  0  0  0  0  0  0  0  0  0  0  0
   58.4580   29.4742   48.4241 H   0  0  0  0  0  0  0  0  0  0  0  0
   57.4485   27.2284   48.3414 H   0  0  0  0  0  0  0  0  0  0  0  0
   58.4930   24.5740   46.6760 H   0  0  0  0  0  0  0  0  0  0  0  0
   55.8669   24.6479   43.8705 H   0  0  0  0  0  0  0  0  0  0  0  0
   56.2543   23.1109   41.9381 H   0  0  0  0  0  0  0  0  0  0  0  0
   56.8058   20.7489   42.3093 H   0  0  0  0  0  0  0  0  0  0  0  0
   56.9847   19.8153   44.6191 H   0  0  0  0  0  0  0  0  0  0  0  0
   56.6000   21.3447   46.5586 H   0  0  0  0  0  0  0  0  0  0  0  0
   59.6274   26.4043   44.6828 H   0  0  0  0  0  0  0  0  0  0  0  0
   60.6020   28.6759   44.8267 H   0  0  0  0  0  0  0  0  0  0  0  0
   59.3538   31.4396   49.3383 H   0  0  0  0  0  0  0  0  0  0  0  0
   60.6019   29.9538   50.9234 H   0  0  0  0  0  0  0  0  0  0  0  0
   65.1170   30.8560   51.4020 H   0  0  0  0  0  0  0  0  0  0  0  0
  1  2  1  0
  2  3  1  0
  3  4  2  0
  4  5  1  0
  5  6  1  0
  6  7  2  0
  7  8  1  0
  8  9  1  0
  9 10  1  0
 10 11  1  0
 11 12  2  0
 12 13  1  0
 13 14  2  0
 14 15  1  0
 11 16  1  0
 16 17  1  0
 17 18  2  0
 18 19  1  0
 19 20  2  0
 20 21  1  0
 21 22  2  0
 22 23  1  0
 23 24  1  0
 24 25  2  0
 24 26  1  0
 26 27  1  0
 27 28  2  0
 28 29  1  0
 29 30  2  0
 30 31  1  0
 31 32  2  0
 22 33  1  0
 33 34  2  0
 17 35  1  0
  5 36  2  0
 36 37  1  0
 37 38  2  0
 38 39  1  0
 39 40  2  0
 39 41  1  0
 38  3  1  0
 35  6  1  0
 35  9  2  0
 34 19  1  0
 32 27  1  0
  1 42  1  0
  1 43  1  0
  1 44  1  0
  4 45  1  0
  7 46  1  0
 10 47  1  0
 13 48  1  0
 15 49  1  0
 16 50  1  0
 20 51  1  0
 21 52  1  0
 23 53  1  0
 28 54  1  0
 29 55  1  0
 30 56  1  0
 31 57  1  0
 32 58  1  0
 33 59  1  0
 34 60  1  0
 36 61  1  0
 37 62  1  0
 41 63  1  0
M  END
>  <smiles>  (84) 
COc1cc(-c2csc3[nH]c(=NC=NO)[nH]c(=Nc4ccc(NC(=O)Oc5ccccc5)cc4)c23)ccc1C(=O)O

>  <score_type>  (84) 
oracle

>  <origin>  (84) 
adg

>  <m_score__min__energy>  (84) 
-9.7799999999999994

>  <m_primary>  (84) 
energy

$$$$
84:0
     RDKit          3D

 32 34  0  0  0  0  0  0  0  0999 V2000
   60.7770   28.7940   45.4510 O   0  0  0  0  0  0  0  0  0  0  0  0
   60.0700   29.6880   46.1320 C   0  0  0  0  0  0  0  0  0  0  0  0
   60.7930   30.2820   47.2000 C   0  0  0  0  0  0  0  0  0  0  0  0
   61.7910   31.2200   47.1190 C   0  0  0  0  0  0  0  0  0  0  0  0
   62.4710   31.7580   48.1650 C   0  0  0  0  0  0  0  0  0  0  0  0
   62.1580   31.3500   49.4450 C   0  0  0  0  0  0  0  0  0  0  0  0
   61.1650   30.4100   49.5980 C   0  0  0  0  0  0  0  0  0  0  0  0
   60.4830   29.8730   48.5090 C   0  0  0  0  0  0  0  0  0  0  0  0
   58.7380   29.8290   45.6250 C   0  0  0  0  0  0  0  0  0  0  0  0
   58.1970   28.6790   45.1010 N   0  0  0  0  0  0  0  0  0  0  0  0
   57.0320   28.6470   44.5120 N   0  0  0  0  0  0  0  0  0  0  0  0
   56.2800   29.7460   44.3770 C   0  0  0  0  0  0  0  0  0  0  0  0
   55.1550   29.7030   43.8040 O   0  0  0  0  0  0  0  0  0  0  0  0
   56.7620   30.8860   44.8690 N   0  0  0  0  0  0  0  0  0  0  0  0
   57.9890   30.9590   45.4980 C   0  0  0  0  0  0  0  0  0  0  0  0
   58.3720   32.3070   45.8450 C   0  0  0  0  0  0  0  0  0  0  0  0
   58.5500   32.8690   47.0570 C   0  0  0  0  0  0  0  0  0  0  0  0
   58.9800   34.1860   47.2420 C   0  0  0  0  0  0  0  0  0  0  0  0
   59.2500   35.0030   46.1590 C   0  0  0  0  0  0  0  0  0  0  0  0
   59.0680   34.4370   44.9090 C   0  0  0  0  0  0  0  0  0  0  0  0
   58.6480   33.1420   44.7330 C   0  0  0  0  0  0  0  0  0  0  0  0
   62.0664   31.5692   46.1129 H   0  0  0  0  0  0  0  0  0  0  0  0
   63.2584   32.5068   47.9939 H   0  0  0  0  0  0  0  0  0  0  0  0
   62.6862   31.7635   50.3168 H   0  0  0  0  0  0  0  0  0  0  0  0
   60.9018   30.0724   50.6113 H   0  0  0  0  0  0  0  0  0  0  0  0
   59.6956   29.1229   48.6742 H   0  0  0  0  0  0  0  0  0  0  0  0
   56.6240   27.7590   44.1110 H   0  0  0  0  0  0  0  0  0  0  0  0
   58.3458   32.2582   47.9488 H   0  0  0  0  0  0  0  0  0  0  0  0
   59.1053   34.5779   48.2622 H   0  0  0  0  0  0  0  0  0  0  0  0
   59.5895   36.0418   46.2838 H   0  0  0  0  0  0  0  0  0  0  0  0
   59.2685   35.0511   44.0187 H   0  0  0  0  0  0  0  0  0  0  0  0
   58.5238   32.7463   43.7142 H   0  0  0  0  0  0  0  0  0  0  0  0
  1  2  2  0
  2  3  1  0
  3  4  2  0
  4  5  1  0
  5  6  2  0
  6  7  1  0
  7  8  2  0
  2  9  1  0
  9 10  2  0
 10 11  1  0
 11 12  1  0
 12 13  2  0
 12 14  1  0
 14 15  2  0
 15 16  1  0
 16 17  2  0
 17 18  1  0
 18 19  2  0
 19 20  1  0
 20 21  2  0
  8  3  1  0
 15  9  1  0
 21 16  1  0
  4 22  1  0
  5 23  1  0
  6 24  1  0
  7 25  1  0
  8 26  1  0
 11 27  1  0
 17 28  1  0
 18 29  1  0
 19 30  1  0
 20 31  1  0
 21 32  1  0
M  END
>  <smiles>  (85) 
O=C(c1ccccc1)c1n[nH]c(=O)nc1-c1ccccc1

>  <score_type>  (85) 
oracle

>  <origin>  (85) 
adg

>  <m_score__min__energy>  (85) 
-7.7999999999999998

>  <m_primary>  (85) 
energy

$$$$
85:0
     RDKit          3D

 48 49  0  0  0  0  0  0  0  0999 V2000
   59.9580   33.4640   52.0810 C   0  0  0  0  0  0  0  0  0  0  0  0
   59.5560   33.7340   50.6360 C   0  0  0  0  0  0  0  0  0  0  0  0
   60.5040   33.0620   49.6790 C   0  0  0  0  0  0  0  0  0  0  0  0
   61.5640   33.6760   49.3740 O   0  0  0  0  0  0  0  0  0  0  0  0
   60.2290   31.7300   49.0690 C   0  0  0  0  0  0  0  0  0  0  0  0
   60.9700   31.2460   47.9740 C   0  0  0  0  0  0  0  0  0  0  0  0
   60.6790   30.0000   47.4120 C   0  0  0  0  0  0  0  0  0  0  0  0
   59.6250   29.2190   47.9180 C   0  0  0  0  0  0  0  0  0  0  0  0
   59.2670   27.9750   47.3720 O   0  0  0  0  0  0  0  0  0  0  0  0
   59.9320   27.3200   46.2910 C   0  0  0  0  0  0  0  0  0  0  0  0
   59.9660   28.1790   45.0630 C   0  0  0  0  0  0  0  0  0  0  0  0
   60.9780   28.8960   44.8390 O   0  0  0  0  0  0  0  0  0  0  0  0
   58.8590   28.2330   44.2120 O   0  0  0  0  0  0  0  0  0  0  0  0
   57.5590   27.8190   44.6190 C   0  0  0  0  0  0  0  0  0  0  0  0
   56.7540   28.9970   45.0870 C   0  0  0  0  0  0  0  0  0  0  0  0
   55.5160   29.0050   44.8600 O   0  0  0  0  0  0  0  0  0  0  0  0
   57.3350   30.1370   45.7400 N   0  0  0  0  0  0  0  0  0  0  0  0
   57.7580   31.3840   45.1670 C   0  0  0  0  0  0  0  0  0  0  0  0
   57.6850   31.6370   43.7860 C   0  0  0  0  0  0  0  0  0  0  0  0
   58.1550   32.8450   43.2660 C   0  0  0  0  0  0  0  0  0  0  0  0
   58.7390   33.7930   44.1100 C   0  0  0  0  0  0  0  0  0  0  0  0
   58.8590   33.5350   45.4800 C   0  0  0  0  0  0  0  0  0  0  0  0
   59.6650   34.7080   46.5180 S   0  0  0  0  0  0  0  0  0  0  0  0
   61.2910   34.1990   46.8190 N   0  0  0  0  0  0  0  0  0  0  0  0
   58.9190   34.8160   47.8180 O   0  0  0  0  0  0  0  0  0  0  0  0
   59.6910   36.0580   45.8570 O   0  0  0  0  0  0  0  0  0  0  0  0
   58.3640   32.3310   46.0040 C   0  0  0  0  0  0  0  0  0  0  0  0
   58.8980   29.6900   49.0140 C   0  0  0  0  0  0  0  0  0  0  0  0
   59.2020   30.9240   49.5920 C   0  0  0  0  0  0  0  0  0  0  0  0
   59.2384   33.9473   52.7582 H   0  0  0  0  0  0  0  0  0  0  0  0
   59.9621   32.3793   52.2639 H   0  0  0  0  0  0  0  0  0  0  0  0
   60.9636   33.8705   52.2639 H   0  0  0  0  0  0  0  0  0  0  0  0
   58.5400   33.3478   50.4669 H   0  0  0  0  0  0  0  0  0  0  0  0
   59.5895   34.8192   50.4593 H   0  0  0  0  0  0  0  0  0  0  0  0
   61.7859   31.8545   47.5568 H   0  0  0  0  0  0  0  0  0  0  0  0
   61.2785   29.6278   46.5682 H   0  0  0  0  0  0  0  0  0  0  0  0
   60.9640   27.0891   46.5940 H   0  0  0  0  0  0  0  0  0  0  0  0
   59.3778   26.4002   46.0525 H   0  0  0  0  0  0  0  0  0  0  0  0
   57.0470   27.3458   43.7682 H   0  0  0  0  0  0  0  0  0  0  0  0
   57.6572   27.1033   45.4485 H   0  0  0  0  0  0  0  0  0  0  0  0
   57.2560   30.8805   43.1124 H   0  0  0  0  0  0  0  0  0  0  0  0
   58.0652   33.0506   42.1891 H   0  0  0  0  0  0  0  0  0  0  0  0
   59.1052   34.7443   43.6966 H   0  0  0  0  0  0  0  0  0  0  0  0
   61.6790   34.8310   47.5540 H   0  0  0  0  0  0  0  0  0  0  0  0
   61.2440   33.2450   47.2380 H   0  0  0  0  0  0  0  0  0  0  0  0
   58.4524   32.1285   47.0816 H   0  0  0  0  0  0  0  0  0  0  0  0
   58.0782   29.0828   49.4255 H   0  0  0  0  0  0  0  0  0  0  0  0
   58.6316   31.2699   50.4667 H   0  0  0  0  0  0  0  0  0  0  0  0
  1  2  1  0
  2  3  1  0
  3  4  2  0
  3  5  1  0
  5  6  2  0
  6  7  1  0
  7  8  2  0
  8  9  1  0
  9 10  1  0
 10 11  1  0
 11 12  2  0
 11 13  1  0
 13 14  1  0
 14 15  1  0
 15 16  2  0
 15 17  1  0
 17 18  1  0
 18 19  2  0
 19 20  1  0
 20 21  2  0
 21 22  1  0
 22 23  1  0
 23 24  1  0
 23 25  2  0
 23 26  2  0
 22 27  2  0
  8 28  1  0
 28 29  2  0
 29  5  1  0
 27 18  1  0
  1 30  1  0
  1 31  1  0
  1 32  1  0
  2 33  1  0
  2 34  1  0
  6 35  1  0
  7 36  1  0
 10 37  1  0
 10 38  1  0
 14 39  1  0
 14 40  1  0
 19 41  1  0
 20 42  1  0
 21 43  1  0
 24 44  1  0
 24 45  1  0
 27 46  1  0
 28 47  1  0
 29 48  1  0
M  CHG  1  17  -1
M  END
>  <UniqueID>  (86) 
78

>  <SMILES>  (86) 
CCC(=O)c1ccc(OCC(=O)OCC(=O)[N-]c2cccc(S(N)(=O)=O)c2)cc1

>  <Energy>  (86) 
41.881885798648

>  <Genealogy>  (86) 
CCC(=O)c1ccc(OCC(=O)OCC(=O)[N-]c2cccc(S(N)(=O)=O)c2)cc1 (protonated)
CCC(=O)c1ccc(OCC(=O)OCC(=O)[N-]c2cccc(S(N)(=O)=O)c2)cc1 (3D coordinates assigned)
CCC(=O)c1ccc(OCC(=O)OCC(=O)[N-]c2cccc(S(N)(=O)=O)c2)cc1 (optimized conformer: 41.881885798648 kcal/mol)

>  <smiles>  (86) 
CCC(=O)c1ccc(OCC(=O)OCC(=O)Nc2cccc(S(N)(=O)=O)c2)cc1

>  <score_type>  (86) 
oracle

>  <origin>  (86) 
adg

>  <m_score__min__energy>  (86) 
-10.539999999999999

>  <m_primary>  (86) 
energy

$$$$
86:0
     RDKit          3D

 56 59  0  0  0  0  0  0  0  0999 V2000
   60.7920   26.4300   47.5190 C   0  0  0  0  0  0  0  0  0  0  0  0
   60.1860   27.7260   47.8700 N   0  0  0  0  0  0  0  0  0  0  0  0
   60.3430   28.1850   49.1490 C   0  0  0  0  0  0  0  0  0  0  0  0
   59.8040   29.4110   49.5610 C   0  0  0  0  0  0  0  0  0  0  0  0
   59.9760   29.8900   50.9600 C   0  0  0  0  0  0  0  0  0  0  0  0
   60.5670   29.1300   51.7770 O   0  0  0  0  0  0  0  0  0  0  0  0
   59.4960   31.1780   51.4300 N   0  0  0  0  0  0  0  0  0  0  0  0
   58.1990   31.0280   52.1400 C   0  0  0  0  0  0  0  0  0  0  0  0
   57.8810   32.2100   53.0820 C   0  0  0  0  0  0  0  0  0  0  0  0
   58.5230   33.5070   52.5840 C   0  0  0  0  0  0  0  0  0  0  0  0
   60.0530   33.3710   52.4760 C   0  0  0  0  0  0  0  0  0  0  0  0
   60.5030   31.9180   52.2270 C   0  0  0  0  0  0  0  0  0  0  0  0
   59.0650   30.1670   48.6400 C   0  0  0  0  0  0  0  0  0  0  0  0
   58.5660   31.2710   48.9940 O   0  0  0  0  0  0  0  0  0  0  0  0
   58.8970   29.7030   47.3250 C   0  0  0  0  0  0  0  0  0  0  0  0
   58.1650   30.4520   46.3820 C   0  0  0  0  0  0  0  0  0  0  0  0
   58.0080   29.9930   45.0720 C   0  0  0  0  0  0  0  0  0  0  0  0
   57.0640   30.9400   43.9230 S   0  0  0  0  0  0  0  0  0  0  0  0
   56.9720   30.1770   42.6320 O   0  0  0  0  0  0  0  0  0  0  0  0
   55.6700   31.1540   44.4450 O   0  0  0  0  0  0  0  0  0  0  0  0
   57.8160   32.4810   43.6170 N   0  0  0  0  0  0  0  0  0  0  0  0
   57.3730   33.4960   44.5760 C   0  0  0  0  0  0  0  0  0  0  0  0
   58.3840   33.6860   45.6760 C   0  0  0  0  0  0  0  0  0  0  0  0
   59.7470   33.8370   45.3740 C   0  0  0  0  0  0  0  0  0  0  0  0
   60.6830   33.9950   46.4000 C   0  0  0  0  0  0  0  0  0  0  0  0
   60.2640   34.0090   47.7350 C   0  0  0  0  0  0  0  0  0  0  0  0
   61.4400   34.2040   49.0210 Cl  0  0  0  0  0  0  0  0  0  0  0  0
   58.9070   33.8670   48.0420 C   0  0  0  0  0  0  0  0  0  0  0  0
   57.9690   33.7070   47.0170 C   0  0  0  0  0  0  0  0  0  0  0  0
   58.5790   28.7770   44.6930 C   0  0  0  0  0  0  0  0  0  0  0  0
   59.3040   28.0190   45.6130 C   0  0  0  0  0  0  0  0  0  0  0  0
   59.4770   28.4640   46.9450 C   0  0  0  0  0  0  0  0  0  0  0  0
   61.0475   25.8836   48.4389 H   0  0  0  0  0  0  0  0  0  0  0  0
   60.0769   25.8389   46.9280 H   0  0  0  0  0  0  0  0  0  0  0  0
   61.7041   26.5998   46.9280 H   0  0  0  0  0  0  0  0  0  0  0  0
   60.9063   27.5766   49.8719 H   0  0  0  0  0  0  0  0  0  0  0  0
   59.3200   31.7520   50.5700 H   0  0  0  0  0  0  0  0  0  0  0  0
   57.3970   30.9523   51.3909 H   0  0  0  0  0  0  0  0  0  0  0  0
   58.2696   30.1237   52.7624 H   0  0  0  0  0  0  0  0  0  0  0  0
   56.7905   32.3458   53.1308 H   0  0  0  0  0  0  0  0  0  0  0  0
   58.2898   31.9803   54.0771 H   0  0  0  0  0  0  0  0  0  0  0  0
   58.1144   33.7508   51.5922 H   0  0  0  0  0  0  0  0  0  0  0  0
   58.2964   34.3051   53.3063 H   0  0  0  0  0  0  0  0  0  0  0  0
   60.4042   33.9964   51.6420 H   0  0  0  0  0  0  0  0  0  0  0  0
   60.4846   33.6936   53.4350 H   0  0  0  0  0  0  0  0  0  0  0  0
   61.4581   31.9260   51.6814 H   0  0  0  0  0  0  0  0  0  0  0  0
   60.6179   31.4158   53.1989 H   0  0  0  0  0  0  0  0  0  0  0  0
   57.7122   31.4089   46.6809 H   0  0  0  0  0  0  0  0  0  0  0  0
   57.2334   34.4511   44.0484 H   0  0  0  0  0  0  0  0  0  0  0  0
   56.4278   33.1594   45.0268 H   0  0  0  0  0  0  0  0  0  0  0  0
   60.0796   33.8309   44.3255 H   0  0  0  0  0  0  0  0  0  0  0  0
   61.7500   34.1084   46.1577 H   0  0  0  0  0  0  0  0  0  0  0  0
   58.5769   33.8812   49.0912 H   0  0  0  0  0  0  0  0  0  0  0  0
   56.9024   33.5972   47.2624 H   0  0  0  0  0  0  0  0  0  0  0  0
   58.4565   28.4138   43.6619 H   0  0  0  0  0  0  0  0  0  0  0  0
   59.7471   27.0625   45.2986 H   0  0  0  0  0  0  0  0  0  0  0  0
  1  2  1  0
  2  3  1  0
  3  4  2  0
  4  5  1  0
  5  6  2  0
  5  7  1  0
  7  8  1  0
  8  9  1  0
  9 10  1  0
 10 11  1  0
 11 12  1  0
  4 13  1  0
 13 14  2  0
 13 15  1  0
 15 16  2  0
 16 17  1  0
 17 18  1  0
 18 19  2  0
 18 20  2  0
 18 21  1  0
 21 22  1  0
 22 23  1  0
 23 24  2  0
 24 25  1  0
 25 26  2  0
 26 27  1  0
 26 28  1  0
 28 29  2  0
 17 30  2  0
 30 31  1  0
 31 32  2  0
 32  2  1  0
 12  7  1  0
 32 15  1  0
 29 23  1  0
  1 33  1  0
  1 34  1  0
  1 35  1  0
  3 36  1  0
  7 37  1  0
  8 38  1  0
  8 39  1  0
  9 40  1  0
  9 41  1  0
 10 42  1  0
 10 43  1  0
 11 44  1  0
 11 45  1  0
 12 46  1  0
 12 47  1  0
 16 48  1  0
 22 49  1  0
 22 50  1  0
 24 51  1  0
 25 52  1  0
 28 53  1  0
 29 54  1  0
 30 55  1  0
 31 56  1  0
M  CHG  2   7   1  21  -1
M  END
>  <UniqueID>  (87) 
79

>  <SMILES>  (87) 
Cn1cc(C(=O)[NH+]2CCCCC2)c(=O)c2cc(S(=O)(=O)[N-]Cc3ccc(Cl)cc3)ccc21

>  <Energy>  (87) 
81.18792360017612

>  <Genealogy>  (87) 
Cn1cc(C(=O)[NH+]2CCCCC2)c(=O)c2cc(S(=O)(=O)[N-]Cc3ccc(Cl)cc3)ccc21 (protonated)
Cn1cc(C(=O)[NH+]2CCCCC2)c(=O)c2cc(S(=O)(=O)[N-]Cc3ccc(Cl)cc3)ccc21 (3D coordinates assigned)
Cn1cc(C(=O)[NH+]2CCCCC2)c(=O)c2cc(S(=O)(=O)[N-]Cc3ccc(Cl)cc3)ccc21 (nonaromatic ring conformer: 81.18792360017612 kcal/mol)

>  <smiles>  (87) 
Cn1cc(C(=O)N2CCCCC2)c(=O)c2cc(S(=O)(=O)NCc3ccc(Cl)cc3)ccc21

>  <score_type>  (87) 
oracle

>  <origin>  (87) 
adg

>  <m_score__min__energy>  (87) 
-9.4199999999999999

>  <m_primary>  (87) 
energy

$$$$
87:0
     RDKit          3D

 37 39  0  0  0  0  0  0  0  0999 V2000
   55.1890   26.3670   45.9480 N   0  0  0  0  0  0  0  0  0  0  0  0
   56.8970   26.6290   45.9480 S   0  0  0  0  0  0  0  0  0  0  0  0
   57.4530   26.3310   47.3110 O   0  0  0  0  0  0  0  0  0  0  0  0
   57.5420   25.7060   44.9520 O   0  0  0  0  0  0  0  0  0  0  0  0
   57.2350   28.3040   45.5240 C   0  0  0  0  0  0  0  0  0  0  0  0
   57.7760   29.1710   46.4820 C   0  0  0  0  0  0  0  0  0  0  0  0
   58.0330   30.5060   46.1600 C   0  0  0  0  0  0  0  0  0  0  0  0
   57.7470   30.9970   44.8710 C   0  0  0  0  0  0  0  0  0  0  0  0
   57.2200   30.1160   43.9090 C   0  0  0  0  0  0  0  0  0  0  0  0
   56.9540   28.7830   44.2380 C   0  0  0  0  0  0  0  0  0  0  0  0
   56.9480   30.5890   42.5900 N   0  0  0  0  0  0  0  0  0  0  0  0
   57.3430   31.8990   42.1870 C   0  0  0  0  0  0  0  0  0  0  0  0
   57.0410   32.3160   41.0390 O   0  0  0  0  0  0  0  0  0  0  0  0
   58.1820   32.7480   43.0990 C   0  0  0  0  0  0  0  0  0  0  0  0
   57.9900   32.3760   44.5090 N   0  0  0  0  0  0  0  0  0  0  0  0
   58.1280   33.3880   45.5220 C   0  0  0  0  0  0  0  0  0  0  0  0
   57.3720   33.3690   46.5310 O   0  0  0  0  0  0  0  0  0  0  0  0
   59.2250   34.4090   45.4450 C   0  0  0  0  0  0  0  0  0  0  0  0
   60.1610   34.2290   46.6070 C   0  0  0  0  0  0  0  0  0  0  0  0
   61.4710   33.7640   46.3980 C   0  0  0  0  0  0  0  0  0  0  0  0
   62.3210   33.5410   47.4860 C   0  0  0  0  0  0  0  0  0  0  0  0
   61.8680   33.7710   48.7880 C   0  0  0  0  0  0  0  0  0  0  0  0
   60.5630   34.2220   49.0030 C   0  0  0  0  0  0  0  0  0  0  0  0
   59.7090   34.4450   47.9190 C   0  0  0  0  0  0  0  0  0  0  0  0
   54.7720   27.0830   46.5850 H   0  0  0  0  0  0  0  0  0  0  0  0
   57.9996   28.7989   47.4927 H   0  0  0  0  0  0  0  0  0  0  0  0
   58.4615   31.1781   46.9180 H   0  0  0  0  0  0  0  0  0  0  0  0
   56.5225   28.1082   43.4841 H   0  0  0  0  0  0  0  0  0  0  0  0
   59.2418   32.6162   42.8356 H   0  0  0  0  0  0  0  0  0  0  0  0
   57.8751   33.7969   42.9737 H   0  0  0  0  0  0  0  0  0  0  0  0
   59.7800   34.2803   44.5040 H   0  0  0  0  0  0  0  0  0  0  0  0
   58.7889   35.4183   45.4790 H   0  0  0  0  0  0  0  0  0  0  0  0
   61.8288   33.5749   45.3752 H   0  0  0  0  0  0  0  0  0  0  0  0
   63.3476   33.1840   47.3167 H   0  0  0  0  0  0  0  0  0  0  0  0
   62.5382   33.5971   49.6428 H   0  0  0  0  0  0  0  0  0  0  0  0
   60.2068   34.4020   50.0280 H   0  0  0  0  0  0  0  0  0  0  0  0
   58.6796   34.7908   48.0942 H   0  0  0  0  0  0  0  0  0  0  0  0
  1  2  1  0
  2  3  2  0
  2  4  2  0
  2  5  1  0
  5  6  2  0
  6  7  1  0
  7  8  2  0
  8  9  1  0
  9 10  2  0
  9 11  1  0
 11 12  1  0
 12 13  2  0
 12 14  1  0
 14 15  1  0
 15 16  1  0
 16 17  2  0
 16 18  1  0
 18 19  1  0
 19 20  2  0
 20 21  1  0
 21 22  2  0
 22 23  1  0
 23 24  2  0
 10  5  1  0
 24 19  1  0
 15  8  1  0
  1 25  1  0
  6 26  1  0
  7 27  1  0
 10 28  1  0
 14 29  1  0
 14 30  1  0
 18 31  1  0
 18 32  1  0
 20 33  1  0
 21 34  1  0
 22 35  1  0
 23 36  1  0
 24 37  1  0
M  CHG  2   1  -1  11  -1
M  END
>  <UniqueID>  (88) 
80

>  <SMILES>  (88) 
[NH-]S(=O)(=O)c1ccc2c(c1)[N-]C(=O)CN2C(=O)Cc1ccccc1

>  <Energy>  (88) 
43.36997089423616

>  <Genealogy>  (88) 
[NH-]S(=O)(=O)c1ccc2c(c1)[N-]C(=O)CN2C(=O)Cc1ccccc1 (protonated)
[NH-]S(=O)(=O)c1ccc2c(c1)[N-]C(=O)CN2C(=O)Cc1ccccc1 (3D coordinates assigned)
[NH-]S(=O)(=O)c1ccc2c(c1)[N-]C(=O)CN2C(=O)Cc1ccccc1 (nonaromatic ring conformer: 43.36997089423616 kcal/mol)

>  <smiles>  (88) 
NS(=O)(=O)c1ccc2c(c1)NC(=O)CN2C(=O)Cc1ccccc1

>  <score_type>  (88) 
oracle

>  <origin>  (88) 
adg

>  <m_score__min__energy>  (88) 
-12.59

>  <m_primary>  (88) 
energy

$$$$
88:0
     RDKit          3D

 45 48  0  0  0  0  0  0  0  0999 V2000
   57.6450   34.1740   45.3440 C   0  0  0  0  0  0  0  0  0  0  0  0
   58.3730   33.8720   46.6200 C   0  0  0  0  0  0  0  0  0  0  0  0
   59.1670   34.8560   47.2290 C   0  0  0  0  0  0  0  0  0  0  0  0
   59.8260   34.5830   48.4300 C   0  0  0  0  0  0  0  0  0  0  0  0
   59.6800   33.3360   49.0430 C   0  0  0  0  0  0  0  0  0  0  0  0
   58.8530   32.3550   48.4650 C   0  0  0  0  0  0  0  0  0  0  0  0
   58.6820   31.0590   49.0590 N   0  0  0  0  0  0  0  0  0  0  0  0
   58.2770   30.8000   50.4090 C   0  0  0  0  0  0  0  0  0  0  0  0
   59.0440   30.1810   51.1950 O   0  0  0  0  0  0  0  0  0  0  0  0
   57.0290   31.3220   50.8810 N   0  0  0  0  0  0  0  0  0  0  0  0
   56.3900   30.8710   52.0880 C   0  0  0  0  0  0  0  0  0  0  0  0
   56.8770   31.2980   53.3310 C   0  0  0  0  0  0  0  0  0  0  0  0
   56.2560   30.8800   54.5110 C   0  0  0  0  0  0  0  0  0  0  0  0
   55.1400   30.0410   54.4600 C   0  0  0  0  0  0  0  0  0  0  0  0
   54.6320   29.6100   53.2230 C   0  0  0  0  0  0  0  0  0  0  0  0
   53.4270   28.7540   53.1730 C   0  0  0  0  0  0  0  0  0  0  0  0
   53.4330   27.0950   53.4570 S   0  0  0  0  0  0  0  0  0  0  0  0
   51.7620   26.9470   53.3830 C   0  0  0  0  0  0  0  0  0  0  0  0
   51.1820   28.1410   53.1400 N   0  0  0  0  0  0  0  0  0  0  0  0
   52.0880   29.1500   53.0130 C   0  0  0  0  0  0  0  0  0  0  0  0
   51.6460   30.5180   52.6720 C   0  0  0  0  0  0  0  0  0  0  0  0
   51.1150   31.3690   53.6540 C   0  0  0  0  0  0  0  0  0  0  0  0
   50.7190   32.6620   53.3030 C   0  0  0  0  0  0  0  0  0  0  0  0
   50.8500   33.0910   52.0200 N   0  0  0  0  0  0  0  0  0  0  0  0
   51.3700   32.2920   51.0500 C   0  0  0  0  0  0  0  0  0  0  0  0
   51.4730   32.7250   49.8730 O   0  0  0  0  0  0  0  0  0  0  0  0
   51.7880   30.9940   51.3610 C   0  0  0  0  0  0  0  0  0  0  0  0
   55.2500   30.0500   52.0410 C   0  0  0  0  0  0  0  0  0  0  0  0
   58.2150   32.6270   47.2480 C   0  0  0  0  0  0  0  0  0  0  0  0
   56.6520   34.5859   45.5771 H   0  0  0  0  0  0  0  0  0  0  0  0
   58.2187   34.9084   44.7595 H   0  0  0  0  0  0  0  0  0  0  0  0
   57.5304   33.2492   44.7595 H   0  0  0  0  0  0  0  0  0  0  0  0
   59.2707   35.8452   46.7592 H   0  0  0  0  0  0  0  0  0  0  0  0
   60.4614   35.3516   48.8942 H   0  0  0  0  0  0  0  0  0  0  0  0
   60.2133   33.1203   49.9806 H   0  0  0  0  0  0  0  0  0  0  0  0
   56.5930   32.1090   50.3480 H   0  0  0  0  0  0  0  0  0  0  0  0
   57.7509   31.9644   53.3778 H   0  0  0  0  0  0  0  0  0  0  0  0
   56.6473   31.2128   55.4837 H   0  0  0  0  0  0  0  0  0  0  0  0
   54.6566   29.7162   55.3932 H   0  0  0  0  0  0  0  0  0  0  0  0
   51.2133   26.0028   53.5150 H   0  0  0  0  0  0  0  0  0  0  0  0
   51.0115   31.0204   54.6922 H   0  0  0  0  0  0  0  0  0  0  0  0
   50.3004   33.3342   54.0665 H   0  0  0  0  0  0  0  0  0  0  0  0
   52.2250   30.3513   50.5826 H   0  0  0  0  0  0  0  0  0  0  0  0
   54.8370   29.7486   51.0670 H   0  0  0  0  0  0  0  0  0  0  0  0
   57.5839   31.8571   46.7800 H   0  0  0  0  0  0  0  0  0  0  0  0
  1  2  1  0
  2  3  2  0
  3  4  1  0
  4  5  2  0
  5  6  1  0
  6  7  1  0
  7  8  1  0
  8  9  2  0
  8 10  1  0
 10 11  1  0
 11 12  2  0
 12 13  1  0
 13 14  2  0
 14 15  1  0
 15 16  1  0
 16 17  1  0
 17 18  1  0
 18 19  2  0
 19 20  1  0
 20 21  1  0
 21 22  1  0
 22 23  2  0
 23 24  1  0
 24 25  1  0
 25 26  2  0
 25 27  1  0
 15 28  2  0
  6 29  2  0
 29  2  1  0
 28 11  1  0
 20 16  2  0
 27 21  2  0
  1 30  1  0
  1 31  1  0
  1 32  1  0
  3 33  1  0
  4 34  1  0
  5 35  1  0
 10 36  1  0
 12 37  1  0
 13 38  1  0
 14 39  1  0
 18 40  1  0
 22 41  1  0
 23 42  1  0
 27 43  1  0
 28 44  1  0
 29 45  1  0
M  CHG  2   7  -1  24  -1
M  END
>  <UniqueID>  (89) 
81

>  <SMILES>  (89) 
Cc1cccc([N-]C(=O)Nc2cccc(-c3scnc3-c3cc[n-]c(=O)c3)c2)c1

>  <Energy>  (89) 
92.9835715903919

>  <Genealogy>  (89) 
Cc1cccc([N-]C(=O)Nc2cccc(-c3scnc3-c3cc[n-]c(=O)c3)c2)c1 (protonated)
Cc1cccc([N-]C(=O)Nc2cccc(-c3scnc3-c3cc[n-]c(=O)c3)c2)c1 (3D coordinates assigned)
Cc1cccc([N-]C(=O)Nc2cccc(-c3scnc3-c3cc[n-]c(=O)c3)c2)c1 (optimized conformer: 92.9835715903919 kcal/mol)

>  <smiles>  (89) 
Cc1cccc(NC(=O)Nc2cccc(-c3scnc3-c3cc[nH]c(=O)c3)c2)c1

>  <score_type>  (89) 
oracle

>  <origin>  (89) 
adg

>  <m_score__min__energy>  (89) 
-12.58

>  <m_primary>  (89) 
energy

$$$$
89:0
     RDKit          3D

 50 52  0  0  0  0  0  0  0  0999 V2000
   59.6420   25.6390   45.9970 C   0  0  0  0  0  0  0  0  0  0  0  0
   59.3790   26.9600   46.4570 O   0  0  0  0  0  0  0  0  0  0  0  0
   58.8060   27.9270   45.6250 C   0  0  0  0  0  0  0  0  0  0  0  0
   59.6120   28.9450   45.0800 C   0  0  0  0  0  0  0  0  0  0  0  0
   61.0830   28.9920   45.3910 C   0  0  0  0  0  0  0  0  0  0  0  0
   59.0340   29.9280   44.2640 C   0  0  0  0  0  0  0  0  0  0  0  0
   57.6580   29.9020   43.9720 C   0  0  0  0  0  0  0  0  0  0  0  0
   57.0520   30.9400   43.1040 C   0  0  0  0  0  0  0  0  0  0  0  0
   56.2780   30.6010   42.1670 O   0  0  0  0  0  0  0  0  0  0  0  0
   57.3970   32.3210   43.2910 N   0  0  0  0  0  0  0  0  0  0  0  0
   57.8280   32.9510   44.5060 C   0  0  0  0  0  0  0  0  0  0  0  0
   59.0390   33.6510   44.5010 C   0  0  0  0  0  0  0  0  0  0  0  0
   59.5060   34.2690   45.6630 C   0  0  0  0  0  0  0  0  0  0  0  0
   58.7820   34.1820   46.8610 C   0  0  0  0  0  0  0  0  0  0  0  0
   59.2890   34.8380   48.0370 N   0  0  0  0  0  0  0  0  0  0  0  0
   60.0830   34.0190   49.3470 S   0  0  0  0  0  0  0  0  0  0  0  0
   61.4790   34.5650   49.4610 O   0  0  0  0  0  0  0  0  0  0  0  0
   59.3360   34.3110   50.6170 O   0  0  0  0  0  0  0  0  0  0  0  0
   60.0860   32.2650   49.0710 C   0  0  0  0  0  0  0  0  0  0  0  0
   58.9900   31.5310   49.5540 C   0  0  0  0  0  0  0  0  0  0  0  0
   58.8980   30.1570   49.3380 C   0  0  0  0  0  0  0  0  0  0  0  0
   59.9030   29.4920   48.6440 C   0  0  0  0  0  0  0  0  0  0  0  0
   61.0140   30.1950   48.1780 C   0  0  0  0  0  0  0  0  0  0  0  0
   61.1440   31.5820   48.4030 C   0  0  0  0  0  0  0  0  0  0  0  0
   62.3750   32.2950   47.8750 C   0  0  0  0  0  0  0  0  0  0  0  0
   63.1920   32.7260   48.9060 F   0  0  0  0  0  0  0  0  0  0  0  0
   63.1030   31.4310   47.0790 F   0  0  0  0  0  0  0  0  0  0  0  0
   62.0160   33.4120   47.1430 F   0  0  0  0  0  0  0  0  0  0  0  0
   57.5770   33.4540   46.8730 C   0  0  0  0  0  0  0  0  0  0  0  0
   57.1080   32.8400   45.7080 C   0  0  0  0  0  0  0  0  0  0  0  0
   56.8630   28.8850   44.5260 C   0  0  0  0  0  0  0  0  0  0  0  0
   57.4290   27.9070   45.3490 C   0  0  0  0  0  0  0  0  0  0  0  0
   56.3790   26.6990   46.0750 Cl  0  0  0  0  0  0  0  0  0  0  0  0
   59.7752   24.9700   46.8599 H   0  0  0  0  0  0  0  0  0  0  0  0
   58.7962   25.2877   45.3878 H   0  0  0  0  0  0  0  0  0  0  0  0
   60.5579   25.6384   45.3878 H   0  0  0  0  0  0  0  0  0  0  0  0
   61.2273   28.9966   46.4815 H   0  0  0  0  0  0  0  0  0  0  0  0
   61.5774   28.1092   44.9595 H   0  0  0  0  0  0  0  0  0  0  0  0
   61.5200   29.9046   44.9595 H   0  0  0  0  0  0  0  0  0  0  0  0
   59.6634   30.7283   43.8476 H   0  0  0  0  0  0  0  0  0  0  0  0
   59.6282   33.7152   43.5743 H   0  0  0  0  0  0  0  0  0  0  0  0
   60.4518   34.8300   45.6384 H   0  0  0  0  0  0  0  0  0  0  0  0
   59.1910   35.8760   48.1190 H   0  0  0  0  0  0  0  0  0  0  0  0
   58.1937   32.0474   50.1101 H   0  0  0  0  0  0  0  0  0  0  0  0
   58.0296   29.5982   49.7169 H   0  0  0  0  0  0  0  0  0  0  0  0
   59.8217   28.4102   48.4623 H   0  0  0  0  0  0  0  0  0  0  0  0
   61.8011   29.6598   47.6265 H   0  0  0  0  0  0  0  0  0  0  0  0
   57.0004   33.3677   47.8058 H   0  0  0  0  0  0  0  0  0  0  0  0
   56.1697   32.2664   45.7321 H   0  0  0  0  0  0  0  0  0  0  0  0
   55.7847   28.8579   44.3101 H   0  0  0  0  0  0  0  0  0  0  0  0
  1  2  1  0
  2  3  1  0
  3  4  2  0
  4  5  1  0
  4  6  1  0
  6  7  2  0
  7  8  1  0
  8  9  2  0
  8 10  1  0
 10 11  1  0
 11 12  2  0
 12 13  1  0
 13 14  2  0
 14 15  1  0
 15 16  1  0
 16 17  2  0
 16 18  2  0
 16 19  1  0
 19 20  2  0
 20 21  1  0
 21 22  2  0
 22 23  1  0
 23 24  2  0
 24 25  1  0
 25 26  1  0
 25 27  1  0
 25 28  1  0
 14 29  1  0
 29 30  2  0
  7 31  1  0
 31 32  2  0
 32 33  1  0
 32  3  1  0
 30 11  1  0
 24 19  1  0
  1 34  1  0
  1 35  1  0
  1 36  1  0
  5 37  1  0
  5 38  1  0
  5 39  1  0
  6 40  1  0
 12 41  1  0
 13 42  1  0
 15 43  1  0
 20 44  1  0
 21 45  1  0
 22 46  1  0
 23 47  1  0
 29 48  1  0
 30 49  1  0
 31 50  1  0
M  CHG  1  10  -1
M  END
>  <UniqueID>  (90) 
82

>  <SMILES>  (90) 
COc1c(C)cc(C(=O)[N-]c2ccc(NS(=O)(=O)c3ccccc3C(F)(F)F)cc2)cc1Cl

>  <Energy>  (90) 
70.86198472435383

>  <Genealogy>  (90) 
COc1c(C)cc(C(=O)[N-]c2ccc(NS(=O)(=O)c3ccccc3C(F)(F)F)cc2)cc1Cl (protonated)
COc1c(C)cc(C(=O)[N-]c2ccc(NS(=O)(=O)c3ccccc3C(F)(F)F)cc2)cc1Cl (3D coordinates assigned)
COc1c(C)cc(C(=O)[N-]c2ccc(NS(=O)(=O)c3ccccc3C(F)(F)F)cc2)cc1Cl (optimized conformer: 70.86198472435383 kcal/mol)

>  <smiles>  (90) 
COc1c(C)cc(C(=O)Nc2ccc(NS(=O)(=O)c3ccccc3C(F)(F)F)cc2)cc1Cl

>  <score_type>  (90) 
oracle

>  <origin>  (90) 
adg

>  <m_score__min__energy>  (90) 
-10.119999999999999

>  <m_primary>  (90) 
energy

$$$$
90:0
     RDKit          3D

 53 56  0  0  0  0  0  0  0  0999 V2000
   56.4320   30.4360   54.0860 C   0  0  0  0  0  0  0  0  0  0  0  0
   57.2820   31.5710   53.9500 O   0  0  0  0  0  0  0  0  0  0  0  0
   57.8510   31.9920   52.7380 C   0  0  0  0  0  0  0  0  0  0  0  0
   58.6200   33.1660   52.6320 C   0  0  0  0  0  0  0  0  0  0  0  0
   59.1630   33.5430   51.3990 C   0  0  0  0  0  0  0  0  0  0  0  0
   58.9260   32.7720   50.2550 C   0  0  0  0  0  0  0  0  0  0  0  0
   59.5420   33.1580   49.0160 N   0  0  0  0  0  0  0  0  0  0  0  0
   59.1030   32.9370   47.8050 C   0  0  0  0  0  0  0  0  0  0  0  0
   58.1880   34.0910   46.9940 S   0  0  0  0  0  0  0  0  0  0  0  0
   57.8110   33.5660   45.4600 C   0  0  0  0  0  0  0  0  0  0  0  0
   57.1120   34.3080   44.7160 O   0  0  0  0  0  0  0  0  0  0  0  0
   58.2610   32.3440   45.0390 N   0  0  0  0  0  0  0  0  0  0  0  0
   57.9100   31.9280   43.6570 C   0  0  0  0  0  0  0  0  0  0  0  0
   56.6560   31.0250   43.6220 C   0  0  1  0  0  0  0  0  0  0  0  0
   56.7640   29.8840   42.6200 C   0  0  0  0  0  0  0  0  0  0  0  0
   57.2590   28.7470   43.4560 C   0  0  0  0  0  0  0  0  0  0  0  0
   56.7410   29.0940   44.8370 C   0  0  0  0  0  0  0  0  0  0  0  0
   56.4580   30.4740   44.9060 O   0  0  0  0  0  0  0  0  0  0  0  0
   59.0140   31.4880   45.8390 C   0  0  0  0  0  0  0  0  0  0  0  0
   59.3530   30.3720   45.3490 O   0  0  0  0  0  0  0  0  0  0  0  0
   59.4240   31.7760   47.1400 N   0  0  0  0  0  0  0  0  0  0  0  0
   60.2150   30.7420   47.8580 C   0  0  0  0  0  0  0  0  0  0  0  0
   61.5350   31.3070   48.3200 C   0  0  0  0  0  0  0  0  0  0  0  0
   62.3080   32.1050   47.4600 C   0  0  0  0  0  0  0  0  0  0  0  0
   63.5190   32.6490   47.8970 C   0  0  0  0  0  0  0  0  0  0  0  0
   63.9700   32.4020   49.1960 C   0  0  0  0  0  0  0  0  0  0  0  0
   65.4910   33.0860   49.7430 Cl  0  0  0  0  0  0  0  0  0  0  0  0
   63.2100   31.6080   50.0600 C   0  0  0  0  0  0  0  0  0  0  0  0
   61.9980   31.0620   49.6260 C   0  0  0  0  0  0  0  0  0  0  0  0
   58.1880   31.5830   50.3680 C   0  0  0  0  0  0  0  0  0  0  0  0
   57.6450   31.2050   51.5990 C   0  0  0  0  0  0  0  0  0  0  0  0
   56.2726   30.2231   55.1534 H   0  0  0  0  0  0  0  0  0  0  0  0
   55.4646   30.6426   53.6048 H   0  0  0  0  0  0  0  0  0  0  0  0
   56.9024   29.5658   53.6048 H   0  0  0  0  0  0  0  0  0  0  0  0
   58.7946   33.7891   53.5215 H   0  0  0  0  0  0  0  0  0  0  0  0
   59.7800   34.4509   51.3281 H   0  0  0  0  0  0  0  0  0  0  0  0
   57.7162   32.8276   43.0543 H   0  0  0  0  0  0  0  0  0  0  0  0
   58.7544   31.3506   43.2525 H   0  0  0  0  0  0  0  0  0  0  0  0
   55.8118   31.6574   43.3099 H   0  0  0  0  0  0  0  0  0  0  0  0
   55.7838   29.6521   42.1779 H   0  0  0  0  0  0  0  0  0  0  0  0
   57.4223   30.1151   41.7695 H   0  0  0  0  0  0  0  0  0  0  0  0
   56.8454   27.7893   43.1070 H   0  0  0  0  0  0  0  0  0  0  0  0
   58.3514   28.6234   43.4194 H   0  0  0  0  0  0  0  0  0  0  0  0
   55.8230   28.5221   45.0375 H   0  0  0  0  0  0  0  0  0  0  0  0
   57.5052   28.8411   45.5867 H   0  0  0  0  0  0  0  0  0  0  0  0
   59.6453   30.3939   48.7322 H   0  0  0  0  0  0  0  0  0  0  0  0
   60.4092   29.9049   47.1714 H   0  0  0  0  0  0  0  0  0  0  0  0
   61.9579   32.3029   46.4362 H   0  0  0  0  0  0  0  0  0  0  0  0
   64.1180   33.2726   47.2171 H   0  0  0  0  0  0  0  0  0  0  0  0
   63.5658   31.4126   51.0823 H   0  0  0  0  0  0  0  0  0  0  0  0
   61.4034   30.4377   50.3091 H   0  0  0  0  0  0  0  0  0  0  0  0
   58.0365   30.9463   49.4839 H   0  0  0  0  0  0  0  0  0  0  0  0
   57.0512   30.2820   51.6734 H   0  0  0  0  0  0  0  0  0  0  0  0
  1  2  1  0
  2  3  1  0
  3  4  2  0
  4  5  1  0
  5  6  2  0
  6  7  1  0
  7  8  2  3
  8  9  1  0
  9 10  1  0
 10 11  2  0
 10 12  1  0
 12 13  1  0
 13 14  1  0
 14 15  1  0
 15 16  1  0
 16 17  1  0
 17 18  1  0
 12 19  1  0
 19 20  2  0
 19 21  1  0
 21 22  1  0
 22 23  1  0
 23 24  2  0
 24 25  1  0
 25 26  2  0
 26 27  1  0
 26 28  1  0
 28 29  2  0
  6 30  1  0
 30 31  2  0
 31  3  1  0
 21  8  1  0
 29 23  1  0
 18 14  1  0
  1 32  1  0
  1 33  1  0
  1 34  1  0
  4 35  1  0
  5 36  1  0
 13 37  1  0
 13 38  1  0
 14 39  1  6
 15 40  1  0
 15 41  1  0
 16 42  1  0
 16 43  1  0
 17 44  1  0
 17 45  1  0
 22 46  1  0
 22 47  1  0
 24 48  1  0
 25 49  1  0
 28 50  1  0
 29 51  1  0
 30 52  1  0
 31 53  1  0
M  END
>  <UniqueID>  (91) 
83

>  <SMILES>  (91) 
COc1ccc(N=c2sc(=O)n(C[C@H]3CCCO3)c(=O)n2Cc2ccc(Cl)cc2)cc1

>  <Energy>  (91) 
81.07304406589671

>  <Genealogy>  (91) 
COc1ccc(N=c2sc(=O)n(C[C@H]3CCCO3)c(=O)n2Cc2ccc(Cl)cc2)cc1 (chirality)
COc1ccc(N=c2sc(=O)n(C[C@H]3CCCO3)c(=O)n2Cc2ccc(Cl)cc2)cc1 (3D coordinates assigned)
COc1ccc(N=c2sc(=O)n(C[C@H]3CCCO3)c(=O)n2Cc2ccc(Cl)cc2)cc1 (nonaromatic ring conformer: 81.07304406589671 kcal/mol)

>  <smiles>  (91) 
COc1ccc(N=c2sc(=O)n(CC3CCCO3)c(=O)n2Cc2ccc(Cl)cc2)cc1

>  <score_type>  (91) 
oracle

>  <origin>  (91) 
adg

>  <m_score__min__energy>  (91) 
-8.4199999999999999

>  <m_primary>  (91) 
energy

$$$$
91:0
     RDKit          3D

 36 38  0  0  0  0  0  0  0  0999 V2000
   58.2790   34.2380   47.1910 O   0  0  0  0  0  0  0  0  0  0  0  0
   58.2830   32.9930   46.9910 C   0  0  0  0  0  0  0  0  0  0  0  0
   58.5730   32.0940   48.0700 N   0  0  0  0  0  0  0  0  0  0  0  0
   59.1980   32.5320   49.2840 C   0  0  0  0  0  0  0  0  0  0  0  0
   58.4210   32.6400   50.4470 C   0  0  0  0  0  0  0  0  0  0  0  0
   58.9870   33.1030   51.6370 C   0  0  0  0  0  0  0  0  0  0  0  0
   60.3390   33.4490   51.6800 C   0  0  0  0  0  0  0  0  0  0  0  0
   61.1300   33.3200   50.5360 C   0  0  0  0  0  0  0  0  0  0  0  0
   60.5760   32.8530   49.3350 C   0  0  0  0  0  0  0  0  0  0  0  0
   61.4390   32.6300   48.2050 N   0  0  0  0  0  0  0  0  0  0  0  0
   62.2860   31.4310   48.1640 C   0  0  0  0  0  0  0  0  0  0  0  0
   63.3950   31.6050   47.1290 C   0  0  0  0  0  0  0  0  0  0  0  0
   63.9140   32.9140   47.2260 O   0  0  0  0  0  0  0  0  0  0  0  0
   62.9960   33.8500   46.6850 C   0  0  0  0  0  0  0  0  0  0  0  0
   61.5310   33.6320   47.1360 C   0  0  0  0  0  0  0  0  0  0  0  0
   57.9720   32.4850   45.6470 C   0  0  0  0  0  0  0  0  0  0  0  0
   58.2820   33.0960   44.4440 C   0  0  0  0  0  0  0  0  0  0  0  0
   57.7830   32.2640   43.4650 C   0  0  0  0  0  0  0  0  0  0  0  0
   57.2030   31.2050   44.1290 C   0  0  0  0  0  0  0  0  0  0  0  0
   56.3370   29.7190   43.3070 Br  0  0  0  0  0  0  0  0  0  0  0  0
   57.3290   31.3620   45.4260 O   0  0  0  0  0  0  0  0  0  0  0  0
   58.1720   31.1300   48.0450 H   0  0  0  0  0  0  0  0  0  0  0  0
   57.3581   32.3579   50.4215 H   0  0  0  0  0  0  0  0  0  0  0  0
   58.3671   33.1951   52.5410 H   0  0  0  0  0  0  0  0  0  0  0  0
   60.7813   33.8233   52.6150 H   0  0  0  0  0  0  0  0  0  0  0  0
   62.1963   33.5869   50.5773 H   0  0  0  0  0  0  0  0  0  0  0  0
   62.7356   31.2695   49.1548 H   0  0  0  0  0  0  0  0  0  0  0  0
   61.6684   30.5641   47.8865 H   0  0  0  0  0  0  0  0  0  0  0  0
   64.1959   30.8758   47.3207 H   0  0  0  0  0  0  0  0  0  0  0  0
   62.9900   31.4400   46.1197 H   0  0  0  0  0  0  0  0  0  0  0  0
   63.3069   34.8582   46.9963 H   0  0  0  0  0  0  0  0  0  0  0  0
   63.0147   33.7177   45.5931 H   0  0  0  0  0  0  0  0  0  0  0  0
   61.1251   34.5857   47.5045 H   0  0  0  0  0  0  0  0  0  0  0  0
   60.9552   33.2681   46.2723 H   0  0  0  0  0  0  0  0  0  0  0  0
   58.8153   34.0472   44.2996 H   0  0  0  0  0  0  0  0  0  0  0  0
   57.8367   32.4145   42.3767 H   0  0  0  0  0  0  0  0  0  0  0  0
  1  2  2  0
  2  3  1  0
  3  4  1  0
  4  5  2  0
  5  6  1  0
  6  7  2  0
  7  8  1  0
  8  9  2  0
  9 10  1  0
 10 11  1  0
 11 12  1  0
 12 13  1  0
 13 14  1  0
 14 15  1  0
  2 16  1  0
 16 17  2  0
 17 18  1  0
 18 19  2  0
 19 20  1  0
 19 21  1  0
  9  4  1  0
 15 10  1  0
 21 16  1  0
  3 22  1  0
  5 23  1  0
  6 24  1  0
  7 25  1  0
  8 26  1  0
 11 27  1  0
 11 28  1  0
 12 29  1  0
 12 30  1  0
 14 31  1  0
 14 32  1  0
 15 33  1  0
 15 34  1  0
 17 35  1  0
 18 36  1  0
M  END
>  <UniqueID>  (92) 
84

>  <SMILES>  (92) 
O=C(Nc1ccccc1N1CCOCC1)c1ccc(Br)o1

>  <Energy>  (92) 
78.8767751888639

>  <Genealogy>  (92) 
O=C(Nc1ccccc1N1CCOCC1)c1ccc(Br)o1 (3D coordinates assigned)
O=C(Nc1ccccc1N1CCOCC1)c1ccc(Br)o1 (nonaromatic ring conformer: 78.8767751888639 kcal/mol)

>  <smiles>  (92) 
O=C(Nc1ccccc1N1CCOCC1)c1ccc(Br)o1

>  <score_type>  (92) 
oracle

>  <origin>  (92) 
adg

>  <m_score__min__energy>  (92) 
-7.1200000000000001

>  <m_primary>  (92) 
energy

$$$$
92:0
     RDKit          3D

 60 64  0  0  0  0  0  0  0  0999 V2000
   66.9310   32.3600   50.5140 C   0  0  0  0  0  0  0  0  0  0  0  0
   66.1290   32.9840   49.5150 O   0  0  0  0  0  0  0  0  0  0  0  0
   64.7370   32.8340   49.4060 C   0  0  0  0  0  0  0  0  0  0  0  0
   63.9330   32.4240   50.4860 C   0  0  0  0  0  0  0  0  0  0  0  0
   62.5500   32.2920   50.3260 C   0  0  0  0  0  0  0  0  0  0  0  0
   61.9430   32.5690   49.0880 C   0  0  0  0  0  0  0  0  0  0  0  0
   60.5100   32.4710   48.9350 N   0  0  0  0  0  0  0  0  0  0  0  0
   59.6470   33.3350   49.7090 C   0  0  0  0  0  0  0  0  0  0  0  0
   59.5720   34.5560   49.4030 O   0  0  0  0  0  0  0  0  0  0  0  0
   58.8670   32.8410   50.8700 C   0  0  0  0  0  0  0  0  0  0  0  0
   58.0470   31.7050   50.7670 C   0  0  0  0  0  0  0  0  0  0  0  0
   57.3240   31.2510   51.8760 C   0  0  0  0  0  0  0  0  0  0  0  0
   57.3960   31.9380   53.0890 C   0  0  0  0  0  0  0  0  0  0  0  0
   58.1820   33.0870   53.1940 C   0  0  0  0  0  0  0  0  0  0  0  0
   58.9120   33.5400   52.0910 C   0  0  0  0  0  0  0  0  0  0  0  0
   59.9590   31.4800   48.0350 C   0  0  0  0  0  0  0  0  0  0  0  0
   59.1400   31.8260   46.9960 C   0  0  0  0  0  0  0  0  0  0  0  0
   58.6940   33.2100   46.8050 N   0  0  0  0  0  0  0  0  0  0  0  0
   57.2560   33.3010   46.4240 C   0  0  0  0  0  0  0  0  0  0  0  0
   57.0270   34.2460   45.2480 C   0  0  0  0  0  0  0  0  0  0  0  0
   57.8360   33.8370   44.1750 O   0  0  0  0  0  0  0  0  0  0  0  0
   59.2010   34.1010   44.4450 C   0  0  0  0  0  0  0  0  0  0  0  0
   59.6320   33.9720   45.9330 C   0  0  0  0  0  0  0  0  0  0  0  0
   58.6910   30.7570   46.0450 C   0  0  0  0  0  0  0  0  0  0  0  0
   57.9880   31.0540   45.0440 O   0  0  0  0  0  0  0  0  0  0  0  0
   59.0480   29.3380   46.2710 C   0  0  0  0  0  0  0  0  0  0  0  0
   58.6340   28.3320   45.3770 C   0  0  0  0  0  0  0  0  0  0  0  0
   58.9510   26.9940   45.6230 C   0  0  0  0  0  0  0  0  0  0  0  0
   59.6790   26.6460   46.7610 C   0  0  0  0  0  0  0  0  0  0  0  0
   60.1070   27.6370   47.6470 C   0  0  0  0  0  0  0  0  0  0  0  0
   59.8030   28.9890   47.4020 C   0  0  0  0  0  0  0  0  0  0  0  0
   60.2710   30.0530   48.3110 C   0  0  0  0  0  0  0  0  0  0  0  0
   60.9550   29.7530   49.3290 O   0  0  0  0  0  0  0  0  0  0  0  0
   62.7510   32.9800   48.0140 C   0  0  0  0  0  0  0  0  0  0  0  0
   64.1350   33.1060   48.1730 C   0  0  0  0  0  0  0  0  0  0  0  0
   66.5635   32.6459   51.5106 H   0  0  0  0  0  0  0  0  0  0  0  0
   66.8728   31.2673   50.4013 H   0  0  0  0  0  0  0  0  0  0  0  0
   67.9758   32.6851   50.4013 H   0  0  0  0  0  0  0  0  0  0  0  0
   64.3946   32.2064   51.4605 H   0  0  0  0  0  0  0  0  0  0  0  0
   61.9314   31.9686   51.1761 H   0  0  0  0  0  0  0  0  0  0  0  0
   57.9728   31.1692   49.8092 H   0  0  0  0  0  0  0  0  0  0  0  0
   56.6976   30.3507   51.7916 H   0  0  0  0  0  0  0  0  0  0  0  0
   56.8337   31.5742   53.9617 H   0  0  0  0  0  0  0  0  0  0  0  0
   58.2270   33.6366   54.1458 H   0  0  0  0  0  0  0  0  0  0  0  0
   59.5257   34.4488   52.1779 H   0  0  0  0  0  0  0  0  0  0  0  0
   58.7290   33.7040   47.7250 H   0  0  0  0  0  0  0  0  0  0  0  0
   56.8995   32.2981   46.1465 H   0  0  0  0  0  0  0  0  0  0  0  0
   56.7036   33.6990   47.2880 H   0  0  0  0  0  0  0  0  0  0  0  0
   55.9694   34.2127   44.9474 H   0  0  0  0  0  0  0  0  0  0  0  0
   57.2845   35.2749   45.5395 H   0  0  0  0  0  0  0  0  0  0  0  0
   59.8046   33.3947   43.8561 H   0  0  0  0  0  0  0  0  0  0  0  0
   59.3605   35.1560   44.1774 H   0  0  0  0  0  0  0  0  0  0  0  0
   60.6085   33.4664   45.9611 H   0  0  0  0  0  0  0  0  0  0  0  0
   59.6539   34.9965   46.3328 H   0  0  0  0  0  0  0  0  0  0  0  0
   58.0576   28.6013   44.4797 H   0  0  0  0  0  0  0  0  0  0  0  0
   58.6263   26.2140   44.9187 H   0  0  0  0  0  0  0  0  0  0  0  0
   59.9160   25.5905   46.9605 H   0  0  0  0  0  0  0  0  0  0  0  0
   60.6847   27.3593   48.5410 H   0  0  0  0  0  0  0  0  0  0  0  0
   62.2912   33.2045   47.0402 H   0  0  0  0  0  0  0  0  0  0  0  0
   64.7553   33.4217   47.3212 H   0  0  0  0  0  0  0  0  0  0  0  0
  1  2  1  0
  2  3  1  0
  3  4  2  0
  4  5  1  0
  5  6  2  0
  6  7  1  0
  7  8  1  0
  8  9  2  0
  8 10  1  0
 10 11  2  0
 11 12  1  0
 12 13  2  0
 13 14  1  0
 14 15  2  0
  7 16  1  0
 16 17  2  0
 17 18  1  0
 18 19  1  0
 19 20  1  0
 20 21  1  0
 21 22  1  0
 22 23  1  0
 17 24  1  0
 24 25  2  0
 24 26  1  0
 26 27  2  0
 27 28  1  0
 28 29  2  0
 29 30  1  0
 30 31  2  0
 31 32  1  0
 32 33  2  0
  6 34  1  0
 34 35  2  0
 35  3  1  0
 15 10  1  0
 32 16  1  0
 23 18  1  0
 31 26  1  0
  1 36  1  0
  1 37  1  0
  1 38  1  0
  4 39  1  0
  5 40  1  0
 11 41  1  0
 12 42  1  0
 13 43  1  0
 14 44  1  0
 15 45  1  0
 18 46  1  0
 19 47  1  0
 19 48  1  0
 20 49  1  0
 20 50  1  0
 22 51  1  0
 22 52  1  0
 23 53  1  0
 23 54  1  0
 27 55  1  0
 28 56  1  0
 29 57  1  0
 30 58  1  0
 34 59  1  0
 35 60  1  0
M  CHG  1  18   1
M  END
>  <UniqueID>  (93) 
85

>  <SMILES>  (93) 
COc1ccc(N(C(=O)c2ccccc2)C2=C([NH+]3CCOCC3)C(=O)c3ccccc3C2=O)cc1

>  <Energy>  (93) 
104.21853964392483

>  <Genealogy>  (93) 
COc1ccc(N(C(=O)c2ccccc2)C2=C([NH+]3CCOCC3)C(=O)c3ccccc3C2=O)cc1 (protonated)
COc1ccc(N(C(=O)c2ccccc2)C2=C([NH+]3CCOCC3)C(=O)c3ccccc3C2=O)cc1 (3D coordinates assigned)
COc1ccc(N(C(=O)c2ccccc2)C2=C([NH+]3CCOCC3)C(=O)c3ccccc3C2=O)cc1 (nonaromatic ring conformer: 104.21853964392483 kcal/mol)

>  <smiles>  (93) 
COc1ccc(N(C(=O)c2ccccc2)C2=C(N3CCOCC3)C(=O)c3ccccc3C2=O)cc1

>  <score_type>  (93) 
oracle

>  <origin>  (93) 
adg

>  <m_score__min__energy>  (93) 
-7.2300000000000004

>  <m_primary>  (93) 
energy

$$$$
93:0
     RDKit          3D

 49 52  0  0  0  0  0  0  0  0999 V2000
   57.3990   29.2650   50.8620 H   0  0  0  0  0  0  0  0  0  0  0  0
   57.1210   30.0880   51.3780 O   0  0  0  0  0  0  0  0  0  0  0  0
   57.8230   31.2950   51.3320 C   0  0  0  0  0  0  0  0  0  0  0  0
   57.4550   32.3020   52.2330 C   0  0  0  0  0  0  0  0  0  0  0  0
   56.6173   32.1350   52.9261 H   0  0  0  0  0  0  0  0  0  0  0  0
   58.1440   33.5170   52.2580 C   0  0  0  0  0  0  0  0  0  0  0  0
   57.8498   34.3012   52.9710 H   0  0  0  0  0  0  0  0  0  0  0  0
   59.2040   33.7360   51.3800 C   0  0  0  0  0  0  0  0  0  0  0  0
   59.7474   34.6921   51.4028 H   0  0  0  0  0  0  0  0  0  0  0  0
   59.5770   32.7440   50.4720 C   0  0  0  0  0  0  0  0  0  0  0  0
   60.4135   32.9248   49.7810 H   0  0  0  0  0  0  0  0  0  0  0  0
   58.8940   31.5160   50.4320 C   0  0  0  0  0  0  0  0  0  0  0  0
   59.3060   30.4990   49.4400 C   0  0  0  0  0  0  0  0  0  0  0  0
   59.6190   29.2280   49.7620 N   0  0  0  0  0  0  0  0  0  0  0  0
   59.9100   28.6000   48.6320 N   0  0  0  0  0  0  0  0  0  0  0  0
   59.7580   29.4920   47.6360 C   0  0  0  0  0  0  0  0  0  0  0  0
   60.1470   29.1200   45.9190 S   0  0  0  0  0  0  0  0  0  0  0  0
   59.3680   27.4700   45.9270 C   0  0  0  0  0  0  0  0  0  0  0  0
   59.2780   27.1095   44.8917 H   0  0  0  0  0  0  0  0  0  0  0  0
   59.9965   26.7881   46.5187 H   0  0  0  0  0  0  0  0  0  0  0  0
   57.9980   27.5240   46.5510 C   0  0  0  0  0  0  0  0  0  0  0  0
   57.8760   27.2090   47.7620 O   0  0  0  0  0  0  0  0  0  0  0  0
   56.8130   27.7820   45.7820 N   0  0  0  0  0  0  0  0  0  0  0  0
   56.5650   28.8540   45.0900 C   0  0  0  0  0  0  0  0  0  0  0  0
   57.5430   29.5830   44.5140 N   0  0  0  0  0  0  0  0  0  0  0  0
   56.8550   30.5740   43.9150 C   0  0  0  0  0  0  0  0  0  0  0  0
   57.4830   31.6670   43.1180 C   0  0  0  0  0  0  0  0  0  0  0  0
   57.9135   32.4163   43.7986 H   0  0  0  0  0  0  0  0  0  0  0  0
   58.2781   31.2480   42.4838 H   0  0  0  0  0  0  0  0  0  0  0  0
   56.7206   32.1429   42.4838 H   0  0  0  0  0  0  0  0  0  0  0  0
   55.5050   30.3990   44.1230 C   0  0  0  0  0  0  0  0  0  0  0  0
   54.6983   31.0428   43.7426 H   0  0  0  0  0  0  0  0  0  0  0  0
   55.3590   29.3250   44.8570 O   0  0  0  0  0  0  0  0  0  0  0  0
   59.3620   30.6930   48.1040 N   0  0  0  0  0  0  0  0  0  0  0  0
   59.2270   31.9260   47.3760 C   0  0  0  0  0  0  0  0  0  0  0  0
   57.9880   32.2630   46.8060 C   0  0  0  0  0  0  0  0  0  0  0  0
   57.1349   31.5760   46.9070 H   0  0  0  0  0  0  0  0  0  0  0  0
   57.8330   33.4630   46.1130 C   0  0  0  0  0  0  0  0  0  0  0  0
   56.8583   33.7222   45.6740 H   0  0  0  0  0  0  0  0  0  0  0  0
   58.9130   34.3350   45.9760 C   0  0  0  0  0  0  0  0  0  0  0  0
   58.7862   35.2853   45.4368 H   0  0  0  0  0  0  0  0  0  0  0  0
   60.1550   34.0040   46.5220 C   0  0  0  0  0  0  0  0  0  0  0  0
   61.0040   34.6939   46.4075 H   0  0  0  0  0  0  0  0  0  0  0  0
   60.3270   32.7910   47.2190 C   0  0  0  0  0  0  0  0  0  0  0  0
   61.5700   32.4080   47.7490 O   0  0  0  0  0  0  0  0  0  0  0  0
   62.8290   32.8080   47.2210 C   0  0  0  0  0  0  0  0  0  0  0  0
   63.5203   33.0276   48.0479 H   0  0  0  0  0  0  0  0  0  0  0  0
   63.2420   31.9968   46.6034 H   0  0  0  0  0  0  0  0  0  0  0  0
   62.6981   33.7088   46.6034 H   0  0  0  0  0  0  0  0  0  0  0  0
  1  2  1  0
  2  3  1  0
  3  4  2  0
  4  5  1  0
  4  6  1  0
  6  7  1  0
  6  8  2  0
  8  9  1  0
  8 10  1  0
 10 11  1  0
 10 12  2  0
 12 13  1  0
 13 14  2  0
 14 15  1  0
 15 16  2  0
 16 17  1  0
 17 18  1  0
 18 19  1  0
 18 20  1  0
 18 21  1  0
 21 22  2  0
 21 23  1  0
 23 24  2  0
 24 25  1  0
 25 26  1  0
 26 27  1  0
 27 28  1  0
 27 29  1  0
 27 30  1  0
 26 31  2  0
 31 32  1  0
 31 33  1  0
 16 34  1  0
 34 35  1  0
 35 36  2  0
 36 37  1  0
 36 38  1  0
 38 39  1  0
 38 40  2  0
 40 41  1  0
 40 42  1  0
 42 43  1  0
 42 44  2  0
 44 45  1  0
 45 46  1  0
 46 47  1  0
 46 48  1  0
 46 49  1  0
 12  3  1  0
 34 13  1  0
 44 35  1  0
 33 24  1  0
M  CHG  1  25  -1
M  END
>  <UniqueID>  (94) 
86

>  <SMILES>  (94) 
COc1ccccc1-n1c(SCC(=O)/N=c2/[n-]c(C)co2)nnc1-c1ccccc1O

>  <Energy>  (94) 
124.33028826576026

>  <Genealogy>  (94) 
COc1ccccc1-n1c(SCC(=O)N=c2[n-]c(C)co2)nnc1-c1ccccc1O (protonated)
COc1ccccc1-n1c(SCC(=O)/N=c2/[n-]c(C)co2)nnc1-c1ccccc1O (cis-trans isomerization)
COc1ccccc1-n1c(SCC(=O)/N=c2/[n-]c(C)co2)nnc1-c1ccccc1O (3D coordinates assigned)
COc1ccccc1-n1c(SCC(=O)/N=c2/[n-]c(C)co2)nnc1-c1ccccc1O (optimized conformer: 124.33028826576026 kcal/mol)

>  <smiles>  (94) 
COc1ccccc1-n1c(SCC(=O)N=c2[nH]c(C)co2)nnc1-c1ccccc1O

>  <score_type>  (94) 
oracle

>  <origin>  (94) 
adg

>  <m_score__min__energy>  (94) 
-10.880000000000001

>  <m_primary>  (94) 
energy

$$$$
94:0
     RDKit          3D

 46 48  0  0  0  0  0  0  0  0999 V2000
   55.8730   21.2680   48.3060 C   0  0  0  0  0  0  0  0  0  0  0  0
   56.9370   22.1320   47.9210 O   0  0  0  0  0  0  0  0  0  0  0  0
   56.7600   23.4130   47.3760 C   0  0  0  0  0  0  0  0  0  0  0  0
   57.5840   24.5010   47.7250 C   0  0  0  0  0  0  0  0  0  0  0  0
   57.3670   25.7600   47.1560 C   0  0  0  0  0  0  0  0  0  0  0  0
   56.3150   25.9550   46.2440 C   0  0  0  0  0  0  0  0  0  0  0  0
   56.0730   27.2240   45.6190 N   0  0  0  0  0  0  0  0  0  0  0  0
   57.0150   28.0030   44.8680 C   0  0  0  0  0  0  0  0  0  0  0  0
   57.7560   27.4370   44.0170 O   0  0  0  0  0  0  0  0  0  0  0  0
   57.1650   29.4650   45.1150 C   0  0  0  0  0  0  0  0  0  0  0  0
   56.5330   30.3770   44.2620 C   0  0  0  0  0  0  0  0  0  0  0  0
   56.6690   31.7070   44.4640 N   0  0  0  0  0  0  0  0  0  0  0  0
   57.4000   32.2010   45.4910 C   0  0  0  0  0  0  0  0  0  0  0  0
   57.5360   33.9920   45.6350 S   0  0  0  0  0  0  0  0  0  0  0  0
   59.3120   34.0100   45.2320 C   0  0  0  0  0  0  0  0  0  0  0  0
   60.0290   34.9180   46.1830 C   0  0  0  0  0  0  0  0  0  0  0  0
   59.9440   36.1650   46.0150 O   0  0  0  0  0  0  0  0  0  0  0  0
   60.8410   34.3900   47.2470 N   0  0  0  0  0  0  0  0  0  0  0  0
   60.4680   34.3150   48.6550 C   0  0  0  0  0  0  0  0  0  0  0  0
   61.6660   33.6430   49.3690 C   0  0  0  0  0  0  0  0  0  0  0  0
   62.6660   33.3750   48.3410 N   0  0  0  0  0  0  0  0  0  0  0  0
   62.1320   33.8320   47.1190 C   0  0  0  0  0  0  0  0  0  0  0  0
   62.7550   33.7460   46.0270 O   0  0  0  0  0  0  0  0  0  0  0  0
   58.0130   31.3490   46.3760 N   0  0  0  0  0  0  0  0  0  0  0  0
   58.8000   31.8970   47.4950 C   0  0  0  0  0  0  0  0  0  0  0  0
   57.9240   29.9900   46.1850 C   0  0  0  0  0  0  0  0  0  0  0  0
   58.5280   29.2040   46.9680 O   0  0  0  0  0  0  0  0  0  0  0  0
   55.5140   24.8650   45.8820 C   0  0  0  0  0  0  0  0  0  0  0  0
   55.7300   23.6070   46.4500 C   0  0  0  0  0  0  0  0  0  0  0  0
   55.8167   21.2223   49.4036 H   0  0  0  0  0  0  0  0  0  0  0  0
   54.9239   21.6543   47.9059 H   0  0  0  0  0  0  0  0  0  0  0  0
   56.0563   20.2599   47.9059 H   0  0  0  0  0  0  0  0  0  0  0  0
   58.4011   24.3598   48.4477 H   0  0  0  0  0  0  0  0  0  0  0  0
   58.0227   26.6018   47.4234 H   0  0  0  0  0  0  0  0  0  0  0  0
   55.9229   30.0101   43.4235 H   0  0  0  0  0  0  0  0  0  0  0  0
   59.7186   32.9917   45.3199 H   0  0  0  0  0  0  0  0  0  0  0  0
   59.4514   34.3721   44.2027 H   0  0  0  0  0  0  0  0  0  0  0  0
   60.2957   35.3229   49.0606 H   0  0  0  0  0  0  0  0  0  0  0  0
   59.5376   33.7463   48.7994 H   0  0  0  0  0  0  0  0  0  0  0  0
   62.0790   34.3172   50.1338 H   0  0  0  0  0  0  0  0  0  0  0  0
   61.3578   32.7158   49.8743 H   0  0  0  0  0  0  0  0  0  0  0  0
   58.3496   31.5834   48.4483 H   0  0  0  0  0  0  0  0  0  0  0  0
   59.8322   31.5213   47.4360 H   0  0  0  0  0  0  0  0  0  0  0  0
   58.8057   32.9954   47.4360 H   0  0  0  0  0  0  0  0  0  0  0  0
   54.7087   25.0002   45.1449 H   0  0  0  0  0  0  0  0  0  0  0  0
   55.0848   22.7623   46.1666 H   0  0  0  0  0  0  0  0  0  0  0  0
  1  2  1  0
  2  3  1  0
  3  4  2  0
  4  5  1  0
  5  6  2  0
  6  7  1  0
  7  8  1  0
  8  9  2  0
  8 10  1  0
 10 11  2  0
 11 12  1  0
 12 13  2  0
 13 14  1  0
 14 15  1  0
 15 16  1  0
 16 17  2  0
 16 18  1  0
 18 19  1  0
 19 20  1  0
 20 21  1  0
 21 22  1  0
 22 23  2  0
 13 24  1  0
 24 25  1  0
 24 26  1  0
 26 27  2  0
  6 28  1  0
 28 29  2  0
 29  3  1  0
 26 10  1  0
 22 18  1  0
  1 30  1  0
  1 31  1  0
  1 32  1  0
  4 33  1  0
  5 34  1  0
 11 35  1  0
 15 36  1  0
 15 37  1  0
 19 38  1  0
 19 39  1  0
 20 40  1  0
 20 41  1  0
 25 42  1  0
 25 43  1  0
 25 44  1  0
 28 45  1  0
 29 46  1  0
M  CHG  2   7  -1  21  -1
M  END
>  <UniqueID>  (95) 
87

>  <SMILES>  (95) 
COc1ccc([N-]C(=O)c2cnc(SCC(=O)N3CC[N-]C3=O)n(C)c2=O)cc1

>  <Energy>  (95) 
66.60131147569213

>  <Genealogy>  (95) 
COc1ccc([N-]C(=O)c2cnc(SCC(=O)N3CC[N-]C3=O)n(C)c2=O)cc1 (protonated)
COc1ccc([N-]C(=O)c2cnc(SCC(=O)N3CC[N-]C3=O)n(C)c2=O)cc1 (3D coordinates assigned)
COc1ccc([N-]C(=O)c2cnc(SCC(=O)N3CC[N-]C3=O)n(C)c2=O)cc1 (nonaromatic ring conformer: 66.60131147569213 kcal/mol)

>  <smiles>  (95) 
COc1ccc(NC(=O)c2cnc(SCC(=O)N3CCNC3=O)n(C)c2=O)cc1

>  <score_type>  (95) 
oracle

>  <origin>  (95) 
adg

>  <m_score__min__energy>  (95) 
-11.19

>  <m_primary>  (95) 
energy

$$$$
95:0
     RDKit          3D

 34 35  0  0  0  0  0  0  0  0999 V2000
   60.5830   29.5850   47.2640 C   0  0  0  0  0  0  0  0  0  0  0  0
   60.0640   28.3760   47.9110 N   0  0  0  0  0  0  0  0  0  0  0  0
   60.6750   27.8710   49.1450 C   0  0  0  0  0  0  0  0  0  0  0  0
   58.9580   27.6690   47.3190 C   0  0  0  0  0  0  0  0  0  0  0  0
   58.8510   26.3220   47.4550 N   0  0  0  0  0  0  0  0  0  0  0  0
   57.8250   25.6320   46.8950 C   0  0  0  0  0  0  0  0  0  0  0  0
   57.7640   24.3840   47.0610 O   0  0  0  0  0  0  0  0  0  0  0  0
   56.8390   26.3110   46.1500 C   0  0  0  0  0  0  0  0  0  0  0  0
   55.7400   25.6010   45.5430 N   0  0  0  0  0  0  0  0  0  0  0  0
   55.9500   24.6610   44.7490 O   0  0  0  0  0  0  0  0  0  0  0  0
   54.4390   25.9280   45.8490 O   0  0  0  0  0  0  0  0  0  0  0  0
   56.9670   27.7090   46.0250 C   0  0  0  0  0  0  0  0  0  0  0  0
   56.0260   28.4620   45.2540 N   0  0  0  0  0  0  0  0  0  0  0  0
   56.4780   29.3750   43.8510 S   0  0  0  0  0  0  0  0  0  0  0  0
   55.2410   29.6870   43.0570 O   0  0  0  0  0  0  0  0  0  0  0  0
   57.4120   28.5540   43.0070 O   0  0  0  0  0  0  0  0  0  0  0  0
   57.2960   30.8600   44.3290 C   0  0  0  0  0  0  0  0  0  0  0  0
   57.7700   31.0200   45.6390 C   0  0  0  0  0  0  0  0  0  0  0  0
   58.4290   32.1980   46.0070 C   0  0  0  0  0  0  0  0  0  0  0  0
   58.6160   33.2180   45.0700 C   0  0  0  0  0  0  0  0  0  0  0  0
   58.1410   33.0630   43.7650 C   0  0  0  0  0  0  0  0  0  0  0  0
   57.4810   31.8890   43.3940 C   0  0  0  0  0  0  0  0  0  0  0  0
   58.0160   28.3430   46.6100 N   0  0  0  0  0  0  0  0  0  0  0  0
   60.8933   30.3079   48.0328 H   0  0  0  0  0  0  0  0  0  0  0  0
   61.4478   29.3228   46.6369 H   0  0  0  0  0  0  0  0  0  0  0  0
   59.7972   30.0314   46.6369 H   0  0  0  0  0  0  0  0  0  0  0  0
   60.1552   28.3006   50.0140 H   0  0  0  0  0  0  0  0  0  0  0  0
   60.5919   26.7745   49.1732 H   0  0  0  0  0  0  0  0  0  0  0  0
   61.7362   28.1591   49.1732 H   0  0  0  0  0  0  0  0  0  0  0  0
   57.6235   30.2185   46.3780 H   0  0  0  0  0  0  0  0  0  0  0  0
   58.8004   32.3215   47.0350 H   0  0  0  0  0  0  0  0  0  0  0  0
   59.1369   34.1425   45.3597 H   0  0  0  0  0  0  0  0  0  0  0  0
   58.2870   33.8669   43.0285 H   0  0  0  0  0  0  0  0  0  0  0  0
   57.1057   31.7714   42.3667 H   0  0  0  0  0  0  0  0  0  0  0  0
  1  2  1  0
  2  3  1  0
  2  4  1  0
  4  5  2  0
  5  6  1  0
  6  7  2  0
  6  8  1  0
  8  9  1  0
  9 10  2  0
  9 11  1  0
  8 12  2  0
 12 13  1  0
 13 14  1  0
 14 15  2  0
 14 16  2  0
 14 17  1  0
 17 18  2  0
 18 19  1  0
 19 20  2  0
 20 21  1  0
 21 22  2  0
 12 23  1  0
 23  4  1  0
 22 17  1  0
  1 24  1  0
  1 25  1  0
  1 26  1  0
  3 27  1  0
  3 28  1  0
  3 29  1  0
 18 30  1  0
 19 31  1  0
 20 32  1  0
 21 33  1  0
 22 34  1  0
M  CHG  4   9   1  11  -1  13  -1  23  -1
M  END
>  <UniqueID>  (96) 
88

>  <SMILES>  (96) 
CN(C)c1nc(=O)c([N+](=O)[O-])c([N-]S(=O)(=O)c2ccccc2)[n-]1

>  <Energy>  (96) 
37.42541514934277

>  <Genealogy>  (96) 
CN(C)c1nc(=O)c([N+](=O)[O-])c([N-]S(=O)(=O)c2ccccc2)[n-]1 (protonated)
CN(C)c1nc(=O)c([N+](=O)[O-])c([N-]S(=O)(=O)c2ccccc2)[n-]1 (3D coordinates assigned)
CN(C)c1nc(=O)c([N+](=O)[O-])c([N-]S(=O)(=O)c2ccccc2)[n-]1 (optimized conformer: 37.42541514934277 kcal/mol)

>  <smiles>  (96) 
CN(C)c1nc(=O)c([N+](=O)[O-])c(NS(=O)(=O)c2ccccc2)[nH]1

>  <score_type>  (96) 
oracle

>  <origin>  (96) 
adg

>  <m_score__min__energy>  (96) 
-10.34

>  <m_primary>  (96) 
energy

$$$$
96:0
     RDKit          3D

 36 38  0  0  0  0  0  0  0  0999 V2000
   60.4170   30.4280   46.3820 O   0  0  0  0  0  0  0  0  0  0  0  0
   60.0410   31.6220   46.5350 C   0  0  0  0  0  0  0  0  0  0  0  0
   58.8880   32.1080   45.8200 N   0  0  0  0  0  0  0  0  0  0  0  0
   58.0400   31.2750   45.0110 C   0  0  0  0  0  0  0  0  0  0  0  0
   57.7870   31.6390   43.6810 C   0  0  0  0  0  0  0  0  0  0  0  0
   56.9380   30.8640   42.8850 C   0  0  0  0  0  0  0  0  0  0  0  0
   56.3310   29.7230   43.4120 C   0  0  0  0  0  0  0  0  0  0  0  0
   56.5730   29.3430   44.7370 C   0  0  0  0  0  0  0  0  0  0  0  0
   55.9000   28.1890   45.2620 N   0  0  0  0  0  0  0  0  0  0  0  0
   56.5130   27.1140   45.9840 C   0  0  0  0  0  0  0  0  0  0  0  0
   55.8030   26.1340   46.3340 O   0  0  0  0  0  0  0  0  0  0  0  0
   57.9600   27.0940   46.2640 C   0  0  0  0  0  0  0  0  0  0  0  0
   58.9670   27.2350   45.3290 C   0  0  0  0  0  0  0  0  0  0  0  0
   60.1470   27.1640   46.0380 C   0  0  0  0  0  0  0  0  0  0  0  0
   59.7890   26.9910   47.3600 C   0  0  0  0  0  0  0  0  0  0  0  0
   58.4810   26.9550   47.4630 O   0  0  0  0  0  0  0  0  0  0  0  0
   57.4030   30.1410   45.5440 C   0  0  0  0  0  0  0  0  0  0  0  0
   60.8070   32.5020   47.4500 C   0  0  0  0  0  0  0  0  0  0  0  0
   60.1610   33.3420   48.3770 C   0  0  0  0  0  0  0  0  0  0  0  0
   60.9070   34.1670   49.2250 C   0  0  0  0  0  0  0  0  0  0  0  0
   62.3030   34.1680   49.1550 C   0  0  0  0  0  0  0  0  0  0  0  0
   63.0220   34.9690   49.9780 F   0  0  0  0  0  0  0  0  0  0  0  0
   62.9540   33.3490   48.2300 C   0  0  0  0  0  0  0  0  0  0  0  0
   62.2130   32.5230   47.3800 C   0  0  0  0  0  0  0  0  0  0  0  0
   58.6660   33.1270   45.8410 H   0  0  0  0  0  0  0  0  0  0  0  0
   58.2591   32.5395   43.2612 H   0  0  0  0  0  0  0  0  0  0  0  0
   56.7480   31.1542   41.8411 H   0  0  0  0  0  0  0  0  0  0  0  0
   55.6595   29.1199   42.7832 H   0  0  0  0  0  0  0  0  0  0  0  0
   58.8513   27.3749   44.2441 H   0  0  0  0  0  0  0  0  0  0  0  0
   61.1673   27.2315   45.6325 H   0  0  0  0  0  0  0  0  0  0  0  0
   60.4932   26.8975   48.1998 H   0  0  0  0  0  0  0  0  0  0  0  0
   57.5550   29.8758   46.6007 H   0  0  0  0  0  0  0  0  0  0  0  0
   59.0625   33.3495   48.4347 H   0  0  0  0  0  0  0  0  0  0  0  0
   60.3937   34.8168   49.9490 H   0  0  0  0  0  0  0  0  0  0  0  0
   64.0524   33.3539   48.1702 H   0  0  0  0  0  0  0  0  0  0  0  0
   62.7326   31.8843   46.6506 H   0  0  0  0  0  0  0  0  0  0  0  0
  1  2  2  0
  2  3  1  0
  3  4  1  0
  4  5  2  0
  5  6  1  0
  6  7  2  0
  7  8  1  0
  8  9  1  0
  9 10  1  0
 10 11  2  0
 10 12  1  0
 12 13  2  0
 13 14  1  0
 14 15  2  0
 15 16  1  0
  8 17  2  0
  2 18  1  0
 18 19  2  0
 19 20  1  0
 20 21  2  0
 21 22  1  0
 21 23  1  0
 23 24  2  0
 17  4  1  0
 24 18  1  0
 16 12  1  0
  3 25  1  0
  5 26  1  0
  6 27  1  0
  7 28  1  0
 13 29  1  0
 14 30  1  0
 15 31  1  0
 17 32  1  0
 19 33  1  0
 20 34  1  0
 23 35  1  0
 24 36  1  0
M  CHG  1   9  -1
M  END
>  <UniqueID>  (97) 
89

>  <SMILES>  (97) 
O=C(Nc1cccc([N-]C(=O)c2ccco2)c1)c1ccc(F)cc1

>  <Energy>  (97) 
75.07219567905608

>  <Genealogy>  (97) 
O=C(Nc1cccc([N-]C(=O)c2ccco2)c1)c1ccc(F)cc1 (protonated)
O=C(Nc1cccc([N-]C(=O)c2ccco2)c1)c1ccc(F)cc1 (3D coordinates assigned)
O=C(Nc1cccc([N-]C(=O)c2ccco2)c1)c1ccc(F)cc1 (optimized conformer: 75.07219567905608 kcal/mol)

>  <smiles>  (97) 
O=C(Nc1cccc(NC(=O)c2ccco2)c1)c1ccc(F)cc1

>  <score_type>  (97) 
oracle

>  <origin>  (97) 
adg

>  <m_score__min__energy>  (97) 
-9.6500000000000004

>  <m_primary>  (97) 
energy

$$$$
97:0
     RDKit          3D

 32 34  0  0  0  0  0  0  0  0999 V2000
   56.4900   32.0880   44.8580 N   0  0  0  0  0  0  0  0  0  0  0  0
   56.5070   30.4450   44.3200 S   0  0  0  0  0  0  0  0  0  0  0  0
   55.3140   29.7190   44.8730 O   0  0  0  0  0  0  0  0  0  0  0  0
   56.4400   30.4220   42.8180 O   0  0  0  0  0  0  0  0  0  0  0  0
   57.9860   29.6580   44.8820 C   0  0  0  0  0  0  0  0  0  0  0  0
   58.4920   28.5460   44.1900 C   0  0  0  0  0  0  0  0  0  0  0  0
   59.6620   27.9190   44.6210 C   0  0  0  0  0  0  0  0  0  0  0  0
   60.3360   28.3940   45.7460 C   0  0  0  0  0  0  0  0  0  0  0  0
   59.8430   29.4980   46.4450 C   0  0  0  0  0  0  0  0  0  0  0  0
   58.6650   30.1410   46.0200 C   0  0  0  0  0  0  0  0  0  0  0  0
   58.1360   31.2760   46.7220 N   0  0  0  0  0  0  0  0  0  0  0  0
   58.6400   32.9200   46.5090 S   0  0  0  0  0  0  0  0  0  0  0  0
   59.3370   33.0570   45.1840 O   0  0  0  0  0  0  0  0  0  0  0  0
   57.4500   33.8370   46.5550 O   0  0  0  0  0  0  0  0  0  0  0  0
   59.7410   33.3460   47.8180 C   0  0  0  0  0  0  0  0  0  0  0  0
   59.2690   33.4720   49.1370 C   0  0  0  0  0  0  0  0  0  0  0  0
   60.1400   33.8180   50.1830 C   0  0  0  0  0  0  0  0  0  0  0  0
   61.4990   34.0440   49.9340 C   0  0  0  0  0  0  0  0  0  0  0  0
   61.9830   33.9180   48.6310 C   0  0  0  0  0  0  0  0  0  0  0  0
   63.2860   34.1190   48.3110 N   0  0  0  0  0  0  0  0  0  0  0  0
   63.2350   33.8290   46.6840 S   0  0  0  0  0  0  0  0  0  0  0  0
   61.6610   33.4610   46.3340 N   0  0  0  0  0  0  0  0  0  0  0  0
   61.1050   33.5650   47.5670 C   0  0  0  0  0  0  0  0  0  0  0  0
   57.4610   32.4570   44.7520 H   0  0  0  0  0  0  0  0  0  0  0  0
   56.2800   32.0730   45.8820 H   0  0  0  0  0  0  0  0  0  0  0  0
   57.9632   28.1668   43.3031 H   0  0  0  0  0  0  0  0  0  0  0  0
   60.0531   27.0492   44.0728 H   0  0  0  0  0  0  0  0  0  0  0  0
   61.2580   27.8979   46.0834 H   0  0  0  0  0  0  0  0  0  0  0  0
   60.3780   29.8671   47.3324 H   0  0  0  0  0  0  0  0  0  0  0  0
   58.2044   33.2974   49.3519 H   0  0  0  0  0  0  0  0  0  0  0  0
   59.7507   33.9123   51.2075 H   0  0  0  0  0  0  0  0  0  0  0  0
   62.1773   34.3176   50.7556 H   0  0  0  0  0  0  0  0  0  0  0  0
  1  2  1  0
  2  3  2  0
  2  4  2  0
  2  5  1  0
  5  6  2  0
  6  7  1  0
  7  8  2  0
  8  9  1  0
  9 10  2  0
 10 11  1  0
 11 12  1  0
 12 13  2  0
 12 14  2  0
 12 15  1  0
 15 16  2  0
 16 17  1  0
 17 18  2  0
 18 19  1  0
 19 20  2  0
 20 21  1  0
 21 22  1  0
 22 23  2  0
 10  5  1  0
 23 15  1  0
 23 19  1  0
  1 24  1  0
  1 25  1  0
  6 26  1  0
  7 27  1  0
  8 28  1  0
  9 29  1  0
 16 30  1  0
 17 31  1  0
 18 32  1  0
M  CHG  1  11  -1
M  END
>  <UniqueID>  (98) 
90

>  <SMILES>  (98) 
NS(=O)(=O)c1ccccc1[N-]S(=O)(=O)c1cccc2nsnc12

>  <Energy>  (98) 
75.69972655171556

>  <Genealogy>  (98) 
NS(=O)(=O)c1ccccc1[N-]S(=O)(=O)c1cccc2nsnc12 (protonated)
NS(=O)(=O)c1ccccc1[N-]S(=O)(=O)c1cccc2nsnc12 (3D coordinates assigned)
NS(=O)(=O)c1ccccc1[N-]S(=O)(=O)c1cccc2nsnc12 (optimized conformer: 75.69972655171556 kcal/mol)

>  <smiles>  (98) 
NS(=O)(=O)c1ccccc1NS(=O)(=O)c1cccc2nsnc12

>  <score_type>  (98) 
oracle

>  <origin>  (98) 
adg

>  <m_score__min__energy>  (98) 
-8.8399999999999999

>  <m_primary>  (98) 
energy

$$$$
