0:0
     RDKit          3D

 38 39  0  0  0  0  0  0  0  0999 V2000
   63.1810   33.8460   46.6660 C   0  0  0  0  0  0  0  0  0  0  0  0
   61.8670   33.1130   46.7650 C   0  0  0  0  0  0  0  0  0  0  0  0
   60.7450   34.0850   46.5570 C   0  0  0  0  0  0  0  0  0  0  0  0
   59.4990   33.5940   47.1030 N   0  0  0  0  0  0  0  0  0  0  0  0
   58.2850   33.5420   46.4950 C   0  0  0  0  0  0  0  0  0  0  0  0
   57.8490   34.0820   44.8560 S   0  0  0  0  0  0  0  0  0  0  0  0
   58.1720   32.7450   43.6690 C   0  0  0  0  0  0  0  0  0  0  0  0
   57.2180   31.6370   44.0480 C   0  0  0  0  0  0  0  0  0  0  0  0
   56.3350   31.8380   44.8920 O   0  0  0  0  0  0  0  0  0  0  0  0
   57.3650   30.3060   43.3900 C   0  0  0  0  0  0  0  0  0  0  0  0
   57.6560   29.2110   44.3150 C   0  0  0  0  0  0  0  0  0  0  0  0
   58.9550   28.6930   44.3410 C   0  0  0  0  0  0  0  0  0  0  0  0
   59.2800   27.6480   45.1930 C   0  0  0  0  0  0  0  0  0  0  0  0
   58.3410   27.0900   46.0350 C   0  0  0  0  0  0  0  0  0  0  0  0
   57.0540   27.6150   46.0000 C   0  0  0  0  0  0  0  0  0  0  0  0
   56.7050   28.6540   45.1620 C   0  0  0  0  0  0  0  0  0  0  0  0
   55.4030   29.1650   45.1440 O   0  0  0  0  0  0  0  0  0  0  0  0
   57.4030   32.9930   47.3820 N   0  0  0  0  0  0  0  0  0  0  0  0
   58.0280   32.7070   48.5080 N   0  0  0  0  0  0  0  0  0  0  0  0
   59.3120   33.0730   48.3430 C   0  0  0  0  0  0  0  0  0  0  0  0
   60.1690   32.9230   49.2570 O   0  0  0  0  0  0  0  0  0  0  0  0
   63.5600   34.0574   47.6768 H   0  0  0  0  0  0  0  0  0  0  0  0
   63.9083   33.2233   46.1245 H   0  0  0  0  0  0  0  0  0  0  0  0
   63.0332   34.7920   46.1245 H   0  0  0  0  0  0  0  0  0  0  0  0
   61.8233   32.3298   45.9938 H   0  0  0  0  0  0  0  0  0  0  0  0
   61.7757   32.6494   47.7584 H   0  0  0  0  0  0  0  0  0  0  0  0
   61.0004   35.0341   47.0509 H   0  0  0  0  0  0  0  0  0  0  0  0
   60.6113   34.2253   45.4742 H   0  0  0  0  0  0  0  0  0  0  0  0
   57.9774   33.0865   42.6416 H   0  0  0  0  0  0  0  0  0  0  0  0
   59.2201   32.4126   43.7006 H   0  0  0  0  0  0  0  0  0  0  0  0
   56.4263   30.0746   42.8653 H   0  0  0  0  0  0  0  0  0  0  0  0
   58.2252   30.3825   42.7086 H   0  0  0  0  0  0  0  0  0  0  0  0
   59.7251   29.1179   43.6803 H   0  0  0  0  0  0  0  0  0  0  0  0
   60.3078   27.2562   45.1973 H   0  0  0  0  0  0  0  0  0  0  0  0
   58.6006   26.2605   46.7092 H   0  0  0  0  0  0  0  0  0  0  0  0
   56.2877   27.1873   46.6632 H   0  0  0  0  0  0  0  0  0  0  0  0
   55.2690   30.0710   45.6190 H   0  0  0  0  0  0  0  0  0  0  0  0
   57.6100   32.2800   49.3690 H   0  0  0  0  0  0  0  0  0  0  0  0
  1  2  1  0
  2  3  1  0
  3  4  1  0
  4  5  1  0
  5  6  1  0
  6  7  1  0
  7  8  1  0
  8  9  2  0
  8 10  1  0
 10 11  1  0
 11 12  2  0
 12 13  1  0
 13 14  2  0
 14 15  1  0
 15 16  2  0
 16 17  1  0
  5 18  2  0
 18 19  1  0
 19 20  1  0
 20 21  2  0
 20  4  1  0
 16 11  1  0
  1 22  1  0
  1 23  1  0
  1 24  1  0
  2 25  1  0
  2 26  1  0
  3 27  1  0
  3 28  1  0
  7 29  1  0
  7 30  1  0
 10 31  1  0
 10 32  1  0
 12 33  1  0
 13 34  1  0
 14 35  1  0
 15 36  1  0
 17 37  1  0
 19 38  1  0
M  END
>  <smiles>  (1) 
CCCn1c(SCC(=O)Cc2ccccc2O)n[nH]c1=O

>  <score_type>  (1) 
oracle

>  <origin>  (1) 
adg

>  <m_score__min__energy>  (1) 
-8.1400000000000006

>  <m_primary>  (1) 
energy

$$$$
1:0
     RDKit          3D

 58 61  0  0  0  0  0  0  0  0999 V2000
   56.3764   29.7350   42.4885 H   0  0  0  0  0  0  0  0  0  0  0  0
   56.9450   29.5840   43.4180 C   0  0  0  0  0  0  0  0  0  0  0  0
   57.0520   30.7290   44.3420 C   0  0  0  0  0  0  0  0  0  0  0  0
   55.9910   31.2190   44.8130 O   0  0  0  0  0  0  0  0  0  0  0  0
   58.3310   31.2990   44.6680 N   0  0  0  0  0  0  0  0  0  0  0  0
   59.1810   30.9230   44.1890 H   0  0  0  0  0  0  0  0  0  0  0  0
   58.5440   32.2080   45.7620 C   0  0  0  0  0  0  0  0  0  0  0  0
   58.7260   33.5720   45.4900 C   0  0  0  0  0  0  0  0  0  0  0  0
   58.7158   33.9281   44.4493 H   0  0  0  0  0  0  0  0  0  0  0  0
   58.9200   34.4800   46.5320 C   0  0  0  0  0  0  0  0  0  0  0  0
   59.0801   35.5454   46.3099 H   0  0  0  0  0  0  0  0  0  0  0  0
   58.9110   34.0370   47.8570 C   0  0  0  0  0  0  0  0  0  0  0  0
   59.0709   34.7539   48.6759 H   0  0  0  0  0  0  0  0  0  0  0  0
   58.6990   32.6830   48.1460 C   0  0  0  0  0  0  0  0  0  0  0  0
   58.6700   32.1300   49.8180 S   0  0  0  0  0  0  0  0  0  0  0  0
   57.2940   32.3440   50.3810 O   0  0  0  0  0  0  0  0  0  0  0  0
   59.6430   32.9270   50.6390 O   0  0  0  0  0  0  0  0  0  0  0  0
   59.0740   30.4500   49.9330 N   0  0  0  0  0  0  0  0  0  0  0  0
   60.2120   29.9870   50.6640 C   0  0  0  0  0  0  0  0  0  0  0  0
   60.0440   29.4310   51.9420 C   0  0  0  0  0  0  0  0  0  0  0  0
   59.0360   29.3472   52.3742 H   0  0  0  0  0  0  0  0  0  0  0  0
   61.1500   28.9840   52.6670 C   0  0  0  0  0  0  0  0  0  0  0  0
   61.0120   28.5458   53.6665 H   0  0  0  0  0  0  0  0  0  0  0  0
   62.4300   29.0930   52.1240 C   0  0  0  0  0  0  0  0  0  0  0  0
   63.2991   28.7292   52.6918 H   0  0  0  0  0  0  0  0  0  0  0  0
   62.6120   29.6620   50.8630 C   0  0  0  0  0  0  0  0  0  0  0  0
   63.6244   29.7400   50.4399 H   0  0  0  0  0  0  0  0  0  0  0  0
   61.5110   30.1360   50.1300 C   0  0  0  0  0  0  0  0  0  0  0  0
   61.7170   30.7110   48.7820 C   0  0  0  0  0  0  0  0  0  0  0  0
   61.2840   30.0840   47.7780 O   0  0  0  0  0  0  0  0  0  0  0  0
   62.3940   31.9690   48.5910 N   0  0  0  0  0  0  0  0  0  0  0  0
   62.7170   32.4890   47.2740 C   0  0  0  0  0  0  0  0  0  0  0  0
   63.3975   31.8038   46.7472 H   0  0  0  0  0  0  0  0  0  0  0  0
   61.8190   32.5959   46.6478 H   0  0  0  0  0  0  0  0  0  0  0  0
   63.3970   33.8310   47.5170 C   0  0  0  0  0  0  0  0  0  0  0  0
   64.4887   33.7302   47.4274 H   0  0  0  0  0  0  0  0  0  0  0  0
   63.0825   34.5860   46.7814 H   0  0  0  0  0  0  0  0  0  0  0  0
   63.0140   34.2330   48.9380 C   0  0  0  0  0  0  0  0  0  0  0  0
   63.8648   34.7142   49.4426 H   0  0  0  0  0  0  0  0  0  0  0  0
   62.1835   34.9542   48.9452 H   0  0  0  0  0  0  0  0  0  0  0  0
   62.6390   32.9380   49.6480 C   0  0  0  0  0  0  0  0  0  0  0  0
   63.4635   32.6015   50.2938 H   0  0  0  0  0  0  0  0  0  0  0  0
   61.7576   33.0681   50.2931 H   0  0  0  0  0  0  0  0  0  0  0  0
   58.5180   31.7700   47.0970 C   0  0  0  0  0  0  0  0  0  0  0  0
   58.3548   30.7054   47.3204 H   0  0  0  0  0  0  0  0  0  0  0  0
   57.4860   28.3730   43.6210 C   0  0  0  0  0  0  0  0  0  0  0  0
   57.3413   27.6158   42.8363 H   0  0  0  0  0  0  0  0  0  0  0  0
   58.2620   27.9750   44.8170 C   0  0  0  0  0  0  0  0  0  0  0  0
   57.5830   27.4680   45.9360 C   0  0  0  0  0  0  0  0  0  0  0  0
   56.4883   27.3633   45.9104 H   0  0  0  0  0  0  0  0  0  0  0  0
   58.2910   27.0950   47.0840 C   0  0  0  0  0  0  0  0  0  0  0  0
   57.7539   26.6834   47.9512 H   0  0  0  0  0  0  0  0  0  0  0  0
   59.6810   27.2450   47.1300 C   0  0  0  0  0  0  0  0  0  0  0  0
   60.5670   26.7780   48.5710 Cl  0  0  0  0  0  0  0  0  0  0  0  0
   60.3610   27.7810   46.0320 C   0  0  0  0  0  0  0  0  0  0  0  0
   61.4525   27.9110   46.0723 H   0  0  0  0  0  0  0  0  0  0  0  0
   59.6560   28.1520   44.8830 C   0  0  0  0  0  0  0  0  0  0  0  0
   60.1940   28.5844   44.0265 H   0  0  0  0  0  0  0  0  0  0  0  0
  1  2  1  0
  2  3  1  0
  3  4  2  0
  3  5  1  0
  5  6  1  0
  5  7  1  0
  7  8  2  0
  8  9  1  0
  8 10  1  0
 10 11  1  0
 10 12  2  0
 12 13  1  0
 12 14  1  0
 14 15  1  0
 15 16  2  0
 15 17  2  0
 15 18  1  0
 18 19  1  0
 19 20  2  0
 20 21  1  0
 20 22  1  0
 22 23  1  0
 22 24  2  0
 24 25  1  0
 24 26  1  0
 26 27  1  0
 26 28  2  0
 28 29  1  0
 29 30  2  0
 29 31  1  0
 31 32  1  0
 32 33  1  0
 32 34  1  0
 32 35  1  0
 35 36  1  0
 35 37  1  0
 35 38  1  0
 38 39  1  0
 38 40  1  0
 38 41  1  0
 41 42  1  0
 41 43  1  0
 14 44  2  0
 44 45  1  0
  2 46  2  0
 46 47  1  0
 46 48  1  0
 48 49  2  0
 49 50  1  0
 49 51  1  0
 51 52  1  0
 51 53  2  0
 53 54  1  0
 53 55  1  0
 55 56  1  0
 55 57  2  0
 57 58  1  0
 44  7  1  0
 57 48  1  0
 28 19  1  0
 41 31  1  0
M  CHG  1  18  -1
M  END
>  <UniqueID>  (2) 
1

>  <SMILES>  (2) 
O=C(/C=C\c1ccc(Cl)cc1)Nc1cccc(S(=O)(=O)[N-]c2ccccc2C(=O)N2CCCC2)c1

>  <Energy>  (2) 
86.06072916373901

>  <Genealogy>  (2) 
O=C(C=Cc1ccc(Cl)cc1)Nc1cccc(S(=O)(=O)[N-]c2ccccc2C(=O)N2CCCC2)c1 (protonated)
O=C(/C=C\c1ccc(Cl)cc1)Nc1cccc(S(=O)(=O)[N-]c2ccccc2C(=O)N2CCCC2)c1 (cis-trans isomerization)
O=C(/C=C\c1ccc(Cl)cc1)Nc1cccc(S(=O)(=O)[N-]c2ccccc2C(=O)N2CCCC2)c1 (3D coordinates assigned)
O=C(/C=C\c1ccc(Cl)cc1)Nc1cccc(S(=O)(=O)[N-]c2ccccc2C(=O)N2CCCC2)c1 (nonaromatic ring conformer: 86.06072916373901 kcal/mol)

>  <smiles>  (2) 
O=C(C=Cc1ccc(Cl)cc1)Nc1cccc(S(=O)(=O)Nc2ccccc2C(=O)N2CCCC2)c1

>  <score_type>  (2) 
oracle

>  <origin>  (2) 
adg

>  <m_score__min__energy>  (2) 
-12.73

>  <m_primary>  (2) 
energy

$$$$
2:0
     RDKit          3D

 54 57  0  0  0  0  0  0  0  0999 V2000
   65.5910   33.9350   51.6030 C   0  0  0  0  0  0  0  0  0  0  0  0
   64.7650   32.8460   50.4670 S   0  0  0  0  0  0  0  0  0  0  0  0
   65.0600   31.4170   50.8310 O   0  0  0  0  0  0  0  0  0  0  0  0
   65.2670   33.1040   49.0740 O   0  0  0  0  0  0  0  0  0  0  0  0
   63.0290   33.1290   50.5450 C   0  0  0  0  0  0  0  0  0  0  0  0
   62.3990   33.3370   51.7780 C   0  0  0  0  0  0  0  0  0  0  0  0
   61.0190   33.5470   51.8340 C   0  0  0  0  0  0  0  0  0  0  0  0
   60.2610   33.5490   50.6600 C   0  0  0  0  0  0  0  0  0  0  0  0
   60.8780   33.3340   49.4150 C   0  0  0  0  0  0  0  0  0  0  0  0
   60.0730   33.3300   48.1670 C   0  0  0  0  0  0  0  0  0  0  0  0
   58.8800   32.5910   48.0880 C   0  0  0  0  0  0  0  0  0  0  0  0
   58.1190   32.5960   46.9170 C   0  0  0  0  0  0  0  0  0  0  0  0
   58.5340   33.3440   45.8050 C   0  0  0  0  0  0  0  0  0  0  0  0
   57.7200   33.3320   44.5340 C   0  0  0  0  0  0  0  0  0  0  0  0
   57.6590   31.9320   43.9050 C   0  0  2  0  0  0  0  0  0  0  0  0
   57.4760   32.0300   42.4470 C   0  0  0  0  0  0  0  0  0  0  0  0
   57.3330   32.1090   41.3010 N   0  0  0  0  0  0  0  0  0  0  0  0
   56.5390   31.1990   44.4920 N   0  0  0  0  0  0  0  0  0  0  0  0
   56.4630   29.7820   44.7010 C   0  0  0  0  0  0  0  0  0  0  0  0
   55.3260   29.2660   44.8680 O   0  0  0  0  0  0  0  0  0  0  0  0
   57.7040   28.9020   44.6990 C   0  0  2  0  0  0  0  0  0  0  0  0
   57.3790   27.4650   44.8280 N   0  0  0  0  0  0  0  0  0  0  0  0
   58.1540   27.0500   46.0100 C   0  0  1  0  0  0  0  0  0  0  0  0
   59.6410   27.0050   45.6190 C   0  0  0  0  0  0  0  0  0  0  0  0
   60.0050   28.4980   45.5600 C   0  0  0  0  0  0  0  0  0  0  0  0
   58.6610   29.1780   45.8830 C   0  0  2  0  0  0  0  0  0  0  0  0
   58.1060   28.2440   46.9300 C   0  0  0  0  0  0  0  0  0  0  0  0
   59.7300   34.0730   45.8760 C   0  0  0  0  0  0  0  0  0  0  0  0
   60.4910   34.0700   47.0470 C   0  0  0  0  0  0  0  0  0  0  0  0
   62.2670   33.1210   49.3680 C   0  0  0  0  0  0  0  0  0  0  0  0
   65.3608   33.6315   52.6349 H   0  0  0  0  0  0  0  0  0  0  0  0
   66.6773   33.8810   51.4386 H   0  0  0  0  0  0  0  0  0  0  0  0
   65.2461   34.9665   51.4386 H   0  0  0  0  0  0  0  0  0  0  0  0
   62.9919   33.3351   52.7045 H   0  0  0  0  0  0  0  0  0  0  0  0
   60.5279   33.7112   52.8045 H   0  0  0  0  0  0  0  0  0  0  0  0
   59.1755   33.7197   50.7102 H   0  0  0  0  0  0  0  0  0  0  0  0
   58.5431   32.0042   48.9553 H   0  0  0  0  0  0  0  0  0  0  0  0
   57.1893   32.0103   46.8663 H   0  0  0  0  0  0  0  0  0  0  0  0
   56.6966   33.6632   44.7642 H   0  0  0  0  0  0  0  0  0  0  0  0
   58.2035   34.0082   43.8136 H   0  0  0  0  0  0  0  0  0  0  0  0
   58.6030   31.4033   44.1035 H   0  0  0  0  0  0  0  0  0  0  0  0
   58.1748   29.1446   43.7349 H   0  0  0  0  0  0  0  0  0  0  0  0
   56.3640   27.3320   45.0570 H   0  0  0  0  0  0  0  0  0  0  0  0
   57.7815   26.0984   46.4170 H   0  0  0  0  0  0  0  0  0  0  0  0
   60.2376   26.4785   46.3785 H   0  0  0  0  0  0  0  0  0  0  0  0
   59.8353   26.4651   44.6805 H   0  0  0  0  0  0  0  0  0  0  0  0
   60.7696   28.7513   46.3092 H   0  0  0  0  0  0  0  0  0  0  0  0
   60.4346   28.8083   44.5961 H   0  0  0  0  0  0  0  0  0  0  0  0
   58.7592   30.2465   46.1254 H   0  0  0  0  0  0  0  0  0  0  0  0
   58.7552   28.1418   47.8121 H   0  0  0  0  0  0  0  0  0  0  0  0
   57.1519   28.5000   47.4139 H   0  0  0  0  0  0  0  0  0  0  0  0
   60.0707   34.6506   45.0041 H   0  0  0  0  0  0  0  0  0  0  0  0
   61.4241   34.6507   47.0934 H   0  0  0  0  0  0  0  0  0  0  0  0
   62.7598   32.9467   48.4001 H   0  0  0  0  0  0  0  0  0  0  0  0
  1  2  1  0
  2  3  2  0
  2  4  2  0
  2  5  1  0
  5  6  2  0
  6  7  1  0
  7  8  2  0
  8  9  1  0
  9 10  1  0
 10 11  2  0
 11 12  1  0
 12 13  2  0
 13 14  1  0
 14 15  1  0
 15 16  1  0
 16 17  3  0
 15 18  1  0
 18 19  1  0
 19 20  2  0
 19 21  1  0
 21 22  1  0
 22 23  1  0
 23 24  1  0
 24 25  1  0
 25 26  1  0
 26 27  1  0
 13 28  1  0
 28 29  2  0
  9 30  2  0
 30  5  1  0
 29 10  1  0
 26 21  1  0
 27 23  1  0
  1 31  1  0
  1 32  1  0
  1 33  1  0
  6 34  1  0
  7 35  1  0
  8 36  1  0
 11 37  1  0
 12 38  1  0
 14 39  1  0
 14 40  1  0
 15 41  1  6
 21 42  1  6
 22 43  1  0
 23 44  1  1
 24 45  1  0
 24 46  1  0
 25 47  1  0
 25 48  1  0
 26 49  1  1
 27 50  1  0
 27 51  1  0
 28 52  1  0
 29 53  1  0
 30 54  1  0
M  CHG  1  18  -1
M  END
>  <UniqueID>  (3) 
2

>  <SMILES>  (3) 
CS(=O)(=O)c1cccc(-c2ccc(C[C@H](C#N)[N-]C(=O)[C@@H]3NC4CCC3C4)cc2)c1

>  <Energy>  (3) 
82.04292739717114

>  <Genealogy>  (3) 
CS(=O)(=O)c1cccc(-c2ccc(CC(C#N)[N-]C(=O)C3NC4CCC3C4)cc2)c1 (protonated)
CS(=O)(=O)c1cccc(-c2ccc(C[C@H](C#N)[N-]C(=O)[C@@H]3NC4CCC3C4)cc2)c1 (chirality)
CS(=O)(=O)c1cccc(-c2ccc(C[C@H](C#N)[N-]C(=O)[C@@H]3NC4CCC3C4)cc2)c1 (3D coordinates assigned)
CS(=O)(=O)c1cccc(-c2ccc(C[C@H](C#N)[N-]C(=O)[C@@H]3NC4CCC3C4)cc2)c1 (nonaromatic ring conformer: 82.04292739717114 kcal/mol)

>  <smiles>  (3) 
CS(=O)(=O)c1cccc(-c2ccc(CC(C#N)NC(=O)C3NC4CCC3C4)cc2)c1

>  <score_type>  (3) 
oracle

>  <origin>  (3) 
adg

>  <m_score__min__energy>  (3) 
-12.08

>  <m_primary>  (3) 
energy

$$$$
3:0
     RDKit          3D

 65 69  0  0  1  0  0  0  0  0999 V2000
   61.7640   33.4870   51.4530 C   0  0  0  0  0  0  0  0  0  0  0  0
   62.6890   33.4230   50.3740 O   0  0  0  0  0  0  0  0  0  0  0  0
   62.2780   33.5760   49.0550 C   0  0  0  0  0  0  0  0  0  0  0  0
   61.1100   34.2380   48.7460 C   0  0  0  0  0  0  0  0  0  0  0  0
   60.6700   34.4090   47.4340 C   0  0  0  0  0  0  0  0  0  0  0  0
   59.4090   35.1160   47.1210 C   0  0  0  0  0  0  0  0  0  0  0  0
   58.3230   34.0650   46.8990 C   0  0  0  0  0  0  0  0  0  0  0  0
   58.2380   33.7480   45.4910 N   0  0  0  0  0  0  0  0  0  0  0  0
   57.9030   32.5610   45.1180 C   0  0  0  0  0  0  0  0  0  0  0  0
   57.9620   31.4800   45.9160 N   0  0  0  0  0  0  0  0  0  0  0  0
   57.6080   30.2430   45.5210 C   0  0  0  0  0  0  0  0  0  0  0  0
   57.6990   29.2940   46.3270 N   0  0  0  0  0  0  0  0  0  0  0  0
   58.7520   28.3800   46.5340 C   0  0  0  0  0  0  0  0  0  0  0  0
   59.6670   28.7470   47.6540 C   0  0  0  0  0  0  0  0  0  0  0  0
   60.0270   27.8810   48.6620 C   0  0  0  0  0  0  0  0  0  0  0  0
   60.8820   28.2580   49.7030 C   0  0  0  0  0  0  0  0  0  0  0  0
   61.4120   29.5270   49.7700 C   0  0  0  0  0  0  0  0  0  0  0  0
   62.2960   29.8600   50.8750 C   0  0  0  0  0  0  0  0  0  0  0  0
   62.1990   29.2060   51.9380 O   0  0  0  0  0  0  0  0  0  0  0  0
   63.2730   30.8880   50.8310 N   0  0  0  0  0  0  0  0  0  0  0  0
   64.1560   31.2380   51.8960 C   0  0  0  0  0  0  0  0  0  0  0  0
   65.2560   32.1430   51.5510 C   0  0  0  0  0  0  0  0  0  0  0  0
   65.4980   33.4360   51.8070 C   0  0  0  0  0  0  0  0  0  0  0  0
   66.6100   34.0210   51.3540 C   0  0  0  0  0  0  0  0  0  0  0  0
   67.4830   33.2100   50.6130 C   0  0  0  0  0  0  0  0  0  0  0  0
   66.7010   31.5470   50.5500 S   0  0  0  0  0  0  0  0  0  0  0  0
   61.0630   30.4060   48.7710 C   0  0  0  0  0  0  0  0  0  0  0  0
   60.2240   30.0310   47.7520 C   0  0  0  0  0  0  0  0  0  0  0  0
   57.1620   30.0410   44.2550 C   0  0  0  0  0  0  0  0  0  0  0  0
   56.7540   28.9630   43.6180 N   0  0  0  0  0  0  0  0  0  0  0  0
   56.4280   29.4040   42.3590 C   0  0  0  0  0  0  0  0  0  0  0  0
   56.6440   30.7240   42.2680 N   0  0  0  0  0  0  0  0  0  0  0  0
   57.1050   31.1680   43.4330 C   0  0  0  0  0  0  0  0  0  0  0  0
   57.4670   32.3890   43.8580 N   0  0  0  0  0  0  0  0  0  0  0  0
   61.4630   33.8790   46.4130 C   0  0  0  0  0  0  0  0  0  0  0  0
   62.6230   33.2230   46.7520 C   0  0  0  0  0  0  0  0  0  0  0  0
   63.0530   33.0570   48.0540 C   0  0  0  0  0  0  0  0  0  0  0  0
   64.2240   32.3950   48.3840 O   0  0  0  0  0  0  0  0  0  0  0  0
   62.3103   33.4492   52.4070 H   0  0  0  0  0  0  0  0  0  0  0  0
   61.1952   34.4266   51.3931 H   0  0  0  0  0  0  0  0  0  0  0  0
   61.0713   32.6346   51.3931 H   0  0  0  0  0  0  0  0  0  0  0  0
   60.5012   34.6473   49.5657 H   0  0  0  0  0  0  0  0  0  0  0  0
   59.1296   35.7705   47.9598 H   0  0  0  0  0  0  0  0  0  0  0  0
   59.5312   35.7362   46.2208 H   0  0  0  0  0  0  0  0  0  0  0  0
   58.5723   33.1553   47.4650 H   0  0  0  0  0  0  0  0  0  0  0  0
   57.3559   34.4592   47.2446 H   0  0  0  0  0  0  0  0  0  0  0  0
   58.2990   31.6170   46.8750 H   0  0  0  0  0  0  0  0  0  0  0  0
   58.3156   27.3944   46.7535 H   0  0  0  0  0  0  0  0  0  0  0  0
   59.3582   28.3818   45.6161 H   0  0  0  0  0  0  0  0  0  0  0  0
   59.6280   26.8560   48.6483 H   0  0  0  0  0  0  0  0  0  0  0  0
   61.1360   27.5259   50.4837 H   0  0  0  0  0  0  0  0  0  0  0  0
   63.3260   31.4210   49.9120 H   0  0  0  0  0  0  0  0  0  0  0  0
   63.5582   31.7206   52.6833 H   0  0  0  0  0  0  0  0  0  0  0  0
   64.6339   30.2966   52.2048 H   0  0  0  0  0  0  0  0  0  0  0  0
   64.7749   34.0203   52.3950 H   0  0  0  0  0  0  0  0  0  0  0  0
   66.8295   35.0807   51.5511 H   0  0  0  0  0  0  0  0  0  0  0  0
   68.4406   33.5085   50.1615 H   0  0  0  0  0  0  0  0  0  0  0  0
   61.4645   31.4299   48.7894 H   0  0  0  0  0  0  0  0  0  0  0  0
   59.9768   30.7709   46.9765 H   0  0  0  0  0  0  0  0  0  0  0  0
   56.6240   27.9640   43.8220 H   0  0  0  0  0  0  0  0  0  0  0  0
   56.0464   28.7687   41.5461 H   0  0  0  0  0  0  0  0  0  0  0  0
   57.4150   33.2300   43.2170 H   0  0  0  0  0  0  0  0  0  0  0  0
   61.1654   33.9844   45.3593 H   0  0  0  0  0  0  0  0  0  0  0  0
   63.2418   32.8081   45.9427 H   0  0  0  0  0  0  0  0  0  0  0  0
   64.5110   32.4240   49.3480 H   0  0  0  0  0  0  0  0  0  0  0  0
  1  2  1  0
  2  3  1  0
  3  4  2  0
  4  5  1  0
  5  6  1  0
  6  7  1  0
  7  8  1  0
  8  9  2  0
  9 10  1  0
 10 11  1  0
 11 12  2  0
 12 13  1  0
 13 14  1  0
 14 15  2  0
 15 16  1  0
 16 17  2  0
 17 18  1  0
 18 19  2  0
 18 20  1  0
 20 21  1  0
 21 22  1  0
 22 23  2  0
 23 24  1  0
 24 25  2  0
 25 26  1  0
 17 27  1  0
 27 28  2  0
 11 29  1  0
 29 30  1  0
 30 31  1  0
 31 32  2  0
 32 33  1  0
 33 34  1  0
  5 35  2  0
 35 36  1  0
 36 37  2  0
 37 38  1  0
 37  3  1  0
 34  9  1  0
 28 14  1  0
 33 29  2  0
 26 22  1  0
  1 39  1  0
  1 40  1  0
  1 41  1  0
  4 42  1  0
  6 43  1  0
  6 44  1  0
  7 45  1  0
  7 46  1  0
 10 47  1  0
 13 48  1  0
 13 49  1  0
 15 50  1  0
 16 51  1  0
 20 52  1  0
 21 53  1  0
 21 54  1  0
 23 55  1  0
 24 56  1  0
 25 57  1  0
 27 58  1  0
 28 59  1  0
 30 60  1  0
 31 61  1  0
 34 62  1  0
 35 63  1  0
 36 64  1  0
 38 65  1  0
M  END
>  <smiles>  (4) 
COc1cc(CCN=c2[nH]c(=NCc3ccc(C(=O)NCc4cccs4)cc3)c3[nH]cnc3[nH]2)ccc1O

>  <score_type>  (4) 
oracle

>  <origin>  (4) 
adg

>  <m_score__min__energy>  (4) 
-9.6099999999999994

>  <m_primary>  (4) 
energy

$$$$
4:0
     RDKit          3D

 25 26  0  0  0  0  0  0  0  0999 V2000
   55.1320   26.2300   45.9930 N   0  0  0  0  0  0  0  0  0  0  0  0
   56.8580   26.2890   45.9430 S   0  0  0  0  0  0  0  0  0  0  0  0
   57.3460   25.6110   44.6940 O   0  0  0  0  0  0  0  0  0  0  0  0
   57.4220   25.5680   47.1340 O   0  0  0  0  0  0  0  0  0  0  0  0
   57.3900   27.9690   45.9570 C   0  0  0  0  0  0  0  0  0  0  0  0
   58.1650   28.4520   47.0180 C   0  0  0  0  0  0  0  0  0  0  0  0
   58.5780   29.7870   47.0390 C   0  0  0  0  0  0  0  0  0  0  0  0
   58.2120   30.6590   45.9990 C   0  0  0  0  0  0  0  0  0  0  0  0
   58.6440   32.0350   46.0120 N   0  0  0  0  0  0  0  0  0  0  0  0
   59.9240   32.3270   46.3910 C   0  0  0  0  0  0  0  0  0  0  0  0
   60.3680   33.6480   46.4240 C   0  0  0  0  0  0  0  0  0  0  0  0
   59.4820   34.6570   46.0580 C   0  0  0  0  0  0  0  0  0  0  0  0
   59.8480   35.8610   46.0790 O   0  0  0  0  0  0  0  0  0  0  0  0
   58.2200   34.3400   45.6780 N   0  0  0  0  0  0  0  0  0  0  0  0
   57.7940   33.0500   45.6480 C   0  0  0  0  0  0  0  0  0  0  0  0
   56.6180   32.8020   45.2680 O   0  0  0  0  0  0  0  0  0  0  0  0
   57.4340   30.1710   44.9370 C   0  0  0  0  0  0  0  0  0  0  0  0
   57.0210   28.8350   44.9190 C   0  0  0  0  0  0  0  0  0  0  0  0
   54.8120   27.0900   46.4920 H   0  0  0  0  0  0  0  0  0  0  0  0
   58.4502   27.7777   47.8390 H   0  0  0  0  0  0  0  0  0  0  0  0
   59.1922   30.1570   47.8731 H   0  0  0  0  0  0  0  0  0  0  0  0
   60.6091   31.5136   46.6721 H   0  0  0  0  0  0  0  0  0  0  0  0
   61.3963   33.8877   46.7326 H   0  0  0  0  0  0  0  0  0  0  0  0
   57.1478   30.8432   44.1147 H   0  0  0  0  0  0  0  0  0  0  0  0
   56.4046   28.4628   44.0874 H   0  0  0  0  0  0  0  0  0  0  0  0
  1  2  1  0
  2  3  2  0
  2  4  2  0
  2  5  1  0
  5  6  2  0
  6  7  1  0
  7  8  2  0
  8  9  1  0
  9 10  1  0
 10 11  2  0
 11 12  1  0
 12 13  2  0
 12 14  1  0
 14 15  1  0
 15 16  2  0
  8 17  1  0
 17 18  2  0
 18  5  1  0
 15  9  1  0
  1 19  1  0
  6 20  1  0
  7 21  1  0
 10 22  1  0
 11 23  1  0
 17 24  1  0
 18 25  1  0
M  CHG  2   1  -1  14  -1
M  END
>  <UniqueID>  (5) 
3

>  <SMILES>  (5) 
[NH-]S(=O)(=O)c1ccc(-n2ccc(=O)[n-]c2=O)cc1

>  <Energy>  (5) 
34.7215729214532

>  <Genealogy>  (5) 
[NH-]S(=O)(=O)c1ccc(-n2ccc(=O)[n-]c2=O)cc1 (protonated)
[NH-]S(=O)(=O)c1ccc(-n2ccc(=O)[n-]c2=O)cc1 (3D coordinates assigned)
[NH-]S(=O)(=O)c1ccc(-n2ccc(=O)[n-]c2=O)cc1 (optimized conformer: 34.7215729214532 kcal/mol)

>  <smiles>  (5) 
NS(=O)(=O)c1ccc(-n2ccc(=O)[nH]c2=O)cc1

>  <score_type>  (5) 
oracle

>  <origin>  (5) 
adg

>  <m_score__min__energy>  (5) 
-10.550000000000001

>  <m_primary>  (5) 
energy

$$$$
5:0
     RDKit          3D

 51 53  0  0  0  0  0  0  0  0999 V2000
   59.2340   30.7390   50.9050 C   0  0  0  0  0  0  0  0  0  0  0  0
   60.1400   31.9470   50.7150 C   0  0  0  0  0  0  0  0  0  0  0  0
   59.4430   33.0140   49.9320 C   0  0  0  0  0  0  0  0  0  0  0  0
   59.7700   34.2180   50.1010 O   0  0  0  0  0  0  0  0  0  0  0  0
   58.4940   32.6390   48.9240 N   0  0  0  0  0  0  0  0  0  0  0  0
   58.5700   32.9210   47.5170 C   0  0  0  0  0  0  0  0  0  0  0  0
   59.4310   33.9030   46.9910 C   0  0  0  0  0  0  0  0  0  0  0  0
   59.4920   34.1200   45.6110 C   0  0  0  0  0  0  0  0  0  0  0  0
   58.7030   33.3590   44.7470 C   0  0  0  0  0  0  0  0  0  0  0  0
   57.8220   32.3990   45.2620 C   0  0  0  0  0  0  0  0  0  0  0  0
   56.8710   31.3820   44.1320 S   0  0  0  0  0  0  0  0  0  0  0  0
   57.3910   29.8760   44.9560 C   0  0  0  0  0  0  0  0  0  0  0  0
   58.6730   29.7620   45.3890 N   0  0  0  0  0  0  0  0  0  0  0  0
   59.0820   28.6880   46.1140 C   0  0  0  0  0  0  0  0  0  0  0  0
   60.2690   28.6510   46.6420 N   0  0  0  0  0  0  0  0  0  0  0  0
   60.8150   29.6480   47.5190 C   0  0  0  0  0  0  0  0  0  0  0  0
   60.8890   29.4360   48.7600 O   0  0  0  0  0  0  0  0  0  0  0  0
   61.2360   30.9610   46.9850 C   0  0  0  0  0  0  0  0  0  0  0  0
   62.4490   31.5070   47.1720 C   0  0  0  0  0  0  0  0  0  0  0  0
   62.8170   32.3910   48.3010 C   0  0  0  0  0  0  0  0  0  0  0  0
   63.5390   31.8980   49.4060 C   0  0  0  0  0  0  0  0  0  0  0  0
   63.8540   32.7450   50.4740 C   0  0  0  0  0  0  0  0  0  0  0  0
   63.4340   34.0780   50.4630 C   0  0  0  0  0  0  0  0  0  0  0  0
   62.6760   34.5620   49.3910 C   0  0  0  0  0  0  0  0  0  0  0  0
   62.3540   33.7170   48.3200 C   0  0  0  0  0  0  0  0  0  0  0  0
   58.2010   27.6890   46.3910 N   0  0  0  0  0  0  0  0  0  0  0  0
   56.9090   27.7500   45.9630 C   0  0  0  0  0  0  0  0  0  0  0  0
   56.0120   26.7150   46.2440 O   0  0  0  0  0  0  0  0  0  0  0  0
   56.2490   25.3620   45.8650 C   0  0  0  0  0  0  0  0  0  0  0  0
   56.4710   28.8660   45.2460 C   0  0  0  0  0  0  0  0  0  0  0  0
   55.1440   28.9630   44.8300 O   0  0  0  0  0  0  0  0  0  0  0  0
   57.7420   32.1970   46.6460 C   0  0  0  0  0  0  0  0  0  0  0  0
   59.0934   30.5515   51.9798 H   0  0  0  0  0  0  0  0  0  0  0  0
   58.2584   30.9351   50.4363 H   0  0  0  0  0  0  0  0  0  0  0  0
   59.6954   29.8573   50.4363 H   0  0  0  0  0  0  0  0  0  0  0  0
   60.4195   32.3471   51.7008 H   0  0  0  0  0  0  0  0  0  0  0  0
   61.0372   31.6321   50.1619 H   0  0  0  0  0  0  0  0  0  0  0  0
   60.0580   34.5017   47.6681 H   0  0  0  0  0  0  0  0  0  0  0  0
   60.1629   34.8917   45.2056 H   0  0  0  0  0  0  0  0  0  0  0  0
   58.7730   33.5132   43.6601 H   0  0  0  0  0  0  0  0  0  0  0  0
   60.5045   31.5307   46.3930 H   0  0  0  0  0  0  0  0  0  0  0  0
   63.2283   31.2799   46.4296 H   0  0  0  0  0  0  0  0  0  0  0  0
   63.8557   30.8448   49.4290 H   0  0  0  0  0  0  0  0  0  0  0  0
   64.4344   32.3604   51.3256 H   0  0  0  0  0  0  0  0  0  0  0  0
   63.6990   34.7458   51.2960 H   0  0  0  0  0  0  0  0  0  0  0  0
   62.3324   35.6069   49.3888 H   0  0  0  0  0  0  0  0  0  0  0  0
   61.7364   34.0937   47.4913 H   0  0  0  0  0  0  0  0  0  0  0  0
   56.3576   24.7421   46.7672 H   0  0  0  0  0  0  0  0  0  0  0  0
   55.4015   24.9947   45.2676 H   0  0  0  0  0  0  0  0  0  0  0  0
   57.1709   25.3047   45.2676 H   0  0  0  0  0  0  0  0  0  0  0  0
   57.0263   31.4669   47.0519 H   0  0  0  0  0  0  0  0  0  0  0  0
  1  2  1  0
  2  3  1  0
  3  4  2  0
  3  5  1  0
  5  6  1  0
  6  7  2  0
  7  8  1  0
  8  9  2  0
  9 10  1  0
 10 11  1  0
 11 12  1  0
 12 13  2  0
 13 14  1  0
 14 15  2  3
 15 16  1  0
 16 17  2  0
 16 18  1  0
 18 19  2  3
 19 20  1  0
 20 21  2  0
 21 22  1  0
 22 23  2  0
 23 24  1  0
 24 25  2  0
 14 26  1  0
 26 27  1  0
 27 28  1  0
 28 29  1  0
 27 30  2  0
 30 31  1  0
 10 32  2  0
 32  6  1  0
 30 12  1  0
 25 20  1  0
  1 33  1  0
  1 34  1  0
  1 35  1  0
  2 36  1  0
  2 37  1  0
  7 38  1  0
  8 39  1  0
  9 40  1  0
 18 41  1  0
 19 42  1  0
 21 43  1  0
 22 44  1  0
 23 45  1  0
 24 46  1  0
 25 47  1  0
 29 48  1  0
 29 49  1  0
 29 50  1  0
 32 51  1  0
M  CHG  3   5  -1  26  -1  31  -1
M  END
>  <UniqueID>  (6) 
4

>  <SMILES>  (6) 
CCC(=O)[N-]c1cccc(Sc2nc(=NC(=O)C=Cc3ccccc3)[n-]c(OC)c2[O-])c1

>  <Energy>  (6) 
56.15863903061356

>  <Genealogy>  (6) 
CCC(=O)[N-]c1cccc(Sc2nc(=NC(=O)C=Cc3ccccc3)[n-]c(OC)c2[O-])c1 (protonated)
CCC(=O)[N-]c1cccc(Sc2nc(=NC(=O)C=Cc3ccccc3)[n-]c(OC)c2[O-])c1 (3D coordinates assigned)
CCC(=O)[N-]c1cccc(Sc2nc(=NC(=O)C=Cc3ccccc3)[n-]c(OC)c2[O-])c1 (optimized conformer: 56.15863903061356 kcal/mol)

>  <smiles>  (6) 
CCC(=O)Nc1cccc(Sc2nc(=NC(=O)C=Cc3ccccc3)[nH]c(OC)c2O)c1

>  <score_type>  (6) 
oracle

>  <origin>  (6) 
adg

>  <m_score__min__energy>  (6) 
-13.859999999999999

>  <m_primary>  (6) 
energy

$$$$
6:0
     RDKit          3D

 47 49  0  0  0  0  0  0  0  0999 V2000
   63.4090   32.8950   47.1060 C   0  0  0  0  0  0  0  0  0  0  0  0
   61.9420   32.8290   47.2690 N   0  0  1  0  0  0  0  0  0  0  0  0
   61.5730   32.8680   48.7080 C   0  0  0  0  0  0  0  0  0  0  0  0
   60.6160   31.7570   49.0800 C   0  0  0  0  0  0  0  0  0  0  0  0
   60.9140   30.4260   48.7410 C   0  0  0  0  0  0  0  0  0  0  0  0
   60.0350   29.3980   49.0910 C   0  0  0  0  0  0  0  0  0  0  0  0
   58.8560   29.6880   49.7820 C   0  0  0  0  0  0  0  0  0  0  0  0
   58.5550   31.0080   50.1280 C   0  0  0  0  0  0  0  0  0  0  0  0
   59.4330   32.0410   49.7800 C   0  0  0  0  0  0  0  0  0  0  0  0
   61.3200   33.9570   46.5340 C   0  0  0  0  0  0  0  0  0  0  0  0
   59.9630   33.6010   45.9940 C   0  0  0  0  0  0  0  0  0  0  0  0
   59.1660   34.4240   45.2040 C   0  0  0  0  0  0  0  0  0  0  0  0
   57.9390   33.8450   44.8670 C   0  0  0  0  0  0  0  0  0  0  0  0
   57.7830   32.5670   45.3960 C   0  0  0  0  0  0  0  0  0  0  0  0
   56.6450   31.7170   45.2440 N   0  0  0  0  0  0  0  0  0  0  0  0
   56.6830   30.2090   44.3920 S   0  0  0  0  0  0  0  0  0  0  0  0
   56.9400   30.4610   42.9330 O   0  0  0  0  0  0  0  0  0  0  0  0
   55.3520   29.5270   44.5320 O   0  0  0  0  0  0  0  0  0  0  0  0
   57.9310   29.1760   45.0810 C   0  0  0  0  0  0  0  0  0  0  0  0
   57.6070   28.1840   46.0200 C   0  0  0  0  0  0  0  0  0  0  0  0
   58.6060   27.3610   46.5470 C   0  0  0  0  0  0  0  0  0  0  0  0
   59.9380   27.5210   46.1430 C   0  0  0  0  0  0  0  0  0  0  0  0
   60.9590   26.6780   46.6820 N   0  0  0  0  0  0  0  0  0  0  0  0
   60.2610   28.5160   45.2100 C   0  0  0  0  0  0  0  0  0  0  0  0
   59.2620   29.3380   44.6780 C   0  0  0  0  0  0  0  0  0  0  0  0
   59.1480   32.1550   46.2800 S   0  0  0  0  0  0  0  0  0  0  0  0
   63.8874   32.9165   48.0963 H   0  0  0  0  0  0  0  0  0  0  0  0
   63.7563   32.0116   46.5502 H   0  0  0  0  0  0  0  0  0  0  0  0
   63.6755   33.8060   46.5502 H   0  0  0  0  0  0  0  0  0  0  0  0
   61.6120   31.9290   46.8440 H   0  0  0  0  0  0  0  0  0  0  0  0
   62.4870   32.7659   49.3115 H   0  0  0  0  0  0  0  0  0  0  0  0
   61.0711   33.8272   48.9033 H   0  0  0  0  0  0  0  0  0  0  0  0
   61.8421   30.1930   48.1985 H   0  0  0  0  0  0  0  0  0  0  0  0
   60.2718   28.3580   48.8219 H   0  0  0  0  0  0  0  0  0  0  0  0
   58.1644   28.8770   50.0538 H   0  0  0  0  0  0  0  0  0  0  0  0
   57.6276   31.2353   50.6741 H   0  0  0  0  0  0  0  0  0  0  0  0
   59.1951   33.0789   50.0560 H   0  0  0  0  0  0  0  0  0  0  0  0
   61.2162   34.8119   47.2184 H   0  0  0  0  0  0  0  0  0  0  0  0
   61.9694   34.2045   45.6813 H   0  0  0  0  0  0  0  0  0  0  0  0
   59.4709   35.4292   44.8775 H   0  0  0  0  0  0  0  0  0  0  0  0
   57.1784   34.3457   44.2499 H   0  0  0  0  0  0  0  0  0  0  0  0
   56.5633   28.0541   46.3421 H   0  0  0  0  0  0  0  0  0  0  0  0
   58.3456   26.5848   47.2816 H   0  0  0  0  0  0  0  0  0  0  0  0
   61.3810   25.9180   46.1050 H   0  0  0  0  0  0  0  0  0  0  0  0
   61.3040   26.8140   47.6560 H   0  0  0  0  0  0  0  0  0  0  0  0
   61.3060   28.6512   44.8944 H   0  0  0  0  0  0  0  0  0  0  0  0
   59.5225   30.1128   43.9419 H   0  0  0  0  0  0  0  0  0  0  0  0
  1  2  1  0
  2  3  1  0
  3  4  1  0
  4  5  2  0
  5  6  1  0
  6  7  2  0
  7  8  1  0
  8  9  2  0
  2 10  1  0
 10 11  1  0
 11 12  2  0
 12 13  1  0
 13 14  2  0
 14 15  1  0
 15 16  1  0
 16 17  2  0
 16 18  2  0
 16 19  1  0
 19 20  2  0
 20 21  1  0
 21 22  2  0
 22 23  1  0
 22 24  1  0
 24 25  2  0
 14 26  1  0
  9  4  1  0
 26 11  1  0
 25 19  1  0
  1 27  1  0
  1 28  1  0
  1 29  1  0
  2 30  1  6
  3 31  1  0
  3 32  1  0
  5 33  1  0
  6 34  1  0
  7 35  1  0
  8 36  1  0
  9 37  1  0
 10 38  1  0
 10 39  1  0
 12 40  1  0
 13 41  1  0
 20 42  1  0
 21 43  1  0
 23 44  1  0
 23 45  1  0
 24 46  1  0
 25 47  1  0
M  CHG  2   2   1  15  -1
M  END
>  <UniqueID>  (7) 
5

>  <SMILES>  (7) 
C[N@@H+](Cc1ccccc1)Cc1ccc([N-]S(=O)(=O)c2ccc(N)cc2)s1

>  <Energy>  (7) 
78.10808418363601

>  <Genealogy>  (7) 
C[NH+](Cc1ccccc1)Cc1ccc([N-]S(=O)(=O)c2ccc(N)cc2)s1 (protonated)
C[N@@H+](Cc1ccccc1)Cc1ccc([N-]S(=O)(=O)c2ccc(N)cc2)s1 (chirality)
C[N@@H+](Cc1ccccc1)Cc1ccc([N-]S(=O)(=O)c2ccc(N)cc2)s1 (3D coordinates assigned)
C[N@@H+](Cc1ccccc1)Cc1ccc([N-]S(=O)(=O)c2ccc(N)cc2)s1 (optimized conformer: 78.10808418363601 kcal/mol)

>  <smiles>  (7) 
CN(Cc1ccccc1)Cc1ccc(NS(=O)(=O)c2ccc(N)cc2)s1

>  <score_type>  (7) 
oracle

>  <origin>  (7) 
adg

>  <m_score__min__energy>  (7) 
-8.7200000000000006

>  <m_primary>  (7) 
energy

$$$$
7:0
     RDKit          3D

 33 35  0  0  0  0  0  0  0  0999 V2000
   55.1620   28.9930   44.8730 O   0  0  0  0  0  0  0  0  0  0  0  0
   56.2660   29.5970   44.8830 C   0  0  0  0  0  0  0  0  0  0  0  0
   56.3040   30.9430   44.5360 O   0  0  0  0  0  0  0  0  0  0  0  0
   57.5220   28.8740   45.1820 C   0  0  0  0  0  0  0  0  0  0  0  0
   57.4690   27.4680   45.2320 C   0  0  0  0  0  0  0  0  0  0  0  0
   58.5850   26.7260   45.6160 C   0  0  0  0  0  0  0  0  0  0  0  0
   59.7710   27.3710   45.9570 C   0  0  0  0  0  0  0  0  0  0  0  0
   59.8530   28.7620   45.8910 C   0  0  0  0  0  0  0  0  0  0  0  0
   58.7500   29.5310   45.4800 C   0  0  0  0  0  0  0  0  0  0  0  0
   58.9640   30.9880   45.3280 C   0  0  0  0  0  0  0  0  0  0  0  0
   58.8770   31.7930   46.3420 N   0  0  0  0  0  0  0  0  0  0  0  0
   59.2560   33.1500   46.2940 N   0  0  0  0  0  0  0  0  0  0  0  0
   60.4320   33.7410   46.6040 C   0  0  0  0  0  0  0  0  0  0  0  0
   61.5760   33.1110   47.2930 C   0  0  0  0  0  0  0  0  0  0  0  0
   62.8660   33.6410   47.1330 C   0  0  0  0  0  0  0  0  0  0  0  0
   63.9530   33.0640   47.7970 C   0  0  0  0  0  0  0  0  0  0  0  0
   63.7580   31.9640   48.6360 C   0  0  0  0  0  0  0  0  0  0  0  0
   62.4730   31.4450   48.8200 C   0  0  0  0  0  0  0  0  0  0  0  0
   61.3840   32.0210   48.1590 C   0  0  0  0  0  0  0  0  0  0  0  0
   60.3990   35.0550   46.2950 N   0  0  0  0  0  0  0  0  0  0  0  0
   59.1990   35.3140   45.7920 N   0  0  0  0  0  0  0  0  0  0  0  0
   58.5130   34.1560   45.8060 C   0  0  0  0  0  0  0  0  0  0  0  0
   56.9890   33.9970   45.2360 S   0  0  0  0  0  0  0  0  0  0  0  0
   56.5365   26.9491   44.9651 H   0  0  0  0  0  0  0  0  0  0  0  0
   58.5285   25.6280   45.6497 H   0  0  0  0  0  0  0  0  0  0  0  0
   60.6436   26.7835   46.2785 H   0  0  0  0  0  0  0  0  0  0  0  0
   60.7930   29.2638   46.1641 H   0  0  0  0  0  0  0  0  0  0  0  0
   59.2017   31.3967   44.3348 H   0  0  0  0  0  0  0  0  0  0  0  0
   63.0225   34.5141   46.4824 H   0  0  0  0  0  0  0  0  0  0  0  0
   64.9632   33.4768   47.6585 H   0  0  0  0  0  0  0  0  0  0  0  0
   64.6152   31.5065   49.1516 H   0  0  0  0  0  0  0  0  0  0  0  0
   62.3186   30.5828   49.4854 H   0  0  0  0  0  0  0  0  0  0  0  0
   60.3723   31.6192   48.3175 H   0  0  0  0  0  0  0  0  0  0  0  0
  1  2  2  0
  2  3  1  0
  2  4  1  0
  4  5  2  0
  5  6  1  0
  6  7  2  0
  7  8  1  0
  8  9  2  0
  9 10  1  0
 10 11  2  3
 11 12  1  0
 12 13  1  0
 13 14  1  0
 14 15  2  0
 15 16  1  0
 16 17  2  0
 17 18  1  0
 18 19  2  0
 13 20  2  0
 20 21  1  0
 21 22  1  0
 22 23  2  0
  9  4  1  0
 22 12  1  0
 19 14  1  0
  5 24  1  0
  6 25  1  0
  7 26  1  0
  8 27  1  0
 10 28  1  0
 15 29  1  0
 16 30  1  0
 17 31  1  0
 18 32  1  0
 19 33  1  0
M  CHG  2   3  -1  21  -1
M  END
>  <UniqueID>  (8) 
6

>  <SMILES>  (8) 
O=C([O-])c1ccccc1C=Nn1c(-c2ccccc2)n[n-]c1=S

>  <Energy>  (8) 
89.52816431412786

>  <Genealogy>  (8) 
O=C([O-])c1ccccc1C=Nn1c(-c2ccccc2)n[n-]c1=S (protonated)
O=C([O-])c1ccccc1C=Nn1c(-c2ccccc2)n[n-]c1=S (3D coordinates assigned)
O=C([O-])c1ccccc1C=Nn1c(-c2ccccc2)n[n-]c1=S (optimized conformer: 89.52816431412786 kcal/mol)

>  <smiles>  (8) 
O=C(O)c1ccccc1C=Nn1c(-c2ccccc2)n[nH]c1=S

>  <score_type>  (8) 
oracle

>  <origin>  (8) 
adg

>  <m_score__min__energy>  (8) 
-12.73

>  <m_primary>  (8) 
energy

$$$$
8:0
     RDKit          3D

 76 80  0  0  0  0  0  0  0  0999 V2000
   60.5250   32.5840   48.9770 C   0  0  0  0  0  0  0  0  0  0  0  0
   59.8500   32.6070   47.5840 C   0  0  0  0  0  0  0  0  0  0  0  0
   60.0300   34.0220   46.9880 C   0  0  0  0  0  0  0  0  0  0  0  0
   58.3390   32.3600   47.8170 C   0  0  0  0  0  0  0  0  0  0  0  0
   60.4330   31.4610   46.6680 C   0  0  0  0  0  0  0  0  0  0  0  0
   59.4570   30.7160   45.7680 C   0  0  0  0  0  0  0  0  0  0  0  0
   59.4000   29.3240   45.5810 C   0  0  0  0  0  0  0  0  0  0  0  0
   60.3560   28.3030   46.1710 C   0  0  0  0  0  0  0  0  0  0  0  0
   59.7050   27.4300   47.2730 C   0  0  0  0  0  0  0  0  0  0  0  0
   60.7470   26.7880   48.2340 C   0  0  0  0  0  0  0  0  0  0  0  0
   60.7560   27.4090   49.6440 C   0  0  0  0  0  0  0  0  0  0  0  0
   60.5620   28.9290   49.5850 C   0  0  0  0  0  0  0  0  0  0  0  0
   59.2130   29.3090   48.9530 C   0  0  0  0  0  0  0  0  0  0  0  0
   58.6210   28.2110   48.0490 C   0  0  0  0  0  0  0  0  0  0  0  0
   58.5380   29.0670   44.5660 N   0  0  0  0  0  0  0  0  0  0  0  0
   58.2610   27.7890   43.8950 C   0  0  0  0  0  0  0  0  0  0  0  0
   57.7710   26.7390   44.8570 C   0  0  0  0  0  0  0  0  0  0  0  0
   58.4440   25.5050   44.9360 C   0  0  0  0  0  0  0  0  0  0  0  0
   57.9530   24.4770   45.7500 C   0  0  0  0  0  0  0  0  0  0  0  0
   56.7740   24.6610   46.4860 C   0  0  0  0  0  0  0  0  0  0  0  0
   56.2390   23.5680   47.3310 C   0  0  0  0  0  0  0  0  0  0  0  0
   56.9900   23.1570   48.4470 C   0  0  0  0  0  0  0  0  0  0  0  0
   56.4720   22.2180   49.3390 C   0  0  0  0  0  0  0  0  0  0  0  0
   55.2020   21.6900   49.1100 C   0  0  0  0  0  0  0  0  0  0  0  0
   54.4900   22.0700   48.0140 N   0  0  0  0  0  0  0  0  0  0  0  0
   54.9650   22.9730   47.1080 C   0  0  0  0  0  0  0  0  0  0  0  0
   54.1290   23.2610   45.9210 C   0  0  0  0  0  0  0  0  0  0  0  0
   52.9120   23.8490   45.9590 N   0  0  0  0  0  0  0  0  0  0  0  0
   52.6070   23.8860   44.6490 C   0  0  0  0  0  0  0  0  0  0  0  0
   51.5290   24.3640   44.2030 O   0  0  0  0  0  0  0  0  0  0  0  0
   53.5520   23.3840   43.9000 O   0  0  0  0  0  0  0  0  0  0  0  0
   54.5230   22.9790   44.6590 N   0  0  0  0  0  0  0  0  0  0  0  0
   56.1170   25.9010   46.4360 C   0  0  0  0  0  0  0  0  0  0  0  0
   56.5930   26.9240   45.6120 C   0  0  0  0  0  0  0  0  0  0  0  0
   55.8990   28.0910   45.5530 F   0  0  0  0  0  0  0  0  0  0  0  0
   58.1080   30.2770   44.1530 C   0  0  0  0  0  0  0  0  0  0  0  0
   57.3280   30.4400   43.1760 O   0  0  0  0  0  0  0  0  0  0  0  0
   58.6420   31.2980   44.8490 N   0  0  0  0  0  0  0  0  0  0  0  0
   58.5220   32.7130   44.4800 C   0  0  0  0  0  0  0  0  0  0  0  0
   57.1910   33.2790   44.8820 C   0  0  0  0  0  0  0  0  0  0  0  0
   56.2760   32.5040   45.2680 O   0  0  0  0  0  0  0  0  0  0  0  0
   56.9650   34.6530   44.8800 O   0  0  0  0  0  0  0  0  0  0  0  0
   59.7522   32.6103   49.7594 H   0  0  0  0  0  0  0  0  0  0  0  0
   61.1206   31.6650   49.0807 H   0  0  0  0  0  0  0  0  0  0  0  0
   61.1818   33.4603   49.0807 H   0  0  0  0  0  0  0  0  0  0  0  0
   60.1231   34.7542   47.8036 H   0  0  0  0  0  0  0  0  0  0  0  0
   60.9384   34.0460   46.3682 H   0  0  0  0  0  0  0  0  0  0  0  0
   59.1565   34.2726   46.3682 H   0  0  0  0  0  0  0  0  0  0  0  0
   58.1352   32.3267   48.8975 H   0  0  0  0  0  0  0  0  0  0  0  0
   57.7594   33.1753   47.3595 H   0  0  0  0  0  0  0  0  0  0  0  0
   58.0492   31.4026   47.3595 H   0  0  0  0  0  0  0  0  0  0  0  0
   61.1983   31.9139   46.0206 H   0  0  0  0  0  0  0  0  0  0  0  0
   60.8022   30.7003   47.3715 H   0  0  0  0  0  0  0  0  0  0  0  0
   60.7070   27.6438   45.3634 H   0  0  0  0  0  0  0  0  0  0  0  0
   61.1835   28.8580   46.6370 H   0  0  0  0  0  0  0  0  0  0  0  0
   59.2114   26.5954   46.7536 H   0  0  0  0  0  0  0  0  0  0  0  0
   60.5180   25.7162   48.3283 H   0  0  0  0  0  0  0  0  0  0  0  0
   61.7403   26.9688   47.7974 H   0  0  0  0  0  0  0  0  0  0  0  0
   59.9410   26.9665   50.2356 H   0  0  0  0  0  0  0  0  0  0  0  0
   61.7313   27.2014   50.1084 H   0  0  0  0  0  0  0  0  0  0  0  0
   60.6025   29.3329   50.6074 H   0  0  0  0  0  0  0  0  0  0  0  0
   61.3629   29.3516   48.9606 H   0  0  0  0  0  0  0  0  0  0  0  0
   58.4968   29.5164   49.7618 H   0  0  0  0  0  0  0  0  0  0  0  0
   59.3928   30.1874   48.3158 H   0  0  0  0  0  0  0  0  0  0  0  0
   58.0587   27.5037   48.6763 H   0  0  0  0  0  0  0  0  0  0  0  0
   57.9721   28.7030   47.3095 H   0  0  0  0  0  0  0  0  0  0  0  0
   57.4920   27.9517   43.1255 H   0  0  0  0  0  0  0  0  0  0  0  0
   59.2005   27.4291   43.4502 H   0  0  0  0  0  0  0  0  0  0  0  0
   59.3635   25.3471   44.3532 H   0  0  0  0  0  0  0  0  0  0  0  0
   58.4943   23.5214   45.8123 H   0  0  0  0  0  0  0  0  0  0  0  0
   57.9917   23.5785   48.6173 H   0  0  0  0  0  0  0  0  0  0  0  0
   57.0585   21.8978   50.2128 H   0  0  0  0  0  0  0  0  0  0  0  0
   54.7742   20.9642   49.8172 H   0  0  0  0  0  0  0  0  0  0  0  0
   55.2202   26.0683   47.0506 H   0  0  0  0  0  0  0  0  0  0  0  0
   59.3181   33.2816   44.9829 H   0  0  0  0  0  0  0  0  0  0  0  0
   58.6128   32.7919   43.3866 H   0  0  0  0  0  0  0  0  0  0  0  0
  1  2  1  0
  2  3  1  0
  2  4  1  0
  2  5  1  0
  5  6  1  0
  6  7  2  0
  7  8  1  0
  8  9  1  0
  9 10  1  0
 10 11  1  0
 11 12  1  0
 12 13  1  0
 13 14  1  0
  7 15  1  0
 15 16  1  0
 16 17  1  0
 17 18  2  0
 18 19  1  0
 19 20  2  0
 20 21  1  0
 21 22  2  0
 22 23  1  0
 23 24  2  0
 24 25  1  0
 25 26  2  0
 26 27  1  0
 27 28  2  0
 28 29  1  0
 29 30  2  0
 29 31  1  0
 31 32  1  0
 20 33  1  0
 33 34  2  0
 34 35  1  0
 15 36  1  0
 36 37  2  0
 36 38  1  0
 38 39  1  0
 39 40  1  0
 40 41  2  0
 40 42  1  0
 38  6  1  0
 14  9  1  0
 34 17  1  0
 26 21  1  0
 32 27  1  0
  1 43  1  0
  1 44  1  0
  1 45  1  0
  3 46  1  0
  3 47  1  0
  3 48  1  0
  4 49  1  0
  4 50  1  0
  4 51  1  0
  5 52  1  0
  5 53  1  0
  8 54  1  0
  8 55  1  0
  9 56  1  0
 10 57  1  0
 10 58  1  0
 11 59  1  0
 11 60  1  0
 12 61  1  0
 12 62  1  0
 13 63  1  0
 13 64  1  0
 14 65  1  0
 14 66  1  0
 16 67  1  0
 16 68  1  0
 18 69  1  0
 19 70  1  0
 22 71  1  0
 23 72  1  0
 24 73  1  0
 33 74  1  0
 39 75  1  0
 39 76  1  0
M  CHG  2  32  -1  42  -1
M  END
>  <UniqueID>  (9) 
7

>  <SMILES>  (9) 
CC(C)(C)Cc1c(CC2CCCCC2)n(Cc2ccc(-c3cccnc3-c3nc(=O)o[n-]3)cc2F)c(=O)n1CC(=O)[O-]

>  <Energy>  (9) 
162.84360842205385

>  <Genealogy>  (9) 
CC(C)(C)Cc1c(CC2CCCCC2)n(Cc2ccc(-c3cccnc3-c3nc(=O)o[n-]3)cc2F)c(=O)n1CC(=O)[O-] (protonated)
CC(C)(C)Cc1c(CC2CCCCC2)n(Cc2ccc(-c3cccnc3-c3nc(=O)o[n-]3)cc2F)c(=O)n1CC(=O)[O-] (3D coordinates assigned)
CC(C)(C)Cc1c(CC2CCCCC2)n(Cc2ccc(-c3cccnc3-c3nc(=O)o[n-]3)cc2F)c(=O)n1CC(=O)[O-] (nonaromatic ring conformer: 162.84360842205385 kcal/mol)

>  <smiles>  (9) 
CC(C)(C)Cc1c(CC2CCCCC2)n(Cc2ccc(-c3cccnc3-c3nc(=O)o[nH]3)cc2F)c(=O)n1CC(=O)O

>  <score_type>  (9) 
oracle

>  <origin>  (9) 
adg

>  <m_score__min__energy>  (9) 
-13.880000000000001

>  <m_primary>  (9) 
energy

$$$$
9:0
     RDKit          3D

 43 44  0  0  0  0  0  0  0  0999 V2000
   60.3380   28.1970   47.8000 C   0  0  0  0  0  0  0  0  0  0  0  0
   59.5660   27.1420   47.0090 C   0  0  0  0  0  0  0  0  0  0  0  0
   58.1100   27.0030   47.4790 C   0  0  0  0  0  0  0  0  0  0  0  0
   57.1410   26.9000   46.3210 C   0  0  0  0  0  0  0  0  0  0  0  0
   57.3790   27.6390   45.2150 C   0  0  0  0  0  0  0  0  0  0  0  0
   57.2890   29.1140   45.1470 C   0  0  0  0  0  0  0  0  0  0  0  0
   58.4160   29.9120   45.3820 C   0  0  0  0  0  0  0  0  0  0  0  0
   58.3270   31.3100   45.3270 C   0  0  0  0  0  0  0  0  0  0  0  0
   59.5440   32.1480   45.6480 C   0  0  0  0  0  0  0  0  0  0  0  0
   59.5460   32.5770   47.1010 C   0  0  0  0  0  0  0  0  0  0  0  0
   59.3110   31.6070   48.0920 C   0  0  0  0  0  0  0  0  0  0  0  0
   59.2510   31.9640   49.4400 C   0  0  0  0  0  0  0  0  0  0  0  0
   59.4210   33.2950   49.8180 C   0  0  0  0  0  0  0  0  0  0  0  0
   59.6530   34.2730   48.8500 C   0  0  0  0  0  0  0  0  0  0  0  0
   59.7220   33.9320   47.4880 C   0  0  0  0  0  0  0  0  0  0  0  0
   59.9430   35.0250   46.4750 C   0  0  0  0  0  0  0  0  0  0  0  0
   57.0980   31.8870   44.9510 C   0  0  0  0  0  0  0  0  0  0  0  0
   56.9790   33.1400   44.8640 O   0  0  0  0  0  0  0  0  0  0  0  0
   56.0260   31.0940   44.6770 N   0  0  0  0  0  0  0  0  0  0  0  0
   56.0920   29.7370   44.7640 C   0  0  0  0  0  0  0  0  0  0  0  0
   54.9640   28.9750   44.4800 O   0  0  0  0  0  0  0  0  0  0  0  0
   55.9940   25.9640   46.4420 C   0  0  0  0  0  0  0  0  0  0  0  0
   56.1270   24.8410   46.9980 O   0  0  0  0  0  0  0  0  0  0  0  0
   54.7350   26.3430   45.9890 O   0  0  0  0  0  0  0  0  0  0  0  0
   60.2062   28.0169   48.8771 H   0  0  0  0  0  0  0  0  0  0  0  0
   61.4066   28.1364   47.5462 H   0  0  0  0  0  0  0  0  0  0  0  0
   59.9570   29.1972   47.5462 H   0  0  0  0  0  0  0  0  0  0  0  0
   59.5681   27.4263   45.9464 H   0  0  0  0  0  0  0  0  0  0  0  0
   60.0629   26.1739   47.1696 H   0  0  0  0  0  0  0  0  0  0  0  0
   58.0222   26.0964   48.0957 H   0  0  0  0  0  0  0  0  0  0  0  0
   57.8538   27.9054   48.0535 H   0  0  0  0  0  0  0  0  0  0  0  0
   57.6608   27.1036   44.2963 H   0  0  0  0  0  0  0  0  0  0  0  0
   59.3810   29.4367   45.6121 H   0  0  0  0  0  0  0  0  0  0  0  0
   60.4497   31.5570   45.4471 H   0  0  0  0  0  0  0  0  0  0  0  0
   59.5218   33.0498   45.0186 H   0  0  0  0  0  0  0  0  0  0  0  0
   59.1729   30.5551   47.8014 H   0  0  0  0  0  0  0  0  0  0  0  0
   59.0694   31.1944   50.2047 H   0  0  0  0  0  0  0  0  0  0  0  0
   59.3722   33.5747   50.8807 H   0  0  0  0  0  0  0  0  0  0  0  0
   59.7832   35.3216   49.1559 H   0  0  0  0  0  0  0  0  0  0  0  0
   60.1350   35.9745   46.9961 H   0  0  0  0  0  0  0  0  0  0  0  0
   60.8080   34.7713   45.8446 H   0  0  0  0  0  0  0  0  0  0  0  0
   59.0474   35.1273   45.8446 H   0  0  0  0  0  0  0  0  0  0  0  0
   55.1210   31.5360   44.3950 H   0  0  0  0  0  0  0  0  0  0  0  0
  1  2  1  0
  2  3  1  0
  3  4  1  0
  4  5  2  3
  5  6  1  0
  6  7  1  0
  7  8  2  0
  8  9  1  0
  9 10  1  0
 10 11  2  0
 11 12  1  0
 12 13  2  0
 13 14  1  0
 14 15  2  0
 15 16  1  0
  8 17  1  0
 17 18  2  0
 17 19  1  0
 19 20  1  0
 20 21  1  0
  4 22  1  0
 22 23  2  0
 22 24  1  0
 20  6  2  0
 15 10  1  0
  1 25  1  0
  1 26  1  0
  1 27  1  0
  2 28  1  0
  2 29  1  0
  3 30  1  0
  3 31  1  0
  5 32  1  0
  7 33  1  0
  9 34  1  0
  9 35  1  0
 11 36  1  0
 12 37  1  0
 13 38  1  0
 14 39  1  0
 16 40  1  0
 16 41  1  0
 16 42  1  0
 19 43  1  0
M  CHG  2  21  -1  24  -1
M  END
>  <UniqueID>  (10) 
8

>  <SMILES>  (10) 
CCCC(=Cc1cc(Cc2ccccc2C)c(=O)[nH]c1[O-])C(=O)[O-]

>  <Energy>  (10) 
48.38272580330813

>  <Genealogy>  (10) 
CCCC(=Cc1cc(Cc2ccccc2C)c(=O)[nH]c1[O-])C(=O)[O-] (protonated)
CCCC(=Cc1cc(Cc2ccccc2C)c(=O)[nH]c1[O-])C(=O)[O-] (3D coordinates assigned)
CCCC(=Cc1cc(Cc2ccccc2C)c(=O)[nH]c1[O-])C(=O)[O-] (optimized conformer: 48.38272580330813 kcal/mol)

>  <smiles>  (10) 
CCCC(=Cc1cc(Cc2ccccc2C)c(=O)[nH]c1O)C(=O)O

>  <score_type>  (10) 
oracle

>  <origin>  (10) 
adg

>  <m_score__min__energy>  (10) 
-13.27

>  <m_primary>  (10) 
energy

$$$$
10:0
     RDKit          3D

 30 32  0  0  0  0  0  0  0  0999 V2000
   55.1420   27.4710   45.3860 H   0  0  0  0  0  0  0  0  0  0  0  0
   54.9770   26.6840   46.0010 O   0  0  0  0  0  0  0  0  0  0  0  0
   55.9560   25.7250   46.2480 C   0  0  0  0  0  0  0  0  0  0  0  0
   55.7680   24.6790   47.0690 N   0  0  0  0  0  0  0  0  0  0  0  0
   56.9480   24.0300   47.0060 C   0  0  0  0  0  0  0  0  0  0  0  0
   57.1770   22.9740   47.6500 O   0  0  0  0  0  0  0  0  0  0  0  0
   57.8670   24.6020   46.1980 N   0  0  0  0  0  0  0  0  0  0  0  0
   57.2290   25.6850   45.7160 C   0  0  0  0  0  0  0  0  0  0  0  0
   57.8220   26.6500   44.7720 C   0  0  0  0  0  0  0  0  0  0  0  0
   57.7066   26.4807   43.6913 H   0  0  0  0  0  0  0  0  0  0  0  0
   58.4960   27.7250   45.1930 C   0  0  0  0  0  0  0  0  0  0  0  0
   59.5738   27.7993   44.9861 H   0  0  0  0  0  0  0  0  0  0  0  0
   57.8140   28.8330   45.9420 C   0  0  0  0  0  0  0  0  0  0  0  0
   56.8345   28.4799   46.2968 H   0  0  0  0  0  0  0  0  0  0  0  0
   58.4451   29.1254   46.7942 H   0  0  0  0  0  0  0  0  0  0  0  0
   57.6160   30.0260   45.0560 C   0  0  0  0  0  0  0  0  0  0  0  0
   57.2170   30.0130   43.7220 C   0  0  0  0  0  0  0  0  0  0  0  0
   56.9453   29.1095   43.1565 H   0  0  0  0  0  0  0  0  0  0  0  0
   57.2110   31.2700   43.2200 N   0  0  0  0  0  0  0  0  0  0  0  0
   56.9580   31.5530   42.2470 H   0  0  0  0  0  0  0  0  0  0  0  0
   57.6120   32.0720   44.2220 C   0  0  0  0  0  0  0  0  0  0  0  0
   57.7810   33.4560   44.1810 C   0  0  0  0  0  0  0  0  0  0  0  0
   57.5674   34.0269   43.2653 H   0  0  0  0  0  0  0  0  0  0  0  0
   58.2330   34.0980   45.3470 C   0  0  0  0  0  0  0  0  0  0  0  0
   58.3753   35.1888   45.3500 H   0  0  0  0  0  0  0  0  0  0  0  0
   58.5060   33.3510   46.5160 C   0  0  0  0  0  0  0  0  0  0  0  0
   58.8590   33.8643   47.4226 H   0  0  0  0  0  0  0  0  0  0  0  0
   58.3290   31.9550   46.5270 C   0  0  0  0  0  0  0  0  0  0  0  0
   58.5429   31.3617   47.4283 H   0  0  0  0  0  0  0  0  0  0  0  0
   57.8730   31.3490   45.3560 C   0  0  0  0  0  0  0  0  0  0  0  0
  1  2  1  0
  2  3  1  0
  3  4  1  0
  4  5  1  0
  5  6  2  0
  5  7  1  0
  7  8  1  0
  8  9  1  0
  9 10  1  0
  9 11  2  0
 11 12  1  0
 11 13  1  0
 13 14  1  0
 13 15  1  0
 13 16  1  0
 16 17  2  0
 17 18  1  0
 17 19  1  0
 19 20  1  0
 19 21  1  0
 21 22  2  0
 22 23  1  0
 22 24  1  0
 24 25  1  0
 24 26  2  0
 26 27  1  0
 26 28  1  0
 28 29  1  0
 28 30  2  0
  8  3  2  0
 30 16  1  0
 30 21  1  0
M  CHG  2   4  -1   7  -1
M  END
>  <UniqueID>  (11) 
9

>  <SMILES>  (11) 
O=c1[n-]c(O)c(/C=C/Cc2c[nH]c3ccccc23)[n-]1

>  <Energy>  (11) 
90.32669475743933

>  <Genealogy>  (11) 
O=c1[n-]c(O)c(C=CCc2c[nH]c3ccccc23)[n-]1 (protonated)
O=c1[n-]c(O)c(/C=C/Cc2c[nH]c3ccccc23)[n-]1 (cis-trans isomerization)
O=c1[n-]c(O)c(/C=C/Cc2c[nH]c3ccccc23)[n-]1 (3D coordinates assigned)
O=c1[n-]c(O)c(/C=C/Cc2c[nH]c3ccccc23)[n-]1 (optimized conformer: 90.32669475743933 kcal/mol)

>  <smiles>  (11) 
O=c1[nH]c(O)c(C=CCc2c[nH]c3ccccc23)[nH]1

>  <score_type>  (11) 
oracle

>  <origin>  (11) 
adg

>  <m_score__min__energy>  (11) 
-11.470000000000001

>  <m_primary>  (11) 
energy

$$$$
11:0
     RDKit          3D

 42 44  0  0  0  0  0  0  0  0999 V2000
   63.7460   33.3450   47.4370 C   0  0  0  0  0  0  0  0  0  0  0  0
   62.3240   32.9570   47.1810 C   0  0  0  0  0  0  0  0  0  0  0  0
   61.8890   31.6570   47.4680 C   0  0  0  0  0  0  0  0  0  0  0  0
   60.5610   31.2910   47.2340 C   0  0  0  0  0  0  0  0  0  0  0  0
   59.6490   32.2180   46.7000 C   0  0  0  0  0  0  0  0  0  0  0  0
   58.2750   31.8650   46.4840 N   0  0  0  0  0  0  0  0  0  0  0  0
   57.6510   31.2630   44.9780 S   0  0  0  0  0  0  0  0  0  0  0  0
   56.2280   31.7220   44.8130 O   0  0  0  0  0  0  0  0  0  0  0  0
   58.4750   31.8180   43.8500 O   0  0  0  0  0  0  0  0  0  0  0  0
   57.6750   29.4920   45.0020 C   0  0  0  0  0  0  0  0  0  0  0  0
   56.4750   28.7820   45.1610 C   0  0  0  0  0  0  0  0  0  0  0  0
   55.2620   29.4580   45.2320 O   0  0  0  0  0  0  0  0  0  0  0  0
   56.4830   27.4550   45.2600 O   0  0  0  0  0  0  0  0  0  0  0  0
   57.5980   26.7310   45.2280 C   0  0  0  0  0  0  0  0  0  0  0  0
   57.5010   25.2620   45.3880 C   0  0  0  0  0  0  0  0  0  0  0  0
   57.5200   24.4350   44.2510 C   0  0  0  0  0  0  0  0  0  0  0  0
   57.3690   23.0500   44.3810 C   0  0  0  0  0  0  0  0  0  0  0  0
   57.1720   22.4810   45.6430 C   0  0  0  0  0  0  0  0  0  0  0  0
   57.1520   23.2940   46.7780 C   0  0  0  0  0  0  0  0  0  0  0  0
   57.3220   24.6770   46.6550 C   0  0  0  0  0  0  0  0  0  0  0  0
   58.8350   27.3690   45.0520 C   0  0  0  0  0  0  0  0  0  0  0  0
   58.8720   28.7580   44.9370 C   0  0  0  0  0  0  0  0  0  0  0  0
   59.9820   29.3360   44.7850 O   0  0  0  0  0  0  0  0  0  0  0  0
   60.0930   33.5160   46.3750 C   0  0  0  0  0  0  0  0  0  0  0  0
   59.1510   34.5200   45.7740 C   0  0  0  0  0  0  0  0  0  0  0  0
   61.4310   33.8730   46.6100 C   0  0  0  0  0  0  0  0  0  0  0  0
   63.9233   33.3934   48.5215 H   0  0  0  0  0  0  0  0  0  0  0  0
   64.4165   32.5970   46.9888 H   0  0  0  0  0  0  0  0  0  0  0  0
   63.9437   34.3299   46.9888 H   0  0  0  0  0  0  0  0  0  0  0  0
   62.5957   30.9212   47.8793 H   0  0  0  0  0  0  0  0  0  0  0  0
   60.2266   30.2698   47.4694 H   0  0  0  0  0  0  0  0  0  0  0  0
   55.2360   30.4710   45.2660 H   0  0  0  0  0  0  0  0  0  0  0  0
   57.6543   24.8793   43.2537 H   0  0  0  0  0  0  0  0  0  0  0  0
   57.4053   22.4076   43.4888 H   0  0  0  0  0  0  0  0  0  0  0  0
   57.0330   21.3943   45.7415 H   0  0  0  0  0  0  0  0  0  0  0  0
   57.0022   22.8458   47.7713 H   0  0  0  0  0  0  0  0  0  0  0  0
   57.3157   25.3108   47.5540 H   0  0  0  0  0  0  0  0  0  0  0  0
   59.7635   26.7811   45.0053 H   0  0  0  0  0  0  0  0  0  0  0  0
   58.6372   35.0677   46.5778 H   0  0  0  0  0  0  0  0  0  0  0  0
   59.7180   35.2283   45.1521 H   0  0  0  0  0  0  0  0  0  0  0  0
   58.4080   33.9992   45.1521 H   0  0  0  0  0  0  0  0  0  0  0  0
   61.7809   34.8812   46.3432 H   0  0  0  0  0  0  0  0  0  0  0  0
  1  2  1  0
  2  3  2  0
  3  4  1  0
  4  5  2  0
  5  6  1  0
  6  7  1  0
  7  8  2  0
  7  9  2  0
  7 10  1  0
 10 11  2  0
 11 12  1  0
 11 13  1  0
 13 14  1  0
 14 15  1  0
 15 16  2  0
 16 17  1  0
 17 18  2  0
 18 19  1  0
 19 20  2  0
 14 21  2  0
 21 22  1  0
 22 23  2  0
  5 24  1  0
 24 25  1  0
 24 26  2  0
 26  2  1  0
 22 10  1  0
 20 15  1  0
  1 27  1  0
  1 28  1  0
  1 29  1  0
  3 30  1  0
  4 31  1  0
 12 32  1  0
 16 33  1  0
 17 34  1  0
 18 35  1  0
 19 36  1  0
 20 37  1  0
 21 38  1  0
 25 39  1  0
 25 40  1  0
 25 41  1  0
 26 42  1  0
M  CHG  1   6  -1
M  END
>  <UniqueID>  (12) 
10

>  <SMILES>  (12) 
Cc1ccc([N-]S(=O)(=O)c2c(O)oc(-c3ccccc3)cc2=O)c(C)c1

>  <Energy>  (12) 
54.70848267112338

>  <Genealogy>  (12) 
Cc1ccc([N-]S(=O)(=O)c2c(O)oc(-c3ccccc3)cc2=O)c(C)c1 (protonated)
Cc1ccc([N-]S(=O)(=O)c2c(O)oc(-c3ccccc3)cc2=O)c(C)c1 (3D coordinates assigned)
Cc1ccc([N-]S(=O)(=O)c2c(O)oc(-c3ccccc3)cc2=O)c(C)c1 (optimized conformer: 54.70848267112338 kcal/mol)

>  <smiles>  (12) 
Cc1ccc(NS(=O)(=O)c2c(O)oc(-c3ccccc3)cc2=O)c(C)c1

>  <score_type>  (12) 
oracle

>  <origin>  (12) 
adg

>  <m_score__min__energy>  (12) 
-10.75

>  <m_primary>  (12) 
energy

$$$$
12:0
     RDKit          3D

 47 50  0  0  0  0  0  0  0  0999 V2000
   51.1500   32.3450   51.2920 N   0  0  0  0  0  0  0  0  0  0  0  0
   51.5130   30.9620   52.2600 S   0  0  0  0  0  0  0  0  0  0  0  0
   50.7640   31.0460   53.5590 O   0  0  0  0  0  0  0  0  0  0  0  0
   51.0830   29.7190   51.5340 O   0  0  0  0  0  0  0  0  0  0  0  0
   53.2450   30.9030   52.5740 C   0  0  0  0  0  0  0  0  0  0  0  0
   54.1550   31.2320   51.5620 C   0  0  0  0  0  0  0  0  0  0  0  0
   55.5300   31.1710   51.8030 C   0  0  0  0  0  0  0  0  0  0  0  0
   56.0140   30.7690   53.0580 C   0  0  0  0  0  0  0  0  0  0  0  0
   57.5000   30.7000   53.3170 C   0  0  0  0  0  0  0  0  0  0  0  0
   58.2670   31.1210   52.1210 N   0  0  0  0  0  0  0  0  0  0  0  0
   58.7140   32.4190   51.9840 C   0  0  0  0  0  0  0  0  0  0  0  0
   58.4020   33.5800   53.1030 S   0  0  0  0  0  0  0  0  0  0  0  0
   59.4360   32.7830   50.8940 N   0  0  0  0  0  0  0  0  0  0  0  0
   59.7470   31.9020   49.9160 C   0  0  0  0  0  0  0  0  0  0  0  0
   60.4880   32.3220   48.8080 C   0  0  0  0  0  0  0  0  0  0  0  0
   60.8130   31.4140   47.7970 C   0  0  0  0  0  0  0  0  0  0  0  0
   60.4170   30.0750   47.8910 C   0  0  0  0  0  0  0  0  0  0  0  0
   60.7590   29.1810   46.8220 N   0  0  0  0  0  0  0  0  0  0  0  0
   59.9930   28.9350   45.6340 C   0  0  0  0  0  0  0  0  0  0  0  0
   60.4360   29.2960   44.5100 O   0  0  0  0  0  0  0  0  0  0  0  0
   58.6560   28.3020   45.7320 C   0  0  0  0  0  0  0  0  0  0  0  0
   58.5010   27.0410   46.3390 C   0  0  0  0  0  0  0  0  0  0  0  0
   57.2390   26.4460   46.4300 C   0  0  0  0  0  0  0  0  0  0  0  0
   57.1040   25.2020   47.0350 O   0  0  0  0  0  0  0  0  0  0  0  0
   56.1150   27.1020   45.9160 C   0  0  0  0  0  0  0  0  0  0  0  0
   54.8600   26.5100   46.0070 O   0  0  0  0  0  0  0  0  0  0  0  0
   56.2570   28.3540   45.3080 C   0  0  0  0  0  0  0  0  0  0  0  0
   55.1450   29.0110   44.7940 O   0  0  0  0  0  0  0  0  0  0  0  0
   57.5180   28.9520   45.2170 C   0  0  0  0  0  0  0  0  0  0  0  0
   59.6470   29.6580   48.9940 C   0  0  0  0  0  0  0  0  0  0  0  0
   59.3170   30.5700   50.0160 C   0  0  0  0  0  0  0  0  0  0  0  0
   58.5640   30.1970   51.1420 C   0  0  0  0  0  0  0  0  0  0  0  0
   58.1650   29.0020   51.2500 O   0  0  0  0  0  0  0  0  0  0  0  0
   55.0980   30.4440   54.0730 C   0  0  0  0  0  0  0  0  0  0  0  0
   53.7220   30.5050   53.8300 C   0  0  0  0  0  0  0  0  0  0  0  0
   50.2140   32.1770   50.8610 H   0  0  0  0  0  0  0  0  0  0  0  0
   53.7857   31.5399   50.5726 H   0  0  0  0  0  0  0  0  0  0  0  0
   56.2374   31.4396   51.0046 H   0  0  0  0  0  0  0  0  0  0  0  0
   57.7501   31.3646   54.1571 H   0  0  0  0  0  0  0  0  0  0  0  0
   57.7664   29.6599   53.5563 H   0  0  0  0  0  0  0  0  0  0  0  0
   60.8159   33.3692   48.7317 H   0  0  0  0  0  0  0  0  0  0  0  0
   61.3843   31.7541   46.9207 H   0  0  0  0  0  0  0  0  0  0  0  0
   59.3803   26.5195   46.7451 H   0  0  0  0  0  0  0  0  0  0  0  0
   57.6216   29.9375   44.7395 H   0  0  0  0  0  0  0  0  0  0  0  0
   59.3017   28.6156   49.0579 H   0  0  0  0  0  0  0  0  0  0  0  0
   55.4653   30.1399   55.0643 H   0  0  0  0  0  0  0  0  0  0  0  0
   53.0121   30.2397   54.6273 H   0  0  0  0  0  0  0  0  0  0  0  0
  1  2  1  0
  2  3  2  0
  2  4  2  0
  2  5  1  0
  5  6  2  0
  6  7  1  0
  7  8  2  0
  8  9  1  0
  9 10  1  0
 10 11  1  0
 11 12  2  0
 11 13  1  0
 13 14  1  0
 14 15  2  0
 15 16  1  0
 16 17  2  0
 17 18  1  0
 18 19  1  0
 19 20  2  0
 19 21  1  0
 21 22  2  0
 22 23  1  0
 23 24  1  0
 23 25  2  0
 25 26  1  0
 25 27  1  0
 27 28  1  0
 27 29  2  0
 17 30  1  0
 30 31  2  0
 31 32  1  0
 32 33  2  0
  8 34  1  0
 34 35  2  0
 35  5  1  0
 32 10  1  0
 31 14  1  0
 29 21  1  0
  1 36  1  0
  6 37  1  0
  7 38  1  0
  9 39  1  0
  9 40  1  0
 15 41  1  0
 16 42  1  0
 22 43  1  0
 29 44  1  0
 30 45  1  0
 34 46  1  0
 35 47  1  0
M  CHG  6   1  -1  13  -1  18  -1  24  -1  26  -1  28  -1
M  END
>  <UniqueID>  (13) 
11

>  <SMILES>  (13) 
[NH-]S(=O)(=O)c1ccc(Cn2c(=S)[n-]c3ccc([N-]C(=O)c4cc([O-])c([O-])c([O-])c4)cc3c2=O)cc1

>  <Energy>  (13) 
67.08242491276766

>  <Genealogy>  (13) 
[NH-]S(=O)(=O)c1ccc(Cn2c(=S)[n-]c3ccc([N-]C(=O)c4cc([O-])c([O-])c([O-])c4)cc3c2=O)cc1 (protonated)
[NH-]S(=O)(=O)c1ccc(Cn2c(=S)[n-]c3ccc([N-]C(=O)c4cc([O-])c([O-])c([O-])c4)cc3c2=O)cc1 (3D coordinates assigned)
[NH-]S(=O)(=O)c1ccc(Cn2c(=S)[n-]c3ccc([N-]C(=O)c4cc([O-])c([O-])c([O-])c4)cc3c2=O)cc1 (optimized conformer: 67.08242491276766 kcal/mol)

>  <smiles>  (13) 
NS(=O)(=O)c1ccc(Cn2c(=S)[nH]c3ccc(NC(=O)c4cc(O)c(O)c(O)c4)cc3c2=O)cc1

>  <score_type>  (13) 
oracle

>  <origin>  (13) 
adg

>  <m_score__min__energy>  (13) 
-24.879999999999999

>  <m_primary>  (13) 
energy

$$$$
13:0
     RDKit          3D

 21 22  0  0  0  0  0  0  0  0999 V2000
   58.9010   26.6580   45.3140 O   0  0  0  0  0  0  0  0  0  0  0  0
   57.7350   26.7450   45.7800 C   0  0  0  0  0  0  0  0  0  0  0  0
   57.2110   28.0470   46.0830 N   0  0  0  0  0  0  0  0  0  0  0  0
   56.8200   28.9400   45.2220 C   0  0  0  0  0  0  0  0  0  0  0  0
   55.5410   29.1010   44.8160 N   0  0  0  0  0  0  0  0  0  0  0  0
   55.4340   30.0890   43.8880 C   0  0  0  0  0  0  0  0  0  0  0  0
   56.6320   30.7100   43.5460 C   0  0  0  0  0  0  0  0  0  0  0  0
   57.8660   29.9940   44.4410 S   0  0  0  0  0  0  0  0  0  0  0  0
   56.9900   25.5020   46.0860 C   0  0  0  0  0  0  0  0  0  0  0  0
   57.7010   24.3100   46.2930 C   0  0  0  0  0  0  0  0  0  0  0  0
   57.0210   23.1170   46.5330 C   0  0  0  0  0  0  0  0  0  0  0  0
   55.6260   23.1210   46.5600 C   0  0  0  0  0  0  0  0  0  0  0  0
   54.9950   22.0510   46.7680 O   0  0  0  0  0  0  0  0  0  0  0  0
   54.9460   24.2800   46.3610 N   0  0  0  0  0  0  0  0  0  0  0  0
   55.5770   25.4630   46.1330 C   0  0  0  0  0  0  0  0  0  0  0  0
   54.7990   26.6090   45.9740 O   0  0  0  0  0  0  0  0  0  0  0  0
   54.4713   30.3765   43.4403 H   0  0  0  0  0  0  0  0  0  0  0  0
   56.7518   31.5260   42.8182 H   0  0  0  0  0  0  0  0  0  0  0  0
   58.8006   24.3171   46.2657 H   0  0  0  0  0  0  0  0  0  0  0  0
   57.5779   22.1831   46.6992 H   0  0  0  0  0  0  0  0  0  0  0  0
   55.1520   27.4640   45.5630 H   0  0  0  0  0  0  0  0  0  0  0  0
  1  2  2  0
  2  3  1  0
  3  4  2  3
  4  5  1  0
  5  6  1  0
  6  7  2  0
  7  8  1  0
  2  9  1  0
  9 10  1  0
 10 11  2  0
 11 12  1  0
 12 13  2  0
 12 14  1  0
 14 15  1  0
 15 16  1  0
  8  4  1  0
 15  9  2  0
  6 17  1  0
  7 18  1  0
 10 19  1  0
 11 20  1  0
 16 21  1  0
M  CHG  2   5  -1  14  -1
M  END
>  <UniqueID>  (14) 
12

>  <SMILES>  (14) 
O=C(N=c1[n-]ccs1)c1ccc(=O)[n-]c1O

>  <Energy>  (14) 
62.379286434531515

>  <Genealogy>  (14) 
O=C(N=c1[n-]ccs1)c1ccc(=O)[n-]c1O (protonated)
O=C(N=c1[n-]ccs1)c1ccc(=O)[n-]c1O (3D coordinates assigned)
O=C(N=c1[n-]ccs1)c1ccc(=O)[n-]c1O (optimized conformer: 62.379286434531515 kcal/mol)

>  <smiles>  (14) 
O=C(N=c1[nH]ccs1)c1ccc(=O)[nH]c1O

>  <score_type>  (14) 
oracle

>  <origin>  (14) 
adg

>  <m_score__min__energy>  (14) 
-10.56

>  <m_primary>  (14) 
energy

$$$$
14:0
     RDKit          3D

 41 43  0  0  0  0  0  0  0  0999 V2000
   59.2450   35.5380   44.8460 O   0  0  0  0  0  0  0  0  0  0  0  0
   58.6320   34.5480   45.3250 C   0  0  0  0  0  0  0  0  0  0  0  0
   57.6670   33.8670   44.5090 N   0  0  0  0  0  0  0  0  0  0  0  0
   57.9540   32.7560   43.6030 C   0  0  0  0  0  0  0  0  0  0  0  0
   57.8100   31.4340   44.3130 C   0  0  0  0  0  0  0  0  0  0  0  0
   58.8220   30.9690   45.1650 C   0  0  0  0  0  0  0  0  0  0  0  0
   58.7160   29.7140   45.7700 C   0  0  0  0  0  0  0  0  0  0  0  0
   57.5910   28.9040   45.5400 C   0  0  0  0  0  0  0  0  0  0  0  0
   57.4760   27.5670   46.1680 C   0  0  0  0  0  0  0  0  0  0  0  0
   57.7520   27.4300   47.3930 O   0  0  0  0  0  0  0  0  0  0  0  0
   57.0050   26.4380   45.4140 N   0  0  0  0  0  0  0  0  0  0  0  0
   57.2240   25.0700   45.7990 C   0  0  0  0  0  0  0  0  0  0  0  0
   57.7620   24.1700   44.8700 C   0  0  0  0  0  0  0  0  0  0  0  0
   58.0000   22.8460   45.2470 C   0  0  0  0  0  0  0  0  0  0  0  0
   57.7270   22.4390   46.5150 N   0  0  0  0  0  0  0  0  0  0  0  0
   57.2220   23.2920   47.4440 C   0  0  0  0  0  0  0  0  0  0  0  0
   56.9940   22.8810   48.6130 O   0  0  0  0  0  0  0  0  0  0  0  0
   56.9660   24.6250   47.1070 C   0  0  0  0  0  0  0  0  0  0  0  0
   56.5620   29.3890   44.7120 C   0  0  0  0  0  0  0  0  0  0  0  0
   56.6720   30.6410   44.1020 C   0  0  0  0  0  0  0  0  0  0  0  0
   58.9620   34.0940   46.6880 C   0  0  0  0  0  0  0  0  0  0  0  0
   58.1440   33.1660   47.3500 C   0  0  0  0  0  0  0  0  0  0  0  0
   58.4860   32.7160   48.6300 C   0  0  0  0  0  0  0  0  0  0  0  0
   59.6420   33.1940   49.2560 C   0  0  0  0  0  0  0  0  0  0  0  0
   60.4510   34.1310   48.6070 C   0  0  0  0  0  0  0  0  0  0  0  0
   61.5710   34.5950   49.2120 F   0  0  0  0  0  0  0  0  0  0  0  0
   60.1090   34.5880   47.3290 C   0  0  0  0  0  0  0  0  0  0  0  0
   57.2511   32.7895   42.7576 H   0  0  0  0  0  0  0  0  0  0  0  0
   58.9895   32.8523   43.2447 H   0  0  0  0  0  0  0  0  0  0  0  0
   59.7048   31.5961   45.3583 H   0  0  0  0  0  0  0  0  0  0  0  0
   59.5193   29.3573   46.4314 H   0  0  0  0  0  0  0  0  0  0  0  0
   56.3720   26.6210   44.6010 H   0  0  0  0  0  0  0  0  0  0  0  0
   57.9960   24.5042   43.8485 H   0  0  0  0  0  0  0  0  0  0  0  0
   58.4088   22.1320   44.5169 H   0  0  0  0  0  0  0  0  0  0  0  0
   56.5658   25.3199   47.8599 H   0  0  0  0  0  0  0  0  0  0  0  0
   55.6634   28.7773   44.5436 H   0  0  0  0  0  0  0  0  0  0  0  0
   55.8625   31.0068   43.4532 H   0  0  0  0  0  0  0  0  0  0  0  0
   57.2321   32.7915   46.8618 H   0  0  0  0  0  0  0  0  0  0  0  0
   57.8449   31.9853   49.1448 H   0  0  0  0  0  0  0  0  0  0  0  0
   59.9143   32.8326   50.2586 H   0  0  0  0  0  0  0  0  0  0  0  0
   60.7401   35.3355   46.8261 H   0  0  0  0  0  0  0  0  0  0  0  0
  1  2  2  0
  2  3  1  0
  3  4  1  0
  4  5  1  0
  5  6  2  0
  6  7  1  0
  7  8  2  0
  8  9  1  0
  9 10  2  0
  9 11  1  0
 11 12  1  0
 12 13  1  0
 13 14  2  0
 14 15  1  0
 15 16  1  0
 16 17  2  0
 16 18  1  0
  8 19  1  0
 19 20  2  0
  2 21  1  0
 21 22  2  0
 22 23  1  0
 23 24  2  0
 24 25  1  0
 25 26  1  0
 25 27  2  0
 20  5  1  0
 27 21  1  0
 18 12  2  0
  4 28  1  0
  4 29  1  0
  6 30  1  0
  7 31  1  0
 11 32  1  0
 13 33  1  0
 14 34  1  0
 18 35  1  0
 19 36  1  0
 20 37  1  0
 22 38  1  0
 23 39  1  0
 24 40  1  0
 27 41  1  0
M  CHG  2   3  -1  15  -1
M  END
>  <UniqueID>  (15) 
13

>  <SMILES>  (15) 
O=C([N-]Cc1ccc(C(=O)Nc2cc[n-]c(=O)c2)cc1)c1cccc(F)c1

>  <Energy>  (15) 
52.40106314537189

>  <Genealogy>  (15) 
O=C([N-]Cc1ccc(C(=O)Nc2cc[n-]c(=O)c2)cc1)c1cccc(F)c1 (protonated)
O=C([N-]Cc1ccc(C(=O)Nc2cc[n-]c(=O)c2)cc1)c1cccc(F)c1 (3D coordinates assigned)
O=C([N-]Cc1ccc(C(=O)Nc2cc[n-]c(=O)c2)cc1)c1cccc(F)c1 (optimized conformer: 52.40106314537189 kcal/mol)

>  <smiles>  (15) 
O=C(NCc1ccc(C(=O)Nc2cc[nH]c(=O)c2)cc1)c1cccc(F)c1

>  <score_type>  (15) 
oracle

>  <origin>  (15) 
adg

>  <m_score__min__energy>  (15) 
-10.66

>  <m_primary>  (15) 
energy

$$$$
15:0
     RDKit          3D

 56 60  0  0  1  0  0  0  0  0999 V2000
   59.6810   35.9980   45.7000 O   0  0  0  0  0  0  0  0  0  0  0  0
   59.5780   34.8660   46.2190 C   0  0  0  0  0  0  0  0  0  0  0  0
   60.1630   34.5550   47.4870 N   0  0  0  0  0  0  0  0  0  0  0  0
   61.3630   34.0800   47.5950 C   0  0  0  0  0  0  0  0  0  0  0  0
   61.8830   33.8000   48.8600 C   0  0  0  0  0  0  0  0  0  0  0  0
   63.1740   33.3030   48.9240 C   0  0  0  0  0  0  0  0  0  0  0  0
   63.9150   33.0910   47.8200 N   0  0  0  0  0  0  0  0  0  0  0  0
   63.3990   33.3680   46.6000 C   0  0  0  0  0  0  0  0  0  0  0  0
   62.1300   33.8570   46.5130 N   0  0  0  0  0  0  0  0  0  0  0  0
   58.8330   33.8130   45.5120 C   0  0  0  0  0  0  0  0  0  0  0  0
   58.8300   33.7330   44.1220 C   0  0  0  0  0  0  0  0  0  0  0  0
   58.1310   32.7190   43.4550 C   0  0  0  0  0  0  0  0  0  0  0  0
   57.4350   31.7900   44.1970 C   0  0  0  0  0  0  0  0  0  0  0  0
   56.6840   30.6490   43.6170 C   0  0  0  0  0  0  0  0  0  0  0  0
   57.3700   29.4160   43.7860 N   0  0  0  0  0  0  0  0  0  0  0  0
   57.6500   28.8580   44.8810 C   0  0  0  0  0  0  0  0  0  0  0  0
   58.6700   29.2340   45.6880 N   0  0  0  0  0  0  0  0  0  0  0  0
   58.8520   28.5420   46.8270 C   0  0  0  0  0  0  0  0  0  0  0  0
   59.8460   28.8030   47.7860 N   0  0  0  0  0  0  0  0  0  0  0  0
   60.4100   27.8810   48.7270 C   0  0  0  0  0  0  0  0  0  0  0  0
   60.1990   28.4310   50.1190 C   0  0  0  0  0  0  0  0  0  0  0  0
   59.5980   29.7780   50.1550 C   0  0  0  0  0  0  0  0  0  0  0  0
   58.9480   30.1660   51.3210 C   0  0  0  0  0  0  0  0  0  0  0  0
   58.3740   31.4100   51.4170 C   0  0  0  0  0  0  0  0  0  0  0  0
   58.4260   32.3010   50.3650 C   0  0  0  0  0  0  0  0  0  0  0  0
   59.0730   31.9410   49.1770 C   0  0  0  0  0  0  0  0  0  0  0  0
   59.6320   30.6920   49.1230 C   0  0  0  0  0  0  0  0  0  0  0  0
   60.3450   30.1940   47.8730 C   0  0  0  0  0  0  0  0  0  0  0  0
   58.0220   27.4950   47.1450 N   0  0  0  0  0  0  0  0  0  0  0  0
   57.0140   27.1180   46.3550 C   0  0  0  0  0  0  0  0  0  0  0  0
   56.2660   26.1440   46.6830 O   0  0  0  0  0  0  0  0  0  0  0  0
   56.8340   27.8050   45.2210 N   0  0  0  0  0  0  0  0  0  0  0  0
   57.4390   31.8780   45.5990 C   0  0  0  0  0  0  0  0  0  0  0  0
   58.1220   32.8640   46.2350 C   0  0  0  0  0  0  0  0  0  0  0  0
   61.2899   33.9677   49.7711 H   0  0  0  0  0  0  0  0  0  0  0  0
   63.6080   33.0741   49.9085 H   0  0  0  0  0  0  0  0  0  0  0  0
   64.8910   32.7170   47.8680 H   0  0  0  0  0  0  0  0  0  0  0  0
   63.9957   33.2007   45.6911 H   0  0  0  0  0  0  0  0  0  0  0  0
   59.3868   34.4798   43.5370 H   0  0  0  0  0  0  0  0  0  0  0  0
   58.1376   32.6652   42.3563 H   0  0  0  0  0  0  0  0  0  0  0  0
   55.7043   30.5806   44.1126 H   0  0  0  0  0  0  0  0  0  0  0  0
   56.5736   30.8299   42.5376 H   0  0  0  0  0  0  0  0  0  0  0  0
   59.9124   26.9044   48.6341 H   0  0  0  0  0  0  0  0  0  0  0  0
   61.4845   27.7508   48.5309 H   0  0  0  0  0  0  0  0  0  0  0  0
   59.5360   27.7432   50.6643 H   0  0  0  0  0  0  0  0  0  0  0  0
   61.1950   28.5181   50.5776 H   0  0  0  0  0  0  0  0  0  0  0  0
   58.8930   29.4719   52.1726 H   0  0  0  0  0  0  0  0  0  0  0  0
   57.8646   31.7006   52.3476 H   0  0  0  0  0  0  0  0  0  0  0  0
   57.9598   33.2928   50.4596 H   0  0  0  0  0  0  0  0  0  0  0  0
   59.1300   32.6320   48.3231 H   0  0  0  0  0  0  0  0  0  0  0  0
   60.0597   30.7799   46.9868 H   0  0  0  0  0  0  0  0  0  0  0  0
   61.4410   30.2763   47.9178 H   0  0  0  0  0  0  0  0  0  0  0  0
   58.1540   26.9470   48.0300 H   0  0  0  0  0  0  0  0  0  0  0  0
   56.0490   27.5150   44.6060 H   0  0  0  0  0  0  0  0  0  0  0  0
   56.8806   31.1372   46.1901 H   0  0  0  0  0  0  0  0  0  0  0  0
   58.1122   32.9117   47.3339 H   0  0  0  0  0  0  0  0  0  0  0  0
  1  2  2  0
  2  3  1  0
  3  4  2  0
  4  5  1  0
  5  6  2  0
  6  7  1  0
  7  8  1  0
  8  9  2  0
  2 10  1  0
 10 11  2  0
 11 12  1  0
 12 13  2  0
 13 14  1  0
 14 15  1  0
 15 16  2  0
 16 17  1  0
 17 18  2  0
 18 19  1  0
 19 20  1  0
 20 21  1  0
 21 22  1  0
 22 23  2  0
 23 24  1  0
 24 25  2  0
 25 26  1  0
 26 27  2  0
 27 28  1  0
 18 29  1  0
 29 30  1  0
 30 31  2  0
 30 32  1  0
 13 33  1  0
 33 34  2  0
  9  4  1  0
 34 10  1  0
 32 16  1  0
 28 19  1  0
 27 22  1  0
  5 35  1  0
  6 36  1  0
  7 37  1  0
  8 38  1  0
 11 39  1  0
 12 40  1  0
 14 41  1  0
 14 42  1  0
 20 43  1  0
 20 44  1  0
 21 45  1  0
 21 46  1  0
 23 47  1  0
 24 48  1  0
 25 49  1  0
 26 50  1  0
 28 51  1  0
 28 52  1  0
 29 53  1  0
 32 54  1  0
 33 55  1  0
 34 56  1  0
M  END
>  <smiles>  (16) 
O=C(N=c1cc[nH]cn1)c1ccc(CN=c2nc(N3CCc4ccccc4C3)[nH]c(=O)[nH]2)cc1

>  <score_type>  (16) 
oracle

>  <origin>  (16) 
adg

>  <m_score__min__energy>  (16) 
-10.42

>  <m_primary>  (16) 
energy

$$$$
16:0
     RDKit          3D

 31 32  0  0  0  0  0  0  0  0999 V2000
   60.6058   35.5768   45.8815 H   0  0  0  0  0  0  0  0  0  0  0  0
   60.1750   34.6100   46.1810 C   0  0  0  0  0  0  0  0  0  0  0  0
   60.7590   33.8760   47.2140 C   0  0  0  0  0  0  0  0  0  0  0  0
   61.6479   34.2662   47.7312 H   0  0  0  0  0  0  0  0  0  0  0  0
   60.2150   32.6450   47.5920 C   0  0  0  0  0  0  0  0  0  0  0  0
   60.6835   32.0674   48.4025 H   0  0  0  0  0  0  0  0  0  0  0  0
   59.0760   32.1400   46.9460 C   0  0  0  0  0  0  0  0  0  0  0  0
   58.5410   30.8760   47.3580 N   0  0  0  0  0  0  0  0  0  0  0  0
   58.2870   30.1520   46.6480 H   0  0  0  0  0  0  0  0  0  0  0  0
   58.3840   30.6400   48.3620 H   0  0  0  0  0  0  0  0  0  0  0  0
   58.4770   32.8920   45.9110 C   0  0  0  0  0  0  0  0  0  0  0  0
   56.9910   32.3320   45.0590 S   0  0  0  0  0  0  0  0  0  0  0  0
   57.7330   30.7850   44.4280 C   0  0  0  0  0  0  0  0  0  0  0  0
   58.7721   30.7129   44.7816 H   0  0  0  0  0  0  0  0  0  0  0  0
   57.7033   30.8023   43.3285 H   0  0  0  0  0  0  0  0  0  0  0  0
   56.9670   29.5940   44.9100 C   0  0  0  0  0  0  0  0  0  0  0  0
   55.7090   29.6000   44.8510 O   0  0  0  0  0  0  0  0  0  0  0  0
   57.6850   28.4670   45.4360 N   0  0  0  0  0  0  0  0  0  0  0  0
   57.1800   27.3650   45.9090 C   0  0  0  0  0  0  0  0  0  0  0  0
   57.8430   26.3440   46.5720 C   0  0  0  0  0  0  0  0  0  0  0  0
   58.9039   26.2887   46.8574 H   0  0  0  0  0  0  0  0  0  0  0  0
   56.8430   25.4110   46.7870 C   0  0  0  0  0  0  0  0  0  0  0  0
   56.9930   24.0960   47.4740 C   0  0  0  0  0  0  0  0  0  0  0  0
   56.9757   24.2474   48.5634 H   0  0  0  0  0  0  0  0  0  0  0  0
   56.1646   23.4335   47.1827 H   0  0  0  0  0  0  0  0  0  0  0  0
   57.9493   23.6371   47.1827 H   0  0  0  0  0  0  0  0  0  0  0  0
   55.7120   25.8610   46.2920 O   0  0  0  0  0  0  0  0  0  0  0  0
   55.8870   27.0320   45.7550 N   0  0  0  0  0  0  0  0  0  0  0  0
   55.1430   27.5930   45.2850 H   0  0  0  0  0  0  0  0  0  0  0  0
   59.0430   34.1170   45.5270 C   0  0  0  0  0  0  0  0  0  0  0  0
   58.5925   34.6932   44.7054 H   0  0  0  0  0  0  0  0  0  0  0  0
  1  2  1  0
  2  3  2  0
  3  4  1  0
  3  5  1  0
  5  6  1  0
  5  7  2  0
  7  8  1  0
  8  9  1  0
  8 10  1  0
  7 11  1  0
 11 12  1  0
 12 13  1  0
 13 14  1  0
 13 15  1  0
 13 16  1  0
 16 17  2  0
 16 18  1  0
 18 19  2  0
 19 20  1  0
 20 21  1  0
 20 22  2  0
 22 23  1  0
 23 24  1  0
 23 25  1  0
 23 26  1  0
 22 27  1  0
 27 28  1  0
 28 29  1  0
 11 30  2  0
 30 31  1  0
 30  2  1  0
 28 19  1  0
M  END
>  <UniqueID>  (17) 
14

>  <SMILES>  (17) 
Cc1c/c(=N\C(=O)CSc2ccccc2N)[nH]o1

>  <Energy>  (17) 
59.927165102103686

>  <Genealogy>  (17) 
Cc1c/c(=N\C(=O)CSc2ccccc2N)[nH]o1 (cis-trans isomerization)
Cc1c/c(=N\C(=O)CSc2ccccc2N)[nH]o1 (3D coordinates assigned)
Cc1c/c(=N\C(=O)CSc2ccccc2N)[nH]o1 (optimized conformer: 59.927165102103686 kcal/mol)

>  <smiles>  (17) 
Cc1cc(=NC(=O)CSc2ccccc2N)[nH]o1

>  <score_type>  (17) 
oracle

>  <origin>  (17) 
adg

>  <m_score__min__energy>  (17) 
-7.8300000000000001

>  <m_primary>  (17) 
energy

$$$$
17:0
     RDKit          3D

 41 43  0  0  0  0  0  0  0  0999 V2000
   57.3970   32.6930   41.7140 O   0  0  0  0  0  0  0  0  0  0  0  0
   57.8790   32.3520   42.8280 C   0  0  0  0  0  0  0  0  0  0  0  0
   57.5320   31.0880   43.4060 N   0  0  0  0  0  0  0  0  0  0  0  0
   56.6060   30.1550   42.7680 C   0  0  0  0  0  0  0  0  0  0  0  0
   55.5170   29.7210   43.7520 C   0  0  0  0  0  0  0  0  0  0  0  0
   56.0130   29.7890   45.1210 N   0  0  0  0  0  0  0  0  0  0  0  0
   57.0600   28.9540   45.6320 C   0  0  0  0  0  0  0  0  0  0  0  0
   56.8980   27.7020   45.6520 O   0  0  0  0  0  0  0  0  0  0  0  0
   58.3340   29.5420   46.1260 C   0  0  0  0  0  0  0  0  0  0  0  0
   58.4210   30.0050   47.4490 C   0  0  0  0  0  0  0  0  0  0  0  0
   59.6140   30.5560   47.9220 C   0  0  0  0  0  0  0  0  0  0  0  0
   59.7340   31.0250   49.2390 C   0  0  0  0  0  0  0  0  0  0  0  0
   60.9460   31.5700   49.6760 C   0  0  0  0  0  0  0  0  0  0  0  0
   62.0360   31.6490   48.8040 C   0  0  0  0  0  0  0  0  0  0  0  0
   61.9210   31.1840   47.4910 C   0  0  0  0  0  0  0  0  0  0  0  0
   60.7120   30.6360   47.0450 C   0  0  0  0  0  0  0  0  0  0  0  0
   60.6040   30.1930   45.7980 O   0  0  0  0  0  0  0  0  0  0  0  0
   59.4860   29.6620   45.3110 C   0  0  0  0  0  0  0  0  0  0  0  0
   59.4760   29.2730   44.1140 O   0  0  0  0  0  0  0  0  0  0  0  0
   58.7940   33.1760   43.4950 O   0  0  0  0  0  0  0  0  0  0  0  0
   58.7550   33.4950   44.8610 C   0  0  0  0  0  0  0  0  0  0  0  0
   59.8490   34.1700   45.4200 C   0  0  0  0  0  0  0  0  0  0  0  0
   59.8590   34.5010   46.7790 C   0  0  0  0  0  0  0  0  0  0  0  0
   58.7800   34.1470   47.5930 C   0  0  0  0  0  0  0  0  0  0  0  0
   57.6930   33.4560   47.0510 C   0  0  0  0  0  0  0  0  0  0  0  0
   57.6790   33.1260   45.6910 C   0  0  0  0  0  0  0  0  0  0  0  0
   57.9110   30.8520   44.3500 H   0  0  0  0  0  0  0  0  0  0  0  0
   56.1368   30.6460   41.9027 H   0  0  0  0  0  0  0  0  0  0  0  0
   57.1658   29.2656   42.4429 H   0  0  0  0  0  0  0  0  0  0  0  0
   54.6479   30.3872   43.6478 H   0  0  0  0  0  0  0  0  0  0  0  0
   55.2269   28.6837   43.5286 H   0  0  0  0  0  0  0  0  0  0  0  0
   57.5478   29.9335   48.1141 H   0  0  0  0  0  0  0  0  0  0  0  0
   58.8772   30.9643   49.9261 H   0  0  0  0  0  0  0  0  0  0  0  0
   61.0417   31.9374   50.7084 H   0  0  0  0  0  0  0  0  0  0  0  0
   62.9869   32.0784   49.1524 H   0  0  0  0  0  0  0  0  0  0  0  0
   62.7806   31.2485   46.8077 H   0  0  0  0  0  0  0  0  0  0  0  0
   60.7056   34.4413   44.7855 H   0  0  0  0  0  0  0  0  0  0  0  0
   60.7168   35.0403   47.2071 H   0  0  0  0  0  0  0  0  0  0  0  0
   58.7862   34.4122   48.6605 H   0  0  0  0  0  0  0  0  0  0  0  0
   56.8473   33.1711   47.6941 H   0  0  0  0  0  0  0  0  0  0  0  0
   56.8246   32.5765   45.2690 H   0  0  0  0  0  0  0  0  0  0  0  0
  1  2  2  0
  2  3  1  0
  3  4  1  0
  4  5  1  0
  5  6  1  0
  6  7  1  0
  7  8  2  0
  7  9  1  0
  9 10  2  0
 10 11  1  0
 11 12  2  0
 12 13  1  0
 13 14  2  0
 14 15  1  0
 15 16  2  0
 16 17  1  0
 17 18  1  0
 18 19  2  0
  2 20  1  0
 20 21  1  0
 21 22  2  0
 22 23  1  0
 23 24  2  0
 24 25  1  0
 25 26  2  0
 18  9  1  0
 26 21  1  0
 16 11  1  0
  3 27  1  0
  4 28  1  0
  4 29  1  0
  5 30  1  0
  5 31  1  0
 10 32  1  0
 12 33  1  0
 13 34  1  0
 14 35  1  0
 15 36  1  0
 22 37  1  0
 23 38  1  0
 24 39  1  0
 25 40  1  0
 26 41  1  0
M  CHG  1   6  -1
M  END
>  <UniqueID>  (18) 
15

>  <SMILES>  (18) 
O=C(NCC[N-]C(=O)c1cc2ccccc2oc1=O)Oc1ccccc1

>  <Energy>  (18) 
48.72507405739946

>  <Genealogy>  (18) 
O=C(NCC[N-]C(=O)c1cc2ccccc2oc1=O)Oc1ccccc1 (protonated)
O=C(NCC[N-]C(=O)c1cc2ccccc2oc1=O)Oc1ccccc1 (3D coordinates assigned)
O=C(NCC[N-]C(=O)c1cc2ccccc2oc1=O)Oc1ccccc1 (optimized conformer: 48.72507405739946 kcal/mol)

>  <smiles>  (18) 
O=C(NCCNC(=O)c1cc2ccccc2oc1=O)Oc1ccccc1

>  <score_type>  (18) 
oracle

>  <origin>  (18) 
adg

>  <m_score__min__energy>  (18) 
-9.1300000000000008

>  <m_primary>  (18) 
energy

$$$$
18:0
     RDKit          3D

 32 34  0  0  0  0  0  0  0  0999 V2000
   54.4200   29.6550   45.5140 H   0  0  0  0  0  0  0  0  0  0  0  0
   61.2710   32.4730   49.8320 N   0  0  0  0  0  0  0  0  0  0  0  0
   62.0940   32.7510   48.8660 C   0  0  0  0  0  0  0  0  0  0  0  0
   63.0310   33.7160   48.9780 N   0  0  0  0  0  0  0  0  0  0  0  0
   57.5670   31.9850   44.6810 C   0  0  0  0  0  0  0  0  0  0  0  0
   58.2350   32.9180   45.6230 C   0  0  0  0  0  0  0  0  0  0  0  0
   58.9070   34.0670   45.1640 C   0  0  0  0  0  0  0  0  0  0  0  0
   58.9311   34.2925   44.0876 H   0  0  0  0  0  0  0  0  0  0  0  0
   59.5430   34.9220   46.0660 C   0  0  0  0  0  0  0  0  0  0  0  0
   60.0538   35.8243   45.6987 H   0  0  0  0  0  0  0  0  0  0  0  0
   59.5330   34.6360   47.4320 C   0  0  0  0  0  0  0  0  0  0  0  0
   60.0260   35.3205   48.1380 H   0  0  0  0  0  0  0  0  0  0  0  0
   58.8990   33.4830   47.9080 C   0  0  0  0  0  0  0  0  0  0  0  0
   58.9250   33.2130   49.3180 N   0  0  0  0  0  0  0  0  0  0  0  0
   60.0820   33.2060   50.1660 C   0  0  0  0  0  0  0  0  0  0  0  0
   60.0490   33.8500   51.2470 O   0  0  0  0  0  0  0  0  0  0  0  0
   55.1840   29.3470   44.8720 N   0  0  0  0  0  0  0  0  0  0  0  0
   56.0220   30.1910   44.3640 C   0  0  0  0  0  0  0  0  0  0  0  0
   56.6710   31.0780   45.1660 N   0  0  0  0  0  0  0  0  0  0  0  0
   63.7560   33.8490   47.8360 C   0  0  0  0  0  0  0  0  0  0  0  0
   64.5733   34.5787   47.7381 H   0  0  0  0  0  0  0  0  0  0  0  0
   63.3900   32.9960   46.8000 C   0  0  0  0  0  0  0  0  0  0  0  0
   63.8556   32.9529   45.8043 H   0  0  0  0  0  0  0  0  0  0  0  0
   62.1120   32.0420   47.3340 S   0  0  0  0  0  0  0  0  0  0  0  0
   58.2300   32.6410   47.0020 C   0  0  0  0  0  0  0  0  0  0  0  0
   57.6963   31.7550   47.3763 H   0  0  0  0  0  0  0  0  0  0  0  0
   57.8220   32.0180   43.2990 C   0  0  0  0  0  0  0  0  0  0  0  0
   58.5332   32.7475   42.8843 H   0  0  0  0  0  0  0  0  0  0  0  0
   57.1660   31.1180   42.4560 C   0  0  0  0  0  0  0  0  0  0  0  0
   57.3607   31.1363   41.3735 H   0  0  0  0  0  0  0  0  0  0  0  0
   56.2640   30.1960   42.9870 C   0  0  0  0  0  0  0  0  0  0  0  0
   55.7486   29.4805   42.3294 H   0  0  0  0  0  0  0  0  0  0  0  0
  1  2  1  0
  2  3  2  0
  3  4  1  0
  4  5  1  0
  5  6  1  0
  6  7  2  0
  7  8  1  0
  7  9  1  0
  9 10  1  0
  9 11  2  0
 11 12  1  0
 11 13  1  0
 13 14  1  0
 14 15  1  0
 15 16  2  0
 15 17  1  0
 17 18  2  0
 18 19  1  0
 19 20  1  0
 20 21  1  0
 20 22  2  0
 22 23  1  0
 22 24  1  0
 13 25  2  0
 25 26  1  0
  5 27  2  0
 27 28  1  0
 27 29  1  0
 29 30  1  0
 29 31  2  0
 31 32  1  0
 31  3  1  0
 25  6  1  0
 24 18  1  0
M  CHG  3   4  -1  14  -1  19  -1
M  END
>  <UniqueID>  (19) 
16

>  <SMILES>  (19) 
[H]/N=c1/cccc(-c2cccc([N-]C(=O)/N=c3/[n-]ccs3)c2)[n-]1

>  <Energy>  (19) 
77.99117715661619

>  <Genealogy>  (19) 
N=c1cccc(-c2cccc([N-]C(=O)N=c3[n-]ccs3)c2)[n-]1 (protonated)
[H]/N=c1/cccc(-c2cccc([N-]C(=O)/N=c3/[n-]ccs3)c2)[n-]1 (cis-trans isomerization)
[H]/N=c1/cccc(-c2cccc([N-]C(=O)/N=c3/[n-]ccs3)c2)[n-]1 (3D coordinates assigned)
[H]/N=c1/cccc(-c2cccc([N-]C(=O)/N=c3/[n-]ccs3)c2)[n-]1 (optimized conformer: 77.99117715661619 kcal/mol)

>  <smiles>  (19) 
N=c1cccc(-c2cccc(NC(=O)N=c3[nH]ccs3)c2)[nH]1

>  <score_type>  (19) 
oracle

>  <origin>  (19) 
adg

>  <m_score__min__energy>  (19) 
-11.82

>  <m_primary>  (19) 
energy

$$$$
19:0
     RDKit          3D

 51 53  0  0  0  0  0  0  0  0999 V2000
   54.0220   26.7070   46.3740 H   0  0  0  0  0  0  0  0  0  0  0  0
   54.1190   25.8850   45.7380 N   0  0  0  0  0  0  0  0  0  0  0  0
   55.3540   25.1790   45.6340 C   0  0  0  0  0  0  0  0  0  0  0  0
   55.3460   23.9890   45.2190 O   0  0  0  0  0  0  0  0  0  0  0  0
   56.6290   25.8330   46.0070 C   0  0  0  0  0  0  0  0  0  0  0  0
   57.8530   25.1540   45.8610 C   0  0  0  0  0  0  0  0  0  0  0  0
   57.8665   24.1351   45.4468 H   0  0  0  0  0  0  0  0  0  0  0  0
   59.0520   25.7660   46.2390 C   0  0  0  0  0  0  0  0  0  0  0  0
   60.0036   25.2283   46.1146 H   0  0  0  0  0  0  0  0  0  0  0  0
   59.0480   27.0620   46.7760 C   0  0  0  0  0  0  0  0  0  0  0  0
   60.2610   27.7100   47.1790 N   0  0  0  0  0  0  0  0  0  0  0  0
   60.4090   29.0940   47.5310 C   0  0  0  0  0  0  0  0  0  0  0  0
   59.9420   29.4910   48.6300 O   0  0  0  0  0  0  0  0  0  0  0  0
   61.1370   30.0800   46.6540 C   0  0  0  0  0  0  0  0  0  0  0  0
   61.8962   30.6004   47.2563 H   0  0  0  0  0  0  0  0  0  0  0  0
   61.6035   29.5248   45.8269 H   0  0  0  0  0  0  0  0  0  0  0  0
   60.2470   31.0460   46.0960 O   0  0  0  0  0  0  0  0  0  0  0  0
   59.1160   30.7660   45.3090 C   0  0  0  0  0  0  0  0  0  0  0  0
   58.9810   29.5400   44.6260 C   0  0  0  0  0  0  0  0  0  0  0  0
   59.7929   28.7990   44.6682 H   0  0  0  0  0  0  0  0  0  0  0  0
   57.8250   29.2600   43.8970 C   0  0  0  0  0  0  0  0  0  0  0  0
   57.7299   28.3008   43.3671 H   0  0  0  0  0  0  0  0  0  0  0  0
   56.7900   30.1920   43.8380 C   0  0  0  0  0  0  0  0  0  0  0  0
   55.8762   29.9638   43.2697 H   0  0  0  0  0  0  0  0  0  0  0  0
   56.9130   31.4150   44.5000 C   0  0  0  0  0  0  0  0  0  0  0  0
   56.0909   32.1444   44.4532 H   0  0  0  0  0  0  0  0  0  0  0  0
   58.0770   31.7240   45.2260 C   0  0  0  0  0  0  0  0  0  0  0  0
   58.1580   33.0330   45.9190 C   0  0  0  0  0  0  0  0  0  0  0  0
   58.4490   34.0610   45.2470 O   0  0  0  0  0  0  0  0  0  0  0  0
   57.8810   33.1630   47.3960 C   0  0  0  0  0  0  0  0  0  0  0  0
   57.0323   33.8478   47.5397 H   0  0  0  0  0  0  0  0  0  0  0  0
   57.6535   32.1613   47.7895 H   0  0  0  0  0  0  0  0  0  0  0  0
   59.0640   33.6960   48.1410 C   0  0  0  0  0  0  0  0  0  0  0  0
   59.1619   34.7775   48.3164 H   0  0  0  0  0  0  0  0  0  0  0  0
   59.9740   32.8830   48.5800 N   0  0  0  0  0  0  0  0  0  0  0  0
   61.3810   33.1090   48.4240 C   0  0  0  0  0  0  0  0  0  0  0  0
   62.2020   33.0010   49.5550 C   0  0  0  0  0  0  0  0  0  0  0  0
   61.7543   32.7765   50.5344 H   0  0  0  0  0  0  0  0  0  0  0  0
   63.5830   33.1760   49.4490 C   0  0  0  0  0  0  0  0  0  0  0  0
   64.2191   33.0838   50.3417 H   0  0  0  0  0  0  0  0  0  0  0  0
   64.1570   33.4680   48.2100 C   0  0  0  0  0  0  0  0  0  0  0  0
   65.2470   33.5885   48.1236 H   0  0  0  0  0  0  0  0  0  0  0  0
   63.3480   33.6070   47.0810 C   0  0  0  0  0  0  0  0  0  0  0  0
   63.8053   33.8380   46.1076 H   0  0  0  0  0  0  0  0  0  0  0  0
   61.9600   33.4550   47.1770 C   0  0  0  0  0  0  0  0  0  0  0  0
   61.1890   33.6850   46.0370 O   0  0  0  0  0  0  0  0  0  0  0  0
   60.3290   33.1880   45.8450 H   0  0  0  0  0  0  0  0  0  0  0  0
   57.8390   27.7550   46.8870 C   0  0  0  0  0  0  0  0  0  0  0  0
   57.8334   28.7864   47.2692 H   0  0  0  0  0  0  0  0  0  0  0  0
   56.6360   27.1450   46.5150 C   0  0  0  0  0  0  0  0  0  0  0  0
   55.6892   27.6950   46.6204 H   0  0  0  0  0  0  0  0  0  0  0  0
  1  2  1  0
  2  3  1  0
  3  4  2  0
  3  5  1  0
  5  6  2  0
  6  7  1  0
  6  8  1  0
  8  9  1  0
  8 10  2  0
 10 11  1  0
 11 12  1  0
 12 13  2  0
 12 14  1  0
 14 15  1  0
 14 16  1  0
 14 17  1  0
 17 18  1  0
 18 19  2  0
 19 20  1  0
 19 21  1  0
 21 22  1  0
 21 23  2  0
 23 24  1  0
 23 25  1  0
 25 26  1  0
 25 27  2  0
 27 28  1  0
 28 29  2  0
 28 30  1  0
 30 31  1  0
 30 32  1  0
 30 33  1  0
 33 34  1  0
 33 35  2  0
 35 36  1  0
 36 37  2  0
 37 38  1  0
 37 39  1  0
 39 40  1  0
 39 41  2  0
 41 42  1  0
 41 43  1  0
 43 44  1  0
 43 45  2  0
 45 46  1  0
 46 47  1  0
 10 48  1  0
 48 49  1  0
 48 50  2  0
 50 51  1  0
 50  5  1  0
 27 18  1  0
 45 36  1  0
M  CHG  2   2  -1  11  -1
M  END
>  <UniqueID>  (20) 
17

>  <SMILES>  (20) 
[NH-]C(=O)c1ccc([N-]C(=O)COc2ccccc2C(=O)C/C=N/c2ccccc2O)cc1

>  <Energy>  (20) 
63.04934377522905

>  <Genealogy>  (20) 
[NH-]C(=O)c1ccc([N-]C(=O)COc2ccccc2C(=O)CC=Nc2ccccc2O)cc1 (protonated)
[NH-]C(=O)c1ccc([N-]C(=O)COc2ccccc2C(=O)C/C=N/c2ccccc2O)cc1 (cis-trans isomerization)
[NH-]C(=O)c1ccc([N-]C(=O)COc2ccccc2C(=O)C/C=N/c2ccccc2O)cc1 (3D coordinates assigned)
[NH-]C(=O)c1ccc([N-]C(=O)COc2ccccc2C(=O)C/C=N/c2ccccc2O)cc1 (optimized conformer: 63.04934377522905 kcal/mol)

>  <smiles>  (20) 
NC(=O)c1ccc(NC(=O)COc2ccccc2C(=O)CC=Nc2ccccc2O)cc1

>  <score_type>  (20) 
oracle

>  <origin>  (20) 
adg

>  <m_score__min__energy>  (20) 
-12.869999999999999

>  <m_primary>  (20) 
energy

$$$$
20:0
     RDKit          3D

 36 37  0  0  0  0  0  0  0  0999 V2000
   55.5330   29.3430   44.6390 C   0  0  0  0  0  0  0  0  0  0  0  0
   56.6870   28.5730   45.2380 C   0  0  0  0  0  0  0  0  0  0  0  0
   58.0100   29.0680   45.1710 C   0  0  0  0  0  0  0  0  0  0  0  0
   58.3680   30.3890   44.5200 C   0  0  0  0  0  0  0  0  0  0  0  0
   58.6250   31.4100   45.5350 N   0  0  0  0  0  0  0  0  0  0  0  0
   58.3060   32.7930   45.3400 C   0  0  0  0  0  0  0  0  0  0  0  0
   57.7620   33.1730   44.2680 O   0  0  0  0  0  0  0  0  0  0  0  0
   58.5630   33.7260   46.3970 N   0  0  0  0  0  0  0  0  0  0  0  0
   59.7160   33.7550   47.2500 C   0  0  0  0  0  0  0  0  0  0  0  0
   59.6350   34.1300   48.6050 C   0  0  0  0  0  0  0  0  0  0  0  0
   60.7870   34.1660   49.3950 C   0  0  0  0  0  0  0  0  0  0  0  0
   62.0300   33.8420   48.8420 C   0  0  0  0  0  0  0  0  0  0  0  0
   63.1420   33.8820   49.6180 F   0  0  0  0  0  0  0  0  0  0  0  0
   62.1220   33.4920   47.4890 C   0  0  0  0  0  0  0  0  0  0  0  0
   63.6780   33.0980   46.7800 Cl  0  0  0  0  0  0  0  0  0  0  0  0
   60.9690   33.4560   46.6970 C   0  0  0  0  0  0  0  0  0  0  0  0
   59.0470   28.3080   45.7210 C   0  0  0  0  0  0  0  0  0  0  0  0
   58.7780   27.0870   46.3370 C   0  0  0  0  0  0  0  0  0  0  0  0
   59.7350   26.4400   46.8450 O   0  0  0  0  0  0  0  0  0  0  0  0
   57.4970   26.6020   46.3910 N   0  0  0  0  0  0  0  0  0  0  0  0
   57.2160   25.3270   47.0690 C   0  0  0  0  0  0  0  0  0  0  0  0
   56.4560   27.3340   45.8760 C   0  0  0  0  0  0  0  0  0  0  0  0
   55.1530   26.8490   45.9860 O   0  0  0  0  0  0  0  0  0  0  0  0
   54.9110   29.7580   45.4458 H   0  0  0  0  0  0  0  0  0  0  0  0
   55.9225   30.1629   44.0176 H   0  0  0  0  0  0  0  0  0  0  0  0
   54.9255   28.6687   44.0176 H   0  0  0  0  0  0  0  0  0  0  0  0
   59.2699   30.2560   43.9045 H   0  0  0  0  0  0  0  0  0  0  0  0
   57.5248   30.7158   43.8938 H   0  0  0  0  0  0  0  0  0  0  0  0
   59.0730   31.1220   46.4340 H   0  0  0  0  0  0  0  0  0  0  0  0
   58.6615   34.3955   49.0430 H   0  0  0  0  0  0  0  0  0  0  0  0
   60.7160   34.4501   50.4553 H   0  0  0  0  0  0  0  0  0  0  0  0
   61.0464   33.1910   45.6322 H   0  0  0  0  0  0  0  0  0  0  0  0
   60.0821   28.6763   45.6671 H   0  0  0  0  0  0  0  0  0  0  0  0
   57.2488   25.4760   48.1584 H   0  0  0  0  0  0  0  0  0  0  0  0
   56.2174   24.9691   46.7778 H   0  0  0  0  0  0  0  0  0  0  0  0
   57.9716   24.5825   46.7778 H   0  0  0  0  0  0  0  0  0  0  0  0
  1  2  1  0
  2  3  1  0
  3  4  1  0
  4  5  1  0
  5  6  1  0
  6  7  2  0
  6  8  1  0
  8  9  1  0
  9 10  2  0
 10 11  1  0
 11 12  2  0
 12 13  1  0
 12 14  1  0
 14 15  1  0
 14 16  2  0
  3 17  2  0
 17 18  1  0
 18 19  2  0
 18 20  1  0
 20 21  1  0
 20 22  1  0
 22 23  1  0
 22  2  2  0
 16  9  1  0
  1 24  1  0
  1 25  1  0
  1 26  1  0
  4 27  1  0
  4 28  1  0
  5 29  1  0
 10 30  1  0
 11 31  1  0
 16 32  1  0
 17 33  1  0
 21 34  1  0
 21 35  1  0
 21 36  1  0
M  CHG  2   8  -1  23  -1
M  END
>  <UniqueID>  (21) 
18

>  <SMILES>  (21) 
Cc1c(CNC(=O)[N-]c2ccc(F)c(Cl)c2)cc(=O)n(C)c1[O-]

>  <Energy>  (21) 
44.116662616957015

>  <Genealogy>  (21) 
Cc1c(CNC(=O)[N-]c2ccc(F)c(Cl)c2)cc(=O)n(C)c1[O-] (protonated)
Cc1c(CNC(=O)[N-]c2ccc(F)c(Cl)c2)cc(=O)n(C)c1[O-] (3D coordinates assigned)
Cc1c(CNC(=O)[N-]c2ccc(F)c(Cl)c2)cc(=O)n(C)c1[O-] (optimized conformer: 44.116662616957015 kcal/mol)

>  <smiles>  (21) 
Cc1c(CNC(=O)Nc2ccc(F)c(Cl)c2)cc(=O)n(C)c1O

>  <score_type>  (21) 
oracle

>  <origin>  (21) 
adg

>  <m_score__min__energy>  (21) 
-11.99

>  <m_primary>  (21) 
energy

$$$$
21:0
     RDKit          3D

 49 51  0  0  0  0  0  0  0  0999 V2000
   57.5450   29.0640   51.9230 O   0  0  0  0  0  0  0  0  0  0  0  0
   56.9720   30.1370   52.2600 C   0  0  0  0  0  0  0  0  0  0  0  0
   55.6590   30.0830   52.8410 N   0  0  0  0  0  0  0  0  0  0  0  0
   54.8820   28.8430   52.8460 C   0  0  0  0  0  0  0  0  0  0  0  0
   53.3960   29.1060   53.1110 C   0  0  0  0  0  0  0  0  0  0  0  0
   52.7280   30.3810   52.0430 S   0  0  0  0  0  0  0  0  0  0  0  0
   52.0000   29.7550   50.8870 O   0  0  0  0  0  0  0  0  0  0  0  0
   53.8670   31.1930   51.4920 O   0  0  0  0  0  0  0  0  0  0  0  0
   51.6490   31.4460   52.9500 C   0  0  0  0  0  0  0  0  0  0  0  0
   51.4790   31.2310   54.3260 C   0  0  0  0  0  0  0  0  0  0  0  0
   50.6180   32.0470   55.0670 C   0  0  0  0  0  0  0  0  0  0  0  0
   49.9180   33.0790   54.4390 C   0  0  0  0  0  0  0  0  0  0  0  0
   50.0670   33.2890   53.0650 C   0  0  0  0  0  0  0  0  0  0  0  0
   50.9280   32.4790   52.3180 C   0  0  0  0  0  0  0  0  0  0  0  0
   51.0440   32.6990   50.9500 O   0  0  0  0  0  0  0  0  0  0  0  0
   57.6690   31.4300   52.0580 C   0  0  0  0  0  0  0  0  0  0  0  0
   57.4560   32.5150   52.9280 C   0  0  0  0  0  0  0  0  0  0  0  0
   58.1130   33.7310   52.7170 C   0  0  0  0  0  0  0  0  0  0  0  0
   58.9780   33.8820   51.6330 C   0  0  0  0  0  0  0  0  0  0  0  0
   59.1870   32.8190   50.7470 C   0  0  0  0  0  0  0  0  0  0  0  0
   60.2490   33.0140   49.3570 S   0  0  0  0  0  0  0  0  0  0  0  0
   60.2550   31.7370   48.5670 O   0  0  0  0  0  0  0  0  0  0  0  0
   61.6530   33.3220   49.8000 O   0  0  0  0  0  0  0  0  0  0  0  0
   59.6780   34.3040   48.3480 N   0  0  0  0  0  0  0  0  0  0  0  0
   58.8810   34.1410   47.1660 C   0  0  0  0  0  0  0  0  0  0  0  0
   57.7500   33.3040   47.1380 C   0  0  0  0  0  0  0  0  0  0  0  0
   57.0120   33.1590   45.9600 C   0  0  0  0  0  0  0  0  0  0  0  0
   57.3870   33.8530   44.8070 C   0  0  0  0  0  0  0  0  0  0  0  0
   58.4980   34.6970   44.8310 C   0  0  0  0  0  0  0  0  0  0  0  0
   59.2430   34.8410   46.0070 C   0  0  0  0  0  0  0  0  0  0  0  0
   60.3230   35.6630   46.0160 F   0  0  0  0  0  0  0  0  0  0  0  0
   58.5360   31.5970   50.9620 C   0  0  0  0  0  0  0  0  0  0  0  0
   55.2750   30.9290   53.3200 H   0  0  0  0  0  0  0  0  0  0  0  0
   54.9881   28.3520   51.8674 H   0  0  0  0  0  0  0  0  0  0  0  0
   55.2657   28.2013   53.6529 H   0  0  0  0  0  0  0  0  0  0  0  0
   52.8365   28.1742   52.9417 H   0  0  0  0  0  0  0  0  0  0  0  0
   53.2963   29.4522   54.1503 H   0  0  0  0  0  0  0  0  0  0  0  0
   52.0255   30.4168   54.8244 H   0  0  0  0  0  0  0  0  0  0  0  0
   50.4922   31.8754   56.1462 H   0  0  0  0  0  0  0  0  0  0  0  0
   49.2495   33.7266   55.0252 H   0  0  0  0  0  0  0  0  0  0  0  0
   49.5049   34.0944   52.5696 H   0  0  0  0  0  0  0  0  0  0  0  0
   56.7683   32.4059   53.7795 H   0  0  0  0  0  0  0  0  0  0  0  0
   57.9474   34.5710   53.4077 H   0  0  0  0  0  0  0  0  0  0  0  0
   59.4970   34.8388   51.4743 H   0  0  0  0  0  0  0  0  0  0  0  0
   57.4459   32.7624   48.0458 H   0  0  0  0  0  0  0  0  0  0  0  0
   56.1338   32.4969   45.9407 H   0  0  0  0  0  0  0  0  0  0  0  0
   56.8065   33.7341   43.8802 H   0  0  0  0  0  0  0  0  0  0  0  0
   58.7884   35.2494   43.9252 H   0  0  0  0  0  0  0  0  0  0  0  0
   58.7041   30.7605   50.2678 H   0  0  0  0  0  0  0  0  0  0  0  0
  1  2  2  0
  2  3  1  0
  3  4  1  0
  4  5  1  0
  5  6  1  0
  6  7  2  0
  6  8  2  0
  6  9  1  0
  9 10  2  0
 10 11  1  0
 11 12  2  0
 12 13  1  0
 13 14  2  0
 14 15  1  0
  2 16  1  0
 16 17  2  0
 17 18  1  0
 18 19  2  0
 19 20  1  0
 20 21  1  0
 21 22  2  0
 21 23  2  0
 21 24  1  0
 24 25  1  0
 25 26  2  0
 26 27  1  0
 27 28  2  0
 28 29  1  0
 29 30  2  0
 30 31  1  0
 20 32  2  0
 14  9  1  0
 32 16  1  0
 30 25  1  0
  3 33  1  0
  4 34  1  0
  4 35  1  0
  5 36  1  0
  5 37  1  0
 10 38  1  0
 11 39  1  0
 12 40  1  0
 13 41  1  0
 17 42  1  0
 18 43  1  0
 19 44  1  0
 26 45  1  0
 27 46  1  0
 28 47  1  0
 29 48  1  0
 32 49  1  0
M  CHG  2  15  -1  24  -1
M  END
>  <UniqueID>  (22) 
19

>  <SMILES>  (22) 
O=C(NCCS(=O)(=O)c1ccccc1[O-])c1cccc(S(=O)(=O)[N-]c2ccccc2F)c1

>  <Energy>  (22) 
51.18721380565685

>  <Genealogy>  (22) 
O=C(NCCS(=O)(=O)c1ccccc1[O-])c1cccc(S(=O)(=O)[N-]c2ccccc2F)c1 (protonated)
O=C(NCCS(=O)(=O)c1ccccc1[O-])c1cccc(S(=O)(=O)[N-]c2ccccc2F)c1 (3D coordinates assigned)
O=C(NCCS(=O)(=O)c1ccccc1[O-])c1cccc(S(=O)(=O)[N-]c2ccccc2F)c1 (optimized conformer: 51.18721380565685 kcal/mol)

>  <smiles>  (22) 
O=C(NCCS(=O)(=O)c1ccccc1O)c1cccc(S(=O)(=O)Nc2ccccc2F)c1

>  <score_type>  (22) 
oracle

>  <origin>  (22) 
adg

>  <m_score__min__energy>  (22) 
-14.949999999999999

>  <m_primary>  (22) 
energy

$$$$
22:0
     RDKit          3D

 55 57  0  0  0  0  0  0  0  0999 V2000
   61.9930   31.7760   47.1500 C   0  0  0  0  0  0  0  0  0  0  0  0
   61.1370   30.9550   47.9550 O   0  0  0  0  0  0  0  0  0  0  0  0
   60.6250   29.6950   47.5830 C   0  0  0  0  0  0  0  0  0  0  0  0
   60.3580   29.3660   46.2320 C   0  0  0  0  0  0  0  0  0  0  0  0
   59.7870   28.1360   45.8990 C   0  0  0  0  0  0  0  0  0  0  0  0
   59.5030   27.2060   46.8990 C   0  0  0  0  0  0  0  0  0  0  0  0
   59.7950   27.4970   48.2320 C   0  0  0  0  0  0  0  0  0  0  0  0
   60.3440   28.7490   48.5940 C   0  0  0  0  0  0  0  0  0  0  0  0
   60.5700   29.0750   50.0710 C   0  0  0  0  0  0  0  0  0  0  0  0
   60.3560   30.5090   50.4570 N   0  0  1  0  0  0  0  0  0  0  0  0
   58.9700   30.6980   50.9110 C   0  0  0  0  0  0  0  0  0  0  0  0
   58.0900   29.9220   50.5240 O   0  0  0  0  0  0  0  0  0  0  0  0
   58.5700   31.8410   51.8380 C   0  0  0  0  0  0  0  0  0  0  0  0
   58.8810   33.2140   51.2110 C   0  0  0  0  0  0  0  0  0  0  0  0
   60.2700   33.2820   50.7380 N   0  0  0  0  0  0  0  0  0  0  0  0
   60.5580   33.8390   49.4470 C   0  0  0  0  0  0  0  0  0  0  0  0
   61.5870   34.5420   49.2940 O   0  0  0  0  0  0  0  0  0  0  0  0
   59.6400   33.6540   48.3150 C   0  0  0  0  0  0  0  0  0  0  0  0
   58.6750   32.6620   48.1840 C   0  0  0  0  0  0  0  0  0  0  0  0
   57.9200   32.7600   47.0100 C   0  0  0  0  0  0  0  0  0  0  0  0
   58.2640   33.8490   46.2370 C   0  0  0  0  0  0  0  0  0  0  0  0
   57.6980   34.1700   44.8960 C   0  0  0  0  0  0  0  0  0  0  0  0
   59.5360   34.6620   46.9870 S   0  0  0  0  0  0  0  0  0  0  0  0
   61.3480   32.6440   51.4950 C   0  0  0  0  0  0  0  0  0  0  0  0
   61.3950   31.0790   51.4000 C   0  0  2  0  0  0  0  0  0  0  0  0
   62.8920   30.6980   51.0620 C   0  0  2  0  0  0  0  0  0  0  0  0
   63.9430   31.4940   51.8520 C   0  0  0  0  0  0  0  0  0  0  0  0
   63.1430   30.7940   49.6820 O   0  0  0  0  0  0  0  0  0  0  0  0
   62.6323   32.3891   47.8022 H   0  0  0  0  0  0  0  0  0  0  0  0
   62.6235   31.1362   46.5150 H   0  0  0  0  0  0  0  0  0  0  0  0
   61.3801   32.4326   46.5150 H   0  0  0  0  0  0  0  0  0  0  0  0
   60.6027   30.0861   45.4373 H   0  0  0  0  0  0  0  0  0  0  0  0
   59.5612   27.9006   44.8485 H   0  0  0  0  0  0  0  0  0  0  0  0
   59.0473   26.2400   46.6359 H   0  0  0  0  0  0  0  0  0  0  0  0
   59.5961   26.7447   49.0095 H   0  0  0  0  0  0  0  0  0  0  0  0
   59.8787   28.4579   50.6637 H   0  0  0  0  0  0  0  0  0  0  0  0
   61.6318   28.8652   50.2671 H   0  0  0  0  0  0  0  0  0  0  0  0
   60.4360   31.0730   49.5760 H   0  0  0  0  0  0  0  0  0  0  0  0
   57.4905   31.7765   52.0392 H   0  0  0  0  0  0  0  0  0  0  0  0
   59.1489   31.7483   52.7688 H   0  0  0  0  0  0  0  0  0  0  0  0
   58.2041   33.3811   50.3602 H   0  0  0  0  0  0  0  0  0  0  0  0
   58.7376   33.9875   51.9799 H   0  0  0  0  0  0  0  0  0  0  0  0
   58.5193   31.8727   48.9342 H   0  0  0  0  0  0  0  0  0  0  0  0
   57.1336   32.0427   46.7324 H   0  0  0  0  0  0  0  0  0  0  0  0
   56.7472   34.7093   45.0189 H   0  0  0  0  0  0  0  0  0  0  0  0
   58.4076   34.8001   44.3397 H   0  0  0  0  0  0  0  0  0  0  0  0
   57.5215   33.2376   44.3397 H   0  0  0  0  0  0  0  0  0  0  0  0
   62.3051   33.0366   51.1210 H   0  0  0  0  0  0  0  0  0  0  0  0
   61.1596   32.8802   52.5527 H   0  0  0  0  0  0  0  0  0  0  0  0
   61.1113   30.6111   52.3542 H   0  0  0  0  0  0  0  0  0  0  0  0
   62.9988   29.6514   51.3832 H   0  0  0  0  0  0  0  0  0  0  0  0
   63.7688   31.3621   52.9301 H   0  0  0  0  0  0  0  0  0  0  0  0
   64.9485   31.1288   51.5957 H   0  0  0  0  0  0  0  0  0  0  0  0
   63.8639   32.5608   51.5957 H   0  0  0  0  0  0  0  0  0  0  0  0
   62.6610   31.6020   49.3420 H   0  0  0  0  0  0  0  0  0  0  0  0
  1  2  1  0
  2  3  1  0
  3  4  2  0
  4  5  1  0
  5  6  2  0
  6  7  1  0
  7  8  2  0
  8  9  1  0
  9 10  1  0
 10 11  1  0
 11 12  2  0
 11 13  1  0
 13 14  1  0
 14 15  1  0
 15 16  1  0
 16 17  2  0
 16 18  1  0
 18 19  2  0
 19 20  1  0
 20 21  2  0
 21 22  1  0
 21 23  1  0
 15 24  1  0
 24 25  1  0
 25 26  1  0
 26 27  1  0
 26 28  1  0
  8  3  1  0
 25 10  1  0
 23 18  1  0
  1 29  1  0
  1 30  1  0
  1 31  1  0
  4 32  1  0
  5 33  1  0
  6 34  1  0
  7 35  1  0
  9 36  1  0
  9 37  1  0
 10 38  1  6
 13 39  1  0
 13 40  1  0
 14 41  1  0
 14 42  1  0
 19 43  1  0
 20 44  1  0
 22 45  1  0
 22 46  1  0
 22 47  1  0
 24 48  1  0
 24 49  1  0
 25 50  1  1
 26 51  1  1
 27 52  1  0
 27 53  1  0
 27 54  1  0
 28 55  1  0
M  CHG  1  10   1
M  END
>  <UniqueID>  (23) 
20

>  <SMILES>  (23) 
COc1ccccc1C[N@H+]1C(=O)CCN(C(=O)c2ccc(C)s2)C[C@@H]1C(C)O

>  <Energy>  (23) 
111.85876747781047

>  <Genealogy>  (23) 
COc1ccccc1C[NH+]1C(=O)CCN(C(=O)c2ccc(C)s2)CC1C(C)O (protonated)
COc1ccccc1C[N@H+]1C(=O)CCN(C(=O)c2ccc(C)s2)C[C@@H]1C(C)O (chirality)
COc1ccccc1C[N@H+]1C(=O)CCN(C(=O)c2ccc(C)s2)C[C@@H]1C(C)O (3D coordinates assigned)
COc1ccccc1C[N@H+]1C(=O)CCN(C(=O)c2ccc(C)s2)C[C@@H]1C(C)O (nonaromatic ring conformer: 111.85876747781047 kcal/mol)

>  <smiles>  (23) 
COc1ccccc1CN1C(=O)CCN(C(=O)c2ccc(C)s2)CC1C(C)O

>  <score_type>  (23) 
oracle

>  <origin>  (23) 
adg

>  <m_score__min__energy>  (23) 
-3.6699999999999999

>  <m_primary>  (23) 
energy

$$$$
23:0
     RDKit          3D

 60 63  0  0  0  0  0  0  0  0999 V2000
   67.2130   30.0820   51.7110 C   0  0  0  0  0  0  0  0  0  0  0  0
   66.4490   31.1560   51.9020 C   0  0  0  0  0  0  0  0  0  0  0  0
   65.4390   31.6290   50.9270 C   0  0  0  0  0  0  0  0  0  0  0  0
   65.7990   32.6420   50.0210 C   0  0  0  0  0  0  0  0  0  0  0  0
   64.8900   33.0940   49.0620 C   0  0  0  0  0  0  0  0  0  0  0  0
   63.5940   32.5670   49.0140 C   0  0  0  0  0  0  0  0  0  0  0  0
   62.4960   33.0350   47.7170 S   0  0  0  0  0  0  0  0  0  0  0  0
   63.2900   33.5320   46.5400 O   0  0  0  0  0  0  0  0  0  0  0  0
   61.5780   34.1330   48.1790 O   0  0  0  0  0  0  0  0  0  0  0  0
   61.5850   31.6390   47.2440 N   0  0  0  0  0  0  0  0  0  0  0  0
   60.8000   30.9170   48.1990 C   0  0  0  0  0  0  0  0  0  0  0  0
   61.1420   29.6060   48.5530 C   0  0  0  0  0  0  0  0  0  0  0  0
   60.2810   28.8280   49.3460 C   0  0  0  0  0  0  0  0  0  0  0  0
   60.5890   27.4010   49.5880 C   0  0  0  0  0  0  0  0  0  0  0  0
   61.2620   27.0660   50.6000 O   0  0  0  0  0  0  0  0  0  0  0  0
   60.1920   26.4060   48.6340 N   0  0  0  0  0  0  0  0  0  0  0  0
   60.7190   26.3690   47.2730 C   0  0  0  0  0  0  0  0  0  0  0  0
   59.9110   27.2860   46.3920 C   0  0  0  0  0  0  0  0  0  0  0  0
   60.5410   28.3030   45.6590 C   0  0  0  0  0  0  0  0  0  0  0  0
   59.7830   29.1980   44.9020 C   0  0  0  0  0  0  0  0  0  0  0  0
   58.3900   29.0900   44.8730 C   0  0  0  0  0  0  0  0  0  0  0  0
   57.7390   28.0810   45.6030 C   0  0  0  0  0  0  0  0  0  0  0  0
   56.2630   27.9690   45.5630 C   0  0  0  0  0  0  0  0  0  0  0  0
   55.6890   26.9280   45.9790 O   0  0  0  0  0  0  0  0  0  0  0  0
   55.4900   29.0140   45.0680 O   0  0  0  0  0  0  0  0  0  0  0  0
   58.5100   27.1860   46.3690 C   0  0  0  0  0  0  0  0  0  0  0  0
   59.0930   29.4010   49.8270 C   0  0  0  0  0  0  0  0  0  0  0  0
   58.7680   30.7240   49.5060 C   0  0  0  0  0  0  0  0  0  0  0  0
   59.6080   31.4790   48.6750 C   0  0  0  0  0  0  0  0  0  0  0  0
   59.2550   32.7790   48.2980 O   0  0  0  0  0  0  0  0  0  0  0  0
   58.6800   33.1060   47.0610 C   0  0  0  0  0  0  0  0  0  0  0  0
   58.9470   34.3200   46.3940 C   0  0  0  0  0  0  0  0  0  0  0  0
   58.3310   34.6030   45.1710 C   0  0  0  0  0  0  0  0  0  0  0  0
   57.4290   33.6920   44.6130 C   0  0  0  0  0  0  0  0  0  0  0  0
   57.1520   32.4890   45.2690 C   0  0  0  0  0  0  0  0  0  0  0  0
   56.2580   31.5840   44.6970 O   0  0  0  0  0  0  0  0  0  0  0  0
   57.7760   32.1990   46.4910 C   0  0  0  0  0  0  0  0  0  0  0  0
   63.2140   31.5840   49.9410 C   0  0  0  0  0  0  0  0  0  0  0  0
   64.1270   31.1180   50.8910 C   0  0  0  0  0  0  0  0  0  0  0  0
   67.9449   29.7846   52.4764 H   0  0  0  0  0  0  0  0  0  0  0  0
   67.1121   29.4924   50.7879 H   0  0  0  0  0  0  0  0  0  0  0  0
   66.5750   31.7235   52.8358 H   0  0  0  0  0  0  0  0  0  0  0  0
   66.8058   33.0826   50.0679 H   0  0  0  0  0  0  0  0  0  0  0  0
   65.1937   33.8675   48.3412 H   0  0  0  0  0  0  0  0  0  0  0  0
   62.0953   29.1803   48.2065 H   0  0  0  0  0  0  0  0  0  0  0  0
   61.7688   26.6976   47.2780 H   0  0  0  0  0  0  0  0  0  0  0  0
   60.6562   25.3415   46.8852 H   0  0  0  0  0  0  0  0  0  0  0  0
   61.6369   28.3955   45.6809 H   0  0  0  0  0  0  0  0  0  0  0  0
   60.2837   29.9906   44.3266 H   0  0  0  0  0  0  0  0  0  0  0  0
   57.7993   29.7994   44.2749 H   0  0  0  0  0  0  0  0  0  0  0  0
   58.0104   26.4007   46.9552 H   0  0  0  0  0  0  0  0  0  0  0  0
   58.4151   28.8080   50.4585 H   0  0  0  0  0  0  0  0  0  0  0  0
   57.8483   31.1741   49.9079 H   0  0  0  0  0  0  0  0  0  0  0  0
   59.6428   35.0472   46.8379 H   0  0  0  0  0  0  0  0  0  0  0  0
   58.5564   35.5437   44.6472 H   0  0  0  0  0  0  0  0  0  0  0  0
   56.9367   33.9222   43.6566 H   0  0  0  0  0  0  0  0  0  0  0  0
   55.8760   30.8120   45.2290 H   0  0  0  0  0  0  0  0  0  0  0  0
   57.5544   31.2526   47.0061 H   0  0  0  0  0  0  0  0  0  0  0  0
   62.1918   31.1781   49.9197 H   0  0  0  0  0  0  0  0  0  0  0  0
   63.8194   30.3483   51.6142 H   0  0  0  0  0  0  0  0  0  0  0  0
  1  2  2  0
  2  3  1  0
  3  4  2  0
  4  5  1  0
  5  6  2  0
  6  7  1  0
  7  8  2  0
  7  9  2  0
  7 10  1  0
 10 11  1  0
 11 12  2  0
 12 13  1  0
 13 14  1  0
 14 15  2  0
 14 16  1  0
 16 17  1  0
 17 18  1  0
 18 19  2  0
 19 20  1  0
 20 21  2  0
 21 22  1  0
 22 23  1  0
 23 24  2  0
 23 25  1  0
 22 26  2  0
 13 27  2  0
 27 28  1  0
 28 29  2  0
 29 30  1  0
 30 31  1  0
 31 32  2  0
 32 33  1  0
 33 34  2  0
 34 35  1  0
 35 36  1  0
 35 37  2  0
  6 38  1  0
 38 39  2  0
 39  3  1  0
 29 11  1  0
 37 31  1  0
 26 18  1  0
  1 40  1  0
  1 41  1  0
  2 42  1  0
  4 43  1  0
  5 44  1  0
 12 45  1  0
 17 46  1  0
 17 47  1  0
 19 48  1  0
 20 49  1  0
 21 50  1  0
 26 51  1  0
 27 52  1  0
 28 53  1  0
 32 54  1  0
 33 55  1  0
 34 56  1  0
 36 57  1  0
 37 58  1  0
 38 59  1  0
 39 60  1  0
M  CHG  3  10  -1  16  -1  25  -1
M  END
>  <UniqueID>  (24) 
21

>  <SMILES>  (24) 
C=Cc1ccc(S(=O)(=O)[N-]c2cc(C(=O)[N-]Cc3cccc(C(=O)[O-])c3)ccc2Oc2cccc(O)c2)cc1

>  <Energy>  (24) 
75.75235245547579

>  <Genealogy>  (24) 
C=Cc1ccc(S(=O)(=O)[N-]c2cc(C(=O)[N-]Cc3cccc(C(=O)[O-])c3)ccc2Oc2cccc(O)c2)cc1 (protonated)
C=Cc1ccc(S(=O)(=O)[N-]c2cc(C(=O)[N-]Cc3cccc(C(=O)[O-])c3)ccc2Oc2cccc(O)c2)cc1 (3D coordinates assigned)
C=Cc1ccc(S(=O)(=O)[N-]c2cc(C(=O)[N-]Cc3cccc(C(=O)[O-])c3)ccc2Oc2cccc(O)c2)cc1 (optimized conformer: 75.75235245547579 kcal/mol)

>  <smiles>  (24) 
C=Cc1ccc(S(=O)(=O)Nc2cc(C(=O)NCc3cccc(C(=O)O)c3)ccc2Oc2cccc(O)c2)cc1

>  <score_type>  (24) 
oracle

>  <origin>  (24) 
adg

>  <m_score__min__energy>  (24) 
-17.550000000000001

>  <m_primary>  (24) 
energy

$$$$
24:0
     RDKit          3D

 45 47  0  0  0  0  0  0  0  0999 V2000
   60.7560   26.3520   46.4260 C   0  0  0  0  0  0  0  0  0  0  0  0
   59.5120   26.8350   46.9210 O   0  0  0  0  0  0  0  0  0  0  0  0
   58.8120   27.9280   46.3840 C   0  0  0  0  0  0  0  0  0  0  0  0
   57.7900   27.7650   45.4290 C   0  0  0  0  0  0  0  0  0  0  0  0
   57.1160   28.8780   44.9170 C   0  0  0  0  0  0  0  0  0  0  0  0
   57.4650   30.1740   45.3370 C   0  0  0  0  0  0  0  0  0  0  0  0
   56.7870   31.3410   44.8510 N   0  0  0  0  0  0  0  0  0  0  0  0
   57.3960   32.5270   44.3230 C   0  0  0  0  0  0  0  0  0  0  0  0
   57.9620   32.5190   43.1960 O   0  0  0  0  0  0  0  0  0  0  0  0
   57.4550   33.7610   45.1690 C   0  0  0  0  0  0  0  0  0  0  0  0
   58.6300   33.7100   46.0530 N   0  0  0  0  0  0  0  0  0  0  0  0
   59.8640   33.9680   45.5290 C   0  0  0  0  0  0  0  0  0  0  0  0
   60.9980   33.9010   46.3370 C   0  0  0  0  0  0  0  0  0  0  0  0
   60.8840   33.5700   47.6560 N   0  0  0  0  0  0  0  0  0  0  0  0
   62.0740   33.5140   48.4690 C   0  0  0  0  0  0  0  0  0  0  0  0
   62.1470   34.2410   49.6680 C   0  0  0  0  0  0  0  0  0  0  0  0
   63.2990   34.1860   50.4590 C   0  0  0  0  0  0  0  0  0  0  0  0
   64.3860   33.3890   50.0700 C   0  0  0  0  0  0  0  0  0  0  0  0
   65.6380   33.3600   50.8970 C   0  0  0  0  0  0  0  0  0  0  0  0
   64.3180   32.6700   48.8670 C   0  0  0  0  0  0  0  0  0  0  0  0
   63.1670   32.7260   48.0760 C   0  0  0  0  0  0  0  0  0  0  0  0
   59.6520   33.2850   48.1850 C   0  0  0  0  0  0  0  0  0  0  0  0
   59.5350   32.9440   49.3950 O   0  0  0  0  0  0  0  0  0  0  0  0
   58.5100   33.3540   47.3720 C   0  0  0  0  0  0  0  0  0  0  0  0
   57.3780   33.0820   47.8650 O   0  0  0  0  0  0  0  0  0  0  0  0
   58.4650   30.3330   46.3020 C   0  0  0  0  0  0  0  0  0  0  0  0
   59.1410   29.2210   46.8180 C   0  0  0  0  0  0  0  0  0  0  0  0
   60.4020   29.4650   48.0180 Cl  0  0  0  0  0  0  0  0  0  0  0  0
   61.4127   26.0970   47.2708 H   0  0  0  0  0  0  0  0  0  0  0  0
   60.5833   25.4556   45.8123 H   0  0  0  0  0  0  0  0  0  0  0  0
   61.2334   27.1301   45.8123 H   0  0  0  0  0  0  0  0  0  0  0  0
   57.5203   26.7560   45.0837 H   0  0  0  0  0  0  0  0  0  0  0  0
   56.3091   28.7393   44.1824 H   0  0  0  0  0  0  0  0  0  0  0  0
   57.5266   34.6453   44.5187 H   0  0  0  0  0  0  0  0  0  0  0  0
   56.5441   33.8217   45.7827 H   0  0  0  0  0  0  0  0  0  0  0  0
   59.9638   34.2297   44.4653 H   0  0  0  0  0  0  0  0  0  0  0  0
   61.9886   34.1158   45.9097 H   0  0  0  0  0  0  0  0  0  0  0  0
   61.2934   34.8572   49.9869 H   0  0  0  0  0  0  0  0  0  0  0  0
   63.3530   34.7699   51.3897 H   0  0  0  0  0  0  0  0  0  0  0  0
   65.3725   33.3661   51.9645 H   0  0  0  0  0  0  0  0  0  0  0  0
   66.2088   32.4484   50.6663 H   0  0  0  0  0  0  0  0  0  0  0  0
   66.2504   34.2442   50.6663 H   0  0  0  0  0  0  0  0  0  0  0  0
   65.1745   32.0595   48.5449 H   0  0  0  0  0  0  0  0  0  0  0  0
   63.1175   32.1494   47.1405 H   0  0  0  0  0  0  0  0  0  0  0  0
   58.7226   31.3411   46.6587 H   0  0  0  0  0  0  0  0  0  0  0  0
  1  2  1  0
  2  3  1  0
  3  4  2  0
  4  5  1  0
  5  6  2  0
  6  7  1  0
  7  8  1  0
  8  9  2  0
  8 10  1  0
 10 11  1  0
 11 12  1  0
 12 13  2  0
 13 14  1  0
 14 15  1  0
 15 16  2  0
 16 17  1  0
 17 18  2  0
 18 19  1  0
 18 20  1  0
 20 21  2  0
 14 22  1  0
 22 23  2  0
 22 24  1  0
 24 25  2  0
  6 26  1  0
 26 27  2  0
 27 28  1  0
 27  3  1  0
 24 11  1  0
 21 15  1  0
  1 29  1  0
  1 30  1  0
  1 31  1  0
  4 32  1  0
  5 33  1  0
 10 34  1  0
 10 35  1  0
 12 36  1  0
 13 37  1  0
 16 38  1  0
 17 39  1  0
 19 40  1  0
 19 41  1  0
 19 42  1  0
 20 43  1  0
 21 44  1  0
 26 45  1  0
M  CHG  1   7  -1
M  END
>  <UniqueID>  (25) 
22

>  <SMILES>  (25) 
COc1ccc([N-]C(=O)Cn2ccn(-c3ccc(C)cc3)c(=O)c2=O)cc1Cl

>  <Energy>  (25) 
60.300472580712345

>  <Genealogy>  (25) 
COc1ccc([N-]C(=O)Cn2ccn(-c3ccc(C)cc3)c(=O)c2=O)cc1Cl (protonated)
COc1ccc([N-]C(=O)Cn2ccn(-c3ccc(C)cc3)c(=O)c2=O)cc1Cl (3D coordinates assigned)
COc1ccc([N-]C(=O)Cn2ccn(-c3ccc(C)cc3)c(=O)c2=O)cc1Cl (optimized conformer: 60.300472580712345 kcal/mol)

>  <smiles>  (25) 
COc1ccc(NC(=O)Cn2ccn(-c3ccc(C)cc3)c(=O)c2=O)cc1Cl

>  <score_type>  (25) 
oracle

>  <origin>  (25) 
adg

>  <m_score__min__energy>  (25) 
-10.07

>  <m_primary>  (25) 
energy

$$$$
25:0
     RDKit          3D

 35 37  0  0  0  0  0  0  0  0999 V2000
   56.0282   28.8128   43.8264 H   0  0  0  0  0  0  0  0  0  0  0  0
   56.6760   29.3390   44.5430 C   0  0  0  0  0  0  0  0  0  0  0  0
   56.4630   30.6090   44.7430 N   0  0  0  0  0  0  0  0  0  0  0  0
   57.3670   31.6320   44.4040 N   0  0  0  0  0  0  0  0  0  0  0  0
   57.7230   31.9890   43.1500 C   0  0  0  0  0  0  0  0  0  0  0  0
   57.4038   31.4451   42.2487 H   0  0  0  0  0  0  0  0  0  0  0  0
   58.5170   33.0910   43.1210 N   0  0  0  0  0  0  0  0  0  0  0  0
   58.6200   33.4300   44.4220 C   0  0  0  0  0  0  0  0  0  0  0  0
   59.2910   34.5250   44.9640 C   0  0  0  0  0  0  0  0  0  0  0  0
   59.8663   35.2123   44.3264 H   0  0  0  0  0  0  0  0  0  0  0  0
   59.2070   34.7210   46.3560 C   0  0  0  0  0  0  0  0  0  0  0  0
   59.7345   35.5667   46.8213 H   0  0  0  0  0  0  0  0  0  0  0  0
   58.4490   33.8380   47.1600 C   0  0  0  0  0  0  0  0  0  0  0  0
   58.3839   34.0065   48.2451 H   0  0  0  0  0  0  0  0  0  0  0  0
   57.7780   32.7460   46.5810 C   0  0  0  0  0  0  0  0  0  0  0  0
   57.1707   32.0612   47.1912 H   0  0  0  0  0  0  0  0  0  0  0  0
   57.9110   32.5630   45.2030 C   0  0  0  0  0  0  0  0  0  0  0  0
   57.7370   28.5620   45.2220 C   0  0  0  0  0  0  0  0  0  0  0  0
   59.0990   28.8070   44.9760 C   0  0  0  0  0  0  0  0  0  0  0  0
   59.3956   29.5993   44.2729 H   0  0  0  0  0  0  0  0  0  0  0  0
   60.0770   28.0470   45.6220 C   0  0  0  0  0  0  0  0  0  0  0  0
   61.1417   28.2483   45.4326 H   0  0  0  0  0  0  0  0  0  0  0  0
   59.7070   27.0320   46.5080 C   0  0  0  0  0  0  0  0  0  0  0  0
   60.4812   26.4377   47.0153 H   0  0  0  0  0  0  0  0  0  0  0  0
   58.3480   26.7680   46.7530 C   0  0  0  0  0  0  0  0  0  0  0  0
   57.9270   25.7460   47.6190 O   0  0  0  0  0  0  0  0  0  0  0  0
   57.0640   24.6990   47.2750 C   0  0  0  0  0  0  0  0  0  0  0  0
   57.3870   23.4970   47.4910 O   0  0  0  0  0  0  0  0  0  0  0  0
   55.8120   25.0070   46.7400 O   0  0  0  0  0  0  0  0  0  0  0  0
   55.3770   24.5220   45.4750 C   0  0  0  0  0  0  0  0  0  0  0  0
   54.6493   23.7107   45.6239 H   0  0  0  0  0  0  0  0  0  0  0  0
   54.9041   25.3399   44.9116 H   0  0  0  0  0  0  0  0  0  0  0  0
   56.2413   24.1405   44.9116 H   0  0  0  0  0  0  0  0  0  0  0  0
   57.3720   27.5190   46.0860 C   0  0  0  0  0  0  0  0  0  0  0  0
   56.3077   27.2884   46.2413 H   0  0  0  0  0  0  0  0  0  0  0  0
  1  2  1  0
  2  3  2  0
  3  4  1  0
  4  5  1  0
  5  6  1  0
  5  7  2  0
  7  8  1  0
  8  9  2  0
  9 10  1  0
  9 11  1  0
 11 12  1  0
 11 13  2  0
 13 14  1  0
 13 15  1  0
 15 16  1  0
 15 17  2  0
  2 18  1  0
 18 19  2  0
 19 20  1  0
 19 21  1  0
 21 22  1  0
 21 23  2  0
 23 24  1  0
 23 25  1  0
 25 26  1  0
 26 27  1  0
 27 28  2  0
 27 29  1  0
 29 30  1  0
 30 31  1  0
 30 32  1  0
 30 33  1  0
 25 34  2  0
 34 35  1  0
 17  4  1  0
 34 18  1  0
 17  8  1  0
M  END
>  <UniqueID>  (26) 
23

>  <SMILES>  (26) 
COC(=O)Oc1cccc(/C=N\n2cnc3ccccc32)c1

>  <Energy>  (26) 
89.13293339400548

>  <Genealogy>  (26) 
COC(=O)Oc1cccc(/C=N\n2cnc3ccccc32)c1 (cis-trans isomerization)
COC(=O)Oc1cccc(/C=N\n2cnc3ccccc32)c1 (3D coordinates assigned)
COC(=O)Oc1cccc(/C=N\n2cnc3ccccc32)c1 (optimized conformer: 89.13293339400548 kcal/mol)

>  <smiles>  (26) 
COC(=O)Oc1cccc(C=Nn2cnc3ccccc32)c1

>  <score_type>  (26) 
oracle

>  <origin>  (26) 
adg

>  <m_score__min__energy>  (26) 
-7.46

>  <m_primary>  (26) 
energy

$$$$
26:0
     RDKit          3D

 52 55  0  0  0  0  0  0  0  0999 V2000
   59.6150   26.1530   48.8290 H   0  0  0  0  0  0  0  0  0  0  0  0
   60.3470   26.5430   49.4120 O   0  0  0  0  0  0  0  0  0  0  0  0
   60.7040   27.8790   49.3090 C   0  0  0  0  0  0  0  0  0  0  0  0
   61.1850   28.5220   50.4010 N   0  0  0  0  0  0  0  0  0  0  0  0
   61.5880   29.8160   50.3450 C   0  0  0  0  0  0  0  0  0  0  0  0
   62.0330   30.3700   51.3890 O   0  0  0  0  0  0  0  0  0  0  0  0
   61.5220   30.5090   49.1650 N   0  0  0  0  0  0  0  0  0  0  0  0
   61.9290   31.8920   49.1200 C   0  0  0  0  0  0  0  0  0  0  0  0
   61.2000   32.8630   49.8220 C   0  0  0  0  0  0  0  0  0  0  0  0
   60.3247   32.5669   50.4189 H   0  0  0  0  0  0  0  0  0  0  0  0
   61.5830   34.2060   49.7650 C   0  0  0  0  0  0  0  0  0  0  0  0
   61.0079   34.9652   50.3154 H   0  0  0  0  0  0  0  0  0  0  0  0
   62.6980   34.5860   49.0080 C   0  0  0  0  0  0  0  0  0  0  0  0
   62.9967   35.6437   48.9624 H   0  0  0  0  0  0  0  0  0  0  0  0
   63.4320   33.6220   48.3100 C   0  0  0  0  0  0  0  0  0  0  0  0
   64.3099   33.9209   47.7185 H   0  0  0  0  0  0  0  0  0  0  0  0
   63.0500   32.2780   48.3640 C   0  0  0  0  0  0  0  0  0  0  0  0
   63.6278   31.5208   47.8137 H   0  0  0  0  0  0  0  0  0  0  0  0
   61.0390   29.8960   48.0370 C   0  0  0  0  0  0  0  0  0  0  0  0
   60.9700   30.5350   46.9500 O   0  0  0  0  0  0  0  0  0  0  0  0
   60.5950   28.5640   48.0860 C   0  0  0  0  0  0  0  0  0  0  0  0
   60.0940   27.8960   46.8610 C   0  0  0  0  0  0  0  0  0  0  0  0
   60.7091   27.1126   46.3942 H   0  0  0  0  0  0  0  0  0  0  0  0
   58.9190   28.2130   46.3030 C   0  0  0  0  0  0  0  0  0  0  0  0
   58.8167   29.1975   45.8231 H   0  0  0  0  0  0  0  0  0  0  0  0
   57.7510   27.3040   46.3000 C   0  0  0  0  0  0  0  0  0  0  0  0
   57.5890   26.1040   46.9820 C   0  0  0  0  0  0  0  0  0  0  0  0
   58.5440   25.4960   47.7840 O   0  0  0  0  0  0  0  0  0  0  0  0
   56.3530   25.5960   46.8120 N   0  0  0  0  0  0  0  0  0  0  0  0
   55.7190   26.4860   46.0240 C   0  0  0  0  0  0  0  0  0  0  0  0
   54.3960   26.3400   45.6230 O   0  0  0  0  0  0  0  0  0  0  0  0
   56.5350   27.5480   45.6850 C   0  0  0  0  0  0  0  0  0  0  0  0
   56.1400   28.7500   44.8740 C   0  0  0  0  0  0  0  0  0  0  0  0
   55.2928   28.4838   44.2249 H   0  0  0  0  0  0  0  0  0  0  0  0
   55.8574   29.5605   45.5619 H   0  0  0  0  0  0  0  0  0  0  0  0
   57.3070   29.2310   44.0040 C   0  0  0  0  0  0  0  0  0  0  0  0
   58.2525   28.9066   44.4631 H   0  0  0  0  0  0  0  0  0  0  0  0
   57.1904   28.7976   42.9997 H   0  0  0  0  0  0  0  0  0  0  0  0
   57.3160   30.7330   43.8730 C   0  0  0  0  0  0  0  0  0  0  0  0
   57.6040   31.1643   42.9029 H   0  0  0  0  0  0  0  0  0  0  0  0
   57.0040   31.5520   44.8370 N   0  0  0  0  0  0  0  0  0  0  0  0
   57.8710   32.5170   45.4470 C   0  0  0  0  0  0  0  0  0  0  0  0
   58.3620   33.5820   44.6770 C   0  0  0  0  0  0  0  0  0  0  0  0
   58.1053   33.6506   43.6096 H   0  0  0  0  0  0  0  0  0  0  0  0
   59.1770   34.5570   45.2620 C   0  0  0  0  0  0  0  0  0  0  0  0
   59.5804   35.3765   44.6491 H   0  0  0  0  0  0  0  0  0  0  0  0
   59.4790   34.4900   46.6260 C   0  0  0  0  0  0  0  0  0  0  0  0
   60.1243   35.2537   47.0846 H   0  0  0  0  0  0  0  0  0  0  0  0
   58.9610   33.4530   47.4060 C   0  0  0  0  0  0  0  0  0  0  0  0
   59.1841   33.4111   48.4823 H   0  0  0  0  0  0  0  0  0  0  0  0
   58.1590   32.4680   46.8200 C   0  0  0  0  0  0  0  0  0  0  0  0
   57.7529   31.6528   47.4368 H   0  0  0  0  0  0  0  0  0  0  0  0
  1  2  1  0
  2  3  1  0
  3  4  1  0
  4  5  1  0
  5  6  2  0
  5  7  1  0
  7  8  1  0
  8  9  2  0
  9 10  1  0
  9 11  1  0
 11 12  1  0
 11 13  2  0
 13 14  1  0
 13 15  1  0
 15 16  1  0
 15 17  2  0
 17 18  1  0
  7 19  1  0
 19 20  2  0
 19 21  1  0
 21 22  1  0
 22 23  1  0
 22 24  2  0
 24 25  1  0
 24 26  1  0
 26 27  2  0
 27 28  1  0
 27 29  1  0
 29 30  1  0
 30 31  1  0
 30 32  2  0
 32 33  1  0
 33 34  1  0
 33 35  1  0
 33 36  1  0
 36 37  1  0
 36 38  1  0
 36 39  1  0
 39 40  1  0
 39 41  2  3
 41 42  1  0
 42 43  2  0
 43 44  1  0
 43 45  1  0
 45 46  1  0
 45 47  2  0
 47 48  1  0
 47 49  1  0
 49 50  1  0
 49 51  2  0
 51 52  1  0
 21  3  2  0
 32 26  1  0
 51 42  1  0
 17  8  1  0
M  CHG  4   4  -1  28  -1  29  -1  31  -1
M  END
>  <UniqueID>  (27) 
24

>  <SMILES>  (27) 
O=c1[n-]c(O)c(/C=C/c2c([O-])[n-]c([O-])c2CCC=Nc2ccccc2)c(=O)n1-c1ccccc1

>  <Energy>  (27) 
101.69336220402482

>  <Genealogy>  (27) 
O=c1[n-]c(O)c(C=Cc2c([O-])[n-]c([O-])c2CCC=Nc2ccccc2)c(=O)n1-c1ccccc1 (protonated)
O=c1[n-]c(O)c(/C=C/c2c([O-])[n-]c([O-])c2CCC=Nc2ccccc2)c(=O)n1-c1ccccc1 (cis-trans isomerization)
O=c1[n-]c(O)c(/C=C/c2c([O-])[n-]c([O-])c2CCC=Nc2ccccc2)c(=O)n1-c1ccccc1 (3D coordinates assigned)
O=c1[n-]c(O)c(/C=C/c2c([O-])[n-]c([O-])c2CCC=Nc2ccccc2)c(=O)n1-c1ccccc1 (optimized conformer: 101.69336220402482 kcal/mol)

>  <smiles>  (27) 
O=c1[nH]c(O)c(C=Cc2c(O)[nH]c(O)c2CCC=Nc2ccccc2)c(=O)n1-c1ccccc1

>  <score_type>  (27) 
oracle

>  <origin>  (27) 
adg

>  <m_score__min__energy>  (27) 
-17.079999999999998

>  <m_primary>  (27) 
energy

$$$$
27:0
     RDKit          3D

 32 34  0  0  0  0  0  0  0  0999 V2000
   56.2420   30.7090   44.8550 O   0  0  0  0  0  0  0  0  0  0  0  0
   57.3570   30.9080   44.3020 C   0  0  0  0  0  0  0  0  0  0  0  0
   57.6600   32.2600   43.7320 C   0  0  0  0  0  0  0  0  0  0  0  0
   58.1740   33.1740   44.8090 C   0  0  0  0  0  0  0  0  0  0  0  0
   59.1140   34.1720   44.5010 C   0  0  0  0  0  0  0  0  0  0  0  0
   59.6170   35.0010   45.5080 C   0  0  0  0  0  0  0  0  0  0  0  0
   59.1930   34.8350   46.8300 C   0  0  0  0  0  0  0  0  0  0  0  0
   58.2670   33.8370   47.1460 C   0  0  0  0  0  0  0  0  0  0  0  0
   57.7620   33.0050   46.1420 C   0  0  0  0  0  0  0  0  0  0  0  0
   58.2950   29.8320   44.1350 N   0  0  0  0  0  0  0  0  0  0  0  0
   58.1730   28.5490   44.7700 C   0  0  0  0  0  0  0  0  0  0  0  0
   59.3390   27.7750   44.9930 C   0  0  0  0  0  0  0  0  0  0  0  0
   59.2600   26.5240   45.6320 C   0  0  0  0  0  0  0  0  0  0  0  0
   58.0070   26.0860   46.0480 C   0  0  0  0  0  0  0  0  0  0  0  0
   56.8880   26.8280   45.8570 C   0  0  0  0  0  0  0  0  0  0  0  0
   56.9220   28.0690   45.2280 C   0  0  0  0  0  0  0  0  0  0  0  0
   55.7970   26.1580   46.3780 O   0  0  0  0  0  0  0  0  0  0  0  0
   56.2610   24.9170   46.9280 C   0  0  0  0  0  0  0  0  0  0  0  0
   57.6760   24.9120   46.6960 O   0  0  0  0  0  0  0  0  0  0  0  0
   58.4226   32.1602   42.9456 H   0  0  0  0  0  0  0  0  0  0  0  0
   56.7382   32.6861   43.3093 H   0  0  0  0  0  0  0  0  0  0  0  0
   59.4554   34.3015   43.4634 H   0  0  0  0  0  0  0  0  0  0  0  0
   60.3475   35.7851   45.2599 H   0  0  0  0  0  0  0  0  0  0  0  0
   59.5880   35.4895   47.6209 H   0  0  0  0  0  0  0  0  0  0  0  0
   57.9348   33.7058   48.1864 H   0  0  0  0  0  0  0  0  0  0  0  0
   57.0397   32.2154   46.3964 H   0  0  0  0  0  0  0  0  0  0  0  0
   59.0650   29.9640   43.4410 H   0  0  0  0  0  0  0  0  0  0  0  0
   60.3165   28.1565   44.6629 H   0  0  0  0  0  0  0  0  0  0  0  0
   60.1593   25.9125   45.7972 H   0  0  0  0  0  0  0  0  0  0  0  0
   56.0042   28.6596   45.0907 H   0  0  0  0  0  0  0  0  0  0  0  0
   56.0461   24.8678   48.0057 H   0  0  0  0  0  0  0  0  0  0  0  0
   55.7645   24.0504   46.4670 H   0  0  0  0  0  0  0  0  0  0  0  0
  1  2  2  0
  2  3  1  0
  3  4  1  0
  4  5  2  0
  5  6  1  0
  6  7  2  0
  7  8  1  0
  8  9  2  0
  2 10  1  0
 10 11  1  0
 11 12  2  0
 12 13  1  0
 13 14  2  0
 14 15  1  0
 15 16  2  0
 15 17  1  0
 17 18  1  0
 18 19  1  0
  9  4  1  0
 16 11  1  0
 19 14  1  0
  3 20  1  0
  3 21  1  0
  5 22  1  0
  6 23  1  0
  7 24  1  0
  8 25  1  0
  9 26  1  0
 10 27  1  0
 12 28  1  0
 13 29  1  0
 16 30  1  0
 18 31  1  0
 18 32  1  0
M  END
>  <UniqueID>  (28) 
25

>  <SMILES>  (28) 
O=C(Cc1ccccc1)Nc1ccc2c(c1)OCO2

>  <Energy>  (28) 
62.98895685806957

>  <Genealogy>  (28) 
O=C(Cc1ccccc1)Nc1ccc2c(c1)OCO2 (3D coordinates assigned)
O=C(Cc1ccccc1)Nc1ccc2c(c1)OCO2 (nonaromatic ring conformer: 62.98895685806957 kcal/mol)

>  <smiles>  (28) 
O=C(Cc1ccccc1)Nc1ccc2c(c1)OCO2

>  <score_type>  (28) 
oracle

>  <origin>  (28) 
adg

>  <m_score__min__energy>  (28) 
-7.79

>  <m_primary>  (28) 
energy

$$$$
28:0
     RDKit          3D

 32 33  0  0  0  0  0  0  0  0999 V2000
   54.6130   26.3350   45.9280 O   0  0  0  0  0  0  0  0  0  0  0  0
   55.8340   26.3430   46.2370 C   0  0  0  0  0  0  0  0  0  0  0  0
   56.3350   25.3620   47.0820 O   0  0  0  0  0  0  0  0  0  0  0  0
   56.7480   27.3790   45.6650 C   0  0  0  0  0  0  0  0  0  0  0  0
   56.0090   28.5260   45.2450 O   0  0  0  0  0  0  0  0  0  0  0  0
   56.5010   29.5570   44.4260 C   0  0  0  0  0  0  0  0  0  0  0  0
   56.1340   29.6820   43.0700 C   0  0  0  0  0  0  0  0  0  0  0  0
   56.6460   30.7220   42.2930 C   0  0  0  0  0  0  0  0  0  0  0  0
   57.5270   31.6460   42.8540 C   0  0  0  0  0  0  0  0  0  0  0  0
   57.9000   31.5340   44.1950 C   0  0  0  0  0  0  0  0  0  0  0  0
   57.3890   30.4870   44.9900 C   0  0  0  0  0  0  0  0  0  0  0  0
   57.7380   30.3400   46.3410 O   0  0  0  0  0  0  0  0  0  0  0  0
   59.0540   30.5040   46.8600 C   0  0  0  0  0  0  0  0  0  0  0  0
   59.3710   31.9680   46.9430 C   0  0  0  0  0  0  0  0  0  0  0  0
   58.3380   32.9080   47.0940 C   0  0  0  0  0  0  0  0  0  0  0  0
   58.6310   34.2750   47.1320 C   0  0  0  0  0  0  0  0  0  0  0  0
   59.9520   34.7130   47.0060 C   0  0  0  0  0  0  0  0  0  0  0  0
   60.9840   33.7840   46.8380 C   0  0  0  0  0  0  0  0  0  0  0  0
   62.2630   34.2100   46.7070 F   0  0  0  0  0  0  0  0  0  0  0  0
   60.6950   32.4150   46.8000 C   0  0  0  0  0  0  0  0  0  0  0  0
   57.4775   27.6799   46.4313 H   0  0  0  0  0  0  0  0  0  0  0  0
   57.2653   26.9523   44.7930 H   0  0  0  0  0  0  0  0  0  0  0  0
   55.4401   28.9554   42.6222 H   0  0  0  0  0  0  0  0  0  0  0  0
   56.3542   30.8131   41.2363 H   0  0  0  0  0  0  0  0  0  0  0  0
   57.9289   32.4647   42.2390 H   0  0  0  0  0  0  0  0  0  0  0  0
   58.5952   32.2653   44.6331 H   0  0  0  0  0  0  0  0  0  0  0  0
   59.1124   30.0572   47.8635 H   0  0  0  0  0  0  0  0  0  0  0  0
   59.7777   30.0054   46.1984 H   0  0  0  0  0  0  0  0  0  0  0  0
   57.2957   32.5679   47.1826 H   0  0  0  0  0  0  0  0  0  0  0  0
   57.8200   35.0068   47.2613 H   0  0  0  0  0  0  0  0  0  0  0  0
   60.1803   35.7886   47.0389 H   0  0  0  0  0  0  0  0  0  0  0  0
   61.5072   31.6869   46.6577 H   0  0  0  0  0  0  0  0  0  0  0  0
  1  2  2  0
  2  3  1  0
  2  4  1  0
  4  5  1  0
  5  6  1  0
  6  7  2  0
  7  8  1  0
  8  9  2  0
  9 10  1  0
 10 11  2  0
 11 12  1  0
 12 13  1  0
 13 14  1  0
 14 15  2  0
 15 16  1  0
 16 17  2  0
 17 18  1  0
 18 19  1  0
 18 20  2  0
 11  6  1  0
 20 14  1  0
  4 21  1  0
  4 22  1  0
  7 23  1  0
  8 24  1  0
  9 25  1  0
 10 26  1  0
 13 27  1  0
 13 28  1  0
 15 29  1  0
 16 30  1  0
 17 31  1  0
 20 32  1  0
M  CHG  1   3  -1
M  END
>  <UniqueID>  (29) 
26

>  <SMILES>  (29) 
O=C([O-])COc1ccccc1OCc1cccc(F)c1

>  <Energy>  (29) 
31.289030666398588

>  <Genealogy>  (29) 
O=C([O-])COc1ccccc1OCc1cccc(F)c1 (protonated)
O=C([O-])COc1ccccc1OCc1cccc(F)c1 (3D coordinates assigned)
O=C([O-])COc1ccccc1OCc1cccc(F)c1 (optimized conformer: 31.289030666398588 kcal/mol)

>  <smiles>  (29) 
O=C(O)COc1ccccc1OCc1cccc(F)c1

>  <score_type>  (29) 
oracle

>  <origin>  (29) 
adg

>  <m_score__min__energy>  (29) 
-9.9199999999999999

>  <m_primary>  (29) 
energy

$$$$
29:0
     RDKit          3D

 45 47  0  0  0  0  0  0  0  0999 V2000
   60.7530   28.5980   44.8890 C   0  0  0  0  0  0  0  0  0  0  0  0
   59.9480   28.4400   46.0530 O   0  0  0  0  0  0  0  0  0  0  0  0
   58.9520   27.4600   46.2090 C   0  0  0  0  0  0  0  0  0  0  0  0
   59.1750   26.2890   46.9610 C   0  0  0  0  0  0  0  0  0  0  0  0
   58.1700   25.3260   47.0830 C   0  0  0  0  0  0  0  0  0  0  0  0
   56.9400   25.5140   46.4540 C   0  0  0  0  0  0  0  0  0  0  0  0
   56.7050   26.6690   45.7070 C   0  0  0  0  0  0  0  0  0  0  0  0
   57.6990   27.6560   45.5900 C   0  0  0  0  0  0  0  0  0  0  0  0
   57.4370   28.8800   44.7580 C   0  0  0  0  0  0  0  0  0  0  0  0
   57.0120   29.9710   45.6310 N   0  0  0  0  0  0  0  0  0  0  0  0
   57.4970   31.4940   44.9510 S   0  0  0  0  0  0  0  0  0  0  0  0
   56.3100   32.4120   44.8930 O   0  0  0  0  0  0  0  0  0  0  0  0
   58.0090   31.2810   43.5530 O   0  0  0  0  0  0  0  0  0  0  0  0
   58.7440   32.2330   45.9550 C   0  0  0  0  0  0  0  0  0  0  0  0
   58.6590   33.5760   46.3240 C   0  0  0  0  0  0  0  0  0  0  0  0
   59.6570   34.1520   47.1080 C   0  0  0  0  0  0  0  0  0  0  0  0
   60.7630   33.3980   47.5460 C   0  0  0  0  0  0  0  0  0  0  0  0
   60.8780   32.0390   47.1310 C   0  0  0  0  0  0  0  0  0  0  0  0
   59.8450   31.4740   46.3590 C   0  0  0  0  0  0  0  0  0  0  0  0
   62.0140   31.1210   47.5450 C   0  0  0  0  0  0  0  0  0  0  0  0
   63.4010   31.6390   47.1440 C   0  0  0  0  0  0  0  0  0  0  0  0
   63.8730   32.7290   48.0110 N   0  0  0  0  0  0  0  0  0  0  0  0
   63.2270   34.0300   47.7690 C   0  0  0  0  0  0  0  0  0  0  0  0
   61.8160   34.1260   48.3630 C   0  0  0  0  0  0  0  0  0  0  0  0
   61.7921   28.8019   45.1867 H   0  0  0  0  0  0  0  0  0  0  0  0
   60.7173   27.6757   44.2906 H   0  0  0  0  0  0  0  0  0  0  0  0
   60.3714   29.4384   44.2906 H   0  0  0  0  0  0  0  0  0  0  0  0
   60.1455   26.1324   47.4545 H   0  0  0  0  0  0  0  0  0  0  0  0
   58.3496   24.4175   47.6766 H   0  0  0  0  0  0  0  0  0  0  0  0
   56.1535   24.7506   46.5467 H   0  0  0  0  0  0  0  0  0  0  0  0
   55.7354   26.8080   45.2064 H   0  0  0  0  0  0  0  0  0  0  0  0
   58.3569   29.1691   44.2287 H   0  0  0  0  0  0  0  0  0  0  0  0
   56.6475   28.6655   44.0227 H   0  0  0  0  0  0  0  0  0  0  0  0
   57.8018   34.1819   45.9952 H   0  0  0  0  0  0  0  0  0  0  0  0
   59.5796   35.2126   47.3892 H   0  0  0  0  0  0  0  0  0  0  0  0
   59.9060   30.4148   46.0685 H   0  0  0  0  0  0  0  0  0  0  0  0
   61.9882   31.0077   48.6388 H   0  0  0  0  0  0  0  0  0  0  0  0
   61.8632   30.1656   47.0211 H   0  0  0  0  0  0  0  0  0  0  0  0
   64.1179   30.8068   47.2032 H   0  0  0  0  0  0  0  0  0  0  0  0
   63.3236   32.0378   46.1218 H   0  0  0  0  0  0  0  0  0  0  0  0
   64.9030   32.8360   47.8570 H   0  0  0  0  0  0  0  0  0  0  0  0
   63.8494   34.8179   48.2182 H   0  0  0  0  0  0  0  0  0  0  0  0
   63.1309   34.1487   46.6797 H   0  0  0  0  0  0  0  0  0  0  0  0
   61.8336   33.6922   49.3737 H   0  0  0  0  0  0  0  0  0  0  0  0
   61.5402   35.1908   48.3703 H   0  0  0  0  0  0  0  0  0  0  0  0
  1  2  1  0
  2  3  1  0
  3  4  2  0
  4  5  1  0
  5  6  2  0
  6  7  1  0
  7  8  2  0
  8  9  1  0
  9 10  1  0
 10 11  1  0
 11 12  2  0
 11 13  2  0
 11 14  1  0
 14 15  2  0
 15 16  1  0
 16 17  2  0
 17 18  1  0
 18 19  2  0
 18 20  1  0
 20 21  1  0
 21 22  1  0
 22 23  1  0
 23 24  1  0
  8  3  1  0
 19 14  1  0
 24 17  1  0
  1 25  1  0
  1 26  1  0
  1 27  1  0
  4 28  1  0
  5 29  1  0
  6 30  1  0
  7 31  1  0
  9 32  1  0
  9 33  1  0
 15 34  1  0
 16 35  1  0
 19 36  1  0
 20 37  1  0
 20 38  1  0
 21 39  1  0
 21 40  1  0
 22 41  1  0
 23 42  1  0
 23 43  1  0
 24 44  1  0
 24 45  1  0
M  CHG  1  10  -1
M  END
>  <UniqueID>  (30) 
27

>  <SMILES>  (30) 
COc1ccccc1C[N-]S(=O)(=O)c1ccc2c(c1)CCNCC2

>  <Energy>  (30) 
54.09144678541944

>  <Genealogy>  (30) 
COc1ccccc1C[N-]S(=O)(=O)c1ccc2c(c1)CCNCC2 (protonated)
COc1ccccc1C[N-]S(=O)(=O)c1ccc2c(c1)CCNCC2 (3D coordinates assigned)
COc1ccccc1C[N-]S(=O)(=O)c1ccc2c(c1)CCNCC2 (nonaromatic ring conformer: 54.09144678541944 kcal/mol)

>  <smiles>  (30) 
COc1ccccc1CNS(=O)(=O)c1ccc2c(c1)CCNCC2

>  <score_type>  (30) 
oracle

>  <origin>  (30) 
adg

>  <m_score__min__energy>  (30) 
-8.1500000000000004

>  <m_primary>  (30) 
energy

$$$$
30:0
     RDKit          3D

 60 62  0  0  0  0  0  0  0  0999 V2000
   68.2770   33.6310   50.4920 C   0  0  0  0  0  0  0  0  0  0  0  0
   66.9290   33.8480   51.1800 C   0  0  0  0  0  0  0  0  0  0  0  0
   66.3190   32.5370   51.7010 C   0  0  0  0  0  0  0  0  0  0  0  0
   65.8300   31.6030   50.5650 C   0  0  0  0  0  0  0  0  0  0  0  0
   64.3160   31.7090   50.3060 C   0  0  0  0  0  0  0  0  0  0  0  0
   63.9940   32.7330   49.2490 C   0  0  0  0  0  0  0  0  0  0  0  0
   64.8820   33.5880   48.9670 O   0  0  0  0  0  0  0  0  0  0  0  0
   62.7470   32.7410   48.5150 N   0  0  0  0  0  0  0  0  0  0  0  0
   62.5030   33.8170   47.5400 C   0  0  0  0  0  0  0  0  0  0  0  0
   61.0680   33.7610   46.9980 C   0  0  0  0  0  0  0  0  0  0  0  0
   60.7470   32.4250   46.4580 N   0  0  0  0  0  0  0  0  0  0  0  0
   59.0470   32.3290   46.0500 S   0  0  0  0  0  0  0  0  0  0  0  0
   58.2410   32.5620   47.2980 O   0  0  0  0  0  0  0  0  0  0  0  0
   58.6920   33.4040   45.0590 O   0  0  0  0  0  0  0  0  0  0  0  0
   58.6320   30.7520   45.3720 C   0  0  0  0  0  0  0  0  0  0  0  0
   57.3530   30.5120   44.8450 C   0  0  0  0  0  0  0  0  0  0  0  0
   56.9990   29.2300   44.4070 C   0  0  0  0  0  0  0  0  0  0  0  0
   57.9050   28.1720   44.5280 C   0  0  0  0  0  0  0  0  0  0  0  0
   57.4810   26.8370   44.2200 N   0  0  0  0  0  0  0  0  0  0  0  0
   57.4220   25.7940   45.2020 C   0  0  0  0  0  0  0  0  0  0  0  0
   58.3580   25.6800   46.0390 O   0  0  0  0  0  0  0  0  0  0  0  0
   56.2680   24.8650   45.2550 C   0  0  0  0  0  0  0  0  0  0  0  0
   56.4460   23.5120   44.9210 C   0  0  0  0  0  0  0  0  0  0  0  0
   55.3920   22.6050   45.0650 C   0  0  0  0  0  0  0  0  0  0  0  0
   54.1460   23.0430   45.5320 C   0  0  0  0  0  0  0  0  0  0  0  0
   53.0950   22.1460   45.6990 O   0  0  0  0  0  0  0  0  0  0  0  0
   53.9530   24.3940   45.8360 C   0  0  0  0  0  0  0  0  0  0  0  0
   55.0030   25.3060   45.6940 C   0  0  0  0  0  0  0  0  0  0  0  0
   54.7740   26.6490   45.9830 O   0  0  0  0  0  0  0  0  0  0  0  0
   59.2020   28.4250   44.9990 C   0  0  0  0  0  0  0  0  0  0  0  0
   59.5650   29.7080   45.4080 C   0  0  0  0  0  0  0  0  0  0  0  0
   61.1860   31.2860   47.3070 C   0  0  0  0  0  0  0  0  0  0  0  0
   61.7060   31.7120   48.6880 C   0  0  0  0  0  0  0  0  0  0  0  0
   69.0610   33.5048   51.2532 H   0  0  0  0  0  0  0  0  0  0  0  0
   68.2272   32.7293   49.8639 H   0  0  0  0  0  0  0  0  0  0  0  0
   68.5127   34.5028   49.8639 H   0  0  0  0  0  0  0  0  0  0  0  0
   67.0719   34.5329   52.0288 H   0  0  0  0  0  0  0  0  0  0  0  0
   66.2363   34.2675   50.4355 H   0  0  0  0  0  0  0  0  0  0  0  0
   67.0816   32.0048   52.2885 H   0  0  0  0  0  0  0  0  0  0  0  0
   65.4419   32.8014   52.3100 H   0  0  0  0  0  0  0  0  0  0  0  0
   66.3629   31.8681   49.6399 H   0  0  0  0  0  0  0  0  0  0  0  0
   66.0378   30.5691   50.8779 H   0  0  0  0  0  0  0  0  0  0  0  0
   63.9428   30.7284   49.9757 H   0  0  0  0  0  0  0  0  0  0  0  0
   63.8326   32.0242   51.2425 H   0  0  0  0  0  0  0  0  0  0  0  0
   62.6636   34.7885   48.0303 H   0  0  0  0  0  0  0  0  0  0  0  0
   63.1985   33.6876   46.6976 H   0  0  0  0  0  0  0  0  0  0  0  0
   60.3681   33.9947   47.8138 H   0  0  0  0  0  0  0  0  0  0  0  0
   60.9773   34.4943   46.1831 H   0  0  0  0  0  0  0  0  0  0  0  0
   56.6259   31.3346   44.7759 H   0  0  0  0  0  0  0  0  0  0  0  0
   56.0062   29.0549   43.9669 H   0  0  0  0  0  0  0  0  0  0  0  0
   57.4194   23.1647   44.5444 H   0  0  0  0  0  0  0  0  0  0  0  0
   55.5413   21.5452   44.8111 H   0  0  0  0  0  0  0  0  0  0  0  0
   53.0700   21.2660   45.1970 H   0  0  0  0  0  0  0  0  0  0  0  0
   52.9705   24.7409   46.1885 H   0  0  0  0  0  0  0  0  0  0  0  0
   59.9364   27.6074   45.0460 H   0  0  0  0  0  0  0  0  0  0  0  0
   60.5890   29.9009   45.7605 H   0  0  0  0  0  0  0  0  0  0  0  0
   60.3304   30.6099   47.4512 H   0  0  0  0  0  0  0  0  0  0  0  0
   62.0219   30.7981   46.7844 H   0  0  0  0  0  0  0  0  0  0  0  0
   60.8771   32.1230   49.2830 H   0  0  0  0  0  0  0  0  0  0  0  0
   62.1291   30.8408   49.2096 H   0  0  0  0  0  0  0  0  0  0  0  0
  1  2  1  0
  2  3  1  0
  3  4  1  0
  4  5  1  0
  5  6  1  0
  6  7  2  0
  6  8  1  0
  8  9  1  0
  9 10  1  0
 10 11  1  0
 11 12  1  0
 12 13  2  0
 12 14  2  0
 12 15  1  0
 15 16  2  0
 16 17  1  0
 17 18  2  0
 18 19  1  0
 19 20  1  0
 20 21  2  0
 20 22  1  0
 22 23  2  0
 23 24  1  0
 24 25  2  0
 25 26  1  0
 25 27  1  0
 27 28  2  0
 28 29  1  0
 18 30  1  0
 30 31  2  0
 11 32  1  0
 32 33  1  0
 33  8  1  0
 31 15  1  0
 28 22  1  0
  1 34  1  0
  1 35  1  0
  1 36  1  0
  2 37  1  0
  2 38  1  0
  3 39  1  0
  3 40  1  0
  4 41  1  0
  4 42  1  0
  5 43  1  0
  5 44  1  0
  9 45  1  0
  9 46  1  0
 10 47  1  0
 10 48  1  0
 16 49  1  0
 17 50  1  0
 23 51  1  0
 24 52  1  0
 26 53  1  0
 27 54  1  0
 30 55  1  0
 31 56  1  0
 32 57  1  0
 32 58  1  0
 33 59  1  0
 33 60  1  0
M  CHG  2  19  -1  29  -1
M  END
>  <UniqueID>  (31) 
28

>  <SMILES>  (31) 
CCCCCC(=O)N1CCN(S(=O)(=O)c2ccc([N-]C(=O)c3ccc(O)cc3[O-])cc2)CC1

>  <Energy>  (31) 
68.97647614392939

>  <Genealogy>  (31) 
CCCCCC(=O)N1CCN(S(=O)(=O)c2ccc([N-]C(=O)c3ccc(O)cc3[O-])cc2)CC1 (protonated)
CCCCCC(=O)N1CCN(S(=O)(=O)c2ccc([N-]C(=O)c3ccc(O)cc3[O-])cc2)CC1 (3D coordinates assigned)
CCCCCC(=O)N1CCN(S(=O)(=O)c2ccc([N-]C(=O)c3ccc(O)cc3[O-])cc2)CC1 (nonaromatic ring conformer: 68.97647614392939 kcal/mol)

>  <smiles>  (31) 
CCCCCC(=O)N1CCN(S(=O)(=O)c2ccc(NC(=O)c3ccc(O)cc3O)cc2)CC1

>  <score_type>  (31) 
oracle

>  <origin>  (31) 
adg

>  <m_score__min__energy>  (31) 
-14.119999999999999

>  <m_primary>  (31) 
energy

$$$$
31:0
     RDKit          3D

 33 34  0  0  0  0  0  0  0  0999 V2000
   58.3184   32.0107   47.7825 H   0  0  0  0  0  0  0  0  0  0  0  0
   58.1680   32.3110   46.7350 C   0  0  0  0  0  0  0  0  0  0  0  0
   57.5060   31.4860   45.8790 N   0  0  0  0  0  0  0  0  0  0  0  0
   57.3010   31.8030   44.5720 C   0  0  0  0  0  0  0  0  0  0  0  0
   56.6340   30.9630   43.8310 N   0  0  0  0  0  0  0  0  0  0  0  0
   56.0240   29.7250   44.2240 C   0  0  0  0  0  0  0  0  0  0  0  0
   54.7790   29.5560   44.1220 O   0  0  0  0  0  0  0  0  0  0  0  0
   56.8890   28.5970   44.6930 C   0  0  0  0  0  0  0  0  0  0  0  0
   57.1881   27.9825   43.8310 H   0  0  0  0  0  0  0  0  0  0  0  0
   57.7849   29.0044   45.1843 H   0  0  0  0  0  0  0  0  0  0  0  0
   56.1660   27.7920   45.6210 O   0  0  0  0  0  0  0  0  0  0  0  0
   56.6810   26.6170   46.1800 C   0  0  0  0  0  0  0  0  0  0  0  0
   55.9200   25.7760   46.7330 O   0  0  0  0  0  0  0  0  0  0  0  0
   58.1380   26.3210   46.0460 C   0  0  0  0  0  0  0  0  0  0  0  0
   58.3958   25.4564   46.6753 H   0  0  0  0  0  0  0  0  0  0  0  0
   58.3704   26.0924   44.9954 H   0  0  0  0  0  0  0  0  0  0  0  0
   58.9360   27.5180   46.4870 C   0  0  0  0  0  0  0  0  0  0  0  0
   59.8770   28.1020   45.6230 C   0  0  0  0  0  0  0  0  0  0  0  0
   60.0568   27.6618   44.6311 H   0  0  0  0  0  0  0  0  0  0  0  0
   60.5860   29.2400   46.0180 C   0  0  0  0  0  0  0  0  0  0  0  0
   61.3288   29.6872   45.3410 H   0  0  0  0  0  0  0  0  0  0  0  0
   60.3520   29.8100   47.2720 C   0  0  0  0  0  0  0  0  0  0  0  0
   60.9148   30.7021   47.5841 H   0  0  0  0  0  0  0  0  0  0  0  0
   59.4030   29.2470   48.1300 C   0  0  0  0  0  0  0  0  0  0  0  0
   59.2149   29.7005   49.1144 H   0  0  0  0  0  0  0  0  0  0  0  0
   58.6930   28.1090   47.7390 C   0  0  0  0  0  0  0  0  0  0  0  0
   57.9409   27.6738   48.4135 H   0  0  0  0  0  0  0  0  0  0  0  0
   57.7710   33.0430   44.0880 C   0  0  0  0  0  0  0  0  0  0  0  0
   57.6010   33.3298   43.0397 H   0  0  0  0  0  0  0  0  0  0  0  0
   58.4540   33.9030   44.9520 C   0  0  0  0  0  0  0  0  0  0  0  0
   58.8324   34.8675   44.5825 H   0  0  0  0  0  0  0  0  0  0  0  0
   58.6560   33.5380   46.2840 C   0  0  0  0  0  0  0  0  0  0  0  0
   59.4910   34.6190   47.3840 Cl  0  0  0  0  0  0  0  0  0  0  0  0
  1  2  1  0
  2  3  1  0
  3  4  1  0
  4  5  2  0
  5  6  1  0
  6  7  2  0
  6  8  1  0
  8  9  1  0
  8 10  1  0
  8 11  1  0
 11 12  1  0
 12 13  2  0
 12 14  1  0
 14 15  1  0
 14 16  1  0
 14 17  1  0
 17 18  2  0
 18 19  1  0
 18 20  1  0
 20 21  1  0
 20 22  2  0
 22 23  1  0
 22 24  1  0
 24 25  1  0
 24 26  2  0
 26 27  1  0
  4 28  1  0
 28 29  1  0
 28 30  2  0
 30 31  1  0
 30 32  1  0
 32 33  1  0
 32  2  2  0
 26 17  1  0
M  CHG  1   3  -1
M  END
>  <UniqueID>  (32) 
29

>  <SMILES>  (32) 
O=C(COC(=O)Cc1ccccc1)/N=c1\ccc(Cl)c[n-]1

>  <Energy>  (32) 
33.35080960784986

>  <Genealogy>  (32) 
O=C(COC(=O)Cc1ccccc1)N=c1ccc(Cl)c[n-]1 (protonated)
O=C(COC(=O)Cc1ccccc1)/N=c1\ccc(Cl)c[n-]1 (cis-trans isomerization)
O=C(COC(=O)Cc1ccccc1)/N=c1\ccc(Cl)c[n-]1 (3D coordinates assigned)
O=C(COC(=O)Cc1ccccc1)/N=c1\ccc(Cl)c[n-]1 (optimized conformer: 33.35080960784986 kcal/mol)

>  <smiles>  (32) 
O=C(COC(=O)Cc1ccccc1)N=c1ccc(Cl)c[nH]1

>  <score_type>  (32) 
oracle

>  <origin>  (32) 
adg

>  <m_score__min__energy>  (32) 
-9.5299999999999994

>  <m_primary>  (32) 
energy

$$$$
32:0
     RDKit          3D

 34 35  0  0  0  0  0  0  0  0999 V2000
   57.8100   27.2260   44.0860 O   0  0  0  0  0  0  0  0  0  0  0  0
   57.1110   27.9450   44.8470 C   0  0  0  0  0  0  0  0  0  0  0  0
   56.0740   27.3250   45.6200 N   0  0  0  0  0  0  0  0  0  0  0  0
   56.2720   26.3490   46.6880 C   0  0  0  0  0  0  0  0  0  0  0  0
   56.1580   24.9490   46.1500 C   0  0  0  0  0  0  0  0  0  0  0  0
   55.9390   24.0290   46.9270 O   0  0  0  0  0  0  0  0  0  0  0  0
   56.2850   24.6900   44.7280 N   0  0  0  0  0  0  0  0  0  0  0  0
   55.0510   24.0520   44.2120 C   0  0  0  0  0  0  0  0  0  0  0  0
   55.3420   23.2660   42.9220 C   0  0  0  0  0  0  0  0  0  0  0  0
   56.2910   22.2180   43.0870 O   0  0  0  0  0  0  0  0  0  0  0  0
   57.1820   22.4170   44.1760 C   0  0  0  0  0  0  0  0  0  0  0  0
   57.5090   23.8990   44.4350 C   0  0  0  0  0  0  0  0  0  0  0  0
   57.3540   29.3970   44.8780 C   0  0  0  0  0  0  0  0  0  0  0  0
   56.8120   30.2180   43.8770 C   0  0  0  0  0  0  0  0  0  0  0  0
   57.0450   31.5980   43.8940 C   0  0  0  0  0  0  0  0  0  0  0  0
   57.8340   32.1630   44.9010 C   0  0  0  0  0  0  0  0  0  0  0  0
   58.1280   33.8920   44.9190 Cl  0  0  0  0  0  0  0  0  0  0  0  0
   58.3960   31.3460   45.8870 C   0  0  0  0  0  0  0  0  0  0  0  0
   58.1630   29.9680   45.8730 C   0  0  0  0  0  0  0  0  0  0  0  0
   57.2717   26.4885   47.1251 H   0  0  0  0  0  0  0  0  0  0  0  0
   55.4983   26.4994   47.4553 H   0  0  0  0  0  0  0  0  0  0  0  0
   56.3850   25.6090   44.2340 H   0  0  0  0  0  0  0  0  0  0  0  0
   54.6557   23.3630   44.9729 H   0  0  0  0  0  0  0  0  0  0  0  0
   54.3145   24.8377   43.9881 H   0  0  0  0  0  0  0  0  0  0  0  0
   54.3993   22.8264   42.5641 H   0  0  0  0  0  0  0  0  0  0  0  0
   55.7748   23.9787   42.2045 H   0  0  0  0  0  0  0  0  0  0  0  0
   56.7230   21.9974   45.0833 H   0  0  0  0  0  0  0  0  0  0  0  0
   58.1268   21.9160   43.9185 H   0  0  0  0  0  0  0  0  0  0  0  0
   58.1922   23.9682   45.2944 H   0  0  0  0  0  0  0  0  0  0  0  0
   57.9738   24.3109   43.5271 H   0  0  0  0  0  0  0  0  0  0  0  0
   56.2018   29.7752   43.0760 H   0  0  0  0  0  0  0  0  0  0  0  0
   56.6071   32.2388   43.1145 H   0  0  0  0  0  0  0  0  0  0  0  0
   59.0227   31.7888   46.6752 H   0  0  0  0  0  0  0  0  0  0  0  0
   58.6155   29.3282   46.6449 H   0  0  0  0  0  0  0  0  0  0  0  0
  1  2  2  0
  2  3  1  0
  3  4  1  0
  4  5  1  0
  5  6  2  0
  5  7  1  0
  7  8  1  0
  8  9  1  0
  9 10  1  0
 10 11  1  0
 11 12  1  0
  2 13  1  0
 13 14  2  0
 14 15  1  0
 15 16  2  0
 16 17  1  0
 16 18  1  0
 18 19  2  0
 12  7  1  0
 19 13  1  0
  4 20  1  0
  4 21  1  0
  7 22  1  0
  8 23  1  0
  8 24  1  0
  9 25  1  0
  9 26  1  0
 11 27  1  0
 11 28  1  0
 12 29  1  0
 12 30  1  0
 14 31  1  0
 15 32  1  0
 18 33  1  0
 19 34  1  0
M  CHG  2   3  -1   7   1
M  END
>  <UniqueID>  (33) 
30

>  <SMILES>  (33) 
O=C([N-]CC(=O)[NH+]1CCOCC1)c1ccc(Cl)cc1

>  <Energy>  (33) 
52.03246597114589

>  <Genealogy>  (33) 
O=C([N-]CC(=O)[NH+]1CCOCC1)c1ccc(Cl)cc1 (protonated)
O=C([N-]CC(=O)[NH+]1CCOCC1)c1ccc(Cl)cc1 (3D coordinates assigned)
O=C([N-]CC(=O)[NH+]1CCOCC1)c1ccc(Cl)cc1 (nonaromatic ring conformer: 52.03246597114589 kcal/mol)

>  <smiles>  (33) 
O=C(NCC(=O)N1CCOCC1)c1ccc(Cl)cc1

>  <score_type>  (33) 
oracle

>  <origin>  (33) 
adg

>  <m_score__min__energy>  (33) 
-6.7000000000000002

>  <m_primary>  (33) 
energy

$$$$
33:0
     RDKit          3D

 53 56  0  0  0  0  0  0  0  0999 V2000
   54.7620   27.0810   44.9520 H   0  0  0  0  0  0  0  0  0  0  0  0
   55.1220   26.4020   45.6120 O   0  0  0  0  0  0  0  0  0  0  0  0
   56.3900   26.5310   46.1790 C   0  0  0  0  0  0  0  0  0  0  0  0
   56.7610   25.7250   47.2620 C   0  0  0  0  0  0  0  0  0  0  0  0
   56.0518   24.9870   47.6650 H   0  0  0  0  0  0  0  0  0  0  0  0
   57.9940   25.8520   47.8160 N   0  0  0  0  0  0  0  0  0  0  0  0
   58.8970   26.7600   47.3560 C   0  0  0  0  0  0  0  0  0  0  0  0
   60.1580   26.8780   47.9510 O   0  0  0  0  0  0  0  0  0  0  0  0
   60.5740   28.0160   48.6540 C   0  0  0  0  0  0  0  0  0  0  0  0
   60.7450   27.9190   50.0390 C   0  0  0  0  0  0  0  0  0  0  0  0
   60.5713   26.9575   50.5444 H   0  0  0  0  0  0  0  0  0  0  0  0
   61.1340   29.0320   50.7840 C   0  0  0  0  0  0  0  0  0  0  0  0
   61.2695   28.9424   51.8719 H   0  0  0  0  0  0  0  0  0  0  0  0
   61.3530   30.2640   50.1530 C   0  0  0  0  0  0  0  0  0  0  0  0
   61.8030   31.4550   50.9530 C   0  0  0  0  0  0  0  0  0  0  0  0
   60.9284   31.9353   51.4161 H   0  0  0  0  0  0  0  0  0  0  0  0
   62.5018   31.1238   51.7353 H   0  0  0  0  0  0  0  0  0  0  0  0
   62.4750   32.4110   50.0810 N   0  0  0  0  0  0  0  0  0  0  0  0
   61.9480   33.5680   49.7110 N   0  0  0  0  0  0  0  0  0  0  0  0
   62.8710   34.2110   48.9700 C   0  0  0  0  0  0  0  0  0  0  0  0
   62.7348   35.1991   48.5061 H   0  0  0  0  0  0  0  0  0  0  0  0
   64.0150   33.4410   48.8810 C   0  0  0  0  0  0  0  0  0  0  0  0
   64.9472   33.6817   48.3490 H   0  0  0  0  0  0  0  0  0  0  0  0
   63.7290   32.3040   49.6070 C   0  0  0  0  0  0  0  0  0  0  0  0
   64.4096   31.4554   49.7703 H   0  0  0  0  0  0  0  0  0  0  0  0
   61.2230   30.3580   48.7590 C   0  0  0  0  0  0  0  0  0  0  0  0
   61.4141   31.3183   48.2577 H   0  0  0  0  0  0  0  0  0  0  0  0
   60.8510   29.2370   47.9970 C   0  0  0  0  0  0  0  0  0  0  0  0
   60.7540   29.3680   46.5020 C   0  0  0  0  0  0  0  0  0  0  0  0
   60.1168   30.2285   46.2499 H   0  0  0  0  0  0  0  0  0  0  0  0
   61.7589   29.5201   46.0813 H   0  0  0  0  0  0  0  0  0  0  0  0
   60.3153   28.4512   46.0813 H   0  0  0  0  0  0  0  0  0  0  0  0
   58.5710   27.5790   46.2720 C   0  0  0  0  0  0  0  0  0  0  0  0
   59.2997   28.3123   45.8961 H   0  0  0  0  0  0  0  0  0  0  0  0
   57.3050   27.4630   45.6610 C   0  0  0  0  0  0  0  0  0  0  0  0
   56.9290   28.2040   44.6530 N   0  0  0  0  0  0  0  0  0  0  0  0
   56.1170   29.3910   44.6480 C   0  0  0  0  0  0  0  0  0  0  0  0
   54.8680   29.3220   44.5040 O   0  0  0  0  0  0  0  0  0  0  0  0
   56.7120   30.6670   44.9040 N   0  0  0  0  0  0  0  0  0  0  0  0
   58.1510   30.8840   45.0050 C   0  0  0  0  0  0  0  0  0  0  0  0
   58.6064   30.0418   45.5466 H   0  0  0  0  0  0  0  0  0  0  0  0
   58.5706   30.9560   43.9907 H   0  0  0  0  0  0  0  0  0  0  0  0
   58.4440   32.1630   45.7430 C   0  0  0  0  0  0  0  0  0  0  0  0
   58.7290   32.1340   47.1170 C   0  0  0  0  0  0  0  0  0  0  0  0
   58.7266   31.1754   47.6566 H   0  0  0  0  0  0  0  0  0  0  0  0
   59.0160   33.3180   47.8030 C   0  0  0  0  0  0  0  0  0  0  0  0
   59.2381   33.2890   48.8800 H   0  0  0  0  0  0  0  0  0  0  0  0
   59.0210   34.5380   47.1220 C   0  0  0  0  0  0  0  0  0  0  0  0
   59.2501   35.4683   47.6624 H   0  0  0  0  0  0  0  0  0  0  0  0
   58.7350   34.5770   45.7540 C   0  0  0  0  0  0  0  0  0  0  0  0
   58.7380   35.5379   45.2187 H   0  0  0  0  0  0  0  0  0  0  0  0
   58.4450   33.3940   45.0660 C   0  0  0  0  0  0  0  0  0  0  0  0
   58.2168   33.4278   43.9905 H   0  0  0  0  0  0  0  0  0  0  0  0
  1  2  1  0
  2  3  1  0
  3  4  2  0
  4  5  1  0
  4  6  1  0
  6  7  1  0
  7  8  1  0
  8  9  1  0
  9 10  2  0
 10 11  1  0
 10 12  1  0
 12 13  1  0
 12 14  2  0
 14 15  1  0
 15 16  1  0
 15 17  1  0
 15 18  1  0
 18 19  1  0
 19 20  2  0
 20 21  1  0
 20 22  1  0
 22 23  1  0
 22 24  2  0
 24 25  1  0
 14 26  1  0
 26 27  1  0
 26 28  2  0
 28 29  1  0
 29 30  1  0
 29 31  1  0
 29 32  1  0
  7 33  2  0
 33 34  1  0
 33 35  1  0
 35 36  2  0
 36 37  1  0
 37 38  2  0
 37 39  1  0
 39 40  1  0
 40 41  1  0
 40 42  1  0
 40 43  1  0
 43 44  2  0
 44 45  1  0
 44 46  1  0
 46 47  1  0
 46 48  2  0
 48 49  1  0
 48 50  1  0
 50 51  1  0
 50 52  2  0
 52 53  1  0
 35  3  1  0
 52 43  1  0
 28  9  1  0
 24 18  1  0
M  CHG  2   6  -1  39  -1
M  END
>  <UniqueID>  (34) 
31

>  <SMILES>  (34) 
Cc1cc(Cn2cccn2)ccc1Oc1c/c(=N\C(=O)[N-]Cc2ccccc2)c(O)c[n-]1

>  <Energy>  (34) 
96.59372677561716

>  <Genealogy>  (34) 
Cc1cc(Cn2cccn2)ccc1Oc1cc(=NC(=O)[N-]Cc2ccccc2)c(O)c[n-]1 (protonated)
Cc1cc(Cn2cccn2)ccc1Oc1c/c(=N\C(=O)[N-]Cc2ccccc2)c(O)c[n-]1 (cis-trans isomerization)
Cc1cc(Cn2cccn2)ccc1Oc1c/c(=N\C(=O)[N-]Cc2ccccc2)c(O)c[n-]1 (3D coordinates assigned)
Cc1cc(Cn2cccn2)ccc1Oc1c/c(=N\C(=O)[N-]Cc2ccccc2)c(O)c[n-]1 (optimized conformer: 96.59372677561716 kcal/mol)

>  <smiles>  (34) 
Cc1cc(Cn2cccn2)ccc1Oc1cc(=NC(=O)NCc2ccccc2)c(O)c[nH]1

>  <score_type>  (34) 
oracle

>  <origin>  (34) 
adg

>  <m_score__min__energy>  (34) 
-13.16

>  <m_primary>  (34) 
energy

$$$$
34:0
     RDKit          3D

 60 63  0  0  0  0  0  0  0  0999 V2000
   56.2430   24.5840   46.2260 C   0  0  0  0  0  0  0  0  0  0  0  0
   57.5080   25.3660   46.4120 C   0  0  0  0  0  0  0  0  0  0  0  0
   58.1280   25.2780   47.5070 O   0  0  0  0  0  0  0  0  0  0  0  0
   58.0540   26.1850   45.3670 N   0  0  0  0  0  0  0  0  0  0  0  0
   57.7260   27.5570   45.1130 C   0  0  0  0  0  0  0  0  0  0  0  0
   56.3940   27.9640   45.2540 C   0  0  0  0  0  0  0  0  0  0  0  0
   56.0210   29.2820   44.9940 C   0  0  0  0  0  0  0  0  0  0  0  0
   56.9830   30.2220   44.5880 C   0  0  0  0  0  0  0  0  0  0  0  0
   56.6390   31.5810   44.2710 N   0  0  0  0  0  0  0  0  0  0  0  0
   57.5420   32.6600   43.9920 C   0  0  0  0  0  0  0  0  0  0  0  0
   57.7060   33.0620   42.8080 O   0  0  0  0  0  0  0  0  0  0  0  0
   58.2450   33.3330   45.1120 C   0  0  0  0  0  0  0  0  0  0  0  0
   58.9260   34.4780   44.8900 C   0  0  0  0  0  0  0  0  0  0  0  0
   59.6690   35.2160   45.9750 C   0  0  0  0  0  0  0  0  0  0  0  0
   59.8650   34.3620   47.1490 N   0  0  0  0  0  0  0  0  0  0  0  0
   61.1910   33.9630   47.5300 C   0  0  0  0  0  0  0  0  0  0  0  0
   62.1370   33.8170   46.5580 N   0  0  0  0  0  0  0  0  0  0  0  0
   63.4220   33.4810   46.8440 C   0  0  0  0  0  0  0  0  0  0  0  0
   63.8140   33.2850   48.1690 C   0  0  0  0  0  0  0  0  0  0  0  0
   62.8700   33.4130   49.1890 C   0  0  0  0  0  0  0  0  0  0  0  0
   61.5320   33.7310   48.8880 C   0  0  0  0  0  0  0  0  0  0  0  0
   60.5150   33.8570   50.0030 C   0  0  0  0  0  0  0  0  0  0  0  0
   59.6750   34.9210   49.7410 F   0  0  0  0  0  0  0  0  0  0  0  0
   61.1370   34.0740   51.2190 F   0  0  0  0  0  0  0  0  0  0  0  0
   59.7640   32.6980   50.1130 F   0  0  0  0  0  0  0  0  0  0  0  0
   58.7140   33.5790   47.5900 C   0  0  0  0  0  0  0  0  0  0  0  0
   58.2910   32.6360   46.4600 C   0  0  0  0  0  0  0  0  0  0  0  0
   58.3060   29.8080   44.3980 C   0  0  0  0  0  0  0  0  0  0  0  0
   58.6890   28.4720   44.6390 C   0  0  0  0  0  0  0  0  0  0  0  0
   59.9910   28.0180   44.3890 O   0  0  0  0  0  0  0  0  0  0  0  0
   61.1180   28.2060   45.2450 C   0  0  0  0  0  0  0  0  0  0  0  0
   60.6910   28.7710   46.5750 C   0  0  0  0  0  0  0  0  0  0  0  0
   60.1410   27.9270   47.5560 C   0  0  0  0  0  0  0  0  0  0  0  0
   59.7200   28.4500   48.7840 C   0  0  0  0  0  0  0  0  0  0  0  0
   59.8440   29.8180   49.0390 C   0  0  0  0  0  0  0  0  0  0  0  0
   60.3820   30.6670   48.0630 C   0  0  0  0  0  0  0  0  0  0  0  0
   60.8000   30.1490   46.8340 C   0  0  0  0  0  0  0  0  0  0  0  0
   55.8241   24.3250   47.2096 H   0  0  0  0  0  0  0  0  0  0  0  0
   55.5160   25.1905   45.6660 H   0  0  0  0  0  0  0  0  0  0  0  0
   56.4605   23.6626   45.6660 H   0  0  0  0  0  0  0  0  0  0  0  0
   55.6335   27.2362   45.5733 H   0  0  0  0  0  0  0  0  0  0  0  0
   54.9702   29.5869   45.1071 H   0  0  0  0  0  0  0  0  0  0  0  0
   58.9393   34.8913   43.8707 H   0  0  0  0  0  0  0  0  0  0  0  0
   60.6505   35.5295   45.5900 H   0  0  0  0  0  0  0  0  0  0  0  0
   59.0752   36.0925   46.2735 H   0  0  0  0  0  0  0  0  0  0  0  0
   64.1536   33.3634   46.0310 H   0  0  0  0  0  0  0  0  0  0  0  0
   64.8576   33.0319   48.4073 H   0  0  0  0  0  0  0  0  0  0  0  0
   63.1737   33.2643   50.2358 H   0  0  0  0  0  0  0  0  0  0  0  0
   58.9865   32.9909   48.4787 H   0  0  0  0  0  0  0  0  0  0  0  0
   57.8817   34.2519   47.8441 H   0  0  0  0  0  0  0  0  0  0  0  0
   59.0108   31.8061   46.4043 H   0  0  0  0  0  0  0  0  0  0  0  0
   57.2768   32.2751   46.6860 H   0  0  0  0  0  0  0  0  0  0  0  0
   59.0578   30.5345   44.0559 H   0  0  0  0  0  0  0  0  0  0  0  0
   61.6135   27.2374   45.4069 H   0  0  0  0  0  0  0  0  0  0  0  0
   61.8100   28.9147   44.7665 H   0  0  0  0  0  0  0  0  0  0  0  0
   60.0411   26.8497   47.3572 H   0  0  0  0  0  0  0  0  0  0  0  0
   59.2918   27.7844   49.5479 H   0  0  0  0  0  0  0  0  0  0  0  0
   59.5191   30.2286   50.0064 H   0  0  0  0  0  0  0  0  0  0  0  0
   60.4757   31.7443   48.2645 H   0  0  0  0  0  0  0  0  0  0  0  0
   61.2150   30.8204   46.0679 H   0  0  0  0  0  0  0  0  0  0  0  0
  1  2  1  0
  2  3  2  0
  2  4  1  0
  4  5  1  0
  5  6  2  0
  6  7  1  0
  7  8  2  0
  8  9  1  0
  9 10  1  0
 10 11  2  0
 10 12  1  0
 12 13  2  0
 13 14  1  0
 14 15  1  0
 15 16  1  0
 16 17  2  0
 17 18  1  0
 18 19  2  0
 19 20  1  0
 20 21  2  0
 21 22  1  0
 22 23  1  0
 22 24  1  0
 22 25  1  0
 15 26  1  0
 26 27  1  0
  8 28  1  0
 28 29  2  0
 29 30  1  0
 30 31  1  0
 31 32  1  0
 32 33  2  0
 33 34  1  0
 34 35  2  0
 35 36  1  0
 36 37  2  0
 29  5  1  0
 37 32  1  0
 27 12  1  0
 21 16  1  0
  1 38  1  0
  1 39  1  0
  1 40  1  0
  6 41  1  0
  7 42  1  0
 13 43  1  0
 14 44  1  0
 14 45  1  0
 18 46  1  0
 19 47  1  0
 20 48  1  0
 26 49  1  0
 26 50  1  0
 27 51  1  0
 27 52  1  0
 28 53  1  0
 31 54  1  0
 31 55  1  0
 33 56  1  0
 34 57  1  0
 35 58  1  0
 36 59  1  0
 37 60  1  0
M  CHG  2   4  -1   9  -1
M  END
>  <UniqueID>  (35) 
32

>  <SMILES>  (35) 
CC(=O)[N-]c1ccc([N-]C(=O)C2=CCN(c3ncccc3C(F)(F)F)CC2)cc1OCc1ccccc1

>  <Energy>  (35) 
81.29722877569576

>  <Genealogy>  (35) 
CC(=O)[N-]c1ccc([N-]C(=O)C2=CCN(c3ncccc3C(F)(F)F)CC2)cc1OCc1ccccc1 (protonated)
CC(=O)[N-]c1ccc([N-]C(=O)C2=CCN(c3ncccc3C(F)(F)F)CC2)cc1OCc1ccccc1 (3D coordinates assigned)
CC(=O)[N-]c1ccc([N-]C(=O)C2=CCN(c3ncccc3C(F)(F)F)CC2)cc1OCc1ccccc1 (nonaromatic ring conformer: 81.29722877569576 kcal/mol)

>  <smiles>  (35) 
CC(=O)Nc1ccc(NC(=O)C2=CCN(c3ncccc3C(F)(F)F)CC2)cc1OCc1ccccc1

>  <score_type>  (35) 
oracle

>  <origin>  (35) 
adg

>  <m_score__min__energy>  (35) 
-11.56

>  <m_primary>  (35) 
energy

$$$$
35:0
     RDKit          3D

 38 40  0  0  0  0  0  0  0  0999 V2000
   56.2600   30.4900   42.9360 O   0  0  0  0  0  0  0  0  0  0  0  0
   56.5960   30.5840   44.1490 C   0  0  0  0  0  0  0  0  0  0  0  0
   56.2410   29.5520   45.0740 N   0  0  0  0  0  0  0  0  0  0  0  0
   57.0090   28.3250   45.2480 C   0  0  0  0  0  0  0  0  0  0  0  0
   58.0610   28.5180   46.2940 C   0  0  0  0  0  0  0  0  0  0  0  0
   58.2800   29.6840   46.9380 N   0  0  0  0  0  0  0  0  0  0  0  0
   59.3090   29.6090   47.8250 C   0  0  0  0  0  0  0  0  0  0  0  0
   59.7550   30.7800   48.6050 C   0  0  0  0  0  0  0  0  0  0  0  0
   59.2490   30.9750   49.7440 O   0  0  0  0  0  0  0  0  0  0  0  0
   60.7460   31.6910   48.1030 N   0  0  0  0  0  0  0  0  0  0  0  0
   60.8620   33.0600   48.5800 C   0  0  0  0  0  0  0  0  0  0  0  0
   62.2450   33.5350   48.1530 C   0  0  0  0  0  0  0  0  0  0  0  0
   62.7340   32.5310   47.1140 C   0  0  0  0  0  0  0  0  0  0  0  0
   61.9000   31.2740   47.3230 C   0  0  0  0  0  0  0  0  0  0  0  0
   59.9430   28.3670   47.8710 C   0  0  0  0  0  0  0  0  0  0  0  0
   59.1640   27.3470   46.7830 S   0  0  0  0  0  0  0  0  0  0  0  0
   57.3540   31.7570   44.6220 C   0  0  0  0  0  0  0  0  0  0  0  0
   58.0380   32.5940   43.7250 C   0  0  0  0  0  0  0  0  0  0  0  0
   58.7460   33.6940   44.2160 C   0  0  0  0  0  0  0  0  0  0  0  0
   58.7670   33.9500   45.5870 C   0  0  0  0  0  0  0  0  0  0  0  0
   59.6520   35.3280   46.2190 Cl  0  0  0  0  0  0  0  0  0  0  0  0
   58.0760   33.0990   46.4520 C   0  0  0  0  0  0  0  0  0  0  0  0
   57.3930   32.0330   45.9550 N   0  0  0  0  0  0  0  0  0  0  0  0
   56.3332   27.5142   45.5576 H   0  0  0  0  0  0  0  0  0  0  0  0
   57.4936   28.0666   44.2949 H   0  0  0  0  0  0  0  0  0  0  0  0
   57.7170   30.5490   46.7690 H   0  0  0  0  0  0  0  0  0  0  0  0
   60.0836   33.6907   48.1257 H   0  0  0  0  0  0  0  0  0  0  0  0
   60.7333   33.1199   49.6708 H   0  0  0  0  0  0  0  0  0  0  0  0
   62.1842   34.5412   47.7127 H   0  0  0  0  0  0  0  0  0  0  0  0
   62.9323   33.5941   49.0098 H   0  0  0  0  0  0  0  0  0  0  0  0
   62.5822   32.9264   46.0988 H   0  0  0  0  0  0  0  0  0  0  0  0
   63.8089   32.3256   47.2256 H   0  0  0  0  0  0  0  0  0  0  0  0
   61.5795   30.8613   46.3550 H   0  0  0  0  0  0  0  0  0  0  0  0
   62.4733   30.4877   47.8359 H   0  0  0  0  0  0  0  0  0  0  0  0
   60.8008   28.1015   48.5064 H   0  0  0  0  0  0  0  0  0  0  0  0
   58.0165   32.3853   42.6452 H   0  0  0  0  0  0  0  0  0  0  0  0
   59.2855   34.3564   43.5231 H   0  0  0  0  0  0  0  0  0  0  0  0
   58.0841   33.2907   47.5351 H   0  0  0  0  0  0  0  0  0  0  0  0
  1  2  2  0
  2  3  1  0
  3  4  1  0
  4  5  1  0
  5  6  2  0
  6  7  1  0
  7  8  1  0
  8  9  2  0
  8 10  1  0
 10 11  1  0
 11 12  1  0
 12 13  1  0
 13 14  1  0
  7 15  2  0
 15 16  1  0
  2 17  1  0
 17 18  2  0
 18 19  1  0
 19 20  2  0
 20 21  1  0
 20 22  1  0
 22 23  2  0
 16  5  1  0
 23 17  1  0
 14 10  1  0
  4 24  1  0
  4 25  1  0
  6 26  1  0
 11 27  1  0
 11 28  1  0
 12 29  1  0
 12 30  1  0
 13 31  1  0
 13 32  1  0
 14 33  1  0
 14 34  1  0
 15 35  1  0
 18 36  1  0
 19 37  1  0
 22 38  1  0
M  CHG  2   3  -1   6   1
M  END
>  <UniqueID>  (36) 
33

>  <SMILES>  (36) 
O=C([N-]Cc1[nH+]c(C(=O)N2CCCC2)cs1)c1ccc(Cl)cn1

>  <Energy>  (36) 
68.96783612081988

>  <Genealogy>  (36) 
O=C([N-]Cc1[nH+]c(C(=O)N2CCCC2)cs1)c1ccc(Cl)cn1 (protonated)
O=C([N-]Cc1[nH+]c(C(=O)N2CCCC2)cs1)c1ccc(Cl)cn1 (3D coordinates assigned)
O=C([N-]Cc1[nH+]c(C(=O)N2CCCC2)cs1)c1ccc(Cl)cn1 (nonaromatic ring conformer: 68.96783612081988 kcal/mol)

>  <smiles>  (36) 
O=C(NCc1nc(C(=O)N2CCCC2)cs1)c1ccc(Cl)cn1

>  <score_type>  (36) 
oracle

>  <origin>  (36) 
adg

>  <m_score__min__energy>  (36) 
-8.3800000000000008

>  <m_primary>  (36) 
energy

$$$$
36:0
     RDKit          3D

 45 47  0  0  0  0  0  0  0  0999 V2000
   59.1550   29.0320   48.2620 C   0  0  0  0  0  0  0  0  0  0  0  0
   59.9740   30.3050   48.4690 C   0  0  1  0  0  0  0  0  0  0  0  0
   60.2610   31.0080   47.1200 C   0  0  0  0  0  0  0  0  0  0  0  0
   60.3160   32.4800   47.2430 N   0  0  0  0  0  0  0  0  0  0  0  0
   58.7840   33.2250   46.8360 S   0  0  0  0  0  0  0  0  0  0  0  0
   57.7670   32.9460   47.9080 O   0  0  0  0  0  0  0  0  0  0  0  0
   58.9470   34.7120   46.6830 O   0  0  0  0  0  0  0  0  0  0  0  0
   58.2150   32.5680   45.3040 C   0  0  0  0  0  0  0  0  0  0  0  0
   58.5870   33.1790   44.1020 C   0  0  0  0  0  0  0  0  0  0  0  0
   58.1390   32.6630   42.8840 C   0  0  0  0  0  0  0  0  0  0  0  0
   57.3050   31.5420   42.8620 C   0  0  0  0  0  0  0  0  0  0  0  0
   56.9030   30.9330   44.0620 C   0  0  0  0  0  0  0  0  0  0  0  0
   56.0170   29.7460   44.0310 C   0  0  0  0  0  0  0  0  0  0  0  0
   55.5580   29.3490   42.9280 O   0  0  0  0  0  0  0  0  0  0  0  0
   55.6900   29.0050   45.2150 N   0  0  0  0  0  0  0  0  0  0  0  0
   56.2820   27.7600   45.6090 C   0  0  0  0  0  0  0  0  0  0  0  0
   57.6690   27.6130   45.5630 C   0  0  0  0  0  0  0  0  0  0  0  0
   58.2230   26.3870   45.9400 C   0  0  0  0  0  0  0  0  0  0  0  0
   59.4700   26.2210   45.9180 O   0  0  0  0  0  0  0  0  0  0  0  0
   57.4110   25.3690   46.3300 N   0  0  0  0  0  0  0  0  0  0  0  0
   56.0630   25.5250   46.3580 C   0  0  0  0  0  0  0  0  0  0  0  0
   55.3270   24.5710   46.7190 O   0  0  0  0  0  0  0  0  0  0  0  0
   55.5080   26.7100   45.9940 N   0  0  0  0  0  0  0  0  0  0  0  0
   57.3800   31.4430   45.2820 C   0  0  0  0  0  0  0  0  0  0  0  0
   60.8260   32.9250   48.5540 C   0  0  0  0  0  0  0  0  0  0  0  0
   60.1060   32.2340   49.7480 C   0  0  1  0  0  0  0  0  0  0  0  0
   59.2690   33.2360   50.5430 C   0  0  0  0  0  0  0  0  0  0  0  0
   59.2660   31.1710   49.3320 O   0  0  0  0  0  0  0  0  0  0  0  0
   58.8824   28.6083   49.2398 H   0  0  0  0  0  0  0  0  0  0  0  0
   58.2411   29.2715   47.6986 H   0  0  0  0  0  0  0  0  0  0  0  0
   59.7518   28.2996   47.6986 H   0  0  0  0  0  0  0  0  0  0  0  0
   60.9419   30.0393   48.9191 H   0  0  0  0  0  0  0  0  0  0  0  0
   59.4640   30.7440   46.4093 H   0  0  0  0  0  0  0  0  0  0  0  0
   61.2470   30.6671   46.7714 H   0  0  0  0  0  0  0  0  0  0  0  0
   59.2342   34.0684   44.1161 H   0  0  0  0  0  0  0  0  0  0  0  0
   58.4431   33.1398   41.9405 H   0  0  0  0  0  0  0  0  0  0  0  0
   56.9615   31.1344   41.8998 H   0  0  0  0  0  0  0  0  0  0  0  0
   58.3119   28.4440   45.2371 H   0  0  0  0  0  0  0  0  0  0  0  0
   57.0957   30.9554   46.2262 H   0  0  0  0  0  0  0  0  0  0  0  0
   60.6800   34.0121   48.6372 H   0  0  0  0  0  0  0  0  0  0  0  0
   61.8900   32.6507   48.6056 H   0  0  0  0  0  0  0  0  0  0  0  0
   60.9034   31.8227   50.3844 H   0  0  0  0  0  0  0  0  0  0  0  0
   59.4140   33.0624   51.6195 H   0  0  0  0  0  0  0  0  0  0  0  0
   59.5846   34.2591   50.2908 H   0  0  0  0  0  0  0  0  0  0  0  0
   58.2060   33.1075   50.2908 H   0  0  0  0  0  0  0  0  0  0  0  0
  1  2  1  0
  2  3  1  0
  3  4  1  0
  4  5  1  0
  5  6  2  0
  5  7  2  0
  5  8  1  0
  8  9  2  0
  9 10  1  0
 10 11  2  0
 11 12  1  0
 12 13  1  0
 13 14  2  0
 13 15  1  0
 15 16  1  0
 16 17  2  0
 17 18  1  0
 18 19  2  0
 18 20  1  0
 20 21  1  0
 21 22  2  0
 21 23  1  0
 12 24  2  0
  4 25  1  0
 25 26  1  0
 26 27  1  0
 26 28  1  0
 28  2  1  0
 24  8  1  0
 23 16  1  0
  1 29  1  0
  1 30  1  0
  1 31  1  0
  2 32  1  1
  3 33  1  0
  3 34  1  0
  9 35  1  0
 10 36  1  0
 11 37  1  0
 17 38  1  0
 24 39  1  0
 25 40  1  0
 25 41  1  0
 26 42  1  1
 27 43  1  0
 27 44  1  0
 27 45  1  0
M  CHG  3  15  -1  20  -1  23  -1
M  END
>  <UniqueID>  (37) 
34

>  <SMILES>  (37) 
C[C@@H]1CN(S(=O)(=O)c2cccc(C(=O)[N-]c3cc(=O)[n-]c(=O)[n-]3)c2)C[C@H](C)O1

>  <Energy>  (37) 
59.99913603286175

>  <Genealogy>  (37) 
CC1CN(S(=O)(=O)c2cccc(C(=O)[N-]c3cc(=O)[n-]c(=O)[n-]3)c2)CC(C)O1 (protonated)
C[C@@H]1CN(S(=O)(=O)c2cccc(C(=O)[N-]c3cc(=O)[n-]c(=O)[n-]3)c2)C[C@H](C)O1 (chirality)
C[C@@H]1CN(S(=O)(=O)c2cccc(C(=O)[N-]c3cc(=O)[n-]c(=O)[n-]3)c2)C[C@H](C)O1 (3D coordinates assigned)
C[C@@H]1CN(S(=O)(=O)c2cccc(C(=O)[N-]c3cc(=O)[n-]c(=O)[n-]3)c2)C[C@H](C)O1 (nonaromatic ring conformer: 59.99913603286175 kcal/mol)

>  <smiles>  (37) 
CC1CN(S(=O)(=O)c2cccc(C(=O)Nc3cc(=O)[nH]c(=O)[nH]3)c2)CC(C)O1

>  <score_type>  (37) 
oracle

>  <origin>  (37) 
adg

>  <m_score__min__energy>  (37) 
-15.02

>  <m_primary>  (37) 
energy

$$$$
37:0
     RDKit          3D

 67 71  0  0  1  0  0  0  0  0999 V2000
   58.9620   31.5010   49.6570 C   0  0  0  0  0  0  0  0  0  0  0  0
   58.8050   31.1550   48.2830 O   0  0  0  0  0  0  0  0  0  0  0  0
   59.1000   29.8650   47.8450 C   0  0  0  0  0  0  0  0  0  0  0  0
   60.0620   29.1250   48.5310 C   0  0  0  0  0  0  0  0  0  0  0  0
   60.3500   27.8410   48.0900 C   0  0  0  0  0  0  0  0  0  0  0  0
   59.7040   27.2840   46.9870 C   0  0  0  0  0  0  0  0  0  0  0  0
   58.7430   28.0410   46.3110 C   0  0  0  0  0  0  0  0  0  0  0  0
   60.1850   34.0840   46.5580 C   0  0  0  0  0  0  0  0  0  0  0  0
   62.5540   33.7330   49.7800 N   0  0  0  0  0  0  0  0  0  0  0  0
   61.8300   33.8340   48.7520 C   0  0  0  0  0  0  0  0  0  0  0  0
   60.5760   34.2970   48.8680 N   0  0  0  0  0  0  0  0  0  0  0  0
   57.7740   31.0470   45.2210 C   0  0  0  0  0  0  0  0  0  0  0  0
   57.4820   30.0890   46.0120 N   0  0  0  0  0  0  0  0  0  0  0  0
   58.4350   29.3410   46.7400 C   0  0  0  0  0  0  0  0  0  0  0  0
   61.4710   33.6050   46.4040 C   0  0  0  0  0  0  0  0  0  0  0  0
   57.4320   31.0120   43.8930 C   0  0  0  0  0  0  0  0  0  0  0  0
   58.7710   33.1430   44.9740 C   0  0  0  0  0  0  0  0  0  0  0  0
   59.3960   34.1840   45.3790 N   0  0  0  0  0  0  0  0  0  0  0  0
   63.2700   32.5450   50.1430 C   0  0  0  0  0  0  0  0  0  0  0  0
   64.6310   32.3500   49.5840 C   0  0  0  0  0  0  0  0  0  0  0  0
   65.4650   31.6380   50.6630 C   0  0  0  0  0  0  0  0  0  0  0  0
   64.6850   30.7330   51.4250 N   0  0  0  0  0  0  0  0  0  0  0  0
   65.3910   29.8550   52.2740 C   0  0  0  0  0  0  0  0  0  0  0  0
   66.1880   28.8170   51.5950 C   0  0  0  0  0  0  0  0  0  0  0  0
   67.3220   29.0440   50.8700 C   0  0  0  0  0  0  0  0  0  0  0  0
   68.0120   28.0130   50.2640 C   0  0  0  0  0  0  0  0  0  0  0  0
   67.5360   26.7040   50.3980 C   0  0  0  0  0  0  0  0  0  0  0  0
   66.3990   26.4560   51.1210 C   0  0  0  0  0  0  0  0  0  0  0  0
   65.7350   27.5020   51.7130 C   0  0  0  0  0  0  0  0  0  0  0  0
   63.4630   30.2650   50.8940 C   0  0  0  0  0  0  0  0  0  0  0  0
   62.4850   31.3290   50.4600 C   0  0  0  0  0  0  0  0  0  0  0  0
   58.4360   32.1020   45.7550 N   0  0  0  0  0  0  0  0  0  0  0  0
   59.7400   34.4320   47.8070 C   0  0  0  0  0  0  0  0  0  0  0  0
   58.4360   33.1170   43.6540 N   0  0  0  0  0  0  0  0  0  0  0  0
   57.7830   32.0870   43.1070 C   0  0  0  0  0  0  0  0  0  0  0  0
   62.2750   33.4850   47.4950 C   0  0  0  0  0  0  0  0  0  0  0  0
   56.5810   29.6760   43.1750 Cl  0  0  0  0  0  0  0  0  0  0  0  0
   58.5893   30.6797   50.2868 H   0  0  0  0  0  0  0  0  0  0  0  0
   60.0268   31.6740   49.8722 H   0  0  0  0  0  0  0  0  0  0  0  0
   58.3910   32.4162   49.8722 H   0  0  0  0  0  0  0  0  0  0  0  0
   60.5814   29.5496   49.4028 H   0  0  0  0  0  0  0  0  0  0  0  0
   61.1069   27.2478   48.6240 H   0  0  0  0  0  0  0  0  0  0  0  0
   59.9470   26.2642   46.6539 H   0  0  0  0  0  0  0  0  0  0  0  0
   58.2256   27.6156   45.4384 H   0  0  0  0  0  0  0  0  0  0  0  0
   60.1900   34.5770   49.8170 H   0  0  0  0  0  0  0  0  0  0  0  0
   61.8422   33.3229   45.4077 H   0  0  0  0  0  0  0  0  0  0  0  0
   63.2989   33.1025   47.3717 H   0  0  0  0  0  0  0  0  0  0  0  0
   63.5454   32.8482   51.1639 H   0  0  0  0  0  0  0  0  0  0  0  0
   64.5810   31.7309   48.6761 H   0  0  0  0  0  0  0  0  0  0  0  0
   65.0844   33.3145   49.3115 H   0  0  0  0  0  0  0  0  0  0  0  0
   66.2781   31.0816   50.1738 H   0  0  0  0  0  0  0  0  0  0  0  0
   65.8618   32.4035   51.3461 H   0  0  0  0  0  0  0  0  0  0  0  0
   66.0743   30.4570   52.8909 H   0  0  0  0  0  0  0  0  0  0  0  0
   64.6266   29.3168   52.8537 H   0  0  0  0  0  0  0  0  0  0  0  0
   67.6953   30.0735   50.7660 H   0  0  0  0  0  0  0  0  0  0  0  0
   68.9237   28.2179   49.6836 H   0  0  0  0  0  0  0  0  0  0  0  0
   68.0759   25.8723   49.9218 H   0  0  0  0  0  0  0  0  0  0  0  0
   66.0214   25.4282   51.2263 H   0  0  0  0  0  0  0  0  0  0  0  0
   64.8237   27.2987   52.2945 H   0  0  0  0  0  0  0  0  0  0  0  0
   63.6928   29.6404   50.0182 H   0  0  0  0  0  0  0  0  0  0  0  0
   62.9695   29.7222   51.7137 H   0  0  0  0  0  0  0  0  0  0  0  0
   61.9343   30.9934   49.5689 H   0  0  0  0  0  0  0  0  0  0  0  0
   61.7534   31.5338   51.2555 H   0  0  0  0  0  0  0  0  0  0  0  0
   58.7040   32.1420   46.7700 H   0  0  0  0  0  0  0  0  0  0  0  0
   58.7187   34.8157   47.9477 H   0  0  0  0  0  0  0  0  0  0  0  0
   58.6880   33.9150   43.0370 H   0  0  0  0  0  0  0  0  0  0  0  0
   57.5279   32.0979   42.0371 H   0  0  0  0  0  0  0  0  0  0  0  0
  1  2  1  0
  2  3  1  0
  3  4  2  0
  4  5  1  0
  5  6  2  0
  6  7  1  0
  7  8  2  0
  8  9  1  0
  9 10  2  0
 10 11  1  0
 11 12  1  0
 12 13  2  0
 13 14  1  0
 14 15  1  0
 15 16  2  0
 16 17  1  0
 17 18  2  0
 18 19  1  0
 19 20  1  0
 20 21  1  0
 21 22  1  0
 22 23  1  0
 23 24  1  0
 24 25  2  0
 25 26  1  0
 26 27  2  0
 27 28  1  0
 28 29  2  0
 22 30  1  0
 30 31  1  0
 17 32  1  0
 32 33  1  0
 12 34  1  0
 34 35  1  0
 35 36  2  0
 36 37  1  0
  8  3  1  0
 36 10  1  0
 33 14  2  0
 31 19  1  0
 29 24  1  0
  1 38  1  0
  1 39  1  0
  1 40  1  0
  4 41  1  0
  5 42  1  0
  6 43  1  0
  7 44  1  0
 11 45  1  0
 15 46  1  0
 16 47  1  0
 19 48  1  0
 20 49  1  0
 20 50  1  0
 21 51  1  0
 21 52  1  0
 23 53  1  0
 23 54  1  0
 25 55  1  0
 26 56  1  0
 27 57  1  0
 28 58  1  0
 29 59  1  0
 30 60  1  0
 30 61  1  0
 31 62  1  0
 31 63  1  0
 32 64  1  0
 33 65  1  0
 34 66  1  0
 35 67  1  0
M  END
>  <smiles>  (38) 
COc1ccccc1N=c1[nH]c(=Nc2ccc(=NC3CCN(Cc4ccccc4)CC3)[nH]c2)[nH]cc1Cl

>  <score_type>  (38) 
oracle

>  <origin>  (38) 
adg

>  <m_score__min__energy>  (38) 
-10.380000000000001

>  <m_primary>  (38) 
energy

$$$$
38:0
     RDKit          3D

 65 69  0  0  0  0  0  0  0  0999 V2000
   54.7630   20.6710   46.1620 C   0  0  0  0  0  0  0  0  0  0  0  0
   55.2090   21.3440   44.9920 O   0  0  0  0  0  0  0  0  0  0  0  0
   56.5060   21.8500   44.8150 C   0  0  0  0  0  0  0  0  0  0  0  0
   57.5500   21.0320   44.4860 N   0  0  0  0  0  0  0  0  0  0  0  0
   58.8060   21.5290   44.3380 C   0  0  0  0  0  0  0  0  0  0  0  0
   59.0440   22.8530   44.5110 N   0  0  0  0  0  0  0  0  0  0  0  0
   58.0410   23.7050   44.8340 C   0  0  0  0  0  0  0  0  0  0  0  0
   56.7370   23.2240   45.0010 C   0  0  0  0  0  0  0  0  0  0  0  0
   55.6430   24.1450   45.3830 C   0  0  0  0  0  0  0  0  0  0  0  0
   54.2950   23.9330   45.1840 C   0  0  0  0  0  0  0  0  0  0  0  0
   53.6130   25.0310   45.5530 N   0  0  0  0  0  0  0  0  0  0  0  0
   54.4760   25.9380   45.9900 N   0  0  0  0  0  0  0  0  0  0  0  0
   55.7210   25.4300   45.9030 C   0  0  0  0  0  0  0  0  0  0  0  0
   56.9260   26.1560   46.3710 C   0  0  0  0  0  0  0  0  0  0  0  0
   57.7010   25.6320   47.4130 C   0  0  0  0  0  0  0  0  0  0  0  0
   58.8410   26.3060   47.8550 C   0  0  0  0  0  0  0  0  0  0  0  0
   59.2280   27.5250   47.2720 C   0  0  0  0  0  0  0  0  0  0  0  0
   60.4430   28.2350   47.8050 C   0  0  0  0  0  0  0  0  0  0  0  0
   58.4630   28.0500   46.2010 C   0  0  0  0  0  0  0  0  0  0  0  0
   58.7870   29.3250   45.5250 C   0  0  0  0  0  0  0  0  0  0  0  0
   59.9540   29.5530   45.1040 O   0  0  0  0  0  0  0  0  0  0  0  0
   57.7570   30.3120   45.3610 N   0  0  0  0  0  0  0  0  0  0  0  0
   57.9150   31.6050   45.3400 C   0  0  0  0  0  0  0  0  0  0  0  0
   58.5620   32.3050   46.3780 C   0  0  0  0  0  0  0  0  0  0  0  0
   58.7660   33.6880   46.2680 C   0  0  0  0  0  0  0  0  0  0  0  0
   59.4630   34.4310   47.3420 C   0  0  0  0  0  0  0  0  0  0  0  0
   58.8900   35.4090   47.8990 O   0  0  0  0  0  0  0  0  0  0  0  0
   60.7700   34.0300   47.7870 N   0  0  0  0  0  0  0  0  0  0  0  0
   61.8720   33.9220   46.8270 C   0  0  0  0  0  0  0  0  0  0  0  0
   62.8200   32.8000   47.2570 C   0  0  0  0  0  0  0  0  0  0  0  0
   63.2540   33.0090   48.6530 N   0  0  0  0  0  0  0  0  0  0  0  0
   64.2140   31.9650   49.0390 C   0  0  0  0  0  0  0  0  0  0  0  0
   62.0910   32.9830   49.5630 C   0  0  0  0  0  0  0  0  0  0  0  0
   61.1120   34.1060   49.2090 C   0  0  0  0  0  0  0  0  0  0  0  0
   58.2900   34.3570   45.1300 C   0  0  0  0  0  0  0  0  0  0  0  0
   57.6560   33.6330   44.1200 C   0  0  0  0  0  0  0  0  0  0  0  0
   57.4910   32.2910   44.2440 N   0  0  0  0  0  0  0  0  0  0  0  0
   57.3350   27.3460   45.7530 C   0  0  0  0  0  0  0  0  0  0  0  0
   55.1195   21.2089   47.0528 H   0  0  0  0  0  0  0  0  0  0  0  0
   53.6635   20.6378   46.1693 H   0  0  0  0  0  0  0  0  0  0  0  0
   55.1609   19.6455   46.1693 H   0  0  0  0  0  0  0  0  0  0  0  0
   57.4090   20.0090   44.3440 H   0  0  0  0  0  0  0  0  0  0  0  0
   59.6342   20.8539   44.0765 H   0  0  0  0  0  0  0  0  0  0  0  0
   58.2519   24.7766   44.9652 H   0  0  0  0  0  0  0  0  0  0  0  0
   53.8480   23.0102   44.7858 H   0  0  0  0  0  0  0  0  0  0  0  0
   57.4096   24.6829   47.8865 H   0  0  0  0  0  0  0  0  0  0  0  0
   59.4437   25.8778   48.6695 H   0  0  0  0  0  0  0  0  0  0  0  0
   60.4219   28.2227   48.9047 H   0  0  0  0  0  0  0  0  0  0  0  0
   61.3508   27.7252   47.4499 H   0  0  0  0  0  0  0  0  0  0  0  0
   60.4445   29.2761   47.4499 H   0  0  0  0  0  0  0  0  0  0  0  0
   58.9066   31.7671   47.2735 H   0  0  0  0  0  0  0  0  0  0  0  0
   61.4674   33.6970   45.8292 H   0  0  0  0  0  0  0  0  0  0  0  0
   62.4231   34.8735   46.7952 H   0  0  0  0  0  0  0  0  0  0  0  0
   62.2996   31.8341   47.1786 H   0  0  0  0  0  0  0  0  0  0  0  0
   63.7031   32.8039   46.6012 H   0  0  0  0  0  0  0  0  0  0  0  0
   64.2691   31.9050   50.1360 H   0  0  0  0  0  0  0  0  0  0  0  0
   63.8845   30.9964   48.6349 H   0  0  0  0  0  0  0  0  0  0  0  0
   65.2068   32.2123   48.6349 H   0  0  0  0  0  0  0  0  0  0  0  0
   61.5796   32.0135   49.4702 H   0  0  0  0  0  0  0  0  0  0  0  0
   62.4420   33.1275   50.5954 H   0  0  0  0  0  0  0  0  0  0  0  0
   60.1980   33.9983   49.8115 H   0  0  0  0  0  0  0  0  0  0  0  0
   61.5801   35.0787   49.4205 H   0  0  0  0  0  0  0  0  0  0  0  0
   58.4160   35.4456   45.0349 H   0  0  0  0  0  0  0  0  0  0  0  0
   57.2890   34.1504   43.2213 H   0  0  0  0  0  0  0  0  0  0  0  0
   56.7602   27.7356   44.8999 H   0  0  0  0  0  0  0  0  0  0  0  0
  1  2  1  0
  2  3  1  0
  3  4  2  0
  4  5  1  0
  5  6  2  0
  6  7  1  0
  7  8  2  0
  8  9  1  0
  9 10  1  0
 10 11  2  0
 11 12  1  0
 12 13  1  0
 13 14  1  0
 14 15  2  0
 15 16  1  0
 16 17  2  0
 17 18  1  0
 17 19  1  0
 19 20  1  0
 20 21  2  0
 20 22  1  0
 22 23  2  3
 23 24  1  0
 24 25  2  0
 25 26  1  0
 26 27  2  0
 26 28  1  0
 28 29  1  0
 29 30  1  0
 30 31  1  0
 31 32  1  0
 31 33  1  0
 33 34  1  0
 25 35  1  0
 35 36  2  0
 36 37  1  0
 19 38  2  0
  8  3  1  0
 13  9  2  0
 38 14  1  0
 37 23  1  0
 34 28  1  0
  1 39  1  0
  1 40  1  0
  1 41  1  0
  4 42  1  0
  5 43  1  0
  7 44  1  0
 10 45  1  0
 15 46  1  0
 16 47  1  0
 18 48  1  0
 18 49  1  0
 18 50  1  0
 24 51  1  0
 29 52  1  0
 29 53  1  0
 30 54  1  0
 30 55  1  0
 32 56  1  0
 32 57  1  0
 32 58  1  0
 33 59  1  0
 33 60  1  0
 34 61  1  0
 34 62  1  0
 35 63  1  0
 36 64  1  0
 38 65  1  0
M  CHG  3   4   1  12  -1  37  -1
M  END
>  <UniqueID>  (39) 
35

>  <SMILES>  (39) 
COc1[nH+]cncc1-c1cn[n-]c1-c1ccc(C)c(C(=O)N=c2cc(C(=O)N3CCN(C)CC3)cc[n-]2)c1

>  <Energy>  (39) 
122.2405048538956

>  <Genealogy>  (39) 
COc1[nH+]cncc1-c1cn[n-]c1-c1ccc(C)c(C(=O)N=c2cc(C(=O)N3CCN(C)CC3)cc[n-]2)c1 (protonated)
COc1[nH+]cncc1-c1cn[n-]c1-c1ccc(C)c(C(=O)N=c2cc(C(=O)N3CCN(C)CC3)cc[n-]2)c1 (3D coordinates assigned)
COc1[nH+]cncc1-c1cn[n-]c1-c1ccc(C)c(C(=O)N=c2cc(C(=O)N3CCN(C)CC3)cc[n-]2)c1 (nonaromatic ring conformer: 122.2405048538956 kcal/mol)

>  <smiles>  (39) 
COc1ncncc1-c1cn[nH]c1-c1ccc(C)c(C(=O)N=c2cc(C(=O)N3CCN(C)CC3)cc[nH]2)c1

>  <score_type>  (39) 
oracle

>  <origin>  (39) 
adg

>  <m_score__min__energy>  (39) 
-13.25

>  <m_primary>  (39) 
energy

$$$$
39:0
     RDKit          3D

 52 55  0  0  0  0  0  0  0  0999 V2000
   56.9890   20.3450   43.5190 H   0  0  0  0  0  0  0  0  0  0  0  0
   56.2580   21.0210   43.3320 O   0  0  0  0  0  0  0  0  0  0  0  0
   56.1560   22.2030   44.0620 C   0  0  0  0  0  0  0  0  0  0  0  0
   55.4130   22.2220   45.2460 C   0  0  0  0  0  0  0  0  0  0  0  0
   54.9127   21.3060   45.5934 H   0  0  0  0  0  0  0  0  0  0  0  0
   55.3030   23.4010   45.9910 C   0  0  0  0  0  0  0  0  0  0  0  0
   54.7026   23.4135   46.9126 H   0  0  0  0  0  0  0  0  0  0  0  0
   55.9590   24.5720   45.5640 C   0  0  0  0  0  0  0  0  0  0  0  0
   55.8440   25.8150   46.2770 N   0  0  0  0  0  0  0  0  0  0  0  0
   56.4690   26.9270   46.0210 C   0  0  0  0  0  0  0  0  0  0  0  0
   57.6870   27.1420   46.5790 N   0  0  0  0  0  0  0  0  0  0  0  0
   58.3720   28.3000   46.3710 C   0  0  0  0  0  0  0  0  0  0  0  0
   59.6280   28.4960   46.9600 O   0  0  0  0  0  0  0  0  0  0  0  0
   59.8260   29.3180   48.0750 C   0  0  0  0  0  0  0  0  0  0  0  0
   59.1890   28.9780   49.2730 C   0  0  0  0  0  0  0  0  0  0  0  0
   58.5862   28.0596   49.3298 H   0  0  0  0  0  0  0  0  0  0  0  0
   59.3130   29.7950   50.3950 C   0  0  0  0  0  0  0  0  0  0  0  0
   58.8115   29.5182   51.3341 H   0  0  0  0  0  0  0  0  0  0  0  0
   60.0720   30.9630   50.3290 C   0  0  0  0  0  0  0  0  0  0  0  0
   60.1553   31.6109   51.2140 H   0  0  0  0  0  0  0  0  0  0  0  0
   60.7310   31.3180   49.1400 C   0  0  0  0  0  0  0  0  0  0  0  0
   61.5160   32.5200   49.0730 N   0  0  0  0  0  0  0  0  0  0  0  0
   61.0600   33.7920   48.5930 C   0  0  0  0  0  0  0  0  0  0  0  0
   61.6100   34.8350   49.0360 O   0  0  0  0  0  0  0  0  0  0  0  0
   60.0010   33.9070   47.5630 C   0  0  0  0  0  0  0  0  0  0  0  0
   60.2780   34.5270   46.3320 C   0  0  0  0  0  0  0  0  0  0  0  0
   61.2829   34.9296   46.1368 H   0  0  0  0  0  0  0  0  0  0  0  0
   59.2850   34.6350   45.3550 C   0  0  0  0  0  0  0  0  0  0  0  0
   59.5081   35.1286   44.3976 H   0  0  0  0  0  0  0  0  0  0  0  0
   58.0090   34.1170   45.5920 C   0  0  0  0  0  0  0  0  0  0  0  0
   57.2271   34.2070   44.8235 H   0  0  0  0  0  0  0  0  0  0  0  0
   57.7270   33.4850   46.8050 C   0  0  0  0  0  0  0  0  0  0  0  0
   56.7236   33.0737   46.9894 H   0  0  0  0  0  0  0  0  0  0  0  0
   58.7180   33.3740   47.7860 C   0  0  0  0  0  0  0  0  0  0  0  0
   58.4932   32.8676   48.7363 H   0  0  0  0  0  0  0  0  0  0  0  0
   60.6530   30.4660   48.0160 C   0  0  0  0  0  0  0  0  0  0  0  0
   61.4080   30.8100   46.7570 C   0  0  0  0  0  0  0  0  0  0  0  0
   62.3796   31.2527   47.0215 H   0  0  0  0  0  0  0  0  0  0  0  0
   61.5700   29.8968   46.1655 H   0  0  0  0  0  0  0  0  0  0  0  0
   60.8252   31.5314   46.1655 H   0  0  0  0  0  0  0  0  0  0  0  0
   57.8190   29.2940   45.5530 C   0  0  0  0  0  0  0  0  0  0  0  0
   58.5410   30.5900   45.3150 C   0  0  0  0  0  0  0  0  0  0  0  0
   58.7971   31.0498   46.2809 H   0  0  0  0  0  0  0  0  0  0  0  0
   59.4618   30.3974   44.7449 H   0  0  0  0  0  0  0  0  0  0  0  0
   57.8926   31.2716   44.7449 H   0  0  0  0  0  0  0  0  0  0  0  0
   56.5530   29.0650   45.0020 C   0  0  0  0  0  0  0  0  0  0  0  0
   56.0814   29.8322   44.3704 H   0  0  0  0  0  0  0  0  0  0  0  0
   55.9060   27.8950   45.2470 N   0  0  0  0  0  0  0  0  0  0  0  0
   56.6760   24.5530   44.3600 C   0  0  0  0  0  0  0  0  0  0  0  0
   57.1565   25.4732   43.9961 H   0  0  0  0  0  0  0  0  0  0  0  0
   56.7850   23.3730   43.6180 C   0  0  0  0  0  0  0  0  0  0  0  0
   57.3658   23.3635   42.6839 H   0  0  0  0  0  0  0  0  0  0  0  0
  1  2  1  0
  2  3  1  0
  3  4  2  0
  4  5  1  0
  4  6  1  0
  6  7  1  0
  6  8  2  0
  8  9  1  0
  9 10  2  0
 10 11  1  0
 11 12  2  0
 12 13  1  0
 13 14  1  0
 14 15  2  0
 15 16  1  0
 15 17  1  0
 17 18  1  0
 17 19  2  0
 19 20  1  0
 19 21  1  0
 21 22  1  0
 22 23  1  0
 23 24  2  0
 23 25  1  0
 25 26  2  0
 26 27  1  0
 26 28  1  0
 28 29  1  0
 28 30  2  0
 30 31  1  0
 30 32  1  0
 32 33  1  0
 32 34  2  0
 34 35  1  0
 21 36  2  0
 36 37  1  0
 37 38  1  0
 37 39  1  0
 37 40  1  0
 12 41  1  0
 41 42  1  0
 42 43  1  0
 42 44  1  0
 42 45  1  0
 41 46  2  0
 46 47  1  0
 46 48  1  0
  8 49  1  0
 49 50  1  0
 49 51  2  0
 51 52  1  0
 51  3  1  0
 48 10  1  0
 36 14  1  0
 34 25  1  0
M  CHG  2  22  -1  48  -1
M  END
>  <UniqueID>  (40) 
36

>  <SMILES>  (40) 
Cc1c[n-]/c(=N\c2ccc(O)cc2)nc1Oc1cccc([N-]C(=O)c2ccccc2)c1C

>  <Energy>  (40) 
77.48942067809735

>  <Genealogy>  (40) 
Cc1c[n-]c(=Nc2ccc(O)cc2)nc1Oc1cccc([N-]C(=O)c2ccccc2)c1C (protonated)
Cc1c[n-]/c(=N\c2ccc(O)cc2)nc1Oc1cccc([N-]C(=O)c2ccccc2)c1C (cis-trans isomerization)
Cc1c[n-]/c(=N\c2ccc(O)cc2)nc1Oc1cccc([N-]C(=O)c2ccccc2)c1C (3D coordinates assigned)
Cc1c[n-]/c(=N\c2ccc(O)cc2)nc1Oc1cccc([N-]C(=O)c2ccccc2)c1C (optimized conformer: 77.48942067809735 kcal/mol)

>  <smiles>  (40) 
Cc1c[nH]c(=Nc2ccc(O)cc2)nc1Oc1cccc(NC(=O)c2ccccc2)c1C

>  <score_type>  (40) 
oracle

>  <origin>  (40) 
adg

>  <m_score__min__energy>  (40) 
-12.25

>  <m_primary>  (40) 
energy

$$$$
40:0
     RDKit          3D

 49 53  0  0  0  0  0  0  0  0999 V2000
   55.1200   29.3430   44.6700 N   0  0  0  0  0  0  0  0  0  0  0  0
   56.4120   29.9140   44.8740 C   0  0  0  0  0  0  0  0  0  0  0  0
   57.0760   29.5830   45.8930 O   0  0  0  0  0  0  0  0  0  0  0  0
   56.9970   30.8470   43.8780 C   0  0  0  0  0  0  0  0  0  0  0  0
   56.6430   30.6900   42.5250 C   0  0  0  0  0  0  0  0  0  0  0  0
   57.0980   31.5880   41.5580 C   0  0  0  0  0  0  0  0  0  0  0  0
   57.9130   32.6570   41.9250 C   0  0  0  0  0  0  0  0  0  0  0  0
   58.2920   32.8210   43.2570 C   0  0  0  0  0  0  0  0  0  0  0  0
   57.8600   31.9170   44.2440 C   0  0  0  0  0  0  0  0  0  0  0  0
   58.4000   32.0760   45.6150 C   0  0  0  0  0  0  0  0  0  0  0  0
   57.7010   32.8340   46.5680 C   0  0  0  0  0  0  0  0  0  0  0  0
   58.1720   32.9250   47.8800 C   0  0  0  0  0  0  0  0  0  0  0  0
   59.3360   32.2390   48.2660 C   0  0  0  0  0  0  0  0  0  0  0  0
   59.7650   32.2260   49.7090 C   0  0  0  0  0  0  0  0  0  0  0  0
   58.8240   30.9850   50.6750 S   0  0  0  0  0  0  0  0  0  0  0  0
   59.2480   29.6070   49.6110 C   0  0  0  0  0  0  0  0  0  0  0  0
   60.2550   28.7470   49.8460 N   0  0  0  0  0  0  0  0  0  0  0  0
   60.2000   27.8450   48.8780 N   0  0  0  0  0  0  0  0  0  0  0  0
   59.1590   28.1950   48.0940 C   0  0  0  0  0  0  0  0  0  0  0  0
   58.7030   27.4430   46.9160 C   0  0  0  0  0  0  0  0  0  0  0  0
   59.2050   27.7220   45.6350 C   0  0  0  0  0  0  0  0  0  0  0  0
   58.7740   26.9630   44.5450 C   0  0  0  0  0  0  0  0  0  0  0  0
   57.8430   25.9350   44.7360 C   0  0  0  0  0  0  0  0  0  0  0  0
   57.3890   25.1520   43.6630 C   0  0  0  0  0  0  0  0  0  0  0  0
   56.4590   24.1330   43.8870 C   0  0  0  0  0  0  0  0  0  0  0  0
   55.9710   23.8970   45.1770 C   0  0  0  0  0  0  0  0  0  0  0  0
   56.4130   24.6750   46.2500 C   0  0  0  0  0  0  0  0  0  0  0  0
   57.3530   25.6890   46.0370 C   0  0  0  0  0  0  0  0  0  0  0  0
   57.7960   26.4400   47.0810 N   0  0  0  0  0  0  0  0  0  0  0  0
   58.5790   29.2830   48.5340 O   0  0  0  0  0  0  0  0  0  0  0  0
   60.0370   31.4860   47.3130 C   0  0  0  0  0  0  0  0  0  0  0  0
   59.5730   31.4030   45.9970 C   0  0  0  0  0  0  0  0  0  0  0  0
   54.3930   29.3770   45.4180 H   0  0  0  0  0  0  0  0  0  0  0  0
   55.9998   29.8493   42.2258 H   0  0  0  0  0  0  0  0  0  0  0  0
   56.8127   31.4515   40.5044 H   0  0  0  0  0  0  0  0  0  0  0  0
   58.2577   33.3721   41.1635 H   0  0  0  0  0  0  0  0  0  0  0  0
   58.9361   33.6670   43.5389 H   0  0  0  0  0  0  0  0  0  0  0  0
   56.7781   33.3587   46.2801 H   0  0  0  0  0  0  0  0  0  0  0  0
   57.6287   33.5370   48.6150 H   0  0  0  0  0  0  0  0  0  0  0  0
   60.8365   31.9831   49.7617 H   0  0  0  0  0  0  0  0  0  0  0  0
   59.5686   33.2199   50.1376 H   0  0  0  0  0  0  0  0  0  0  0  0
   59.9334   28.5335   45.4908 H   0  0  0  0  0  0  0  0  0  0  0  0
   59.1651   27.1724   43.5384 H   0  0  0  0  0  0  0  0  0  0  0  0
   57.7649   25.3403   42.6465 H   0  0  0  0  0  0  0  0  0  0  0  0
   56.1097   23.5148   43.0469 H   0  0  0  0  0  0  0  0  0  0  0  0
   55.2366   23.0959   45.3469 H   0  0  0  0  0  0  0  0  0  0  0  0
   56.0222   24.4904   47.2615 H   0  0  0  0  0  0  0  0  0  0  0  0
   60.9573   30.9576   47.6027 H   0  0  0  0  0  0  0  0  0  0  0  0
   60.1286   30.8082   45.2571 H   0  0  0  0  0  0  0  0  0  0  0  0
  1  2  1  0
  2  3  2  0
  2  4  1  0
  4  5  2  0
  5  6  1  0
  6  7  2  0
  7  8  1  0
  8  9  2  0
  9 10  1  0
 10 11  2  0
 11 12  1  0
 12 13  2  0
 13 14  1  0
 14 15  1  0
 15 16  1  0
 16 17  2  0
 17 18  1  0
 18 19  2  0
 19 20  1  0
 20 21  2  0
 21 22  1  0
 22 23  2  0
 23 24  1  0
 24 25  2  0
 25 26  1  0
 26 27  2  0
 27 28  1  0
 28 29  2  0
 19 30  1  0
 13 31  1  0
 31 32  2  0
  9  4  1  0
 32 10  1  0
 30 16  1  0
 29 20  1  0
 28 23  1  0
  1 33  1  0
  5 34  1  0
  6 35  1  0
  7 36  1  0
  8 37  1  0
 11 38  1  0
 12 39  1  0
 14 40  1  0
 14 41  1  0
 21 42  1  0
 22 43  1  0
 24 44  1  0
 25 45  1  0
 26 46  1  0
 27 47  1  0
 31 48  1  0
 32 49  1  0
M  CHG  1   1  -1
M  END
>  <UniqueID>  (41) 
37

>  <SMILES>  (41) 
[NH-]C(=O)c1ccccc1-c1ccc(CSc2nnc(-c3ccc4ccccc4n3)o2)cc1

>  <Energy>  (41) 
96.58684968297503

>  <Genealogy>  (41) 
[NH-]C(=O)c1ccccc1-c1ccc(CSc2nnc(-c3ccc4ccccc4n3)o2)cc1 (protonated)
[NH-]C(=O)c1ccccc1-c1ccc(CSc2nnc(-c3ccc4ccccc4n3)o2)cc1 (3D coordinates assigned)
[NH-]C(=O)c1ccccc1-c1ccc(CSc2nnc(-c3ccc4ccccc4n3)o2)cc1 (optimized conformer: 96.58684968297503 kcal/mol)

>  <smiles>  (41) 
NC(=O)c1ccccc1-c1ccc(CSc2nnc(-c3ccc4ccccc4n3)o2)cc1

>  <score_type>  (41) 
oracle

>  <origin>  (41) 
adg

>  <m_score__min__energy>  (41) 
-13.66

>  <m_primary>  (41) 
energy

$$$$
41:0
     RDKit          3D

 52 54  0  0  0  0  0  0  0  0999 V2000
   59.6190   35.5750   45.3460 C   0  0  0  0  0  0  0  0  0  0  0  0
   60.0480   34.6580   46.4540 C   0  0  0  0  0  0  0  0  0  0  0  0
   59.1870   34.3850   47.5250 C   0  0  0  0  0  0  0  0  0  0  0  0
   59.6010   33.5580   48.5680 C   0  0  0  0  0  0  0  0  0  0  0  0
   60.8890   32.9970   48.5700 C   0  0  0  0  0  0  0  0  0  0  0  0
   61.3760   31.9770   49.9350 S   0  0  0  0  0  0  0  0  0  0  0  0
   62.8150   32.2340   50.2980 O   0  0  0  0  0  0  0  0  0  0  0  0
   60.5210   32.2970   51.1300 O   0  0  0  0  0  0  0  0  0  0  0  0
   61.1760   30.3050   49.5060 N   0  0  0  0  0  0  0  0  0  0  0  0
   61.4610   30.1140   48.0820 C   0  0  0  0  0  0  0  0  0  0  0  0
   60.2620   29.5010   47.4170 C   0  0  0  0  0  0  0  0  0  0  0  0
   59.3470   28.7470   48.1640 C   0  0  0  0  0  0  0  0  0  0  0  0
   58.1840   28.2550   47.5640 C   0  0  0  0  0  0  0  0  0  0  0  0
   57.9190   28.5230   46.2150 C   0  0  0  0  0  0  0  0  0  0  0  0
   56.6510   28.0970   45.6010 C   0  0  0  0  0  0  0  0  0  0  0  0
   56.4030   26.8660   45.5010 O   0  0  0  0  0  0  0  0  0  0  0  0
   55.7190   29.0430   45.0570 N   0  0  0  0  0  0  0  0  0  0  0  0
   55.7810   29.6380   43.7220 C   0  0  0  0  0  0  0  0  0  0  0  0
   56.7050   30.8290   43.6910 C   0  0  0  0  0  0  0  0  0  0  0  0
   56.9690   31.5550   44.8640 C   0  0  0  0  0  0  0  0  0  0  0  0
   57.7920   32.6830   44.8230 C   0  0  0  0  0  0  0  0  0  0  0  0
   58.3680   33.0890   43.6170 C   0  0  0  0  0  0  0  0  0  0  0  0
   58.1220   32.3640   42.4470 C   0  0  0  0  0  0  0  0  0  0  0  0
   57.2990   31.2350   42.4840 C   0  0  0  0  0  0  0  0  0  0  0  0
   58.8430   29.2580   45.4620 C   0  0  0  0  0  0  0  0  0  0  0  0
   60.0020   29.7560   46.0620 C   0  0  0  0  0  0  0  0  0  0  0  0
   61.7730   33.2860   47.5010 C   0  0  0  0  0  0  0  0  0  0  0  0
   63.1700   32.7260   47.4580 C   0  0  0  0  0  0  0  0  0  0  0  0
   61.3420   34.1200   46.4550 C   0  0  0  0  0  0  0  0  0  0  0  0
   59.1898   36.4925   45.7749 H   0  0  0  0  0  0  0  0  0  0  0  0
   60.4899   35.8329   44.7255 H   0  0  0  0  0  0  0  0  0  0  0  0
   58.8629   35.0717   44.7255 H   0  0  0  0  0  0  0  0  0  0  0  0
   58.1792   34.8255   47.5429 H   0  0  0  0  0  0  0  0  0  0  0  0
   58.9121   33.3424   49.3980 H   0  0  0  0  0  0  0  0  0  0  0  0
   61.8790   29.7580   50.0570 H   0  0  0  0  0  0  0  0  0  0  0  0
   61.6827   31.0861   47.6174 H   0  0  0  0  0  0  0  0  0  0  0  0
   62.3294   29.4491   47.9645 H   0  0  0  0  0  0  0  0  0  0  0  0
   59.5445   28.5415   49.2264 H   0  0  0  0  0  0  0  0  0  0  0  0
   57.4747   27.6554   48.1533 H   0  0  0  0  0  0  0  0  0  0  0  0
   56.1469   28.8830   43.0106 H   0  0  0  0  0  0  0  0  0  0  0  0
   54.7711   29.9770   43.4477 H   0  0  0  0  0  0  0  0  0  0  0  0
   56.5261   31.2342   45.8184 H   0  0  0  0  0  0  0  0  0  0  0  0
   57.9870   33.2532   45.7432 H   0  0  0  0  0  0  0  0  0  0  0  0
   59.0146   33.9784   43.5877 H   0  0  0  0  0  0  0  0  0  0  0  0
   58.5764   32.6823   41.4971 H   0  0  0  0  0  0  0  0  0  0  0  0
   57.1153   30.6613   41.5636 H   0  0  0  0  0  0  0  0  0  0  0  0
   58.6555   29.4439   44.3942 H   0  0  0  0  0  0  0  0  0  0  0  0
   60.7135   30.3503   45.4699 H   0  0  0  0  0  0  0  0  0  0  0  0
   63.5377   32.5786   48.4842 H   0  0  0  0  0  0  0  0  0  0  0  0
   63.1623   31.7615   46.9292 H   0  0  0  0  0  0  0  0  0  0  0  0
   63.8306   33.4288   46.9292 H   0  0  0  0  0  0  0  0  0  0  0  0
   62.0283   34.3531   45.6276 H   0  0  0  0  0  0  0  0  0  0  0  0
  1  2  1  0
  2  3  2  0
  3  4  1  0
  4  5  2  0
  5  6  1  0
  6  7  2  0
  6  8  2  0
  6  9  1  0
  9 10  1  0
 10 11  1  0
 11 12  2  0
 12 13  1  0
 13 14  2  0
 14 15  1  0
 15 16  2  0
 15 17  1  0
 17 18  1  0
 18 19  1  0
 19 20  2  0
 20 21  1  0
 21 22  2  0
 22 23  1  0
 23 24  2  0
 14 25  1  0
 25 26  2  0
  5 27  1  0
 27 28  1  0
 27 29  2  0
 29  2  1  0
 26 11  1  0
 24 19  1  0
  1 30  1  0
  1 31  1  0
  1 32  1  0
  3 33  1  0
  4 34  1  0
  9 35  1  0
 10 36  1  0
 10 37  1  0
 12 38  1  0
 13 39  1  0
 18 40  1  0
 18 41  1  0
 20 42  1  0
 21 43  1  0
 22 44  1  0
 23 45  1  0
 24 46  1  0
 25 47  1  0
 26 48  1  0
 28 49  1  0
 28 50  1  0
 28 51  1  0
 29 52  1  0
M  CHG  1  17  -1
M  END
>  <UniqueID>  (42) 
38

>  <SMILES>  (42) 
Cc1ccc(S(=O)(=O)NCc2ccc(C(=O)[N-]Cc3ccccc3)cc2)c(C)c1

>  <Energy>  (42) 
52.14297860866615

>  <Genealogy>  (42) 
Cc1ccc(S(=O)(=O)NCc2ccc(C(=O)[N-]Cc3ccccc3)cc2)c(C)c1 (protonated)
Cc1ccc(S(=O)(=O)NCc2ccc(C(=O)[N-]Cc3ccccc3)cc2)c(C)c1 (3D coordinates assigned)
Cc1ccc(S(=O)(=O)NCc2ccc(C(=O)[N-]Cc3ccccc3)cc2)c(C)c1 (optimized conformer: 52.14297860866615 kcal/mol)

>  <smiles>  (42) 
Cc1ccc(S(=O)(=O)NCc2ccc(C(=O)NCc3ccccc3)cc2)c(C)c1

>  <score_type>  (42) 
oracle

>  <origin>  (42) 
adg

>  <m_score__min__energy>  (42) 
-11.48

>  <m_primary>  (42) 
energy

$$$$
42:0
     RDKit          3D

 48 50  0  0  0  0  0  0  0  0999 V2000
   60.7250   29.3520   45.2180 C   0  0  0  0  0  0  0  0  0  0  0  0
   59.2840   29.5190   44.8330 C   0  0  0  0  0  0  0  0  0  0  0  0
   58.6080   28.4960   44.1500 C   0  0  0  0  0  0  0  0  0  0  0  0
   57.2790   28.6740   43.7580 C   0  0  0  0  0  0  0  0  0  0  0  0
   56.6160   29.8710   44.0410 C   0  0  0  0  0  0  0  0  0  0  0  0
   57.2820   30.9020   44.7280 C   0  0  0  0  0  0  0  0  0  0  0  0
   56.6410   32.1550   45.0090 N   0  0  0  0  0  0  0  0  0  0  0  0
   57.2990   33.3640   45.4130 C   0  0  0  0  0  0  0  0  0  0  0  0
   57.0350   34.4300   44.7970 O   0  0  0  0  0  0  0  0  0  0  0  0
   58.3100   33.3900   46.4900 C   0  0  0  0  0  0  0  0  0  0  0  0
   59.4830   34.1420   46.3790 C   0  0  0  0  0  0  0  0  0  0  0  0
   60.3860   34.1530   47.4370 C   0  0  0  0  0  0  0  0  0  0  0  0
   60.0990   33.4240   48.5910 C   0  0  0  0  0  0  0  0  0  0  0  0
   60.9100   33.4460   49.5550 O   0  0  0  0  0  0  0  0  0  0  0  0
   58.9380   32.7000   48.6620 N   0  0  0  0  0  0  0  0  0  0  0  0
   58.5770   31.9500   49.8690 C   0  0  0  0  0  0  0  0  0  0  0  0
   58.5830   30.4800   49.5780 C   0  0  0  0  0  0  0  0  0  0  0  0
   58.5030   29.6620   50.5330 O   0  0  0  0  0  0  0  0  0  0  0  0
   58.5930   30.0210   48.2170 N   0  0  0  0  0  0  0  0  0  0  0  0
   58.7500   28.6460   47.8270 C   0  0  0  0  0  0  0  0  0  0  0  0
   59.9430   27.9770   48.1350 C   0  0  0  0  0  0  0  0  0  0  0  0
   60.1110   26.6340   47.7900 C   0  0  0  0  0  0  0  0  0  0  0  0
   59.0830   25.9420   47.1460 C   0  0  0  0  0  0  0  0  0  0  0  0
   57.8790   26.5920   46.8460 C   0  0  0  0  0  0  0  0  0  0  0  0
   56.5660   25.7130   46.0670 S   0  0  0  0  0  0  0  0  0  0  0  0
   55.1450   26.6960   46.0450 N   0  0  0  0  0  0  0  0  0  0  0  0
   56.9550   25.3650   44.6580 O   0  0  0  0  0  0  0  0  0  0  0  0
   56.2850   24.4420   46.8180 O   0  0  0  0  0  0  0  0  0  0  0  0
   57.7090   27.9380   47.1980 C   0  0  0  0  0  0  0  0  0  0  0  0
   58.0740   32.7060   47.6410 N   0  0  0  0  0  0  0  0  0  0  0  0
   58.6210   30.7260   45.1000 C   0  0  0  0  0  0  0  0  0  0  0  0
   60.8128   29.3418   46.3144 H   0  0  0  0  0  0  0  0  0  0  0  0
   61.1058   28.4037   44.8109 H   0  0  0  0  0  0  0  0  0  0  0  0
   61.3126   30.1881   44.8109 H   0  0  0  0  0  0  0  0  0  0  0  0
   59.1256   27.5523   43.9230 H   0  0  0  0  0  0  0  0  0  0  0  0
   56.7525   27.8689   43.2246 H   0  0  0  0  0  0  0  0  0  0  0  0
   55.5710   30.0073   43.7258 H   0  0  0  0  0  0  0  0  0  0  0  0
   59.6897   34.7186   45.4653 H   0  0  0  0  0  0  0  0  0  0  0  0
   61.3186   34.7318   47.3642 H   0  0  0  0  0  0  0  0  0  0  0  0
   59.3050   32.1671   50.6645 H   0  0  0  0  0  0  0  0  0  0  0  0
   57.5699   32.2504   50.1939 H   0  0  0  0  0  0  0  0  0  0  0  0
   58.4000   30.7240   47.4660 H   0  0  0  0  0  0  0  0  0  0  0  0
   60.7523   28.5135   48.6519 H   0  0  0  0  0  0  0  0  0  0  0  0
   61.0547   26.1205   48.0260 H   0  0  0  0  0  0  0  0  0  0  0  0
   59.2190   24.8849   46.8739 H   0  0  0  0  0  0  0  0  0  0  0  0
   54.5460   26.3480   45.2650 H   0  0  0  0  0  0  0  0  0  0  0  0
   56.7565   28.4438   46.9814 H   0  0  0  0  0  0  0  0  0  0  0  0
   59.1576   31.5420   45.6062 H   0  0  0  0  0  0  0  0  0  0  0  0
  1  2  1  0
  2  3  2  0
  3  4  1  0
  4  5  2  0
  5  6  1  0
  6  7  1  0
  7  8  1  0
  8  9  2  0
  8 10  1  0
 10 11  1  0
 11 12  2  0
 12 13  1  0
 13 14  2  0
 13 15  1  0
 15 16  1  0
 16 17  1  0
 17 18  2  0
 17 19  1  0
 19 20  1  0
 20 21  2  0
 21 22  1  0
 22 23  2  0
 23 24  1  0
 24 25  1  0
 25 26  1  0
 25 27  2  0
 25 28  2  0
 24 29  2  0
 15 30  1  0
  6 31  2  0
 31  2  1  0
 30 10  2  0
 29 20  1  0
  1 32  1  0
  1 33  1  0
  1 34  1  0
  3 35  1  0
  4 36  1  0
  5 37  1  0
 11 38  1  0
 12 39  1  0
 16 40  1  0
 16 41  1  0
 19 42  1  0
 21 43  1  0
 22 44  1  0
 23 45  1  0
 26 46  1  0
 29 47  1  0
 31 48  1  0
M  CHG  2   7  -1  26  -1
M  END
>  <UniqueID>  (43) 
39

>  <SMILES>  (43) 
Cc1cccc([N-]C(=O)c2ccc(=O)n(CC(=O)Nc3cccc(S([NH-])(=O)=O)c3)n2)c1

>  <Energy>  (43) 
58.83221972363394

>  <Genealogy>  (43) 
Cc1cccc([N-]C(=O)c2ccc(=O)n(CC(=O)Nc3cccc(S([NH-])(=O)=O)c3)n2)c1 (protonated)
Cc1cccc([N-]C(=O)c2ccc(=O)n(CC(=O)Nc3cccc(S([NH-])(=O)=O)c3)n2)c1 (3D coordinates assigned)
Cc1cccc([N-]C(=O)c2ccc(=O)n(CC(=O)Nc3cccc(S([NH-])(=O)=O)c3)n2)c1 (optimized conformer: 58.83221972363394 kcal/mol)

>  <smiles>  (43) 
Cc1cccc(NC(=O)c2ccc(=O)n(CC(=O)Nc3cccc(S(N)(=O)=O)c3)n2)c1

>  <score_type>  (43) 
oracle

>  <origin>  (43) 
adg

>  <m_score__min__energy>  (43) 
-13.529999999999999

>  <m_primary>  (43) 
energy

$$$$
43:0
     RDKit          3D

 43 45  0  0  0  0  0  0  0  0999 V2000
   58.1900   30.0260   49.9270 O   0  0  0  0  0  0  0  0  0  0  0  0
   59.4080   30.0500   49.5960 C   0  0  0  0  0  0  0  0  0  0  0  0
   60.4110   30.7010   50.4960 C   0  0  0  0  0  0  0  0  0  0  0  0
   61.0270   31.8840   49.8120 C   0  0  0  0  0  0  0  0  0  0  0  0
   61.8510   32.7970   50.4680 C   0  0  0  0  0  0  0  0  0  0  0  0
   62.2360   34.0180   49.3750 S   0  0  0  0  0  0  0  0  0  0  0  0
   61.3330   33.3500   48.1250 C   0  0  0  0  0  0  0  0  0  0  0  0
   61.2210   33.9270   46.7470 C   0  0  0  0  0  0  0  0  0  0  0  0
   59.7870   33.9290   46.2860 C   0  0  0  0  0  0  0  0  0  0  0  0
   58.7410   33.8430   47.2190 C   0  0  0  0  0  0  0  0  0  0  0  0
   57.4110   33.8130   46.7860 C   0  0  0  0  0  0  0  0  0  0  0  0
   57.1180   33.8600   45.4200 C   0  0  0  0  0  0  0  0  0  0  0  0
   58.1550   33.9360   44.4850 C   0  0  0  0  0  0  0  0  0  0  0  0
   59.4850   33.9680   44.9140 C   0  0  0  0  0  0  0  0  0  0  0  0
   60.7470   32.1980   48.5180 N   0  0  0  0  0  0  0  0  0  0  0  0
   59.8330   29.4790   48.3570 N   0  0  0  0  0  0  0  0  0  0  0  0
   59.3380   30.1020   46.8210 S   0  0  0  0  0  0  0  0  0  0  0  0
   60.4770   30.8320   46.1690 O   0  0  0  0  0  0  0  0  0  0  0  0
   58.1890   31.0510   47.0350 O   0  0  0  0  0  0  0  0  0  0  0  0
   58.8210   28.7650   45.7850 C   0  0  0  0  0  0  0  0  0  0  0  0
   59.2230   27.4590   46.1160 C   0  0  0  0  0  0  0  0  0  0  0  0
   58.9070   26.3840   45.2850 C   0  0  0  0  0  0  0  0  0  0  0  0
   58.1900   26.5980   44.1090 C   0  0  0  0  0  0  0  0  0  0  0  0
   57.7730   27.8860   43.7690 C   0  0  0  0  0  0  0  0  0  0  0  0
   58.0640   28.9780   44.6040 C   0  0  0  0  0  0  0  0  0  0  0  0
   57.5840   30.2800   44.2360 N   0  0  0  0  0  0  0  0  0  0  0  0
   58.3300   31.0790   43.6350 O   0  0  0  0  0  0  0  0  0  0  0  0
   56.3850   30.7360   44.7340 O   0  0  0  0  0  0  0  0  0  0  0  0
   59.9108   31.0335   51.4176 H   0  0  0  0  0  0  0  0  0  0  0  0
   61.2006   29.9748   50.7392 H   0  0  0  0  0  0  0  0  0  0  0  0
   62.1891   32.7314   51.5127 H   0  0  0  0  0  0  0  0  0  0  0  0
   61.5989   34.9600   46.7562 H   0  0  0  0  0  0  0  0  0  0  0  0
   61.8140   33.3101   46.0558 H   0  0  0  0  0  0  0  0  0  0  0  0
   58.9682   33.7991   48.2944 H   0  0  0  0  0  0  0  0  0  0  0  0
   56.5950   33.7524   47.5212 H   0  0  0  0  0  0  0  0  0  0  0  0
   56.0719   33.8372   45.0807 H   0  0  0  0  0  0  0  0  0  0  0  0
   57.9238   33.9707   43.4101 H   0  0  0  0  0  0  0  0  0  0  0  0
   60.2980   34.0239   44.1752 H   0  0  0  0  0  0  0  0  0  0  0  0
   60.1330   31.6180   47.9030 H   0  0  0  0  0  0  0  0  0  0  0  0
   59.7929   27.2830   47.0403 H   0  0  0  0  0  0  0  0  0  0  0  0
   59.2239   25.3666   45.5580 H   0  0  0  0  0  0  0  0  0  0  0  0
   57.9526   25.7512   43.4483 H   0  0  0  0  0  0  0  0  0  0  0  0
   57.2106   28.0478   42.8376 H   0  0  0  0  0  0  0  0  0  0  0  0
  1  2  2  0
  2  3  1  0
  3  4  1  0
  4  5  2  0
  5  6  1  0
  6  7  1  0
  7  8  1  0
  8  9  1  0
  9 10  2  0
 10 11  1  0
 11 12  2  0
 12 13  1  0
 13 14  2  0
  7 15  2  0
  2 16  1  0
 16 17  1  0
 17 18  2  0
 17 19  2  0
 17 20  1  0
 20 21  2  0
 21 22  1  0
 22 23  2  0
 23 24  1  0
 24 25  2  0
 25 26  1  0
 26 27  2  0
 26 28  1  0
 15  4  1  0
 25 20  1  0
 14  9  1  0
  3 29  1  0
  3 30  1  0
  5 31  1  0
  8 32  1  0
  8 33  1  0
 10 34  1  0
 11 35  1  0
 12 36  1  0
 13 37  1  0
 14 38  1  0
 15 39  1  0
 21 40  1  0
 22 41  1  0
 23 42  1  0
 24 43  1  0
M  CHG  4  15   1  16  -1  26   1  28  -1
M  END
>  <UniqueID>  (44) 
40

>  <SMILES>  (44) 
O=C(Cc1csc(Cc2ccccc2)[nH+]1)[N-]S(=O)(=O)c1ccccc1[N+](=O)[O-]

>  <Energy>  (44) 
78.29055295070918

>  <Genealogy>  (44) 
O=C(Cc1csc(Cc2ccccc2)[nH+]1)[N-]S(=O)(=O)c1ccccc1[N+](=O)[O-] (protonated)
O=C(Cc1csc(Cc2ccccc2)[nH+]1)[N-]S(=O)(=O)c1ccccc1[N+](=O)[O-] (3D coordinates assigned)
O=C(Cc1csc(Cc2ccccc2)[nH+]1)[N-]S(=O)(=O)c1ccccc1[N+](=O)[O-] (optimized conformer: 78.29055295070918 kcal/mol)

>  <smiles>  (44) 
O=C(Cc1csc(Cc2ccccc2)n1)NS(=O)(=O)c1ccccc1[N+](=O)[O-]

>  <score_type>  (44) 
oracle

>  <origin>  (44) 
adg

>  <m_score__min__energy>  (44) 
-8.5600000000000005

>  <m_primary>  (44) 
energy

$$$$
44:0
     RDKit          3D

 39 42  0  0  0  0  0  0  0  0999 V2000
   50.6450   32.9980   52.0380 O   0  0  0  0  0  0  0  0  0  0  0  0
   51.2590   32.2400   51.2400 C   0  0  0  0  0  0  0  0  0  0  0  0
   51.0060   32.3480   49.8770 O   0  0  0  0  0  0  0  0  0  0  0  0
   52.2320   31.2510   51.7470 C   0  0  0  0  0  0  0  0  0  0  0  0
   51.7750   30.0290   52.3160 C   0  0  0  0  0  0  0  0  0  0  0  0
   52.7000   29.0860   52.8000 C   0  0  0  0  0  0  0  0  0  0  0  0
   52.3170   27.9990   53.3070 O   0  0  0  0  0  0  0  0  0  0  0  0
   54.0510   29.3940   52.7010 C   0  0  0  0  0  0  0  0  0  0  0  0
   55.0900   28.6760   53.0790 O   0  0  0  0  0  0  0  0  0  0  0  0
   56.1640   29.3850   52.7790 C   0  0  0  0  0  0  0  0  0  0  0  0
   57.4950   29.0370   52.9900 C   0  0  0  0  0  0  0  0  0  0  0  0
   58.4870   29.9500   52.5860 C   0  0  0  0  0  0  0  0  0  0  0  0
   58.1370   31.1880   51.9840 C   0  0  0  0  0  0  0  0  0  0  0  0
   59.2050   32.1520   51.5420 C   0  0  0  0  0  0  0  0  0  0  0  0
   58.8650   32.7160   50.2170 N   0  0  0  0  0  0  0  0  0  0  0  0
   58.9000   31.6970   49.1400 C   0  0  0  0  0  0  0  0  0  0  0  0
   60.2620   31.6420   48.4200 C   0  0  0  0  0  0  0  0  0  0  0  0
   61.2960   32.0660   49.2800 O   0  0  0  0  0  0  0  0  0  0  0  0
   61.1650   33.4510   49.5540 C   0  0  0  0  0  0  0  0  0  0  0  0
   59.7130   33.8760   49.8770 C   0  0  0  0  0  0  0  0  0  0  0  0
   56.7770   31.5130   51.7820 C   0  0  0  0  0  0  0  0  0  0  0  0
   55.8230   30.5870   52.1920 C   0  0  0  0  0  0  0  0  0  0  0  0
   54.4530   30.5830   52.1470 C   0  0  0  0  0  0  0  0  0  0  0  0
   53.5800   31.5080   51.6730 N   0  0  0  0  0  0  0  0  0  0  0  0
   50.6965   29.8215   52.3774 H   0  0  0  0  0  0  0  0  0  0  0  0
   57.7632   28.0783   53.4579 H   0  0  0  0  0  0  0  0  0  0  0  0
   59.5477   29.7015   52.7385 H   0  0  0  0  0  0  0  0  0  0  0  0
   59.2843   32.9682   52.2752 H   0  0  0  0  0  0  0  0  0  0  0  0
   60.1641   31.6182   51.4704 H   0  0  0  0  0  0  0  0  0  0  0  0
   58.6948   30.7106   49.5815 H   0  0  0  0  0  0  0  0  0  0  0  0
   58.1400   31.9739   48.3945 H   0  0  0  0  0  0  0  0  0  0  0  0
   60.4597   30.6086   48.0991 H   0  0  0  0  0  0  0  0  0  0  0  0
   60.2292   32.3118   47.5480 H   0  0  0  0  0  0  0  0  0  0  0  0
   61.8012   33.6980   50.4167 H   0  0  0  0  0  0  0  0  0  0  0  0
   61.4689   33.9930   48.6463 H   0  0  0  0  0  0  0  0  0  0  0  0
   59.7265   34.5696   50.7307 H   0  0  0  0  0  0  0  0  0  0  0  0
   59.2908   34.3579   48.9828 H   0  0  0  0  0  0  0  0  0  0  0  0
   56.4826   32.4652   51.3167 H   0  0  0  0  0  0  0  0  0  0  0  0
   53.9420   32.3960   51.2600 H   0  0  0  0  0  0  0  0  0  0  0  0
  1  2  2  0
  2  3  1  0
  2  4  1  0
  4  5  2  0
  5  6  1  0
  6  7  2  0
  6  8  1  0
  8  9  1  0
  9 10  1  0
 10 11  2  0
 11 12  1  0
 12 13  2  0
 13 14  1  0
 14 15  1  0
 15 16  1  0
 16 17  1  0
 17 18  1  0
 18 19  1  0
 19 20  1  0
 13 21  1  0
 21 22  2  0
 22 23  1  0
 23 24  1  0
 24  4  1  0
 23  8  2  0
 22 10  1  0
 20 15  1  0
  5 25  1  0
 11 26  1  0
 12 27  1  0
 14 28  1  0
 14 29  1  0
 16 30  1  0
 16 31  1  0
 17 32  1  0
 17 33  1  0
 19 34  1  0
 19 35  1  0
 20 36  1  0
 20 37  1  0
 21 38  1  0
 24 39  1  0
M  CHG  1   3  -1
M  END
>  <UniqueID>  (45) 
41

>  <SMILES>  (45) 
O=C([O-])c1cc(=O)c2oc3ccc(CN4CCOCC4)cc3c2[nH]1

>  <Energy>  (45) 
98.55728609136474

>  <Genealogy>  (45) 
O=C([O-])c1cc(=O)c2oc3ccc(CN4CCOCC4)cc3c2[nH]1 (protonated)
O=C([O-])c1cc(=O)c2oc3ccc(CN4CCOCC4)cc3c2[nH]1 (3D coordinates assigned)
O=C([O-])c1cc(=O)c2oc3ccc(CN4CCOCC4)cc3c2[nH]1 (nonaromatic ring conformer: 98.55728609136474 kcal/mol)

>  <smiles>  (45) 
O=C(O)c1cc(=O)c2oc3ccc(CN4CCOCC4)cc3c2[nH]1

>  <score_type>  (45) 
oracle

>  <origin>  (45) 
adg

>  <m_score__min__energy>  (45) 
-10.83

>  <m_primary>  (45) 
energy

$$$$
45:0
     RDKit          3D

 43 44  0  0  0  0  0  0  0  0999 V2000
   63.3370   33.5750   46.7050 C   0  0  0  0  0  0  0  0  0  0  0  0
   63.1580   33.3510   48.4610 S   0  0  0  0  0  0  0  0  0  0  0  0
   61.9970   34.1770   48.9400 O   0  0  0  0  0  0  0  0  0  0  0  0
   64.4010   33.8050   49.1700 O   0  0  0  0  0  0  0  0  0  0  0  0
   62.8380   31.6830   48.8120 N   0  0  0  0  0  0  0  0  0  0  0  0
   61.7390   30.9170   48.3000 C   0  0  0  0  0  0  0  0  0  0  0  0
   61.0520   30.0670   49.1740 C   0  0  0  0  0  0  0  0  0  0  0  0
   59.9720   29.3030   48.7200 C   0  0  0  0  0  0  0  0  0  0  0  0
   59.5760   29.3590   47.3780 C   0  0  0  0  0  0  0  0  0  0  0  0
   58.5000   28.5510   46.9700 O   0  0  0  0  0  0  0  0  0  0  0  0
   58.1070   28.3150   45.6160 C   0  0  0  0  0  0  0  0  0  0  0  0
   56.6150   28.3650   45.4950 C   0  0  0  0  0  0  0  0  0  0  0  0
   55.9360   27.3120   45.6230 O   0  0  0  0  0  0  0  0  0  0  0  0
   55.9720   29.6070   45.2020 N   0  0  0  0  0  0  0  0  0  0  0  0
   56.1210   30.3120   43.9380 C   0  0  0  0  0  0  0  0  0  0  0  0
   57.1090   31.4240   44.1040 C   0  0  0  0  0  0  0  0  0  0  0  0
   57.7290   31.8550   43.0940 O   0  0  0  0  0  0  0  0  0  0  0  0
   57.4100   31.9280   45.4170 N   0  0  0  0  0  0  0  0  0  0  0  0
   58.1850   33.1150   45.6660 C   0  0  0  0  0  0  0  0  0  0  0  0
   58.5240   33.9860   44.6120 C   0  0  0  0  0  0  0  0  0  0  0  0
   59.2590   35.1490   44.8610 C   0  0  0  0  0  0  0  0  0  0  0  0
   59.6430   35.4680   46.1650 C   0  0  0  0  0  0  0  0  0  0  0  0
   59.2960   34.6250   47.2220 C   0  0  0  0  0  0  0  0  0  0  0  0
   58.5680   33.4530   46.9820 C   0  0  0  0  0  0  0  0  0  0  0  0
   58.1570   32.3210   48.4750 Br  0  0  0  0  0  0  0  0  0  0  0  0
   60.2650   30.2160   46.4980 C   0  0  0  0  0  0  0  0  0  0  0  0
   61.3350   30.9900   46.9550 C   0  0  0  0  0  0  0  0  0  0  0  0
   64.0129   34.4208   46.5103 H   0  0  0  0  0  0  0  0  0  0  0  0
   63.7560   32.6607   46.2596 H   0  0  0  0  0  0  0  0  0  0  0  0
   62.3528   33.7821   46.2596 H   0  0  0  0  0  0  0  0  0  0  0  0
   61.3639   29.9992   50.2267 H   0  0  0  0  0  0  0  0  0  0  0  0
   59.4295   28.6532   49.4225 H   0  0  0  0  0  0  0  0  0  0  0  0
   58.5502   29.0865   44.9692 H   0  0  0  0  0  0  0  0  0  0  0  0
   58.4592   27.3195   45.3080 H   0  0  0  0  0  0  0  0  0  0  0  0
   56.4803   29.6134   43.1680 H   0  0  0  0  0  0  0  0  0  0  0  0
   55.1493   30.7259   43.6307 H   0  0  0  0  0  0  0  0  0  0  0  0
   57.0650   31.3790   46.2350 H   0  0  0  0  0  0  0  0  0  0  0  0
   58.2080   33.7493   43.5853 H   0  0  0  0  0  0  0  0  0  0  0  0
   59.5350   35.8133   44.0288 H   0  0  0  0  0  0  0  0  0  0  0  0
   60.2195   36.3844   46.3595 H   0  0  0  0  0  0  0  0  0  0  0  0
   59.5958   34.8825   48.2485 H   0  0  0  0  0  0  0  0  0  0  0  0
   59.9586   30.2765   45.4433 H   0  0  0  0  0  0  0  0  0  0  0  0
   61.8634   31.6590   46.2599 H   0  0  0  0  0  0  0  0  0  0  0  0
  1  2  1  0
  2  3  2  0
  2  4  2  0
  2  5  1  0
  5  6  1  0
  6  7  2  0
  7  8  1  0
  8  9  2  0
  9 10  1  0
 10 11  1  0
 11 12  1  0
 12 13  2  0
 12 14  1  0
 14 15  1  0
 15 16  1  0
 16 17  2  0
 16 18  1  0
 18 19  1  0
 19 20  2  0
 20 21  1  0
 21 22  2  0
 22 23  1  0
 23 24  2  0
 24 25  1  0
  9 26  1  0
 26 27  2  0
 27  6  1  0
 24 19  1  0
  1 28  1  0
  1 29  1  0
  1 30  1  0
  7 31  1  0
  8 32  1  0
 11 33  1  0
 11 34  1  0
 15 35  1  0
 15 36  1  0
 18 37  1  0
 20 38  1  0
 21 39  1  0
 22 40  1  0
 23 41  1  0
 26 42  1  0
 27 43  1  0
M  CHG  2   5  -1  14  -1
M  END
>  <UniqueID>  (46) 
42

>  <SMILES>  (46) 
CS(=O)(=O)[N-]c1ccc(OCC(=O)[N-]CC(=O)Nc2ccccc2Br)cc1

>  <Energy>  (46) 
37.99780644470387

>  <Genealogy>  (46) 
CS(=O)(=O)[N-]c1ccc(OCC(=O)[N-]CC(=O)Nc2ccccc2Br)cc1 (protonated)
CS(=O)(=O)[N-]c1ccc(OCC(=O)[N-]CC(=O)Nc2ccccc2Br)cc1 (3D coordinates assigned)
CS(=O)(=O)[N-]c1ccc(OCC(=O)[N-]CC(=O)Nc2ccccc2Br)cc1 (optimized conformer: 37.99780644470387 kcal/mol)

>  <smiles>  (46) 
CS(=O)(=O)Nc1ccc(OCC(=O)NCC(=O)Nc2ccccc2Br)cc1

>  <score_type>  (46) 
oracle

>  <origin>  (46) 
adg

>  <m_score__min__energy>  (46) 
-10.75

>  <m_primary>  (46) 
energy

$$$$
46:0
     RDKit          3D

 42 44  0  0  0  0  0  0  0  0999 V2000
   58.2660   32.7440   42.4830 O   0  0  0  0  0  0  0  0  0  0  0  0
   58.2640   32.7140   43.7410 C   0  0  0  0  0  0  0  0  0  0  0  0
   58.0110   33.9930   44.4970 C   0  0  0  0  0  0  0  0  0  0  0  0
   57.3520   33.6950   46.1790 S   0  0  0  0  0  0  0  0  0  0  0  0
   58.9340   33.2180   46.8850 C   0  0  0  0  0  0  0  0  0  0  0  0
   59.0420   32.0450   47.6390 C   0  0  0  0  0  0  0  0  0  0  0  0
   60.2740   31.6750   48.1860 C   0  0  0  0  0  0  0  0  0  0  0  0
   61.4150   32.4610   47.9660 C   0  0  0  0  0  0  0  0  0  0  0  0
   62.6630   32.0680   48.5610 N   0  0  0  0  0  0  0  0  0  0  0  0
   63.3980   32.8740   49.5000 C   0  0  0  0  0  0  0  0  0  0  0  0
   62.9640   34.0020   49.8560 O   0  0  0  0  0  0  0  0  0  0  0  0
   64.6670   32.3830   50.0700 C   0  0  0  0  0  0  0  0  0  0  0  0
   65.8570   33.0590   49.7560 C   0  0  0  0  0  0  0  0  0  0  0  0
   67.0750   32.6330   50.2910 C   0  0  0  0  0  0  0  0  0  0  0  0
   67.1190   31.5230   51.1350 C   0  0  0  0  0  0  0  0  0  0  0  0
   65.9450   30.8280   51.4370 C   0  0  0  0  0  0  0  0  0  0  0  0
   64.7180   31.2450   50.9070 C   0  0  0  0  0  0  0  0  0  0  0  0
   63.1710   30.1710   51.2780 Br  0  0  0  0  0  0  0  0  0  0  0  0
   61.2980   33.6460   47.2180 C   0  0  0  0  0  0  0  0  0  0  0  0
   60.0640   34.0160   46.6720 C   0  0  0  0  0  0  0  0  0  0  0  0
   58.4180   31.4480   44.4020 N   0  0  0  0  0  0  0  0  0  0  0  0
   57.5160   30.5250   44.5930 C   0  0  0  0  0  0  0  0  0  0  0  0
   56.2570   30.6920   44.0010 C   0  0  0  0  0  0  0  0  0  0  0  0
   55.2680   29.7250   44.1870 C   0  0  0  0  0  0  0  0  0  0  0  0
   55.5290   28.6150   44.9260 N   0  0  0  0  0  0  0  0  0  0  0  0
   56.7450   28.4120   45.4960 C   0  0  0  0  0  0  0  0  0  0  0  0
   57.7640   29.3550   45.3380 C   0  0  0  0  0  0  0  0  0  0  0  0
   58.9583   34.5457   44.5821 H   0  0  0  0  0  0  0  0  0  0  0  0
   57.2564   34.5671   43.9393 H   0  0  0  0  0  0  0  0  0  0  0  0
   58.1565   31.4130   47.8017 H   0  0  0  0  0  0  0  0  0  0  0  0
   60.3494   30.7610   48.7933 H   0  0  0  0  0  0  0  0  0  0  0  0
   63.0920   31.1740   48.2350 H   0  0  0  0  0  0  0  0  0  0  0  0
   65.8299   33.9297   49.0843 H   0  0  0  0  0  0  0  0  0  0  0  0
   68.0012   33.1737   50.0464 H   0  0  0  0  0  0  0  0  0  0  0  0
   68.0779   31.1949   51.5627 H   0  0  0  0  0  0  0  0  0  0  0  0
   65.9851   29.9477   52.0953 H   0  0  0  0  0  0  0  0  0  0  0  0
   62.1799   34.2845   47.0615 H   0  0  0  0  0  0  0  0  0  0  0  0
   59.9818   34.9357   46.0742 H   0  0  0  0  0  0  0  0  0  0  0  0
   56.0486   31.5833   43.3910 H   0  0  0  0  0  0  0  0  0  0  0  0
   54.2749   29.8618   43.7343 H   0  0  0  0  0  0  0  0  0  0  0  0
   56.9285   27.5011   46.0847 H   0  0  0  0  0  0  0  0  0  0  0  0
   58.7517   29.1853   45.7915 H   0  0  0  0  0  0  0  0  0  0  0  0
  1  2  2  0
  2  3  1  0
  3  4  1  0
  4  5  1  0
  5  6  2  0
  6  7  1  0
  7  8  2  0
  8  9  1  0
  9 10  1  0
 10 11  2  0
 10 12  1  0
 12 13  2  0
 13 14  1  0
 14 15  2  0
 15 16  1  0
 16 17  2  0
 17 18  1  0
  8 19  1  0
 19 20  2  0
  2 21  1  0
 21 22  2  3
 22 23  1  0
 23 24  2  0
 24 25  1  0
 25 26  1  0
 26 27  2  0
 20  5  1  0
 27 22  1  0
 17 12  1  0
  3 28  1  0
  3 29  1  0
  6 30  1  0
  7 31  1  0
  9 32  1  0
 13 33  1  0
 14 34  1  0
 15 35  1  0
 16 36  1  0
 19 37  1  0
 20 38  1  0
 23 39  1  0
 24 40  1  0
 26 41  1  0
 27 42  1  0
M  CHG  1  25  -1
M  END
>  <UniqueID>  (47) 
43

>  <SMILES>  (47) 
O=C(CSc1ccc(NC(=O)c2ccccc2Br)cc1)N=c1cc[n-]cc1

>  <Energy>  (47) 
61.84698772428375

>  <Genealogy>  (47) 
O=C(CSc1ccc(NC(=O)c2ccccc2Br)cc1)N=c1cc[n-]cc1 (protonated)
O=C(CSc1ccc(NC(=O)c2ccccc2Br)cc1)N=c1cc[n-]cc1 (3D coordinates assigned)
O=C(CSc1ccc(NC(=O)c2ccccc2Br)cc1)N=c1cc[n-]cc1 (optimized conformer: 61.84698772428375 kcal/mol)

>  <smiles>  (47) 
O=C(CSc1ccc(NC(=O)c2ccccc2Br)cc1)N=c1cc[nH]cc1

>  <score_type>  (47) 
oracle

>  <origin>  (47) 
adg

>  <m_score__min__energy>  (47) 
-10.93

>  <m_primary>  (47) 
energy

$$$$
47:0
     RDKit          3D

 50 53  0  0  0  0  0  0  0  0999 V2000
   64.2240   32.6560   48.6030 O   0  0  0  0  0  0  0  0  0  0  0  0
   63.0860   33.1660   48.4310 C   0  0  0  0  0  0  0  0  0  0  0  0
   62.4700   33.9130   49.5410 C   0  0  0  0  0  0  0  0  0  0  0  0
   61.1660   34.2160   49.6380 C   0  0  0  0  0  0  0  0  0  0  0  0
   60.1230   33.3080   50.1550 C   0  0  0  0  0  0  0  0  0  0  0  0
   59.1250   32.7950   49.3140 C   0  0  0  0  0  0  0  0  0  0  0  0
   58.1710   31.9020   49.8120 C   0  0  0  0  0  0  0  0  0  0  0  0
   58.1990   31.5060   51.1600 C   0  0  0  0  0  0  0  0  0  0  0  0
   57.1600   30.6040   51.7070 C   0  0  0  0  0  0  0  0  0  0  0  0
   57.3140   29.3540   51.6330 O   0  0  0  0  0  0  0  0  0  0  0  0
   56.0100   31.1490   52.3700 N   0  0  0  0  0  0  0  0  0  0  0  0
   54.6530   30.6990   52.2450 C   0  0  0  0  0  0  0  0  0  0  0  0
   54.2750   29.3760   52.5290 C   0  0  0  0  0  0  0  0  0  0  0  0
   52.9410   28.9840   52.4020 C   0  0  0  0  0  0  0  0  0  0  0  0
   51.9760   29.8990   51.9710 C   0  0  0  0  0  0  0  0  0  0  0  0
   52.3410   31.2150   51.6450 C   0  0  0  0  0  0  0  0  0  0  0  0
   51.3220   32.1790   51.1750 C   0  0  0  0  0  0  0  0  0  0  0  0
   50.6920   32.8980   51.9960 O   0  0  0  0  0  0  0  0  0  0  0  0
   51.0450   32.3030   49.8170 O   0  0  0  0  0  0  0  0  0  0  0  0
   53.6870   31.6030   51.7800 C   0  0  0  0  0  0  0  0  0  0  0  0
   59.2210   32.0000   51.9900 C   0  0  0  0  0  0  0  0  0  0  0  0
   60.1820   32.8790   51.4870 C   0  0  0  0  0  0  0  0  0  0  0  0
   62.4120   33.0430   47.1690 N   0  0  0  0  0  0  0  0  0  0  0  0
   61.2240   32.2850   46.8840 C   0  0  0  0  0  0  0  0  0  0  0  0
   61.1720   30.8990   47.1190 C   0  0  0  0  0  0  0  0  0  0  0  0
   60.0110   30.1740   46.8480 C   0  0  0  0  0  0  0  0  0  0  0  0
   58.8880   30.8120   46.3250 C   0  0  0  0  0  0  0  0  0  0  0  0
   58.9250   32.1830   46.0450 C   0  0  0  0  0  0  0  0  0  0  0  0
   57.8010   32.8240   45.5000 C   0  0  0  0  0  0  0  0  0  0  0  0
   57.8400   34.1910   45.2090 C   0  0  0  0  0  0  0  0  0  0  0  0
   59.0020   34.9220   45.4480 C   0  0  0  0  0  0  0  0  0  0  0  0
   60.1290   34.2970   45.9870 C   0  0  0  0  0  0  0  0  0  0  0  0
   60.1040   32.9270   46.3060 C   0  0  0  0  0  0  0  0  0  0  0  0
   63.1303   34.2488   50.3541 H   0  0  0  0  0  0  0  0  0  0  0  0
   60.8506   35.2166   49.3073 H   0  0  0  0  0  0  0  0  0  0  0  0
   59.0924   33.0967   48.2567 H   0  0  0  0  0  0  0  0  0  0  0  0
   57.3924   31.5064   49.1432 H   0  0  0  0  0  0  0  0  0  0  0  0
   55.0324   28.6468   52.8524 H   0  0  0  0  0  0  0  0  0  0  0  0
   52.6482   27.9512   52.6420 H   0  0  0  0  0  0  0  0  0  0  0  0
   50.9248   29.5862   51.8868 H   0  0  0  0  0  0  0  0  0  0  0  0
   53.9852   32.6287   51.5174 H   0  0  0  0  0  0  0  0  0  0  0  0
   59.2637   31.6911   53.0449 H   0  0  0  0  0  0  0  0  0  0  0  0
   60.9908   33.2370   52.1410 H   0  0  0  0  0  0  0  0  0  0  0  0
   62.0557   30.3814   47.5205 H   0  0  0  0  0  0  0  0  0  0  0  0
   59.9821   29.0928   47.0483 H   0  0  0  0  0  0  0  0  0  0  0  0
   57.9704   30.2370   46.1317 H   0  0  0  0  0  0  0  0  0  0  0  0
   56.8853   32.2479   45.3010 H   0  0  0  0  0  0  0  0  0  0  0  0
   56.9530   34.6897   44.7912 H   0  0  0  0  0  0  0  0  0  0  0  0
   59.0319   35.9958   45.2112 H   0  0  0  0  0  0  0  0  0  0  0  0
   61.0442   34.8812   46.1636 H   0  0  0  0  0  0  0  0  0  0  0  0
  1  2  2  0
  2  3  1  0
  3  4  2  3
  4  5  1  0
  5  6  2  0
  6  7  1  0
  7  8  2  0
  8  9  1  0
  9 10  2  0
  9 11  1  0
 11 12  1  0
 12 13  2  0
 13 14  1  0
 14 15  2  0
 15 16  1  0
 16 17  1  0
 17 18  2  0
 17 19  1  0
 16 20  2  0
  8 21  1  0
 21 22  2  0
  2 23  1  0
 23 24  1  0
 24 25  2  0
 25 26  1  0
 26 27  2  0
 27 28  1  0
 28 29  2  0
 29 30  1  0
 30 31  2  0
 31 32  1  0
 32 33  2  0
 22  5  1  0
 33 24  1  0
 20 12  1  0
 33 28  1  0
  3 34  1  0
  4 35  1  0
  6 36  1  0
  7 37  1  0
 13 38  1  0
 14 39  1  0
 15 40  1  0
 20 41  1  0
 21 42  1  0
 22 43  1  0
 25 44  1  0
 26 45  1  0
 27 46  1  0
 29 47  1  0
 30 48  1  0
 31 49  1  0
 32 50  1  0
M  CHG  3  11  -1  19  -1  23  -1
M  END
>  <UniqueID>  (48) 
44

>  <SMILES>  (48) 
O=C(C=Cc1ccc(C(=O)[N-]c2cccc(C(=O)[O-])c2)cc1)[N-]c1cccc2ccccc12

>  <Energy>  (48) 
73.40376774012219

>  <Genealogy>  (48) 
O=C(C=Cc1ccc(C(=O)[N-]c2cccc(C(=O)[O-])c2)cc1)[N-]c1cccc2ccccc12 (protonated)
O=C(C=Cc1ccc(C(=O)[N-]c2cccc(C(=O)[O-])c2)cc1)[N-]c1cccc2ccccc12 (3D coordinates assigned)
O=C(C=Cc1ccc(C(=O)[N-]c2cccc(C(=O)[O-])c2)cc1)[N-]c1cccc2ccccc12 (optimized conformer: 73.40376774012219 kcal/mol)

>  <smiles>  (48) 
O=C(C=Cc1ccc(C(=O)Nc2cccc(C(=O)O)c2)cc1)Nc1cccc2ccccc12

>  <score_type>  (48) 
oracle

>  <origin>  (48) 
adg

>  <m_score__min__energy>  (48) 
-15.970000000000001

>  <m_primary>  (48) 
energy

$$$$
48:0
     RDKit          3D

 35 37  0  0  0  0  0  0  0  0999 V2000
   56.1570   29.5370   43.9540 C   0  0  0  0  0  0  0  0  0  0  0  0
   55.6460   28.6990   44.9850 O   0  0  0  0  0  0  0  0  0  0  0  0
   56.3880   27.7030   45.6390 C   0  0  0  0  0  0  0  0  0  0  0  0
   57.7520   27.8640   45.9550 C   0  0  0  0  0  0  0  0  0  0  0  0
   58.4650   26.8380   46.5990 C   0  0  0  0  0  0  0  0  0  0  0  0
   59.8930   27.0340   46.9390 C   0  0  0  0  0  0  0  0  0  0  0  0
   60.7000   26.0810   46.7640 O   0  0  0  0  0  0  0  0  0  0  0  0
   60.4060   28.3030   47.4940 C   0  0  0  0  0  0  0  0  0  0  0  0
   60.5980   28.6400   48.8210 C   0  0  0  0  0  0  0  0  0  0  0  0
   61.1280   29.8760   48.8890 N   0  0  0  0  0  0  0  0  0  0  0  0
   61.2850   30.3280   47.6530 N   0  0  0  0  0  0  0  0  0  0  0  0
   61.8270   31.6300   47.3450 C   0  0  0  0  0  0  0  0  0  0  0  0
   60.9980   32.6880   46.9180 C   0  0  0  0  0  0  0  0  0  0  0  0
   61.5440   33.9410   46.6220 C   0  0  0  0  0  0  0  0  0  0  0  0
   62.9180   34.1550   46.7450 C   0  0  0  0  0  0  0  0  0  0  0  0
   63.7510   33.1150   47.1620 C   0  0  0  0  0  0  0  0  0  0  0  0
   63.2110   31.8590   47.4580 C   0  0  0  0  0  0  0  0  0  0  0  0
   60.8590   29.3910   46.7770 C   0  0  0  0  0  0  0  0  0  0  0  0
   57.7930   25.6560   46.9530 C   0  0  0  0  0  0  0  0  0  0  0  0
   56.4420   25.4920   46.6410 C   0  0  0  0  0  0  0  0  0  0  0  0
   55.7430   26.5080   45.9860 C   0  0  0  0  0  0  0  0  0  0  0  0
   54.3980   26.3290   45.6810 O   0  0  0  0  0  0  0  0  0  0  0  0
   56.6797   30.3942   44.4035 H   0  0  0  0  0  0  0  0  0  0  0  0
   56.8599   28.9646   43.3309 H   0  0  0  0  0  0  0  0  0  0  0  0
   55.3263   29.8998   43.3309 H   0  0  0  0  0  0  0  0  0  0  0  0
   58.2639   28.8023   45.6950 H   0  0  0  0  0  0  0  0  0  0  0  0
   60.3565   28.0009   49.6831 H   0  0  0  0  0  0  0  0  0  0  0  0
   59.9146   32.5266   46.8171 H   0  0  0  0  0  0  0  0  0  0  0  0
   60.8888   34.7604   46.2913 H   0  0  0  0  0  0  0  0  0  0  0  0
   63.3441   35.1423   46.5135 H   0  0  0  0  0  0  0  0  0  0  0  0
   64.8338   33.2836   47.2579 H   0  0  0  0  0  0  0  0  0  0  0  0
   63.8739   31.0432   47.7819 H   0  0  0  0  0  0  0  0  0  0  0  0
   60.8714   29.4806   45.6807 H   0  0  0  0  0  0  0  0  0  0  0  0
   58.3341   24.8555   47.4788 H   0  0  0  0  0  0  0  0  0  0  0  0
   55.9263   24.5590   46.9122 H   0  0  0  0  0  0  0  0  0  0  0  0
  1  2  1  0
  2  3  1  0
  3  4  2  0
  4  5  1  0
  5  6  1  0
  6  7  2  0
  6  8  1  0
  8  9  1  0
  9 10  2  0
 10 11  1  0
 11 12  1  0
 12 13  2  0
 13 14  1  0
 14 15  2  0
 15 16  1  0
 16 17  2  0
 11 18  1  0
  5 19  2  0
 19 20  1  0
 20 21  2  0
 21 22  1  0
 21  3  1  0
 18  8  2  0
 17 12  1  0
  1 23  1  0
  1 24  1  0
  1 25  1  0
  4 26  1  0
  9 27  1  0
 13 28  1  0
 14 29  1  0
 15 30  1  0
 16 31  1  0
 17 32  1  0
 18 33  1  0
 19 34  1  0
 20 35  1  0
M  CHG  1  22  -1
M  END
>  <UniqueID>  (49) 
45

>  <SMILES>  (49) 
COc1cc(C(=O)c2cnn(-c3ccccc3)c2)ccc1[O-]

>  <Energy>  (49) 
74.43596519959819

>  <Genealogy>  (49) 
COc1cc(C(=O)c2cnn(-c3ccccc3)c2)ccc1[O-] (protonated)
COc1cc(C(=O)c2cnn(-c3ccccc3)c2)ccc1[O-] (3D coordinates assigned)
COc1cc(C(=O)c2cnn(-c3ccccc3)c2)ccc1[O-] (optimized conformer: 74.43596519959819 kcal/mol)

>  <smiles>  (49) 
COc1cc(C(=O)c2cnn(-c3ccccc3)c2)ccc1O

>  <score_type>  (49) 
oracle

>  <origin>  (49) 
adg

>  <m_score__min__energy>  (49) 
-11.130000000000001

>  <m_primary>  (49) 
energy

$$$$
49:0
     RDKit          3D

 30 31  0  0  0  0  0  0  0  0999 V2000
   55.8850   26.6660   45.1880 H   0  0  0  0  0  0  0  0  0  0  0  0
   56.3250   27.5100   45.6170 N   0  0  0  0  0  0  0  0  0  0  0  0
   56.3630   28.6370   44.9880 C   0  0  0  0  0  0  0  0  0  0  0  0
   55.2980   29.4610   44.8740 N   0  0  0  0  0  0  0  0  0  0  0  0
   55.5740   30.5610   44.1780 N   0  0  0  0  0  0  0  0  0  0  0  0
   56.8510   30.6050   43.7380 C   0  0  0  0  0  0  0  0  0  0  0  0
   57.5190   31.9510   42.7630 S   0  0  0  0  0  0  0  0  0  0  0  0
   58.5100   32.6400   44.1330 C   0  0  0  0  0  0  0  0  0  0  0  0
   59.3310   31.9470   44.3688 H   0  0  0  0  0  0  0  0  0  0  0  0
   58.9114   33.6161   43.8229 H   0  0  0  0  0  0  0  0  0  0  0  0
   57.6610   32.8340   45.3580 C   0  0  0  0  0  0  0  0  0  0  0  0
   56.4690   33.2130   45.2190 O   0  0  0  0  0  0  0  0  0  0  0  0
   58.1360   32.5160   46.6750 N   0  0  0  0  0  0  0  0  0  0  0  0
   59.4790   32.1560   47.0340 C   0  0  0  0  0  0  0  0  0  0  0  0
   59.7910   30.8220   47.3430 C   0  0  0  0  0  0  0  0  0  0  0  0
   58.9998   30.0581   47.3216 H   0  0  0  0  0  0  0  0  0  0  0  0
   61.0920   30.4580   47.6760 C   0  0  0  0  0  0  0  0  0  0  0  0
   61.3187   29.4158   47.9453 H   0  0  0  0  0  0  0  0  0  0  0  0
   62.1080   31.4110   47.6690 C   0  0  0  0  0  0  0  0  0  0  0  0
   63.1308   31.1171   47.9473 H   0  0  0  0  0  0  0  0  0  0  0  0
   61.8420   32.7420   47.3110 C   0  0  0  0  0  0  0  0  0  0  0  0
   62.9360   33.6770   47.2710 N   0  0  0  0  0  0  0  0  0  0  0  0
   63.3400   34.2300   48.3140 O   0  0  0  0  0  0  0  0  0  0  0  0
   63.4140   34.1220   46.0600 O   0  0  0  0  0  0  0  0  0  0  0  0
   60.5080   33.1290   47.0060 C   0  0  0  0  0  0  0  0  0  0  0  0
   60.1860   34.5630   46.6590 C   0  0  0  0  0  0  0  0  0  0  0  0
   60.0556   35.1437   47.5841 H   0  0  0  0  0  0  0  0  0  0  0  0
   61.0102   34.9917   46.0701 H   0  0  0  0  0  0  0  0  0  0  0  0
   59.2576   34.5982   46.0701 H   0  0  0  0  0  0  0  0  0  0  0  0
   57.7270   29.2450   44.2160 S   0  0  0  0  0  0  0  0  0  0  0  0
  1  2  1  0
  2  3  2  0
  3  4  1  0
  4  5  1  0
  5  6  2  0
  6  7  1  0
  7  8  1  0
  8  9  1  0
  8 10  1  0
  8 11  1  0
 11 12  2  0
 11 13  1  0
 13 14  1  0
 14 15  2  0
 15 16  1  0
 15 17  1  0
 17 18  1  0
 17 19  2  0
 19 20  1  0
 19 21  1  0
 21 22  1  0
 22 23  2  0
 22 24  1  0
 21 25  2  0
 25 26  1  0
 26 27  1  0
 26 28  1  0
 26 29  1  0
  6 30  1  0
 30  3  1  0
 25 14  1  0
M  CHG  4   4  -1  13  -1  22   1  24  -1
M  END
>  <UniqueID>  (50) 
46

>  <SMILES>  (50) 
[H]/N=c1\[n-]nc(SCC(=O)[N-]c2cccc([N+](=O)[O-])c2C)s1

>  <Energy>  (50) 
69.92432050449217

>  <Genealogy>  (50) 
Cc1c([N-]C(=O)CSc2n[n-]c(=N)s2)cccc1[N+](=O)[O-] (protonated)
[H]/N=c1\[n-]nc(SCC(=O)[N-]c2cccc([N+](=O)[O-])c2C)s1 (cis-trans isomerization)
[H]/N=c1\[n-]nc(SCC(=O)[N-]c2cccc([N+](=O)[O-])c2C)s1 (3D coordinates assigned)
[H]/N=c1\[n-]nc(SCC(=O)[N-]c2cccc([N+](=O)[O-])c2C)s1 (optimized conformer: 69.92432050449217 kcal/mol)

>  <smiles>  (50) 
Cc1c(NC(=O)CSc2n[nH]c(=N)s2)cccc1[N+](=O)[O-]

>  <score_type>  (50) 
oracle

>  <origin>  (50) 
adg

>  <m_score__min__energy>  (50) 
-11.35

>  <m_primary>  (50) 
energy

$$$$
50:0
     RDKit          3D

 51 52  0  0  0  0  0  0  0  0999 V2000
   56.2870   23.0180   43.1930 C   0  0  0  0  0  0  0  0  0  0  0  0
   56.5380   24.2080   44.1200 C   0  0  0  0  0  0  0  0  0  0  0  0
   55.4030   24.4150   45.1340 C   0  0  0  0  0  0  0  0  0  0  0  0
   55.8310   25.2810   46.3230 C   0  0  0  0  0  0  0  0  0  0  0  0
   55.7520   26.6940   45.9640 N   0  0  0  0  0  0  0  0  0  0  0  0
   56.8360   27.4850   45.4610 C   0  0  0  0  0  0  0  0  0  0  0  0
   57.8780   26.9020   45.0600 O   0  0  0  0  0  0  0  0  0  0  0  0
   56.7770   28.9570   45.4150 C   0  0  0  0  0  0  0  0  0  0  0  0
   56.0440   29.6850   44.4940 C   0  0  0  0  0  0  0  0  0  0  0  0
   56.4360   30.9730   44.5140 N   0  0  0  0  0  0  0  0  0  0  0  0
   57.3930   31.1010   45.4210 N   0  0  0  0  0  0  0  0  0  0  0  0
   58.0480   32.3540   45.6940 C   0  0  0  0  0  0  0  0  0  0  0  0
   58.5590   33.1210   44.6340 C   0  0  0  0  0  0  0  0  0  0  0  0
   59.1900   34.3440   44.8820 C   0  0  0  0  0  0  0  0  0  0  0  0
   59.3030   34.8200   46.1900 C   0  0  0  0  0  0  0  0  0  0  0  0
   58.7870   34.0740   47.2530 C   0  0  0  0  0  0  0  0  0  0  0  0
   58.1580   32.8480   47.0080 C   0  0  0  0  0  0  0  0  0  0  0  0
   57.6320   29.8960   45.9870 C   0  0  0  0  0  0  0  0  0  0  0  0
   58.5630   29.7050   46.8820 N   0  0  0  0  0  0  0  0  0  0  0  0
   59.9830   29.7830   46.7130 C   0  0  0  0  0  0  0  0  0  0  0  0
   60.4990   29.6970   45.5650 O   0  0  0  0  0  0  0  0  0  0  0  0
   60.7930   29.8500   47.8490 O   0  0  0  0  0  0  0  0  0  0  0  0
   61.1290   31.0700   48.5050 C   0  0  0  0  0  0  0  0  0  0  0  0
   62.2010   31.8080   47.7480 C   0  0  0  0  0  0  0  0  0  0  0  0
   62.8820   31.1700   46.8990 O   0  0  0  0  0  0  0  0  0  0  0  0
   62.4720   33.2080   47.9800 N   0  0  0  0  0  0  0  0  0  0  0  0
   63.5860   33.8430   47.2670 C   0  0  0  0  0  0  0  0  0  0  0  0
   61.6460   33.9950   48.9010 C   0  0  0  0  0  0  0  0  0  0  0  0
   56.0971   22.1175   43.7955 H   0  0  0  0  0  0  0  0  0  0  0  0
   55.4129   23.2256   42.5583 H   0  0  0  0  0  0  0  0  0  0  0  0
   57.1705   22.8549   42.5583 H   0  0  0  0  0  0  0  0  0  0  0  0
   57.4748   24.0350   44.6699 H   0  0  0  0  0  0  0  0  0  0  0  0
   56.5960   25.1114   43.4951 H   0  0  0  0  0  0  0  0  0  0  0  0
   54.5602   24.9057   44.6252 H   0  0  0  0  0  0  0  0  0  0  0  0
   55.1188   23.4268   45.5247 H   0  0  0  0  0  0  0  0  0  0  0  0
   55.1650   25.0838   47.1760 H   0  0  0  0  0  0  0  0  0  0  0  0
   56.8679   25.0345   46.5953 H   0  0  0  0  0  0  0  0  0  0  0  0
   55.2587   29.2730   43.8431 H   0  0  0  0  0  0  0  0  0  0  0  0
   58.4620   32.7567   43.6006 H   0  0  0  0  0  0  0  0  0  0  0  0
   59.5977   34.9316   44.0462 H   0  0  0  0  0  0  0  0  0  0  0  0
   59.7985   35.7828   46.3837 H   0  0  0  0  0  0  0  0  0  0  0  0
   58.8752   34.4505   48.2828 H   0  0  0  0  0  0  0  0  0  0  0  0
   57.7472   32.2669   47.8468 H   0  0  0  0  0  0  0  0  0  0  0  0
   60.2321   31.7035   48.5692 H   0  0  0  0  0  0  0  0  0  0  0  0
   61.5063   30.8362   49.5115 H   0  0  0  0  0  0  0  0  0  0  0  0
   64.3023   34.2513   47.9952 H   0  0  0  0  0  0  0  0  0  0  0  0
   64.0903   33.0966   46.6356 H   0  0  0  0  0  0  0  0  0  0  0  0
   63.2007   34.6572   46.6356 H   0  0  0  0  0  0  0  0  0  0  0  0
   61.9111   33.7424   49.9383 H   0  0  0  0  0  0  0  0  0  0  0  0
   61.8232   35.0667   48.7278 H   0  0  0  0  0  0  0  0  0  0  0  0
   60.5841   33.7662   48.7278 H   0  0  0  0  0  0  0  0  0  0  0  0
  1  2  1  0
  2  3  1  0
  3  4  1  0
  4  5  1  0
  5  6  1  0
  6  7  2  0
  6  8  1  0
  8  9  2  0
  9 10  1  0
 10 11  1  0
 11 12  1  0
 12 13  2  0
 13 14  1  0
 14 15  2  0
 15 16  1  0
 16 17  2  0
 11 18  1  0
 18 19  2  3
 19 20  1  0
 20 21  2  0
 20 22  1  0
 22 23  1  0
 23 24  1  0
 24 25  2  0
 24 26  1  0
 26 27  1  0
 26 28  1  0
 18  8  1  0
 17 12  1  0
  1 29  1  0
  1 30  1  0
  1 31  1  0
  2 32  1  0
  2 33  1  0
  3 34  1  0
  3 35  1  0
  4 36  1  0
  4 37  1  0
  9 38  1  0
 13 39  1  0
 14 40  1  0
 15 41  1  0
 16 42  1  0
 17 43  1  0
 23 44  1  0
 23 45  1  0
 27 46  1  0
 27 47  1  0
 27 48  1  0
 28 49  1  0
 28 50  1  0
 28 51  1  0
M  CHG  2   5  -1  10  -1
M  END
>  <UniqueID>  (51) 
47

>  <SMILES>  (51) 
CCCC[N-]C(=O)c1c[n-]n(-c2ccccc2)c1=NC(=O)OCC(=O)N(C)C

>  <Energy>  (51) 
90.2855286824267

>  <Genealogy>  (51) 
CCCC[N-]C(=O)c1c[n-]n(-c2ccccc2)c1=NC(=O)OCC(=O)N(C)C (protonated)
CCCC[N-]C(=O)c1c[n-]n(-c2ccccc2)c1=NC(=O)OCC(=O)N(C)C (3D coordinates assigned)
CCCC[N-]C(=O)c1c[n-]n(-c2ccccc2)c1=NC(=O)OCC(=O)N(C)C (optimized conformer: 90.2855286824267 kcal/mol)

>  <smiles>  (51) 
CCCCNC(=O)c1c[nH]n(-c2ccccc2)c1=NC(=O)OCC(=O)N(C)C

>  <score_type>  (51) 
oracle

>  <origin>  (51) 
adg

>  <m_score__min__energy>  (51) 
-10.199999999999999

>  <m_primary>  (51) 
energy

$$$$
51:0
     RDKit          3D

 25 26  0  0  0  0  0  0  0  0999 V2000
   55.5060   26.5740   45.9050 O   0  0  0  0  0  0  0  0  0  0  0  0
   56.2730   27.5330   45.6200 C   0  0  0  0  0  0  0  0  0  0  0  0
   55.7210   28.7730   45.1610 N   0  0  0  0  0  0  0  0  0  0  0  0
   56.0160   29.3550   43.8570 C   0  0  0  0  0  0  0  0  0  0  0  0
   56.8130   30.6100   44.0180 C   0  0  0  0  0  0  0  0  0  0  0  0
   57.3970   31.3320   42.9980 C   0  0  0  0  0  0  0  0  0  0  0  0
   57.9990   32.4120   43.6070 C   0  0  0  0  0  0  0  0  0  0  0  0
   57.7430   32.2830   44.9580 C   0  0  0  0  0  0  0  0  0  0  0  0
   57.0310   31.2000   45.1710 O   0  0  0  0  0  0  0  0  0  0  0  0
   57.7400   27.3800   45.7600 C   0  0  0  0  0  0  0  0  0  0  0  0
   58.2930   26.1370   46.1150 C   0  0  0  0  0  0  0  0  0  0  0  0
   59.6760   26.0080   46.2410 C   0  0  0  0  0  0  0  0  0  0  0  0
   60.5000   27.1100   46.0150 C   0  0  0  0  0  0  0  0  0  0  0  0
   59.9260   28.3330   45.6630 C   0  0  0  0  0  0  0  0  0  0  0  0
   60.6620   29.3330   45.4570 O   0  0  0  0  0  0  0  0  0  0  0  0
   58.5720   28.4450   45.5440 N   0  0  0  0  0  0  0  0  0  0  0  0
   56.5921   28.6333   43.2593 H   0  0  0  0  0  0  0  0  0  0  0  0
   55.0700   29.5942   43.3492 H   0  0  0  0  0  0  0  0  0  0  0  0
   57.3848   31.0954   41.9238 H   0  0  0  0  0  0  0  0  0  0  0  0
   58.5685   33.2148   43.1160 H   0  0  0  0  0  0  0  0  0  0  0  0
   58.0835   32.9810   45.7370 H   0  0  0  0  0  0  0  0  0  0  0  0
   57.6384   25.2710   46.2924 H   0  0  0  0  0  0  0  0  0  0  0  0
   60.1160   25.0387   46.5182 H   0  0  0  0  0  0  0  0  0  0  0  0
   61.5916   27.0166   46.1131 H   0  0  0  0  0  0  0  0  0  0  0  0
   58.1750   29.3750   45.2780 H   0  0  0  0  0  0  0  0  0  0  0  0
  1  2  2  0
  2  3  1  0
  3  4  1  0
  4  5  1  0
  5  6  2  0
  6  7  1  0
  7  8  2  0
  8  9  1  0
  2 10  1  0
 10 11  2  0
 11 12  1  0
 12 13  2  0
 13 14  1  0
 14 15  2  0
 14 16  1  0
  9  5  1  0
 16 10  1  0
  4 17  1  0
  4 18  1  0
  6 19  1  0
  7 20  1  0
  8 21  1  0
 11 22  1  0
 12 23  1  0
 13 24  1  0
 16 25  1  0
M  CHG  1   3  -1
M  END
>  <UniqueID>  (52) 
48

>  <SMILES>  (52) 
O=C([N-]Cc1ccco1)c1cccc(=O)[nH]1

>  <Energy>  (52) 
49.53011064757663

>  <Genealogy>  (52) 
O=C([N-]Cc1ccco1)c1cccc(=O)[nH]1 (protonated)
O=C([N-]Cc1ccco1)c1cccc(=O)[nH]1 (3D coordinates assigned)
O=C([N-]Cc1ccco1)c1cccc(=O)[nH]1 (optimized conformer: 49.53011064757663 kcal/mol)

>  <smiles>  (52) 
O=C(NCc1ccco1)c1cccc(=O)[nH]1

>  <score_type>  (52) 
oracle

>  <origin>  (52) 
adg

>  <m_score__min__energy>  (52) 
-9.0700000000000003

>  <m_primary>  (52) 
energy

$$$$
52:0
     RDKit          3D

 62 67  0  0  1  0  0  0  0  0999 V2000
   62.4390   30.8260   49.1600 C   0  0  0  0  0  0  0  0  0  0  0  0
   61.0630   30.2700   49.2350 C   0  0  0  0  0  0  0  0  0  0  0  0
   60.4490   30.0990   50.4800 C   0  0  0  0  0  0  0  0  0  0  0  0
   59.1720   29.5860   50.5900 C   0  0  0  0  0  0  0  0  0  0  0  0
   58.5320   29.2500   49.4200 C   0  0  0  0  0  0  0  0  0  0  0  0
   59.1120   29.4050   48.1730 C   0  0  0  0  0  0  0  0  0  0  0  0
   58.3250   29.0130   47.0540 N   0  0  0  0  0  0  0  0  0  0  0  0
   57.9000   27.7260   46.9130 C   0  0  0  0  0  0  0  0  0  0  0  0
   58.2380   26.9330   47.8110 O   0  0  0  0  0  0  0  0  0  0  0  0
   57.1450   27.3050   45.8590 C   0  0  0  0  0  0  0  0  0  0  0  0
   56.6540   25.9680   45.6310 C   0  0  0  0  0  0  0  0  0  0  0  0
   55.4900   25.6470   46.0590 O   0  0  0  0  0  0  0  0  0  0  0  0
   57.3490   24.9360   44.9600 N   0  0  0  0  0  0  0  0  0  0  0  0
   56.7590   23.6060   44.7810 C   0  0  0  0  0  0  0  0  0  0  0  0
   56.2470   23.3870   43.3560 C   0  0  0  0  0  0  0  0  0  0  0  0
   57.0120   22.0620   43.3430 C   0  0  0  0  0  0  0  0  0  0  0  0
   57.8320   22.6070   44.4910 C   0  0  0  0  0  0  0  0  0  0  0  0
   56.8240   28.2850   44.9080 C   0  0  0  0  0  0  0  0  0  0  0  0
   57.2640   29.5770   45.0710 C   0  0  0  0  0  0  0  0  0  0  0  0
   56.9160   30.4960   44.1010 C   0  0  0  0  0  0  0  0  0  0  0  0
   57.3410   31.7850   44.2420 N   0  0  0  0  0  0  0  0  0  0  0  0
   58.0900   32.1450   45.3130 C   0  0  0  0  0  0  0  0  0  0  0  0
   58.5010   33.3580   45.4600 N   0  0  0  0  0  0  0  0  0  0  0  0
   59.4450   33.6920   46.4820 C   0  0  0  0  0  0  0  0  0  0  0  0
   58.9790   34.2940   47.6320 C   0  0  0  0  0  0  0  0  0  0  0  0
   59.8450   34.6380   48.6530 C   0  0  0  0  0  0  0  0  0  0  0  0
   61.2090   34.3860   48.5430 C   0  0  0  0  0  0  0  0  0  0  0  0
   62.2460   34.6160   49.3690 N   0  0  0  0  0  0  0  0  0  0  0  0
   63.3880   34.1750   48.7800 C   0  0  0  0  0  0  0  0  0  0  0  0
   63.0220   33.6590   47.5480 C   0  0  0  0  0  0  0  0  0  0  0  0
   61.6530   33.7820   47.3790 C   0  0  0  0  0  0  0  0  0  0  0  0
   60.7940   33.4320   46.3480 C   0  0  0  0  0  0  0  0  0  0  0  0
   58.4300   31.2430   46.2590 N   0  0  0  0  0  0  0  0  0  0  0  0
   58.0270   29.9650   46.1530 C   0  0  0  0  0  0  0  0  0  0  0  0
   60.3860   29.9180   48.0630 C   0  0  0  0  0  0  0  0  0  0  0  0
   60.9900   30.0780   46.7330 C   0  0  0  0  0  0  0  0  0  0  0  0
   62.8271   30.9828   50.1773 H   0  0  0  0  0  0  0  0  0  0  0  0
   63.0907   30.1207   48.6236 H   0  0  0  0  0  0  0  0  0  0  0  0
   62.4178   31.7861   48.6236 H   0  0  0  0  0  0  0  0  0  0  0  0
   60.9960   30.3796   51.3922 H   0  0  0  0  0  0  0  0  0  0  0  0
   58.6884   29.4521   51.5689 H   0  0  0  0  0  0  0  0  0  0  0  0
   57.5131   28.8395   49.4779 H   0  0  0  0  0  0  0  0  0  0  0  0
   58.2910   25.0710   44.5720 H   0  0  0  0  0  0  0  0  0  0  0  0
   56.0827   23.5237   45.6446 H   0  0  0  0  0  0  0  0  0  0  0  0
   55.1549   23.2849   43.2735 H   0  0  0  0  0  0  0  0  0  0  0  0
   56.3936   24.1428   42.5703 H   0  0  0  0  0  0  0  0  0  0  0  0
   56.4052   21.1785   43.5904 H   0  0  0  0  0  0  0  0  0  0  0  0
   57.4817   21.6719   42.4280 H   0  0  0  0  0  0  0  0  0  0  0  0
   58.0047   21.8847   45.3025 H   0  0  0  0  0  0  0  0  0  0  0  0
   58.8694   22.9347   44.3286 H   0  0  0  0  0  0  0  0  0  0  0  0
   56.2184   28.0187   44.0292 H   0  0  0  0  0  0  0  0  0  0  0  0
   56.3096   30.1957   43.2338 H   0  0  0  0  0  0  0  0  0  0  0  0
   57.0820   32.4860   43.5130 H   0  0  0  0  0  0  0  0  0  0  0  0
   57.9043   34.5031   47.7381 H   0  0  0  0  0  0  0  0  0  0  0  0
   59.4516   35.1161   49.5622 H   0  0  0  0  0  0  0  0  0  0  0  0
   62.1690   35.0630   50.3100 H   0  0  0  0  0  0  0  0  0  0  0  0
   64.4040   34.2191   49.1993 H   0  0  0  0  0  0  0  0  0  0  0  0
   63.7137   33.2183   46.8150 H   0  0  0  0  0  0  0  0  0  0  0  0
   61.1821   32.9540   45.4365 H   0  0  0  0  0  0  0  0  0  0  0  0
   62.0481   30.3583   46.8421 H   0  0  0  0  0  0  0  0  0  0  0  0
   60.9170   29.1295   46.1806 H   0  0  0  0  0  0  0  0  0  0  0  0
   60.4570   30.8659   46.1806 H   0  0  0  0  0  0  0  0  0  0  0  0
  1  2  1  0
  2  3  2  0
  3  4  1  0
  4  5  2  0
  5  6  1  0
  6  7  1  0
  7  8  1  0
  8  9  2  0
  8 10  1  0
 10 11  1  0
 11 12  2  0
 11 13  1  0
 13 14  1  0
 14 15  1  0
 15 16  1  0
 16 17  1  0
 10 18  2  0
 18 19  1  0
 19 20  2  0
 20 21  1  0
 21 22  1  0
 22 23  2  0
 23 24  1  0
 24 25  2  0
 25 26  1  0
 26 27  2  0
 27 28  1  0
 28 29  1  0
 29 30  2  0
 30 31  1  0
 31 32  2  0
 22 33  1  0
 33 34  2  0
  6 35  2  0
 35 36  1  0
 35  2  1  0
 34  7  1  0
 17 14  1  0
 34 19  1  0
 32 24  1  0
 31 27  1  0
  1 37  1  0
  1 38  1  0
  1 39  1  0
  3 40  1  0
  4 41  1  0
  5 42  1  0
 13 43  1  0
 14 44  1  0
 15 45  1  0
 15 46  1  0
 16 47  1  0
 16 48  1  0
 17 49  1  0
 17 50  1  0
 18 51  1  0
 20 52  1  0
 21 53  1  0
 25 54  1  0
 26 55  1  0
 28 56  1  0
 29 57  1  0
 30 58  1  0
 32 59  1  0
 36 60  1  0
 36 61  1  0
 36 62  1  0
M  END
>  <smiles>  (53) 
Cc1cccc(-n2c(=O)c(C(=O)NC3CCC3)cc3c[nH]c(=Nc4ccc5[nH]ccc5c4)nc32)c1C

>  <score_type>  (53) 
oracle

>  <origin>  (53) 
adg

>  <m_score__min__energy>  (53) 
-9.4399999999999995

>  <m_primary>  (53) 
energy

$$$$
53:0
     RDKit          3D

 57 60  0  0  1  0  0  0  0  0999 V2000
   57.4260   31.2970   54.6360 C   0  0  0  0  0  0  0  0  0  0  0  0
   57.0210   31.7460   53.4670 C   0  0  0  0  0  0  0  0  0  0  0  0
   57.9160   32.0780   52.3650 C   0  0  0  0  0  0  0  0  0  0  0  0
   58.4280   33.3450   52.2670 C   0  0  0  0  0  0  0  0  0  0  0  0
   59.2660   33.6120   51.2110 C   0  0  0  0  0  0  0  0  0  0  0  0
   59.5800   32.6500   50.2880 C   0  0  0  0  0  0  0  0  0  0  0  0
   59.0650   31.3450   50.3710 C   0  0  0  0  0  0  0  0  0  0  0  0
   59.4200   30.4460   49.3040 C   0  0  0  0  0  0  0  0  0  0  0  0
   60.1340   30.8860   48.3330 O   0  0  0  0  0  0  0  0  0  0  0  0
   59.0640   29.0850   49.1940 N   0  0  0  0  0  0  0  0  0  0  0  0
   59.5050   28.3050   48.0700 C   0  0  0  0  0  0  0  0  0  0  0  0
   60.2830   27.1910   48.3250 C   0  0  0  0  0  0  0  0  0  0  0  0
   60.7330   26.4050   47.2790 C   0  0  0  0  0  0  0  0  0  0  0  0
   60.3770   26.7810   46.0080 C   0  0  0  0  0  0  0  0  0  0  0  0
   59.6010   27.8920   45.7430 C   0  0  0  0  0  0  0  0  0  0  0  0
   59.2550   28.2450   44.4080 N   0  0  0  0  0  0  0  0  0  0  0  0
   58.2940   29.0600   44.1200 C   0  0  0  0  0  0  0  0  0  0  0  0
   58.6050   30.3620   43.9990 N   0  0  0  0  0  0  0  0  0  0  0  0
   57.6860   31.3060   43.7010 C   0  0  0  0  0  0  0  0  0  0  0  0
   58.0580   32.7350   43.5740 C   0  0  0  0  0  0  0  0  0  0  0  0
   58.3470   33.2450   44.9570 C   0  0  0  0  0  0  0  0  0  0  0  0
   59.2070   34.3190   45.0760 C   0  0  0  0  0  0  0  0  0  0  0  0
   59.5020   34.8220   46.3330 C   0  0  0  0  0  0  0  0  0  0  0  0
   58.9170   34.2220   47.4330 C   0  0  0  0  0  0  0  0  0  0  0  0
   58.0530   33.1460   47.3210 C   0  0  0  0  0  0  0  0  0  0  0  0
   57.7640   32.6490   46.0680 C   0  0  0  0  0  0  0  0  0  0  0  0
   56.3860   30.8480   43.5260 C   0  0  0  0  0  0  0  0  0  0  0  0
   56.0920   29.4910   43.6580 C   0  0  0  0  0  0  0  0  0  0  0  0
   57.0460   28.5840   43.9570 N   0  0  0  0  0  0  0  0  0  0  0  0
   59.1460   28.6820   46.7850 C   0  0  0  0  0  0  0  0  0  0  0  0
   58.2410   31.0960   51.4190 C   0  0  0  0  0  0  0  0  0  0  0  0
   57.6720   29.8590   51.6220 O   0  0  0  0  0  0  0  0  0  0  0  0
   58.3290   28.9060   52.4880 C   0  0  0  0  0  0  0  0  0  0  0  0
   56.6911   31.0673   55.4216 H   0  0  0  0  0  0  0  0  0  0  0  0
   58.4994   31.1515   54.8275 H   0  0  0  0  0  0  0  0  0  0  0  0
   55.9402   31.8790   53.3118 H   0  0  0  0  0  0  0  0  0  0  0  0
   58.1776   34.1200   53.0063 H   0  0  0  0  0  0  0  0  0  0  0  0
   59.6937   34.6199   51.1048 H   0  0  0  0  0  0  0  0  0  0  0  0
   60.2547   32.9062   49.4579 H   0  0  0  0  0  0  0  0  0  0  0  0
   58.4860   28.6280   49.8820 H   0  0  0  0  0  0  0  0  0  0  0  0
   60.5446   26.9292   49.3609 H   0  0  0  0  0  0  0  0  0  0  0  0
   61.3519   25.5136   47.4591 H   0  0  0  0  0  0  0  0  0  0  0  0
   60.7255   26.1699   45.1624 H   0  0  0  0  0  0  0  0  0  0  0  0
   58.9517   32.8367   42.9407 H   0  0  0  0  0  0  0  0  0  0  0  0
   57.2437   33.3099   43.1088 H   0  0  0  0  0  0  0  0  0  0  0  0
   59.6547   34.7720   44.1791 H   0  0  0  0  0  0  0  0  0  0  0  0
   60.1840   35.6767   46.4528 H   0  0  0  0  0  0  0  0  0  0  0  0
   59.1467   34.6144   48.4346 H   0  0  0  0  0  0  0  0  0  0  0  0
   57.6040   32.6946   48.2180 H   0  0  0  0  0  0  0  0  0  0  0  0
   57.0823   31.7938   45.9499 H   0  0  0  0  0  0  0  0  0  0  0  0
   55.5838   31.5599   43.2819 H   0  0  0  0  0  0  0  0  0  0  0  0
   55.0557   29.1510   43.5147 H   0  0  0  0  0  0  0  0  0  0  0  0
   56.8590   27.5630   44.0620 H   0  0  0  0  0  0  0  0  0  0  0  0
   58.5256   29.5715   46.6011 H   0  0  0  0  0  0  0  0  0  0  0  0
   58.1430   29.1758   53.5381 H   0  0  0  0  0  0  0  0  0  0  0  0
   57.9325   27.8988   52.2924 H   0  0  0  0  0  0  0  0  0  0  0  0
   59.4114   28.9183   52.2924 H   0  0  0  0  0  0  0  0  0  0  0  0
  1  2  2  0
  2  3  1  0
  3  4  2  0
  4  5  1  0
  5  6  2  0
  6  7  1  0
  7  8  1  0
  8  9  2  0
  8 10  1  0
 10 11  1  0
 11 12  2  0
 12 13  1  0
 13 14  2  0
 14 15  1  0
 15 16  1  0
 16 17  2  0
 17 18  1  0
 18 19  2  0
 19 20  1  0
 20 21  1  0
 21 22  2  0
 22 23  1  0
 23 24  2  0
 24 25  1  0
 25 26  2  0
 19 27  1  0
 27 28  2  0
 28 29  1  0
 15 30  2  0
  7 31  2  0
 31 32  1  0
 32 33  1  0
 31  3  1  0
 30 11  1  0
 29 17  1  0
 26 21  1  0
  1 34  1  0
  1 35  1  0
  2 36  1  0
  4 37  1  0
  5 38  1  0
  6 39  1  0
 10 40  1  0
 12 41  1  0
 13 42  1  0
 14 43  1  0
 20 44  1  0
 20 45  1  0
 22 46  1  0
 23 47  1  0
 24 48  1  0
 25 49  1  0
 26 50  1  0
 27 51  1  0
 28 52  1  0
 29 53  1  0
 30 54  1  0
 33 55  1  0
 33 56  1  0
 33 57  1  0
M  END
>  <smiles>  (54) 
C=Cc1cccc(C(=O)Nc2cccc(N=c3nc(Cc4ccccc4)cc[nH]3)c2)c1OC

>  <score_type>  (54) 
oracle

>  <origin>  (54) 
adg

>  <m_score__min__energy>  (54) 
-9.4499999999999993

>  <m_primary>  (54) 
energy

$$$$
54:0
     RDKit          3D

 41 43  0  0  0  0  0  0  0  0999 V2000
   59.5897   24.6032   46.2741 H   0  0  0  0  0  0  0  0  0  0  0  0
   58.5830   25.0380   46.1880 C   0  0  0  0  0  0  0  0  0  0  0  0
   58.4360   26.3680   45.9500 N   0  0  0  0  0  0  0  0  0  0  0  0
   57.2170   26.9630   45.8300 C   0  0  0  0  0  0  0  0  0  0  0  0
   57.1930   28.2460   45.5910 N   0  0  0  0  0  0  0  0  0  0  0  0
   58.1930   29.0730   44.9770 C   0  0  0  0  0  0  0  0  0  0  0  0
   58.9800   28.5690   44.1290 O   0  0  0  0  0  0  0  0  0  0  0  0
   58.3840   30.4770   45.4300 C   0  0  0  0  0  0  0  0  0  0  0  0
   57.3860   31.4460   45.2220 C   0  0  0  0  0  0  0  0  0  0  0  0
   56.1990   31.1310   44.5700 O   0  0  0  0  0  0  0  0  0  0  0  0
   57.5780   32.7200   45.6420 N   0  0  0  0  0  0  0  0  0  0  0  0
   58.7200   33.1010   46.2630 C   0  0  0  0  0  0  0  0  0  0  0  0
   58.8410   34.2980   46.6410 O   0  0  0  0  0  0  0  0  0  0  0  0
   59.7210   32.1930   46.4810 N   0  0  0  0  0  0  0  0  0  0  0  0
   60.9340   32.6090   47.1410 C   0  0  0  0  0  0  0  0  0  0  0  0
   61.8490   33.4270   46.4640 C   0  0  0  0  0  0  0  0  0  0  0  0
   61.6352   33.7502   45.4345 H   0  0  0  0  0  0  0  0  0  0  0  0
   63.0290   33.8340   47.0870 C   0  0  0  0  0  0  0  0  0  0  0  0
   63.7407   34.4757   46.5468 H   0  0  0  0  0  0  0  0  0  0  0  0
   63.3120   33.4270   48.4030 C   0  0  0  0  0  0  0  0  0  0  0  0
   64.4860   33.8080   49.0710 O   0  0  0  0  0  0  0  0  0  0  0  0
   65.3000   32.9240   49.8340 C   0  0  0  0  0  0  0  0  0  0  0  0
   65.1331   33.1052   50.9061 H   0  0  0  0  0  0  0  0  0  0  0  0
   65.0373   31.8834   49.5928 H   0  0  0  0  0  0  0  0  0  0  0  0
   66.3587   33.1002   49.5928 H   0  0  0  0  0  0  0  0  0  0  0  0
   62.3970   32.6120   49.0800 C   0  0  0  0  0  0  0  0  0  0  0  0
   62.6142   32.2902   50.1092 H   0  0  0  0  0  0  0  0  0  0  0  0
   61.2020   32.1990   48.4600 C   0  0  0  0  0  0  0  0  0  0  0  0
   60.2610   31.3910   49.1190 O   0  0  0  0  0  0  0  0  0  0  0  0
   58.9630   31.8220   49.5120 C   0  0  0  0  0  0  0  0  0  0  0  0
   58.9004   31.8428   50.6100 H   0  0  0  0  0  0  0  0  0  0  0  0
   58.7757   32.8306   49.1149 H   0  0  0  0  0  0  0  0  0  0  0  0
   58.2096   31.1258   49.1149 H   0  0  0  0  0  0  0  0  0  0  0  0
   59.5720   30.8930   46.0720 C   0  0  0  0  0  0  0  0  0  0  0  0
   60.5000   30.0610   46.2780 O   0  0  0  0  0  0  0  0  0  0  0  0
   56.0520   26.1700   46.0070 C   0  0  0  0  0  0  0  0  0  0  0  0
   54.7740   26.7120   46.0190 O   0  0  0  0  0  0  0  0  0  0  0  0
   56.1930   24.7970   46.2340 C   0  0  0  0  0  0  0  0  0  0  0  0
   55.2988   24.1657   46.3428 H   0  0  0  0  0  0  0  0  0  0  0  0
   57.4600   24.2250   46.3230 C   0  0  0  0  0  0  0  0  0  0  0  0
   57.5723   23.1448   46.4977 H   0  0  0  0  0  0  0  0  0  0  0  0
  1  2  1  0
  2  3  1  0
  3  4  1  0
  4  5  2  0
  5  6  1  0
  6  7  2  0
  6  8  1  0
  8  9  2  0
  9 10  1  0
  9 11  1  0
 11 12  1  0
 12 13  2  0
 12 14  1  0
 14 15  1  0
 15 16  2  0
 16 17  1  0
 16 18  1  0
 18 19  1  0
 18 20  2  0
 20 21  1  0
 21 22  1  0
 22 23  1  0
 22 24  1  0
 22 25  1  0
 20 26  1  0
 26 27  1  0
 26 28  2  0
 28 29  1  0
 29 30  1  0
 30 31  1  0
 30 32  1  0
 30 33  1  0
 14 34  1  0
 34 35  2  0
  4 36  1  0
 36 37  1  0
 36 38  2  0
 38 39  1  0
 38 40  1  0
 40 41  1  0
 40  2  2  0
 34  8  1  0
 28 15  1  0
M  CHG  4   3  -1  10  -1  11  -1  37  -1
M  END
>  <UniqueID>  (55) 
49

>  <SMILES>  (55) 
COc1ccc(-n2c(=O)[n-]c([O-])c(C(=O)/N=c3/[n-]cccc3[O-])c2=O)c(OC)c1

>  <Energy>  (55) 
71.35086062422984

>  <Genealogy>  (55) 
COc1ccc(-n2c(=O)[n-]c([O-])c(C(=O)N=c3[n-]cccc3[O-])c2=O)c(OC)c1 (protonated)
COc1ccc(-n2c(=O)[n-]c([O-])c(C(=O)/N=c3/[n-]cccc3[O-])c2=O)c(OC)c1 (cis-trans isomerization)
COc1ccc(-n2c(=O)[n-]c([O-])c(C(=O)/N=c3/[n-]cccc3[O-])c2=O)c(OC)c1 (3D coordinates assigned)
COc1ccc(-n2c(=O)[n-]c([O-])c(C(=O)/N=c3/[n-]cccc3[O-])c2=O)c(OC)c1 (optimized conformer: 71.35086062422984 kcal/mol)

>  <smiles>  (55) 
COc1ccc(-n2c(=O)[nH]c(O)c(C(=O)N=c3[nH]cccc3O)c2=O)c(OC)c1

>  <score_type>  (55) 
oracle

>  <origin>  (55) 
adg

>  <m_score__min__energy>  (55) 
-15.289999999999999

>  <m_primary>  (55) 
energy

$$$$
55:0
     RDKit          3D

 38 39  0  0  1  0  0  0  0  0999 V2000
   56.3300   31.1920   44.6950 O   0  0  0  0  0  0  0  0  0  0  0  0
   56.1430   29.9970   44.2830 C   0  0  0  0  0  0  0  0  0  0  0  0
   55.1550   29.2300   44.9270 O   0  0  0  0  0  0  0  0  0  0  0  0
   56.9590   29.4640   43.1600 C   0  0  0  0  0  0  0  0  0  0  0  0
   57.6240   28.2060   43.7200 C   0  0  0  0  0  0  0  0  0  0  0  0
   58.0820   28.3670   45.1060 C   0  0  0  0  0  0  0  0  0  0  0  0
   59.1420   29.2280   45.3470 C   0  0  0  0  0  0  0  0  0  0  0  0
   59.5710   29.4020   46.6140 N   0  0  0  0  0  0  0  0  0  0  0  0
   58.9830   28.7450   47.6600 C   0  0  0  0  0  0  0  0  0  0  0  0
   59.6340   29.0600   49.2800 S   0  0  0  0  0  0  0  0  0  0  0  0
   59.2490   30.7550   49.8240 C   0  0  0  0  0  0  0  0  0  0  0  0
   59.5610   31.6580   48.7020 C   0  0  0  0  0  0  0  0  0  0  0  0
   60.7050   31.6920   48.1290 O   0  0  0  0  0  0  0  0  0  0  0  0
   58.4970   32.5230   48.2600 N   0  0  0  0  0  0  0  0  0  0  0  0
   58.5970   33.2550   47.1980 C   0  0  0  0  0  0  0  0  0  0  0  0
   57.7040   33.0410   46.1990 N   0  0  0  0  0  0  0  0  0  0  0  0
   57.7550   33.7780   45.0660 C   0  0  0  0  0  0  0  0  0  0  0  0
   58.7090   34.7680   44.8860 C   0  0  0  0  0  0  0  0  0  0  0  0
   59.6300   34.9860   45.9200 C   0  0  0  0  0  0  0  0  0  0  0  0
   59.5800   34.2340   47.0770 C   0  0  0  0  0  0  0  0  0  0  0  0
   60.4970   34.4380   48.1290 O   0  0  0  0  0  0  0  0  0  0  0  0
   57.9420   27.8930   47.4570 N   0  0  0  0  0  0  0  0  0  0  0  0
   57.5180   27.7260   46.1840 C   0  0  0  0  0  0  0  0  0  0  0  0
   56.5470   26.9380   45.9230 O   0  0  0  0  0  0  0  0  0  0  0  0
   55.1510   28.2070   44.8730 H   0  0  0  0  0  0  0  0  0  0  0  0
   56.3189   29.2139   42.3011 H   0  0  0  0  0  0  0  0  0  0  0  0
   57.6960   30.1966   42.7992 H   0  0  0  0  0  0  0  0  0  0  0  0
   56.8979   27.3804   43.6845 H   0  0  0  0  0  0  0  0  0  0  0  0
   58.5107   28.0002   43.1025 H   0  0  0  0  0  0  0  0  0  0  0  0
   59.6265   29.7619   44.5162 H   0  0  0  0  0  0  0  0  0  0  0  0
   60.3740   30.0650   46.7710 H   0  0  0  0  0  0  0  0  0  0  0  0
   58.1833   30.8335   50.0849 H   0  0  0  0  0  0  0  0  0  0  0  0
   59.8389   31.0215   50.7134 H   0  0  0  0  0  0  0  0  0  0  0  0
   56.9730   32.2830   46.3430 H   0  0  0  0  0  0  0  0  0  0  0  0
   57.0221   33.5874   44.2682 H   0  0  0  0  0  0  0  0  0  0  0  0
   58.7420   35.3632   43.9615 H   0  0  0  0  0  0  0  0  0  0  0  0
   60.4000   35.7636   45.8086 H   0  0  0  0  0  0  0  0  0  0  0  0
   60.4940   33.7240   48.8510 H   0  0  0  0  0  0  0  0  0  0  0  0
  1  2  2  0
  2  3  1  0
  2  4  1  0
  4  5  1  0
  5  6  1  0
  6  7  2  0
  7  8  1  0
  8  9  1  0
  9 10  1  0
 10 11  1  0
 11 12  1  0
 12 13  2  0
 12 14  1  0
 14 15  2  0
 15 16  1  0
 16 17  1  0
 17 18  2  0
 18 19  1  0
 19 20  2  0
 20 21  1  0
  9 22  2  0
 22 23  1  0
 23 24  2  0
 23  6  1  0
 20 15  1  0
  3 25  1  0
  4 26  1  0
  4 27  1  0
  5 28  1  0
  5 29  1  0
  7 30  1  0
  8 31  1  0
 11 32  1  0
 11 33  1  0
 16 34  1  0
 17 35  1  0
 18 36  1  0
 19 37  1  0
 21 38  1  0
M  END
>  <smiles>  (56) 
O=C(O)CCc1c[nH]c(SCC(=O)N=c2[nH]cccc2O)nc1=O

>  <score_type>  (56) 
oracle

>  <origin>  (56) 
adg

>  <m_score__min__energy>  (56) 
-8.5

>  <m_primary>  (56) 
energy

$$$$
56:0
     RDKit          3D

 50 54  0  0  0  0  0  0  0  0999 V2000
   60.4670   33.5560   51.3660 C   0  0  0  0  0  0  0  0  0  0  0  0
   60.6580   33.5970   49.9200 N   0  0  0  0  0  0  0  0  0  0  0  0
   59.6820   33.7390   48.9920 C   0  0  0  0  0  0  0  0  0  0  0  0
   60.2350   33.6940   47.7180 C   0  0  0  0  0  0  0  0  0  0  0  0
   59.5200   33.8620   46.4460 C   0  0  0  0  0  0  0  0  0  0  0  0
   58.7380   32.9590   45.8600 C   0  0  0  0  0  0  0  0  0  0  0  0
   58.5610   31.5570   46.2810 C   0  0  0  0  0  0  0  0  0  0  0  0
   58.8680   31.0260   47.5370 C   0  0  0  0  0  0  0  0  0  0  0  0
   58.6490   29.6890   47.5460 N   0  0  0  0  0  0  0  0  0  0  0  0
   58.9630   28.7640   48.6330 C   0  0  0  0  0  0  0  0  0  0  0  0
   60.3640   28.1770   48.4330 C   0  0  0  0  0  0  0  0  0  0  0  0
   60.4160   27.1780   47.2720 C   0  0  0  0  0  0  0  0  0  0  0  0
   59.1900   26.3950   47.2040 N   0  0  0  0  0  0  0  0  0  0  0  0
   58.2160   29.3750   46.3110 C   0  0  0  0  0  0  0  0  0  0  0  0
   57.8950   28.1350   45.8600 N   0  0  0  0  0  0  0  0  0  0  0  0
   57.4660   27.9890   44.5700 C   0  0  0  0  0  0  0  0  0  0  0  0
   57.3500   29.1110   43.7190 C   0  0  0  0  0  0  0  0  0  0  0  0
   57.6920   30.3890   44.1950 C   0  0  0  0  0  0  0  0  0  0  0  0
   58.1420   30.4850   45.5120 C   0  0  0  0  0  0  0  0  0  0  0  0
   58.1370   33.6040   44.6880 C   0  0  0  0  0  0  0  0  0  0  0  0
   57.3920   33.0300   43.8490 O   0  0  0  0  0  0  0  0  0  0  0  0
   58.5400   34.9680   44.5680 N   0  0  0  0  0  0  0  0  0  0  0  0
   59.4090   35.1080   45.6870 C   0  0  0  0  0  0  0  0  0  0  0  0
   59.9870   36.1890   45.9800 O   0  0  0  0  0  0  0  0  0  0  0  0
   61.5940   33.5060   47.8880 C   0  0  0  0  0  0  0  0  0  0  0  0
   62.6310   33.3770   46.9570 C   0  0  0  0  0  0  0  0  0  0  0  0
   63.9340   33.1620   47.4450 C   0  0  0  0  0  0  0  0  0  0  0  0
   64.1690   33.0890   48.8360 C   0  0  0  0  0  0  0  0  0  0  0  0
   63.1020   33.2320   49.7510 C   0  0  0  0  0  0  0  0  0  0  0  0
   61.8170   33.4400   49.2390 C   0  0  0  0  0  0  0  0  0  0  0  0
   61.4239   33.7614   51.8682 H   0  0  0  0  0  0  0  0  0  0  0  0
   59.7281   34.3160   51.6599 H   0  0  0  0  0  0  0  0  0  0  0  0
   60.1051   32.5597   51.6599 H   0  0  0  0  0  0  0  0  0  0  0  0
   58.6125   33.8702   49.2134 H   0  0  0  0  0  0  0  0  0  0  0  0
   59.2345   31.6095   48.3944 H   0  0  0  0  0  0  0  0  0  0  0  0
   58.9271   29.3026   49.5915 H   0  0  0  0  0  0  0  0  0  0  0  0
   58.2263   27.9472   48.6363 H   0  0  0  0  0  0  0  0  0  0  0  0
   61.0652   28.9985   48.2244 H   0  0  0  0  0  0  0  0  0  0  0  0
   60.6376   27.6387   49.3525 H   0  0  0  0  0  0  0  0  0  0  0  0
   60.5442   27.7288   46.3285 H   0  0  0  0  0  0  0  0  0  0  0  0
   61.2613   26.4934   47.4355 H   0  0  0  0  0  0  0  0  0  0  0  0
   58.9590   26.2580   46.1920 H   0  0  0  0  0  0  0  0  0  0  0  0
   58.4130   26.9670   47.6070 H   0  0  0  0  0  0  0  0  0  0  0  0
   57.2088   26.9888   44.1912 H   0  0  0  0  0  0  0  0  0  0  0  0
   56.9929   28.9849   42.6863 H   0  0  0  0  0  0  0  0  0  0  0  0
   57.6080   31.2788   43.5537 H   0  0  0  0  0  0  0  0  0  0  0  0
   62.4340   33.4416   45.8767 H   0  0  0  0  0  0  0  0  0  0  0  0
   64.7717   33.0505   46.7409 H   0  0  0  0  0  0  0  0  0  0  0  0
   65.1897   32.9197   49.2094 H   0  0  0  0  0  0  0  0  0  0  0  0
   63.2769   33.1812   50.8358 H   0  0  0  0  0  0  0  0  0  0  0  0
  1  2  1  0
  2  3  1  0
  3  4  2  0
  4  5  1  0
  5  6  2  0
  6  7  1  0
  7  8  2  0
  8  9  1  0
  9 10  1  0
 10 11  1  0
 11 12  1  0
 12 13  1  0
  9 14  1  0
 14 15  2  0
 15 16  1  0
 16 17  2  0
 17 18  1  0
 18 19  2  0
  6 20  1  0
 20 21  2  0
 20 22  1  0
 22 23  1  0
 23 24  2  0
  4 25  1  0
 25 26  2  0
 26 27  1  0
 27 28  2  0
 28 29  1  0
 29 30  2  0
 30  2  1  0
 23  5  1  0
 30 25  1  0
 19  7  1  0
 19 14  1  0
  1 31  1  0
  1 32  1  0
  1 33  1  0
  3 34  1  0
  8 35  1  0
 10 36  1  0
 10 37  1  0
 11 38  1  0
 11 39  1  0
 12 40  1  0
 12 41  1  0
 13 42  1  0
 13 43  1  0
 16 44  1  0
 17 45  1  0
 18 46  1  0
 26 47  1  0
 27 48  1  0
 28 49  1  0
 29 50  1  0
M  CHG  1  22  -1
M  END
>  <UniqueID>  (57) 
50

>  <SMILES>  (57) 
Cn1cc(C2=C(c3cn(CCCN)c4ncccc34)C(=O)[N-]C2=O)c2ccccc21

>  <Energy>  (57) 
154.04899742794643

>  <Genealogy>  (57) 
Cn1cc(C2=C(c3cn(CCCN)c4ncccc34)C(=O)[N-]C2=O)c2ccccc21 (protonated)
Cn1cc(C2=C(c3cn(CCCN)c4ncccc34)C(=O)[N-]C2=O)c2ccccc21 (3D coordinates assigned)
Cn1cc(C2=C(c3cn(CCCN)c4ncccc34)C(=O)[N-]C2=O)c2ccccc21 (nonaromatic ring conformer: 154.04899742794643 kcal/mol)

>  <smiles>  (57) 
Cn1cc(C2=C(c3cn(CCCN)c4ncccc34)C(=O)NC2=O)c2ccccc21

>  <score_type>  (57) 
oracle

>  <origin>  (57) 
adg

>  <m_score__min__energy>  (57) 
-9.8100000000000005

>  <m_primary>  (57) 
energy

$$$$
57:0
     RDKit          3D

 35 37  0  0  0  0  0  0  0  0999 V2000
   55.9730   27.1577   57.0630 H   0  0  0  0  0  0  0  0  0  0  0  0
   56.1080   27.5770   56.0550 C   0  0  0  0  0  0  0  0  0  0  0  0
   55.0670   27.6250   55.1900 N   0  0  0  0  0  0  0  0  0  0  0  0
   55.1860   28.1370   53.9360 C   0  0  0  0  0  0  0  0  0  0  0  0
   54.1170   28.1330   53.1810 N   0  0  0  0  0  0  0  0  0  0  0  0
   53.3330   29.2500   52.7410 C   0  0  0  0  0  0  0  0  0  0  0  0
   52.8700   30.2110   53.6730 C   0  0  0  0  0  0  0  0  0  0  0  0
   53.1222   30.1042   54.7384 H   0  0  0  0  0  0  0  0  0  0  0  0
   52.0900   31.3010   53.2460 C   0  0  0  0  0  0  0  0  0  0  0  0
   51.7384   32.0603   53.9601 H   0  0  0  0  0  0  0  0  0  0  0  0
   51.7760   31.3900   51.8910 C   0  0  0  0  0  0  0  0  0  0  0  0
   51.0470   32.3520   51.2960 N   0  0  0  0  0  0  0  0  0  0  0  0
   51.0310   31.9830   49.9930 C   0  0  0  0  0  0  0  0  0  0  0  0
   50.3760   32.7120   49.0100 O   0  0  0  0  0  0  0  0  0  0  0  0
   51.7330   30.8090   49.7570 C   0  0  0  0  0  0  0  0  0  0  0  0
   51.8780   30.2892   48.7984 H   0  0  0  0  0  0  0  0  0  0  0  0
   52.2050   30.4450   50.9940 C   0  0  0  0  0  0  0  0  0  0  0  0
   52.9770   29.3530   51.3820 C   0  0  0  0  0  0  0  0  0  0  0  0
   53.2982   28.5959   50.6515 H   0  0  0  0  0  0  0  0  0  0  0  0
   56.4640   28.6110   53.5160 C   0  0  0  0  0  0  0  0  0  0  0  0
   56.6380   29.0450   52.2990 N   0  0  0  0  0  0  0  0  0  0  0  0
   57.9700   29.9710   51.6800 S   0  0  0  0  0  0  0  0  0  0  0  0
   59.2350   29.4700   52.3180 O   0  0  0  0  0  0  0  0  0  0  0  0
   58.0810   29.7880   50.1930 O   0  0  0  0  0  0  0  0  0  0  0  0
   57.7700   31.7000   52.0840 C   0  0  0  0  0  0  0  0  0  0  0  0
   58.1296   32.3110   51.2430 H   0  0  0  0  0  0  0  0  0  0  0  0
   58.3506   31.9198   52.9921 H   0  0  0  0  0  0  0  0  0  0  0  0
   56.3050   32.0270   52.3490 C   0  0  0  0  0  0  0  0  0  0  0  0
   56.1286   32.0664   53.4340 H   0  0  0  0  0  0  0  0  0  0  0  0
   56.0603   33.0019   51.9021 H   0  0  0  0  0  0  0  0  0  0  0  0
   55.6689   31.2487   51.9021 H   0  0  0  0  0  0  0  0  0  0  0  0
   57.5050   28.5640   54.4060 N   0  0  0  0  0  0  0  0  0  0  0  0
   58.4570   28.9050   54.1540 H   0  0  0  0  0  0  0  0  0  0  0  0
   57.3480   28.0620   55.6580 C   0  0  0  0  0  0  0  0  0  0  0  0
   58.1989   28.0395   56.3548 H   0  0  0  0  0  0  0  0  0  0  0  0
  1  2  1  0
  2  3  1  0
  3  4  1  0
  4  5  2  0
  5  6  1  0
  6  7  2  0
  7  8  1  0
  7  9  1  0
  9 10  1  0
  9 11  2  0
 11 12  1  0
 12 13  1  0
 13 14  1  0
 13 15  2  0
 15 16  1  0
 15 17  1  0
 17 18  2  0
 18 19  1  0
  4 20  1  0
 20 21  2  0
 21 22  1  0
 22 23  2  0
 22 24  2  0
 22 25  1  0
 25 26  1  0
 25 27  1  0
 25 28  1  0
 28 29  1  0
 28 30  1  0
 28 31  1  0
 20 32  1  0
 32 33  1  0
 32 34  1  0
 34 35  1  0
 34  2  2  0
 18  6  1  0
 17 11  1  0
M  CHG  3   3  -1  12  -1  14  -1
M  END
>  <UniqueID>  (58) 
51

>  <SMILES>  (58) 
CCS(=O)(=O)/N=c1\[nH]cc[n-]\c1=N\c1ccc2[n-]c([O-])cc2c1

>  <Energy>  (58) 
82.33598515151621

>  <Genealogy>  (58) 
CCS(=O)(=O)N=c1[nH]cc[n-]c1=Nc1ccc2[n-]c([O-])cc2c1 (protonated)
CCS(=O)(=O)/N=c1\[nH]cc[n-]\c1=N\c1ccc2[n-]c([O-])cc2c1 (cis-trans isomerization)
CCS(=O)(=O)/N=c1\[nH]cc[n-]\c1=N\c1ccc2[n-]c([O-])cc2c1 (3D coordinates assigned)
CCS(=O)(=O)/N=c1\[nH]cc[n-]\c1=N\c1ccc2[n-]c([O-])cc2c1 (optimized conformer: 82.33598515151621 kcal/mol)

>  <smiles>  (58) 
CCS(=O)(=O)N=c1[nH]cc[nH]c1=Nc1ccc2[nH]c(O)cc2c1

>  <score_type>  (58) 
oracle

>  <origin>  (58) 
adg

>  <m_score__min__energy>  (58) 
-14.109999999999999

>  <m_primary>  (58) 
energy

$$$$
58:0
     RDKit          3D

 41 43  0  0  0  0  0  0  0  0999 V2000
   57.3020   22.2040   43.8490 C   0  0  0  0  0  0  0  0  0  0  0  0
   56.3130   23.0660   44.5790 C   0  0  0  0  0  0  0  0  0  0  0  0
   55.0040   22.9770   44.2230 N   0  0  0  0  0  0  0  0  0  0  0  0
   54.0520   23.7360   44.8180 C   0  0  0  0  0  0  0  0  0  0  0  0
   52.8490   23.6250   44.4670 O   0  0  0  0  0  0  0  0  0  0  0  0
   54.3960   24.6150   45.7910 N   0  0  0  0  0  0  0  0  0  0  0  0
   55.6860   24.7560   46.1880 C   0  0  0  0  0  0  0  0  0  0  0  0
   55.9570   25.5890   47.0930 O   0  0  0  0  0  0  0  0  0  0  0  0
   56.7000   23.9770   45.5930 C   0  0  0  0  0  0  0  0  0  0  0  0
   58.1490   24.1450   46.0160 C   0  0  0  0  0  0  0  0  0  0  0  0
   58.6490   25.5370   45.7190 C   0  0  0  0  0  0  0  0  0  0  0  0
   59.7820   26.0380   46.3780 C   0  0  0  0  0  0  0  0  0  0  0  0
   60.2450   27.3260   46.1040 C   0  0  0  0  0  0  0  0  0  0  0  0
   59.5830   28.1250   45.1700 C   0  0  0  0  0  0  0  0  0  0  0  0
   58.4540   27.6430   44.4990 C   0  0  0  0  0  0  0  0  0  0  0  0
   57.7990   28.5010   43.5540 N   0  0  0  0  0  0  0  0  0  0  0  0
   56.6420   29.7300   43.9530 S   0  0  0  0  0  0  0  0  0  0  0  0
   55.7180   29.2120   45.0210 O   0  0  0  0  0  0  0  0  0  0  0  0
   55.8580   30.0920   42.7220 O   0  0  0  0  0  0  0  0  0  0  0  0
   57.4640   31.1690   44.5560 C   0  0  0  0  0  0  0  0  0  0  0  0
   57.7760   31.2860   45.9190 C   0  0  0  0  0  0  0  0  0  0  0  0
   58.4270   32.4250   46.3990 C   0  0  0  0  0  0  0  0  0  0  0  0
   58.7740   33.4560   45.5210 C   0  0  0  0  0  0  0  0  0  0  0  0
   59.6630   35.0130   46.1800 Br  0  0  0  0  0  0  0  0  0  0  0  0
   58.4670   33.3480   44.1620 C   0  0  0  0  0  0  0  0  0  0  0  0
   57.8140   32.2070   43.6730 C   0  0  0  0  0  0  0  0  0  0  0  0
   57.5120   32.1040   42.3160 O   0  0  0  0  0  0  0  0  0  0  0  0
   57.9940   26.3410   44.7700 C   0  0  0  0  0  0  0  0  0  0  0  0
   57.9237   21.6622   44.5770 H   0  0  0  0  0  0  0  0  0  0  0  0
   56.7633   21.4821   43.2176 H   0  0  0  0  0  0  0  0  0  0  0  0
   57.9436   22.8362   43.2176 H   0  0  0  0  0  0  0  0  0  0  0  0
   58.2307   23.9580   47.0969 H   0  0  0  0  0  0  0  0  0  0  0  0
   58.7614   23.4280   45.4495 H   0  0  0  0  0  0  0  0  0  0  0  0
   60.3080   25.4125   47.1143 H   0  0  0  0  0  0  0  0  0  0  0  0
   61.1334   27.7123   46.6251 H   0  0  0  0  0  0  0  0  0  0  0  0
   59.9515   29.1400   44.9603 H   0  0  0  0  0  0  0  0  0  0  0  0
   57.5065   30.4765   46.6133 H   0  0  0  0  0  0  0  0  0  0  0  0
   58.6668   32.5107   47.4691 H   0  0  0  0  0  0  0  0  0  0  0  0
   58.7386   34.1612   43.4728 H   0  0  0  0  0  0  0  0  0  0  0  0
   57.4860   31.2080   41.8430 H   0  0  0  0  0  0  0  0  0  0  0  0
   57.1158   25.9497   44.2355 H   0  0  0  0  0  0  0  0  0  0  0  0
  1  2  1  0
  2  3  1  0
  3  4  1  0
  4  5  2  0
  4  6  1  0
  6  7  1  0
  7  8  2  0
  7  9  1  0
  9 10  1  0
 10 11  1  0
 11 12  2  0
 12 13  1  0
 13 14  2  0
 14 15  1  0
 15 16  1  0
 16 17  1  0
 17 18  2  0
 17 19  2  0
 17 20  1  0
 20 21  2  0
 21 22  1  0
 22 23  2  0
 23 24  1  0
 23 25  1  0
 25 26  2  0
 26 27  1  0
 15 28  2  0
  9  2  2  0
 28 11  1  0
 26 20  1  0
  1 29  1  0
  1 30  1  0
  1 31  1  0
 10 32  1  0
 10 33  1  0
 12 34  1  0
 13 35  1  0
 14 36  1  0
 21 37  1  0
 22 38  1  0
 25 39  1  0
 27 40  1  0
 28 41  1  0
M  CHG  3   3  -1   6  -1  16  -1
M  END
>  <UniqueID>  (59) 
52

>  <SMILES>  (59) 
Cc1[n-]c(=O)[n-]c(=O)c1Cc1cccc([N-]S(=O)(=O)c2ccc(Br)cc2O)c1

>  <Energy>  (59) 
49.575726929193586

>  <Genealogy>  (59) 
Cc1[n-]c(=O)[n-]c(=O)c1Cc1cccc([N-]S(=O)(=O)c2ccc(Br)cc2O)c1 (protonated)
Cc1[n-]c(=O)[n-]c(=O)c1Cc1cccc([N-]S(=O)(=O)c2ccc(Br)cc2O)c1 (3D coordinates assigned)
Cc1[n-]c(=O)[n-]c(=O)c1Cc1cccc([N-]S(=O)(=O)c2ccc(Br)cc2O)c1 (optimized conformer: 49.575726929193586 kcal/mol)

>  <smiles>  (59) 
Cc1[nH]c(=O)[nH]c(=O)c1Cc1cccc(NS(=O)(=O)c2ccc(Br)cc2O)c1

>  <score_type>  (59) 
oracle

>  <origin>  (59) 
adg

>  <m_score__min__energy>  (59) 
-13.81

>  <m_primary>  (59) 
energy

$$$$
59:0
     RDKit          3D

 38 39  0  0  0  0  0  0  0  0999 V2000
   58.6750   25.5240   46.7380 C   0  0  0  0  0  0  0  0  0  0  0  0
   58.0760   26.6680   46.0630 N   0  0  0  0  0  0  0  0  0  0  0  0
   56.6540   26.7930   45.9120 C   0  0  0  0  0  0  0  0  0  0  0  0
   55.9030   25.8270   46.2130 O   0  0  0  0  0  0  0  0  0  0  0  0
   56.0720   27.9850   45.3680 N   0  0  0  0  0  0  0  0  0  0  0  0
   56.6750   29.2830   45.4590 C   0  0  0  0  0  0  0  0  0  0  0  0
   56.3260   30.1790   44.6440 O   0  0  0  0  0  0  0  0  0  0  0  0
   57.5920   29.5940   46.5210 N   0  0  0  0  0  0  0  0  0  0  0  0
   58.4880   30.7190   46.5020 C   0  0  0  0  0  0  0  0  0  0  0  0
   58.1050   31.9440   45.9250 C   0  0  0  0  0  0  0  0  0  0  0  0
   58.9970   33.0200   45.8930 C   0  0  0  0  0  0  0  0  0  0  0  0
   60.2820   32.8840   46.4300 C   0  0  0  0  0  0  0  0  0  0  0  0
   61.4190   34.2710   46.3930 S   0  0  0  0  0  0  0  0  0  0  0  0
   62.2030   33.7970   47.9420 C   0  0  0  0  0  0  0  0  0  0  0  0
   61.5810   34.1620   49.1430 C   0  0  0  0  0  0  0  0  0  0  0  0
   62.1420   33.7960   50.3700 C   0  0  0  0  0  0  0  0  0  0  0  0
   63.3320   33.0690   50.4030 C   0  0  0  0  0  0  0  0  0  0  0  0
   63.9670   32.7100   49.2120 C   0  0  0  0  0  0  0  0  0  0  0  0
   63.4160   33.0730   47.9730 C   0  0  0  0  0  0  0  0  0  0  0  0
   64.1030   32.7110   46.7680 N   0  0  0  0  0  0  0  0  0  0  0  0
   60.6790   31.6610   46.9800 C   0  0  0  0  0  0  0  0  0  0  0  0
   59.7900   30.5820   47.0120 C   0  0  0  0  0  0  0  0  0  0  0  0
   60.1950   29.4060   47.5560 F   0  0  0  0  0  0  0  0  0  0  0  0
   58.6029   25.6617   47.8270 H   0  0  0  0  0  0  0  0  0  0  0  0
   58.1415   24.6067   46.4483 H   0  0  0  0  0  0  0  0  0  0  0  0
   59.7328   25.4399   46.4483 H   0  0  0  0  0  0  0  0  0  0  0  0
   58.7080   27.3900   45.6520 H   0  0  0  0  0  0  0  0  0  0  0  0
   55.1480   27.9060   44.8880 H   0  0  0  0  0  0  0  0  0  0  0  0
   57.5450   29.0120   47.3880 H   0  0  0  0  0  0  0  0  0  0  0  0
   57.0980   32.0556   45.4967 H   0  0  0  0  0  0  0  0  0  0  0  0
   58.6880   33.9758   45.4446 H   0  0  0  0  0  0  0  0  0  0  0  0
   60.6454   34.7401   49.1204 H   0  0  0  0  0  0  0  0  0  0  0  0
   61.6452   34.0812   51.3091 H   0  0  0  0  0  0  0  0  0  0  0  0
   63.7710   32.7780   51.3687 H   0  0  0  0  0  0  0  0  0  0  0  0
   64.9062   32.1383   49.2451 H   0  0  0  0  0  0  0  0  0  0  0  0
   64.7410   31.8880   46.7200 H   0  0  0  0  0  0  0  0  0  0  0  0
   63.9530   33.2550   45.8900 H   0  0  0  0  0  0  0  0  0  0  0  0
   61.6939   31.5474   47.3888 H   0  0  0  0  0  0  0  0  0  0  0  0
  1  2  1  0
  2  3  1  0
  3  4  2  0
  3  5  1  0
  5  6  1  0
  6  7  2  0
  6  8  1  0
  8  9  1  0
  9 10  2  0
 10 11  1  0
 11 12  2  0
 12 13  1  0
 13 14  1  0
 14 15  2  0
 15 16  1  0
 16 17  2  0
 17 18  1  0
 18 19  2  0
 19 20  1  0
 12 21  1  0
 21 22  2  0
 22 23  1  0
 22  9  1  0
 19 14  1  0
  1 24  1  0
  1 25  1  0
  1 26  1  0
  2 27  1  0
  5 28  1  0
  8 29  1  0
 10 30  1  0
 11 31  1  0
 15 32  1  0
 16 33  1  0
 17 34  1  0
 18 35  1  0
 20 36  1  0
 20 37  1  0
 21 38  1  0
M  END
>  <UniqueID>  (60) 
53

>  <SMILES>  (60) 
CNC(=O)NC(=O)Nc1ccc(Sc2ccccc2N)cc1F

>  <Energy>  (60) 
36.660628860260175

>  <Genealogy>  (60) 
CNC(=O)NC(=O)Nc1ccc(Sc2ccccc2N)cc1F (3D coordinates assigned)
CNC(=O)NC(=O)Nc1ccc(Sc2ccccc2N)cc1F (optimized conformer: 36.660628860260175 kcal/mol)

>  <smiles>  (60) 
CNC(=O)NC(=O)Nc1ccc(Sc2ccccc2N)cc1F

>  <score_type>  (60) 
oracle

>  <origin>  (60) 
adg

>  <m_score__min__energy>  (60) 
-7.4400000000000004

>  <m_primary>  (60) 
energy

$$$$
60:0
     RDKit          3D

 44 46  0  0  0  0  0  0  0  0999 V2000
   54.4490   22.7000   47.2280 C   0  0  0  0  0  0  0  0  0  0  0  0
   55.4700   23.3670   46.2940 C   0  0  1  0  0  0  0  0  0  0  0  0
   55.8600   22.4580   45.1270 C   0  0  0  0  0  0  0  0  0  0  0  0
   56.2200   22.9830   43.8640 C   0  0  0  0  0  0  0  0  0  0  0  0
   56.6040   22.1340   42.8210 C   0  0  0  0  0  0  0  0  0  0  0  0
   56.6420   20.7540   43.0190 C   0  0  0  0  0  0  0  0  0  0  0  0
   56.2930   20.2170   44.2600 C   0  0  0  0  0  0  0  0  0  0  0  0
   55.9090   21.0590   45.3070 C   0  0  0  0  0  0  0  0  0  0  0  0
   54.9120   24.6410   45.8230 N   0  0  0  0  0  0  0  0  0  0  0  0
   55.7680   25.6820   46.2770 C   0  0  0  0  0  0  0  0  0  0  0  0
   55.5840   26.8940   45.9920 O   0  0  0  0  0  0  0  0  0  0  0  0
   56.8540   25.2160   47.0580 N   0  0  0  0  0  0  0  0  0  0  0  0
   58.0420   25.9710   47.4530 C   0  0  0  0  0  0  0  0  0  0  0  0
   59.1740   25.6670   46.5270 C   0  0  0  0  0  0  0  0  0  0  0  0
   59.5140   24.4690   46.3340 O   0  0  0  0  0  0  0  0  0  0  0  0
   59.9170   26.7450   45.9420 N   0  0  0  0  0  0  0  0  0  0  0  0
   59.5470   28.1320   45.9330 C   0  0  0  0  0  0  0  0  0  0  0  0
   60.3610   29.1120   46.5230 C   0  0  0  0  0  0  0  0  0  0  0  0
   59.9830   30.4540   46.4910 C   0  0  0  0  0  0  0  0  0  0  0  0
   58.8000   30.8330   45.8600 C   0  0  0  0  0  0  0  0  0  0  0  0
   57.9830   29.8750   45.2400 C   0  0  0  0  0  0  0  0  0  0  0  0
   56.4970   30.4020   44.4400 S   0  0  0  0  0  0  0  0  0  0  0  0
   55.2040   29.3340   44.8600 N   0  0  0  0  0  0  0  0  0  0  0  0
   56.6750   30.3860   42.9460 O   0  0  0  0  0  0  0  0  0  0  0  0
   56.1610   31.8030   44.8710 O   0  0  0  0  0  0  0  0  0  0  0  0
   58.3680   28.5130   45.2690 C   0  0  0  0  0  0  0  0  0  0  0  0
   57.6040   27.5160   44.6540 O   0  0  0  0  0  0  0  0  0  0  0  0
   56.6950   23.8050   47.0590 C   0  0  0  0  0  0  0  0  0  0  0  0
   57.4960   23.0220   47.6390 O   0  0  0  0  0  0  0  0  0  0  0  0
   54.7332   22.8857   48.2743 H   0  0  0  0  0  0  0  0  0  0  0  0
   53.4501   23.1203   47.0393 H   0  0  0  0  0  0  0  0  0  0  0  0
   54.4325   21.6164   47.0393 H   0  0  0  0  0  0  0  0  0  0  0  0
   56.1977   24.0705   43.7003 H   0  0  0  0  0  0  0  0  0  0  0  0
   56.8767   22.5557   41.8423 H   0  0  0  0  0  0  0  0  0  0  0  0
   56.9468   20.0886   42.1978 H   0  0  0  0  0  0  0  0  0  0  0  0
   56.3205   19.1281   44.4137 H   0  0  0  0  0  0  0  0  0  0  0  0
   55.6419   20.6266   46.2825 H   0  0  0  0  0  0  0  0  0  0  0  0
   57.8188   27.0474   47.4139 H   0  0  0  0  0  0  0  0  0  0  0  0
   58.3269   25.6851   48.4763 H   0  0  0  0  0  0  0  0  0  0  0  0
   61.3016   28.8199   47.0129 H   0  0  0  0  0  0  0  0  0  0  0  0
   60.6203   31.2150   46.9650 H   0  0  0  0  0  0  0  0  0  0  0  0
   58.5038   31.8923   45.8477 H   0  0  0  0  0  0  0  0  0  0  0  0
   55.5930   28.3660   44.8440 H   0  0  0  0  0  0  0  0  0  0  0  0
   56.6260   27.6230   44.4270 H   0  0  0  0  0  0  0  0  0  0  0  0
  2  1  1  1
  2  3  1  0
  3  4  2  0
  4  5  1  0
  5  6  2  0
  6  7  1  0
  7  8  2  0
  2  9  1  0
  9 10  1  0
 10 11  2  0
 10 12  1  0
 12 13  1  0
 13 14  1  0
 14 15  2  0
 14 16  1  0
 16 17  1  0
 17 18  2  0
 18 19  1  0
 19 20  2  0
 20 21  1  0
 21 22  1  0
 22 23  1  0
 22 24  2  0
 22 25  2  0
 21 26  2  0
 26 27  1  0
 12 28  1  0
 28 29  2  0
 28  2  1  0
  8  3  1  0
 26 17  1  0
  1 30  1  0
  1 31  1  0
  1 32  1  0
  4 33  1  0
  5 34  1  0
  6 35  1  0
  7 36  1  0
  8 37  1  0
 13 38  1  0
 13 39  1  0
 18 40  1  0
 19 41  1  0
 20 42  1  0
 23 43  1  0
 27 44  1  0
M  CHG  3   9  -1  16  -1  23  -1
M  END
>  <UniqueID>  (61) 
54

>  <SMILES>  (61) 
C[C@@]1(c2ccccc2)[N-]C(=O)N(CC(=O)[N-]c2cccc(S([NH-])(=O)=O)c2O)C1=O

>  <Energy>  (61) 
71.65495627150325

>  <Genealogy>  (61) 
CC1(c2ccccc2)[N-]C(=O)N(CC(=O)[N-]c2cccc(S([NH-])(=O)=O)c2O)C1=O (protonated)
C[C@@]1(c2ccccc2)[N-]C(=O)N(CC(=O)[N-]c2cccc(S([NH-])(=O)=O)c2O)C1=O (chirality)
C[C@@]1(c2ccccc2)[N-]C(=O)N(CC(=O)[N-]c2cccc(S([NH-])(=O)=O)c2O)C1=O (3D coordinates assigned)
C[C@@]1(c2ccccc2)[N-]C(=O)N(CC(=O)[N-]c2cccc(S([NH-])(=O)=O)c2O)C1=O (nonaromatic ring conformer: 71.65495627150325 kcal/mol)

>  <smiles>  (61) 
CC1(c2ccccc2)NC(=O)N(CC(=O)Nc2cccc(S(N)(=O)=O)c2O)C1=O

>  <score_type>  (61) 
oracle

>  <origin>  (61) 
adg

>  <m_score__min__energy>  (61) 
-15.380000000000001

>  <m_primary>  (61) 
energy

$$$$
61:0
     RDKit          3D

 40 41  0  0  0  0  0  0  0  0999 V2000
   55.1500   29.4340   44.7870 N   0  0  0  0  0  0  0  0  0  0  0  0
   56.4770   28.4430   45.2760 S   0  0  0  0  0  0  0  0  0  0  0  0
   57.2860   29.1880   46.3000 O   0  0  0  0  0  0  0  0  0  0  0  0
   57.3340   28.1470   44.0770 O   0  0  0  0  0  0  0  0  0  0  0  0
   55.8530   26.9730   45.9710 N   0  0  0  0  0  0  0  0  0  0  0  0
   56.6480   25.8030   45.5850 C   0  0  0  0  0  0  0  0  0  0  0  0
   57.7390   25.4770   46.6140 C   0  0  0  0  0  0  0  0  0  0  0  0
   59.1080   25.2630   45.9580 C   0  0  0  0  0  0  0  0  0  0  0  0
   60.1380   26.0030   46.6790 N   0  0  0  0  0  0  0  0  0  0  0  0
   60.3440   27.4130   46.5450 C   0  0  0  0  0  0  0  0  0  0  0  0
   60.7580   27.8980   45.4580 O   0  0  0  0  0  0  0  0  0  0  0  0
   60.0700   28.2930   47.6870 C   0  0  0  0  0  0  0  0  0  0  0  0
   59.9920   27.9170   49.0120 C   0  0  0  0  0  0  0  0  0  0  0  0
   59.7650   28.9990   49.7130 O   0  0  0  0  0  0  0  0  0  0  0  0
   59.7030   30.0020   48.8650 C   0  0  0  0  0  0  0  0  0  0  0  0
   59.4880   31.4230   49.2800 C   0  0  0  0  0  0  0  0  0  0  0  0
   59.9820   32.3130   48.2780 O   0  0  0  0  0  0  0  0  0  0  0  0
   59.2590   32.7590   47.1580 C   0  0  0  0  0  0  0  0  0  0  0  0
   59.6130   33.9880   46.5880 C   0  0  0  0  0  0  0  0  0  0  0  0
   58.9380   34.4690   45.4620 C   0  0  0  0  0  0  0  0  0  0  0  0
   57.8970   33.7260   44.8980 C   0  0  0  0  0  0  0  0  0  0  0  0
   57.5250   32.5000   45.4640 C   0  0  0  0  0  0  0  0  0  0  0  0
   56.4860   31.7520   44.9140 O   0  0  0  0  0  0  0  0  0  0  0  0
   58.2000   32.0190   46.5920 C   0  0  0  0  0  0  0  0  0  0  0  0
   59.8850   29.6210   47.5840 N   0  0  0  0  0  0  0  0  0  0  0  0
   54.4210   29.3550   45.5330 H   0  0  0  0  0  0  0  0  0  0  0  0
   55.9785   24.9352   45.4918 H   0  0  0  0  0  0  0  0  0  0  0  0
   57.1430   26.0319   44.6297 H   0  0  0  0  0  0  0  0  0  0  0  0
   57.8143   26.3113   47.3269 H   0  0  0  0  0  0  0  0  0  0  0  0
   57.4572   24.5420   47.1204 H   0  0  0  0  0  0  0  0  0  0  0  0
   59.3539   24.1909   45.9735 H   0  0  0  0  0  0  0  0  0  0  0  0
   59.0675   25.6262   44.9205 H   0  0  0  0  0  0  0  0  0  0  0  0
   60.1006   26.8960   49.4068 H   0  0  0  0  0  0  0  0  0  0  0  0
   58.4119   31.6000   49.4238 H   0  0  0  0  0  0  0  0  0  0  0  0
   60.0294   31.6068   50.2197 H   0  0  0  0  0  0  0  0  0  0  0  0
   60.4285   34.5796   47.0295 H   0  0  0  0  0  0  0  0  0  0  0  0
   59.2266   35.4337   45.0192 H   0  0  0  0  0  0  0  0  0  0  0  0
   57.3699   34.1041   44.0096 H   0  0  0  0  0  0  0  0  0  0  0  0
   56.2720   30.8190   45.2470 H   0  0  0  0  0  0  0  0  0  0  0  0
   57.9030   31.0589   47.0393 H   0  0  0  0  0  0  0  0  0  0  0  0
  1  2  1  0
  2  3  2  0
  2  4  2  0
  2  5  1  0
  5  6  1  0
  6  7  1  0
  7  8  1  0
  8  9  1  0
  9 10  1  0
 10 11  2  0
 10 12  1  0
 12 13  2  0
 13 14  1  0
 14 15  1  0
 15 16  1  0
 16 17  1  0
 17 18  1  0
 18 19  2  0
 19 20  1  0
 20 21  2  0
 21 22  1  0
 22 23  1  0
 22 24  2  0
 15 25  2  0
 25 12  1  0
 24 18  1  0
  1 26  1  0
  6 27  1  0
  6 28  1  0
  7 29  1  0
  7 30  1  0
  8 31  1  0
  8 32  1  0
 13 33  1  0
 16 34  1  0
 16 35  1  0
 19 36  1  0
 20 37  1  0
 21 38  1  0
 23 39  1  0
 24 40  1  0
M  CHG  3   1  -1   5  -1   9  -1
M  END
>  <UniqueID>  (62) 
55

>  <SMILES>  (62) 
[NH-]S(=O)(=O)[N-]CCC[N-]C(=O)c1coc(COc2cccc(O)c2)n1

>  <Energy>  (62) 
59.496729378409235

>  <Genealogy>  (62) 
[NH-]S(=O)(=O)[N-]CCC[N-]C(=O)c1coc(COc2cccc(O)c2)n1 (protonated)
[NH-]S(=O)(=O)[N-]CCC[N-]C(=O)c1coc(COc2cccc(O)c2)n1 (3D coordinates assigned)
[NH-]S(=O)(=O)[N-]CCC[N-]C(=O)c1coc(COc2cccc(O)c2)n1 (optimized conformer: 59.496729378409235 kcal/mol)

>  <smiles>  (62) 
NS(=O)(=O)NCCCNC(=O)c1coc(COc2cccc(O)c2)n1

>  <score_type>  (62) 
oracle

>  <origin>  (62) 
adg

>  <m_score__min__energy>  (62) 
-13.33

>  <m_primary>  (62) 
energy

$$$$
62:0
     RDKit          3D

 29 30  0  0  0  0  0  0  0  0999 V2000
   53.8520   28.4420   53.0050 O   0  0  0  0  0  0  0  0  0  0  0  0
   53.9380   29.6880   52.8200 C   0  0  0  0  0  0  0  0  0  0  0  0
   54.9390   30.4270   53.4630 O   0  0  0  0  0  0  0  0  0  0  0  0
   55.7090   29.9230   54.5520 C   0  0  0  0  0  0  0  0  0  0  0  0
   57.0310   29.3900   54.0590 C   0  0  0  0  0  0  0  0  0  0  0  0
   57.5420   29.8580   52.8390 C   0  0  0  0  0  0  0  0  0  0  0  0
   58.7540   29.3740   52.3460 C   0  0  0  0  0  0  0  0  0  0  0  0
   59.4690   28.4120   53.0640 C   0  0  0  0  0  0  0  0  0  0  0  0
   60.6760   27.9360   52.5640 O   0  0  0  0  0  0  0  0  0  0  0  0
   58.9750   27.9310   54.2820 C   0  0  0  0  0  0  0  0  0  0  0  0
   59.7050   26.9700   54.9810 O   0  0  0  0  0  0  0  0  0  0  0  0
   57.7530   28.4170   54.7830 C   0  0  0  0  0  0  0  0  0  0  0  0
   57.2620   27.9330   55.9920 O   0  0  0  0  0  0  0  0  0  0  0  0
   52.9780   30.3730   51.9260 C   0  0  0  0  0  0  0  0  0  0  0  0
   52.7620   29.9100   50.6140 C   0  0  0  0  0  0  0  0  0  0  0  0
   51.8560   30.5630   49.7740 C   0  0  0  0  0  0  0  0  0  0  0  0
   51.1570   31.6840   50.2300 C   0  0  0  0  0  0  0  0  0  0  0  0
   50.2560   32.3280   49.3890 O   0  0  0  0  0  0  0  0  0  0  0  0
   51.3640   32.1540   51.5320 C   0  0  0  0  0  0  0  0  0  0  0  0
   50.6720   33.2680   51.9910 O   0  0  0  0  0  0  0  0  0  0  0  0
   52.2700   31.5020   52.3760 C   0  0  0  0  0  0  0  0  0  0  0  0
   55.8912   30.7336   55.2729 H   0  0  0  0  0  0  0  0  0  0  0  0
   55.1525   29.1060   55.0345 H   0  0  0  0  0  0  0  0  0  0  0  0
   56.9825   30.6126   52.2667 H   0  0  0  0  0  0  0  0  0  0  0  0
   59.1475   29.7504   51.3902 H   0  0  0  0  0  0  0  0  0  0  0  0
   60.5860   26.6050   54.6370 H   0  0  0  0  0  0  0  0  0  0  0  0
   53.3097   29.0290   50.2480 H   0  0  0  0  0  0  0  0  0  0  0  0
   51.6925   30.1936   48.7509 H   0  0  0  0  0  0  0  0  0  0  0  0
   52.4296   31.8750   53.3984 H   0  0  0  0  0  0  0  0  0  0  0  0
  1  2  2  0
  2  3  1  0
  3  4  1  0
  4  5  1  0
  5  6  2  0
  6  7  1  0
  7  8  2  0
  8  9  1  0
  8 10  1  0
 10 11  1  0
 10 12  2  0
 12 13  1  0
  2 14  1  0
 14 15  2  0
 15 16  1  0
 16 17  2  0
 17 18  1  0
 17 19  1  0
 19 20  1  0
 19 21  2  0
 12  5  1  0
 21 14  1  0
  4 22  1  0
  4 23  1  0
  6 24  1  0
  7 25  1  0
 11 26  1  0
 15 27  1  0
 16 28  1  0
 21 29  1  0
M  CHG  4   9  -1  13  -1  18  -1  20  -1
M  END
>  <UniqueID>  (63) 
56

>  <SMILES>  (63) 
O=C(OCc1ccc([O-])c(O)c1[O-])c1ccc([O-])c([O-])c1

>  <Energy>  (63) 
30.47005529782677

>  <Genealogy>  (63) 
O=C(OCc1ccc([O-])c(O)c1[O-])c1ccc([O-])c([O-])c1 (protonated)
O=C(OCc1ccc([O-])c(O)c1[O-])c1ccc([O-])c([O-])c1 (3D coordinates assigned)
O=C(OCc1ccc([O-])c(O)c1[O-])c1ccc([O-])c([O-])c1 (optimized conformer: 30.47005529782677 kcal/mol)

>  <smiles>  (63) 
O=C(OCc1ccc(O)c(O)c1O)c1ccc(O)c(O)c1

>  <score_type>  (63) 
oracle

>  <origin>  (63) 
adg

>  <m_score__min__energy>  (63) 
-16.100000000000001

>  <m_primary>  (63) 
energy

$$$$
63:0
     RDKit          3D

 40 41  0  0  0  0  0  0  0  0999 V2000
   58.8970   34.2940   45.8340 C   0  0  0  0  0  0  0  0  0  0  0  0
   59.0590   32.7920   45.7600 C   0  0  0  0  0  0  0  0  0  0  0  0
   60.0180   32.1130   46.5440 C   0  0  0  0  0  0  0  0  0  0  0  0
   60.9750   32.8130   47.4340 C   0  0  0  0  0  0  0  0  0  0  0  0
   62.3320   32.9910   47.1850 C   0  0  0  0  0  0  0  0  0  0  0  0
   62.9810   33.7620   48.1570 C   0  0  0  0  0  0  0  0  0  0  0  0
   62.1400   34.2120   49.1670 C   0  0  0  0  0  0  0  0  0  0  0  0
   60.5890   33.6500   48.8440 S   0  0  0  0  0  0  0  0  0  0  0  0
   60.0740   30.7190   46.4670 C   0  0  0  0  0  0  0  0  0  0  0  0
   59.2490   30.0490   45.6270 N   0  0  0  0  0  0  0  0  0  0  0  0
   58.3560   30.6730   44.8580 N   0  0  0  0  0  0  0  0  0  0  0  0
   57.5360   29.8560   43.9560 C   0  0  0  0  0  0  0  0  0  0  0  0
   56.1860   29.5780   44.5660 C   0  0  0  0  0  0  0  0  0  0  0  0
   55.2960   30.4680   44.5230 O   0  0  0  0  0  0  0  0  0  0  0  0
   55.8890   28.3500   45.2470 N   0  0  0  0  0  0  0  0  0  0  0  0
   56.8420   27.4870   45.9410 C   0  0  0  0  0  0  0  0  0  0  0  0
   56.3120   26.0560   46.0660 C   0  0  0  0  0  0  0  0  0  0  0  0
   54.8510   26.0330   45.9560 N   0  0  0  0  0  0  0  0  0  0  0  0
   54.2750   24.4430   45.5540 S   0  0  0  0  0  0  0  0  0  0  0  0
   54.7430   23.3160   46.8480 C   0  0  0  0  0  0  0  0  0  0  0  0
   54.8910   23.9900   44.2600 O   0  0  0  0  0  0  0  0  0  0  0  0
   52.7780   24.4460   45.4220 O   0  0  0  0  0  0  0  0  0  0  0  0
   58.2460   32.0390   44.8880 C   0  0  0  0  0  0  0  0  0  0  0  0
   57.4180   32.6250   44.1340 O   0  0  0  0  0  0  0  0  0  0  0  0
   58.8632   34.6077   46.8878 H   0  0  0  0  0  0  0  0  0  0  0  0
   59.7480   34.7797   45.3340 H   0  0  0  0  0  0  0  0  0  0  0  0
   57.9620   34.5870   45.3340 H   0  0  0  0  0  0  0  0  0  0  0  0
   62.8454   32.5671   46.3094 H   0  0  0  0  0  0  0  0  0  0  0  0
   64.0566   33.9901   48.1240 H   0  0  0  0  0  0  0  0  0  0  0  0
   62.4372   34.8286   50.0281 H   0  0  0  0  0  0  0  0  0  0  0  0
   60.7903   30.1638   47.0905 H   0  0  0  0  0  0  0  0  0  0  0  0
   57.3990   30.3939   43.0063 H   0  0  0  0  0  0  0  0  0  0  0  0
   58.0490   28.8985   43.7826 H   0  0  0  0  0  0  0  0  0  0  0  0
   57.7865   27.4708   45.3773 H   0  0  0  0  0  0  0  0  0  0  0  0
   56.9983   27.8878   46.9534 H   0  0  0  0  0  0  0  0  0  0  0  0
   56.7442   25.4396   45.2640 H   0  0  0  0  0  0  0  0  0  0  0  0
   56.5987   25.6576   47.0504 H   0  0  0  0  0  0  0  0  0  0  0  0
   54.5501   23.7805   47.8263 H   0  0  0  0  0  0  0  0  0  0  0  0
   54.1547   22.3908   46.7590 H   0  0  0  0  0  0  0  0  0  0  0  0
   55.8136   23.0797   46.7590 H   0  0  0  0  0  0  0  0  0  0  0  0
  1  2  1  0
  2  3  2  0
  3  4  1  0
  4  5  2  0
  5  6  1  0
  6  7  2  0
  7  8  1  0
  3  9  1  0
  9 10  2  0
 10 11  1  0
 11 12  1  0
 12 13  1  0
 13 14  2  0
 13 15  1  0
 15 16  1  0
 16 17  1  0
 17 18  1  0
 18 19  1  0
 19 20  1  0
 19 21  2  0
 19 22  2  0
 11 23  1  0
 23 24  2  0
 23  2  1  0
  8  4  1  0
  1 25  1  0
  1 26  1  0
  1 27  1  0
  5 28  1  0
  6 29  1  0
  7 30  1  0
  9 31  1  0
 12 32  1  0
 12 33  1  0
 16 34  1  0
 16 35  1  0
 17 36  1  0
 17 37  1  0
 20 38  1  0
 20 39  1  0
 20 40  1  0
M  CHG  2  15  -1  18  -1
M  END
>  <UniqueID>  (64) 
57

>  <SMILES>  (64) 
Cc1c(-c2cccs2)cnn(CC(=O)[N-]CC[N-]S(C)(=O)=O)c1=O

>  <Energy>  (64) 
67.51350284844757

>  <Genealogy>  (64) 
Cc1c(-c2cccs2)cnn(CC(=O)[N-]CC[N-]S(C)(=O)=O)c1=O (protonated)
Cc1c(-c2cccs2)cnn(CC(=O)[N-]CC[N-]S(C)(=O)=O)c1=O (3D coordinates assigned)
Cc1c(-c2cccs2)cnn(CC(=O)[N-]CC[N-]S(C)(=O)=O)c1=O (optimized conformer: 67.51350284844757 kcal/mol)

>  <smiles>  (64) 
Cc1c(-c2cccs2)cnn(CC(=O)NCCNS(C)(=O)=O)c1=O

>  <score_type>  (64) 
oracle

>  <origin>  (64) 
adg

>  <m_score__min__energy>  (64) 
-12.58

>  <m_primary>  (64) 
energy

$$$$
64:0
     RDKit          3D

 43 44  0  0  0  0  0  0  0  0999 V2000
   50.2220   33.6930   53.7830 C   0  0  0  0  0  0  0  0  0  0  0  0
   50.1370   32.5830   52.7440 C   0  0  0  0  0  0  0  0  0  0  0  0
   51.0580   32.8420   51.6430 N   0  0  0  0  0  0  0  0  0  0  0  0
   51.3930   31.8760   50.6400 C   0  0  0  0  0  0  0  0  0  0  0  0
   50.7520   31.8360   49.5540 O   0  0  0  0  0  0  0  0  0  0  0  0
   52.5220   30.9250   50.8710 C   0  0  0  0  0  0  0  0  0  0  0  0
   52.9220   30.8200   52.6500 S   0  0  0  0  0  0  0  0  0  0  0  0
   54.6780   30.5250   52.4170 C   0  0  0  0  0  0  0  0  0  0  0  0
   55.1920   29.2310   52.5110 C   0  0  0  0  0  0  0  0  0  0  0  0
   56.5250   29.0160   52.3620 N   0  0  0  0  0  0  0  0  0  0  0  0
   57.4020   30.0290   52.1300 C   0  0  0  0  0  0  0  0  0  0  0  0
   58.8540   29.6990   51.9500 C   0  0  0  0  0  0  0  0  0  0  0  0
   56.9260   31.3560   52.0430 C   0  0  0  0  0  0  0  0  0  0  0  0
   57.8400   32.4910   51.8100 C   0  0  0  0  0  0  0  0  0  0  0  0
   57.8930   33.4200   52.6560 O   0  0  0  0  0  0  0  0  0  0  0  0
   58.6780   32.5590   50.6500 N   0  0  0  0  0  0  0  0  0  0  0  0
   58.3920   31.9110   49.3740 C   0  0  0  0  0  0  0  0  0  0  0  0
   58.6780   32.8480   48.2310 C   0  0  0  0  0  0  0  0  0  0  0  0
   57.8130   32.8920   47.1250 C   0  0  0  0  0  0  0  0  0  0  0  0
   58.0510   33.7900   46.0790 C   0  0  0  0  0  0  0  0  0  0  0  0
   59.1520   34.6510   46.1310 C   0  0  0  0  0  0  0  0  0  0  0  0
   60.0170   34.6120   47.2270 C   0  0  0  0  0  0  0  0  0  0  0  0
   59.7830   33.7150   48.2740 C   0  0  0  0  0  0  0  0  0  0  0  0
   55.5510   31.5910   52.1860 C   0  0  0  0  0  0  0  0  0  0  0  0
   50.1884   33.2547   54.7914 H   0  0  0  0  0  0  0  0  0  0  0  0
   51.1650   34.2445   53.6541 H   0  0  0  0  0  0  0  0  0  0  0  0
   49.3740   34.3816   53.6541 H   0  0  0  0  0  0  0  0  0  0  0  0
   50.3979   31.6244   53.2163 H   0  0  0  0  0  0  0  0  0  0  0  0
   49.1114   32.5441   52.3482 H   0  0  0  0  0  0  0  0  0  0  0  0
   52.2350   29.9279   50.5057 H   0  0  0  0  0  0  0  0  0  0  0  0
   53.4078   31.2887   50.3297 H   0  0  0  0  0  0  0  0  0  0  0  0
   54.5172   28.3844   52.7059 H   0  0  0  0  0  0  0  0  0  0  0  0
   59.3303   29.5907   52.9356 H   0  0  0  0  0  0  0  0  0  0  0  0
   58.9492   28.7563   51.3912 H   0  0  0  0  0  0  0  0  0  0  0  0
   59.3473   30.5079   51.3912 H   0  0  0  0  0  0  0  0  0  0  0  0
   59.0221   31.0149   49.2738 H   0  0  0  0  0  0  0  0  0  0  0  0
   57.3284   31.6316   49.3474 H   0  0  0  0  0  0  0  0  0  0  0  0
   56.9450   32.2177   47.0812 H   0  0  0  0  0  0  0  0  0  0  0  0
   57.3714   33.8190   45.2146 H   0  0  0  0  0  0  0  0  0  0  0  0
   59.3366   35.3585   45.3092 H   0  0  0  0  0  0  0  0  0  0  0  0
   60.8838   35.2881   47.2666 H   0  0  0  0  0  0  0  0  0  0  0  0
   60.4670   33.6880   49.1351 H   0  0  0  0  0  0  0  0  0  0  0  0
   55.1591   32.6164   52.1162 H   0  0  0  0  0  0  0  0  0  0  0  0
  1  2  1  0
  2  3  1  0
  3  4  1  0
  4  5  2  0
  4  6  1  0
  6  7  1  0
  7  8  1  0
  8  9  2  0
  9 10  1  0
 10 11  2  0
 11 12  1  0
 11 13  1  0
 13 14  1  0
 14 15  2  0
 14 16  1  0
 16 17  1  0
 17 18  1  0
 18 19  2  0
 19 20  1  0
 20 21  2  0
 21 22  1  0
 22 23  2  0
 13 24  2  0
 24  8  1  0
 23 18  1  0
  1 25  1  0
  1 26  1  0
  1 27  1  0
  2 28  1  0
  2 29  1  0
  6 30  1  0
  6 31  1  0
  9 32  1  0
 12 33  1  0
 12 34  1  0
 12 35  1  0
 17 36  1  0
 17 37  1  0
 19 38  1  0
 20 39  1  0
 21 40  1  0
 22 41  1  0
 23 42  1  0
 24 43  1  0
M  CHG  2   3  -1  16  -1
M  END
>  <UniqueID>  (65) 
58

>  <SMILES>  (65) 
CC[N-]C(=O)CSc1cnc(C)c(C(=O)[N-]Cc2ccccc2)c1

>  <Energy>  (65) 
33.843173161213805

>  <Genealogy>  (65) 
CC[N-]C(=O)CSc1cnc(C)c(C(=O)[N-]Cc2ccccc2)c1 (protonated)
CC[N-]C(=O)CSc1cnc(C)c(C(=O)[N-]Cc2ccccc2)c1 (3D coordinates assigned)
CC[N-]C(=O)CSc1cnc(C)c(C(=O)[N-]Cc2ccccc2)c1 (optimized conformer: 33.843173161213805 kcal/mol)

>  <smiles>  (65) 
CCNC(=O)CSc1cnc(C)c(C(=O)NCc2ccccc2)c1

>  <score_type>  (65) 
oracle

>  <origin>  (65) 
adg

>  <m_score__min__energy>  (65) 
-11.800000000000001

>  <m_primary>  (65) 
energy

$$$$
65:0
     RDKit          3D

 37 38  0  0  0  0  0  0  0  0999 V2000
   60.6690   26.6210   46.3710 C   0  0  0  0  0  0  0  0  0  0  0  0
   60.0210   27.9660   46.2910 C   0  0  0  0  0  0  0  0  0  0  0  0
   59.6500   28.5080   45.0990 N   0  0  0  0  0  0  0  0  0  0  0  0
   59.0580   29.7140   45.2540 C   0  0  0  0  0  0  0  0  0  0  0  0
   58.4740   30.4950   44.1200 C   0  0  0  0  0  0  0  0  0  0  0  0
   57.4800   31.5560   44.6080 C   0  0  0  0  0  0  0  0  0  0  0  0
   56.1660   30.9730   44.8640 N   0  0  0  0  0  0  0  0  0  0  0  0
   55.7360   29.7070   44.3530 C   0  0  0  0  0  0  0  0  0  0  0  0
   55.5150   29.5860   43.1190 O   0  0  0  0  0  0  0  0  0  0  0  0
   55.5550   28.5920   45.2330 N   0  0  0  0  0  0  0  0  0  0  0  0
   56.6440   27.7400   45.6960 C   0  0  0  0  0  0  0  0  0  0  0  0
   56.1430   26.3530   45.9630 C   0  0  0  0  0  0  0  0  0  0  0  0
   56.9860   25.3900   46.5360 C   0  0  0  0  0  0  0  0  0  0  0  0
   56.5030   24.0970   46.7550 C   0  0  0  0  0  0  0  0  0  0  0  0
   57.2510   23.2250   47.2720 O   0  0  0  0  0  0  0  0  0  0  0  0
   55.1870   23.7760   46.3980 C   0  0  0  0  0  0  0  0  0  0  0  0
   54.6950   22.4900   46.6120 O   0  0  0  0  0  0  0  0  0  0  0  0
   54.3780   24.7650   45.8230 C   0  0  0  0  0  0  0  0  0  0  0  0
   54.8710   26.0160   45.6190 N   0  0  0  0  0  0  0  0  0  0  0  0
   58.9560   30.1500   46.8770 S   0  0  0  0  0  0  0  0  0  0  0  0
   59.7260   28.7510   47.4060 C   0  0  0  0  0  0  0  0  0  0  0  0
   59.9300   28.3780   48.8380 C   0  0  0  0  0  0  0  0  0  0  0  0
   60.8038   26.3411   47.4262 H   0  0  0  0  0  0  0  0  0  0  0  0
   60.0308   25.8763   45.8728 H   0  0  0  0  0  0  0  0  0  0  0  0
   61.6491   26.6560   45.8728 H   0  0  0  0  0  0  0  0  0  0  0  0
   59.2888   30.9948   43.5756 H   0  0  0  0  0  0  0  0  0  0  0  0
   57.9320   29.7948   43.4674 H   0  0  0  0  0  0  0  0  0  0  0  0
   57.8610   32.0034   45.5379 H   0  0  0  0  0  0  0  0  0  0  0  0
   57.3744   32.3201   43.8238 H   0  0  0  0  0  0  0  0  0  0  0  0
   57.4269   27.7006   44.9243 H   0  0  0  0  0  0  0  0  0  0  0  0
   57.0533   28.1577   46.6277 H   0  0  0  0  0  0  0  0  0  0  0  0
   58.0189   25.6501   46.8108 H   0  0  0  0  0  0  0  0  0  0  0  0
   55.2560   21.7770   47.0630 H   0  0  0  0  0  0  0  0  0  0  0  0
   53.3426   24.5293   45.5362 H   0  0  0  0  0  0  0  0  0  0  0  0
   59.5030   29.1587   49.4847 H   0  0  0  0  0  0  0  0  0  0  0  0
   59.4306   27.4193   49.0419 H   0  0  0  0  0  0  0  0  0  0  0  0
   61.0066   28.2813   49.0419 H   0  0  0  0  0  0  0  0  0  0  0  0
  1  2  1  0
  2  3  1  0
  3  4  2  0
  4  5  1  0
  5  6  1  0
  6  7  1  0
  7  8  1  0
  8  9  2  0
  8 10  1  0
 10 11  1  0
 11 12  1  0
 12 13  2  0
 13 14  1  0
 14 15  2  0
 14 16  1  0
 16 17  1  0
 16 18  2  0
 18 19  1  0
  4 20  1  0
 20 21  1  0
 21 22  1  0
 21  2  2  0
 19 12  1  0
  1 23  1  0
  1 24  1  0
  1 25  1  0
  5 26  1  0
  5 27  1  0
  6 28  1  0
  6 29  1  0
 11 30  1  0
 11 31  1  0
 13 32  1  0
 17 33  1  0
 18 34  1  0
 22 35  1  0
 22 36  1  0
 22 37  1  0
M  CHG  3   7  -1  10  -1  19  -1
M  END
>  <UniqueID>  (66) 
59

>  <SMILES>  (66) 
Cc1nc(CC[N-]C(=O)[N-]Cc2cc(=O)c(O)c[n-]2)sc1C

>  <Energy>  (66) 
55.516126012712775

>  <Genealogy>  (66) 
Cc1nc(CC[N-]C(=O)[N-]Cc2cc(=O)c(O)c[n-]2)sc1C (protonated)
Cc1nc(CC[N-]C(=O)[N-]Cc2cc(=O)c(O)c[n-]2)sc1C (3D coordinates assigned)
Cc1nc(CC[N-]C(=O)[N-]Cc2cc(=O)c(O)c[n-]2)sc1C (optimized conformer: 55.516126012712775 kcal/mol)

>  <smiles>  (66) 
Cc1nc(CCNC(=O)NCc2cc(=O)c(O)c[nH]2)sc1C

>  <score_type>  (66) 
oracle

>  <origin>  (66) 
adg

>  <m_score__min__energy>  (66) 
-13.42

>  <m_primary>  (66) 
energy

$$$$
66:0
     RDKit          3D

 64 67  0  0  0  0  0  0  0  0999 V2000
   62.7220   31.7830   47.5140 C   0  0  0  0  0  0  0  0  0  0  0  0
   63.7680   32.8160   47.4190 N   0  0  0  0  0  0  0  0  0  0  0  0
   63.3870   33.7980   46.3870 C   0  0  0  0  0  0  0  0  0  0  0  0
   63.9660   33.4570   48.7390 C   0  0  0  0  0  0  0  0  0  0  0  0
   62.6910   33.4340   49.6050 C   0  0  0  0  0  0  0  0  0  0  0  0
   61.6210   34.4520   49.1740 C   0  0  0  0  0  0  0  0  0  0  0  0
   60.3270   33.8080   48.9100 N   0  0  0  0  0  0  0  0  0  0  0  0
   59.4440   33.2820   49.8060 C   0  0  0  0  0  0  0  0  0  0  0  0
   59.5970   33.3420   51.3040 C   0  0  0  0  0  0  0  0  0  0  0  0
   59.4010   31.9610   51.9440 C   0  0  0  0  0  0  0  0  0  0  0  0
   59.8090   30.8540   51.0050 C   0  0  0  0  0  0  0  0  0  0  0  0
   61.1650   30.6320   50.7150 C   0  0  0  0  0  0  0  0  0  0  0  0
   61.5390   29.6290   49.8130 C   0  0  0  0  0  0  0  0  0  0  0  0
   60.5610   28.8490   49.1900 C   0  0  0  0  0  0  0  0  0  0  0  0
   59.2080   29.0760   49.4600 C   0  0  0  0  0  0  0  0  0  0  0  0
   58.8300   30.0780   50.3600 C   0  0  0  0  0  0  0  0  0  0  0  0
   58.3610   32.7100   49.2190 N   0  0  0  0  0  0  0  0  0  0  0  0
   58.5860   32.8980   47.9090 C   0  0  0  0  0  0  0  0  0  0  0  0
   57.7880   32.4790   46.8490 C   0  0  0  0  0  0  0  0  0  0  0  0
   58.2370   32.7360   45.5320 C   0  0  0  0  0  0  0  0  0  0  0  0
   57.4240   32.3020   44.3760 C   0  0  0  0  0  0  0  0  0  0  0  0
   57.5240   32.9080   43.2740 O   0  0  0  0  0  0  0  0  0  0  0  0
   56.5320   31.2290   44.5110 O   0  0  0  0  0  0  0  0  0  0  0  0
   56.7680   29.9370   43.9600 C   0  0  0  0  0  0  0  0  0  0  0  0
   57.8390   29.2240   44.7400 C   0  0  0  0  0  0  0  0  0  0  0  0
   59.1900   29.5490   44.5380 C   0  0  0  0  0  0  0  0  0  0  0  0
   60.1920   28.8660   45.2380 C   0  0  0  0  0  0  0  0  0  0  0  0
   59.8520   27.8490   46.1320 C   0  0  0  0  0  0  0  0  0  0  0  0
   58.5090   27.5130   46.3290 C   0  0  0  0  0  0  0  0  0  0  0  0
   57.5060   28.1970   45.6370 C   0  0  0  0  0  0  0  0  0  0  0  0
   59.4740   33.4100   45.3350 C   0  0  0  0  0  0  0  0  0  0  0  0
   60.2470   33.8310   46.4310 C   0  0  0  0  0  0  0  0  0  0  0  0
   59.7640   33.5560   47.7130 C   0  0  0  0  0  0  0  0  0  0  0  0
   62.5092   31.5729   48.5726 H   0  0  0  0  0  0  0  0  0  0  0  0
   61.8068   32.1414   47.0202 H   0  0  0  0  0  0  0  0  0  0  0  0
   63.0690   30.8633   47.0202 H   0  0  0  0  0  0  0  0  0  0  0  0
   63.0297   34.7188   46.8712 H   0  0  0  0  0  0  0  0  0  0  0  0
   64.2609   34.0287   45.7600 H   0  0  0  0  0  0  0  0  0  0  0  0
   62.5862   33.3790   45.7600 H   0  0  0  0  0  0  0  0  0  0  0  0
   64.7652   32.9229   49.2739 H   0  0  0  0  0  0  0  0  0  0  0  0
   64.2304   34.5100   48.5623 H   0  0  0  0  0  0  0  0  0  0  0  0
   62.2526   32.4268   49.5478 H   0  0  0  0  0  0  0  0  0  0  0  0
   62.9959   33.7070   50.6260 H   0  0  0  0  0  0  0  0  0  0  0  0
   61.4921   35.1936   49.9761 H   0  0  0  0  0  0  0  0  0  0  0  0
   61.9603   34.9298   48.2431 H   0  0  0  0  0  0  0  0  0  0  0  0
   60.6055   33.7085   51.5461 H   0  0  0  0  0  0  0  0  0  0  0  0
   58.8283   34.0201   51.7030 H   0  0  0  0  0  0  0  0  0  0  0  0
   60.0128   31.8997   52.8561 H   0  0  0  0  0  0  0  0  0  0  0  0
   58.3336   31.8380   52.1795 H   0  0  0  0  0  0  0  0  0  0  0  0
   61.9366   31.2490   51.1987 H   0  0  0  0  0  0  0  0  0  0  0  0
   62.6029   29.4547   49.5945 H   0  0  0  0  0  0  0  0  0  0  0  0
   60.8558   28.0561   48.4869 H   0  0  0  0  0  0  0  0  0  0  0  0
   58.4393   28.4655   48.9637 H   0  0  0  0  0  0  0  0  0  0  0  0
   57.7643   30.2592   50.5635 H   0  0  0  0  0  0  0  0  0  0  0  0
   56.8340   31.9620   47.0299 H   0  0  0  0  0  0  0  0  0  0  0  0
   55.8385   29.3502   44.0000 H   0  0  0  0  0  0  0  0  0  0  0  0
   57.0991   30.0480   42.9169 H   0  0  0  0  0  0  0  0  0  0  0  0
   59.4622   30.3431   43.8272 H   0  0  0  0  0  0  0  0  0  0  0  0
   61.2483   29.1310   45.0834 H   0  0  0  0  0  0  0  0  0  0  0  0
   60.6399   27.3125   46.6809 H   0  0  0  0  0  0  0  0  0  0  0  0
   58.2415   26.7087   47.0301 H   0  0  0  0  0  0  0  0  0  0  0  0
   56.4509   27.9294   45.7959 H   0  0  0  0  0  0  0  0  0  0  0  0
   59.8301   33.6042   44.3125 H   0  0  0  0  0  0  0  0  0  0  0  0
   61.2005   34.3594   46.2843 H   0  0  0  0  0  0  0  0  0  0  0  0
  1  2  1  0
  2  3  1  0
  2  4  1  0
  4  5  1  0
  5  6  1  0
  6  7  1  0
  7  8  1  0
  8  9  1  0
  9 10  1  0
 10 11  1  0
 11 12  2  0
 12 13  1  0
 13 14  2  0
 14 15  1  0
 15 16  2  0
  8 17  2  0
 17 18  1  0
 18 19  2  0
 19 20  1  0
 20 21  1  0
 21 22  2  0
 21 23  1  0
 23 24  1  0
 24 25  1  0
 25 26  2  0
 26 27  1  0
 27 28  2  0
 28 29  1  0
 29 30  2  0
 20 31  2  0
 31 32  1  0
 32 33  2  0
 33  7  1  0
 16 11  1  0
 33 18  1  0
 30 25  1  0
  1 34  1  0
  1 35  1  0
  1 36  1  0
  3 37  1  0
  3 38  1  0
  3 39  1  0
  4 40  1  0
  4 41  1  0
  5 42  1  0
  5 43  1  0
  6 44  1  0
  6 45  1  0
  9 46  1  0
  9 47  1  0
 10 48  1  0
 10 49  1  0
 12 50  1  0
 13 51  1  0
 14 52  1  0
 15 53  1  0
 16 54  1  0
 19 55  1  0
 24 56  1  0
 24 57  1  0
 26 58  1  0
 27 59  1  0
 28 60  1  0
 29 61  1  0
 30 62  1  0
 31 63  1  0
 32 64  1  0
M  END
>  <UniqueID>  (67) 
60

>  <SMILES>  (67) 
CN(C)CCCn1c(CCc2ccccc2)nc2cc(C(=O)OCc3ccccc3)ccc21

>  <Energy>  (67) 
94.69911523306193

>  <Genealogy>  (67) 
CN(C)CCCn1c(CCc2ccccc2)nc2cc(C(=O)OCc3ccccc3)ccc21 (3D coordinates assigned)
CN(C)CCCn1c(CCc2ccccc2)nc2cc(C(=O)OCc3ccccc3)ccc21 (optimized conformer: 94.69911523306193 kcal/mol)

>  <smiles>  (67) 
CN(C)CCCn1c(CCc2ccccc2)nc2cc(C(=O)OCc3ccccc3)ccc21

>  <score_type>  (67) 
oracle

>  <origin>  (67) 
adg

>  <m_score__min__energy>  (67) 
-8.4000000000000004

>  <m_primary>  (67) 
energy

$$$$
67:0
     RDKit          3D

 53 55  0  0  0  0  0  0  0  0999 V2000
   61.2180   31.6610   48.2440 C   0  0  0  0  0  0  0  0  0  0  0  0
   60.9130   32.2980   49.5310 N   0  0  0  0  0  0  0  0  0  0  0  0
   60.9480   31.3130   50.6260 C   0  0  0  0  0  0  0  0  0  0  0  0
   60.8670   29.9270   50.0620 C   0  0  0  0  0  0  0  0  0  0  0  0
   61.8280   29.1290   50.2250 O   0  0  0  0  0  0  0  0  0  0  0  0
   59.6760   29.5050   49.3820 N   0  0  0  0  0  0  0  0  0  0  0  0
   59.6360   28.4940   48.3600 C   0  0  0  0  0  0  0  0  0  0  0  0
   60.4900   27.3860   48.4620 C   0  0  0  0  0  0  0  0  0  0  0  0
   60.4390   26.3610   47.5140 C   0  0  0  0  0  0  0  0  0  0  0  0
   59.5220   26.4260   46.4630 C   0  0  0  0  0  0  0  0  0  0  0  0
   58.6440   27.5120   46.3580 C   0  0  0  0  0  0  0  0  0  0  0  0
   57.4690   27.5780   45.0420 S   0  0  0  0  0  0  0  0  0  0  0  0
   56.1110   27.8500   45.6250 O   0  0  0  0  0  0  0  0  0  0  0  0
   57.4160   26.2380   44.3620 O   0  0  0  0  0  0  0  0  0  0  0  0
   57.8360   28.8220   43.8630 N   0  0  0  0  0  0  0  0  0  0  0  0
   56.6230   29.4230   43.2690 C   0  0  0  0  0  0  0  0  0  0  0  0
   56.2840   30.8000   43.8660 C   0  0  0  0  0  0  0  0  0  0  0  0
   56.7220   30.8760   45.2030 O   0  0  0  0  0  0  0  0  0  0  0  0
   58.1360   30.9090   45.2410 C   0  0  0  0  0  0  0  0  0  0  0  0
   58.7980   29.8200   44.3660 C   0  0  0  0  0  0  0  0  0  0  0  0
   58.7060   28.5460   47.3040 C   0  0  0  0  0  0  0  0  0  0  0  0
   59.3500   33.0830   49.4420 S   0  0  0  0  0  0  0  0  0  0  0  0
   59.2630   34.2180   50.4240 O   0  0  0  0  0  0  0  0  0  0  0  0
   58.2590   32.0900   49.7470 O   0  0  0  0  0  0  0  0  0  0  0  0
   59.1350   33.7340   47.8210 C   0  0  0  0  0  0  0  0  0  0  0  0
   60.1230   34.5620   47.2670 C   0  0  0  0  0  0  0  0  0  0  0  0
   59.9420   35.1150   45.9950 C   0  0  0  0  0  0  0  0  0  0  0  0
   58.7750   34.8470   45.2730 C   0  0  0  0  0  0  0  0  0  0  0  0
   57.7860   34.0230   45.8230 C   0  0  0  0  0  0  0  0  0  0  0  0
   56.6500   33.7720   45.1250 F   0  0  0  0  0  0  0  0  0  0  0  0
   57.9650   33.4680   47.0940 C   0  0  0  0  0  0  0  0  0  0  0  0
   61.6868   30.6819   48.4215 H   0  0  0  0  0  0  0  0  0  0  0  0
   60.2878   31.5240   47.6731 H   0  0  0  0  0  0  0  0  0  0  0  0
   61.9079   32.2998   47.6731 H   0  0  0  0  0  0  0  0  0  0  0  0
   61.8869   31.4246   51.1882 H   0  0  0  0  0  0  0  0  0  0  0  0
   60.0930   31.4837   51.2967 H   0  0  0  0  0  0  0  0  0  0  0  0
   58.7830   29.9910   49.6270 H   0  0  0  0  0  0  0  0  0  0  0  0
   61.2056   27.3236   49.2951 H   0  0  0  0  0  0  0  0  0  0  0  0
   61.1216   25.5023   47.5956 H   0  0  0  0  0  0  0  0  0  0  0  0
   59.4891   25.6208   45.7143 H   0  0  0  0  0  0  0  0  0  0  0  0
   56.7826   29.5391   42.1868 H   0  0  0  0  0  0  0  0  0  0  0  0
   55.7801   28.7512   43.4884 H   0  0  0  0  0  0  0  0  0  0  0  0
   56.7821   31.5836   43.2761 H   0  0  0  0  0  0  0  0  0  0  0  0
   55.1936   30.9426   43.8386 H   0  0  0  0  0  0  0  0  0  0  0  0
   58.4717   31.8942   44.8852 H   0  0  0  0  0  0  0  0  0  0  0  0
   58.4380   30.7183   46.2814 H   0  0  0  0  0  0  0  0  0  0  0  0
   59.2803   30.3068   43.5055 H   0  0  0  0  0  0  0  0  0  0  0  0
   59.5250   29.2877   44.9969 H   0  0  0  0  0  0  0  0  0  0  0  0
   58.0228   29.4040   47.2202 H   0  0  0  0  0  0  0  0  0  0  0  0
   61.0411   34.7765   47.8337 H   0  0  0  0  0  0  0  0  0  0  0  0
   60.7192   35.7619   45.5619 H   0  0  0  0  0  0  0  0  0  0  0  0
   58.6341   35.2835   44.2732 H   0  0  0  0  0  0  0  0  0  0  0  0
   57.1865   32.8212   47.5248 H   0  0  0  0  0  0  0  0  0  0  0  0
  1  2  1  0
  2  3  1  0
  3  4  1  0
  4  5  2  0
  4  6  1  0
  6  7  1  0
  7  8  2  0
  8  9  1  0
  9 10  2  0
 10 11  1  0
 11 12  1  0
 12 13  2  0
 12 14  2  0
 12 15  1  0
 15 16  1  0
 16 17  1  0
 17 18  1  0
 18 19  1  0
 19 20  1  0
 11 21  2  0
  2 22  1  0
 22 23  2  0
 22 24  2  0
 22 25  1  0
 25 26  2  0
 26 27  1  0
 27 28  2  0
 28 29  1  0
 29 30  1  0
 29 31  2  0
 21  7  1  0
 31 25  1  0
 20 15  1  0
  1 32  1  0
  1 33  1  0
  1 34  1  0
  3 35  1  0
  3 36  1  0
  6 37  1  0
  8 38  1  0
  9 39  1  0
 10 40  1  0
 16 41  1  0
 16 42  1  0
 17 43  1  0
 17 44  1  0
 19 45  1  0
 19 46  1  0
 20 47  1  0
 20 48  1  0
 21 49  1  0
 26 50  1  0
 27 51  1  0
 28 52  1  0
 31 53  1  0
M  END
>  <UniqueID>  (68) 
61

>  <SMILES>  (68) 
CN(CC(=O)Nc1cccc(S(=O)(=O)N2CCOCC2)c1)S(=O)(=O)c1cccc(F)c1

>  <Energy>  (68) 
62.801269348806805

>  <Genealogy>  (68) 
CN(CC(=O)Nc1cccc(S(=O)(=O)N2CCOCC2)c1)S(=O)(=O)c1cccc(F)c1 (3D coordinates assigned)
CN(CC(=O)Nc1cccc(S(=O)(=O)N2CCOCC2)c1)S(=O)(=O)c1cccc(F)c1 (nonaromatic ring conformer: 62.801269348806805 kcal/mol)

>  <smiles>  (68) 
CN(CC(=O)Nc1cccc(S(=O)(=O)N2CCOCC2)c1)S(=O)(=O)c1cccc(F)c1

>  <score_type>  (68) 
oracle

>  <origin>  (68) 
adg

>  <m_score__min__energy>  (68) 
-10.59

>  <m_primary>  (68) 
energy

$$$$
68:0
     RDKit          3D

 38 40  0  0  0  0  0  0  0  0999 V2000
   54.1230   26.7130   46.3820 H   0  0  0  0  0  0  0  0  0  0  0  0
   54.7870   26.3170   45.6800 N   0  0  0  0  0  0  0  0  0  0  0  0
   55.9100   25.5410   46.0900 C   0  0  0  0  0  0  0  0  0  0  0  0
   55.8760   24.9170   47.1830 O   0  0  0  0  0  0  0  0  0  0  0  0
   57.1070   25.4310   45.2010 C   0  0  0  0  0  0  0  0  0  0  0  0
   57.5549   24.4329   45.3162 H   0  0  0  0  0  0  0  0  0  0  0  0
   56.7948   25.5838   44.1574 H   0  0  0  0  0  0  0  0  0  0  0  0
   58.1230   26.4770   45.5680 C   0  0  0  0  0  0  0  0  0  0  0  0
   59.4080   26.1000   45.9800 C   0  0  0  0  0  0  0  0  0  0  0  0
   59.6831   25.0355   46.0127 H   0  0  0  0  0  0  0  0  0  0  0  0
   60.3400   27.0710   46.3490 C   0  0  0  0  0  0  0  0  0  0  0  0
   61.3500   26.7692   46.6633 H   0  0  0  0  0  0  0  0  0  0  0  0
   59.9960   28.4240   46.3210 C   0  0  0  0  0  0  0  0  0  0  0  0
   60.7377   29.1823   46.6121 H   0  0  0  0  0  0  0  0  0  0  0  0
   58.7070   28.8240   45.9230 C   0  0  0  0  0  0  0  0  0  0  0  0
   58.3170   30.2570   45.8940 C   0  0  0  0  0  0  0  0  0  0  0  0
   57.2690   30.7290   45.1860 N   0  0  0  0  0  0  0  0  0  0  0  0
   57.2010   32.0360   45.3770 N   0  0  0  0  0  0  0  0  0  0  0  0
   56.4790   32.6550   44.9440 H   0  0  0  0  0  0  0  0  0  0  0  0
   58.1910   32.4150   46.1990 C   0  0  0  0  0  0  0  0  0  0  0  0
   58.3650   33.6560   46.5610 N   0  0  0  0  0  0  0  0  0  0  0  0
   59.5260   34.4870   46.3900 C   0  0  0  0  0  0  0  0  0  0  0  0
   59.4870   35.5090   45.6520 O   0  0  0  0  0  0  0  0  0  0  0  0
   60.7860   34.1400   47.0900 C   0  0  0  0  0  0  0  0  0  0  0  0
   60.8320   34.0780   48.4960 C   0  0  0  0  0  0  0  0  0  0  0  0
   59.9257   34.2894   49.0824 H   0  0  0  0  0  0  0  0  0  0  0  0
   62.0240   33.7490   49.1520 C   0  0  0  0  0  0  0  0  0  0  0  0
   62.0508   33.7023   50.2507 H   0  0  0  0  0  0  0  0  0  0  0  0
   63.1790   33.4800   48.4150 C   0  0  0  0  0  0  0  0  0  0  0  0
   64.1146   33.2224   48.9329 H   0  0  0  0  0  0  0  0  0  0  0  0
   63.1460   33.5380   47.0210 C   0  0  0  0  0  0  0  0  0  0  0  0
   64.0564   33.3253   46.4413 H   0  0  0  0  0  0  0  0  0  0  0  0
   61.9580   33.8660   46.3590 C   0  0  0  0  0  0  0  0  0  0  0  0
   61.9393   33.9102   45.2600 H   0  0  0  0  0  0  0  0  0  0  0  0
   58.9390   31.3060   46.5610 C   0  0  0  0  0  0  0  0  0  0  0  0
   59.8181   31.2654   47.2209 H   0  0  0  0  0  0  0  0  0  0  0  0
   57.7740   27.8380   45.5520 C   0  0  0  0  0  0  0  0  0  0  0  0
   56.7603   28.1360   45.2461 H   0  0  0  0  0  0  0  0  0  0  0  0
  1  2  1  0
  2  3  1  0
  3  4  2  0
  3  5  1  0
  5  6  1  0
  5  7  1  0
  5  8  1  0
  8  9  2  0
  9 10  1  0
  9 11  1  0
 11 12  1  0
 11 13  2  0
 13 14  1  0
 13 15  1  0
 15 16  1  0
 16 17  1  0
 17 18  1  0
 18 19  1  0
 18 20  1  0
 20 21  2  0
 21 22  1  0
 22 23  2  0
 22 24  1  0
 24 25  2  0
 25 26  1  0
 25 27  1  0
 27 28  1  0
 27 29  2  0
 29 30  1  0
 29 31  1  0
 31 32  1  0
 31 33  2  0
 33 34  1  0
 20 35  1  0
 35 36  1  0
 15 37  2  0
 37 38  1  0
 37  8  1  0
 35 16  2  0
 33 24  1  0
M  CHG  2   2  -1  17  -1
M  END
>  <UniqueID>  (69) 
62

>  <SMILES>  (69) 
[NH-]C(=O)Cc1cccc(-c2c/c(=N\C(=O)c3ccccc3)[nH][n-]2)c1

>  <Energy>  (69) 
75.47045250019369

>  <Genealogy>  (69) 
[NH-]C(=O)Cc1cccc(-c2cc(=NC(=O)c3ccccc3)[nH][n-]2)c1 (protonated)
[NH-]C(=O)Cc1cccc(-c2c/c(=N\C(=O)c3ccccc3)[nH][n-]2)c1 (cis-trans isomerization)
[NH-]C(=O)Cc1cccc(-c2c/c(=N\C(=O)c3ccccc3)[nH][n-]2)c1 (3D coordinates assigned)
[NH-]C(=O)Cc1cccc(-c2c/c(=N\C(=O)c3ccccc3)[nH][n-]2)c1 (optimized conformer: 75.47045250019369 kcal/mol)

>  <smiles>  (69) 
NC(=O)Cc1cccc(-c2cc(=NC(=O)c3ccccc3)[nH][nH]2)c1

>  <score_type>  (69) 
oracle

>  <origin>  (69) 
adg

>  <m_score__min__energy>  (69) 
-13.220000000000001

>  <m_primary>  (69) 
energy

$$$$
69:0
     RDKit          3D

 70 74  0  0  0  0  0  0  0  0999 V2000
   56.3280   29.8460   44.4830 H   0  0  0  0  0  0  0  0  0  0  0  0
   56.2040   30.8480   44.4980 O   0  0  0  0  0  0  0  0  0  0  0  0
   57.1320   31.7260   45.0600 C   0  0  0  0  0  0  0  0  0  0  0  0
   56.6610   32.9330   45.5940 C   0  0  0  0  0  0  0  0  0  0  0  0
   55.5842   33.1563   45.5695 H   0  0  0  0  0  0  0  0  0  0  0  0
   57.5460   33.8550   46.1570 C   0  0  0  0  0  0  0  0  0  0  0  0
   57.1640   34.8052   46.5585 H   0  0  0  0  0  0  0  0  0  0  0  0
   58.9140   33.5770   46.2130 C   0  0  0  0  0  0  0  0  0  0  0  0
   59.8020   34.5510   46.7730 N   0  0  0  0  0  0  0  0  0  0  0  0
   60.9690   34.2540   47.5460 C   0  0  0  0  0  0  0  0  0  0  0  0
   61.9860   33.7500   46.9990 O   0  0  0  0  0  0  0  0  0  0  0  0
   60.9790   34.5370   49.0120 C   0  0  0  0  0  0  0  0  0  0  0  0
   61.9736   34.3062   49.4213 H   0  0  0  0  0  0  0  0  0  0  0  0
   60.7462   35.5993   49.1774 H   0  0  0  0  0  0  0  0  0  0  0  0
   59.9460   33.6900   49.7040 C   0  0  0  0  0  0  0  0  0  0  0  0
   59.3170   32.6380   49.0120 C   0  0  0  0  0  0  0  0  0  0  0  0
   59.5195   32.4892   47.9411 H   0  0  0  0  0  0  0  0  0  0  0  0
   58.4360   31.7810   49.6790 C   0  0  0  0  0  0  0  0  0  0  0  0
   57.9359   30.9704   49.1286 H   0  0  0  0  0  0  0  0  0  0  0  0
   58.1900   31.9530   51.0440 C   0  0  0  0  0  0  0  0  0  0  0  0
   57.5093   31.2679   51.5705 H   0  0  0  0  0  0  0  0  0  0  0  0
   58.8090   32.9960   51.7410 C   0  0  0  0  0  0  0  0  0  0  0  0
   58.6050   33.1382   52.8125 H   0  0  0  0  0  0  0  0  0  0  0  0
   59.6890   33.8600   51.0750 C   0  0  0  0  0  0  0  0  0  0  0  0
   60.1804   34.6743   51.6277 H   0  0  0  0  0  0  0  0  0  0  0  0
   59.4000   32.3750   45.6720 C   0  0  0  0  0  0  0  0  0  0  0  0
   60.4798   32.1663   45.6942 H   0  0  0  0  0  0  0  0  0  0  0  0
   58.5200   31.4330   45.1010 C   0  0  0  0  0  0  0  0  0  0  0  0
   59.0820   30.1250   44.5770 C   0  0  0  0  0  0  0  0  0  0  0  0
   59.6012   30.3159   43.6262 H   0  0  0  0  0  0  0  0  0  0  0  0
   59.7743   29.7234   45.3316 H   0  0  0  0  0  0  0  0  0  0  0  0
   58.0280   29.1320   44.3510 N   0  0  0  0  0  0  0  0  0  0  0  0
   57.7080   28.1670   45.1610 C   0  0  0  0  0  0  0  0  0  0  0  0
   56.4310   27.7120   45.1770 N   0  0  0  0  0  0  0  0  0  0  0  0
   56.0480   26.7600   46.0700 C   0  0  0  0  0  0  0  0  0  0  0  0
   54.8220   26.3210   46.0970 N   0  0  0  0  0  0  0  0  0  0  0  0
   54.3830   25.0140   45.6010 C   0  0  0  0  0  0  0  0  0  0  0  0
   53.8297   24.4966   46.3986 H   0  0  0  0  0  0  0  0  0  0  0  0
   53.7426   25.1763   44.7215 H   0  0  0  0  0  0  0  0  0  0  0  0
   55.5550   24.1580   45.1820 C   0  0  0  0  0  0  0  0  0  0  0  0
   55.8720   24.0050   43.8200 C   0  0  0  0  0  0  0  0  0  0  0  0
   55.2706   24.5209   43.0570 H   0  0  0  0  0  0  0  0  0  0  0  0
   56.9470   23.2010   43.4310 C   0  0  0  0  0  0  0  0  0  0  0  0
   57.1882   23.0842   42.3641 H   0  0  0  0  0  0  0  0  0  0  0  0
   57.7160   22.5450   44.3970 C   0  0  0  0  0  0  0  0  0  0  0  0
   58.5641   21.9159   44.0889 H   0  0  0  0  0  0  0  0  0  0  0  0
   57.4090   22.6870   45.7550 C   0  0  0  0  0  0  0  0  0  0  0  0
   58.0133   22.1666   46.5126 H   0  0  0  0  0  0  0  0  0  0  0  0
   56.3320   23.4920   46.1500 C   0  0  0  0  0  0  0  0  0  0  0  0
   56.0930   23.6040   47.2179 H   0  0  0  0  0  0  0  0  0  0  0  0
   56.9530   26.2660   46.9520 N   0  0  0  0  0  0  0  0  0  0  0  0
   58.2420   26.7060   46.9310 C   0  0  0  0  0  0  0  0  0  0  0  0
   59.1200   26.2570   47.7770 N   0  0  0  0  0  0  0  0  0  0  0  0
   60.0320   27.0790   48.5710 C   0  0  0  0  0  0  0  0  0  0  0  0
   60.1511   26.6295   49.5679 H   0  0  0  0  0  0  0  0  0  0  0  0
   61.0055   27.1281   48.0612 H   0  0  0  0  0  0  0  0  0  0  0  0
   59.4740   28.5010   48.7200 C   0  0  0  0  0  0  0  0  0  0  0  0
   58.7616   28.6967   47.9050 H   0  0  0  0  0  0  0  0  0  0  0  0
   58.9706   28.5832   49.6946 H   0  0  0  0  0  0  0  0  0  0  0  0
   60.5830   29.5160   48.6610 C   0  0  0  0  0  0  0  0  0  0  0  0
   61.0070   30.0490   47.4350 C   0  0  0  0  0  0  0  0  0  0  0  0
   60.5116   29.7422   46.5020 H   0  0  0  0  0  0  0  0  0  0  0  0
   62.0290   30.9440   47.3980 N   0  0  0  0  0  0  0  0  0  0  0  0
   62.6730   31.3430   48.5270 C   0  0  0  0  0  0  0  0  0  0  0  0
   63.4918   32.0748   48.4635 H   0  0  0  0  0  0  0  0  0  0  0  0
   62.2960   30.8250   49.7650 C   0  0  0  0  0  0  0  0  0  0  0  0
   62.8216   31.1357   50.6800 H   0  0  0  0  0  0  0  0  0  0  0  0
   61.2460   29.9090   49.8330 C   0  0  0  0  0  0  0  0  0  0  0  0
   60.9383   29.4953   50.8047 H   0  0  0  0  0  0  0  0  0  0  0  0
   58.6130   27.6500   46.0320 N   0  0  0  0  0  0  0  0  0  0  0  0
  1  2  1  0
  2  3  1  0
  3  4  2  0
  4  5  1  0
  4  6  1  0
  6  7  1  0
  6  8  2  0
  8  9  1  0
  9 10  1  0
 10 11  2  0
 10 12  1  0
 12 13  1  0
 12 14  1  0
 12 15  1  0
 15 16  2  0
 16 17  1  0
 16 18  1  0
 18 19  1  0
 18 20  2  0
 20 21  1  0
 20 22  1  0
 22 23  1  0
 22 24  2  0
 24 25  1  0
  8 26  1  0
 26 27  1  0
 26 28  2  0
 28 29  1  0
 29 30  1  0
 29 31  1  0
 29 32  1  0
 32 33  2  0
 33 34  1  0
 34 35  1  0
 35 36  2  3
 36 37  1  0
 37 38  1  0
 37 39  1  0
 37 40  1  0
 40 41  2  0
 41 42  1  0
 41 43  1  0
 43 44  1  0
 43 45  2  0
 45 46  1  0
 45 47  1  0
 47 48  1  0
 47 49  2  0
 49 50  1  0
 35 51  1  0
 51 52  1  0
 52 53  2  3
 53 54  1  0
 54 55  1  0
 54 56  1  0
 54 57  1  0
 57 58  1  0
 57 59  1  0
 57 60  1  0
 60 61  2  0
 61 62  1  0
 61 63  1  0
 63 64  2  0
 64 65  1  0
 64 66  1  0
 66 67  1  0
 66 68  2  0
 68 69  1  0
 52 70  1  0
 28  3  1  0
 70 33  1  0
 24 15  1  0
 49 40  1  0
 68 60  1  0
M  CHG  4   9  -1  34  -1  51  -1  70  -1
M  END
>  <UniqueID>  (70) 
63

>  <SMILES>  (70) 
O=C(Cc1ccccc1)[N-]c1ccc(O)c(C/N=c2\[n-]c(=NCCc3cccnc3)[n-]c(=NCc3ccccc3)[n-]2)c1

>  <Energy>  (70) 
77.19607801769841

>  <Genealogy>  (70) 
O=C(Cc1ccccc1)[N-]c1ccc(O)c(CN=c2[n-]c(=NCCc3cccnc3)[n-]c(=NCc3ccccc3)[n-]2)c1 (protonated)
O=C(Cc1ccccc1)[N-]c1ccc(O)c(C/N=c2\[n-]c(=NCCc3cccnc3)[n-]c(=NCc3ccccc3)[n-]2)c1 (cis-trans isomerization)
O=C(Cc1ccccc1)[N-]c1ccc(O)c(C/N=c2\[n-]c(=NCCc3cccnc3)[n-]c(=NCc3ccccc3)[n-]2)c1 (3D coordinates assigned)
O=C(Cc1ccccc1)[N-]c1ccc(O)c(C/N=c2\[n-]c(=NCCc3cccnc3)[n-]c(=NCc3ccccc3)[n-]2)c1 (optimized conformer: 77.19607801769841 kcal/mol)

>  <smiles>  (70) 
O=C(Cc1ccccc1)Nc1ccc(O)c(CN=c2[nH]c(=NCCc3cccnc3)[nH]c(=NCc3ccccc3)[nH]2)c1

>  <score_type>  (70) 
oracle

>  <origin>  (70) 
adg

>  <m_score__min__energy>  (70) 
-15.58

>  <m_primary>  (70) 
energy

$$$$
70:0
     RDKit          3D

 51 53  0  0  0  0  0  0  0  0999 V2000
   59.1820   30.4130   48.8840 C   0  0  0  0  0  0  0  0  0  0  0  0
   58.5630   31.6510   49.4600 C   0  0  0  0  0  0  0  0  0  0  0  0
   57.8250   31.5510   50.4740 O   0  0  0  0  0  0  0  0  0  0  0  0
   58.8170   32.9550   48.9160 N   0  0  0  0  0  0  0  0  0  0  0  0
   58.7480   33.3310   47.5350 C   0  0  0  0  0  0  0  0  0  0  0  0
   59.2960   34.5550   47.1370 C   0  0  0  0  0  0  0  0  0  0  0  0
   59.2400   34.9520   45.7990 C   0  0  0  0  0  0  0  0  0  0  0  0
   58.6170   34.1360   44.8490 C   0  0  0  0  0  0  0  0  0  0  0  0
   58.0270   32.9240   45.2380 C   0  0  0  0  0  0  0  0  0  0  0  0
   57.4120   32.0200   44.2040 C   0  0  0  0  0  0  0  0  0  0  0  0
   56.3850   31.1970   44.8290 N   0  0  0  0  0  0  0  0  0  0  0  0
   55.8230   30.0350   44.2140 C   0  0  0  0  0  0  0  0  0  0  0  0
   55.5200   30.0520   42.9900 O   0  0  0  0  0  0  0  0  0  0  0  0
   55.6480   28.8560   45.0060 N   0  0  0  0  0  0  0  0  0  0  0  0
   56.6410   27.9950   45.5910 C   0  0  0  0  0  0  0  0  0  0  0  0
   58.0020   28.3590   45.6600 C   0  0  0  0  0  0  0  0  0  0  0  0
   58.9290   27.5180   46.2810 C   0  0  0  0  0  0  0  0  0  0  0  0
   58.5160   26.3100   46.8390 C   0  0  0  0  0  0  0  0  0  0  0  0
   57.1790   25.9210   46.7500 C   0  0  0  0  0  0  0  0  0  0  0  0
   56.2440   26.7330   46.0960 C   0  0  0  0  0  0  0  0  0  0  0  0
   54.8950   26.2570   45.9850 N   0  0  0  0  0  0  0  0  0  0  0  0
   54.4790   24.9370   45.6080 C   0  0  0  0  0  0  0  0  0  0  0  0
   53.2730   24.6190   45.7740 O   0  0  0  0  0  0  0  0  0  0  0  0
   55.4400   23.9210   45.1030 C   0  0  0  0  0  0  0  0  0  0  0  0
   55.7490   23.8990   43.7300 C   0  0  0  0  0  0  0  0  0  0  0  0
   56.6510   22.9650   43.2160 C   0  0  0  0  0  0  0  0  0  0  0  0
   57.2730   22.0520   44.0650 C   0  0  0  0  0  0  0  0  0  0  0  0
   56.9930   22.0680   45.4330 C   0  0  0  0  0  0  0  0  0  0  0  0
   56.0650   22.9810   45.9660 C   0  0  0  0  0  0  0  0  0  0  0  0
   55.7760   22.9360   47.4450 C   0  0  0  0  0  0  0  0  0  0  0  0
   58.0920   32.5260   46.5840 C   0  0  0  0  0  0  0  0  0  0  0  0
   59.5116   29.7538   49.7006 H   0  0  0  0  0  0  0  0  0  0  0  0
   58.4410   29.8867   48.2644 H   0  0  0  0  0  0  0  0  0  0  0  0
   60.0476   30.6901   48.2644 H   0  0  0  0  0  0  0  0  0  0  0  0
   59.7737   35.2085   47.8819 H   0  0  0  0  0  0  0  0  0  0  0  0
   59.6870   35.9089   45.4916 H   0  0  0  0  0  0  0  0  0  0  0  0
   58.5896   34.4455   43.7938 H   0  0  0  0  0  0  0  0  0  0  0  0
   56.9598   32.6285   43.4070 H   0  0  0  0  0  0  0  0  0  0  0  0
   58.1898   31.3722   43.7734 H   0  0  0  0  0  0  0  0  0  0  0  0
   58.3358   29.3112   45.2220 H   0  0  0  0  0  0  0  0  0  0  0  0
   59.9883   27.8106   46.3295 H   0  0  0  0  0  0  0  0  0  0  0  0
   59.2441   25.6628   47.3498 H   0  0  0  0  0  0  0  0  0  0  0  0
   56.8568   24.9690   47.1971 H   0  0  0  0  0  0  0  0  0  0  0  0
   55.2746   24.6258   43.0542 H   0  0  0  0  0  0  0  0  0  0  0  0
   56.8709   22.9501   42.1383 H   0  0  0  0  0  0  0  0  0  0  0  0
   57.9846   21.3186   43.6577 H   0  0  0  0  0  0  0  0  0  0  0  0
   57.5037   21.3589   46.1011 H   0  0  0  0  0  0  0  0  0  0  0  0
   56.7110   23.0816   48.0059 H   0  0  0  0  0  0  0  0  0  0  0  0
   55.0649   23.7342   47.7041 H   0  0  0  0  0  0  0  0  0  0  0  0
   55.3413   21.9593   47.7041 H   0  0  0  0  0  0  0  0  0  0  0  0
   57.6274   31.5793   46.8969 H   0  0  0  0  0  0  0  0  0  0  0  0
  1  2  1  0
  2  3  2  0
  2  4  1  0
  4  5  1  0
  5  6  2  0
  6  7  1  0
  7  8  2  0
  8  9  1  0
  9 10  1  0
 10 11  1  0
 11 12  1  0
 12 13  2  0
 12 14  1  0
 14 15  1  0
 15 16  2  0
 16 17  1  0
 17 18  2  0
 18 19  1  0
 19 20  2  0
 20 21  1  0
 21 22  1  0
 22 23  2  0
 22 24  1  0
 24 25  2  0
 25 26  1  0
 26 27  2  0
 27 28  1  0
 28 29  2  0
 29 30  1  0
  9 31  2  0
 31  5  1  0
 20 15  1  0
 29 24  1  0
  1 32  1  0
  1 33  1  0
  1 34  1  0
  6 35  1  0
  7 36  1  0
  8 37  1  0
 10 38  1  0
 10 39  1  0
 16 40  1  0
 17 41  1  0
 18 42  1  0
 19 43  1  0
 25 44  1  0
 26 45  1  0
 27 46  1  0
 28 47  1  0
 30 48  1  0
 30 49  1  0
 30 50  1  0
 31 51  1  0
M  CHG  4   4  -1  11  -1  14  -1  21  -1
M  END
>  <UniqueID>  (71) 
64

>  <SMILES>  (71) 
CC(=O)[N-]c1cccc(C[N-]C(=O)[N-]c2ccccc2[N-]C(=O)c2ccccc2C)c1

>  <Energy>  (71) 
64.65117718925639

>  <Genealogy>  (71) 
CC(=O)[N-]c1cccc(C[N-]C(=O)[N-]c2ccccc2[N-]C(=O)c2ccccc2C)c1 (protonated)
CC(=O)[N-]c1cccc(C[N-]C(=O)[N-]c2ccccc2[N-]C(=O)c2ccccc2C)c1 (3D coordinates assigned)
CC(=O)[N-]c1cccc(C[N-]C(=O)[N-]c2ccccc2[N-]C(=O)c2ccccc2C)c1 (optimized conformer: 64.65117718925639 kcal/mol)

>  <smiles>  (71) 
CC(=O)Nc1cccc(CNC(=O)Nc2ccccc2NC(=O)c2ccccc2C)c1

>  <score_type>  (71) 
oracle

>  <origin>  (71) 
adg

>  <m_score__min__energy>  (71) 
-16.09

>  <m_primary>  (71) 
energy

$$$$
71:0
     RDKit          3D

 18 18  0  0  0  0  0  0  0  0999 V2000
   57.8180   27.9540   43.9400 N   0  0  0  0  0  0  0  0  0  0  0  0
   58.9140   27.6150   44.7870 C   0  0  0  0  0  0  0  0  0  0  0  0
   59.9970   28.2520   44.6900 O   0  0  0  0  0  0  0  0  0  0  0  0
   58.7730   26.5760   45.7130 O   0  0  0  0  0  0  0  0  0  0  0  0
   57.8900   26.6360   46.8310 C   0  0  0  0  0  0  0  0  0  0  0  0
   56.6180   25.8720   46.5420 C   0  0  0  0  0  0  0  0  0  0  0  0
   55.5040   26.4920   45.9500 C   0  0  0  0  0  0  0  0  0  0  0  0
   55.5290   27.8420   45.6190 O   0  0  0  0  0  0  0  0  0  0  0  0
   54.3820   25.7700   45.6940 N   0  0  0  0  0  0  0  0  0  0  0  0
   54.3130   24.4490   45.9990 C   0  0  0  0  0  0  0  0  0  0  0  0
   53.2620   23.8020   45.7520 O   0  0  0  0  0  0  0  0  0  0  0  0
   55.3750   23.8260   46.5690 N   0  0  0  0  0  0  0  0  0  0  0  0
   56.5200   24.5020   46.8450 C   0  0  0  0  0  0  0  0  0  0  0  0
   57.4870   23.8890   47.3720 O   0  0  0  0  0  0  0  0  0  0  0  0
   57.9060   28.7270   43.2440 H   0  0  0  0  0  0  0  0  0  0  0  0
   56.9170   27.4310   44.0150 H   0  0  0  0  0  0  0  0  0  0  0  0
   58.3860   26.1949   47.7082 H   0  0  0  0  0  0  0  0  0  0  0  0
   57.6364   27.6880   47.0282 H   0  0  0  0  0  0  0  0  0  0  0  0
  1  2  1  0
  2  3  2  0
  2  4  1  0
  4  5  1  0
  5  6  1  0
  6  7  2  0
  7  8  1  0
  7  9  1  0
  9 10  1  0
 10 11  2  0
 10 12  1  0
 12 13  1  0
 13 14  2  0
 13  6  1  0
  1 15  1  0
  1 16  1  0
  5 17  1  0
  5 18  1  0
M  CHG  3   8  -1   9  -1  12  -1
M  END
>  <UniqueID>  (72) 
65

>  <SMILES>  (72) 
NC(=O)OCc1c([O-])[n-]c(=O)[n-]c1=O

>  <Energy>  (72) 
16.11355658415756

>  <Genealogy>  (72) 
NC(=O)OCc1c([O-])[n-]c(=O)[n-]c1=O (protonated)
NC(=O)OCc1c([O-])[n-]c(=O)[n-]c1=O (3D coordinates assigned)
NC(=O)OCc1c([O-])[n-]c(=O)[n-]c1=O (optimized conformer: 16.11355658415756 kcal/mol)

>  <smiles>  (72) 
NC(=O)OCc1c(O)[nH]c(=O)[nH]c1=O

>  <score_type>  (72) 
oracle

>  <origin>  (72) 
adg

>  <m_score__min__energy>  (72) 
-13.58

>  <m_primary>  (72) 
energy

$$$$
72:0
     RDKit          3D

 22 22  0  0  0  0  0  0  0  0999 V2000
   58.0350   26.7130   43.7350 N   0  0  0  0  0  0  0  0  0  0  0  0
   57.3920   26.0510   44.8630 C   0  0  0  0  0  0  0  0  0  0  0  0
   56.6030   27.0460   45.6530 C   0  0  0  0  0  0  0  0  0  0  0  0
   55.5280   26.6950   46.2100 O   0  0  0  0  0  0  0  0  0  0  0  0
   57.0460   28.4020   45.7230 N   0  0  0  0  0  0  0  0  0  0  0  0
   56.6270   29.5790   44.5240 S   0  0  0  0  0  0  0  0  0  0  0  0
   55.1500   29.8460   44.5890 O   0  0  0  0  0  0  0  0  0  0  0  0
   56.9720   29.0350   43.1660 O   0  0  0  0  0  0  0  0  0  0  0  0
   57.4980   31.0790   44.8240 C   0  0  0  0  0  0  0  0  0  0  0  0
   58.1370   31.3010   46.0500 C   0  0  0  0  0  0  0  0  0  0  0  0
   58.8250   32.4950   46.2710 C   0  0  0  0  0  0  0  0  0  0  0  0
   58.8690   33.4560   45.2570 C   0  0  0  0  0  0  0  0  0  0  0  0
   58.2490   33.2220   44.0710 N   0  0  0  0  0  0  0  0  0  0  0  0
   57.5730   32.0670   43.8330 C   0  0  0  0  0  0  0  0  0  0  0  0
   57.3040   26.8870   43.0090 H   0  0  0  0  0  0  0  0  0  0  0  0
   58.3680   27.6530   44.0530 H   0  0  0  0  0  0  0  0  0  0  0  0
   56.7190   25.2651   44.4897 H   0  0  0  0  0  0  0  0  0  0  0  0
   58.1624   25.6041   45.5086 H   0  0  0  0  0  0  0  0  0  0  0  0
   58.0968   30.5349   46.8383 H   0  0  0  0  0  0  0  0  0  0  0  0
   59.3271   32.6777   47.2325 H   0  0  0  0  0  0  0  0  0  0  0  0
   59.4059   34.4023   45.4193 H   0  0  0  0  0  0  0  0  0  0  0  0
   57.0839   31.9075   42.8607 H   0  0  0  0  0  0  0  0  0  0  0  0
  1  2  1  0
  2  3  1  0
  3  4  2  0
  3  5  1  0
  5  6  1  0
  6  7  2  0
  6  8  2  0
  6  9  1  0
  9 10  2  0
 10 11  1  0
 11 12  2  0
 12 13  1  0
 13 14  2  0
 14  9  1  0
  1 15  1  0
  1 16  1  0
  2 17  1  0
  2 18  1  0
 10 19  1  0
 11 20  1  0
 12 21  1  0
 14 22  1  0
M  CHG  1   5  -1
M  END
>  <UniqueID>  (73) 
66

>  <SMILES>  (73) 
NCC(=O)[N-]S(=O)(=O)c1cccnc1

>  <Energy>  (73) 
20.199230480611792

>  <Genealogy>  (73) 
NCC(=O)[N-]S(=O)(=O)c1cccnc1 (protonated)
NCC(=O)[N-]S(=O)(=O)c1cccnc1 (3D coordinates assigned)
NCC(=O)[N-]S(=O)(=O)c1cccnc1 (optimized conformer: 20.199230480611792 kcal/mol)

>  <smiles>  (73) 
NCC(=O)NS(=O)(=O)c1cccnc1

>  <score_type>  (73) 
oracle

>  <origin>  (73) 
adg

>  <m_score__min__energy>  (73) 
-7

>  <m_primary>  (73) 
energy

$$$$
73:0
     RDKit          3D

 40 41  0  0  0  0  0  0  0  0999 V2000
   60.2610   29.4900   45.5000 C   0  0  0  0  0  0  0  0  0  0  0  0
   58.8640   29.9910   45.2780 C   0  0  0  0  0  0  0  0  0  0  0  0
   58.6410   31.3300   45.3400 N   0  0  0  0  0  0  0  0  0  0  0  0
   57.4040   31.8510   45.1490 C   0  0  0  0  0  0  0  0  0  0  0  0
   57.1580   33.6220   45.2350 S   0  0  0  0  0  0  0  0  0  0  0  0
   58.8870   34.0490   44.8100 C   0  0  0  0  0  0  0  0  0  0  0  0
   59.6430   34.7260   45.9650 C   0  0  0  0  0  0  0  0  0  0  0  0
   59.1100   34.3810   47.3670 C   0  0  0  0  0  0  0  0  0  0  0  0
   60.2090   34.3650   48.4370 C   0  0  0  0  0  0  0  0  0  0  0  0
   61.3200   33.4300   48.0370 C   0  0  0  0  0  0  0  0  0  0  0  0
   62.5820   33.9360   47.6860 C   0  0  0  0  0  0  0  0  0  0  0  0
   63.6020   33.0670   47.2840 C   0  0  0  0  0  0  0  0  0  0  0  0
   63.3650   31.6910   47.2190 C   0  0  0  0  0  0  0  0  0  0  0  0
   62.1060   31.1810   47.5520 C   0  0  0  0  0  0  0  0  0  0  0  0
   61.0850   32.0470   47.9550 C   0  0  0  0  0  0  0  0  0  0  0  0
   56.3580   31.0350   44.8710 N   0  0  0  0  0  0  0  0  0  0  0  0
   56.5160   29.6890   44.8020 C   0  0  0  0  0  0  0  0  0  0  0  0
   55.5200   28.9670   44.5310 O   0  0  0  0  0  0  0  0  0  0  0  0
   57.7830   29.1150   45.0270 C   0  0  0  0  0  0  0  0  0  0  0  0
   57.9790   27.6190   44.9270 C   0  0  0  0  0  0  0  0  0  0  0  0
   57.6730   27.1980   43.6280 O   0  0  0  0  0  0  0  0  0  0  0  0
   60.4579   29.4194   46.5799 H   0  0  0  0  0  0  0  0  0  0  0  0
   60.3714   28.4963   45.0414 H   0  0  0  0  0  0  0  0  0  0  0  0
   60.9777   30.1871   45.0414 H   0  0  0  0  0  0  0  0  0  0  0  0
   59.4187   33.1254   44.5375 H   0  0  0  0  0  0  0  0  0  0  0  0
   58.8521   34.7658   43.9764 H   0  0  0  0  0  0  0  0  0  0  0  0
   60.6975   34.4172   45.9129 H   0  0  0  0  0  0  0  0  0  0  0  0
   59.5048   35.8096   45.8362 H   0  0  0  0  0  0  0  0  0  0  0  0
   58.3559   35.1302   47.6498 H   0  0  0  0  0  0  0  0  0  0  0  0
   58.6832   33.3684   47.3175 H   0  0  0  0  0  0  0  0  0  0  0  0
   60.6150   35.3806   48.5543 H   0  0  0  0  0  0  0  0  0  0  0  0
   59.7762   34.0180   49.3869 H   0  0  0  0  0  0  0  0  0  0  0  0
   62.7692   35.0192   47.7273 H   0  0  0  0  0  0  0  0  0  0  0  0
   64.5917   33.4671   47.0187 H   0  0  0  0  0  0  0  0  0  0  0  0
   64.1691   31.0089   46.9058 H   0  0  0  0  0  0  0  0  0  0  0  0
   61.9190   30.0984   47.4968 H   0  0  0  0  0  0  0  0  0  0  0  0
   60.0935   31.6440   48.2090 H   0  0  0  0  0  0  0  0  0  0  0  0
   59.0253   27.3693   45.1572 H   0  0  0  0  0  0  0  0  0  0  0  0
   57.3167   27.1120   45.6442 H   0  0  0  0  0  0  0  0  0  0  0  0
   56.7360   27.4780   43.4600 H   0  0  0  0  0  0  0  0  0  0  0  0
  1  2  1  0
  2  3  1  0
  3  4  1  0
  4  5  1  0
  5  6  1  0
  6  7  1  0
  7  8  1  0
  8  9  1  0
  9 10  1  0
 10 11  2  0
 11 12  1  0
 12 13  2  0
 13 14  1  0
 14 15  2  0
  4 16  2  0
 16 17  1  0
 17 18  2  0
 17 19  1  0
 19 20  1  0
 20 21  1  0
 19  2  2  0
 15 10  1  0
  1 22  1  0
  1 23  1  0
  1 24  1  0
  6 25  1  0
  6 26  1  0
  7 27  1  0
  7 28  1  0
  8 29  1  0
  8 30  1  0
  9 31  1  0
  9 32  1  0
 11 33  1  0
 12 34  1  0
 13 35  1  0
 14 36  1  0
 15 37  1  0
 20 38  1  0
 20 39  1  0
 21 40  1  0
M  CHG  1   3  -1
M  END
>  <UniqueID>  (74) 
67

>  <SMILES>  (74) 
Cc1[n-]c(SCCCCc2ccccc2)nc(=O)c1CO

>  <Energy>  (74) 
32.86049877619447

>  <Genealogy>  (74) 
Cc1[n-]c(SCCCCc2ccccc2)nc(=O)c1CO (protonated)
Cc1[n-]c(SCCCCc2ccccc2)nc(=O)c1CO (3D coordinates assigned)
Cc1[n-]c(SCCCCc2ccccc2)nc(=O)c1CO (optimized conformer: 32.86049877619447 kcal/mol)

>  <smiles>  (74) 
Cc1[nH]c(SCCCCc2ccccc2)nc(=O)c1CO

>  <score_type>  (74) 
oracle

>  <origin>  (74) 
adg

>  <m_score__min__energy>  (74) 
-9.9900000000000002

>  <m_primary>  (74) 
energy

$$$$
74:0
     RDKit          3D

 44 46  0  0  0  0  0  0  0  0999 V2000
   61.4490   29.3520   49.0940 O   0  0  0  0  0  0  0  0  0  0  0  0
   60.6880   28.8980   48.2000 C   0  0  0  0  0  0  0  0  0  0  0  0
   60.1590   29.8080   47.2270 N   0  0  0  0  0  0  0  0  0  0  0  0
   58.7870   30.3050   47.1940 C   0  0  0  0  0  0  0  0  0  0  0  0
   58.6710   31.5160   46.2420 C   0  0  1  0  0  0  0  0  0  0  0  0
   57.8010   31.0980   45.0820 C   0  0  0  0  0  0  0  0  0  0  0  0
   58.1070   31.2530   43.7450 C   0  0  0  0  0  0  0  0  0  0  0  0
   57.0450   30.7080   43.0560 C   0  0  0  0  0  0  0  0  0  0  0  0
   56.1610   30.2510   44.0130 C   0  0  0  0  0  0  0  0  0  0  0  0
   56.6400   30.4960   45.2110 O   0  0  0  0  0  0  0  0  0  0  0  0
   58.1040   32.7350   46.8940 N   0  0  0  0  0  0  0  0  0  0  0  0
   59.1150   33.6850   47.4090 C   0  0  0  0  0  0  0  0  0  0  0  0
   59.8960   34.3640   46.2620 C   0  0  0  0  0  0  0  0  0  0  0  0
   59.2210   34.3050   45.0170 O   0  0  0  0  0  0  0  0  0  0  0  0
   57.8480   34.5840   45.1910 C   0  0  0  0  0  0  0  0  0  0  0  0
   57.1600   33.4650   46.0050 C   0  0  0  0  0  0  0  0  0  0  0  0
   60.3720   27.4520   48.1900 C   0  0  0  0  0  0  0  0  0  0  0  0
   60.4760   26.7790   49.2490 O   0  0  0  0  0  0  0  0  0  0  0  0
   59.8580   26.8080   47.0170 N   0  0  0  0  0  0  0  0  0  0  0  0
   58.4730   26.6550   46.6750 C   0  0  0  0  0  0  0  0  0  0  0  0
   57.7220   25.5500   47.1180 C   0  0  0  0  0  0  0  0  0  0  0  0
   56.3660   25.4450   46.7900 C   0  0  0  0  0  0  0  0  0  0  0  0
   55.7480   26.4470   46.0360 C   0  0  0  0  0  0  0  0  0  0  0  0
   54.4010   26.3410   45.7110 O   0  0  0  0  0  0  0  0  0  0  0  0
   56.4840   27.5580   45.6150 C   0  0  0  0  0  0  0  0  0  0  0  0
   57.8390   27.6650   45.9410 C   0  0  0  0  0  0  0  0  0  0  0  0
   58.1204   29.5036   46.8427 H   0  0  0  0  0  0  0  0  0  0  0  0
   58.4996   30.6215   48.2075 H   0  0  0  0  0  0  0  0  0  0  0  0
   59.6831   31.7976   45.9158 H   0  0  0  0  0  0  0  0  0  0  0  0
   59.0097   31.7149   43.3186 H   0  0  0  0  0  0  0  0  0  0  0  0
   56.9258   30.6490   41.9641 H   0  0  0  0  0  0  0  0  0  0  0  0
   55.2009   29.7566   43.8037 H   0  0  0  0  0  0  0  0  0  0  0  0
   58.6070   34.4597   48.0021 H   0  0  0  0  0  0  0  0  0  0  0  0
   59.8312   33.1230   48.0264 H   0  0  0  0  0  0  0  0  0  0  0  0
   60.0547   35.4204   46.5242 H   0  0  0  0  0  0  0  0  0  0  0  0
   60.8454   33.8207   46.1458 H   0  0  0  0  0  0  0  0  0  0  0  0
   57.7389   35.5387   45.7264 H   0  0  0  0  0  0  0  0  0  0  0  0
   57.3720   34.6438   44.2012 H   0  0  0  0  0  0  0  0  0  0  0  0
   56.3708   33.9157   46.6248 H   0  0  0  0  0  0  0  0  0  0  0  0
   56.7506   32.7379   45.2882 H   0  0  0  0  0  0  0  0  0  0  0  0
   58.2023   24.7672   47.7235 H   0  0  0  0  0  0  0  0  0  0  0  0
   55.7855   24.5731   47.1258 H   0  0  0  0  0  0  0  0  0  0  0  0
   55.9964   28.3491   45.0264 H   0  0  0  0  0  0  0  0  0  0  0  0
   58.4107   28.5479   45.6190 H   0  0  0  0  0  0  0  0  0  0  0  0
  1  2  2  0
  2  3  1  0
  3  4  1  0
  4  5  1  0
  5  6  1  0
  6  7  2  0
  7  8  1  0
  8  9  2  0
  9 10  1  0
  5 11  1  0
 11 12  1  0
 12 13  1  0
 13 14  1  0
 14 15  1  0
 15 16  1  0
  2 17  1  0
 17 18  2  0
 17 19  1  0
 19 20  1  0
 20 21  2  0
 21 22  1  0
 22 23  2  0
 23 24  1  0
 23 25  1  0
 25 26  2  0
 10  6  1  0
 16 11  1  0
 26 20  1  0
  4 27  1  0
  4 28  1  0
  5 29  1  6
  7 30  1  0
  8 31  1  0
  9 32  1  0
 12 33  1  0
 12 34  1  0
 13 35  1  0
 13 36  1  0
 15 37  1  0
 15 38  1  0
 16 39  1  0
 16 40  1  0
 21 41  1  0
 22 42  1  0
 25 43  1  0
 26 44  1  0
M  CHG  3   3  -1  19  -1  24  -1
M  END
>  <UniqueID>  (75) 
68

>  <SMILES>  (75) 
O=C([N-]C[C@@H](c1ccco1)N1CCOCC1)C(=O)[N-]c1ccc([O-])cc1

>  <Energy>  (75) 
90.92034928762433

>  <Genealogy>  (75) 
O=C([N-]CC(c1ccco1)N1CCOCC1)C(=O)[N-]c1ccc([O-])cc1 (protonated)
O=C([N-]C[C@@H](c1ccco1)N1CCOCC1)C(=O)[N-]c1ccc([O-])cc1 (chirality)
O=C([N-]C[C@@H](c1ccco1)N1CCOCC1)C(=O)[N-]c1ccc([O-])cc1 (3D coordinates assigned)
O=C([N-]C[C@@H](c1ccco1)N1CCOCC1)C(=O)[N-]c1ccc([O-])cc1 (nonaromatic ring conformer: 90.92034928762433 kcal/mol)

>  <smiles>  (75) 
O=C(NCC(c1ccco1)N1CCOCC1)C(=O)Nc1ccc(O)cc1

>  <score_type>  (75) 
oracle

>  <origin>  (75) 
adg

>  <m_score__min__energy>  (75) 
-13

>  <m_primary>  (75) 
energy

$$$$
75:0
     RDKit          3D

 64 68  0  0  1  0  0  0  0  0999 V2000
   64.0580   33.0670   46.7430 C   0  0  0  0  0  0  0  0  0  0  0  0
   63.2290   33.7290   47.6760 O   0  0  0  0  0  0  0  0  0  0  0  0
   63.0720   33.1920   48.9310 C   0  0  0  0  0  0  0  0  0  0  0  0
   63.4250   33.8910   50.0830 C   0  0  0  0  0  0  0  0  0  0  0  0
   63.2640   33.3430   51.3480 C   0  0  0  0  0  0  0  0  0  0  0  0
   63.6220   34.0490   52.5370 N   0  0  0  0  0  0  0  0  0  0  0  0
   63.1250   33.7040   53.8300 C   0  0  0  0  0  0  0  0  0  0  0  0
   63.0180   34.9530   54.7170 C   0  0  0  0  0  0  0  0  0  0  0  0
   64.3510   35.4180   54.7970 O   0  0  0  0  0  0  0  0  0  0  0  0
   64.5990   36.0540   53.6090 C   0  0  0  0  0  0  0  0  0  0  0  0
   64.5370   35.1660   52.3880 C   0  0  0  0  0  0  0  0  0  0  0  0
   62.7350   32.0690   51.3930 C   0  0  0  0  0  0  0  0  0  0  0  0
   58.9160   27.9820   46.6220 C   0  0  0  0  0  0  0  0  0  0  0  0
   58.1590   28.8770   45.8650 C   0  0  0  0  0  0  0  0  0  0  0  0
   62.1730   31.1750   47.8610 N   0  0  0  0  0  0  0  0  0  0  0  0
   61.0580   31.4850   47.2950 C   0  0  0  0  0  0  0  0  0  0  0  0
   60.9530   32.7740   46.8580 N   0  0  0  0  0  0  0  0  0  0  0  0
   59.8280   33.2150   46.2480 C   0  0  0  0  0  0  0  0  0  0  0  0
   58.8120   32.3110   46.0960 C   0  0  0  0  0  0  0  0  0  0  0  0
   58.9180   31.0130   46.5360 C   0  0  0  0  0  0  0  0  0  0  0  0
   57.9000   30.2070   46.3530 N   0  0  0  0  0  0  0  0  0  0  0  0
   62.5440   31.9180   49.0190 C   0  0  0  0  0  0  0  0  0  0  0  0
   62.3760   31.3550   50.2680 C   0  0  0  0  0  0  0  0  0  0  0  0
   59.1860   26.7090   46.1950 C   0  0  0  0  0  0  0  0  0  0  0  0
   58.6790   26.3070   44.9560 C   0  0  0  0  0  0  0  0  0  0  0  0
   57.9250   27.1920   44.1950 C   0  0  0  0  0  0  0  0  0  0  0  0
   57.6570   28.4860   44.6410 C   0  0  0  0  0  0  0  0  0  0  0  0
   56.7080   29.5830   43.6720 S   0  0  0  0  0  0  0  0  0  0  0  0
   55.2970   30.1180   44.5070 N   0  0  0  0  0  0  0  0  0  0  0  0
   56.2830   28.9230   42.3930 O   0  0  0  0  0  0  0  0  0  0  0  0
   57.5260   30.7880   43.3330 O   0  0  0  0  0  0  0  0  0  0  0  0
   60.0500   30.6060   47.1380 N   0  0  0  0  0  0  0  0  0  0  0  0
   57.5910   32.7340   45.4520 C   0  0  0  0  0  0  0  0  0  0  0  0
   56.6350   31.9600   45.2850 O   0  0  0  0  0  0  0  0  0  0  0  0
   57.5160   34.0880   45.0070 N   0  0  0  0  0  0  0  0  0  0  0  0
   58.6320   34.9770   44.9620 C   0  0  0  0  0  0  0  0  0  0  0  0
   59.7960   34.6150   45.8080 C   0  0  0  0  0  0  0  0  0  0  0  0
   64.8083   32.4678   47.2796 H   0  0  0  0  0  0  0  0  0  0  0  0
   63.4451   32.4070   46.1115 H   0  0  0  0  0  0  0  0  0  0  0  0
   64.5660   33.8107   46.1115 H   0  0  0  0  0  0  0  0  0  0  0  0
   63.8425   34.9042   49.9876 H   0  0  0  0  0  0  0  0  0  0  0  0
   62.1293   33.2483   53.7252 H   0  0  0  0  0  0  0  0  0  0  0  0
   63.8204   32.9930   54.2999 H   0  0  0  0  0  0  0  0  0  0  0  0
   62.3654   35.7084   54.2549 H   0  0  0  0  0  0  0  0  0  0  0  0
   62.5789   34.7411   55.7030 H   0  0  0  0  0  0  0  0  0  0  0  0
   63.8543   36.8545   53.4878 H   0  0  0  0  0  0  0  0  0  0  0  0
   65.6323   36.4266   53.6679 H   0  0  0  0  0  0  0  0  0  0  0  0
   64.2104   35.7731   51.5308 H   0  0  0  0  0  0  0  0  0  0  0  0
   65.5427   34.7460   52.2388 H   0  0  0  0  0  0  0  0  0  0  0  0
   62.5921   31.5983   52.3769 H   0  0  0  0  0  0  0  0  0  0  0  0
   59.3095   28.3102   47.5954 H   0  0  0  0  0  0  0  0  0  0  0  0
   61.7560   33.4380   46.9950 H   0  0  0  0  0  0  0  0  0  0  0  0
   61.9580   30.3422   50.3661 H   0  0  0  0  0  0  0  0  0  0  0  0
   59.7854   26.0218   46.8102 H   0  0  0  0  0  0  0  0  0  0  0  0
   58.8767   25.2910   44.5837 H   0  0  0  0  0  0  0  0  0  0  0  0
   57.5315   26.8654   43.2211 H   0  0  0  0  0  0  0  0  0  0  0  0
   54.9850   31.0540   44.1920 H   0  0  0  0  0  0  0  0  0  0  0  0
   55.3900   30.1090   45.5420 H   0  0  0  0  0  0  0  0  0  0  0  0
   60.1470   29.6220   47.4790 H   0  0  0  0  0  0  0  0  0  0  0  0
   56.5860   34.4480   44.6960 H   0  0  0  0  0  0  0  0  0  0  0  0
   58.9785   35.0273   43.9192 H   0  0  0  0  0  0  0  0  0  0  0  0
   58.2626   35.9317   45.3647 H   0  0  0  0  0  0  0  0  0  0  0  0
   60.7120   34.8133   45.2321 H   0  0  0  0  0  0  0  0  0  0  0  0
   59.7155   35.2237   46.7207 H   0  0  0  0  0  0  0  0  0  0  0  0
  1  2  1  0
  2  3  1  0
  3  4  2  0
  4  5  1  0
  5  6  1  0
  6  7  1  0
  7  8  1  0
  8  9  1  0
  9 10  1  0
 10 11  1  0
  5 12  2  0
 12 13  1  0
 13 14  2  0
 14 15  1  0
 15 16  2  0
 16 17  1  0
 17 18  1  0
 18 19  2  0
 19 20  1  0
 20 21  2  0
 21 22  1  0
 22 23  2  0
 23 24  1  0
 24 25  2  0
 25 26  1  0
 26 27  2  0
 27 28  1  0
 28 29  1  0
 28 30  2  0
 28 31  2  0
 20 32  1  0
 19 33  1  0
 33 34  2  0
 33 35  1  0
 35 36  1  0
 36 37  1  0
 14  3  1  0
 32 16  1  0
 11  6  1  0
 37 18  1  0
 27 22  1  0
  1 38  1  0
  1 39  1  0
  1 40  1  0
  4 41  1  0
  7 42  1  0
  7 43  1  0
  8 44  1  0
  8 45  1  0
 10 46  1  0
 10 47  1  0
 11 48  1  0
 11 49  1  0
 12 50  1  0
 13 51  1  0
 17 52  1  0
 23 53  1  0
 24 54  1  0
 25 55  1  0
 26 56  1  0
 29 57  1  0
 29 58  1  0
 32 59  1  0
 35 60  1  0
 36 61  1  0
 36 62  1  0
 37 63  1  0
 37 64  1  0
M  END
>  <smiles>  (76) 
COc1cc(N2CCOCC2)ccc1N=c1[nH]c2c(c(=Nc3ccccc3S(N)(=O)=O)[nH]1)C(=O)NCC2

>  <score_type>  (76) 
oracle

>  <origin>  (76) 
adg

>  <m_score__min__energy>  (76) 
-9.3499999999999996

>  <m_primary>  (76) 
energy

$$$$
76:0
     RDKit          3D

 41 42  0  0  0  0  0  0  0  0999 V2000
   59.4850   34.8520   45.7610 C   0  0  0  0  0  0  0  0  0  0  0  0
   58.6460   33.6190   45.7340 C   0  0  0  0  0  0  0  0  0  0  0  0
   57.8830   33.1790   44.6740 C   0  0  0  0  0  0  0  0  0  0  0  0
   57.3470   31.9950   45.1510 C   0  0  0  0  0  0  0  0  0  0  0  0
   56.5980   31.1490   44.5050 N   0  0  0  0  0  0  0  0  0  0  0  0
   56.3750   29.7610   44.8050 C   0  0  0  0  0  0  0  0  0  0  0  0
   55.1890   29.3440   44.8810 O   0  0  0  0  0  0  0  0  0  0  0  0
   57.4990   28.7690   44.9460 C   0  0  0  0  0  0  0  0  0  0  0  0
   58.3060   29.0620   46.1290 N   0  0  0  0  0  0  0  0  0  0  0  0
   58.7900   28.0360   47.0050 C   0  0  0  0  0  0  0  0  0  0  0  0
   58.4650   26.8310   46.8210 O   0  0  0  0  0  0  0  0  0  0  0  0
   59.6790   28.3970   48.1540 C   0  0  0  0  0  0  0  0  0  0  0  0
   59.8700   29.8400   48.1980 N   0  0  0  0  0  0  0  0  0  0  0  0
   60.7850   30.5410   47.3470 C   0  0  0  0  0  0  0  0  0  0  0  0
   60.6530   30.4720   46.0950 O   0  0  0  0  0  0  0  0  0  0  0  0
   61.8870   31.3360   47.9350 C   0  0  0  0  0  0  0  0  0  0  0  0
   62.6200   32.2360   47.1420 C   0  0  0  0  0  0  0  0  0  0  0  0
   63.6870   32.9560   47.6850 C   0  0  0  0  0  0  0  0  0  0  0  0
   64.0390   32.7910   49.0390 C   0  0  0  0  0  0  0  0  0  0  0  0
   65.1060   33.4840   49.6350 O   0  0  0  0  0  0  0  0  0  0  0  0
   66.1930   32.8810   50.3340 C   0  0  0  0  0  0  0  0  0  0  0  0
   66.1600   33.2420   51.6680 F   0  0  0  0  0  0  0  0  0  0  0  0
   67.3800   33.3190   49.7820 F   0  0  0  0  0  0  0  0  0  0  0  0
   66.1280   31.5030   50.2160 F   0  0  0  0  0  0  0  0  0  0  0  0
   63.3040   31.9020   49.8290 C   0  0  0  0  0  0  0  0  0  0  0  0
   62.2380   31.1810   49.2870 C   0  0  0  0  0  0  0  0  0  0  0  0
   57.7780   31.7640   46.4050 N   0  0  0  0  0  0  0  0  0  0  0  0
   58.5520   32.7600   46.7230 O   0  0  0  0  0  0  0  0  0  0  0  0
   59.6807   35.1396   46.8046 H   0  0  0  0  0  0  0  0  0  0  0  0
   60.4391   34.6576   45.2492 H   0  0  0  0  0  0  0  0  0  0  0  0
   58.9540   35.6681   45.2492 H   0  0  0  0  0  0  0  0  0  0  0  0
   57.7362   33.6517   43.6917 H   0  0  0  0  0  0  0  0  0  0  0  0
   57.0773   27.7573   45.0389 H   0  0  0  0  0  0  0  0  0  0  0  0
   58.1417   28.8363   44.0558 H   0  0  0  0  0  0  0  0  0  0  0  0
   58.6720   30.0340   46.2570 H   0  0  0  0  0  0  0  0  0  0  0  0
   59.2154   28.0616   49.0934 H   0  0  0  0  0  0  0  0  0  0  0  0
   60.6549   27.9061   48.0252 H   0  0  0  0  0  0  0  0  0  0  0  0
   62.3510   32.3746   46.0844 H   0  0  0  0  0  0  0  0  0  0  0  0
   64.2546   33.6546   47.0527 H   0  0  0  0  0  0  0  0  0  0  0  0
   63.5682   31.7691   50.8885 H   0  0  0  0  0  0  0  0  0  0  0  0
   61.6689   30.4868   49.9228 H   0  0  0  0  0  0  0  0  0  0  0  0
  1  2  1  0
  2  3  2  0
  3  4  1  0
  4  5  2  3
  5  6  1  0
  6  7  2  0
  6  8  1  0
  8  9  1  0
  9 10  1  0
 10 11  2  0
 10 12  1  0
 12 13  1  0
 13 14  1  0
 14 15  2  0
 14 16  1  0
 16 17  2  0
 17 18  1  0
 18 19  2  0
 19 20  1  0
 20 21  1  0
 21 22  1  0
 21 23  1  0
 21 24  1  0
 19 25  1  0
 25 26  2  0
  4 27  1  0
 27 28  1  0
 28  2  1  0
 26 16  1  0
  1 29  1  0
  1 30  1  0
  1 31  1  0
  3 32  1  0
  8 33  1  0
  8 34  1  0
  9 35  1  0
 12 36  1  0
 12 37  1  0
 17 38  1  0
 18 39  1  0
 25 40  1  0
 26 41  1  0
M  CHG  2  13  -1  27  -1
M  END
>  <UniqueID>  (77) 
69

>  <SMILES>  (77) 
Cc1cc(=NC(=O)CNC(=O)C[N-]C(=O)c2ccc(OC(F)(F)F)cc2)[n-]o1

>  <Energy>  (77) 
69.00580517670983

>  <Genealogy>  (77) 
Cc1cc(=NC(=O)CNC(=O)C[N-]C(=O)c2ccc(OC(F)(F)F)cc2)[n-]o1 (protonated)
Cc1cc(=NC(=O)CNC(=O)C[N-]C(=O)c2ccc(OC(F)(F)F)cc2)[n-]o1 (3D coordinates assigned)
Cc1cc(=NC(=O)CNC(=O)C[N-]C(=O)c2ccc(OC(F)(F)F)cc2)[n-]o1 (optimized conformer: 69.00580517670983 kcal/mol)

>  <smiles>  (77) 
Cc1cc(=NC(=O)CNC(=O)CNC(=O)c2ccc(OC(F)(F)F)cc2)[nH]o1

>  <score_type>  (77) 
oracle

>  <origin>  (77) 
adg

>  <m_score__min__energy>  (77) 
-10.99

>  <m_primary>  (77) 
energy

$$$$
77:0
     RDKit          3D

 66 69  0  0  0  0  0  0  0  0999 V2000
   57.7450   32.0810   41.8050 C   0  0  0  0  0  0  0  0  0  0  0  0
   57.9640   31.6230   43.1820 N   0  0  0  0  0  0  0  0  0  0  0  0
   57.8040   32.7420   44.1200 C   0  0  0  0  0  0  0  0  0  0  0  0
   56.8290   30.3500   43.5710 S   0  0  0  0  0  0  0  0  0  0  0  0
   55.7700   30.8890   44.4940 O   0  0  0  0  0  0  0  0  0  0  0  0
   56.1530   29.8730   42.3150 O   0  0  0  0  0  0  0  0  0  0  0  0
   57.6400   28.9860   44.3460 C   0  0  0  0  0  0  0  0  0  0  0  0
   57.8060   27.7810   43.6550 C   0  0  0  0  0  0  0  0  0  0  0  0
   58.3440   26.6670   44.3060 C   0  0  0  0  0  0  0  0  0  0  0  0
   58.7090   26.7500   45.6520 C   0  0  0  0  0  0  0  0  0  0  0  0
   58.5780   27.9670   46.3490 C   0  0  0  0  0  0  0  0  0  0  0  0
   58.8540   28.0890   47.7530 N   0  0  0  0  0  0  0  0  0  0  0  0
   60.1300   28.2900   48.3780 C   0  0  0  0  0  0  0  0  0  0  0  0
   60.6300   27.4080   49.1290 O   0  0  0  0  0  0  0  0  0  0  0  0
   60.8520   29.5530   48.1580 C   0  0  0  0  0  0  0  0  0  0  0  0
   60.7710   30.2190   46.9250 C   0  0  0  0  0  0  0  0  0  0  0  0
   61.3690   31.4720   46.7580 C   0  0  0  0  0  0  0  0  0  0  0  0
   62.0160   32.0880   47.8330 C   0  0  0  0  0  0  0  0  0  0  0  0
   62.0780   31.4420   49.0760 C   0  0  0  0  0  0  0  0  0  0  0  0
   62.7340   32.2590   50.4890 S   0  0  0  0  0  0  0  0  0  0  0  0
   62.5150   31.3840   51.6940 O   0  0  0  0  0  0  0  0  0  0  0  0
   64.2130   32.5050   50.3360 O   0  0  0  0  0  0  0  0  0  0  0  0
   61.9220   33.7790   50.7360 N   0  0  0  0  0  0  0  0  0  0  0  0
   60.4800   33.6090   50.9270 C   0  0  0  0  0  0  0  0  0  0  0  0
   59.7640   33.6200   49.5950 C   0  0  0  0  0  0  0  0  0  0  0  0
   60.1510   34.5580   48.6210 C   0  0  0  0  0  0  0  0  0  0  0  0
   59.5580   34.5580   47.3550 C   0  0  0  0  0  0  0  0  0  0  0  0
   58.5600   33.6330   47.0490 C   0  0  0  0  0  0  0  0  0  0  0  0
   58.1410   32.7120   48.0120 C   0  0  0  0  0  0  0  0  0  0  0  0
   58.7240   32.7030   49.2890 C   0  0  0  0  0  0  0  0  0  0  0  0
   58.2030   31.7960   50.2730 N   0  0  0  0  0  0  0  0  0  0  0  0
   57.3990   32.3360   51.3770 C   0  0  0  0  0  0  0  0  0  0  0  0
   57.1950   31.3170   52.4980 C   0  0  0  0  0  0  0  0  0  0  0  0
   56.9620   30.0310   51.9630 O   0  0  0  0  0  0  0  0  0  0  0  0
   58.1610   29.5590   51.3890 C   0  0  0  0  0  0  0  0  0  0  0  0
   58.5380   30.3670   50.1410 C   0  0  0  0  0  0  0  0  0  0  0  0
   61.5310   30.1620   49.2230 C   0  0  0  0  0  0  0  0  0  0  0  0
   58.0480   29.0790   45.6840 C   0  0  0  0  0  0  0  0  0  0  0  0
   57.2705   33.0733   41.8197 H   0  0  0  0  0  0  0  0  0  0  0  0
   58.7104   32.1439   41.2816 H   0  0  0  0  0  0  0  0  0  0  0  0
   57.0899   31.3690   41.2816 H   0  0  0  0  0  0  0  0  0  0  0  0
   57.8578   32.3657   45.1522 H   0  0  0  0  0  0  0  0  0  0  0  0
   58.6063   33.4763   43.9551 H   0  0  0  0  0  0  0  0  0  0  0  0
   56.8281   33.2220   43.9551 H   0  0  0  0  0  0  0  0  0  0  0  0
   57.5126   27.7099   42.5972 H   0  0  0  0  0  0  0  0  0  0  0  0
   58.4802   25.7233   43.7574 H   0  0  0  0  0  0  0  0  0  0  0  0
   59.1002   25.8616   46.1694 H   0  0  0  0  0  0  0  0  0  0  0  0
   60.2342   29.7528   46.0856 H   0  0  0  0  0  0  0  0  0  0  0  0
   61.3302   31.9733   45.7797 H   0  0  0  0  0  0  0  0  0  0  0  0
   62.4762   33.0788   47.7040 H   0  0  0  0  0  0  0  0  0  0  0  0
   60.2923   32.6494   51.4309 H   0  0  0  0  0  0  0  0  0  0  0  0
   60.1022   34.4400   51.5407 H   0  0  0  0  0  0  0  0  0  0  0  0
   60.9284   35.2993   48.8579 H   0  0  0  0  0  0  0  0  0  0  0  0
   59.8792   35.2891   46.5985 H   0  0  0  0  0  0  0  0  0  0  0  0
   58.1025   33.6287   46.0486 H   0  0  0  0  0  0  0  0  0  0  0  0
   57.3488   31.9889   47.7681 H   0  0  0  0  0  0  0  0  0  0  0  0
   57.9112   33.2178   51.7893 H   0  0  0  0  0  0  0  0  0  0  0  0
   56.4088   32.5979   50.9757 H   0  0  0  0  0  0  0  0  0  0  0  0
   58.0955   31.2885   53.1292 H   0  0  0  0  0  0  0  0  0  0  0  0
   56.3214   31.6166   53.0956 H   0  0  0  0  0  0  0  0  0  0  0  0
   58.9703   29.6444   52.1290 H   0  0  0  0  0  0  0  0  0  0  0  0
   58.0140   28.5101   51.0919 H   0  0  0  0  0  0  0  0  0  0  0  0
   59.6210   30.2724   49.9730 H   0  0  0  0  0  0  0  0  0  0  0  0
   57.9615   29.9647   49.2949 H   0  0  0  0  0  0  0  0  0  0  0  0
   61.6345   29.6303   50.1804 H   0  0  0  0  0  0  0  0  0  0  0  0
   57.9506   30.0362   46.2171 H   0  0  0  0  0  0  0  0  0  0  0  0
  1  2  1  0
  2  3  1  0
  2  4  1  0
  4  5  2  0
  4  6  2  0
  4  7  1  0
  7  8  2  0
  8  9  1  0
  9 10  2  0
 10 11  1  0
 11 12  1  0
 12 13  1  0
 13 14  2  0
 13 15  1  0
 15 16  2  0
 16 17  1  0
 17 18  2  0
 18 19  1  0
 19 20  1  0
 20 21  2  0
 20 22  2  0
 20 23  1  0
 23 24  1  0
 24 25  1  0
 25 26  2  0
 26 27  1  0
 27 28  2  0
 28 29  1  0
 29 30  2  0
 30 31  1  0
 31 32  1  0
 32 33  1  0
 33 34  1  0
 34 35  1  0
 35 36  1  0
 19 37  2  0
 11 38  2  0
 38  7  1  0
 37 15  1  0
 30 25  1  0
 36 31  1  0
  1 39  1  0
  1 40  1  0
  1 41  1  0
  3 42  1  0
  3 43  1  0
  3 44  1  0
  8 45  1  0
  9 46  1  0
 10 47  1  0
 16 48  1  0
 17 49  1  0
 18 50  1  0
 24 51  1  0
 24 52  1  0
 26 53  1  0
 27 54  1  0
 28 55  1  0
 29 56  1  0
 32 57  1  0
 32 58  1  0
 33 59  1  0
 33 60  1  0
 35 61  1  0
 35 62  1  0
 36 63  1  0
 36 64  1  0
 37 65  1  0
 38 66  1  0
M  CHG  2  12  -1  23  -1
M  END
>  <UniqueID>  (78) 
70

>  <SMILES>  (78) 
CN(C)S(=O)(=O)c1cccc([N-]C(=O)c2cccc(S(=O)(=O)[N-]Cc3ccccc3N3CCOCC3)c2)c1

>  <Energy>  (78) 
78.41678308038179

>  <Genealogy>  (78) 
CN(C)S(=O)(=O)c1cccc([N-]C(=O)c2cccc(S(=O)(=O)[N-]Cc3ccccc3N3CCOCC3)c2)c1 (protonated)
CN(C)S(=O)(=O)c1cccc([N-]C(=O)c2cccc(S(=O)(=O)[N-]Cc3ccccc3N3CCOCC3)c2)c1 (3D coordinates assigned)
CN(C)S(=O)(=O)c1cccc([N-]C(=O)c2cccc(S(=O)(=O)[N-]Cc3ccccc3N3CCOCC3)c2)c1 (nonaromatic ring conformer: 78.41678308038179 kcal/mol)

>  <smiles>  (78) 
CN(C)S(=O)(=O)c1cccc(NC(=O)c2cccc(S(=O)(=O)NCc3ccccc3N3CCOCC3)c2)c1

>  <score_type>  (78) 
oracle

>  <origin>  (78) 
adg

>  <m_score__min__energy>  (78) 
-13.390000000000001

>  <m_primary>  (78) 
energy

$$$$
78:0
     RDKit          3D

 77 81  0  0  0  0  0  0  0  0999 V2000
   60.8690   27.9960   50.0840 C   0  0  0  0  0  0  0  0  0  0  0  0
   60.7970   29.0060   51.2280 C   0  0  0  0  0  0  0  0  0  0  0  0
   60.5480   30.4370   50.7310 C   0  0  0  0  0  0  0  0  0  0  0  0
   61.8000   31.0950   50.2120 C   0  0  0  0  0  0  0  0  0  0  0  0
   62.9860   31.0480   50.8550 N   0  0  0  0  0  0  0  0  0  0  0  0
   63.8680   31.6980   50.1110 N   0  0  0  0  0  0  0  0  0  0  0  0
   65.2500   31.8910   50.4630 C   0  0  0  0  0  0  0  0  0  0  0  0
   65.9060   33.0620   50.0490 C   0  0  0  0  0  0  0  0  0  0  0  0
   67.2440   33.2810   50.3780 C   0  0  0  0  0  0  0  0  0  0  0  0
   67.9410   32.3370   51.1320 C   0  0  0  0  0  0  0  0  0  0  0  0
   67.2990   31.1750   51.5670 C   0  0  0  0  0  0  0  0  0  0  0  0
   65.9450   30.9430   51.2460 C   0  0  0  0  0  0  0  0  0  0  0  0
   65.2600   29.8090   51.7110 O   0  0  0  0  0  0  0  0  0  0  0  0
   64.9510   29.5390   53.0760 C   0  0  0  0  0  0  0  0  0  0  0  0
   63.6530   29.0740   53.1840 F   0  0  0  0  0  0  0  0  0  0  0  0
   65.0700   30.7070   53.8030 F   0  0  0  0  0  0  0  0  0  0  0  0
   63.2100   32.1470   49.0250 C   0  0  0  0  0  0  0  0  0  0  0  0
   63.7290   32.8530   48.1200 O   0  0  0  0  0  0  0  0  0  0  0  0
   61.9120   31.7740   49.0430 N   0  0  0  0  0  0  0  0  0  0  0  0
   60.8960   32.0520   48.0270 C   0  0  0  0  0  0  0  0  0  0  0  0
   60.2610   30.7790   47.5380 C   0  0  0  0  0  0  0  0  0  0  0  0
   58.8650   30.6280   47.5380 C   0  0  0  0  0  0  0  0  0  0  0  0
   58.2860   29.4280   47.1170 C   0  0  0  0  0  0  0  0  0  0  0  0
   59.0950   28.3500   46.7420 C   0  0  0  0  0  0  0  0  0  0  0  0
   58.4850   27.0400   46.4550 C   0  0  0  0  0  0  0  0  0  0  0  0
   58.5260   26.0430   47.4450 C   0  0  0  0  0  0  0  0  0  0  0  0
   57.9640   24.7880   47.2040 C   0  0  0  0  0  0  0  0  0  0  0  0
   57.3650   24.5150   45.9750 C   0  0  0  0  0  0  0  0  0  0  0  0
   57.3310   25.4900   44.9770 C   0  0  0  0  0  0  0  0  0  0  0  0
   57.8940   26.7570   45.1980 C   0  0  0  0  0  0  0  0  0  0  0  0
   57.8690   27.9520   43.8880 S   0  0  0  0  0  0  0  0  0  0  0  0
   57.8380   27.2370   42.5670 O   0  0  0  0  0  0  0  0  0  0  0  0
   59.0950   28.8210   43.9370 O   0  0  0  0  0  0  0  0  0  0  0  0
   56.4680   28.9600   44.0250 N   0  0  0  0  0  0  0  0  0  0  0  0
   56.5530   30.3850   43.9940 C   0  0  0  0  0  0  0  0  0  0  0  0
   55.6280   31.0850   44.4890 O   0  0  0  0  0  0  0  0  0  0  0  0
   57.6800   31.0090   43.3650 N   0  0  0  0  0  0  0  0  0  0  0  0
   57.7900   32.4570   43.1980 C   0  0  0  0  0  0  0  0  0  0  0  0
   58.1280   33.1120   44.5090 C   0  0  0  0  0  0  0  0  0  0  0  0
   59.3010   33.8760   44.6440 C   0  0  0  0  0  0  0  0  0  0  0  0
   59.6320   34.4480   45.8770 C   0  0  0  0  0  0  0  0  0  0  0  0
   58.7950   34.2620   46.9810 C   0  0  0  0  0  0  0  0  0  0  0  0
   57.6300   33.5020   46.8560 C   0  0  0  0  0  0  0  0  0  0  0  0
   57.2950   32.9270   45.6260 C   0  0  0  0  0  0  0  0  0  0  0  0
   60.4860   28.5040   46.7150 C   0  0  0  0  0  0  0  0  0  0  0  0
   61.0660   29.7150   47.1020 C   0  0  0  0  0  0  0  0  0  0  0  0
   60.9415   26.9790   50.4968 H   0  0  0  0  0  0  0  0  0  0  0  0
   59.9628   28.0770   49.4658 H   0  0  0  0  0  0  0  0  0  0  0  0
   61.7545   28.2048   49.4658 H   0  0  0  0  0  0  0  0  0  0  0  0
   59.9766   28.7184   51.9019 H   0  0  0  0  0  0  0  0  0  0  0  0
   61.7672   28.9952   51.7463 H   0  0  0  0  0  0  0  0  0  0  0  0
   59.8050   30.4044   49.9205 H   0  0  0  0  0  0  0  0  0  0  0  0
   60.1895   31.0294   51.5857 H   0  0  0  0  0  0  0  0  0  0  0  0
   63.1930   30.5680   51.7590 H   0  0  0  0  0  0  0  0  0  0  0  0
   65.3597   33.8134   49.4599 H   0  0  0  0  0  0  0  0  0  0  0  0
   67.7495   34.1986   50.0426 H   0  0  0  0  0  0  0  0  0  0  0  0
   68.9979   32.5078   51.3845 H   0  0  0  0  0  0  0  0  0  0  0  0
   67.8532   30.4357   52.1640 H   0  0  0  0  0  0  0  0  0  0  0  0
   65.6442   28.7766   53.4611 H   0  0  0  0  0  0  0  0  0  0  0  0
   60.1190   32.6976   48.4623 H   0  0  0  0  0  0  0  0  0  0  0  0
   61.3796   32.5524   47.1751 H   0  0  0  0  0  0  0  0  0  0  0  0
   58.2244   31.4580   47.8709 H   0  0  0  0  0  0  0  0  0  0  0  0
   57.1909   29.3307   47.0803 H   0  0  0  0  0  0  0  0  0  0  0  0
   59.0030   26.2525   48.4138 H   0  0  0  0  0  0  0  0  0  0  0  0
   57.9938   24.0136   47.9847 H   0  0  0  0  0  0  0  0  0  0  0  0
   56.9174   23.5271   45.7912 H   0  0  0  0  0  0  0  0  0  0  0  0
   56.8592   25.2639   44.0094 H   0  0  0  0  0  0  0  0  0  0  0  0
   58.4470   30.4010   42.9960 H   0  0  0  0  0  0  0  0  0  0  0  0
   58.5820   32.6784   42.4674 H   0  0  0  0  0  0  0  0  0  0  0  0
   56.8262   32.8492   42.8413 H   0  0  0  0  0  0  0  0  0  0  0  0
   59.9609   34.0244   43.7765 H   0  0  0  0  0  0  0  0  0  0  0  0
   60.5509   35.0442   45.9778 H   0  0  0  0  0  0  0  0  0  0  0  0
   59.0542   34.7148   47.9494 H   0  0  0  0  0  0  0  0  0  0  0  0
   56.9744   33.3553   47.7270 H   0  0  0  0  0  0  0  0  0  0  0  0
   56.3770   32.3282   45.5324 H   0  0  0  0  0  0  0  0  0  0  0  0
   61.1241   27.6697   46.3883 H   0  0  0  0  0  0  0  0  0  0  0  0
   62.1588   29.8350   47.0648 H   0  0  0  0  0  0  0  0  0  0  0  0
  1  2  1  0
  2  3  1  0
  3  4  1  0
  4  5  2  0
  5  6  1  0
  6  7  1  0
  7  8  2  0
  8  9  1  0
  9 10  2  0
 10 11  1  0
 11 12  2  0
 12 13  1  0
 13 14  1  0
 14 15  1  0
 14 16  1  0
  6 17  1  0
 17 18  2  0
 17 19  1  0
 19 20  1  0
 20 21  1  0
 21 22  2  0
 22 23  1  0
 23 24  2  0
 24 25  1  0
 25 26  2  0
 26 27  1  0
 27 28  2  0
 28 29  1  0
 29 30  2  0
 30 31  1  0
 31 32  2  0
 31 33  2  0
 31 34  1  0
 34 35  1  0
 35 36  2  0
 35 37  1  0
 37 38  1  0
 38 39  1  0
 39 40  2  0
 40 41  1  0
 41 42  2  0
 42 43  1  0
 43 44  2  0
 24 45  1  0
 45 46  2  0
 19  4  1  0
 46 21  1  0
 12  7  1  0
 30 25  1  0
 44 39  1  0
  1 47  1  0
  1 48  1  0
  1 49  1  0
  2 50  1  0
  2 51  1  0
  3 52  1  0
  3 53  1  0
  5 54  1  0
  8 55  1  0
  9 56  1  0
 10 57  1  0
 11 58  1  0
 14 59  1  0
 20 60  1  0
 20 61  1  0
 22 62  1  0
 23 63  1  0
 26 64  1  0
 27 65  1  0
 28 66  1  0
 29 67  1  0
 37 68  1  0
 38 69  1  0
 38 70  1  0
 40 71  1  0
 41 72  1  0
 42 73  1  0
 43 74  1  0
 44 75  1  0
 45 76  1  0
 46 77  1  0
M  CHG  2   5   1  34  -1
M  END
>  <UniqueID>  (79) 
71

>  <SMILES>  (79) 
CCCc1[nH+]n(-c2ccccc2OC(F)F)c(=O)n1Cc1ccc(-c2ccccc2S(=O)(=O)[N-]C(=O)NCc2ccccc2)cc1

>  <Energy>  (79) 
123.67312102929851

>  <Genealogy>  (79) 
CCCc1[nH+]n(-c2ccccc2OC(F)F)c(=O)n1Cc1ccc(-c2ccccc2S(=O)(=O)[N-]C(=O)NCc2ccccc2)cc1 (protonated)
CCCc1[nH+]n(-c2ccccc2OC(F)F)c(=O)n1Cc1ccc(-c2ccccc2S(=O)(=O)[N-]C(=O)NCc2ccccc2)cc1 (3D coordinates assigned)
CCCc1[nH+]n(-c2ccccc2OC(F)F)c(=O)n1Cc1ccc(-c2ccccc2S(=O)(=O)[N-]C(=O)NCc2ccccc2)cc1 (optimized conformer: 123.67312102929851 kcal/mol)

>  <smiles>  (79) 
CCCc1nn(-c2ccccc2OC(F)F)c(=O)n1Cc1ccc(-c2ccccc2S(=O)(=O)NC(=O)NCc2ccccc2)cc1

>  <score_type>  (79) 
oracle

>  <origin>  (79) 
adg

>  <m_score__min__energy>  (79) 
-10.49

>  <m_primary>  (79) 
energy

$$$$
79:0
     RDKit          3D

 49 51  0  0  0  0  0  0  0  0999 V2000
   57.8360   32.5540   43.7610 C   0  0  0  0  0  0  0  0  0  0  0  0
   57.2810   33.3950   44.9060 C   0  0  0  0  0  0  0  0  0  0  0  0
   58.3230   33.5890   45.9750 C   0  0  0  0  0  0  0  0  0  0  0  0
   59.5410   34.2160   45.6700 C   0  0  0  0  0  0  0  0  0  0  0  0
   60.5260   34.3540   46.6500 C   0  0  0  0  0  0  0  0  0  0  0  0
   60.3110   33.8540   47.9370 C   0  0  0  0  0  0  0  0  0  0  0  0
   59.1070   33.2060   48.2530 C   0  0  0  0  0  0  0  0  0  0  0  0
   58.8820   32.6440   49.6330 C   0  0  0  0  0  0  0  0  0  0  0  0
   58.5890   31.2160   49.5660 N   0  0  0  0  0  0  0  0  0  0  0  0
   59.5170   30.2370   49.0830 C   0  0  0  0  0  0  0  0  0  0  0  0
   60.3330   29.7010   49.8830 O   0  0  0  0  0  0  0  0  0  0  0  0
   59.5310   29.8660   47.6490 C   0  0  0  0  0  0  0  0  0  0  0  0
   60.7480   29.6920   46.9670 C   0  0  0  0  0  0  0  0  0  0  0  0
   60.7570   29.3400   45.6150 C   0  0  0  0  0  0  0  0  0  0  0  0
   59.5550   29.1500   44.9300 C   0  0  0  0  0  0  0  0  0  0  0  0
   58.3340   29.3070   45.5970 C   0  0  0  0  0  0  0  0  0  0  0  0
   56.8140   29.0470   44.7480 S   0  0  0  0  0  0  0  0  0  0  0  0
   56.0520   30.3410   44.6930 O   0  0  0  0  0  0  0  0  0  0  0  0
   57.0910   28.5550   43.3540 O   0  0  0  0  0  0  0  0  0  0  0  0
   55.8930   27.8500   45.6000 N   0  0  0  0  0  0  0  0  0  0  0  0
   56.3730   26.5590   45.9960 C   0  0  0  0  0  0  0  0  0  0  0  0
   55.5630   25.4410   45.7570 C   0  0  0  0  0  0  0  0  0  0  0  0
   55.9910   24.1630   46.1270 C   0  0  0  0  0  0  0  0  0  0  0  0
   57.2350   23.9890   46.7390 C   0  0  0  0  0  0  0  0  0  0  0  0
   57.6510   22.7090   47.1010 O   0  0  0  0  0  0  0  0  0  0  0  0
   58.0510   25.1010   46.9830 C   0  0  0  0  0  0  0  0  0  0  0  0
   57.6230   26.3830   46.6160 C   0  0  0  0  0  0  0  0  0  0  0  0
   58.3250   29.6750   46.9510 C   0  0  0  0  0  0  0  0  0  0  0  0
   58.1130   33.0800   47.2680 C   0  0  0  0  0  0  0  0  0  0  0  0
   58.3982   31.7020   44.1709 H   0  0  0  0  0  0  0  0  0  0  0  0
   57.0054   32.1820   43.1432 H   0  0  0  0  0  0  0  0  0  0  0  0
   58.5046   33.1714   43.1432 H   0  0  0  0  0  0  0  0  0  0  0  0
   56.9746   34.3774   44.5174 H   0  0  0  0  0  0  0  0  0  0  0  0
   56.4175   32.8724   45.3434 H   0  0  0  0  0  0  0  0  0  0  0  0
   59.7204   34.6002   44.6550 H   0  0  0  0  0  0  0  0  0  0  0  0
   61.4736   34.8576   46.4083 H   0  0  0  0  0  0  0  0  0  0  0  0
   61.0891   33.9689   48.7060 H   0  0  0  0  0  0  0  0  0  0  0  0
   59.7874   32.7990   50.2382 H   0  0  0  0  0  0  0  0  0  0  0  0
   58.0249   33.1602   50.0901 H   0  0  0  0  0  0  0  0  0  0  0  0
   61.6991   29.8339   47.5012 H   0  0  0  0  0  0  0  0  0  0  0  0
   61.7142   29.2121   45.0883 H   0  0  0  0  0  0  0  0  0  0  0  0
   59.5675   28.8765   43.8646 H   0  0  0  0  0  0  0  0  0  0  0  0
   54.5829   25.5701   45.2746 H   0  0  0  0  0  0  0  0  0  0  0  0
   55.3469   23.2920   45.9359 H   0  0  0  0  0  0  0  0  0  0  0  0
   57.3470   21.8890   46.5880 H   0  0  0  0  0  0  0  0  0  0  0  0
   59.0310   24.9669   47.4643 H   0  0  0  0  0  0  0  0  0  0  0  0
   58.2656   27.2538   46.8130 H   0  0  0  0  0  0  0  0  0  0  0  0
   57.3660   29.8154   47.4713 H   0  0  0  0  0  0  0  0  0  0  0  0
   57.1639   32.5795   47.5106 H   0  0  0  0  0  0  0  0  0  0  0  0
  1  2  1  0
  2  3  1  0
  3  4  2  0
  4  5  1  0
  5  6  2  0
  6  7  1  0
  7  8  1  0
  8  9  1  0
  9 10  1  0
 10 11  2  0
 10 12  1  0
 12 13  2  0
 13 14  1  0
 14 15  2  0
 15 16  1  0
 16 17  1  0
 17 18  2  0
 17 19  2  0
 17 20  1  0
 20 21  1  0
 21 22  2  0
 22 23  1  0
 23 24  2  0
 24 25  1  0
 24 26  1  0
 26 27  2  0
 16 28  2  0
  7 29  2  0
 29  3  1  0
 28 12  1  0
 27 21  1  0
  1 30  1  0
  1 31  1  0
  1 32  1  0
  2 33  1  0
  2 34  1  0
  4 35  1  0
  5 36  1  0
  6 37  1  0
  8 38  1  0
  8 39  1  0
 13 40  1  0
 14 41  1  0
 15 42  1  0
 22 43  1  0
 23 44  1  0
 25 45  1  0
 26 46  1  0
 27 47  1  0
 28 48  1  0
 29 49  1  0
M  CHG  2   9  -1  20  -1
M  END
>  <UniqueID>  (80) 
72

>  <SMILES>  (80) 
CCc1cccc(C[N-]C(=O)c2cccc(S(=O)(=O)[N-]c3ccc(O)cc3)c2)c1

>  <Energy>  (80) 
50.27300812970769

>  <Genealogy>  (80) 
CCc1cccc(C[N-]C(=O)c2cccc(S(=O)(=O)[N-]c3ccc(O)cc3)c2)c1 (protonated)
CCc1cccc(C[N-]C(=O)c2cccc(S(=O)(=O)[N-]c3ccc(O)cc3)c2)c1 (3D coordinates assigned)
CCc1cccc(C[N-]C(=O)c2cccc(S(=O)(=O)[N-]c3ccc(O)cc3)c2)c1 (optimized conformer: 50.27300812970769 kcal/mol)

>  <smiles>  (80) 
CCc1cccc(CNC(=O)c2cccc(S(=O)(=O)Nc3ccc(O)cc3)c2)c1

>  <score_type>  (80) 
oracle

>  <origin>  (80) 
adg

>  <m_score__min__energy>  (80) 
-12.17

>  <m_primary>  (80) 
energy

$$$$
80:0
     RDKit          3D

 38 40  0  0  0  0  0  0  0  0999 V2000
   55.1420   29.5280   44.8680 O   0  0  0  0  0  0  0  0  0  0  0  0
   56.3570   29.7530   44.6160 C   0  0  0  0  0  0  0  0  0  0  0  0
   57.2730   28.6120   44.3120 C   0  0  0  0  0  0  0  0  0  0  0  0
   57.0890   27.5300   45.3280 C   0  0  0  0  0  0  0  0  0  0  0  0
   58.0880   26.8060   45.9310 C   0  0  0  0  0  0  0  0  0  0  0  0
   57.5330   25.8810   46.7310 N   0  0  0  0  0  0  0  0  0  0  0  0
   56.2040   26.0700   46.5810 C   0  0  0  0  0  0  0  0  0  0  0  0
   55.8910   27.0640   45.7230 N   0  0  0  0  0  0  0  0  0  0  0  0
   56.8720   31.0910   44.6100 N   0  0  0  0  0  0  0  0  0  0  0  0
   57.5320   31.7550   45.6970 C   0  0  0  0  0  0  0  0  0  0  0  0
   58.2900   31.0540   46.6500 C   0  0  0  0  0  0  0  0  0  0  0  0
   58.9400   31.7410   47.6810 C   0  0  0  0  0  0  0  0  0  0  0  0
   58.8550   33.1430   47.7690 C   0  0  0  0  0  0  0  0  0  0  0  0
   59.5420   33.8700   48.8620 C   0  0  0  0  0  0  0  0  0  0  0  0
   59.0680   33.8420   50.0310 O   0  0  0  0  0  0  0  0  0  0  0  0
   60.7720   34.5600   48.6030 N   0  0  0  0  0  0  0  0  0  0  0  0
   62.0990   34.0290   48.7350 C   0  0  0  0  0  0  0  0  0  0  0  0
   62.8790   33.7110   47.6060 C   0  0  0  0  0  0  0  0  0  0  0  0
   64.1600   33.1730   47.7620 C   0  0  0  0  0  0  0  0  0  0  0  0
   64.6690   32.9340   49.0390 C   0  0  0  0  0  0  0  0  0  0  0  0
   63.8950   33.2230   50.1640 C   0  0  0  0  0  0  0  0  0  0  0  0
   62.6110   33.7630   50.0210 C   0  0  0  0  0  0  0  0  0  0  0  0
   61.8640   34.0300   51.1700 O   0  0  0  0  0  0  0  0  0  0  0  0
   58.1150   33.8400   46.7980 C   0  0  0  0  0  0  0  0  0  0  0  0
   57.4680   33.1510   45.7690 C   0  0  0  0  0  0  0  0  0  0  0  0
   57.0438   28.2163   43.3115 H   0  0  0  0  0  0  0  0  0  0  0  0
   58.3145   28.9646   44.3415 H   0  0  0  0  0  0  0  0  0  0  0  0
   59.1672   26.9588   45.7829 H   0  0  0  0  0  0  0  0  0  0  0  0
   55.4477   25.4702   47.1085 H   0  0  0  0  0  0  0  0  0  0  0  0
   58.3728   29.9590   46.5851 H   0  0  0  0  0  0  0  0  0  0  0  0
   59.5217   31.1813   48.4282 H   0  0  0  0  0  0  0  0  0  0  0  0
   62.4783   33.8868   46.5968 H   0  0  0  0  0  0  0  0  0  0  0  0
   64.7680   32.9376   46.8760 H   0  0  0  0  0  0  0  0  0  0  0  0
   65.6801   32.5179   49.1591 H   0  0  0  0  0  0  0  0  0  0  0  0
   64.2961   33.0254   51.1690 H   0  0  0  0  0  0  0  0  0  0  0  0
   60.8780   34.2600   51.1340 H   0  0  0  0  0  0  0  0  0  0  0  0
   58.0448   34.9366   46.8487 H   0  0  0  0  0  0  0  0  0  0  0  0
   56.9034   33.7108   45.0089 H   0  0  0  0  0  0  0  0  0  0  0  0
  1  2  2  0
  2  3  1  0
  3  4  1  0
  4  5  2  0
  5  6  1  0
  6  7  1  0
  7  8  2  0
  2  9  1  0
  9 10  1  0
 10 11  2  0
 11 12  1  0
 12 13  2  0
 13 14  1  0
 14 15  2  0
 14 16  1  0
 16 17  1  0
 17 18  2  0
 18 19  1  0
 19 20  2  0
 20 21  1  0
 21 22  2  0
 22 23  1  0
 13 24  1  0
 24 25  2  0
  8  4  1  0
 25 10  1  0
 22 17  1  0
  3 26  1  0
  3 27  1  0
  5 28  1  0
  7 29  1  0
 11 30  1  0
 12 31  1  0
 18 32  1  0
 19 33  1  0
 20 34  1  0
 21 35  1  0
 23 36  1  0
 24 37  1  0
 25 38  1  0
M  CHG  3   6  -1   9  -1  16  -1
M  END
>  <UniqueID>  (81) 
73

>  <SMILES>  (81) 
O=C(Cc1c[n-]cn1)[N-]c1ccc(C(=O)[N-]c2ccccc2O)cc1

>  <Energy>  (81) 
73.80347767827004

>  <Genealogy>  (81) 
O=C(Cc1c[n-]cn1)[N-]c1ccc(C(=O)[N-]c2ccccc2O)cc1 (protonated)
O=C(Cc1c[n-]cn1)[N-]c1ccc(C(=O)[N-]c2ccccc2O)cc1 (3D coordinates assigned)
O=C(Cc1c[n-]cn1)[N-]c1ccc(C(=O)[N-]c2ccccc2O)cc1 (optimized conformer: 73.80347767827004 kcal/mol)

>  <smiles>  (81) 
O=C(Cc1c[nH]cn1)Nc1ccc(C(=O)Nc2ccccc2O)cc1

>  <score_type>  (81) 
oracle

>  <origin>  (81) 
adg

>  <m_score__min__energy>  (81) 
-11.83

>  <m_primary>  (81) 
energy

$$$$
81:0
     RDKit          3D

 32 33  0  0  0  0  0  0  0  0999 V2000
   60.3348   34.8681   44.4562 H   0  0  0  0  0  0  0  0  0  0  0  0
   59.6210   34.5640   45.2360 C   0  0  0  0  0  0  0  0  0  0  0  0
   60.0560   34.3520   46.4830 C   0  0  0  0  0  0  0  0  0  0  0  0
   59.5597   34.8883   47.3052 H   0  0  0  0  0  0  0  0  0  0  0  0
   61.1700   33.4340   46.8170 C   0  0  0  0  0  0  0  0  0  0  0  0
   62.5190   33.8320   46.7220 C   0  0  0  0  0  0  0  0  0  0  0  0
   62.7742   34.8452   46.3780 H   0  0  0  0  0  0  0  0  0  0  0  0
   63.5280   32.9330   47.0670 C   0  0  0  0  0  0  0  0  0  0  0  0
   64.5832   33.2335   46.9884 H   0  0  0  0  0  0  0  0  0  0  0  0
   63.1990   31.6550   47.5110 C   0  0  0  0  0  0  0  0  0  0  0  0
   63.9898   30.9390   47.7793 H   0  0  0  0  0  0  0  0  0  0  0  0
   61.8550   31.2920   47.6120 C   0  0  0  0  0  0  0  0  0  0  0  0
   61.5836   30.2864   47.9657 H   0  0  0  0  0  0  0  0  0  0  0  0
   60.8790   32.1790   47.2740 N   0  0  0  0  0  0  0  0  0  0  0  0
   59.8820   31.8760   47.3630 H   0  0  0  0  0  0  0  0  0  0  0  0
   58.1950   34.3950   44.8930 C   0  0  0  0  0  0  0  0  0  0  0  0
   57.7699   35.0458   44.1147 H   0  0  0  0  0  0  0  0  0  0  0  0
   57.3870   33.4960   45.4730 C   0  0  0  0  0  0  0  0  0  0  0  0
   56.3357   33.7799   45.6286 H   0  0  0  0  0  0  0  0  0  0  0  0
   57.8070   32.1520   45.9180 C   0  0  0  0  0  0  0  0  0  0  0  0
   58.2680   32.0220   47.0820 O   0  0  0  0  0  0  0  0  0  0  0  0
   57.6400   30.9550   45.0700 C   0  0  0  0  0  0  0  0  0  0  0  0
   58.5740   29.5500   45.1400 S   0  0  0  0  0  0  0  0  0  0  0  0
   57.7730   28.7480   43.8990 C   0  0  0  0  0  0  0  0  0  0  0  0
   58.1460   27.4080   43.3620 C   0  0  0  0  0  0  0  0  0  0  0  0
   58.3379   26.7186   44.1974 H   0  0  0  0  0  0  0  0  0  0  0  0
   57.3224   27.0175   42.7462 H   0  0  0  0  0  0  0  0  0  0  0  0
   59.0529   27.4992   42.7462 H   0  0  0  0  0  0  0  0  0  0  0  0
   56.7870   29.5820   43.3860 C   0  0  0  0  0  0  0  0  0  0  0  0
   56.1321   29.3010   42.5481 H   0  0  0  0  0  0  0  0  0  0  0  0
   56.7110   30.8160   44.0430 C   0  0  0  0  0  0  0  0  0  0  0  0
   55.9874   31.5995   43.7737 H   0  0  0  0  0  0  0  0  0  0  0  0
  1  2  1  0
  2  3  2  0
  3  4  1  0
  3  5  1  0
  5  6  2  0
  6  7  1  0
  6  8  1  0
  8  9  1  0
  8 10  2  0
 10 11  1  0
 10 12  1  0
 12 13  1  0
 12 14  2  0
 14 15  1  0
  2 16  1  0
 16 17  1  0
 16 18  2  0
 18 19  1  0
 18 20  1  0
 20 21  2  0
 20 22  1  0
 22 23  1  0
 23 24  1  0
 24 25  1  0
 25 26  1  0
 25 27  1  0
 25 28  1  0
 24 29  2  0
 29 30  1  0
 29 31  1  0
 31 32  1  0
 14  5  1  0
 31 22  2  0
M  CHG  1  14   1
M  END
>  <UniqueID>  (82) 
74

>  <SMILES>  (82) 
Cc1ccc(C(=O)/C=C\C=Cc2cccc[nH+]2)s1

>  <Energy>  (82) 
62.939828591068384

>  <Genealogy>  (82) 
Cc1ccc(C(=O)C=CC=Cc2cccc[nH+]2)s1 (protonated)
Cc1ccc(C(=O)/C=C\C=Cc2cccc[nH+]2)s1 (cis-trans isomerization)
Cc1ccc(C(=O)/C=C\C=Cc2cccc[nH+]2)s1 (3D coordinates assigned)
Cc1ccc(C(=O)/C=C\C=Cc2cccc[nH+]2)s1 (optimized conformer: 62.939828591068384 kcal/mol)

>  <smiles>  (82) 
Cc1ccc(C(=O)C=CC=Cc2ccccn2)s1

>  <score_type>  (82) 
oracle

>  <origin>  (82) 
adg

>  <m_score__min__energy>  (82) 
-5.9400000000000004

>  <m_primary>  (82) 
energy

$$$$
82:0
     RDKit          3D

 39 40  0  0  0  0  0  0  0  0999 V2000
   60.3840   27.5150   48.9400 C   0  0  0  0  0  0  0  0  0  0  0  0
   60.2250   27.0560   47.5220 C   0  0  0  0  0  0  0  0  0  0  0  0
   61.1210   26.3320   47.0110 O   0  0  0  0  0  0  0  0  0  0  0  0
   59.0880   27.5200   46.6930 C   0  0  0  0  0  0  0  0  0  0  0  0
   59.2980   28.5720   45.7890 C   0  0  0  0  0  0  0  0  0  0  0  0
   58.2570   29.0400   44.9720 C   0  0  0  0  0  0  0  0  0  0  0  0
   58.4350   30.1480   44.0780 N   0  0  0  0  0  0  0  0  0  0  0  0
   57.5150   31.6180   44.1210 S   0  0  0  0  0  0  0  0  0  0  0  0
   56.1360   31.3260   44.6390 O   0  0  0  0  0  0  0  0  0  0  0  0
   57.4060   32.1730   42.7270 O   0  0  0  0  0  0  0  0  0  0  0  0
   58.2950   32.7740   45.1980 C   0  0  0  0  0  0  0  0  0  0  0  0
   58.6750   34.0310   44.7080 C   0  0  0  0  0  0  0  0  0  0  0  0
   59.2460   34.9760   45.5650 C   0  0  0  0  0  0  0  0  0  0  0  0
   59.4360   34.6720   46.9160 C   0  0  0  0  0  0  0  0  0  0  0  0
   59.0600   33.4190   47.4110 C   0  0  0  0  0  0  0  0  0  0  0  0
   59.2820   33.0440   49.1100 Cl  0  0  0  0  0  0  0  0  0  0  0  0
   58.4940   32.4690   46.5540 C   0  0  0  0  0  0  0  0  0  0  0  0
   57.0100   28.4170   45.0280 C   0  0  0  0  0  0  0  0  0  0  0  0
   56.7770   27.3560   45.9190 C   0  0  0  0  0  0  0  0  0  0  0  0
   55.4950   26.7120   46.0090 N   0  0  0  0  0  0  0  0  0  0  0  0
   55.1900   25.0150   45.8280 S   0  0  0  0  0  0  0  0  0  0  0  0
   56.1820   24.3510   44.5060 C   0  0  0  0  0  0  0  0  0  0  0  0
   53.7310   24.7790   45.5590 O   0  0  0  0  0  0  0  0  0  0  0  0
   55.5650   24.3190   47.1050 O   0  0  0  0  0  0  0  0  0  0  0  0
   57.8070   26.9230   46.7710 C   0  0  0  0  0  0  0  0  0  0  0  0
   57.5150   25.9190   47.6980 O   0  0  0  0  0  0  0  0  0  0  0  0
   60.1018   26.7002   49.6230 H   0  0  0  0  0  0  0  0  0  0  0  0
   61.4321   27.7968   49.1188 H   0  0  0  0  0  0  0  0  0  0  0  0
   59.7348   28.3848   49.1188 H   0  0  0  0  0  0  0  0  0  0  0  0
   60.2926   29.0367   45.7194 H   0  0  0  0  0  0  0  0  0  0  0  0
   58.5234   34.2744   43.6460 H   0  0  0  0  0  0  0  0  0  0  0  0
   59.5462   35.9601   45.1758 H   0  0  0  0  0  0  0  0  0  0  0  0
   59.8814   35.4184   47.5902 H   0  0  0  0  0  0  0  0  0  0  0  0
   58.2045   31.4817   46.9431 H   0  0  0  0  0  0  0  0  0  0  0  0
   56.2003   28.7603   44.3673 H   0  0  0  0  0  0  0  0  0  0  0  0
   57.0259   23.7862   44.9289 H   0  0  0  0  0  0  0  0  0  0  0  0
   55.5668   23.6820   43.8863 H   0  0  0  0  0  0  0  0  0  0  0  0
   56.5660   25.1748   43.8863 H   0  0  0  0  0  0  0  0  0  0  0  0
   56.6400   25.4110   47.7150 H   0  0  0  0  0  0  0  0  0  0  0  0
  1  2  1  0
  2  3  2  0
  2  4  1  0
  4  5  2  0
  5  6  1  0
  6  7  1  0
  7  8  1  0
  8  9  2  0
  8 10  2  0
  8 11  1  0
 11 12  2  0
 12 13  1  0
 13 14  2  0
 14 15  1  0
 15 16  1  0
 15 17  2  0
  6 18  2  0
 18 19  1  0
 19 20  1  0
 20 21  1  0
 21 22  1  0
 21 23  2  0
 21 24  2  0
 19 25  2  0
 25 26  1  0
 25  4  1  0
 17 11  1  0
  1 27  1  0
  1 28  1  0
  1 29  1  0
  5 30  1  0
 12 31  1  0
 13 32  1  0
 14 33  1  0
 17 34  1  0
 18 35  1  0
 22 36  1  0
 22 37  1  0
 22 38  1  0
 26 39  1  0
M  CHG  2   7  -1  20  -1
M  END
>  <UniqueID>  (83) 
75

>  <SMILES>  (83) 
CC(=O)c1cc([N-]S(=O)(=O)c2cccc(Cl)c2)cc([N-]S(C)(=O)=O)c1O

>  <Energy>  (83) 
45.03967728272453

>  <Genealogy>  (83) 
CC(=O)c1cc([N-]S(=O)(=O)c2cccc(Cl)c2)cc([N-]S(C)(=O)=O)c1O (protonated)
CC(=O)c1cc([N-]S(=O)(=O)c2cccc(Cl)c2)cc([N-]S(C)(=O)=O)c1O (3D coordinates assigned)
CC(=O)c1cc([N-]S(=O)(=O)c2cccc(Cl)c2)cc([N-]S(C)(=O)=O)c1O (optimized conformer: 45.03967728272453 kcal/mol)

>  <smiles>  (83) 
CC(=O)c1cc(NS(=O)(=O)c2cccc(Cl)c2)cc(NS(C)(=O)=O)c1O

>  <score_type>  (83) 
oracle

>  <origin>  (83) 
adg

>  <m_score__min__energy>  (83) 
-12

>  <m_primary>  (83) 
energy

$$$$
83:0
     RDKit          3D

 69 74  0  0  0  0  0  0  0  0999 V2000
   60.5060   28.3460   47.7120 O   0  0  0  0  0  0  0  0  0  0  0  0
   60.0660   29.4670   47.5100 C   0  0  0  0  0  0  0  0  0  0  0  0
   59.5940   30.3000   48.6830 C   0  0  0  0  0  0  0  0  0  0  0  0
   59.3810   29.4650   49.9620 C   0  0  0  0  0  0  0  0  0  0  0  0
   58.8860   30.3000   51.1250 C   0  0  0  0  0  0  0  0  0  0  0  0
   57.4970   30.4090   51.3240 C   0  0  0  0  0  0  0  0  0  0  0  0
   56.9790   31.2320   52.3230 C   0  0  0  0  0  0  0  0  0  0  0  0
   57.8410   31.9490   53.1510 C   0  0  0  0  0  0  0  0  0  0  0  0
   59.2240   31.8480   52.9820 C   0  0  0  0  0  0  0  0  0  0  0  0
   59.7660   31.0260   51.9750 C   0  0  0  0  0  0  0  0  0  0  0  0
   61.2720   30.9140   51.8890 C   0  0  0  0  0  0  0  0  0  0  0  0
   61.7850   31.5590   50.6340 C   0  0  0  0  0  0  0  0  0  0  0  0
   61.8030   32.9330   50.3840 C   0  0  0  0  0  0  0  0  0  0  0  0
   62.4190   33.0590   49.1550 C   0  0  0  0  0  0  0  0  0  0  0  0
   62.7360   34.1970   48.4140 C   0  0  0  0  0  0  0  0  0  0  0  0
   63.4120   34.0130   47.1910 C   0  0  0  0  0  0  0  0  0  0  0  0
   63.7500   32.7160   46.7470 C   0  0  0  0  0  0  0  0  0  0  0  0
   63.4070   31.5830   47.5130 C   0  0  0  0  0  0  0  0  0  0  0  0
   62.7420   31.7960   48.7210 C   0  0  0  0  0  0  0  0  0  0  0  0
   62.3510   30.8710   49.6110 N   0  0  0  0  0  0  0  0  0  0  0  0
   59.9840   29.9950   46.1000 C   0  0  0  0  0  0  0  0  0  0  0  0
   58.5890   30.2990   45.7480 N   0  0  0  0  0  0  0  0  0  0  0  0
   57.6210   29.4450   45.3370 C   0  0  0  0  0  0  0  0  0  0  0  0
   57.7430   27.9420   45.2940 C   0  0  0  0  0  0  0  0  0  0  0  0
   57.8940   27.3640   46.7060 C   0  0  0  0  0  0  0  0  0  0  0  0
   57.1980   26.0430   46.8390 C   0  0  0  0  0  0  0  0  0  0  0  0
   57.7960   24.9060   47.2610 N   0  0  0  0  0  0  0  0  0  0  0  0
   56.8050   23.9870   47.1800 C   0  0  0  0  0  0  0  0  0  0  0  0
   56.9670   22.7800   47.5040 O   0  0  0  0  0  0  0  0  0  0  0  0
   55.6260   24.4640   46.7160 N   0  0  0  0  0  0  0  0  0  0  0  0
   55.8940   25.7650   46.4970 C   0  0  0  0  0  0  0  0  0  0  0  0
   54.9730   26.6700   45.9860 O   0  0  0  0  0  0  0  0  0  0  0  0
   56.5020   30.1080   44.9650 N   0  0  0  0  0  0  0  0  0  0  0  0
   56.7460   31.4000   45.1140 N   0  0  0  0  0  0  0  0  0  0  0  0
   58.0120   31.5120   45.5840 C   0  0  0  0  0  0  0  0  0  0  0  0
   58.6360   32.8100   45.8970 C   0  0  0  0  0  0  0  0  0  0  0  0
   59.0820   33.6410   44.8530 C   0  0  0  0  0  0  0  0  0  0  0  0
   59.6290   34.8920   45.1330 C   0  0  0  0  0  0  0  0  0  0  0  0
   59.7100   35.3450   46.4520 C   0  0  0  0  0  0  0  0  0  0  0  0
   59.2540   34.5360   47.5040 C   0  0  0  0  0  0  0  0  0  0  0  0
   59.2990   35.0410   48.8050 O   0  0  0  0  0  0  0  0  0  0  0  0
   58.7450   33.2550   47.2360 C   0  0  0  0  0  0  0  0  0  0  0  0
   58.3100   32.4460   48.2850 O   0  0  0  0  0  0  0  0  0  0  0  0
   60.3476   31.0741   48.8901 H   0  0  0  0  0  0  0  0  0  0  0  0
   58.6233   30.7385   48.4084 H   0  0  0  0  0  0  0  0  0  0  0  0
   58.6401   28.6797   49.7512 H   0  0  0  0  0  0  0  0  0  0  0  0
   60.3535   29.0378   50.2477 H   0  0  0  0  0  0  0  0  0  0  0  0
   56.8106   29.8369   50.6824 H   0  0  0  0  0  0  0  0  0  0  0  0
   55.8905   31.3155   52.4577 H   0  0  0  0  0  0  0  0  0  0  0  0
   57.4310   32.5965   53.9401 H   0  0  0  0  0  0  0  0  0  0  0  0
   59.8962   32.4160   53.6419 H   0  0  0  0  0  0  0  0  0  0  0  0
   61.7209   31.4134   52.7603 H   0  0  0  0  0  0  0  0  0  0  0  0
   61.5455   29.8487   51.8745 H   0  0  0  0  0  0  0  0  0  0  0  0
   61.4125   33.7372   51.0249 H   0  0  0  0  0  0  0  0  0  0  0  0
   62.4681   35.2023   48.7712 H   0  0  0  0  0  0  0  0  0  0  0  0
   63.6783   34.8865   46.5777 H   0  0  0  0  0  0  0  0  0  0  0  0
   64.2858   32.5883   45.7948 H   0  0  0  0  0  0  0  0  0  0  0  0
   63.6548   30.5675   47.1705 H   0  0  0  0  0  0  0  0  0  0  0  0
   62.4790   29.8370   49.5440 H   0  0  0  0  0  0  0  0  0  0  0  0
   60.5862   30.9121   46.0206 H   0  0  0  0  0  0  0  0  0  0  0  0
   60.3683   29.2302   45.4091 H   0  0  0  0  0  0  0  0  0  0  0  0
   56.8404   27.5208   44.8272 H   0  0  0  0  0  0  0  0  0  0  0  0
   58.6369   27.6788   44.7094 H   0  0  0  0  0  0  0  0  0  0  0  0
   58.9636   27.2274   46.9233 H   0  0  0  0  0  0  0  0  0  0  0  0
   57.4355   28.0675   47.4165 H   0  0  0  0  0  0  0  0  0  0  0  0
   58.9985   33.3015   43.8100 H   0  0  0  0  0  0  0  0  0  0  0  0
   59.9982   35.5248   44.3125 H   0  0  0  0  0  0  0  0  0  0  0  0
   60.1321   36.3379   46.6664 H   0  0  0  0  0  0  0  0  0  0  0  0
   59.0480   34.4760   49.6130 H   0  0  0  0  0  0  0  0  0  0  0  0
  1  2  2  0
  2  3  1  0
  3  4  1  0
  4  5  1  0
  5  6  2  0
  6  7  1  0
  7  8  2  0
  8  9  1  0
  9 10  2  0
 10 11  1  0
 11 12  1  0
 12 13  2  0
 13 14  1  0
 14 15  2  0
 15 16  1  0
 16 17  2  0
 17 18  1  0
 18 19  2  0
 19 20  1  0
  2 21  1  0
 21 22  1  0
 22 23  1  0
 23 24  1  0
 24 25  1  0
 25 26  1  0
 26 27  1  0
 27 28  1  0
 28 29  2  0
 28 30  1  0
 30 31  1  0
 31 32  1  0
 23 33  2  0
 33 34  1  0
 34 35  2  0
 35 36  1  0
 36 37  2  0
 37 38  1  0
 38 39  2  0
 39 40  1  0
 40 41  1  0
 40 42  2  0
 42 43  1  0
 10  5  1  0
 20 12  1  0
 35 22  1  0
 42 36  1  0
 19 14  1  0
 31 26  2  0
  3 44  1  0
  3 45  1  0
  4 46  1  0
  4 47  1  0
  6 48  1  0
  7 49  1  0
  8 50  1  0
  9 51  1  0
 11 52  1  0
 11 53  1  0
 13 54  1  0
 15 55  1  0
 16 56  1  0
 17 57  1  0
 18 58  1  0
 20 59  1  0
 21 60  1  0
 21 61  1  0
 24 62  1  0
 24 63  1  0
 25 64  1  0
 25 65  1  0
 37 66  1  0
 38 67  1  0
 39 68  1  0
 41 69  1  0
M  CHG  4  27  -1  30  -1  32  -1  43  -1
M  END
>  <UniqueID>  (84) 
76

>  <SMILES>  (84) 
O=C(CCc1ccccc1Cc1cc2ccccc2[nH]1)Cn1c(CCc2[n-]c(=O)[n-]c2[O-])nnc1-c1cccc(O)c1[O-]

>  <Energy>  (84) 
169.1557577905299

>  <Genealogy>  (84) 
O=C(CCc1ccccc1Cc1cc2ccccc2[nH]1)Cn1c(CCc2[n-]c(=O)[n-]c2[O-])nnc1-c1cccc(O)c1[O-] (protonated)
O=C(CCc1ccccc1Cc1cc2ccccc2[nH]1)Cn1c(CCc2[n-]c(=O)[n-]c2[O-])nnc1-c1cccc(O)c1[O-] (3D coordinates assigned)
O=C(CCc1ccccc1Cc1cc2ccccc2[nH]1)Cn1c(CCc2[n-]c(=O)[n-]c2[O-])nnc1-c1cccc(O)c1[O-] (optimized conformer: 169.1557577905299 kcal/mol)

>  <smiles>  (84) 
O=C(CCc1ccccc1Cc1cc2ccccc2[nH]1)Cn1c(CCc2[nH]c(=O)[nH]c2O)nnc1-c1cccc(O)c1O

>  <score_type>  (84) 
oracle

>  <origin>  (84) 
adg

>  <m_score__min__energy>  (84) 
-20.760000000000002

>  <m_primary>  (84) 
energy

$$$$
84:0
     RDKit          3D

 59 62  0  0  0  0  0  0  0  0999 V2000
   65.3970   33.8210   50.8840 C   0  0  0  0  0  0  0  0  0  0  0  0
   64.8120   32.6540   50.1430 C   0  0  0  0  0  0  0  0  0  0  0  0
   65.5750   31.7040   49.8210 O   0  0  0  0  0  0  0  0  0  0  0  0
   63.4010   32.5830   49.8440 N   0  0  0  0  0  0  0  0  0  0  0  0
   62.9030   31.5570   48.9160 C   0  0  0  0  0  0  0  0  0  0  0  0
   61.7110   32.0930   48.1140 C   0  0  0  0  0  0  0  0  0  0  0  0
   60.6940   32.6940   48.9910 N   0  0  0  0  0  0  0  0  0  0  0  0
   59.3210   32.7520   48.5550 C   0  0  0  0  0  0  0  0  0  0  0  0
   58.3930   32.5490   49.3870 O   0  0  0  0  0  0  0  0  0  0  0  0
   58.9700   33.0310   47.1470 C   0  0  0  0  0  0  0  0  0  0  0  0
   58.6970   34.3420   46.7230 C   0  0  0  0  0  0  0  0  0  0  0  0
   58.3580   34.5970   45.3910 C   0  0  0  0  0  0  0  0  0  0  0  0
   58.2800   33.5460   44.4740 C   0  0  0  0  0  0  0  0  0  0  0  0
   58.5290   32.2270   44.8840 C   0  0  0  0  0  0  0  0  0  0  0  0
   58.5070   31.1070   43.8820 C   0  0  0  0  0  0  0  0  0  0  0  0
   57.5270   30.0600   44.3080 C   0  0  0  0  0  0  0  0  0  0  0  0
   56.1410   30.1850   44.2820 C   0  0  0  0  0  0  0  0  0  0  0  0
   55.4640   29.1290   44.8080 N   0  0  0  0  0  0  0  0  0  0  0  0
   56.3010   28.1650   45.2510 C   0  0  0  0  0  0  0  0  0  0  0  0
   55.8590   27.0840   45.8230 N   0  0  0  0  0  0  0  0  0  0  0  0
   56.6150   25.9080   46.1530 C   0  0  0  0  0  0  0  0  0  0  0  0
   56.3580   25.2410   47.1930 O   0  0  0  0  0  0  0  0  0  0  0  0
   57.7980   25.5490   45.3030 C   0  0  0  0  0  0  0  0  0  0  0  0
   57.7050   24.1410   44.7740 C   0  0  0  0  0  0  0  0  0  0  0  0
   58.5450   23.1320   45.2790 C   0  0  0  0  0  0  0  0  0  0  0  0
   58.4530   21.8280   44.7890 C   0  0  0  0  0  0  0  0  0  0  0  0
   57.5130   21.5150   43.8020 C   0  0  0  0  0  0  0  0  0  0  0  0
   56.6600   22.5090   43.3010 C   0  0  0  0  0  0  0  0  0  0  0  0
   55.7080   22.2050   42.3280 O   0  0  0  0  0  0  0  0  0  0  0  0
   56.7600   23.8180   43.7850 C   0  0  0  0  0  0  0  0  0  0  0  0
   57.9200   28.5880   45.0210 S   0  0  0  0  0  0  0  0  0  0  0  0
   58.8740   31.9760   46.2230 C   0  0  0  0  0  0  0  0  0  0  0  0
   61.0050   32.9600   50.4020 C   0  0  0  0  0  0  0  0  0  0  0  0
   62.4500   33.4490   50.5590 C   0  0  0  0  0  0  0  0  0  0  0  0
   65.3105   33.6484   51.9669 H   0  0  0  0  0  0  0  0  0  0  0  0
   66.4575   33.9324   50.6140 H   0  0  0  0  0  0  0  0  0  0  0  0
   64.8517   34.7374   50.6140 H   0  0  0  0  0  0  0  0  0  0  0  0
   63.7086   31.2744   48.2223 H   0  0  0  0  0  0  0  0  0  0  0  0
   62.5773   30.6805   49.4954 H   0  0  0  0  0  0  0  0  0  0  0  0
   62.0700   32.8566   47.4083 H   0  0  0  0  0  0  0  0  0  0  0  0
   61.2492   31.2499   47.5794 H   0  0  0  0  0  0  0  0  0  0  0  0
   58.7502   35.1722   47.4427 H   0  0  0  0  0  0  0  0  0  0  0  0
   58.1523   35.6270   45.0643 H   0  0  0  0  0  0  0  0  0  0  0  0
   58.0220   33.7533   43.4250 H   0  0  0  0  0  0  0  0  0  0  0  0
   58.2128   31.5032   42.8989 H   0  0  0  0  0  0  0  0  0  0  0  0
   59.5097   30.6592   43.8183 H   0  0  0  0  0  0  0  0  0  0  0  0
   55.6329   31.0686   43.8684 H   0  0  0  0  0  0  0  0  0  0  0  0
   57.8492   26.2453   44.4530 H   0  0  0  0  0  0  0  0  0  0  0  0
   58.7002   25.6186   45.9285 H   0  0  0  0  0  0  0  0  0  0  0  0
   59.2778   23.3715   46.0636 H   0  0  0  0  0  0  0  0  0  0  0  0
   59.1206   21.0459   45.1797 H   0  0  0  0  0  0  0  0  0  0  0  0
   57.4425   20.4867   43.4177 H   0  0  0  0  0  0  0  0  0  0  0  0
   55.8680   22.4120   41.3490 H   0  0  0  0  0  0  0  0  0  0  0  0
   56.0947   24.5994   43.3889 H   0  0  0  0  0  0  0  0  0  0  0  0
   59.0707   30.9446   46.5510 H   0  0  0  0  0  0  0  0  0  0  0  0
   60.3199   33.7317   50.7829 H   0  0  0  0  0  0  0  0  0  0  0  0
   60.8852   32.0264   50.9712 H   0  0  0  0  0  0  0  0  0  0  0  0
   62.5261   34.4699   50.1565 H   0  0  0  0  0  0  0  0  0  0  0  0
   62.7044   33.4258   51.6289 H   0  0  0  0  0  0  0  0  0  0  0  0
  1  2  1  0
  2  3  2  0
  2  4  1  0
  4  5  1  0
  5  6  1  0
  6  7  1  0
  7  8  1  0
  8  9  2  0
  8 10  1  0
 10 11  2  0
 11 12  1  0
 12 13  2  0
 13 14  1  0
 14 15  1  0
 15 16  1  0
 16 17  2  0
 17 18  1  0
 18 19  1  0
 19 20  2  3
 20 21  1  0
 21 22  2  0
 21 23  1  0
 23 24  1  0
 24 25  2  0
 25 26  1  0
 26 27  2  0
 27 28  1  0
 28 29  1  0
 28 30  2  0
 19 31  1  0
 14 32  2  0
  7 33  1  0
 33 34  1  0
 34  4  1  0
 32 10  1  0
 31 16  1  0
 30 24  1  0
  1 35  1  0
  1 36  1  0
  1 37  1  0
  5 38  1  0
  5 39  1  0
  6 40  1  0
  6 41  1  0
 11 42  1  0
 12 43  1  0
 13 44  1  0
 15 45  1  0
 15 46  1  0
 17 47  1  0
 23 48  1  0
 23 49  1  0
 25 50  1  0
 26 51  1  0
 27 52  1  0
 29 53  1  0
 30 54  1  0
 32 55  1  0
 33 56  1  0
 33 57  1  0
 34 58  1  0
 34 59  1  0
M  CHG  1  18  -1
M  END
>  <UniqueID>  (85) 
77

>  <SMILES>  (85) 
CC(=O)N1CCN(C(=O)c2cccc(Cc3c[n-]c(=NC(=O)Cc4cccc(O)c4)s3)c2)CC1

>  <Energy>  (85) 
97.04233775640432

>  <Genealogy>  (85) 
CC(=O)N1CCN(C(=O)c2cccc(Cc3c[n-]c(=NC(=O)Cc4cccc(O)c4)s3)c2)CC1 (protonated)
CC(=O)N1CCN(C(=O)c2cccc(Cc3c[n-]c(=NC(=O)Cc4cccc(O)c4)s3)c2)CC1 (3D coordinates assigned)
CC(=O)N1CCN(C(=O)c2cccc(Cc3c[n-]c(=NC(=O)Cc4cccc(O)c4)s3)c2)CC1 (nonaromatic ring conformer: 97.04233775640432 kcal/mol)

>  <smiles>  (85) 
CC(=O)N1CCN(C(=O)c2cccc(Cc3c[nH]c(=NC(=O)Cc4cccc(O)c4)s3)c2)CC1

>  <score_type>  (85) 
oracle

>  <origin>  (85) 
adg

>  <m_score__min__energy>  (85) 
-13.17

>  <m_primary>  (85) 
energy

$$$$
85:0
     RDKit          3D

 56 59  0  0  0  0  0  0  0  0999 V2000
   59.5480   34.2690   48.0950 C   0  0  0  0  0  0  0  0  0  0  0  0
   58.5560   33.2450   48.0950 O   0  0  0  0  0  0  0  0  0  0  0  0
   58.2410   32.4510   46.9840 C   0  0  0  0  0  0  0  0  0  0  0  0
   57.4060   32.9860   45.9970 C   0  0  0  0  0  0  0  0  0  0  0  0
   57.0650   32.2310   44.8710 C   0  0  0  0  0  0  0  0  0  0  0  0
   57.5570   30.9330   44.7180 C   0  0  0  0  0  0  0  0  0  0  0  0
   58.3960   30.3750   45.6970 C   0  0  0  0  0  0  0  0  0  0  0  0
   58.9200   29.0440   45.5300 N   0  0  0  0  0  0  0  0  0  0  0  0
   59.0450   28.1610   46.7010 C   0  0  0  0  0  0  0  0  0  0  0  0
   59.4150   26.7320   46.2870 C   0  0  0  0  0  0  0  0  0  0  0  0
   58.5970   26.3190   45.1350 N   0  0  0  0  0  0  0  0  0  0  0  0
   57.8930   25.0580   45.1040 C   0  0  0  0  0  0  0  0  0  0  0  0
   57.6060   24.5440   43.9890 O   0  0  0  0  0  0  0  0  0  0  0  0
   57.4990   24.3490   46.3800 C   0  0  0  0  0  0  0  0  0  0  0  0
   56.9560   23.0000   46.1420 N   0  0  0  0  0  0  0  0  0  0  0  0
   57.8770   21.9540   45.7470 C   0  0  0  0  0  0  0  0  0  0  0  0
   58.8470   22.2070   44.9830 O   0  0  0  0  0  0  0  0  0  0  0  0
   57.7270   20.5660   46.2960 C   0  0  0  0  0  0  0  0  0  0  0  0
   57.3460   20.7010   48.0710 S   0  0  0  0  0  0  0  0  0  0  0  0
   55.7940   21.5510   47.7580 C   0  0  0  0  0  0  0  0  0  0  0  0
   54.6390   21.1130   48.4100 C   0  0  0  0  0  0  0  0  0  0  0  0
   53.4230   21.7480   48.1750 C   0  0  0  0  0  0  0  0  0  0  0  0
   53.3430   22.7890   47.2530 C   0  0  0  0  0  0  0  0  0  0  0  0
   54.4800   23.2120   46.5410 C   0  0  0  0  0  0  0  0  0  0  0  0
   54.2500   24.3800   45.2270 S   0  0  0  0  0  0  0  0  0  0  0  0
   55.1110   23.8630   43.8190 N   0  0  0  0  0  0  0  0  0  0  0  0
   54.7250   25.7380   45.6560 O   0  0  0  0  0  0  0  0  0  0  0  0
   52.7910   24.4750   44.8710 O   0  0  0  0  0  0  0  0  0  0  0  0
   55.7380   22.6100   46.8250 C   0  0  0  0  0  0  0  0  0  0  0  0
   58.5140   27.2020   43.9570 C   0  0  0  0  0  0  0  0  0  0  0  0
   59.2460   28.5300   44.1910 C   0  0  0  0  0  0  0  0  0  0  0  0
   58.7380   31.1410   46.8280 C   0  0  0  0  0  0  0  0  0  0  0  0
   59.8031   34.5324   49.1321 H   0  0  0  0  0  0  0  0  0  0  0  0
   60.4482   33.9074   47.5765 H   0  0  0  0  0  0  0  0  0  0  0  0
   59.1580   35.1573   47.5765 H   0  0  0  0  0  0  0  0  0  0  0  0
   57.0150   34.0082   46.1079 H   0  0  0  0  0  0  0  0  0  0  0  0
   56.4063   32.6611   44.1022 H   0  0  0  0  0  0  0  0  0  0  0  0
   57.2867   30.3456   43.8281 H   0  0  0  0  0  0  0  0  0  0  0  0
   59.8284   28.5555   47.3647 H   0  0  0  0  0  0  0  0  0  0  0  0
   58.0743   28.1314   47.2175 H   0  0  0  0  0  0  0  0  0  0  0  0
   60.4792   26.6957   46.0110 H   0  0  0  0  0  0  0  0  0  0  0  0
   59.2271   26.0497   47.1291 H   0  0  0  0  0  0  0  0  0  0  0  0
   58.3881   24.2613   47.0218 H   0  0  0  0  0  0  0  0  0  0  0  0
   56.7068   24.9443   46.8574 H   0  0  0  0  0  0  0  0  0  0  0  0
   56.9084   20.0458   45.7770 H   0  0  0  0  0  0  0  0  0  0  0  0
   58.6546   19.9938   46.1468 H   0  0  0  0  0  0  0  0  0  0  0  0
   54.6905   20.2657   49.1096 H   0  0  0  0  0  0  0  0  0  0  0  0
   52.5225   21.4268   48.7190 H   0  0  0  0  0  0  0  0  0  0  0  0
   52.3777   23.2870   47.0793 H   0  0  0  0  0  0  0  0  0  0  0  0
   55.5460   24.7150   43.3950 H   0  0  0  0  0  0  0  0  0  0  0  0
   55.8960   23.2550   44.1430 H   0  0  0  0  0  0  0  0  0  0  0  0
   58.9690   26.6911   43.0956 H   0  0  0  0  0  0  0  0  0  0  0  0
   57.4532   27.4236   43.7684 H   0  0  0  0  0  0  0  0  0  0  0  0
   60.3314   28.3680   44.1153 H   0  0  0  0  0  0  0  0  0  0  0  0
   58.9289   29.2605   43.4322 H   0  0  0  0  0  0  0  0  0  0  0  0
   59.3987   30.7135   47.5965 H   0  0  0  0  0  0  0  0  0  0  0  0
  1  2  1  0
  2  3  1  0
  3  4  2  0
  4  5  1  0
  5  6  2  0
  6  7  1  0
  7  8  1  0
  8  9  1  0
  9 10  1  0
 10 11  1  0
 11 12  1  0
 12 13  2  0
 12 14  1  0
 14 15  1  0
 15 16  1  0
 16 17  2  0
 16 18  1  0
 18 19  1  0
 19 20  1  0
 20 21  2  0
 21 22  1  0
 22 23  2  0
 23 24  1  0
 24 25  1  0
 25 26  1  0
 25 27  2  0
 25 28  2  0
 24 29  2  0
 11 30  1  0
 30 31  1  0
  7 32  2  0
 32  3  1  0
 31  8  1  0
 29 15  1  0
 29 20  1  0
  1 33  1  0
  1 34  1  0
  1 35  1  0
  4 36  1  0
  5 37  1  0
  6 38  1  0
  9 39  1  0
  9 40  1  0
 10 41  1  0
 10 42  1  0
 14 43  1  0
 14 44  1  0
 18 45  1  0
 18 46  1  0
 21 47  1  0
 22 48  1  0
 23 49  1  0
 26 50  1  0
 26 51  1  0
 30 52  1  0
 30 53  1  0
 31 54  1  0
 31 55  1  0
 32 56  1  0
M  END
>  <UniqueID>  (86) 
78

>  <SMILES>  (86) 
COc1cccc(N2CCN(C(=O)CN3C(=O)CSc4cccc(S(N)(=O)=O)c43)CC2)c1

>  <Energy>  (86) 
76.38166003396226

>  <Genealogy>  (86) 
COc1cccc(N2CCN(C(=O)CN3C(=O)CSc4cccc(S(N)(=O)=O)c43)CC2)c1 (3D coordinates assigned)
COc1cccc(N2CCN(C(=O)CN3C(=O)CSc4cccc(S(N)(=O)=O)c43)CC2)c1 (nonaromatic ring conformer: 76.38166003396226 kcal/mol)

>  <smiles>  (86) 
COc1cccc(N2CCN(C(=O)CN3C(=O)CSc4cccc(S(N)(=O)=O)c43)CC2)c1

>  <score_type>  (86) 
oracle

>  <origin>  (86) 
adg

>  <m_score__min__energy>  (86) 
-9.3200000000000003

>  <m_primary>  (86) 
energy

$$$$
86:0
     RDKit          3D

 56 58  0  0  0  0  0  0  0  0999 V2000
   57.8650   33.5760   52.2840 O   0  0  0  0  0  0  0  0  0  0  0  0
   58.8580   33.0700   51.7020 C   0  0  0  0  0  0  0  0  0  0  0  0
   60.1890   33.0450   52.4020 C   0  0  0  0  0  0  0  0  0  0  0  0
   61.1930   32.3810   51.5730 N   0  0  0  0  0  0  0  0  0  0  0  0
   62.5990   32.5990   51.7440 C   0  0  0  0  0  0  0  0  0  0  0  0
   63.0150   33.3920   52.6320 O   0  0  0  0  0  0  0  0  0  0  0  0
   63.5820   31.8900   50.8640 C   0  0  0  0  0  0  0  0  0  0  0  0
   63.3600   32.2550   49.4250 C   0  0  0  0  0  0  0  0  0  0  0  0
   63.9780   33.3910   48.8780 C   0  0  0  0  0  0  0  0  0  0  0  0
   63.7560   33.7400   47.5430 C   0  0  0  0  0  0  0  0  0  0  0  0
   62.9190   32.9560   46.7450 C   0  0  0  0  0  0  0  0  0  0  0  0
   62.2910   31.8320   47.2830 C   0  0  0  0  0  0  0  0  0  0  0  0
   62.5070   31.4820   48.6190 C   0  0  0  0  0  0  0  0  0  0  0  0
   58.6830   32.4970   50.4000 N   0  0  0  0  0  0  0  0  0  0  0  0
   59.0730   33.1010   49.1590 C   0  0  0  0  0  0  0  0  0  0  0  0
   60.0670   34.0940   49.1100 C   0  0  0  0  0  0  0  0  0  0  0  0
   60.4110   34.6820   47.8910 C   0  0  0  0  0  0  0  0  0  0  0  0
   59.7620   34.2930   46.7160 C   0  0  0  0  0  0  0  0  0  0  0  0
   58.7620   33.3130   46.7570 C   0  0  0  0  0  0  0  0  0  0  0  0
   57.9360   32.8200   45.2810 S   0  0  0  0  0  0  0  0  0  0  0  0
   56.7020   33.6570   45.0880 O   0  0  0  0  0  0  0  0  0  0  0  0
   58.8610   33.0610   44.1200 O   0  0  0  0  0  0  0  0  0  0  0  0
   57.5000   31.1260   45.3400 N   0  0  0  0  0  0  0  0  0  0  0  0
   56.9690   30.7210   44.0230 C   0  0  0  0  0  0  0  0  0  0  0  0
   56.2250   29.3750   44.0720 C   0  0  0  0  0  0  0  0  0  0  0  0
   57.1310   28.2240   44.5350 C   0  0  0  0  0  0  0  0  0  0  0  0
   58.6010   28.3540   44.0960 C   0  0  0  0  0  0  0  0  0  0  0  0
   59.3050   29.6600   44.4950 C   0  0  0  0  0  0  0  0  0  0  0  0
   58.6930   30.3440   45.7240 C   0  0  0  0  0  0  0  0  0  0  0  0
   58.4090   32.7330   47.9830 C   0  0  0  0  0  0  0  0  0  0  0  0
   60.5113   34.0773   52.6031 H   0  0  0  0  0  0  0  0  0  0  0  0
   60.0835   32.4891   53.3453 H   0  0  0  0  0  0  0  0  0  0  0  0
   60.8710   31.7040   50.8440 H   0  0  0  0  0  0  0  0  0  0  0  0
   64.6026   32.1774   51.1568 H   0  0  0  0  0  0  0  0  0  0  0  0
   63.4448   30.8048   50.9804 H   0  0  0  0  0  0  0  0  0  0  0  0
   64.6397   34.0089   49.5028 H   0  0  0  0  0  0  0  0  0  0  0  0
   64.2406   34.6325   47.1203 H   0  0  0  0  0  0  0  0  0  0  0  0
   62.7548   33.2252   45.6911 H   0  0  0  0  0  0  0  0  0  0  0  0
   61.6256   31.2210   46.6554 H   0  0  0  0  0  0  0  0  0  0  0  0
   62.0071   30.5977   49.0412 H   0  0  0  0  0  0  0  0  0  0  0  0
   60.5748   34.4084   50.0337 H   0  0  0  0  0  0  0  0  0  0  0  0
   61.1946   35.4532   47.8555 H   0  0  0  0  0  0  0  0  0  0  0  0
   60.0369   34.7572   45.7574 H   0  0  0  0  0  0  0  0  0  0  0  0
   56.2721   31.4959   43.6710 H   0  0  0  0  0  0  0  0  0  0  0  0
   57.8243   30.6036   43.3413 H   0  0  0  0  0  0  0  0  0  0  0  0
   55.3802   29.4631   44.7709 H   0  0  0  0  0  0  0  0  0  0  0  0
   55.8813   29.1434   43.0531 H   0  0  0  0  0  0  0  0  0  0  0  0
   57.1026   28.1848   45.6339 H   0  0  0  0  0  0  0  0  0  0  0  0
   56.7425   27.3098   44.0624 H   0  0  0  0  0  0  0  0  0  0  0  0
   59.1614   27.5188   44.5415 H   0  0  0  0  0  0  0  0  0  0  0  0
   58.5861   28.3466   42.9961 H   0  0  0  0  0  0  0  0  0  0  0  0
   60.3589   29.4329   44.7136 H   0  0  0  0  0  0  0  0  0  0  0  0
   59.1900   30.3561   43.6511 H   0  0  0  0  0  0  0  0  0  0  0  0
   58.4028   29.5777   46.4579 H   0  0  0  0  0  0  0  0  0  0  0  0
   59.4389   31.0242   46.1611 H   0  0  0  0  0  0  0  0  0  0  0  0
   57.6047   31.9835   48.0214 H   0  0  0  0  0  0  0  0  0  0  0  0
  1  2  2  0
  2  3  1  0
  3  4  1  0
  4  5  1  0
  5  6  2  0
  5  7  1  0
  7  8  1  0
  8  9  2  0
  9 10  1  0
 10 11  2  0
 11 12  1  0
 12 13  2  0
  2 14  1  0
 14 15  1  0
 15 16  2  0
 16 17  1  0
 17 18  2  0
 18 19  1  0
 19 20  1  0
 20 21  2  0
 20 22  2  0
 20 23  1  0
 23 24  1  0
 24 25  1  0
 25 26  1  0
 26 27  1  0
 27 28  1  0
 28 29  1  0
 19 30  2  0
 13  8  1  0
 30 15  1  0
 29 23  1  0
  3 31  1  0
  3 32  1  0
  4 33  1  0
  7 34  1  0
  7 35  1  0
  9 36  1  0
 10 37  1  0
 11 38  1  0
 12 39  1  0
 13 40  1  0
 16 41  1  0
 17 42  1  0
 18 43  1  0
 24 44  1  0
 24 45  1  0
 25 46  1  0
 25 47  1  0
 26 48  1  0
 26 49  1  0
 27 50  1  0
 27 51  1  0
 28 52  1  0
 28 53  1  0
 29 54  1  0
 29 55  1  0
 30 56  1  0
M  CHG  1  14  -1
M  END
>  <UniqueID>  (87) 
79

>  <SMILES>  (87) 
O=C(CNC(=O)Cc1ccccc1)[N-]c1cccc(S(=O)(=O)N2CCCCCC2)c1

>  <Energy>  (87) 
59.829835550962684

>  <Genealogy>  (87) 
O=C(CNC(=O)Cc1ccccc1)[N-]c1cccc(S(=O)(=O)N2CCCCCC2)c1 (protonated)
O=C(CNC(=O)Cc1ccccc1)[N-]c1cccc(S(=O)(=O)N2CCCCCC2)c1 (3D coordinates assigned)
O=C(CNC(=O)Cc1ccccc1)[N-]c1cccc(S(=O)(=O)N2CCCCCC2)c1 (nonaromatic ring conformer: 59.829835550962684 kcal/mol)

>  <smiles>  (87) 
O=C(Cc1ccccc1)NCC(=O)Nc1cccc(S(=O)(=O)N2CCCCCC2)c1

>  <score_type>  (87) 
oracle

>  <origin>  (87) 
adg

>  <m_score__min__energy>  (87) 
-9.0800000000000001

>  <m_primary>  (87) 
energy

$$$$
87:0
     RDKit          3D

 59 62  0  0  0  0  0  0  0  0999 V2000
   63.2130   32.1930   47.1410 C   0  0  0  0  0  0  0  0  0  0  0  0
   62.8750   33.4430   46.8170 C   0  0  0  0  0  0  0  0  0  0  0  0
   61.4320   33.8670   46.7880 C   0  0  0  0  0  0  0  0  0  0  0  0
   60.6750   33.2540   47.8950 N   0  0  0  0  0  0  0  0  0  0  0  0
   59.4200   32.7120   47.7220 C   0  0  0  0  0  0  0  0  0  0  0  0
   58.8090   32.3670   46.3820 C   0  0  0  0  0  0  0  0  0  0  0  0
   58.4210   30.9180   46.3540 C   0  0  0  0  0  0  0  0  0  0  0  0
   57.4420   30.5520   45.6460 O   0  0  0  0  0  0  0  0  0  0  0  0
   59.1430   29.9610   47.1440 N   0  0  0  0  0  0  0  0  0  0  0  0
   59.1440   28.5510   46.8700 C   0  0  0  0  0  0  0  0  0  0  0  0
   60.3640   27.8850   46.6820 C   0  0  0  0  0  0  0  0  0  0  0  0
   60.3840   26.5200   46.3840 C   0  0  0  0  0  0  0  0  0  0  0  0
   59.1870   25.8110   46.2540 C   0  0  0  0  0  0  0  0  0  0  0  0
   57.9600   26.4660   46.4220 C   0  0  0  0  0  0  0  0  0  0  0  0
   56.4500   25.5850   46.2040 S   0  0  0  0  0  0  0  0  0  0  0  0
   55.1490   26.7100   46.0260 N   0  0  0  0  0  0  0  0  0  0  0  0
   56.1910   24.7050   47.3940 O   0  0  0  0  0  0  0  0  0  0  0  0
   56.5380   24.7230   44.9750 O   0  0  0  0  0  0  0  0  0  0  0  0
   57.9400   27.8360   46.7210 C   0  0  0  0  0  0  0  0  0  0  0  0
   58.7310   32.4320   48.9010 C   0  0  0  0  0  0  0  0  0  0  0  0
   59.7120   32.8350   50.1940 S   0  0  0  0  0  0  0  0  0  0  0  0
   60.9910   33.3270   49.2300 C   0  0  0  0  0  0  0  0  0  0  0  0
   62.1330   33.6790   49.7590 N   0  0  0  0  0  0  0  0  0  0  0  0
   63.1870   32.8460   50.2520 C   0  0  0  0  0  0  0  0  0  0  0  0
   62.8950   31.7210   51.0350 C   0  0  0  0  0  0  0  0  0  0  0  0
   63.9290   30.9100   51.5150 C   0  0  0  0  0  0  0  0  0  0  0  0
   65.2710   31.2470   51.2540 C   0  0  0  0  0  0  0  0  0  0  0  0
   66.3380   30.4370   51.6700 O   0  0  0  0  0  0  0  0  0  0  0  0
   66.4980   29.0770   51.3640 C   0  0  0  0  0  0  0  0  0  0  0  0
   65.6630   28.0860   51.9160 C   0  0  0  0  0  0  0  0  0  0  0  0
   65.8700   26.7370   51.6030 C   0  0  0  0  0  0  0  0  0  0  0  0
   66.9150   26.3680   50.7490 C   0  0  0  0  0  0  0  0  0  0  0  0
   67.7600   27.3460   50.2140 C   0  0  0  0  0  0  0  0  0  0  0  0
   67.5550   28.6950   50.5240 C   0  0  0  0  0  0  0  0  0  0  0  0
   65.5550   32.3980   50.5100 C   0  0  0  0  0  0  0  0  0  0  0  0
   64.5200   33.2040   50.0250 C   0  0  0  0  0  0  0  0  0  0  0  0
   64.2722   31.8965   47.1582 H   0  0  0  0  0  0  0  0  0  0  0  0
   62.4324   31.4593   47.3908 H   0  0  0  0  0  0  0  0  0  0  0  0
   63.6608   34.1715   46.5683 H   0  0  0  0  0  0  0  0  0  0  0  0
   61.3776   34.9619   46.8789 H   0  0  0  0  0  0  0  0  0  0  0  0
   60.9899   33.5349   45.8371 H   0  0  0  0  0  0  0  0  0  0  0  0
   57.9151   32.9869   46.2186 H   0  0  0  0  0  0  0  0  0  0  0  0
   59.5459   32.5594   45.5883 H   0  0  0  0  0  0  0  0  0  0  0  0
   59.6500   30.3020   47.9910 H   0  0  0  0  0  0  0  0  0  0  0  0
   61.3097   28.4400   46.7696 H   0  0  0  0  0  0  0  0  0  0  0  0
   61.3452   26.0019   46.2513 H   0  0  0  0  0  0  0  0  0  0  0  0
   59.2081   24.7365   46.0193 H   0  0  0  0  0  0  0  0  0  0  0  0
   55.2110   27.1020   45.0590 H   0  0  0  0  0  0  0  0  0  0  0  0
   56.9777   28.3554   46.8399 H   0  0  0  0  0  0  0  0  0  0  0  0
   57.7148   32.0166   48.9693 H   0  0  0  0  0  0  0  0  0  0  0  0
   61.8496   31.4749   51.2729 H   0  0  0  0  0  0  0  0  0  0  0  0
   63.6931   30.0072   52.0975 H   0  0  0  0  0  0  0  0  0  0  0  0
   64.8462   28.3726   52.5947 H   0  0  0  0  0  0  0  0  0  0  0  0
   65.2104   25.9666   52.0289 H   0  0  0  0  0  0  0  0  0  0  0  0
   67.0722   25.3086   50.4982 H   0  0  0  0  0  0  0  0  0  0  0  0
   68.5863   27.0543   49.5491 H   0  0  0  0  0  0  0  0  0  0  0  0
   68.2262   29.4602   50.1069 H   0  0  0  0  0  0  0  0  0  0  0  0
   66.6007   32.6709   50.3051 H   0  0  0  0  0  0  0  0  0  0  0  0
   64.7546   34.1208   49.4642 H   0  0  0  0  0  0  0  0  0  0  0  0
  1  2  2  0
  2  3  1  0
  3  4  1  0
  4  5  1  0
  5  6  1  0
  6  7  1  0
  7  8  2  0
  7  9  1  0
  9 10  1  0
 10 11  2  0
 11 12  1  0
 12 13  2  0
 13 14  1  0
 14 15  1  0
 15 16  1  0
 15 17  2  0
 15 18  2  0
 14 19  2  0
  5 20  2  0
 20 21  1  0
 21 22  1  0
 22 23  2  3
 23 24  1  0
 24 25  2  0
 25 26  1  0
 26 27  2  0
 27 28  1  0
 28 29  1  0
 29 30  2  0
 30 31  1  0
 31 32  2  0
 32 33  1  0
 33 34  2  0
 27 35  1  0
 35 36  2  0
 22  4  1  0
 36 24  1  0
 19 10  1  0
 34 29  1  0
  1 37  1  0
  1 38  1  0
  2 39  1  0
  3 40  1  0
  3 41  1  0
  6 42  1  0
  6 43  1  0
  9 44  1  0
 11 45  1  0
 12 46  1  0
 13 47  1  0
 16 48  1  0
 19 49  1  0
 20 50  1  0
 25 51  1  0
 26 52  1  0
 30 53  1  0
 31 54  1  0
 32 55  1  0
 33 56  1  0
 34 57  1  0
 35 58  1  0
 36 59  1  0
M  CHG  1  16  -1
M  END
>  <UniqueID>  (88) 
80

>  <SMILES>  (88) 
C=CCn1c(CC(=O)Nc2cccc(S([NH-])(=O)=O)c2)csc1=Nc1ccc(Oc2ccccc2)cc1

>  <Energy>  (88) 
116.01165863096276

>  <Genealogy>  (88) 
C=CCn1c(CC(=O)Nc2cccc(S([NH-])(=O)=O)c2)csc1=Nc1ccc(Oc2ccccc2)cc1 (protonated)
C=CCn1c(CC(=O)Nc2cccc(S([NH-])(=O)=O)c2)csc1=Nc1ccc(Oc2ccccc2)cc1 (3D coordinates assigned)
C=CCn1c(CC(=O)Nc2cccc(S([NH-])(=O)=O)c2)csc1=Nc1ccc(Oc2ccccc2)cc1 (optimized conformer: 116.01165863096276 kcal/mol)

>  <smiles>  (88) 
C=CCn1c(CC(=O)Nc2cccc(S(N)(=O)=O)c2)csc1=Nc1ccc(Oc2ccccc2)cc1

>  <score_type>  (88) 
oracle

>  <origin>  (88) 
adg

>  <m_score__min__energy>  (88) 
-12.880000000000001

>  <m_primary>  (88) 
energy

$$$$
88:0
     RDKit          3D

 42 44  0  0  0  0  0  0  0  0999 V2000
   60.0970   31.0460   46.9090 C   0  0  0  0  0  0  0  0  0  0  0  0
   59.9250   32.4810   46.8540 N   0  0  0  0  0  0  0  0  0  0  0  0
   60.7400   33.3420   47.5100 C   0  0  0  0  0  0  0  0  0  0  0  0
   60.3060   34.6230   47.2540 C   0  0  0  0  0  0  0  0  0  0  0  0
   59.2160   34.4830   46.4270 C   0  0  0  0  0  0  0  0  0  0  0  0
   58.9780   33.1340   46.1760 C   0  0  0  0  0  0  0  0  0  0  0  0
   57.8940   32.6810   45.3380 C   0  0  0  0  0  0  0  0  0  0  0  0
   56.6890   33.0270   45.6090 O   0  0  0  0  0  0  0  0  0  0  0  0
   58.0340   31.8190   44.1400 C   0  0  0  0  0  0  0  0  0  0  0  0
   56.6000   30.6920   44.0070 S   0  0  0  0  0  0  0  0  0  0  0  0
   57.0710   29.1400   44.7560 C   0  0  0  0  0  0  0  0  0  0  0  0
   58.3730   28.8070   44.8070 N   0  0  0  0  0  0  0  0  0  0  0  0
   58.7740   27.6410   45.3620 C   0  0  0  0  0  0  0  0  0  0  0  0
   60.0080   27.4080   45.3680 O   0  0  0  0  0  0  0  0  0  0  0  0
   57.8860   26.7360   45.8990 C   0  0  0  0  0  0  0  0  0  0  0  0
   58.2830   25.4500   46.5160 C   0  0  0  0  0  0  0  0  0  0  0  0
   58.1020   24.3210   45.5720 C   0  0  0  0  0  0  0  0  0  0  0  0
   56.9970   24.2130   44.7620 C   0  0  0  0  0  0  0  0  0  0  0  0
   56.8450   23.1510   43.8790 C   0  0  0  0  0  0  0  0  0  0  0  0
   57.7850   22.1490   43.7640 C   0  0  0  0  0  0  0  0  0  0  0  0
   58.9120   22.2540   44.5880 C   0  0  0  0  0  0  0  0  0  0  0  0
   59.0580   23.3140   45.4650 C   0  0  0  0  0  0  0  0  0  0  0  0
   56.5390   27.1000   45.8360 C   0  0  0  0  0  0  0  0  0  0  0  0
   55.5360   26.2970   46.3340 O   0  0  0  0  0  0  0  0  0  0  0  0
   56.1560   28.2790   45.2750 N   0  0  0  0  0  0  0  0  0  0  0  0
   60.1359   30.7214   47.9593 H   0  0  0  0  0  0  0  0  0  0  0  0
   59.2512   30.5557   46.4048 H   0  0  0  0  0  0  0  0  0  0  0  0
   61.0347   30.7695   46.4048 H   0  0  0  0  0  0  0  0  0  0  0  0
   61.5995   33.0653   48.1382 H   0  0  0  0  0  0  0  0  0  0  0  0
   60.7396   35.5609   47.6313 H   0  0  0  0  0  0  0  0  0  0  0  0
   58.6198   35.3145   46.0231 H   0  0  0  0  0  0  0  0  0  0  0  0
   58.0850   32.4508   43.2410 H   0  0  0  0  0  0  0  0  0  0  0  0
   58.9539   31.2227   44.2306 H   0  0  0  0  0  0  0  0  0  0  0  0
   59.3416   25.5052   46.8098 H   0  0  0  0  0  0  0  0  0  0  0  0
   57.6441   25.2743   47.3940 H   0  0  0  0  0  0  0  0  0  0  0  0
   56.2151   24.9849   44.8139 H   0  0  0  0  0  0  0  0  0  0  0  0
   55.9436   23.1082   43.2500 H   0  0  0  0  0  0  0  0  0  0  0  0
   57.6564   21.3117   43.0623 H   0  0  0  0  0  0  0  0  0  0  0  0
   59.6936   21.4816   44.5373 H   0  0  0  0  0  0  0  0  0  0  0  0
   59.9568   23.3629   46.0972 H   0  0  0  0  0  0  0  0  0  0  0  0
   55.5190   25.8280   47.2170 H   0  0  0  0  0  0  0  0  0  0  0  0
   55.1350   28.5210   45.2460 H   0  0  0  0  0  0  0  0  0  0  0  0
  1  2  1  0
  2  3  1  0
  3  4  2  0
  4  5  1  0
  5  6  2  0
  6  7  1  0
  7  8  2  0
  7  9  1  0
  9 10  1  0
 10 11  1  0
 11 12  2  0
 12 13  1  0
 13 14  2  0
 13 15  1  0
 15 16  1  0
 16 17  1  0
 17 18  2  0
 18 19  1  0
 19 20  2  0
 20 21  1  0
 21 22  2  0
 15 23  2  0
 23 24  1  0
 23 25  1  0
  6  2  1  0
 25 11  1  0
 22 17  1  0
  1 26  1  0
  1 27  1  0
  1 28  1  0
  3 29  1  0
  4 30  1  0
  5 31  1  0
  9 32  1  0
  9 33  1  0
 16 34  1  0
 16 35  1  0
 18 36  1  0
 19 37  1  0
 20 38  1  0
 21 39  1  0
 22 40  1  0
 24 41  1  0
 25 42  1  0
M  END
>  <smiles>  (89) 
Cn1cccc1C(=O)CSc1nc(=O)c(Cc2ccccc2)c(O)[nH]1

>  <score_type>  (89) 
oracle

>  <origin>  (89) 
adg

>  <m_score__min__energy>  (89) 
-8.7200000000000006

>  <m_primary>  (89) 
energy

$$$$
89:0
     RDKit          3D

 46 48  0  0  0  0  0  0  0  0999 V2000
   57.5120   31.2030   43.2860 O   0  0  0  0  0  0  0  0  0  0  0  0
   56.9000   30.9820   44.3660 C   0  0  0  0  0  0  0  0  0  0  0  0
   56.0570   29.7570   44.5070 C   0  0  0  0  0  0  0  0  0  0  0  0
   56.7580   28.7720   45.3150 N   0  0  0  0  0  0  0  0  0  0  0  0
   57.3800   27.6100   44.7550 C   0  0  0  0  0  0  0  0  0  0  0  0
   58.0440   27.7160   43.6870 O   0  0  0  0  0  0  0  0  0  0  0  0
   57.2430   26.2950   45.4280 C   0  0  0  0  0  0  0  0  0  0  0  0
   58.3530   25.4310   45.4940 C   0  0  0  0  0  0  0  0  0  0  0  0
   58.2520   24.1880   46.1290 C   0  0  0  0  0  0  0  0  0  0  0  0
   57.0430   23.7900   46.7020 C   0  0  0  0  0  0  0  0  0  0  0  0
   55.9330   24.6330   46.6440 C   0  0  0  0  0  0  0  0  0  0  0  0
   56.0240   25.8800   46.0140 C   0  0  0  0  0  0  0  0  0  0  0  0
   54.9000   26.7020   45.9960 O   0  0  0  0  0  0  0  0  0  0  0  0
   56.9620   31.9180   45.4460 N   0  0  0  0  0  0  0  0  0  0  0  0
   57.9930   32.8980   45.6140 C   0  0  0  0  0  0  0  0  0  0  0  0
   57.9700   34.0340   44.7930 C   0  0  0  0  0  0  0  0  0  0  0  0
   58.9480   35.0220   44.9200 C   0  0  0  0  0  0  0  0  0  0  0  0
   59.9510   34.8930   45.8830 C   0  0  0  0  0  0  0  0  0  0  0  0
   59.9680   33.7830   46.7300 C   0  0  0  0  0  0  0  0  0  0  0  0
   58.9900   32.7830   46.6120 C   0  0  0  0  0  0  0  0  0  0  0  0
   59.0100   31.6710   47.5830 C   0  0  0  0  0  0  0  0  0  0  0  0
   58.5790   31.8890   48.7480 O   0  0  0  0  0  0  0  0  0  0  0  0
   59.4110   30.3370   47.1990 N   0  0  0  0  0  0  0  0  0  0  0  0
   58.8810   29.2000   47.9700 C   0  0  0  0  0  0  0  0  0  0  0  0
   59.6780   27.9180   47.7030 C   0  0  0  0  0  0  0  0  0  0  0  0
   59.8740   27.7140   46.3190 O   0  0  0  0  0  0  0  0  0  0  0  0
   60.6870   28.7480   45.8050 C   0  0  0  0  0  0  0  0  0  0  0  0
   59.9460   30.0860   45.8520 C   0  0  0  0  0  0  0  0  0  0  0  0
   55.1068   30.0208   44.9943 H   0  0  0  0  0  0  0  0  0  0  0  0
   55.8559   29.3357   43.5110 H   0  0  0  0  0  0  0  0  0  0  0  0
   59.3084   25.7360   45.0422 H   0  0  0  0  0  0  0  0  0  0  0  0
   59.1271   23.5233   46.1767 H   0  0  0  0  0  0  0  0  0  0  0  0
   56.9655   22.8118   47.1992 H   0  0  0  0  0  0  0  0  0  0  0  0
   54.9813   24.3163   47.0956 H   0  0  0  0  0  0  0  0  0  0  0  0
   57.1743   34.1479   44.0421 H   0  0  0  0  0  0  0  0  0  0  0  0
   58.9285   35.9026   44.2611 H   0  0  0  0  0  0  0  0  0  0  0  0
   60.7281   35.6662   45.9744 H   0  0  0  0  0  0  0  0  0  0  0  0
   60.7532   33.6916   47.4950 H   0  0  0  0  0  0  0  0  0  0  0  0
   58.9370   29.4385   49.0424 H   0  0  0  0  0  0  0  0  0  0  0  0
   57.8395   29.0291   47.6599 H   0  0  0  0  0  0  0  0  0  0  0  0
   60.6582   27.9963   48.1959 H   0  0  0  0  0  0  0  0  0  0  0  0
   59.1085   27.0658   48.1022 H   0  0  0  0  0  0  0  0  0  0  0  0
   61.6042   28.8208   46.4078 H   0  0  0  0  0  0  0  0  0  0  0  0
   60.9378   28.5168   44.7592 H   0  0  0  0  0  0  0  0  0  0  0  0
   60.6424   30.8941   45.5837 H   0  0  0  0  0  0  0  0  0  0  0  0
   59.1086   30.0517   45.1396 H   0  0  0  0  0  0  0  0  0  0  0  0
  1  2  2  0
  2  3  1  0
  3  4  1  0
  4  5  1  0
  5  6  2  0
  5  7  1  0
  7  8  2  0
  8  9  1  0
  9 10  2  0
 10 11  1  0
 11 12  2  0
 12 13  1  0
  2 14  1  0
 14 15  1  0
 15 16  2  0
 16 17  1  0
 17 18  2  0
 18 19  1  0
 19 20  2  0
 20 21  1  0
 21 22  2  0
 21 23  1  0
 23 24  1  0
 24 25  1  0
 25 26  1  0
 26 27  1  0
 27 28  1  0
 12  7  1  0
 20 15  1  0
 28 23  1  0
  3 29  1  0
  3 30  1  0
  8 31  1  0
  9 32  1  0
 10 33  1  0
 11 34  1  0
 16 35  1  0
 17 36  1  0
 18 37  1  0
 19 38  1  0
 24 39  1  0
 24 40  1  0
 25 41  1  0
 25 42  1  0
 27 43  1  0
 27 44  1  0
 28 45  1  0
 28 46  1  0
M  CHG  3   4  -1  13  -1  14  -1
M  END
>  <UniqueID>  (90) 
81

>  <SMILES>  (90) 
O=C(C[N-]C(=O)c1ccccc1[O-])[N-]c1ccccc1C(=O)N1CCOCC1

>  <Energy>  (90) 
61.02954505707156

>  <Genealogy>  (90) 
O=C(C[N-]C(=O)c1ccccc1[O-])[N-]c1ccccc1C(=O)N1CCOCC1 (protonated)
O=C(C[N-]C(=O)c1ccccc1[O-])[N-]c1ccccc1C(=O)N1CCOCC1 (3D coordinates assigned)
O=C(C[N-]C(=O)c1ccccc1[O-])[N-]c1ccccc1C(=O)N1CCOCC1 (nonaromatic ring conformer: 61.02954505707156 kcal/mol)

>  <smiles>  (90) 
O=C(CNC(=O)c1ccccc1O)Nc1ccccc1C(=O)N1CCOCC1

>  <score_type>  (90) 
oracle

>  <origin>  (90) 
adg

>  <m_score__min__energy>  (90) 
-15.49

>  <m_primary>  (90) 
energy

$$$$
90:0
     RDKit          3D

 38 40  0  0  0  0  0  0  0  0999 V2000
   57.2770   33.1700   47.5200 H   0  0  0  0  0  0  0  0  0  0  0  0
   57.6030   32.7290   48.3710 O   0  0  0  0  0  0  0  0  0  0  0  0
   58.8900   32.2020   48.5100 C   0  0  0  0  0  0  0  0  0  0  0  0
   59.8240   32.2770   47.4490 C   0  0  0  0  0  0  0  0  0  0  0  0
   59.4610   32.7520   46.1470 N   0  0  0  0  0  0  0  0  0  0  0  0
   58.8300   34.0130   45.8980 C   0  0  0  0  0  0  0  0  0  0  0  0
   57.6060   34.0710   45.5990 O   0  0  0  0  0  0  0  0  0  0  0  0
   59.6260   35.2690   46.0110 C   0  0  0  0  0  0  0  0  0  0  0  0
   59.7796   35.5114   47.0729 H   0  0  0  0  0  0  0  0  0  0  0  0
   60.6014   35.1302   45.5217 H   0  0  0  0  0  0  0  0  0  0  0  0
   59.0841   36.0918   45.5217 H   0  0  0  0  0  0  0  0  0  0  0  0
   61.1530   31.9040   47.6710 C   0  0  0  0  0  0  0  0  0  0  0  0
   61.8911   32.0079   46.8621 H   0  0  0  0  0  0  0  0  0  0  0  0
   61.5500   31.4020   48.9080 C   0  0  0  0  0  0  0  0  0  0  0  0
   62.5991   31.1154   49.0730 H   0  0  0  0  0  0  0  0  0  0  0  0
   60.6200   31.2620   49.9380 C   0  0  0  0  0  0  0  0  0  0  0  0
   60.9375   30.8489   50.9068 H   0  0  0  0  0  0  0  0  0  0  0  0
   59.2810   31.6440   49.7490 C   0  0  0  0  0  0  0  0  0  0  0  0
   58.3270   31.4870   50.8740 C   0  0  0  0  0  0  0  0  0  0  0  0
   57.4310   30.4620   50.9050 N   0  0  0  0  0  0  0  0  0  0  0  0
   56.6360   30.5250   51.9970 C   0  0  0  0  0  0  0  0  0  0  0  0
   55.7000   29.6680   52.2740 N   0  0  0  0  0  0  0  0  0  0  0  0
   54.5430   29.9150   53.0890 C   0  0  0  0  0  0  0  0  0  0  0  0
   54.6250   30.5870   54.1530 O   0  0  0  0  0  0  0  0  0  0  0  0
   53.2100   29.4110   52.6370 C   0  0  0  0  0  0  0  0  0  0  0  0
   53.3516   28.6810   51.8264 H   0  0  0  0  0  0  0  0  0  0  0  0
   52.6977   28.9310   53.4838 H   0  0  0  0  0  0  0  0  0  0  0  0
   52.3980   30.5230   52.1510 N   0  0  0  0  0  0  0  0  0  0  0  0
   52.3410   30.9890   50.8930 C   0  0  0  0  0  0  0  0  0  0  0  0
   52.9416   30.6388   50.0406 H   0  0  0  0  0  0  0  0  0  0  0  0
   51.3930   31.9850   50.8670 C   0  0  0  0  0  0  0  0  0  0  0  0
   51.0360   32.7240   49.7470 O   0  0  0  0  0  0  0  0  0  0  0  0
   50.8360   32.1550   52.0840 N   0  0  0  0  0  0  0  0  0  0  0  0
   51.4760   31.2350   52.8350 C   0  0  0  0  0  0  0  0  0  0  0  0
   51.2280   31.0580   54.0570 O   0  0  0  0  0  0  0  0  0  0  0  0
   56.9940   31.8500   52.9600 S   0  0  0  0  0  0  0  0  0  0  0  0
   58.2280   32.3790   51.9460 C   0  0  0  0  0  0  0  0  0  0  0  0
   58.8500   33.2731   52.1000 H   0  0  0  0  0  0  0  0  0  0  0  0
  1  2  1  0
  2  3  1  0
  3  4  2  0
  4  5  1  0
  5  6  1  0
  6  7  2  0
  6  8  1  0
  8  9  1  0
  8 10  1  0
  8 11  1  0
  4 12  1  0
 12 13  1  0
 12 14  2  0
 14 15  1  0
 14 16  1  0
 16 17  1  0
 16 18  2  0
 18 19  1  0
 19 20  1  0
 20 21  1  0
 21 22  2  0
 22 23  1  0
 23 24  2  0
 23 25  1  0
 25 26  1  0
 25 27  1  0
 25 28  1  0
 28 29  1  0
 29 30  1  0
 29 31  2  0
 31 32  1  0
 31 33  1  0
 33 34  1  0
 34 35  2  0
 21 36  1  0
 36 37  1  0
 37 38  1  0
 18  3  1  0
 37 19  2  0
 34 28  1  0
M  CHG  4   5  -1  20  -1  32  -1  33  -1
M  END
>  <UniqueID>  (91) 
82

>  <SMILES>  (91) 
CC(=O)[N-]c1cccc(-c2cs/c(=N/C(=O)Cn3cc([O-])[n-]c3=O)[n-]2)c1O

>  <Energy>  (91) 
111.41167657106834

>  <Genealogy>  (91) 
CC(=O)[N-]c1cccc(-c2csc(=NC(=O)Cn3cc([O-])[n-]c3=O)[n-]2)c1O (protonated)
CC(=O)[N-]c1cccc(-c2cs/c(=N/C(=O)Cn3cc([O-])[n-]c3=O)[n-]2)c1O (cis-trans isomerization)
CC(=O)[N-]c1cccc(-c2cs/c(=N/C(=O)Cn3cc([O-])[n-]c3=O)[n-]2)c1O (3D coordinates assigned)
CC(=O)[N-]c1cccc(-c2cs/c(=N/C(=O)Cn3cc([O-])[n-]c3=O)[n-]2)c1O (optimized conformer: 111.41167657106834 kcal/mol)

>  <smiles>  (91) 
CC(=O)Nc1cccc(-c2csc(=NC(=O)Cn3cc(O)[nH]c3=O)[nH]2)c1O

>  <score_type>  (91) 
oracle

>  <origin>  (91) 
adg

>  <m_score__min__energy>  (91) 
-15.42

>  <m_primary>  (91) 
energy

$$$$
91:0
     RDKit          3D

 60 63  0  0  0  0  0  0  0  0999 V2000
   60.1160   27.9860   49.1930 O   0  0  0  0  0  0  0  0  0  0  0  0
   59.1240   28.6150   48.7320 C   0  0  0  0  0  0  0  0  0  0  0  0
   58.7400   28.4420   47.2980 C   0  0  0  0  0  0  0  0  0  0  0  0
   58.1900   27.1020   47.1000 N   0  0  0  0  0  0  0  0  0  0  0  0
   57.3540   27.0370   45.5790 S   0  0  0  0  0  0  0  0  0  0  0  0
   58.3170   27.2760   44.4510 O   0  0  0  0  0  0  0  0  0  0  0  0
   56.2880   28.1000   45.5540 O   0  0  0  0  0  0  0  0  0  0  0  0
   56.6200   25.4440   45.3850 C   0  0  0  0  0  0  0  0  0  0  0  0
   57.4110   24.3410   45.0190 C   0  0  0  0  0  0  0  0  0  0  0  0
   56.8300   23.0750   44.8720 C   0  0  0  0  0  0  0  0  0  0  0  0
   55.4580   22.9010   45.0890 C   0  0  0  0  0  0  0  0  0  0  0  0
   54.6650   23.9930   45.4590 C   0  0  0  0  0  0  0  0  0  0  0  0
   55.2400   25.2620   45.6100 C   0  0  0  0  0  0  0  0  0  0  0  0
   54.4340   26.3340   45.9850 O   0  0  0  0  0  0  0  0  0  0  0  0
   58.3850   29.5280   49.5540 N   0  0  0  0  0  0  0  0  0  0  0  0
   58.7080   30.9010   49.8230 C   0  0  0  0  0  0  0  0  0  0  0  0
   59.4260   31.6830   48.8990 C   0  0  0  0  0  0  0  0  0  0  0  0
   59.7800   33.0050   49.2050 C   0  0  0  0  0  0  0  0  0  0  0  0
   60.6240   34.0040   48.0240 S   0  0  0  0  0  0  0  0  0  0  0  0
   59.9320   35.3310   47.8840 O   0  0  0  0  0  0  0  0  0  0  0  0
   62.0360   34.2470   48.4790 O   0  0  0  0  0  0  0  0  0  0  0  0
   60.6600   33.1750   46.5050 N   0  0  0  0  0  0  0  0  0  0  0  0
   59.4570   32.7790   45.8440 C   0  0  0  0  0  0  0  0  0  0  0  0
   59.1610   31.4100   45.7200 C   0  0  0  0  0  0  0  0  0  0  0  0
   57.9730   30.9990   45.1050 C   0  0  0  0  0  0  0  0  0  0  0  0
   57.0820   31.9540   44.6010 C   0  0  0  0  0  0  0  0  0  0  0  0
   57.3790   33.3210   44.7060 C   0  0  0  0  0  0  0  0  0  0  0  0
   58.5690   33.7400   45.3220 C   0  0  0  0  0  0  0  0  0  0  0  0
   58.8770   35.1030   45.4040 O   0  0  0  0  0  0  0  0  0  0  0  0
   59.4320   33.5430   50.4490 C   0  0  0  0  0  0  0  0  0  0  0  0
   58.7380   32.7700   51.3800 C   0  0  0  0  0  0  0  0  0  0  0  0
   58.3730   31.4530   51.0750 C   0  0  0  0  0  0  0  0  0  0  0  0
   57.6510   30.6850   52.0470 N   0  0  0  0  0  0  0  0  0  0  0  0
   58.3770   29.8260   52.9860 C   0  0  0  0  0  0  0  0  0  0  0  0
   57.4660   28.6820   53.4430 C   0  0  0  0  0  0  0  0  0  0  0  0
   56.2320   29.1860   53.9200 O   0  0  0  0  0  0  0  0  0  0  0  0
   55.5200   29.7930   52.8550 C   0  0  0  0  0  0  0  0  0  0  0  0
   56.2610   31.0320   52.3440 C   0  0  0  0  0  0  0  0  0  0  0  0
   57.9829   29.1929   47.0278 H   0  0  0  0  0  0  0  0  0  0  0  0
   59.6280   28.5720   46.6620 H   0  0  0  0  0  0  0  0  0  0  0  0
   58.4896   24.4726   44.8475 H   0  0  0  0  0  0  0  0  0  0  0  0
   57.4534   22.2153   44.5853 H   0  0  0  0  0  0  0  0  0  0  0  0
   55.0036   21.9065   44.9687 H   0  0  0  0  0  0  0  0  0  0  0  0
   53.5875   23.8549   45.6318 H   0  0  0  0  0  0  0  0  0  0  0  0
   59.7122   31.2532   47.9277 H   0  0  0  0  0  0  0  0  0  0  0  0
   59.8656   30.6595   46.1077 H   0  0  0  0  0  0  0  0  0  0  0  0
   57.7397   29.9276   45.0178 H   0  0  0  0  0  0  0  0  0  0  0  0
   56.1462   31.6315   44.1212 H   0  0  0  0  0  0  0  0  0  0  0  0
   56.6773   34.0669   44.3045 H   0  0  0  0  0  0  0  0  0  0  0  0
   59.6440   35.4430   45.9760 H   0  0  0  0  0  0  0  0  0  0  0  0
   59.7068   34.5796   50.6937 H   0  0  0  0  0  0  0  0  0  0  0  0
   58.4760   33.1974   52.3591 H   0  0  0  0  0  0  0  0  0  0  0  0
   59.2664   29.4103   52.4898 H   0  0  0  0  0  0  0  0  0  0  0  0
   58.6869   30.4184   53.8595 H   0  0  0  0  0  0  0  0  0  0  0  0
   57.2773   28.0091   52.5935 H   0  0  0  0  0  0  0  0  0  0  0  0
   57.9644   28.1366   54.2580 H   0  0  0  0  0  0  0  0  0  0  0  0
   55.4155   29.0702   52.0325 H   0  0  0  0  0  0  0  0  0  0  0  0
   54.5295   30.1001   53.2220 H   0  0  0  0  0  0  0  0  0  0  0  0
   55.7722   31.3998   51.4298 H   0  0  0  0  0  0  0  0  0  0  0  0
   56.2370   31.8159   53.1153 H   0  0  0  0  0  0  0  0  0  0  0  0
  1  2  2  0
  2  3  1  0
  3  4  1  0
  4  5  1  0
  5  6  2  0
  5  7  2  0
  5  8  1  0
  8  9  2  0
  9 10  1  0
 10 11  2  0
 11 12  1  0
 12 13  2  0
 13 14  1  0
  2 15  1  0
 15 16  1  0
 16 17  2  0
 17 18  1  0
 18 19  1  0
 19 20  2  0
 19 21  2  0
 19 22  1  0
 22 23  1  0
 23 24  2  0
 24 25  1  0
 25 26  2  0
 26 27  1  0
 27 28  2  0
 28 29  1  0
 18 30  2  0
 30 31  1  0
 31 32  2  0
 32 33  1  0
 33 34  1  0
 34 35  1  0
 35 36  1  0
 36 37  1  0
 37 38  1  0
 13  8  1  0
 32 16  1  0
 38 33  1  0
 28 23  1  0
  3 39  1  0
  3 40  1  0
  9 41  1  0
 10 42  1  0
 11 43  1  0
 12 44  1  0
 17 45  1  0
 24 46  1  0
 25 47  1  0
 26 48  1  0
 27 49  1  0
 29 50  1  0
 30 51  1  0
 31 52  1  0
 34 53  1  0
 34 54  1  0
 35 55  1  0
 35 56  1  0
 37 57  1  0
 37 58  1  0
 38 59  1  0
 38 60  1  0
M  CHG  4   4  -1  14  -1  15  -1  22  -1
M  END
>  <UniqueID>  (92) 
83

>  <SMILES>  (92) 
O=C(C[N-]S(=O)(=O)c1ccccc1[O-])[N-]c1cc(S(=O)(=O)[N-]c2ccccc2O)ccc1N1CCOCC1

>  <Energy>  (92) 
80.89867789669091

>  <Genealogy>  (92) 
O=C(C[N-]S(=O)(=O)c1ccccc1[O-])[N-]c1cc(S(=O)(=O)[N-]c2ccccc2O)ccc1N1CCOCC1 (protonated)
O=C(C[N-]S(=O)(=O)c1ccccc1[O-])[N-]c1cc(S(=O)(=O)[N-]c2ccccc2O)ccc1N1CCOCC1 (3D coordinates assigned)
O=C(C[N-]S(=O)(=O)c1ccccc1[O-])[N-]c1cc(S(=O)(=O)[N-]c2ccccc2O)ccc1N1CCOCC1 (nonaromatic ring conformer: 80.89867789669091 kcal/mol)

>  <smiles>  (92) 
O=C(CNS(=O)(=O)c1ccccc1O)Nc1cc(S(=O)(=O)Nc2ccccc2O)ccc1N1CCOCC1

>  <score_type>  (92) 
oracle

>  <origin>  (92) 
adg

>  <m_score__min__energy>  (92) 
-16.960000000000001

>  <m_primary>  (92) 
energy

$$$$
92:0
     RDKit          3D

 40 42  0  0  0  0  0  0  0  0999 V2000
   56.9103   21.1470   43.2340 H   0  0  0  0  0  0  0  0  0  0  0  0
   56.6490   22.0570   43.7940 C   0  0  0  0  0  0  0  0  0  0  0  0
   55.7850   21.9790   44.8840 C   0  0  0  0  0  0  0  0  0  0  0  0
   55.3709   21.0064   45.1882 H   0  0  0  0  0  0  0  0  0  0  0  0
   55.4440   23.1340   45.5910 C   0  0  0  0  0  0  0  0  0  0  0  0
   54.7548   23.0645   46.4455 H   0  0  0  0  0  0  0  0  0  0  0  0
   55.9720   24.3870   45.2230 C   0  0  0  0  0  0  0  0  0  0  0  0
   55.5870   25.5950   45.9990 C   0  0  0  0  0  0  0  0  0  0  0  0
   56.2910   25.9770   46.9720 O   0  0  0  0  0  0  0  0  0  0  0  0
   54.4530   26.3290   45.6730 O   0  0  0  0  0  0  0  0  0  0  0  0
   56.8670   24.4590   44.1280 C   0  0  0  0  0  0  0  0  0  0  0  0
   57.3930   25.7000   43.7340 O   0  0  0  0  0  0  0  0  0  0  0  0
   58.0230   26.6180   44.5850 C   0  0  0  0  0  0  0  0  0  0  0  0
   59.0130   26.2250   45.4330 N   0  0  0  0  0  0  0  0  0  0  0  0
   59.6250   27.0940   46.2800 C   0  0  0  0  0  0  0  0  0  0  0  0
   60.7050   26.6070   47.1930 C   0  0  0  0  0  0  0  0  0  0  0  0
   60.3927   26.7478   48.2383 H   0  0  0  0  0  0  0  0  0  0  0  0
   60.8891   25.5387   47.0061 H   0  0  0  0  0  0  0  0  0  0  0  0
   61.6275   27.1763   47.0061 H   0  0  0  0  0  0  0  0  0  0  0  0
   59.2270   28.4360   46.3060 C   0  0  0  0  0  0  0  0  0  0  0  0
   59.7159   29.1435   46.9919 H   0  0  0  0  0  0  0  0  0  0  0  0
   58.2010   28.8760   45.4530 C   0  0  0  0  0  0  0  0  0  0  0  0
   57.7610   30.2910   45.4690 C   0  0  0  0  0  0  0  0  0  0  0  0
   56.7230   30.6300   44.8370 O   0  0  0  0  0  0  0  0  0  0  0  0
   58.4620   31.2490   46.2780 N   0  0  0  0  0  0  0  0  0  0  0  0
   58.6960   32.5090   46.0340 C   0  0  0  0  0  0  0  0  0  0  0  0
   59.7730   33.1240   46.6890 C   0  0  0  0  0  0  0  0  0  0  0  0
   60.3959   32.5465   47.3879 H   0  0  0  0  0  0  0  0  0  0  0  0
   60.0520   34.4690   46.4520 C   0  0  0  0  0  0  0  0  0  0  0  0
   60.8889   34.9584   46.9717 H   0  0  0  0  0  0  0  0  0  0  0  0
   59.2680   35.1920   45.5550 C   0  0  0  0  0  0  0  0  0  0  0  0
   59.4747   36.2561   45.3679 H   0  0  0  0  0  0  0  0  0  0  0  0
   58.2180   34.5510   44.8970 C   0  0  0  0  0  0  0  0  0  0  0  0
   57.5993   35.1107   44.1801 H   0  0  0  0  0  0  0  0  0  0  0  0
   57.9540   33.2350   45.1370 N   0  0  0  0  0  0  0  0  0  0  0  0
   57.1920   32.8020   44.5760 H   0  0  0  0  0  0  0  0  0  0  0  0
   57.5950   27.9480   44.5890 C   0  0  0  0  0  0  0  0  0  0  0  0
   56.7851   28.2682   43.9170 H   0  0  0  0  0  0  0  0  0  0  0  0
   57.1830   23.2870   43.4120 C   0  0  0  0  0  0  0  0  0  0  0  0
   57.8567   23.3431   42.5443 H   0  0  0  0  0  0  0  0  0  0  0  0
  1  2  1  0
  2  3  2  0
  3  4  1  0
  3  5  1  0
  5  6  1  0
  5  7  2  0
  7  8  1  0
  8  9  2  0
  8 10  1  0
  7 11  1  0
 11 12  1  0
 12 13  1  0
 13 14  2  0
 14 15  1  0
 15 16  1  0
 16 17  1  0
 16 18  1  0
 16 19  1  0
 15 20  2  0
 20 21  1  0
 20 22  1  0
 22 23  1  0
 23 24  2  0
 23 25  1  0
 25 26  2  0
 26 27  1  0
 27 28  1  0
 27 29  2  0
 29 30  1  0
 29 31  1  0
 31 32  1  0
 31 33  2  0
 33 34  1  0
 33 35  1  0
 35 36  1  0
 22 37  2  0
 37 38  1  0
 11 39  2  0
 39 40  1  0
 39  2  1  0
 37 13  1  0
 35 26  1  0
M  CHG  1  10  -1
M  END
>  <UniqueID>  (93) 
84

>  <SMILES>  (93) 
Cc1cc(C(=O)/N=c2/cccc[nH]2)cc(Oc2ccccc2C(=O)[O-])n1

>  <Energy>  (93) 
57.584853424473664

>  <Genealogy>  (93) 
Cc1cc(C(=O)N=c2cccc[nH]2)cc(Oc2ccccc2C(=O)[O-])n1 (protonated)
Cc1cc(C(=O)/N=c2/cccc[nH]2)cc(Oc2ccccc2C(=O)[O-])n1 (cis-trans isomerization)
Cc1cc(C(=O)/N=c2/cccc[nH]2)cc(Oc2ccccc2C(=O)[O-])n1 (3D coordinates assigned)
Cc1cc(C(=O)/N=c2/cccc[nH]2)cc(Oc2ccccc2C(=O)[O-])n1 (optimized conformer: 57.584853424473664 kcal/mol)

>  <smiles>  (93) 
Cc1cc(C(=O)N=c2cccc[nH]2)cc(Oc2ccccc2C(=O)O)n1

>  <score_type>  (93) 
oracle

>  <origin>  (93) 
adg

>  <m_score__min__energy>  (93) 
-11.31

>  <m_primary>  (93) 
energy

$$$$
93:0
     RDKit          3D

 53 56  0  0  0  0  0  0  0  0999 V2000
   62.9100   32.7880   47.1460 C   0  0  0  0  0  0  0  0  0  0  0  0
   61.8710   31.8170   47.2090 O   0  0  0  0  0  0  0  0  0  0  0  0
   60.9240   31.7250   48.2420 C   0  0  0  0  0  0  0  0  0  0  0  0
   61.0590   32.4580   49.4390 C   0  0  0  0  0  0  0  0  0  0  0  0
   60.1300   32.3040   50.4700 C   0  0  0  0  0  0  0  0  0  0  0  0
   59.0640   31.4140   50.3260 C   0  0  0  0  0  0  0  0  0  0  0  0
   58.9150   30.6880   49.1440 C   0  0  0  0  0  0  0  0  0  0  0  0
   59.8230   30.8550   48.0870 C   0  0  0  0  0  0  0  0  0  0  0  0
   59.6420   30.0850   46.8890 N   0  0  0  0  0  0  0  0  0  0  0  0
   59.1830   28.7260   46.8900 C   0  0  0  0  0  0  0  0  0  0  0  0
   59.2780   28.0320   47.9390 O   0  0  0  0  0  0  0  0  0  0  0  0
   58.6480   28.1110   45.6580 C   0  0  0  0  0  0  0  0  0  0  0  0
   58.4170   28.8330   44.4860 C   0  0  0  0  0  0  0  0  0  0  0  0
   58.5620   30.2560   44.3720 N   0  0  0  0  0  0  0  0  0  0  0  0
   57.5120   31.2280   44.2890 C   0  0  0  0  0  0  0  0  0  0  0  0
   56.3320   30.8590   44.5310 O   0  0  0  0  0  0  0  0  0  0  0  0
   57.7840   32.6650   43.9250 C   0  0  0  0  0  0  0  0  0  0  0  0
   58.3420   33.4380   45.0920 C   0  0  0  0  0  0  0  0  0  0  0  0
   57.9720   33.1020   46.4050 C   0  0  0  0  0  0  0  0  0  0  0  0
   58.4640   33.8410   47.4860 C   0  0  0  0  0  0  0  0  0  0  0  0
   59.3140   34.9280   47.2620 C   0  0  0  0  0  0  0  0  0  0  0  0
   59.6770   35.2760   45.9580 C   0  0  0  0  0  0  0  0  0  0  0  0
   59.1910   34.5380   44.8750 C   0  0  0  0  0  0  0  0  0  0  0  0
   57.7670   27.8100   43.3130 S   0  0  0  0  0  0  0  0  0  0  0  0
   57.8050   26.4270   44.2660 C   0  0  0  0  0  0  0  0  0  0  0  0
   58.3400   26.7400   45.5150 C   0  0  0  0  0  0  0  0  0  0  0  0
   58.5170   25.6840   46.5780 C   0  0  0  0  0  0  0  0  0  0  0  0
   58.5450   24.2710   45.9710 C   0  0  0  0  0  0  0  0  0  0  0  0
   57.3830   24.0680   44.9860 C   0  0  0  0  0  0  0  0  0  0  0  0
   57.4860   25.0390   43.8000 C   0  0  0  0  0  0  0  0  0  0  0  0
   63.2112   33.0694   48.1658 H   0  0  0  0  0  0  0  0  0  0  0  0
   63.7741   32.3662   46.6117 H   0  0  0  0  0  0  0  0  0  0  0  0
   62.5476   33.6786   46.6117 H   0  0  0  0  0  0  0  0  0  0  0  0
   61.9010   33.1552   49.5613 H   0  0  0  0  0  0  0  0  0  0  0  0
   60.2383   32.8852   51.3977 H   0  0  0  0  0  0  0  0  0  0  0  0
   58.3411   31.2851   51.1450 H   0  0  0  0  0  0  0  0  0  0  0  0
   58.0799   29.9797   49.0398 H   0  0  0  0  0  0  0  0  0  0  0  0
   60.0200   30.4690   45.9930 H   0  0  0  0  0  0  0  0  0  0  0  0
   58.5099   32.6925   43.0990 H   0  0  0  0  0  0  0  0  0  0  0  0
   56.8324   33.1302   43.6282 H   0  0  0  0  0  0  0  0  0  0  0  0
   57.2932   32.2550   46.5836 H   0  0  0  0  0  0  0  0  0  0  0  0
   58.1818   33.5666   48.5132 H   0  0  0  0  0  0  0  0  0  0  0  0
   59.6975   35.5100   48.1130 H   0  0  0  0  0  0  0  0  0  0  0  0
   60.3459   36.1317   45.7838 H   0  0  0  0  0  0  0  0  0  0  0  0
   59.4735   34.8185   43.8496 H   0  0  0  0  0  0  0  0  0  0  0  0
   59.4646   25.8646   47.1067 H   0  0  0  0  0  0  0  0  0  0  0  0
   57.6641   25.7451   47.2700 H   0  0  0  0  0  0  0  0  0  0  0  0
   59.4966   24.1278   45.4382 H   0  0  0  0  0  0  0  0  0  0  0  0
   58.4438   23.5390   46.7858 H   0  0  0  0  0  0  0  0  0  0  0  0
   57.4090   23.0353   44.6079 H   0  0  0  0  0  0  0  0  0  0  0  0
   56.4387   24.2627   45.5154 H   0  0  0  0  0  0  0  0  0  0  0  0
   58.2817   24.6956   43.1225 H   0  0  0  0  0  0  0  0  0  0  0  0
   56.5172   25.0590   43.2794 H   0  0  0  0  0  0  0  0  0  0  0  0
  1  2  1  0
  2  3  1  0
  3  4  2  0
  4  5  1  0
  5  6  2  0
  6  7  1  0
  7  8  2  0
  8  9  1  0
  9 10  1  0
 10 11  2  0
 10 12  1  0
 12 13  2  0
 13 14  1  0
 14 15  1  0
 15 16  2  0
 15 17  1  0
 17 18  1  0
 18 19  2  0
 19 20  1  0
 20 21  2  0
 21 22  1  0
 22 23  2  0
 13 24  1  0
 24 25  1  0
 25 26  2  0
 26 27  1  0
 27 28  1  0
 28 29  1  0
 29 30  1  0
  8  3  1  0
 26 12  1  0
 23 18  1  0
 30 25  1  0
  1 31  1  0
  1 32  1  0
  1 33  1  0
  4 34  1  0
  5 35  1  0
  6 36  1  0
  7 37  1  0
  9 38  1  0
 17 39  1  0
 17 40  1  0
 19 41  1  0
 20 42  1  0
 21 43  1  0
 22 44  1  0
 23 45  1  0
 27 46  1  0
 27 47  1  0
 28 48  1  0
 28 49  1  0
 29 50  1  0
 29 51  1  0
 30 52  1  0
 30 53  1  0
M  CHG  1  14  -1
M  END
>  <UniqueID>  (94) 
85

>  <SMILES>  (94) 
COc1ccccc1NC(=O)c1c([N-]C(=O)Cc2ccccc2)sc2c1CCCC2

>  <Energy>  (94) 
91.60971725786378

>  <Genealogy>  (94) 
COc1ccccc1NC(=O)c1c([N-]C(=O)Cc2ccccc2)sc2c1CCCC2 (protonated)
COc1ccccc1NC(=O)c1c([N-]C(=O)Cc2ccccc2)sc2c1CCCC2 (3D coordinates assigned)
COc1ccccc1NC(=O)c1c([N-]C(=O)Cc2ccccc2)sc2c1CCCC2 (nonaromatic ring conformer: 91.60971725786378 kcal/mol)

>  <smiles>  (94) 
COc1ccccc1NC(=O)c1c(NC(=O)Cc2ccccc2)sc2c1CCCC2

>  <score_type>  (94) 
oracle

>  <origin>  (94) 
adg

>  <m_score__min__energy>  (94) 
-9.5299999999999994

>  <m_primary>  (94) 
energy

$$$$
94:0
     RDKit          3D

 36 37  0  0  0  0  0  0  0  0999 V2000
   54.5033   22.0652   44.0612 H   0  0  0  0  0  0  0  0  0  0  0  0
   54.7920   22.9620   44.6290 C   0  0  0  0  0  0  0  0  0  0  0  0
   56.0780   23.1350   45.0290 N   0  0  0  0  0  0  0  0  0  0  0  0
   56.4800   24.2300   45.7310 C   0  0  0  0  0  0  0  0  0  0  0  0
   57.7350   24.3040   46.0800 N   0  0  0  0  0  0  0  0  0  0  0  0
   58.5090   25.4730   46.3770 C   0  0  0  0  0  0  0  0  0  0  0  0
   59.2510   25.9570   45.4800 O   0  0  0  0  0  0  0  0  0  0  0  0
   58.6120   25.9790   47.7900 C   0  0  0  0  0  0  0  0  0  0  0  0
   57.8054   25.5293   48.3877 H   0  0  0  0  0  0  0  0  0  0  0  0
   59.6013   25.6975   48.1799 H   0  0  0  0  0  0  0  0  0  0  0  0
   58.4910   27.5070   47.8650 C   0  0  0  0  0  0  0  0  0  0  0  0
   57.7758   27.7755   48.6564 H   0  0  0  0  0  0  0  0  0  0  0  0
   59.4802   27.9326   48.0891 H   0  0  0  0  0  0  0  0  0  0  0  0
   58.0220   28.0440   46.5900 N   0  0  0  0  0  0  0  0  0  0  0  0
   57.5280   27.3940   45.9380 H   0  0  0  0  0  0  0  0  0  0  0  0
   58.2470   29.4070   46.1990 C   0  0  0  0  0  0  0  0  0  0  0  0
   58.9680   30.1550   46.9140 O   0  0  0  0  0  0  0  0  0  0  0  0
   57.6720   29.9450   44.9460 C   0  0  0  0  0  0  0  0  0  0  0  0
   58.3870   30.9170   44.2230 C   0  0  0  0  0  0  0  0  0  0  0  0
   59.3582   31.2720   44.5982 H   0  0  0  0  0  0  0  0  0  0  0  0
   57.8720   31.4350   43.0310 C   0  0  0  0  0  0  0  0  0  0  0  0
   58.4419   32.1898   42.4693 H   0  0  0  0  0  0  0  0  0  0  0  0
   56.6370   30.9970   42.5520 C   0  0  0  0  0  0  0  0  0  0  0  0
   56.2383   31.3997   41.6092 H   0  0  0  0  0  0  0  0  0  0  0  0
   55.9070   30.0470   43.2700 C   0  0  0  0  0  0  0  0  0  0  0  0
   54.9315   29.7065   42.8925 H   0  0  0  0  0  0  0  0  0  0  0  0
   56.4110   29.5260   44.4680 C   0  0  0  0  0  0  0  0  0  0  0  0
   55.6380   28.6200   45.1850 O   0  0  0  0  0  0  0  0  0  0  0  0
   55.5180   25.2340   46.0100 C   0  0  0  0  0  0  0  0  0  0  0  0
   55.8260   26.3110   46.5820 O   0  0  0  0  0  0  0  0  0  0  0  0
   54.2310   25.0500   45.6120 N   0  0  0  0  0  0  0  0  0  0  0  0
   53.8390   23.9330   44.9450 C   0  0  0  0  0  0  0  0  0  0  0  0
   52.4190   23.7830   44.5040 C   0  0  0  0  0  0  0  0  0  0  0  0
   51.7663   23.7140   45.3867 H   0  0  0  0  0  0  0  0  0  0  0  0
   52.1284   24.6554   43.9003 H   0  0  0  0  0  0  0  0  0  0  0  0
   52.3171   22.8691   43.9003 H   0  0  0  0  0  0  0  0  0  0  0  0
  1  2  1  0
  2  3  1  0
  3  4  1  0
  4  5  2  0
  5  6  1  0
  6  7  2  0
  6  8  1  0
  8  9  1  0
  8 10  1  0
  8 11  1  0
 11 12  1  0
 11 13  1  0
 11 14  1  0
 14 15  1  0
 14 16  1  0
 16 17  2  0
 16 18  1  0
 18 19  2  0
 19 20  1  0
 19 21  1  0
 21 22  1  0
 21 23  2  0
 23 24  1  0
 23 25  1  0
 25 26  1  0
 25 27  2  0
 27 28  1  0
  4 29  1  0
 29 30  2  0
 29 31  1  0
 31 32  1  0
 32 33  1  0
 33 34  1  0
 33 35  1  0
 33 36  1  0
 32  2  2  0
 27 18  1  0
M  CHG  3   3  -1  28  -1  31  -1
M  END
>  <UniqueID>  (95) 
86

>  <SMILES>  (95) 
Cc1c[n-]/c(=N/C(=O)CCNC(=O)c2ccccc2[O-])c(=O)[n-]1

>  <Energy>  (95) 
50.52944285817993

>  <Genealogy>  (95) 
Cc1c[n-]c(=NC(=O)CCNC(=O)c2ccccc2[O-])c(=O)[n-]1 (protonated)
Cc1c[n-]/c(=N/C(=O)CCNC(=O)c2ccccc2[O-])c(=O)[n-]1 (cis-trans isomerization)
Cc1c[n-]/c(=N/C(=O)CCNC(=O)c2ccccc2[O-])c(=O)[n-]1 (3D coordinates assigned)
Cc1c[n-]/c(=N/C(=O)CCNC(=O)c2ccccc2[O-])c(=O)[n-]1 (optimized conformer: 50.52944285817993 kcal/mol)

>  <smiles>  (95) 
Cc1c[nH]c(=NC(=O)CCNC(=O)c2ccccc2O)c(=O)[nH]1

>  <score_type>  (95) 
oracle

>  <origin>  (95) 
adg

>  <m_score__min__energy>  (95) 
-13.609999999999999

>  <m_primary>  (95) 
energy

$$$$
95:0
     RDKit          3D

 39 42  0  0  0  0  0  0  0  0999 V2000
   51.3930   32.7040   50.8260 N   0  0  0  0  0  0  0  0  0  0  0  0
   51.6240   31.3380   50.4880 C   0  0  0  0  0  0  0  0  0  0  0  0
   51.0630   30.8540   49.4680 O   0  0  0  0  0  0  0  0  0  0  0  0
   52.5120   30.4960   51.3230 C   0  0  0  0  0  0  0  0  0  0  0  0
   52.0010   29.3340   51.9650 C   0  0  0  0  0  0  0  0  0  0  0  0
   52.8310   28.5250   52.7590 C   0  0  0  0  0  0  0  0  0  0  0  0
   54.1640   28.8980   52.8960 C   0  0  0  0  0  0  0  0  0  0  0  0
   55.1180   28.2690   53.6020 N   0  0  0  0  0  0  0  0  0  0  0  0
   56.2410   28.9670   53.4570 N   0  0  0  0  0  0  0  0  0  0  0  0
   56.0050   30.0380   52.6590 C   0  0  0  0  0  0  0  0  0  0  0  0
   57.0390   31.0270   52.2900 C   0  0  0  0  0  0  0  0  0  0  0  0
   57.5270   31.9390   53.2360 C   0  0  0  0  0  0  0  0  0  0  0  0
   58.5010   32.8550   52.8420 C   0  0  0  0  0  0  0  0  0  0  0  0
   58.9590   32.8510   51.5650 N   0  0  0  0  0  0  0  0  0  0  0  0
   58.4810   31.9620   50.6520 C   0  0  0  0  0  0  0  0  0  0  0  0
   58.9160   31.9620   49.4290 N   0  0  0  0  0  0  0  0  0  0  0  0
   59.7000   33.3190   48.6840 S   0  0  0  0  0  0  0  0  0  0  0  0
   61.1580   33.0080   48.5020 O   0  0  0  0  0  0  0  0  0  0  0  0
   59.5630   34.5160   49.5820 O   0  0  0  0  0  0  0  0  0  0  0  0
   58.9820   33.6400   47.1080 C   0  0  0  0  0  0  0  0  0  0  0  0
   59.7140   34.3100   46.1160 C   0  0  0  0  0  0  0  0  0  0  0  0
   59.1330   34.5680   44.8700 C   0  0  0  0  0  0  0  0  0  0  0  0
   57.8230   34.1570   44.6090 C   0  0  0  0  0  0  0  0  0  0  0  0
   57.0920   33.4840   45.5940 C   0  0  0  0  0  0  0  0  0  0  0  0
   57.6710   33.2240   46.8400 C   0  0  0  0  0  0  0  0  0  0  0  0
   57.5310   31.0650   51.0220 N   0  0  0  0  0  0  0  0  0  0  0  0
   54.6710   30.0100   52.2870 C   0  0  0  0  0  0  0  0  0  0  0  0
   53.8760   30.8390   51.4900 C   0  0  0  0  0  0  0  0  0  0  0  0
   51.3970   33.4470   50.0920 H   0  0  0  0  0  0  0  0  0  0  0  0
   50.9419   29.0653   51.8381 H   0  0  0  0  0  0  0  0  0  0  0  0
   52.4393   27.6255   53.2564 H   0  0  0  0  0  0  0  0  0  0  0  0
   57.1488   31.9320   54.2689 H   0  0  0  0  0  0  0  0  0  0  0  0
   58.8983   33.5811   53.5665 H   0  0  0  0  0  0  0  0  0  0  0  0
   60.7459   34.6327   46.3184 H   0  0  0  0  0  0  0  0  0  0  0  0
   59.7080   35.0951   44.0945 H   0  0  0  0  0  0  0  0  0  0  0  0
   57.3668   34.3626   43.6294 H   0  0  0  0  0  0  0  0  0  0  0  0
   56.0614   33.1593   45.3882 H   0  0  0  0  0  0  0  0  0  0  0  0
   57.0958   32.6915   47.6118 H   0  0  0  0  0  0  0  0  0  0  0  0
   54.2979   31.7324   51.0063 H   0  0  0  0  0  0  0  0  0  0  0  0
  1  2  1  0
  2  3  2  0
  2  4  1  0
  4  5  2  0
  5  6  1  0
  6  7  2  0
  7  8  1  0
  8  9  1  0
  9 10  2  0
 10 11  1  0
 11 12  1  0
 12 13  2  0
 13 14  1  0
 14 15  1  0
 15 16  2  3
 16 17  1  0
 17 18  2  0
 17 19  2  0
 17 20  1  0
 20 21  2  0
 21 22  1  0
 22 23  2  0
 23 24  1  0
 24 25  2  0
 15 26  1  0
 10 27  1  0
 27 28  2  0
 28  4  1  0
 27  7  1  0
 26 11  2  0
 25 20  1  0
  1 29  1  0
  5 30  1  0
  6 31  1  0
 12 32  1  0
 13 33  1  0
 21 34  1  0
 22 35  1  0
 23 36  1  0
 24 37  1  0
 25 38  1  0
 28 39  1  0
M  CHG  3   1  -1   8  -1  14  -1
M  END
>  <UniqueID>  (96) 
87

>  <SMILES>  (96) 
[NH-]C(=O)c1ccc2[n-]nc(-c3cc[n-]c(=NS(=O)(=O)c4ccccc4)n3)c2c1

>  <Energy>  (96) 
87.27594274207738

>  <Genealogy>  (96) 
[NH-]C(=O)c1ccc2[n-]nc(-c3cc[n-]c(=NS(=O)(=O)c4ccccc4)n3)c2c1 (protonated)
[NH-]C(=O)c1ccc2[n-]nc(-c3cc[n-]c(=NS(=O)(=O)c4ccccc4)n3)c2c1 (3D coordinates assigned)
[NH-]C(=O)c1ccc2[n-]nc(-c3cc[n-]c(=NS(=O)(=O)c4ccccc4)n3)c2c1 (optimized conformer: 87.27594274207738 kcal/mol)

>  <smiles>  (96) 
NC(=O)c1ccc2[nH]nc(-c3cc[nH]c(=NS(=O)(=O)c4ccccc4)n3)c2c1

>  <score_type>  (96) 
oracle

>  <origin>  (96) 
adg

>  <m_score__min__energy>  (96) 
-14.75

>  <m_primary>  (96) 
energy

$$$$
