0:0
     RDKit          3D

 33 34  0  0  0  0  0  0  0  0999 V2000
   56.7260   24.7900   44.8520 C   0  0  0  0  0  0  0  0  0  0  0  0
   56.1360   25.2900   46.1660 C   0  0  0  0  0  0  0  0  0  0  0  0
   55.6390   26.6540   46.0190 N   0  0  0  0  0  0  0  0  0  0  0  0
   56.4380   27.7430   45.5470 C   0  0  0  0  0  0  0  0  0  0  0  0
   57.6950   27.6800   45.6100 O   0  0  0  0  0  0  0  0  0  0  0  0
   55.7900   28.9170   45.0370 N   0  0  0  0  0  0  0  0  0  0  0  0
   56.4730   29.9950   44.3740 C   0  0  0  0  0  0  0  0  0  0  0  0
   56.4180   30.1510   42.9780 C   0  0  0  0  0  0  0  0  0  0  0  0
   57.0740   31.2170   42.3620 C   0  0  0  0  0  0  0  0  0  0  0  0
   57.7790   32.1470   43.1290 C   0  0  0  0  0  0  0  0  0  0  0  0
   57.8280   32.0240   44.5290 C   0  0  0  0  0  0  0  0  0  0  0  0
   58.5680   33.0190   45.3470 C   0  0  0  0  0  0  0  0  0  0  0  0
   58.9680   32.7090   46.6610 C   0  0  0  0  0  0  0  0  0  0  0  0
   59.6640   33.6490   47.4290 C   0  0  0  0  0  0  0  0  0  0  0  0
   59.9690   34.9030   46.8960 C   0  0  0  0  0  0  0  0  0  0  0  0
   59.5780   35.2220   45.5940 C   0  0  0  0  0  0  0  0  0  0  0  0
   58.8800   34.2880   44.8220 C   0  0  0  0  0  0  0  0  0  0  0  0
   57.1640   30.9470   45.1420 C   0  0  0  0  0  0  0  0  0  0  0  0
   57.5497   24.0919   45.0620 H   0  0  0  0  0  0  0  0  0  0  0  0
   55.9463   24.2735   44.2730 H   0  0  0  0  0  0  0  0  0  0  0  0
   57.1076   25.6439   44.2730 H   0  0  0  0  0  0  0  0  0  0  0  0
   55.3056   24.6326   46.4629 H   0  0  0  0  0  0  0  0  0  0  0  0
   56.9226   25.2798   46.9349 H   0  0  0  0  0  0  0  0  0  0  0  0
   54.7720   29.0300   45.2410 H   0  0  0  0  0  0  0  0  0  0  0  0
   55.8549   29.4290   42.3684 H   0  0  0  0  0  0  0  0  0  0  0  0
   57.0358   31.3254   41.2680 H   0  0  0  0  0  0  0  0  0  0  0  0
   58.2992   32.9809   42.6350 H   0  0  0  0  0  0  0  0  0  0  0  0
   58.7320   31.7223   47.0861 H   0  0  0  0  0  0  0  0  0  0  0  0
   59.9716   33.3995   48.4552 H   0  0  0  0  0  0  0  0  0  0  0  0
   60.5173   35.6396   47.5017 H   0  0  0  0  0  0  0  0  0  0  0  0
   59.8195   36.2099   45.1748 H   0  0  0  0  0  0  0  0  0  0  0  0
   58.5726   34.5462   43.7979 H   0  0  0  0  0  0  0  0  0  0  0  0
   57.1858   30.8485   46.2374 H   0  0  0  0  0  0  0  0  0  0  0  0
  1  2  1  0
  2  3  1  0
  3  4  1  0
  4  5  2  0
  4  6  1  0
  6  7  1  0
  7  8  2  0
  8  9  1  0
  9 10  2  0
 10 11  1  0
 11 12  1  0
 12 13  2  0
 13 14  1  0
 14 15  2  0
 15 16  1  0
 16 17  2  0
 11 18  2  0
 18  7  1  0
 17 12  1  0
  1 19  1  0
  1 20  1  0
  1 21  1  0
  2 22  1  0
  2 23  1  0
  6 24  1  0
  8 25  1  0
  9 26  1  0
 10 27  1  0
 13 28  1  0
 14 29  1  0
 15 30  1  0
 16 31  1  0
 17 32  1  0
 18 33  1  0
M  CHG  1   3  -1
M  END
>  <UniqueID>  (1) 
1

>  <SMILES>  (1) 
CC[N-]C(=O)Nc1cccc(-c2ccccc2)c1

>  <Energy>  (1) 
37.18107908672059

>  <Genealogy>  (1) 
CC[N-]C(=O)Nc1cccc(-c2ccccc2)c1 (protonated)
CC[N-]C(=O)Nc1cccc(-c2ccccc2)c1 (3D coordinates assigned)
CC[N-]C(=O)Nc1cccc(-c2ccccc2)c1 (optimized conformer: 37.18107908672059 kcal/mol)

>  <smiles>  (1) 
CCNC(=O)Nc1cccc(-c2ccccc2)c1

>  <score_type>  (1) 
oracle

>  <origin>  (1) 
adg

>  <m_score__min__energy>  (1) 
-9.4199999999999999

>  <m_primary>  (1) 
energy

$$$$
1:0
     RDKit          3D

 42 43  0  0  0  0  0  0  0  0999 V2000
   57.4740   33.8640   46.0330 C   0  0  0  0  0  0  0  0  0  0  0  0
   57.5210   32.6040   45.1600 C   0  0  0  0  0  0  0  0  0  0  0  0
   57.7280   31.3460   45.9100 N   0  0  0  0  0  0  0  0  0  0  0  0
   57.6990   30.1520   45.0420 C   0  0  0  0  0  0  0  0  0  0  0  0
   56.2980   29.6220   44.8870 C   0  0  0  0  0  0  0  0  0  0  0  0
   55.4190   30.3760   44.3960 O   0  0  0  0  0  0  0  0  0  0  0  0
   55.9290   28.2790   45.2410 N   0  0  0  0  0  0  0  0  0  0  0  0
   56.7990   27.2100   45.6370 C   0  0  0  0  0  0  0  0  0  0  0  0
   58.0010   27.0270   44.9420 C   0  0  0  0  0  0  0  0  0  0  0  0
   58.8700   25.9900   45.2960 C   0  0  0  0  0  0  0  0  0  0  0  0
   58.5310   25.1160   46.3320 C   0  0  0  0  0  0  0  0  0  0  0  0
   57.3150   25.2670   47.0030 C   0  0  0  0  0  0  0  0  0  0  0  0
   56.4430   26.3020   46.6490 C   0  0  0  0  0  0  0  0  0  0  0  0
   59.1650   31.3810   46.9140 S   0  0  0  0  0  0  0  0  0  0  0  0
   58.9030   32.1770   48.1640 O   0  0  0  0  0  0  0  0  0  0  0  0
   60.2840   32.0400   46.1580 O   0  0  0  0  0  0  0  0  0  0  0  0
   59.6810   29.7460   47.3340 C   0  0  0  0  0  0  0  0  0  0  0  0
   60.3320   28.8140   46.5450 C   0  0  0  0  0  0  0  0  0  0  0  0
   60.7600   28.9650   45.1200 C   0  0  0  0  0  0  0  0  0  0  0  0
   60.5190   27.6980   47.2750 N   0  0  0  0  0  0  0  0  0  0  0  0
   60.0160   27.8950   48.4580 O   0  0  0  0  0  0  0  0  0  0  0  0
   59.4990   29.1000   48.5430 C   0  0  0  0  0  0  0  0  0  0  0  0
   58.8390   29.6480   49.7640 C   0  0  0  0  0  0  0  0  0  0  0  0
   57.4848   33.5753   47.0944 H   0  0  0  0  0  0  0  0  0  0  0  0
   58.3493   34.4937   45.8154 H   0  0  0  0  0  0  0  0  0  0  0  0
   56.5542   34.4267   45.8154 H   0  0  0  0  0  0  0  0  0  0  0  0
   56.5680   32.5270   44.6161 H   0  0  0  0  0  0  0  0  0  0  0  0
   58.3885   32.7173   44.4933 H   0  0  0  0  0  0  0  0  0  0  0  0
   58.0924   30.4203   44.0504 H   0  0  0  0  0  0  0  0  0  0  0  0
   58.3167   29.3696   45.5071 H   0  0  0  0  0  0  0  0  0  0  0  0
   58.2628   27.7020   44.1139 H   0  0  0  0  0  0  0  0  0  0  0  0
   59.8211   25.8624   44.7584 H   0  0  0  0  0  0  0  0  0  0  0  0
   59.2214   24.3092   46.6192 H   0  0  0  0  0  0  0  0  0  0  0  0
   57.0429   24.5713   47.8105 H   0  0  0  0  0  0  0  0  0  0  0  0
   55.4765   26.4054   47.1639 H   0  0  0  0  0  0  0  0  0  0  0  0
   61.7968   29.3308   45.0854 H   0  0  0  0  0  0  0  0  0  0  0  0
   60.6978   27.9907   44.6133 H   0  0  0  0  0  0  0  0  0  0  0  0
   60.1002   29.6846   44.6133 H   0  0  0  0  0  0  0  0  0  0  0  0
   60.9810   26.8150   46.9650 H   0  0  0  0  0  0  0  0  0  0  0  0
   59.3297   29.2406   50.6602 H   0  0  0  0  0  0  0  0  0  0  0  0
   58.9241   30.7447   49.7659 H   0  0  0  0  0  0  0  0  0  0  0  0
   57.7766   29.3627   49.7659 H   0  0  0  0  0  0  0  0  0  0  0  0
  1  2  1  0
  2  3  1  0
  3  4  1  0
  4  5  1  0
  5  6  2  0
  5  7  1  0
  7  8  1  0
  8  9  2  0
  9 10  1  0
 10 11  2  0
 11 12  1  0
 12 13  2  0
  3 14  1  0
 14 15  2  0
 14 16  2  0
 14 17  1  0
 17 18  1  0
 18 19  1  0
 18 20  2  0
 20 21  1  0
 21 22  1  0
 22 23  1  0
 13  8  1  0
 22 17  2  0
  1 24  1  0
  1 25  1  0
  1 26  1  0
  2 27  1  0
  2 28  1  0
  4 29  1  0
  4 30  1  0
  9 31  1  0
 10 32  1  0
 11 33  1  0
 12 34  1  0
 13 35  1  0
 19 36  1  0
 19 37  1  0
 19 38  1  0
 20 39  1  0
 23 40  1  0
 23 41  1  0
 23 42  1  0
M  CHG  2   7  -1  20   1
M  END
>  <UniqueID>  (2) 
2

>  <SMILES>  (2) 
CCN(CC(=O)[N-]c1ccccc1)S(=O)(=O)c1c(C)[nH+]oc1C

>  <Energy>  (2) 
73.83880987757117

>  <Genealogy>  (2) 
CCN(CC(=O)[N-]c1ccccc1)S(=O)(=O)c1c(C)[nH+]oc1C (protonated)
CCN(CC(=O)[N-]c1ccccc1)S(=O)(=O)c1c(C)[nH+]oc1C (3D coordinates assigned)
CCN(CC(=O)[N-]c1ccccc1)S(=O)(=O)c1c(C)[nH+]oc1C (optimized conformer: 73.83880987757117 kcal/mol)

>  <smiles>  (2) 
CCN(CC(=O)Nc1ccccc1)S(=O)(=O)c1c(C)noc1C

>  <score_type>  (2) 
oracle

>  <origin>  (2) 
adg

>  <m_score__min__energy>  (2) 
-8.7400000000000002

>  <m_primary>  (2) 
energy

$$$$
2:0
     RDKit          3D

 34 35  0  0  0  0  0  0  0  0999 V2000
   57.7820   33.1439   47.8673 H   0  0  0  0  0  0  0  0  0  0  0  0
   57.7770   32.9170   46.7910 C   0  0  0  0  0  0  0  0  0  0  0  0
   57.8080   31.6250   46.3690 N   0  0  0  0  0  0  0  0  0  0  0  0
   57.8010   31.2930   45.0470 C   0  0  0  0  0  0  0  0  0  0  0  0
   57.8330   30.0460   44.6700 N   0  0  0  0  0  0  0  0  0  0  0  0
   56.8070   29.0550   44.8470 C   0  0  0  0  0  0  0  0  0  0  0  0
   55.5970   29.3810   44.9940 O   0  0  0  0  0  0  0  0  0  0  0  0
   57.1960   27.6110   44.8870 C   0  0  0  0  0  0  0  0  0  0  0  0
   56.8846   27.1257   43.9503 H   0  0  0  0  0  0  0  0  0  0  0  0
   58.2872   27.5387   45.0057 H   0  0  0  0  0  0  0  0  0  0  0  0
   56.5210   26.9090   46.0670 C   0  0  0  0  0  0  0  0  0  0  0  0
   57.1594   26.0803   46.4074 H   0  0  0  0  0  0  0  0  0  0  0  0
   56.3781   27.6385   46.8778 H   0  0  0  0  0  0  0  0  0  0  0  0
   55.2140   26.3790   45.6750 N   0  0  0  0  0  0  0  0  0  0  0  0
   55.0820   24.6790   46.0310 S   0  0  0  0  0  0  0  0  0  0  0  0
   55.6020   24.4250   47.4180 O   0  0  0  0  0  0  0  0  0  0  0  0
   53.6440   24.2520   45.9710 O   0  0  0  0  0  0  0  0  0  0  0  0
   56.0240   23.7310   44.8930 C   0  0  0  0  0  0  0  0  0  0  0  0
   57.4650   22.9420   45.2480 S   0  0  0  0  0  0  0  0  0  0  0  0
   57.6670   22.2600   43.7230 C   0  0  0  0  0  0  0  0  0  0  0  0
   58.5046   21.6189   43.4111 H   0  0  0  0  0  0  0  0  0  0  0  0
   56.5960   22.6440   42.9240 C   0  0  0  0  0  0  0  0  0  0  0  0
   56.4846   22.3304   41.8756 H   0  0  0  0  0  0  0  0  0  0  0  0
   55.6730   23.4670   43.5790 C   0  0  0  0  0  0  0  0  0  0  0  0
   54.7647   23.8626   43.1010 H   0  0  0  0  0  0  0  0  0  0  0  0
   57.7620   32.3150   44.0740 C   0  0  0  0  0  0  0  0  0  0  0  0
   57.7710   31.9890   42.6050 C   0  0  0  0  0  0  0  0  0  0  0  0
   57.8011   30.8975   42.4718 H   0  0  0  0  0  0  0  0  0  0  0  0
   56.8614   32.3908   42.1347 H   0  0  0  0  0  0  0  0  0  0  0  0
   58.6570   32.4404   42.1347 H   0  0  0  0  0  0  0  0  0  0  0  0
   57.7320   33.6510   44.5000 C   0  0  0  0  0  0  0  0  0  0  0  0
   57.7029   34.4628   43.7583 H   0  0  0  0  0  0  0  0  0  0  0  0
   57.7390   33.9530   45.8620 C   0  0  0  0  0  0  0  0  0  0  0  0
   57.7147   34.9999   46.1986 H   0  0  0  0  0  0  0  0  0  0  0  0
  1  2  1  0
  2  3  1  0
  3  4  1  0
  4  5  2  0
  5  6  1  0
  6  7  2  0
  6  8  1  0
  8  9  1  0
  8 10  1  0
  8 11  1  0
 11 12  1  0
 11 13  1  0
 11 14  1  0
 14 15  1  0
 15 16  2  0
 15 17  2  0
 15 18  1  0
 18 19  1  0
 19 20  1  0
 20 21  1  0
 20 22  2  0
 22 23  1  0
 22 24  1  0
 24 25  1  0
  4 26  1  0
 26 27  1  0
 27 28  1  0
 27 29  1  0
 27 30  1  0
 26 31  2  0
 31 32  1  0
 31 33  1  0
 33 34  1  0
 33  2  2  0
 24 18  2  0
M  CHG  2   3  -1  14  -1
M  END
>  <UniqueID>  (3) 
3

>  <SMILES>  (3) 
Cc1ccc[n-]/c1=N\C(=O)CC[N-]S(=O)(=O)c1cccs1

>  <Energy>  (3) 
59.43881340201174

>  <Genealogy>  (3) 
Cc1ccc[n-]c1=NC(=O)CC[N-]S(=O)(=O)c1cccs1 (protonated)
Cc1ccc[n-]/c1=N\C(=O)CC[N-]S(=O)(=O)c1cccs1 (cis-trans isomerization)
Cc1ccc[n-]/c1=N\C(=O)CC[N-]S(=O)(=O)c1cccs1 (3D coordinates assigned)
Cc1ccc[n-]/c1=N\C(=O)CC[N-]S(=O)(=O)c1cccs1 (optimized conformer: 59.43881340201174 kcal/mol)

>  <smiles>  (3) 
Cc1ccc[nH]c1=NC(=O)CCNS(=O)(=O)c1cccs1

>  <score_type>  (3) 
oracle

>  <origin>  (3) 
adg

>  <m_score__min__energy>  (3) 
-11.050000000000001

>  <m_primary>  (3) 
energy

$$$$
3:0
     RDKit          3D

 36 38  0  0  0  0  0  0  0  0999 V2000
   55.1040   29.3760   44.6500 O   0  0  0  0  0  0  0  0  0  0  0  0
   56.3280   29.6690   44.6960 C   0  0  0  0  0  0  0  0  0  0  0  0
   56.7140   31.0430   44.5570 N   0  0  0  0  0  0  0  0  0  0  0  0
   57.5570   31.7720   45.4590 C   0  0  0  0  0  0  0  0  0  0  0  0
   58.1870   31.1450   46.5480 C   0  0  0  0  0  0  0  0  0  0  0  0
   59.0180   31.8780   47.3990 C   0  0  0  0  0  0  0  0  0  0  0  0
   59.2340   33.2480   47.1730 C   0  0  0  0  0  0  0  0  0  0  0  0
   60.1210   34.0140   48.0730 C   0  0  0  0  0  0  0  0  0  0  0  0
   59.6330   34.9590   48.7490 O   0  0  0  0  0  0  0  0  0  0  0  0
   61.5250   33.7200   48.1770 N   0  0  0  0  0  0  0  0  0  0  0  0
   62.3640   34.2810   49.2230 C   0  0  0  0  0  0  0  0  0  0  0  0
   63.7750   33.7990   48.9190 C   0  0  0  0  0  0  0  0  0  0  0  0
   63.7590   33.3760   47.4540 C   0  0  0  0  0  0  0  0  0  0  0  0
   62.3020   33.0730   47.1290 C   0  0  0  0  0  0  0  0  0  0  0  0
   58.6410   33.8610   46.0580 C   0  0  0  0  0  0  0  0  0  0  0  0
   57.8100   33.1250   45.2070 C   0  0  0  0  0  0  0  0  0  0  0  0
   57.3150   28.6050   44.9580 C   0  0  0  0  0  0  0  0  0  0  0  0
   58.6220   28.5790   44.4840 C   0  0  0  0  0  0  0  0  0  0  0  0
   59.3210   27.4200   44.8440 C   0  0  0  0  0  0  0  0  0  0  0  0
   58.5680   26.5230   45.5900 C   0  0  0  0  0  0  0  0  0  0  0  0
   57.0320   27.1720   45.8000 S   0  0  0  0  0  0  0  0  0  0  0  0
   58.0250   30.0725   46.7310 H   0  0  0  0  0  0  0  0  0  0  0  0
   59.5056   31.3802   48.2501 H   0  0  0  0  0  0  0  0  0  0  0  0
   62.3208   35.3799   49.2017 H   0  0  0  0  0  0  0  0  0  0  0  0
   62.0329   33.9652   50.2233 H   0  0  0  0  0  0  0  0  0  0  0  0
   64.5000   34.6112   49.0759 H   0  0  0  0  0  0  0  0  0  0  0  0
   64.0720   32.9699   49.5781 H   0  0  0  0  0  0  0  0  0  0  0  0
   64.1332   34.1899   46.8156 H   0  0  0  0  0  0  0  0  0  0  0  0
   64.4049   32.5035   47.2760 H   0  0  0  0  0  0  0  0  0  0  0  0
   62.0348   33.4832   46.1439 H   0  0  0  0  0  0  0  0  0  0  0  0
   62.1102   31.9906   47.0890 H   0  0  0  0  0  0  0  0  0  0  0  0
   58.8307   34.9249   45.8526 H   0  0  0  0  0  0  0  0  0  0  0  0
   57.3523   33.6130   44.3339 H   0  0  0  0  0  0  0  0  0  0  0  0
   59.0635   29.3892   43.8851 H   0  0  0  0  0  0  0  0  0  0  0  0
   60.3685   27.2374   44.5622 H   0  0  0  0  0  0  0  0  0  0  0  0
   58.9168   25.5542   45.9770 H   0  0  0  0  0  0  0  0  0  0  0  0
  1  2  2  0
  2  3  1  0
  3  4  1  0
  4  5  2  0
  5  6  1  0
  6  7  2  0
  7  8  1  0
  8  9  2  0
  8 10  1  0
 10 11  1  0
 11 12  1  0
 12 13  1  0
 13 14  1  0
  7 15  1  0
 15 16  2  0
  2 17  1  0
 17 18  2  0
 18 19  1  0
 19 20  2  0
 20 21  1  0
 16  4  1  0
 21 17  1  0
 14 10  1  0
  5 22  1  0
  6 23  1  0
 11 24  1  0
 11 25  1  0
 12 26  1  0
 12 27  1  0
 13 28  1  0
 13 29  1  0
 14 30  1  0
 14 31  1  0
 15 32  1  0
 16 33  1  0
 18 34  1  0
 19 35  1  0
 20 36  1  0
M  CHG  1   3  -1
M  END
>  <UniqueID>  (4) 
4

>  <SMILES>  (4) 
O=C([N-]c1ccc(C(=O)N2CCCC2)cc1)c1cccs1

>  <Energy>  (4) 
72.51536447408324

>  <Genealogy>  (4) 
O=C([N-]c1ccc(C(=O)N2CCCC2)cc1)c1cccs1 (protonated)
O=C([N-]c1ccc(C(=O)N2CCCC2)cc1)c1cccs1 (3D coordinates assigned)
O=C([N-]c1ccc(C(=O)N2CCCC2)cc1)c1cccs1 (nonaromatic ring conformer: 72.51536447408324 kcal/mol)

>  <smiles>  (4) 
O=C(Nc1ccc(C(=O)N2CCCC2)cc1)c1cccs1

>  <score_type>  (4) 
oracle

>  <origin>  (4) 
adg

>  <m_score__min__energy>  (4) 
-9.7200000000000006

>  <m_primary>  (4) 
energy

$$$$
4:0
     RDKit          3D

 35 37  0  0  0  0  0  0  0  0999 V2000
   61.0057   26.8236   49.0904 H   0  0  0  0  0  0  0  0  0  0  0  0
   60.3350   27.0160   48.2400 C   0  0  0  0  0  0  0  0  0  0  0  0
   60.5070   26.3180   47.0420 C   0  0  0  0  0  0  0  0  0  0  0  0
   61.3175   25.5802   46.9482 H   0  0  0  0  0  0  0  0  0  0  0  0
   59.6520   26.5550   45.9630 C   0  0  0  0  0  0  0  0  0  0  0  0
   59.7986   26.0106   45.0185 H   0  0  0  0  0  0  0  0  0  0  0  0
   58.6030   27.4880   46.0790 C   0  0  0  0  0  0  0  0  0  0  0  0
   57.7260   27.7700   44.9760 N   0  0  0  0  0  0  0  0  0  0  0  0
   57.1630   26.9810   44.5850 H   0  0  0  0  0  0  0  0  0  0  0  0
   57.5270   29.0800   44.4150 C   0  0  0  0  0  0  0  0  0  0  0  0
   56.1570   29.4380   43.9880 C   0  0  0  0  0  0  0  0  0  0  0  0
   55.2070   29.3310   44.8070 O   0  0  0  0  0  0  0  0  0  0  0  0
   55.8940   30.0360   42.6400 C   0  0  0  0  0  0  0  0  0  0  0  0
   55.4539   31.0367   42.7623 H   0  0  0  0  0  0  0  0  0  0  0  0
   56.8396   30.1168   42.0839 H   0  0  0  0  0  0  0  0  0  0  0  0
   55.1953   29.3936   42.0839 H   0  0  0  0  0  0  0  0  0  0  0  0
   58.5450   29.8940   44.2790 N   0  0  0  0  0  0  0  0  0  0  0  0
   59.1540   29.8000   43.4350 H   0  0  0  0  0  0  0  0  0  0  0  0
   58.8780   30.9810   45.1590 C   0  0  0  0  0  0  0  0  0  0  0  0
   58.3980   32.2430   45.0220 N   0  0  0  0  0  0  0  0  0  0  0  0
   58.9490   33.0710   45.9450 C   0  0  0  0  0  0  0  0  0  0  0  0
   58.6460   34.4270   46.0680 C   0  0  0  0  0  0  0  0  0  0  0  0
   57.9138   34.9006   45.3975 H   0  0  0  0  0  0  0  0  0  0  0  0
   59.2940   35.1770   47.0650 C   0  0  0  0  0  0  0  0  0  0  0  0
   59.0664   36.2471   47.1794 H   0  0  0  0  0  0  0  0  0  0  0  0
   60.2340   34.5650   47.9190 C   0  0  0  0  0  0  0  0  0  0  0  0
   60.7365   35.1609   48.6952 H   0  0  0  0  0  0  0  0  0  0  0  0
   60.5330   33.1990   47.7850 C   0  0  0  0  0  0  0  0  0  0  0  0
   61.2656   32.7122   48.4455 H   0  0  0  0  0  0  0  0  0  0  0  0
   59.8750   32.4800   46.7920 C   0  0  0  0  0  0  0  0  0  0  0  0
   60.0320   30.8570   46.3920 S   0  0  0  0  0  0  0  0  0  0  0  0
   58.4530   28.2000   47.2790 C   0  0  0  0  0  0  0  0  0  0  0  0
   57.6561   28.9525   47.3720 H   0  0  0  0  0  0  0  0  0  0  0  0
   59.3100   27.9590   48.3570 C   0  0  0  0  0  0  0  0  0  0  0  0
   59.1774   28.5122   49.2985 H   0  0  0  0  0  0  0  0  0  0  0  0
  1  2  1  0
  2  3  2  0
  3  4  1  0
  3  5  1  0
  5  6  1  0
  5  7  2  0
  7  8  1  0
  8  9  1  0
  8 10  1  0
 10 11  1  0
 11 12  2  0
 11 13  1  0
 13 14  1  0
 13 15  1  0
 13 16  1  0
 10 17  2  0
 17 18  1  0
 17 19  1  0
 19 20  2  0
 20 21  1  0
 21 22  2  0
 22 23  1  0
 22 24  1  0
 24 25  1  0
 24 26  2  0
 26 27  1  0
 26 28  1  0
 28 29  1  0
 28 30  2  0
 30 31  1  0
  7 32  1  0
 32 33  1  0
 32 34  2  0
 34 35  1  0
 34  2  1  0
 31 19  1  0
 30 21  1  0
M  CHG  1  17   1
M  END
>  <UniqueID>  (5) 
5

>  <SMILES>  (5) 
CC(=O)/C(Nc1ccccc1)=[NH+]\c1nc2ccccc2s1

>  <Energy>  (5) 
85.26991535902879

>  <Genealogy>  (5) 
CC(=O)C(Nc1ccccc1)=[NH+]c1nc2ccccc2s1 (protonated)
CC(=O)/C(Nc1ccccc1)=[NH+]\c1nc2ccccc2s1 (cis-trans isomerization)
CC(=O)/C(Nc1ccccc1)=[NH+]\c1nc2ccccc2s1 (3D coordinates assigned)
CC(=O)/C(Nc1ccccc1)=[NH+]\c1nc2ccccc2s1 (optimized conformer: 85.26991535902879 kcal/mol)

>  <smiles>  (5) 
CC(=O)C(=Nc1nc2ccccc2s1)Nc1ccccc1

>  <score_type>  (5) 
oracle

>  <origin>  (5) 
adg

>  <m_score__min__energy>  (5) 
-6.0800000000000001

>  <m_primary>  (5) 
energy

$$$$
5:0
     RDKit          3D

 31 32  0  0  0  0  0  0  0  0999 V2000
   57.8890   31.6820   44.4770 C   0  0  0  0  0  0  0  0  0  0  0  0
   57.1630   30.4110   44.7660 C   0  0  0  0  0  0  0  0  0  0  0  0
   55.8520   30.2250   44.5160 N   0  0  0  0  0  0  0  0  0  0  0  0
   55.5250   28.9920   44.8730 N   0  0  0  0  0  0  0  0  0  0  0  0
   56.6250   28.3800   45.3520 C   0  0  0  0  0  0  0  0  0  0  0  0
   56.6450   26.9740   45.8540 C   0  0  0  0  0  0  0  0  0  0  0  0
   57.6900   29.2560   45.3150 C   0  0  0  0  0  0  0  0  0  0  0  0
   59.3560   28.9300   45.7950 S   0  0  0  0  0  0  0  0  0  0  0  0
   59.6570   27.4620   45.6790 O   0  0  0  0  0  0  0  0  0  0  0  0
   60.2820   29.6790   44.8790 O   0  0  0  0  0  0  0  0  0  0  0  0
   59.6200   29.4570   47.4280 N   0  0  0  0  0  0  0  0  0  0  0  0
   59.2060   30.8500   47.5720 C   0  0  0  0  0  0  0  0  0  0  0  0
   60.3980   31.7400   47.3750 C   0  0  0  0  0  0  0  0  0  0  0  0
   60.2340   33.0360   46.8600 C   0  0  0  0  0  0  0  0  0  0  0  0
   61.3470   33.8530   46.6430 C   0  0  0  0  0  0  0  0  0  0  0  0
   62.6310   33.3780   46.9260 C   0  0  0  0  0  0  0  0  0  0  0  0
   63.7100   34.1720   46.7130 F   0  0  0  0  0  0  0  0  0  0  0  0
   62.8040   32.0830   47.4230 C   0  0  0  0  0  0  0  0  0  0  0  0
   61.6920   31.2630   47.6420 C   0  0  0  0  0  0  0  0  0  0  0  0
   58.1671   32.1688   45.4234 H   0  0  0  0  0  0  0  0  0  0  0  0
   58.7975   31.4617   43.8973 H   0  0  0  0  0  0  0  0  0  0  0  0
   57.2377   32.3526   43.8973 H   0  0  0  0  0  0  0  0  0  0  0  0
   56.6450   26.9774   46.9540 H   0  0  0  0  0  0  0  0  0  0  0  0
   55.7543   26.4416   45.4889 H   0  0  0  0  0  0  0  0  0  0  0  0
   57.5504   26.4672   45.4889 H   0  0  0  0  0  0  0  0  0  0  0  0
   58.4411   31.0867   46.8178 H   0  0  0  0  0  0  0  0  0  0  0  0
   58.7865   31.0097   48.5762 H   0  0  0  0  0  0  0  0  0  0  0  0
   59.2260   33.4095   46.6265 H   0  0  0  0  0  0  0  0  0  0  0  0
   61.2125   34.8712   46.2490 H   0  0  0  0  0  0  0  0  0  0  0  0
   63.8149   31.7086   47.6420 H   0  0  0  0  0  0  0  0  0  0  0  0
   61.8314   30.2411   48.0246 H   0  0  0  0  0  0  0  0  0  0  0  0
  1  2  1  0
  2  3  2  0
  3  4  1  0
  4  5  1  0
  5  6  1  0
  5  7  2  0
  7  8  1  0
  8  9  2  0
  8 10  2  0
  8 11  1  0
 11 12  1  0
 12 13  1  0
 13 14  2  0
 14 15  1  0
 15 16  2  0
 16 17  1  0
 16 18  1  0
 18 19  2  0
  7  2  1  0
 19 13  1  0
  1 20  1  0
  1 21  1  0
  1 22  1  0
  6 23  1  0
  6 24  1  0
  6 25  1  0
 12 26  1  0
 12 27  1  0
 14 28  1  0
 15 29  1  0
 18 30  1  0
 19 31  1  0
M  CHG  2   4  -1  11  -1
M  END
>  <UniqueID>  (6) 
6

>  <SMILES>  (6) 
Cc1n[n-]c(C)c1S(=O)(=O)[N-]Cc1ccc(F)cc1

>  <Energy>  (6) 
56.37932893046244

>  <Genealogy>  (6) 
Cc1n[n-]c(C)c1S(=O)(=O)[N-]Cc1ccc(F)cc1 (protonated)
Cc1n[n-]c(C)c1S(=O)(=O)[N-]Cc1ccc(F)cc1 (3D coordinates assigned)
Cc1n[n-]c(C)c1S(=O)(=O)[N-]Cc1ccc(F)cc1 (optimized conformer: 56.37932893046244 kcal/mol)

>  <smiles>  (6) 
Cc1n[nH]c(C)c1S(=O)(=O)NCc1ccc(F)cc1

>  <score_type>  (6) 
oracle

>  <origin>  (6) 
adg

>  <m_score__min__energy>  (6) 
-9.4600000000000009

>  <m_primary>  (6) 
energy

$$$$
6:0
     RDKit          3D

 45 49  0  0  0  0  0  0  0  0999 V2000
   54.3420   23.9134   45.7498 H   0  0  0  0  0  0  0  0  0  0  0  0
   55.2430   24.4550   45.4260 C   0  0  0  0  0  0  0  0  0  0  0  0
   55.5390   25.6630   45.9760 N   0  0  0  0  0  0  0  0  0  0  0  0
   56.6480   26.3670   45.6230 C   0  0  0  0  0  0  0  0  0  0  0  0
   56.8680   27.6530   46.2250 N   0  0  0  0  0  0  0  0  0  0  0  0
   57.0140   28.7910   45.6110 C   0  0  0  0  0  0  0  0  0  0  0  0
   57.5840   29.8300   46.2740 N   0  0  0  0  0  0  0  0  0  0  0  0
   57.7730   31.0310   45.6710 C   0  0  0  0  0  0  0  0  0  0  0  0
   57.3890   31.2140   44.3290 C   0  0  0  0  0  0  0  0  0  0  0  0
   56.8290   30.1240   43.6580 C   0  0  0  0  0  0  0  0  0  0  0  0
   56.5322   30.2212   42.6033 H   0  0  0  0  0  0  0  0  0  0  0  0
   56.6510   28.9450   44.3070 N   0  0  0  0  0  0  0  0  0  0  0  0
   57.7250   32.4980   43.5830 C   0  0  0  0  0  0  0  0  0  0  0  0
   58.6960   32.3653   43.0834 H   0  0  0  0  0  0  0  0  0  0  0  0
   56.9071   32.6787   42.8700 H   0  0  0  0  0  0  0  0  0  0  0  0
   57.8120   33.7450   44.4970 C   0  0  0  0  0  0  0  0  0  0  0  0
   58.4044   34.5214   43.9908 H   0  0  0  0  0  0  0  0  0  0  0  0
   56.7921   34.1064   44.6950 H   0  0  0  0  0  0  0  0  0  0  0  0
   58.4610   33.4080   45.8040 C   0  0  0  0  0  0  0  0  0  0  0  0
   59.0750   34.2670   46.6360 N   0  0  0  0  0  0  0  0  0  0  0  0
   59.4030   33.5860   47.7260 N   0  0  0  0  0  0  0  0  0  0  0  0
   60.0930   34.1850   48.8620 C   0  0  0  0  0  0  0  0  0  0  0  0
   59.6563   33.8059   49.7977 H   0  0  0  0  0  0  0  0  0  0  0  0
   61.1604   33.9223   48.8227 H   0  0  0  0  0  0  0  0  0  0  0  0
   59.9829   35.2788   48.8227 H   0  0  0  0  0  0  0  0  0  0  0  0
   58.9860   32.3000   47.6130 C   0  0  0  0  0  0  0  0  0  0  0  0
   59.1510   31.2610   48.6450 C   0  0  0  0  0  0  0  0  0  0  0  0
   58.5220   31.3260   50.2040 S   0  0  0  0  0  0  0  0  0  0  0  0
   59.0950   29.8240   50.6980 C   0  0  0  0  0  0  0  0  0  0  0  0
   58.9516   29.3741   51.6915 H   0  0  0  0  0  0  0  0  0  0  0  0
   59.7800   29.2500   49.6360 C   0  0  0  0  0  0  0  0  0  0  0  0
   60.2565   28.2602   49.6926 H   0  0  0  0  0  0  0  0  0  0  0  0
   59.8080   30.0480   48.4860 C   0  0  0  0  0  0  0  0  0  0  0  0
   60.3009   29.7446   47.5506 H   0  0  0  0  0  0  0  0  0  0  0  0
   58.3690   32.1680   46.3810 C   0  0  0  0  0  0  0  0  0  0  0  0
   57.4970   25.8570   44.6260 C   0  0  0  0  0  0  0  0  0  0  0  0
   58.3787   26.4298   44.3027 H   0  0  0  0  0  0  0  0  0  0  0  0
   57.2130   24.6180   44.0490 C   0  0  0  0  0  0  0  0  0  0  0  0
   57.8801   24.2054   43.2778 H   0  0  0  0  0  0  0  0  0  0  0  0
   56.0760   23.8970   44.4520 C   0  0  0  0  0  0  0  0  0  0  0  0
   55.7380   22.6480   43.9110 O   0  0  0  0  0  0  0  0  0  0  0  0
   56.6520   21.7990   43.2250 C   0  0  0  0  0  0  0  0  0  0  0  0
   57.2535   21.2402   43.9571 H   0  0  0  0  0  0  0  0  0  0  0  0
   56.0931   21.0923   42.5939 H   0  0  0  0  0  0  0  0  0  0  0  0
   57.3156   22.4084   42.5939 H   0  0  0  0  0  0  0  0  0  0  0  0
  1  2  1  0
  2  3  2  0
  3  4  1  0
  4  5  1  0
  5  6  2  0
  6  7  1  0
  7  8  2  0
  8  9  1  0
  9 10  2  0
 10 11  1  0
 10 12  1  0
  9 13  1  0
 13 14  1  0
 13 15  1  0
 13 16  1  0
 16 17  1  0
 16 18  1  0
 16 19  1  0
 19 20  2  0
 20 21  1  0
 21 22  1  0
 22 23  1  0
 22 24  1  0
 22 25  1  0
 21 26  1  0
 26 27  1  0
 27 28  1  0
 28 29  1  0
 29 30  1  0
 29 31  2  0
 31 32  1  0
 31 33  1  0
 33 34  1  0
 26 35  2  0
  4 36  2  0
 36 37  1  0
 36 38  1  0
 38 39  1  0
 38 40  2  0
 40 41  1  0
 41 42  1  0
 42 43  1  0
 42 44  1  0
 42 45  1  0
 40  2  1  0
 12  6  1  0
 35 19  1  0
 35  8  1  0
 33 27  2  0
M  CHG  1  12  -1
M  END
>  <UniqueID>  (7) 
7

>  <SMILES>  (7) 
COc1ccc(/N=c2/nc3c(c[n-]2)CCc2nn(C)c(-c4cccs4)c2-3)nc1

>  <Energy>  (7) 
125.2221583653825

>  <Genealogy>  (7) 
COc1ccc(N=c2nc3c(c[n-]2)CCc2nn(C)c(-c4cccs4)c2-3)nc1 (protonated)
COc1ccc(/N=c2/nc3c(c[n-]2)CCc2nn(C)c(-c4cccs4)c2-3)nc1 (cis-trans isomerization)
COc1ccc(/N=c2/nc3c(c[n-]2)CCc2nn(C)c(-c4cccs4)c2-3)nc1 (3D coordinates assigned)
COc1ccc(/N=c2/nc3c(c[n-]2)CCc2nn(C)c(-c4cccs4)c2-3)nc1 (nonaromatic ring conformer: 125.2221583653825 kcal/mol)

>  <smiles>  (7) 
COc1ccc(N=c2nc3c(c[nH]2)CCc2nn(C)c(-c4cccs4)c2-3)nc1

>  <score_type>  (7) 
oracle

>  <origin>  (7) 
adg

>  <m_score__min__energy>  (7) 
-10.35

>  <m_primary>  (7) 
energy

$$$$
7:0
     RDKit          3D

 24 25  0  0  0  0  0  0  0  0999 V2000
   55.1410   29.3360   44.8630 N   0  0  0  0  0  0  0  0  0  0  0  0
   56.1900   29.4320   43.9040 C   0  0  0  0  0  0  0  0  0  0  0  0
   55.9280   29.7610   42.7160 O   0  0  0  0  0  0  0  0  0  0  0  0
   57.6110   29.1830   44.3190 C   0  0  0  0  0  0  0  0  0  0  0  0
   58.0650   29.9320   45.5690 C   0  0  0  0  0  0  0  0  0  0  0  0
   58.4630   29.2350   46.7310 C   0  0  0  0  0  0  0  0  0  0  0  0
   58.8790   29.9160   47.8720 C   0  0  0  0  0  0  0  0  0  0  0  0
   58.9100   31.3070   47.8950 C   0  0  0  0  0  0  0  0  0  0  0  0
   59.3330   31.9510   49.0540 O   0  0  0  0  0  0  0  0  0  0  0  0
   58.5160   32.0400   46.7620 C   0  0  0  0  0  0  0  0  0  0  0  0
   58.5400   33.4470   46.7830 C   0  0  0  0  0  0  0  0  0  0  0  0
   58.1460   34.1770   45.6630 C   0  0  0  0  0  0  0  0  0  0  0  0
   57.7220   33.5180   44.5110 C   0  0  0  0  0  0  0  0  0  0  0  0
   57.6900   32.1230   44.4690 C   0  0  0  0  0  0  0  0  0  0  0  0
   58.0860   31.3560   45.5890 C   0  0  0  0  0  0  0  0  0  0  0  0
   55.1720   28.6180   45.6210 H   0  0  0  0  0  0  0  0  0  0  0  0
   57.7264   28.1054   44.5075 H   0  0  0  0  0  0  0  0  0  0  0  0
   58.2385   29.5554   43.4959 H   0  0  0  0  0  0  0  0  0  0  0  0
   58.4440   28.1352   46.7347 H   0  0  0  0  0  0  0  0  0  0  0  0
   59.1860   29.3492   48.7634 H   0  0  0  0  0  0  0  0  0  0  0  0
   58.8720   33.9742   47.6896 H   0  0  0  0  0  0  0  0  0  0  0  0
   58.1699   35.2764   45.6886 H   0  0  0  0  0  0  0  0  0  0  0  0
   57.4111   34.0995   43.6306 H   0  0  0  0  0  0  0  0  0  0  0  0
   57.3527   31.6144   43.5538 H   0  0  0  0  0  0  0  0  0  0  0  0
  1  2  1  0
  2  3  2  0
  2  4  1  0
  4  5  1  0
  5  6  2  0
  6  7  1  0
  7  8  2  0
  8  9  1  0
  8 10  1  0
 10 11  2  0
 11 12  1  0
 12 13  2  0
 13 14  1  0
 14 15  2  0
 15  5  1  0
 15 10  1  0
  1 16  1  0
  4 17  1  0
  4 18  1  0
  6 19  1  0
  7 20  1  0
 11 21  1  0
 12 22  1  0
 13 23  1  0
 14 24  1  0
M  CHG  2   1  -1   9  -1
M  END
>  <UniqueID>  (8) 
8

>  <SMILES>  (8) 
[NH-]C(=O)Cc1ccc([O-])c2ccccc12

>  <Energy>  (8) 
32.926184342303785

>  <Genealogy>  (8) 
[NH-]C(=O)Cc1ccc([O-])c2ccccc12 (protonated)
[NH-]C(=O)Cc1ccc([O-])c2ccccc12 (3D coordinates assigned)
[NH-]C(=O)Cc1ccc([O-])c2ccccc12 (optimized conformer: 32.926184342303785 kcal/mol)

>  <smiles>  (8) 
NC(=O)Cc1ccc(O)c2ccccc12

>  <score_type>  (8) 
oracle

>  <origin>  (8) 
adg

>  <m_score__min__energy>  (8) 
-10.300000000000001

>  <m_primary>  (8) 
energy

$$$$
8:0
     RDKit          3D

 46 47  0  0  0  0  0  0  0  0999 V2000
   57.3130   31.8210   41.9320 C   0  0  0  0  0  0  0  0  0  0  0  0
   58.1480   32.5200   43.0030 C   0  0  0  0  0  0  0  0  0  0  0  0
   57.6760   32.1710   44.3520 N   0  0  0  0  0  0  0  0  0  0  0  0
   57.3520   33.2540   45.2950 C   0  0  0  0  0  0  0  0  0  0  0  0
   58.4740   34.2890   45.3410 C   0  0  0  0  0  0  0  0  0  0  0  0
   57.5340   30.7840   44.7380 C   0  0  0  0  0  0  0  0  0  0  0  0
   58.5860   30.1090   45.3820 C   0  0  0  0  0  0  0  0  0  0  0  0
   58.4480   28.7720   45.7640 C   0  0  0  0  0  0  0  0  0  0  0  0
   57.2660   28.0760   45.4910 C   0  0  0  0  0  0  0  0  0  0  0  0
   57.1480   26.7120   45.9190 N   0  0  0  0  0  0  0  0  0  0  0  0
   56.0030   25.8640   45.7620 C   0  0  0  0  0  0  0  0  0  0  0  0
   54.8640   26.3410   46.0040 O   0  0  0  0  0  0  0  0  0  0  0  0
   56.1380   24.4120   45.3530 C   0  0  0  0  0  0  0  0  0  0  0  0
   57.3320   24.1760   44.4940 N   0  0  0  0  0  0  0  0  0  0  0  0
   58.0360   22.9120   44.8430 C   0  0  0  0  0  0  0  0  0  0  0  0
   57.5360   21.7080   44.0180 C   0  0  0  0  0  0  0  0  0  0  0  0
   56.1980   21.9020   43.6140 O   0  0  0  0  0  0  0  0  0  0  0  0
   56.1230   22.9550   42.6690 C   0  0  0  0  0  0  0  0  0  0  0  0
   56.9780   24.1860   43.0580 C   0  0  0  0  0  0  0  0  0  0  0  0
   56.2000   28.7490   44.8720 C   0  0  0  0  0  0  0  0  0  0  0  0
   56.3360   30.0870   44.4910 C   0  0  0  0  0  0  0  0  0  0  0  0
   56.5549   31.1864   42.4143 H   0  0  0  0  0  0  0  0  0  0  0  0
   56.8148   32.5753   41.3052 H   0  0  0  0  0  0  0  0  0  0  0  0
   57.9679   31.1979   41.3052 H   0  0  0  0  0  0  0  0  0  0  0  0
   59.1985   32.2109   42.8985 H   0  0  0  0  0  0  0  0  0  0  0  0
   58.0505   33.6074   42.8685 H   0  0  0  0  0  0  0  0  0  0  0  0
   56.4216   33.7452   44.9738 H   0  0  0  0  0  0  0  0  0  0  0  0
   57.2307   32.8217   46.2992 H   0  0  0  0  0  0  0  0  0  0  0  0
   58.7204   34.5163   46.3887 H   0  0  0  0  0  0  0  0  0  0  0  0
   59.3638   33.8879   44.8337 H   0  0  0  0  0  0  0  0  0  0  0  0
   58.1459   35.2083   44.8337 H   0  0  0  0  0  0  0  0  0  0  0  0
   59.5277   30.6391   45.5873 H   0  0  0  0  0  0  0  0  0  0  0  0
   59.2742   28.2637   46.2827 H   0  0  0  0  0  0  0  0  0  0  0  0
   56.2271   23.7957   46.2598 H   0  0  0  0  0  0  0  0  0  0  0  0
   55.2451   24.1418   44.7702 H   0  0  0  0  0  0  0  0  0  0  0  0
   58.0040   24.9700   44.6340 H   0  0  0  0  0  0  0  0  0  0  0  0
   59.1119   23.0447   44.6563 H   0  0  0  0  0  0  0  0  0  0  0  0
   57.8318   22.6981   45.9025 H   0  0  0  0  0  0  0  0  0  0  0  0
   58.1696   21.5932   43.1261 H   0  0  0  0  0  0  0  0  0  0  0  0
   57.5895   20.8042   44.6428 H   0  0  0  0  0  0  0  0  0  0  0  0
   56.4745   22.5782   41.6972 H   0  0  0  0  0  0  0  0  0  0  0  0
   55.0743   23.2847   42.6296 H   0  0  0  0  0  0  0  0  0  0  0  0
   57.9031   24.1796   42.4630 H   0  0  0  0  0  0  0  0  0  0  0  0
   56.3859   25.0912   42.8576 H   0  0  0  0  0  0  0  0  0  0  0  0
   55.2533   28.2206   44.6861 H   0  0  0  0  0  0  0  0  0  0  0  0
   55.4995   30.5999   43.9938 H   0  0  0  0  0  0  0  0  0  0  0  0
  1  2  1  0
  2  3  1  0
  3  4  1  0
  4  5  1  0
  3  6  1  0
  6  7  2  0
  7  8  1  0
  8  9  2  0
  9 10  1  0
 10 11  1  0
 11 12  2  0
 11 13  1  0
 13 14  1  0
 14 15  1  0
 15 16  1  0
 16 17  1  0
 17 18  1  0
 18 19  1  0
  9 20  1  0
 20 21  2  0
 21  6  1  0
 19 14  1  0
  1 22  1  0
  1 23  1  0
  1 24  1  0
  2 25  1  0
  2 26  1  0
  4 27  1  0
  4 28  1  0
  5 29  1  0
  5 30  1  0
  5 31  1  0
  7 32  1  0
  8 33  1  0
 13 34  1  0
 13 35  1  0
 14 36  1  0
 15 37  1  0
 15 38  1  0
 16 39  1  0
 16 40  1  0
 18 41  1  0
 18 42  1  0
 19 43  1  0
 19 44  1  0
 20 45  1  0
 21 46  1  0
M  CHG  2  10  -1  14   1
M  END
>  <UniqueID>  (9) 
9

>  <SMILES>  (9) 
CCN(CC)c1ccc([N-]C(=O)C[NH+]2CCOCC2)cc1

>  <Energy>  (9) 
60.91688584256892

>  <Genealogy>  (9) 
CCN(CC)c1ccc([N-]C(=O)C[NH+]2CCOCC2)cc1 (protonated)
CCN(CC)c1ccc([N-]C(=O)C[NH+]2CCOCC2)cc1 (3D coordinates assigned)
CCN(CC)c1ccc([N-]C(=O)C[NH+]2CCOCC2)cc1 (nonaromatic ring conformer: 60.91688584256892 kcal/mol)

>  <smiles>  (9) 
CCN(CC)c1ccc(NC(=O)CN2CCOCC2)cc1

>  <score_type>  (9) 
oracle

>  <origin>  (9) 
adg

>  <m_score__min__energy>  (9) 
-6.7999999999999998

>  <m_primary>  (9) 
energy

$$$$
9:0
     RDKit          3D

 35 38  0  0  0  0  0  0  0  0999 V2000
   58.9460   30.8470   48.6430 O   0  0  0  0  0  0  0  0  0  0  0  0
   59.2720   31.8970   49.2590 C   0  0  0  0  0  0  0  0  0  0  0  0
   59.0340   32.1030   50.6360 N   0  0  0  0  0  0  0  0  0  0  0  0
   57.9110   31.7600   51.4880 C   0  0  0  0  0  0  0  0  0  0  0  0
   57.7760   32.9910   52.4350 C   0  0  0  0  0  0  0  0  0  0  0  0
   58.5840   34.0190   51.8520 O   0  0  0  0  0  0  0  0  0  0  0  0
   59.2300   33.4680   50.7740 C   0  0  0  0  0  0  0  0  0  0  0  0
   59.6960   34.1050   49.7500 N   0  0  0  0  0  0  0  0  0  0  0  0
   59.8840   33.1390   48.6510 C   0  0  0  0  0  0  0  0  0  0  0  0
   59.1040   33.5480   47.4020 C   0  0  0  0  0  0  0  0  0  0  0  0
   59.7270   34.3470   46.4210 C   0  0  0  0  0  0  0  0  0  0  0  0
   59.0420   34.7100   45.2570 C   0  0  0  0  0  0  0  0  0  0  0  0
   57.7340   34.2720   45.0490 C   0  0  0  0  0  0  0  0  0  0  0  0
   57.1090   33.4640   46.0010 C   0  0  0  0  0  0  0  0  0  0  0  0
   57.7880   33.0960   47.1670 C   0  0  0  0  0  0  0  0  0  0  0  0
   61.3780   33.0220   48.3550 C   0  0  0  0  0  0  0  0  0  0  0  0
   62.2700   33.8930   49.0120 C   0  0  0  0  0  0  0  0  0  0  0  0
   63.6420   33.8410   48.7500 C   0  0  0  0  0  0  0  0  0  0  0  0
   64.1430   32.9270   47.8220 C   0  0  0  0  0  0  0  0  0  0  0  0
   63.2720   32.0660   47.1510 C   0  0  0  0  0  0  0  0  0  0  0  0
   61.8990   32.1130   47.4090 C   0  0  0  0  0  0  0  0  0  0  0  0
   56.9960   31.6202   50.8936 H   0  0  0  0  0  0  0  0  0  0  0  0
   58.0624   30.8170   52.0337 H   0  0  0  0  0  0  0  0  0  0  0  0
   56.7267   33.3156   52.4948 H   0  0  0  0  0  0  0  0  0  0  0  0
   58.0991   32.7526   53.4591 H   0  0  0  0  0  0  0  0  0  0  0  0
   60.7617   34.6880   46.5728 H   0  0  0  0  0  0  0  0  0  0  0  0
   59.5356   35.3421   44.5041 H   0  0  0  0  0  0  0  0  0  0  0  0
   57.1951   34.5631   44.1353 H   0  0  0  0  0  0  0  0  0  0  0  0
   56.0791   33.1158   45.8333 H   0  0  0  0  0  0  0  0  0  0  0  0
   57.2926   32.4495   47.9063 H   0  0  0  0  0  0  0  0  0  0  0  0
   61.8823   34.6218   49.7390 H   0  0  0  0  0  0  0  0  0  0  0  0
   64.3278   34.5215   49.2760 H   0  0  0  0  0  0  0  0  0  0  0  0
   65.2233   32.8848   47.6192 H   0  0  0  0  0  0  0  0  0  0  0  0
   63.6677   31.3485   46.4171 H   0  0  0  0  0  0  0  0  0  0  0  0
   61.2191   31.4363   46.8706 H   0  0  0  0  0  0  0  0  0  0  0  0
  1  2  2  0
  2  3  1  0
  3  4  1  0
  4  5  1  0
  5  6  1  0
  6  7  1  0
  7  8  2  0
  8  9  1  0
  9 10  1  0
 10 11  2  0
 11 12  1  0
 12 13  2  0
 13 14  1  0
 14 15  2  0
  9 16  1  0
 16 17  2  0
 17 18  1  0
 18 19  2  0
 19 20  1  0
 20 21  2  0
  9  2  1  0
 15 10  1  0
 21 16  1  0
  7  3  1  0
  4 22  1  0
  4 23  1  0
  5 24  1  0
  5 25  1  0
 11 26  1  0
 12 27  1  0
 13 28  1  0
 14 29  1  0
 15 30  1  0
 17 31  1  0
 18 32  1  0
 19 33  1  0
 20 34  1  0
 21 35  1  0
M  END
>  <UniqueID>  (10) 
10

>  <SMILES>  (10) 
O=C1N2CCOC2=NC1(c1ccccc1)c1ccccc1

>  <Energy>  (10) 
96.71712571760425

>  <Genealogy>  (10) 
O=C1N2CCOC2=NC1(c1ccccc1)c1ccccc1 (3D coordinates assigned)
O=C1N2CCOC2=NC1(c1ccccc1)c1ccccc1 (nonaromatic ring conformer: 96.71712571760425 kcal/mol)

>  <smiles>  (10) 
O=C1N2CCOC2=NC1(c1ccccc1)c1ccccc1

>  <score_type>  (10) 
oracle

>  <origin>  (10) 
adg

>  <m_score__min__energy>  (10) 
-7.0199999999999996

>  <m_primary>  (10) 
energy

$$$$
10:0
     RDKit          3D

 44 45  0  0  0  0  0  0  0  0999 V2000
   57.7770   32.3430   41.1610 C   0  0  0  0  0  0  0  0  0  0  0  0
   57.2060   31.4290   42.2400 C   0  0  0  0  0  0  0  0  0  0  0  0
   57.6380   31.8850   43.6050 C   0  0  0  0  0  0  0  0  0  0  0  0
   58.1640   33.1340   43.8810 C   0  0  0  0  0  0  0  0  0  0  0  0
   58.3720   33.1670   45.2470 C   0  0  0  0  0  0  0  0  0  0  0  0
   59.0120   34.2780   46.0200 C   0  0  0  0  0  0  0  0  0  0  0  0
   59.8120   33.7050   47.2080 C   0  0  0  0  0  0  0  0  0  0  0  0
   60.9550   32.8410   46.8220 N   0  0  0  0  0  0  0  0  0  0  0  0
   60.8760   31.4960   47.4180 C   0  0  0  0  0  0  0  0  0  0  0  0
   62.2600   33.4670   47.1070 C   0  0  0  0  0  0  0  0  0  0  0  0
   57.9750   31.9440   45.7500 C   0  0  0  0  0  0  0  0  0  0  0  0
   57.5110   31.1700   44.7480 N   0  0  0  0  0  0  0  0  0  0  0  0
   57.0450   29.7890   44.8970 C   0  0  0  0  0  0  0  0  0  0  0  0
   58.1690   28.8980   45.3560 C   0  0  0  0  0  0  0  0  0  0  0  0
   57.9250   27.8790   46.2930 C   0  0  0  0  0  0  0  0  0  0  0  0
   58.9670   27.0540   46.7260 C   0  0  0  0  0  0  0  0  0  0  0  0
   60.2590   27.2360   46.2250 C   0  0  0  0  0  0  0  0  0  0  0  0
   60.5100   28.2410   45.2870 C   0  0  0  0  0  0  0  0  0  0  0  0
   59.4700   29.0690   44.8510 C   0  0  0  0  0  0  0  0  0  0  0  0
   58.3031   33.1851   41.6345 H   0  0  0  0  0  0  0  0  0  0  0  0
   58.4816   31.7757   40.5351 H   0  0  0  0  0  0  0  0  0  0  0  0
   56.9582   32.7275   40.5351 H   0  0  0  0  0  0  0  0  0  0  0  0
   56.1076   31.4467   42.1842 H   0  0  0  0  0  0  0  0  0  0  0  0
   57.5800   30.4081   42.0732 H   0  0  0  0  0  0  0  0  0  0  0  0
   58.3741   33.9377   43.1600 H   0  0  0  0  0  0  0  0  0  0  0  0
   59.6915   34.8365   45.3594 H   0  0  0  0  0  0  0  0  0  0  0  0
   58.2282   34.9479   46.4034 H   0  0  0  0  0  0  0  0  0  0  0  0
   60.2023   34.5477   47.7975 H   0  0  0  0  0  0  0  0  0  0  0  0
   59.1167   33.0684   47.7748 H   0  0  0  0  0  0  0  0  0  0  0  0
   60.8980   32.7180   45.7820 H   0  0  0  0  0  0  0  0  0  0  0  0
   60.8809   31.5801   48.5148 H   0  0  0  0  0  0  0  0  0  0  0  0
   59.9474   31.0045   47.0921 H   0  0  0  0  0  0  0  0  0  0  0  0
   61.7406   30.8992   47.0921 H   0  0  0  0  0  0  0  0  0  0  0  0
   62.4037   33.5359   48.1954 H   0  0  0  0  0  0  0  0  0  0  0  0
   63.0632   32.8561   46.6691 H   0  0  0  0  0  0  0  0  0  0  0  0
   62.2862   34.4757   46.6691 H   0  0  0  0  0  0  0  0  0  0  0  0
   58.0290   31.6462   46.8076 H   0  0  0  0  0  0  0  0  0  0  0  0
   56.2336   29.7591   45.6392 H   0  0  0  0  0  0  0  0  0  0  0  0
   56.6822   29.4296   43.9227 H   0  0  0  0  0  0  0  0  0  0  0  0
   56.9090   27.7301   46.6875 H   0  0  0  0  0  0  0  0  0  0  0  0
   58.7699   26.2606   47.4620 H   0  0  0  0  0  0  0  0  0  0  0  0
   61.0785   26.5880   46.5691 H   0  0  0  0  0  0  0  0  0  0  0  0
   61.5266   28.3812   44.8909 H   0  0  0  0  0  0  0  0  0  0  0  0
   59.6709   29.8569   44.1102 H   0  0  0  0  0  0  0  0  0  0  0  0
  1  2  1  0
  2  3  1  0
  3  4  2  0
  4  5  1  0
  5  6  1  0
  6  7  1  0
  7  8  1  0
  8  9  1  0
  8 10  1  0
  5 11  2  0
 11 12  1  0
 12 13  1  0
 13 14  1  0
 14 15  2  0
 15 16  1  0
 16 17  2  0
 17 18  1  0
 18 19  2  0
 12  3  1  0
 19 14  1  0
  1 20  1  0
  1 21  1  0
  1 22  1  0
  2 23  1  0
  2 24  1  0
  4 25  1  0
  6 26  1  0
  6 27  1  0
  7 28  1  0
  7 29  1  0
  8 30  1  0
  9 31  1  0
  9 32  1  0
  9 33  1  0
 10 34  1  0
 10 35  1  0
 10 36  1  0
 11 37  1  0
 13 38  1  0
 13 39  1  0
 15 40  1  0
 16 41  1  0
 17 42  1  0
 18 43  1  0
 19 44  1  0
M  CHG  1   8   1
M  END
>  <UniqueID>  (11) 
11

>  <SMILES>  (11) 
CCc1cc(CC[NH+](C)C)cn1Cc1ccccc1

>  <Energy>  (11) 
63.972625212831566

>  <Genealogy>  (11) 
CCc1cc(CC[NH+](C)C)cn1Cc1ccccc1 (protonated)
CCc1cc(CC[NH+](C)C)cn1Cc1ccccc1 (3D coordinates assigned)
CCc1cc(CC[NH+](C)C)cn1Cc1ccccc1 (optimized conformer: 63.972625212831566 kcal/mol)

>  <smiles>  (11) 
CCc1cc(CCN(C)C)cn1Cc1ccccc1

>  <score_type>  (11) 
oracle

>  <origin>  (11) 
adg

>  <m_score__min__energy>  (11) 
-5.1200000000000001

>  <m_primary>  (11) 
energy

$$$$
11:0
     RDKit          3D

 33 34  0  0  0  0  0  0  0  0999 V2000
   51.7844   32.4420   50.1943 H   0  0  0  0  0  0  0  0  0  0  0  0
   52.0070   31.9790   51.1670 C   0  0  0  0  0  0  0  0  0  0  0  0
   53.2080   31.2900   51.3500 C   0  0  0  0  0  0  0  0  0  0  0  0
   53.9253   31.2127   50.5196 H   0  0  0  0  0  0  0  0  0  0  0  0
   53.5070   30.6940   52.5890 C   0  0  0  0  0  0  0  0  0  0  0  0
   54.7850   29.9610   52.7850 C   0  0  0  0  0  0  0  0  0  0  0  0
   54.7940   28.6620   52.7200 N   0  0  0  0  0  0  0  0  0  0  0  0
   54.5480   27.8320   53.8260 C   0  0  0  0  0  0  0  0  0  0  0  0
   54.3460   27.1470   54.7360 N   0  0  0  0  0  0  0  0  0  0  0  0
   56.0080   30.6820   53.0190 N   0  0  0  0  0  0  0  0  0  0  0  0
   56.5590   31.5500   51.9780 C   0  0  0  0  0  0  0  0  0  0  0  0
   56.2810   31.1584   50.9883 H   0  0  0  0  0  0  0  0  0  0  0  0
   56.1556   32.5666   52.0951 H   0  0  0  0  0  0  0  0  0  0  0  0
   58.0850   31.5870   52.1030 C   0  0  0  0  0  0  0  0  0  0  0  0
   58.4922   30.5992   51.8414 H   0  0  0  0  0  0  0  0  0  0  0  0
   58.4758   32.3558   51.4202 H   0  0  0  0  0  0  0  0  0  0  0  0
   58.4740   31.9140   53.4240 O   0  0  0  0  0  0  0  0  0  0  0  0
   58.0730   30.8880   54.3140 C   0  0  0  0  0  0  0  0  0  0  0  0
   58.4826   29.9282   53.9660 H   0  0  0  0  0  0  0  0  0  0  0  0
   58.4528   31.1244   55.3189 H   0  0  0  0  0  0  0  0  0  0  0  0
   56.5450   30.7890   54.3770 C   0  0  0  0  0  0  0  0  0  0  0  0
   56.2585   29.8987   54.9561 H   0  0  0  0  0  0  0  0  0  0  0  0
   56.1383   31.6881   54.8630 H   0  0  0  0  0  0  0  0  0  0  0  0
   52.5710   30.7960   53.6350 C   0  0  0  0  0  0  0  0  0  0  0  0
   52.7875   30.3265   54.6059 H   0  0  0  0  0  0  0  0  0  0  0  0
   51.3590   31.4930   53.4530 C   0  0  0  0  0  0  0  0  0  0  0  0
   50.4070   31.6180   54.4770 O   0  0  0  0  0  0  0  0  0  0  0  0
   49.9440   32.8580   55.0020 C   0  0  0  0  0  0  0  0  0  0  0  0
   49.9585   32.8191   56.1012 H   0  0  0  0  0  0  0  0  0  0  0  0
   50.5993   33.6706   54.6552 H   0  0  0  0  0  0  0  0  0  0  0  0
   48.9165   33.0422   54.6552 H   0  0  0  0  0  0  0  0  0  0  0  0
   51.0880   32.0830   52.2120 C   0  0  0  0  0  0  0  0  0  0  0  0
   49.8990   32.7750   52.0150 O   0  0  0  0  0  0  0  0  0  0  0  0
  1  2  1  0
  2  3  2  0
  3  4  1  0
  3  5  1  0
  5  6  1  0
  6  7  2  0
  7  8  1  0
  8  9  3  0
  6 10  1  0
 10 11  1  0
 11 12  1  0
 11 13  1  0
 11 14  1  0
 14 15  1  0
 14 16  1  0
 14 17  1  0
 17 18  1  0
 18 19  1  0
 18 20  1  0
 18 21  1  0
 21 22  1  0
 21 23  1  0
  5 24  2  0
 24 25  1  0
 24 26  1  0
 26 27  1  0
 27 28  1  0
 28 29  1  0
 28 30  1  0
 28 31  1  0
 26 32  2  0
 32 33  1  0
 32  2  1  0
 21 10  1  0
M  CHG  1  33  -1
M  END
>  <UniqueID>  (12) 
12

>  <SMILES>  (12) 
COc1cc(/C(=N/C#N)N2CCOCC2)ccc1[O-]

>  <Energy>  (12) 
39.34049903431007

>  <Genealogy>  (12) 
COc1cc(C(=NC#N)N2CCOCC2)ccc1[O-] (protonated)
COc1cc(/C(=N/C#N)N2CCOCC2)ccc1[O-] (cis-trans isomerization)
COc1cc(/C(=N/C#N)N2CCOCC2)ccc1[O-] (3D coordinates assigned)
COc1cc(/C(=N/C#N)N2CCOCC2)ccc1[O-] (nonaromatic ring conformer: 39.34049903431007 kcal/mol)

>  <smiles>  (12) 
COc1cc(C(=NC#N)N2CCOCC2)ccc1O

>  <score_type>  (12) 
oracle

>  <origin>  (12) 
adg

>  <m_score__min__energy>  (12) 
-9.8100000000000005

>  <m_primary>  (12) 
energy

$$$$
12:0
     RDKit          3D

 38 40  0  0  1  0  0  0  0  0999 V2000
   63.6330   33.4140   48.9220 C   0  0  0  0  0  0  0  0  0  0  0  0
   62.4240   34.1190   49.0770 O   0  0  0  0  0  0  0  0  0  0  0  0
   61.3670   34.0470   48.1800 C   0  0  0  0  0  0  0  0  0  0  0  0
   61.5090   33.8440   46.8350 C   0  0  0  0  0  0  0  0  0  0  0  0
   58.8450   28.9150   45.3220 C   0  0  0  0  0  0  0  0  0  0  0  0
   57.4910   28.5680   45.3210 C   0  0  0  0  0  0  0  0  0  0  0  0
   57.9900   33.8670   45.6680 N   0  0  0  0  0  0  0  0  0  0  0  0
   57.8010   32.8850   44.8720 C   0  0  0  0  0  0  0  0  0  0  0  0
   58.1520   33.0570   43.5420 C   0  0  0  0  0  0  0  0  0  0  0  0
   57.9370   31.9780   42.7050 C   0  0  0  0  0  0  0  0  0  0  0  0
   57.4130   30.8390   43.1920 N   0  0  0  0  0  0  0  0  0  0  0  0
   57.0780   30.6930   44.4970 C   0  0  0  0  0  0  0  0  0  0  0  0
   56.5830   29.5730   44.8860 N   0  0  0  0  0  0  0  0  0  0  0  0
   59.1370   33.9270   46.5110 C   0  0  0  0  0  0  0  0  0  0  0  0
   60.4180   33.7840   46.0070 C   0  0  0  0  0  0  0  0  0  0  0  0
   59.7710   27.9890   45.7310 C   0  0  0  0  0  0  0  0  0  0  0  0
   59.3680   26.7320   46.1350 C   0  0  0  0  0  0  0  0  0  0  0  0
   60.3340   25.8560   46.5300 F   0  0  0  0  0  0  0  0  0  0  0  0
   58.0300   26.4090   46.1270 C   0  0  0  0  0  0  0  0  0  0  0  0
   58.9810   34.1320   47.8630 C   0  0  0  0  0  0  0  0  0  0  0  0
   57.2780   31.7330   45.3370 N   0  0  0  0  0  0  0  0  0  0  0  0
   57.0620   27.3190   45.7210 C   0  0  0  0  0  0  0  0  0  0  0  0
   60.0920   34.1890   48.6850 C   0  0  0  0  0  0  0  0  0  0  0  0
   64.0464   33.1729   49.9124 H   0  0  0  0  0  0  0  0  0  0  0  0
   63.4461   32.4833   48.3662 H   0  0  0  0  0  0  0  0  0  0  0  0
   64.3509   34.0350   48.3662 H   0  0  0  0  0  0  0  0  0  0  0  0
   62.5167   33.7268   46.4099 H   0  0  0  0  0  0  0  0  0  0  0  0
   59.1638   29.9171   44.9992 H   0  0  0  0  0  0  0  0  0  0  0  0
   58.5786   34.0012   43.1726 H   0  0  0  0  0  0  0  0  0  0  0  0
   58.1951   32.0511   41.6382 H   0  0  0  0  0  0  0  0  0  0  0  0
   57.2750   30.0620   42.5130 H   0  0  0  0  0  0  0  0  0  0  0  0
   60.5625   33.6202   44.9289 H   0  0  0  0  0  0  0  0  0  0  0  0
   60.8397   28.2494   45.7370 H   0  0  0  0  0  0  0  0  0  0  0  0
   57.7192   25.4046   46.4504 H   0  0  0  0  0  0  0  0  0  0  0  0
   57.9739   34.2504   48.2894 H   0  0  0  0  0  0  0  0  0  0  0  0
   57.0260   31.6390   46.3460 H   0  0  0  0  0  0  0  0  0  0  0  0
   55.9944   27.0540   45.7185 H   0  0  0  0  0  0  0  0  0  0  0  0
   59.9554   34.3510   49.7644 H   0  0  0  0  0  0  0  0  0  0  0  0
  1  2  1  0
  2  3  1  0
  3  4  2  0
  4  5  1  0
  5  6  2  0
  6  7  1  0
  7  8  2  0
  8  9  1  0
  9 10  2  0
 10 11  1  0
 11 12  1  0
 12 13  2  0
 13 14  1  0
 14 15  2  0
 15 16  1  0
 16 17  2  0
 17 18  1  0
 17 19  1  0
 19 20  2  0
 12 21  1  0
  6 22  1  0
 22 23  2  0
 23  3  1  0
 21  8  1  0
 20 14  1  0
  1 24  1  0
  1 25  1  0
  1 26  1  0
  4 27  1  0
  5 28  1  0
  9 29  1  0
 10 30  1  0
 11 31  1  0
 15 32  1  0
 16 33  1  0
 19 34  1  0
 20 35  1  0
 21 36  1  0
 22 37  1  0
 23 38  1  0
M  END
>  <smiles>  (13) 
COc1ccc(N=c2cc[nH]c(=Nc3ccc(F)cc3)[nH]2)cc1

>  <score_type>  (13) 
oracle

>  <origin>  (13) 
adg

>  <m_score__min__energy>  (13) 
-7.9100000000000001

>  <m_primary>  (13) 
energy

$$$$
13:0
     RDKit          3D

 36 38  0  0  1  0  0  0  0  0999 V2000
   57.3330   31.9640   42.0240 C   0  0  0  0  0  0  0  0  0  0  0  0
   58.2990   31.7820   43.0180 O   0  0  0  0  0  0  0  0  0  0  0  0
   58.4450   32.5090   44.1720 C   0  0  0  0  0  0  0  0  0  0  0  0
   58.1600   33.8570   44.2350 C   0  0  0  0  0  0  0  0  0  0  0  0
   58.2980   34.6100   45.3780 C   0  0  0  0  0  0  0  0  0  0  0  0
   58.7490   34.0010   46.5520 C   0  0  0  0  0  0  0  0  0  0  0  0
   58.9810   34.4670   47.8060 N   0  0  0  0  0  0  0  0  0  0  0  0
   59.4160   33.4070   48.5440 C   0  0  0  0  0  0  0  0  0  0  0  0
   59.7750   33.5260   49.9820 C   0  0  0  0  0  0  0  0  0  0  0  0
   59.4570   32.2750   47.7520 C   0  0  0  0  0  0  0  0  0  0  0  0
   59.8880   30.9360   48.2370 C   0  0  0  0  0  0  0  0  0  0  0  0
   59.0350   32.6540   46.4920 C   0  0  0  0  0  0  0  0  0  0  0  0
   58.8900   31.9130   45.3330 C   0  0  0  0  0  0  0  0  0  0  0  0
   59.1930   30.5080   45.2900 N   0  0  0  0  0  0  0  0  0  0  0  0
   58.1580   29.7040   45.3010 C   0  0  0  0  0  0  0  0  0  0  0  0
   58.2700   28.4060   45.7030 C   0  0  0  0  0  0  0  0  0  0  0  0
   57.1810   27.5400   45.7200 C   0  0  0  0  0  0  0  0  0  0  0  0
   57.3130   25.8760   46.2320 Cl  0  0  0  0  0  0  0  0  0  0  0  0
   56.0030   28.0810   45.3080 N   0  0  0  0  0  0  0  0  0  0  0  0
   55.9000   29.3630   44.9120 C   0  0  0  0  0  0  0  0  0  0  0  0
   56.9710   30.2050   44.8990 N   0  0  0  0  0  0  0  0  0  0  0  0
   56.3550   32.1483   42.4925 H   0  0  0  0  0  0  0  0  0  0  0  0
   57.6083   32.8261   41.3987 H   0  0  0  0  0  0  0  0  0  0  0  0
   57.2757   31.0609   41.3987 H   0  0  0  0  0  0  0  0  0  0  0  0
   57.8032   34.3568   43.3224 H   0  0  0  0  0  0  0  0  0  0  0  0
   58.0553   35.6828   45.3678 H   0  0  0  0  0  0  0  0  0  0  0  0
   58.8480   35.4640   48.1440 H   0  0  0  0  0  0  0  0  0  0  0  0
   58.9115   33.2398   50.6004 H   0  0  0  0  0  0  0  0  0  0  0  0
   60.6221   32.8606   50.2047 H   0  0  0  0  0  0  0  0  0  0  0  0
   60.0570   34.5657   50.2047 H   0  0  0  0  0  0  0  0  0  0  0  0
   59.8906   30.9278   49.3370 H   0  0  0  0  0  0  0  0  0  0  0  0
   59.1911   30.1699   47.8663 H   0  0  0  0  0  0  0  0  0  0  0  0
   60.9009   30.7203   47.8663 H   0  0  0  0  0  0  0  0  0  0  0  0
   59.2530   28.0313   46.0243 H   0  0  0  0  0  0  0  0  0  0  0  0
   55.1450   27.4890   45.2950 H   0  0  0  0  0  0  0  0  0  0  0  0
   54.9198   29.7432   44.5885 H   0  0  0  0  0  0  0  0  0  0  0  0
  1  2  1  0
  2  3  1  0
  3  4  2  0
  4  5  1  0
  5  6  2  0
  6  7  1  0
  7  8  1  0
  8  9  1  0
  8 10  2  0
 10 11  1  0
 10 12  1  0
 12 13  2  0
 13 14  1  0
 14 15  2  0
 15 16  1  0
 16 17  2  0
 17 18  1  0
 17 19  1  0
 19 20  1  0
 20 21  2  0
 13  3  1  0
 21 15  1  0
 12  6  1  0
  1 22  1  0
  1 23  1  0
  1 24  1  0
  4 25  1  0
  5 26  1  0
  7 27  1  0
  9 28  1  0
  9 29  1  0
  9 30  1  0
 11 31  1  0
 11 32  1  0
 11 33  1  0
 16 34  1  0
 19 35  1  0
 20 36  1  0
M  END
>  <smiles>  (14) 
COc1ccc2[nH]c(C)c(C)c2c1N=c1cc(Cl)[nH]cn1

>  <score_type>  (14) 
oracle

>  <origin>  (14) 
adg

>  <m_score__min__energy>  (14) 
-7.1500000000000004

>  <m_primary>  (14) 
energy

$$$$
14:0
     RDKit          3D

 45 48  0  0  0  0  0  0  0  0999 V2000
   58.0260   34.5430   44.8950 C   0  0  0  0  0  0  0  0  0  0  0  0
   59.2670   34.8670   45.4470 C   0  0  0  0  0  0  0  0  0  0  0  0
   59.5970   34.4380   46.7360 C   0  0  0  0  0  0  0  0  0  0  0  0
   58.6850   33.6720   47.4900 C   0  0  0  0  0  0  0  0  0  0  0  0
   59.0040   33.2240   48.8230 N   0  0  0  0  0  0  0  0  0  0  0  0
   59.7990   33.8430   49.7230 C   0  0  0  0  0  0  0  0  0  0  0  0
   59.8290   33.0770   50.8680 C   0  0  0  0  0  0  0  0  0  0  0  0
   60.5790   33.3640   52.1410 C   0  0  0  0  0  0  0  0  0  0  0  0
   61.9780   32.8630   52.1480 N   0  0  0  0  0  0  0  0  0  0  0  0
   62.9740   33.8920   51.7480 C   0  0  0  0  0  0  0  0  0  0  0  0
   62.7180   34.5260   50.3680 C   0  0  0  0  0  0  0  0  0  0  0  0
   63.1330   33.6480   49.2020 C   0  0  0  0  0  0  0  0  0  0  0  0
   63.1690   34.2470   47.9270 C   0  0  0  0  0  0  0  0  0  0  0  0
   63.4940   33.5030   46.7930 C   0  0  0  0  0  0  0  0  0  0  0  0
   63.7790   32.1460   46.9090 C   0  0  0  0  0  0  0  0  0  0  0  0
   63.7310   31.5260   48.1570 C   0  0  0  0  0  0  0  0  0  0  0  0
   63.3850   32.2490   49.3150 C   0  0  0  0  0  0  0  0  0  0  0  0
   63.4130   31.4920   50.6300 C   0  0  0  0  0  0  0  0  0  0  0  0
   62.1090   31.5690   51.4360 C   0  0  0  0  0  0  0  0  0  0  0  0
   59.0330   31.9830   50.5950 C   0  0  0  0  0  0  0  0  0  0  0  0
   58.5430   32.0960   49.3460 N   0  0  0  0  0  0  0  0  0  0  0  0
   57.4350   33.3580   46.9220 C   0  0  0  0  0  0  0  0  0  0  0  0
   57.1110   33.7900   45.6330 C   0  0  0  0  0  0  0  0  0  0  0  0
   57.7697   34.8806   43.8800 H   0  0  0  0  0  0  0  0  0  0  0  0
   59.9872   35.4616   44.8658 H   0  0  0  0  0  0  0  0  0  0  0  0
   60.5754   34.7001   47.1649 H   0  0  0  0  0  0  0  0  0  0  0  0
   60.3303   34.7937   49.5685 H   0  0  0  0  0  0  0  0  0  0  0  0
   60.6017   34.4536   52.2902 H   0  0  0  0  0  0  0  0  0  0  0  0
   60.0491   32.8353   52.9470 H   0  0  0  0  0  0  0  0  0  0  0  0
   62.1730   32.6540   53.1580 H   0  0  0  0  0  0  0  0  0  0  0  0
   62.9620   34.6931   52.5017 H   0  0  0  0  0  0  0  0  0  0  0  0
   63.9446   33.3787   51.6813 H   0  0  0  0  0  0  0  0  0  0  0  0
   61.6421   34.7363   50.2776 H   0  0  0  0  0  0  0  0  0  0  0  0
   63.3320   35.4372   50.3162 H   0  0  0  0  0  0  0  0  0  0  0  0
   62.9373   35.3174   47.8246 H   0  0  0  0  0  0  0  0  0  0  0  0
   63.5250   33.9891   45.8067 H   0  0  0  0  0  0  0  0  0  0  0  0
   64.0425   31.5616   46.0151 H   0  0  0  0  0  0  0  0  0  0  0  0
   63.9672   30.4548   48.2384 H   0  0  0  0  0  0  0  0  0  0  0  0
   63.6210   30.4338   50.4131 H   0  0  0  0  0  0  0  0  0  0  0  0
   64.1909   31.9652   51.2472 H   0  0  0  0  0  0  0  0  0  0  0  0
   61.2581   31.4529   50.7487 H   0  0  0  0  0  0  0  0  0  0  0  0
   62.1229   30.7652   52.1868 H   0  0  0  0  0  0  0  0  0  0  0  0
   58.8313   31.1520   51.2869 H   0  0  0  0  0  0  0  0  0  0  0  0
   56.7073   32.7675   47.4981 H   0  0  0  0  0  0  0  0  0  0  0  0
   56.1327   33.5361   45.1989 H   0  0  0  0  0  0  0  0  0  0  0  0
  1  2  2  0
  2  3  1  0
  3  4  2  0
  4  5  1  0
  5  6  1  0
  6  7  2  0
  7  8  1  0
  8  9  1  0
  9 10  1  0
 10 11  1  0
 11 12  1  0
 12 13  2  0
 13 14  1  0
 14 15  2  0
 15 16  1  0
 16 17  2  0
 17 18  1  0
 18 19  1  0
  7 20  1  0
 20 21  2  0
  4 22  1  0
 22 23  2  0
 23  1  1  0
 21  5  1  0
 19  9  1  0
 17 12  1  0
  1 24  1  0
  2 25  1  0
  3 26  1  0
  6 27  1  0
  8 28  1  0
  8 29  1  0
  9 30  1  0
 10 31  1  0
 10 32  1  0
 11 33  1  0
 11 34  1  0
 13 35  1  0
 14 36  1  0
 15 37  1  0
 16 38  1  0
 18 39  1  0
 18 40  1  0
 19 41  1  0
 19 42  1  0
 20 43  1  0
 22 44  1  0
 23 45  1  0
M  CHG  1   9   1
M  END
>  <UniqueID>  (15) 
13

>  <SMILES>  (15) 
c1ccc(-n2cc(C[NH+]3CCc4ccccc4CC3)cn2)cc1

>  <Energy>  (15) 
96.4589028181968

>  <Genealogy>  (15) 
c1ccc(-n2cc(C[NH+]3CCc4ccccc4CC3)cn2)cc1 (protonated)
c1ccc(-n2cc(C[NH+]3CCc4ccccc4CC3)cn2)cc1 (3D coordinates assigned)
c1ccc(-n2cc(C[NH+]3CCc4ccccc4CC3)cn2)cc1 (nonaromatic ring conformer: 96.4589028181968 kcal/mol)

>  <smiles>  (15) 
c1ccc(-n2cc(CN3CCc4ccccc4CC3)cn2)cc1

>  <score_type>  (15) 
oracle

>  <origin>  (15) 
adg

>  <m_score__min__energy>  (15) 
-4.71

>  <m_primary>  (15) 
energy

$$$$
15:0
     RDKit          3D

 39 40  0  0  0  0  0  0  0  0999 V2000
   57.4050   32.5180   43.7200 C   0  0  0  0  0  0  0  0  0  0  0  0
   57.9950   31.5670   44.7320 C   0  0  0  0  0  0  0  0  0  0  0  0
   59.1040   31.9520   45.4280 N   0  0  0  0  0  0  0  0  0  0  0  0
   59.6850   31.1550   46.3700 C   0  0  0  0  0  0  0  0  0  0  0  0
   60.8820   31.6240   47.1120 C   0  0  0  0  0  0  0  0  0  0  0  0
   61.5230   32.8260   46.7570 C   0  0  0  0  0  0  0  0  0  0  0  0
   62.6480   33.2630   47.4620 C   0  0  0  0  0  0  0  0  0  0  0  0
   63.1470   32.5080   48.5260 C   0  0  0  0  0  0  0  0  0  0  0  0
   64.5590   33.0590   49.4090 Cl  0  0  0  0  0  0  0  0  0  0  0  0
   62.5170   31.3130   48.8880 C   0  0  0  0  0  0  0  0  0  0  0  0
   61.3910   30.8720   48.1860 C   0  0  0  0  0  0  0  0  0  0  0  0
   59.1450   29.8920   46.6270 C   0  0  0  0  0  0  0  0  0  0  0  0
   58.0310   29.4320   45.9130 C   0  0  0  0  0  0  0  0  0  0  0  0
   57.5600   28.0080   46.1690 C   0  0  0  0  0  0  0  0  0  0  0  0
   58.3380   26.9300   45.3760 C   0  0  0  0  0  0  0  0  0  0  0  0
   58.4630   27.2740   43.8870 C   0  0  0  0  0  0  0  0  0  0  0  0
   59.7170   26.6330   45.9810 C   0  0  0  0  0  0  0  0  0  0  0  0
   57.4280   30.2890   44.9560 C   0  0  0  0  0  0  0  0  0  0  0  0
   56.2220   29.8770   44.2050 C   0  0  0  0  0  0  0  0  0  0  0  0
   56.1770   30.0000   42.9530 O   0  0  0  0  0  0  0  0  0  0  0  0
   55.1450   29.3070   44.8720 O   0  0  0  0  0  0  0  0  0  0  0  0
   56.8949   33.3402   44.2433 H   0  0  0  0  0  0  0  0  0  0  0  0
   58.2082   32.9271   43.0895 H   0  0  0  0  0  0  0  0  0  0  0  0
   56.6818   31.9801   43.0895 H   0  0  0  0  0  0  0  0  0  0  0  0
   59.5310   32.8840   45.2230 H   0  0  0  0  0  0  0  0  0  0  0  0
   61.1361   33.4251   45.9195 H   0  0  0  0  0  0  0  0  0  0  0  0
   63.1418   34.2041   47.1782 H   0  0  0  0  0  0  0  0  0  0  0  0
   62.9082   30.7187   49.7269 H   0  0  0  0  0  0  0  0  0  0  0  0
   60.9002   29.9311   48.4755 H   0  0  0  0  0  0  0  0  0  0  0  0
   59.5994   29.2524   47.3980 H   0  0  0  0  0  0  0  0  0  0  0  0
   57.6727   27.7951   47.2423 H   0  0  0  0  0  0  0  0  0  0  0  0
   56.5144   27.9555   45.8315 H   0  0  0  0  0  0  0  0  0  0  0  0
   57.7360   26.0129   45.4575 H   0  0  0  0  0  0  0  0  0  0  0  0
   58.8368   28.3028   43.7785 H   0  0  0  0  0  0  0  0  0  0  0  0
   59.1651   26.5762   43.4072 H   0  0  0  0  0  0  0  0  0  0  0  0
   57.4768   27.1897   43.4072 H   0  0  0  0  0  0  0  0  0  0  0  0
   59.6468   26.6481   47.0787 H   0  0  0  0  0  0  0  0  0  0  0  0
   60.0571   25.6410   45.6490 H   0  0  0  0  0  0  0  0  0  0  0  0
   60.4353   27.3970   45.6490 H   0  0  0  0  0  0  0  0  0  0  0  0
  1  2  1  0
  2  3  2  0
  3  4  1  0
  4  5  1  0
  5  6  2  0
  6  7  1  0
  7  8  2  0
  8  9  1  0
  8 10  1  0
 10 11  2  0
  4 12  2  0
 12 13  1  0
 13 14  1  0
 14 15  1  0
 15 16  1  0
 15 17  1  0
 13 18  2  0
 18 19  1  0
 19 20  2  0
 19 21  1  0
 18  2  1  0
 11  5  1  0
  1 22  1  0
  1 23  1  0
  1 24  1  0
  3 25  1  0
  6 26  1  0
  7 27  1  0
 10 28  1  0
 11 29  1  0
 12 30  1  0
 14 31  1  0
 14 32  1  0
 15 33  1  0
 16 34  1  0
 16 35  1  0
 16 36  1  0
 17 37  1  0
 17 38  1  0
 17 39  1  0
M  CHG  2   3   1  21  -1
M  END
>  <UniqueID>  (16) 
14

>  <SMILES>  (16) 
Cc1[nH+]c(-c2ccc(Cl)cc2)cc(CC(C)C)c1C(=O)[O-]

>  <Energy>  (16) 
48.24695329548126

>  <Genealogy>  (16) 
Cc1[nH+]c(-c2ccc(Cl)cc2)cc(CC(C)C)c1C(=O)[O-] (protonated)
Cc1[nH+]c(-c2ccc(Cl)cc2)cc(CC(C)C)c1C(=O)[O-] (3D coordinates assigned)
Cc1[nH+]c(-c2ccc(Cl)cc2)cc(CC(C)C)c1C(=O)[O-] (optimized conformer: 48.24695329548126 kcal/mol)

>  <smiles>  (16) 
Cc1nc(-c2ccc(Cl)cc2)cc(CC(C)C)c1C(=O)O

>  <score_type>  (16) 
oracle

>  <origin>  (16) 
adg

>  <m_score__min__energy>  (16) 
-7.8899999999999997

>  <m_primary>  (16) 
energy

$$$$
16:0
     RDKit          3D

 45 47  0  0  0  0  0  0  0  0999 V2000
   58.5035   33.4749   41.4310 H   0  0  0  0  0  0  0  0  0  0  0  0
   58.0920   32.7190   42.1160 C   0  0  0  0  0  0  0  0  0  0  0  0
   58.4450   32.7240   43.4240 N   0  0  0  0  0  0  0  0  0  0  0  0
   58.0000   31.8050   44.3250 C   0  0  0  0  0  0  0  0  0  0  0  0
   58.2870   32.0530   45.5760 N   0  0  0  0  0  0  0  0  0  0  0  0
   57.8000   33.0390   46.5430 C   0  0  0  0  0  0  0  0  0  0  0  0
   56.7392   32.8521   46.7661 H   0  0  0  0  0  0  0  0  0  0  0  0
   58.6150   32.9150   47.8520 C   0  0  0  0  0  0  0  0  0  0  0  0
   57.9137   32.9183   48.6994 H   0  0  0  0  0  0  0  0  0  0  0  0
   59.1889   31.9789   47.7860 H   0  0  0  0  0  0  0  0  0  0  0  0
   59.6320   34.0530   48.0580 C   0  0  0  0  0  0  0  0  0  0  0  0
   59.1000   34.9348   48.4447 H   0  0  0  0  0  0  0  0  0  0  0  0
   60.3932   33.6944   48.7665 H   0  0  0  0  0  0  0  0  0  0  0  0
   60.3270   34.4300   46.8080 N   0  0  0  0  0  0  0  0  0  0  0  0
   61.3150   33.4200   46.3650 C   0  0  0  0  0  0  0  0  0  0  0  0
   60.7811   32.5240   46.0156 H   0  0  0  0  0  0  0  0  0  0  0  0
   61.9168   33.8523   45.5521 H   0  0  0  0  0  0  0  0  0  0  0  0
   62.2380   33.0350   47.4920 C   0  0  0  0  0  0  0  0  0  0  0  0
   63.3730   33.8110   47.7850 C   0  0  0  0  0  0  0  0  0  0  0  0
   63.5845   34.7161   47.1968 H   0  0  0  0  0  0  0  0  0  0  0  0
   64.2340   33.4370   48.8210 C   0  0  0  0  0  0  0  0  0  0  0  0
   65.1203   34.0483   49.0463 H   0  0  0  0  0  0  0  0  0  0  0  0
   63.9700   32.2870   49.5710 C   0  0  0  0  0  0  0  0  0  0  0  0
   64.6469   31.9950   50.3874 H   0  0  0  0  0  0  0  0  0  0  0  0
   62.8460   31.5090   49.2830 C   0  0  0  0  0  0  0  0  0  0  0  0
   62.6399   30.6033   49.8723 H   0  0  0  0  0  0  0  0  0  0  0  0
   61.9820   31.8790   48.2470 C   0  0  0  0  0  0  0  0  0  0  0  0
   61.0991   31.2624   48.0230 H   0  0  0  0  0  0  0  0  0  0  0  0
   59.4030   34.8400   45.7170 C   0  0  0  0  0  0  0  0  0  0  0  0
   59.4597   35.9334   45.6109 H   0  0  0  0  0  0  0  0  0  0  0  0
   59.7275   34.3039   44.8129 H   0  0  0  0  0  0  0  0  0  0  0  0
   57.9280   34.4540   45.9520 C   0  0  0  0  0  0  0  0  0  0  0  0
   57.4773   35.1746   46.6503 H   0  0  0  0  0  0  0  0  0  0  0  0
   57.4095   34.4699   44.9820 H   0  0  0  0  0  0  0  0  0  0  0  0
   57.1950   30.7180   43.8460 C   0  0  0  0  0  0  0  0  0  0  0  0
   56.9770   29.1600   44.6780 S   0  0  0  0  0  0  0  0  0  0  0  0
   57.6190   29.1720   46.0360 O   0  0  0  0  0  0  0  0  0  0  0  0
   55.5100   28.8830   44.8620 O   0  0  0  0  0  0  0  0  0  0  0  0
   57.6300   27.8830   43.7090 N   0  0  0  0  0  0  0  0  0  0  0  0
   56.8310   27.4490   43.1950 H   0  0  0  0  0  0  0  0  0  0  0  0
   58.2470   28.3270   42.9940 H   0  0  0  0  0  0  0  0  0  0  0  0
   56.7720   30.7590   42.5050 C   0  0  0  0  0  0  0  0  0  0  0  0
   56.0826   29.9875   42.1316 H   0  0  0  0  0  0  0  0  0  0  0  0
   57.2110   31.7590   41.6430 C   0  0  0  0  0  0  0  0  0  0  0  0
   56.8635   31.7874   40.5997 H   0  0  0  0  0  0  0  0  0  0  0  0
  1  2  1  0
  2  3  1  0
  3  4  1  0
  4  5  2  0
  5  6  1  0
  6  7  1  0
  6  8  1  0
  8  9  1  0
  8 10  1  0
  8 11  1  0
 11 12  1  0
 11 13  1  0
 11 14  1  0
 14 15  1  0
 15 16  1  0
 15 17  1  0
 15 18  1  0
 18 19  2  0
 19 20  1  0
 19 21  1  0
 21 22  1  0
 21 23  2  0
 23 24  1  0
 23 25  1  0
 25 26  1  0
 25 27  2  0
 27 28  1  0
 14 29  1  0
 29 30  1  0
 29 31  1  0
 29 32  1  0
 32 33  1  0
 32 34  1  0
  4 35  1  0
 35 36  1  0
 36 37  2  0
 36 38  2  0
 36 39  1  0
 39 40  1  0
 39 41  1  0
 35 42  2  0
 42 43  1  0
 42 44  1  0
 44 45  1  0
 44  2  2  0
 32  6  1  0
 27 18  1  0
M  CHG  1   3  -1
M  END
>  <UniqueID>  (17) 
15

>  <SMILES>  (17) 
NS(=O)(=O)c1ccc[n-]/c1=N/C1CCN(Cc2ccccc2)CC1

>  <Energy>  (17) 
75.15388376765125

>  <Genealogy>  (17) 
NS(=O)(=O)c1ccc[n-]c1=NC1CCN(Cc2ccccc2)CC1 (protonated)
NS(=O)(=O)c1ccc[n-]/c1=N/C1CCN(Cc2ccccc2)CC1 (cis-trans isomerization)
NS(=O)(=O)c1ccc[n-]/c1=N/C1CCN(Cc2ccccc2)CC1 (3D coordinates assigned)
NS(=O)(=O)c1ccc[n-]/c1=N/C1CCN(Cc2ccccc2)CC1 (nonaromatic ring conformer: 75.15388376765125 kcal/mol)

>  <smiles>  (17) 
NS(=O)(=O)c1ccc[nH]c1=NC1CCN(Cc2ccccc2)CC1

>  <score_type>  (17) 
oracle

>  <origin>  (17) 
adg

>  <m_score__min__energy>  (17) 
-10.32

>  <m_primary>  (17) 
energy

$$$$
17:0
     RDKit          3D

 23 24  0  0  0  0  0  0  0  0999 V2000
   58.1370   27.0820   42.6160 C   0  0  0  0  0  0  0  0  0  0  0  0
   58.5120   27.1480   44.3950 S   0  0  0  0  0  0  0  0  0  0  0  0
   57.9370   28.8390   44.5630 C   0  0  0  0  0  0  0  0  0  0  0  0
   56.7190   29.2580   44.1860 N   0  0  0  0  0  0  0  0  0  0  0  0
   56.6050   30.5370   44.5060 N   0  0  0  0  0  0  0  0  0  0  0  0
   57.7820   30.8890   45.0690 C   0  0  0  0  0  0  0  0  0  0  0  0
   58.0480   32.2430   45.6590 C   0  0  0  0  0  0  0  0  0  0  0  0
   57.0520   33.3250   45.2690 C   0  0  0  0  0  0  0  0  0  0  0  0
   58.4340   33.3030   44.6390 C   0  0  0  0  0  0  0  0  0  0  0  0
   58.6410   29.8460   45.1160 N   0  0  0  0  0  0  0  0  0  0  0  0
   59.9380   29.7720   45.7840 C   0  0  0  0  0  0  0  0  0  0  0  0
   57.0627   26.8929   42.4745 H   0  0  0  0  0  0  0  0  0  0  0  0
   58.4051   28.0411   42.1489 H   0  0  0  0  0  0  0  0  0  0  0  0
   58.7165   26.2720   42.1489 H   0  0  0  0  0  0  0  0  0  0  0  0
   55.9670   28.6870   43.7400 H   0  0  0  0  0  0  0  0  0  0  0  0
   58.4643   31.8787   46.6098 H   0  0  0  0  0  0  0  0  0  0  0  0
   56.1686   33.0678   44.6661 H   0  0  0  0  0  0  0  0  0  0  0  0
   56.4597   34.0714   45.8186 H   0  0  0  0  0  0  0  0  0  0  0  0
   58.5511   33.0300   43.5799 H   0  0  0  0  0  0  0  0  0  0  0  0
   59.2565   34.0271   44.5436 H   0  0  0  0  0  0  0  0  0  0  0  0
   59.7901   29.7804   46.8740 H   0  0  0  0  0  0  0  0  0  0  0  0
   60.4491   28.8432   45.4905 H   0  0  0  0  0  0  0  0  0  0  0  0
   60.5515   30.6366   45.4905 H   0  0  0  0  0  0  0  0  0  0  0  0
  1  2  1  0
  2  3  1  0
  3  4  2  0
  4  5  1  0
  5  6  2  0
  6  7  1  0
  7  8  1  0
  8  9  1  0
  6 10  1  0
 10 11  1  0
 10  3  1  0
  9  7  1  0
  1 12  1  0
  1 13  1  0
  1 14  1  0
  4 15  1  0
  7 16  1  0
  8 17  1  0
  8 18  1  0
  9 19  1  0
  9 20  1  0
 11 21  1  0
 11 22  1  0
 11 23  1  0
M  CHG  1   4   1
M  END
>  <UniqueID>  (18) 
16

>  <SMILES>  (18) 
CSc1[nH+]nc(C2CC2)n1C

>  <Energy>  (18) 
315.5225656527591

>  <Genealogy>  (18) 
CSc1[nH+]nc(C2CC2)n1C (protonated)
CSc1[nH+]nc(C2CC2)n1C (3D coordinates assigned)
CSc1[nH+]nc(C2CC2)n1C (nonaromatic ring conformer: 315.5225656527591 kcal/mol)

>  <smiles>  (18) 
CSc1nnc(C2CC2)n1C

>  <score_type>  (18) 
oracle

>  <origin>  (18) 
adg

>  <m_score__min__energy>  (18) 
-3.7799999999999998

>  <m_primary>  (18) 
energy

$$$$
18:0
     RDKit          3D

 27 30  0  0  0  0  0  0  0  0999 V2000
   55.1440   25.1870   46.3330 O   0  0  0  0  0  0  0  0  0  0  0  0
   56.0900   25.9380   45.9570 C   0  0  0  0  0  0  0  0  0  0  0  0
   57.3850   25.6320   45.7620 N   0  0  0  0  0  0  0  0  0  0  0  0
   57.9880   26.7600   45.3670 N   0  0  0  0  0  0  0  0  0  0  0  0
   57.0750   27.7380   45.3220 C   0  0  0  0  0  0  0  0  0  0  0  0
   57.2400   29.1480   44.9500 C   0  0  0  0  0  0  0  0  0  0  0  0
   56.8140   29.5210   43.6960 C   0  0  0  0  0  0  0  0  0  0  0  0
   56.9890   30.8730   43.3830 C   0  0  0  0  0  0  0  0  0  0  0  0
   57.5470   31.6990   44.2980 C   0  0  0  0  0  0  0  0  0  0  0  0
   57.8690   33.4650   44.1200 S   0  0  0  0  0  0  0  0  0  0  0  0
   58.5860   33.6050   45.8060 C   0  0  0  0  0  0  0  0  0  0  0  0
   59.0920   34.7160   46.4400 C   0  0  0  0  0  0  0  0  0  0  0  0
   59.5850   34.5910   47.7210 C   0  0  0  0  0  0  0  0  0  0  0  0
   59.5280   33.3310   48.2780 C   0  0  0  0  0  0  0  0  0  0  0  0
   59.0260   32.2420   47.6400 C   0  0  0  0  0  0  0  0  0  0  0  0
   58.5110   32.3380   46.3220 C   0  0  0  0  0  0  0  0  0  0  0  0
   57.9820   31.3740   45.5490 C   0  0  0  0  0  0  0  0  0  0  0  0
   57.8030   30.0010   45.8660 C   0  0  0  0  0  0  0  0  0  0  0  0
   55.9490   27.2190   45.6790 O   0  0  0  0  0  0  0  0  0  0  0  0
   57.7850   24.6870   45.9060 H   0  0  0  0  0  0  0  0  0  0  0  0
   56.3672   28.8062   42.9893 H   0  0  0  0  0  0  0  0  0  0  0  0
   56.6760   31.2610   42.4024 H   0  0  0  0  0  0  0  0  0  0  0  0
   59.1030   35.6913   45.9313 H   0  0  0  0  0  0  0  0  0  0  0  0
   60.0011   35.4493   48.2689 H   0  0  0  0  0  0  0  0  0  0  0  0
   59.9121   33.1998   49.3004 H   0  0  0  0  0  0  0  0  0  0  0  0
   59.0188   31.2695   48.1540 H   0  0  0  0  0  0  0  0  0  0  0  0
   58.1167   29.6201   46.8491 H   0  0  0  0  0  0  0  0  0  0  0  0
  1  2  2  0
  2  3  1  0
  3  4  1  0
  4  5  2  0
  5  6  1  0
  6  7  2  0
  7  8  1  0
  8  9  2  0
  9 10  1  0
 10 11  1  0
 11 12  2  0
 12 13  1  0
 13 14  2  0
 14 15  1  0
 15 16  2  0
 16 17  1  0
 17 18  2  0
  5 19  1  0
 19  2  1  0
 18  6  1  0
 17  9  1  0
 16 11  1  0
  3 20  1  0
  7 21  1  0
  8 22  1  0
 12 23  1  0
 13 24  1  0
 14 25  1  0
 15 26  1  0
 18 27  1  0
M  END
>  <smiles>  (19) 
O=c1[nH]nc(-c2ccc3sc4ccccc4c3c2)o1

>  <score_type>  (19) 
oracle

>  <origin>  (19) 
adg

>  <m_score__min__energy>  (19) 
-8

>  <m_primary>  (19) 
energy

$$$$
19:0
     RDKit          3D

 24 24  0  0  0  0  0  0  0  0999 V2000
   57.7450   31.4180   43.4880 C   0  0  0  0  0  0  0  0  0  0  0  0
   56.8270   30.4650   43.3420 C   0  0  0  0  0  0  0  0  0  0  0  0
   56.2510   29.7370   44.4940 C   0  0  0  0  0  0  0  0  0  0  0  0
   55.0610   29.3270   44.4520 O   0  0  0  0  0  0  0  0  0  0  0  0
   57.0120   29.5140   45.6890 N   0  0  0  0  0  0  0  0  0  0  0  0
   57.7560   28.3240   45.9850 C   0  0  0  0  0  0  0  0  0  0  0  0
   59.1340   28.4410   46.1900 C   0  0  0  0  0  0  0  0  0  0  0  0
   59.9100   27.3120   46.4440 C   0  0  0  0  0  0  0  0  0  0  0  0
   59.3140   26.0530   46.5060 C   0  0  0  0  0  0  0  0  0  0  0  0
   57.9270   25.9100   46.3370 C   0  0  0  0  0  0  0  0  0  0  0  0
   57.3160   24.5380   46.4430 C   0  0  0  0  0  0  0  0  0  0  0  0
   57.1300   27.0570   46.0930 C   0  0  0  0  0  0  0  0  0  0  0  0
   55.6990   26.9480   46.0050 N   0  0  0  0  0  0  0  0  0  0  0  0
   58.1470   31.9345   42.6039 H   0  0  0  0  0  0  0  0  0  0  0  0
   58.1015   31.6890   44.4927 H   0  0  0  0  0  0  0  0  0  0  0  0
   56.4844   30.2096   42.3284 H   0  0  0  0  0  0  0  0  0  0  0  0
   59.6093   29.4322   46.1504 H   0  0  0  0  0  0  0  0  0  0  0  0
   60.9947   27.4141   46.5959 H   0  0  0  0  0  0  0  0  0  0  0  0
   59.9355   25.1640   46.6889 H   0  0  0  0  0  0  0  0  0  0  0  0
   57.1969   24.2706   47.5033 H   0  0  0  0  0  0  0  0  0  0  0  0
   56.3319   24.5359   45.9516 H   0  0  0  0  0  0  0  0  0  0  0  0
   57.9728   23.8051   45.9516 H   0  0  0  0  0  0  0  0  0  0  0  0
   55.1450   26.3690   46.6720 H   0  0  0  0  0  0  0  0  0  0  0  0
   55.1540   27.4960   45.3030 H   0  0  0  0  0  0  0  0  0  0  0  0
  1  2  2  0
  2  3  1  0
  3  4  2  0
  3  5  1  0
  5  6  1  0
  6  7  2  0
  7  8  1  0
  8  9  2  0
  9 10  1  0
 10 11  1  0
 10 12  2  0
 12 13  1  0
 12  6  1  0
  1 14  1  0
  1 15  1  0
  2 16  1  0
  7 17  1  0
  8 18  1  0
  9 19  1  0
 11 20  1  0
 11 21  1  0
 11 22  1  0
 13 23  1  0
 13 24  1  0
M  CHG  1   5  -1
M  END
>  <UniqueID>  (20) 
17

>  <SMILES>  (20) 
C=CC(=O)[N-]c1cccc(C)c1N

>  <Energy>  (20) 
28.85186261731178

>  <Genealogy>  (20) 
C=CC(=O)[N-]c1cccc(C)c1N (protonated)
C=CC(=O)[N-]c1cccc(C)c1N (3D coordinates assigned)
C=CC(=O)[N-]c1cccc(C)c1N (optimized conformer: 28.85186261731178 kcal/mol)

>  <smiles>  (20) 
C=CC(=O)Nc1cccc(C)c1N

>  <score_type>  (20) 
oracle

>  <origin>  (20) 
adg

>  <m_score__min__energy>  (20) 
-7.9800000000000004

>  <m_primary>  (20) 
energy

$$$$
20:0
     RDKit          3D

 37 39  0  0  0  0  0  0  0  0999 V2000
   57.3860   31.3740   43.1720 C   0  0  0  0  0  0  0  0  0  0  0  0
   58.0130   31.2070   44.5330 C   0  0  0  0  0  0  0  0  0  0  0  0
   58.5140   29.9600   44.9100 C   0  0  0  0  0  0  0  0  0  0  0  0
   59.0730   29.7850   46.1750 C   0  0  0  0  0  0  0  0  0  0  0  0
   59.4880   28.6370   46.5000 O   0  0  0  0  0  0  0  0  0  0  0  0
   59.1580   30.8350   47.0540 N   0  0  0  0  0  0  0  0  0  0  0  0
   59.7270   30.6030   48.3590 C   0  0  0  0  0  0  0  0  0  0  0  0
   58.8920   30.4850   49.4820 C   0  0  0  0  0  0  0  0  0  0  0  0
   59.4390   30.2420   50.7440 C   0  0  0  0  0  0  0  0  0  0  0  0
   60.8220   30.1050   50.8940 C   0  0  0  0  0  0  0  0  0  0  0  0
   61.6590   30.2080   49.7800 C   0  0  0  0  0  0  0  0  0  0  0  0
   61.1170   30.4510   48.5150 C   0  0  0  0  0  0  0  0  0  0  0  0
   61.9430   30.5660   47.4440 F   0  0  0  0  0  0  0  0  0  0  0  0
   58.6900   32.0820   46.7030 C   0  0  0  0  0  0  0  0  0  0  0  0
   58.8150   33.4860   47.8500 S   0  0  0  0  0  0  0  0  0  0  0  0
   60.6010   33.6160   47.7180 C   0  0  0  0  0  0  0  0  0  0  0  0
   61.3790   33.7100   48.8780 C   0  0  0  0  0  0  0  0  0  0  0  0
   62.7710   33.8120   48.7860 C   0  0  0  0  0  0  0  0  0  0  0  0
   63.3880   33.8360   47.5310 C   0  0  0  0  0  0  0  0  0  0  0  0
   62.6120   33.7700   46.3700 C   0  0  0  0  0  0  0  0  0  0  0  0
   61.2210   33.6680   46.4620 C   0  0  0  0  0  0  0  0  0  0  0  0
   58.0860   32.2780   45.4410 C   0  0  0  0  0  0  0  0  0  0  0  0
   57.5190   33.5630   45.0910 C   0  0  0  0  0  0  0  0  0  0  0  0
   57.0630   34.5900   44.8110 N   0  0  0  0  0  0  0  0  0  0  0  0
   56.3289   31.6556   43.2873 H   0  0  0  0  0  0  0  0  0  0  0  0
   57.9170   32.1620   42.6179 H   0  0  0  0  0  0  0  0  0  0  0  0
   57.4547   30.4263   42.6179 H   0  0  0  0  0  0  0  0  0  0  0  0
   58.4677   29.1143   44.2081 H   0  0  0  0  0  0  0  0  0  0  0  0
   57.8025   30.5844   49.3672 H   0  0  0  0  0  0  0  0  0  0  0  0
   58.7805   30.1583   51.6211 H   0  0  0  0  0  0  0  0  0  0  0  0
   61.2513   29.9161   51.8890 H   0  0  0  0  0  0  0  0  0  0  0  0
   62.7470   30.0976   49.8989 H   0  0  0  0  0  0  0  0  0  0  0  0
   60.8940   33.7036   49.8653 H   0  0  0  0  0  0  0  0  0  0  0  0
   63.3800   33.8733   49.7000 H   0  0  0  0  0  0  0  0  0  0  0  0
   64.4833   33.9068   47.4575 H   0  0  0  0  0  0  0  0  0  0  0  0
   63.0967   33.7984   45.3829 H   0  0  0  0  0  0  0  0  0  0  0  0
   60.6117   33.6285   45.5470 H   0  0  0  0  0  0  0  0  0  0  0  0
  1  2  1  0
  2  3  2  0
  3  4  1  0
  4  5  2  0
  4  6  1  0
  6  7  1  0
  7  8  2  0
  8  9  1  0
  9 10  2  0
 10 11  1  0
 11 12  2  0
 12 13  1  0
  6 14  1  0
 14 15  1  0
 15 16  1  0
 16 17  2  0
 17 18  1  0
 18 19  2  0
 19 20  1  0
 20 21  2  0
 14 22  2  0
 22 23  1  0
 23 24  3  0
 22  2  1  0
 12  7  1  0
 21 16  1  0
  1 25  1  0
  1 26  1  0
  1 27  1  0
  3 28  1  0
  8 29  1  0
  9 30  1  0
 10 31  1  0
 11 32  1  0
 17 33  1  0
 18 34  1  0
 19 35  1  0
 20 36  1  0
 21 37  1  0
M  END
>  <UniqueID>  (21) 
18

>  <SMILES>  (21) 
Cc1cc(=O)n(-c2ccccc2F)c(Sc2ccccc2)c1C#N

>  <Energy>  (21) 
47.36445728822012

>  <Genealogy>  (21) 
Cc1cc(=O)n(-c2ccccc2F)c(Sc2ccccc2)c1C#N (3D coordinates assigned)
Cc1cc(=O)n(-c2ccccc2F)c(Sc2ccccc2)c1C#N (optimized conformer: 47.36445728822012 kcal/mol)

>  <smiles>  (21) 
Cc1cc(=O)n(-c2ccccc2F)c(Sc2ccccc2)c1C#N

>  <score_type>  (21) 
oracle

>  <origin>  (21) 
adg

>  <m_score__min__energy>  (21) 
-6.7300000000000004

>  <m_primary>  (21) 
energy

$$$$
21:0
     RDKit          3D

 21 22  0  0  0  0  0  0  0  0999 V2000
   58.2931   34.0502   48.1929 H   0  0  0  0  0  0  0  0  0  0  0  0
   58.3630   33.8760   47.1090 C   0  0  0  0  0  0  0  0  0  0  0  0
   59.2090   34.6860   46.3220 C   0  0  0  0  0  0  0  0  0  0  0  0
   59.7941   35.4872   46.7971 H   0  0  0  0  0  0  0  0  0  0  0  0
   59.3100   34.4770   44.9350 C   0  0  0  0  0  0  0  0  0  0  0  0
   59.9678   35.1045   44.3157 H   0  0  0  0  0  0  0  0  0  0  0  0
   58.5540   33.4530   44.3660 C   0  0  0  0  0  0  0  0  0  0  0  0
   57.7250   32.6610   45.1410 C   0  0  0  0  0  0  0  0  0  0  0  0
   57.6090   32.8480   46.5170 C   0  0  0  0  0  0  0  0  0  0  0  0
   56.9473   32.2104   47.1217 H   0  0  0  0  0  0  0  0  0  0  0  0
   57.0840   31.6990   44.2580 C   0  0  0  0  0  0  0  0  0  0  0  0
   56.2360   30.7810   44.6010 N   0  0  0  0  0  0  0  0  0  0  0  0
   56.6380   29.6460   45.2670 O   0  0  0  0  0  0  0  0  0  0  0  0
   57.3740   28.6420   44.5890 C   0  0  0  0  0  0  0  0  0  0  0  0
   57.8576   27.9822   45.3244 H   0  0  0  0  0  0  0  0  0  0  0  0
   56.6934   28.0513   43.9582 H   0  0  0  0  0  0  0  0  0  0  0  0
   58.1421   29.1133   43.9582 H   0  0  0  0  0  0  0  0  0  0  0  0
   57.6030   31.9960   42.9230 C   0  0  0  0  0  0  0  0  0  0  0  0
   57.3030   31.3930   41.8600 O   0  0  0  0  0  0  0  0  0  0  0  0
   58.5190   33.0870   42.9860 N   0  0  0  0  0  0  0  0  0  0  0  0
   59.0460   33.5230   42.1970 H   0  0  0  0  0  0  0  0  0  0  0  0
  1  2  1  0
  2  3  2  0
  3  4  1  0
  3  5  1  0
  5  6  1  0
  5  7  2  0
  7  8  1  0
  8  9  2  0
  9 10  1  0
  8 11  1  0
 11 12  2  0
 12 13  1  0
 13 14  1  0
 14 15  1  0
 14 16  1  0
 14 17  1  0
 11 18  1  0
 18 19  2  0
 18 20  1  0
 20 21  1  0
  9  2  1  0
 20  7  1  0
M  END
>  <UniqueID>  (22) 
19

>  <SMILES>  (22) 
CO/N=C1\C(=O)Nc2ccccc21

>  <Energy>  (22) 
49.21961901425192

>  <Genealogy>  (22) 
CO/N=C1\C(=O)Nc2ccccc21 (cis-trans isomerization)
CO/N=C1\C(=O)Nc2ccccc21 (3D coordinates assigned)
CO/N=C1\C(=O)Nc2ccccc21 (nonaromatic ring conformer: 49.21961901425192 kcal/mol)

>  <smiles>  (22) 
CON=C1C(=O)Nc2ccccc21

>  <score_type>  (22) 
oracle

>  <origin>  (22) 
adg

>  <m_score__min__energy>  (22) 
-5.8700000000000001

>  <m_primary>  (22) 
energy

$$$$
22:0
     RDKit          3D

 36 37  0  0  0  0  0  0  0  0999 V2000
   60.1050   34.7210   46.6370 O   0  0  0  0  0  0  0  0  0  0  0  0
   60.2080   33.4730   46.7960 C   0  0  0  0  0  0  0  0  0  0  0  0
   61.2960   32.9430   47.5720 N   0  0  0  0  0  0  0  0  0  0  0  0
   62.2660   33.7990   48.2550 C   0  0  0  0  0  0  0  0  0  0  0  0
   63.6810   33.2460   48.0970 C   0  0  0  0  0  0  0  0  0  0  0  0
   63.6670   31.8780   48.3000 F   0  0  0  0  0  0  0  0  0  0  0  0
   64.5290   33.8280   49.0220 F   0  0  0  0  0  0  0  0  0  0  0  0
   64.1510   33.5050   46.8220 F   0  0  0  0  0  0  0  0  0  0  0  0
   59.2140   32.5770   46.1610 C   0  0  0  0  0  0  0  0  0  0  0  0
   58.5470   32.9510   44.9800 C   0  0  0  0  0  0  0  0  0  0  0  0
   57.6120   32.0930   44.3930 C   0  0  0  0  0  0  0  0  0  0  0  0
   57.3320   30.8510   44.9720 C   0  0  0  0  0  0  0  0  0  0  0  0
   56.1420   29.7740   44.2450 S   0  0  0  0  0  0  0  0  0  0  0  0
   54.8210   30.4730   44.0830 O   0  0  0  0  0  0  0  0  0  0  0  0
   56.6370   29.3430   42.8940 O   0  0  0  0  0  0  0  0  0  0  0  0
   55.9210   28.3740   45.2430 N   0  0  0  0  0  0  0  0  0  0  0  0
   56.9590   27.4620   45.6300 C   0  0  0  0  0  0  0  0  0  0  0  0
   56.7470   26.4460   46.5820 C   0  0  0  0  0  0  0  0  0  0  0  0
   57.7910   25.5850   46.9350 C   0  0  0  0  0  0  0  0  0  0  0  0
   59.0490   25.7270   46.3430 C   0  0  0  0  0  0  0  0  0  0  0  0
   59.2640   26.7300   45.3940 C   0  0  0  0  0  0  0  0  0  0  0  0
   58.2220   27.5930   45.0380 C   0  0  0  0  0  0  0  0  0  0  0  0
   58.0050   30.4630   46.1370 C   0  0  0  0  0  0  0  0  0  0  0  0
   58.9410   31.3180   46.7260 C   0  0  0  0  0  0  0  0  0  0  0  0
   61.4890   31.9170   47.5580 H   0  0  0  0  0  0  0  0  0  0  0  0
   62.2231   34.8095   47.8225 H   0  0  0  0  0  0  0  0  0  0  0  0
   62.0167   33.8307   49.3259 H   0  0  0  0  0  0  0  0  0  0  0  0
   58.7625   33.9246   44.5155 H   0  0  0  0  0  0  0  0  0  0  0  0
   57.0940   32.3963   43.4712 H   0  0  0  0  0  0  0  0  0  0  0  0
   55.7579   26.3294   47.0490 H   0  0  0  0  0  0  0  0  0  0  0  0
   57.6216   24.7941   47.6805 H   0  0  0  0  0  0  0  0  0  0  0  0
   59.8692   25.0499   46.6238 H   0  0  0  0  0  0  0  0  0  0  0  0
   60.2535   26.8411   44.9265 H   0  0  0  0  0  0  0  0  0  0  0  0
   58.3955   28.3793   44.2886 H   0  0  0  0  0  0  0  0  0  0  0  0
   57.7965   29.4825   46.5900 H   0  0  0  0  0  0  0  0  0  0  0  0
   59.4684   31.0038   47.6388 H   0  0  0  0  0  0  0  0  0  0  0  0
  1  2  2  0
  2  3  1  0
  3  4  1  0
  4  5  1  0
  5  6  1  0
  5  7  1  0
  5  8  1  0
  2  9  1  0
  9 10  2  0
 10 11  1  0
 11 12  2  0
 12 13  1  0
 13 14  2  0
 13 15  2  0
 13 16  1  0
 16 17  1  0
 17 18  2  0
 18 19  1  0
 19 20  2  0
 20 21  1  0
 21 22  2  0
 12 23  1  0
 23 24  2  0
 24  9  1  0
 22 17  1  0
  3 25  1  0
  4 26  1  0
  4 27  1  0
 10 28  1  0
 11 29  1  0
 18 30  1  0
 19 31  1  0
 20 32  1  0
 21 33  1  0
 22 34  1  0
 23 35  1  0
 24 36  1  0
M  CHG  1  16  -1
M  END
>  <UniqueID>  (23) 
20

>  <SMILES>  (23) 
O=C(NCC(F)(F)F)c1ccc(S(=O)(=O)[N-]c2ccccc2)cc1

>  <Energy>  (23) 
38.16265599679018

>  <Genealogy>  (23) 
O=C(NCC(F)(F)F)c1ccc(S(=O)(=O)[N-]c2ccccc2)cc1 (protonated)
O=C(NCC(F)(F)F)c1ccc(S(=O)(=O)[N-]c2ccccc2)cc1 (3D coordinates assigned)
O=C(NCC(F)(F)F)c1ccc(S(=O)(=O)[N-]c2ccccc2)cc1 (optimized conformer: 38.16265599679018 kcal/mol)

>  <smiles>  (23) 
O=C(NCC(F)(F)F)c1ccc(S(=O)(=O)Nc2ccccc2)cc1

>  <score_type>  (23) 
oracle

>  <origin>  (23) 
adg

>  <m_score__min__energy>  (23) 
-8.3100000000000005

>  <m_primary>  (23) 
energy

$$$$
23:0
     RDKit          3D

 37 38  0  0  0  0  0  0  0  0999 V2000
   57.3750   25.3470   44.7240 C   0  0  0  0  0  0  0  0  0  0  0  0
   56.7730   26.5940   45.8380 S   0  0  0  0  0  0  0  0  0  0  0  0
   57.4180   26.4180   47.1850 O   0  0  0  0  0  0  0  0  0  0  0  0
   55.2840   26.4540   45.9940 O   0  0  0  0  0  0  0  0  0  0  0  0
   57.1570   28.1870   45.1960 C   0  0  0  0  0  0  0  0  0  0  0  0
   56.1350   29.0300   44.7450 C   0  0  0  0  0  0  0  0  0  0  0  0
   56.4370   30.3010   44.2470 C   0  0  0  0  0  0  0  0  0  0  0  0
   57.7700   30.7400   44.1780 C   0  0  0  0  0  0  0  0  0  0  0  0
   58.1060   32.1200   43.6420 C   0  0  0  0  0  0  0  0  0  0  0  0
   57.9510   33.2220   44.6290 N   0  0  0  0  0  0  0  0  0  0  0  0
   57.7380   32.7160   46.0120 C   0  0  0  0  0  0  0  0  0  0  0  0
   57.9080   33.8320   47.0480 C   0  0  0  0  0  0  0  0  0  0  0  0
   59.3440   34.3900   47.0250 C   0  0  0  0  0  0  0  0  0  0  0  0
   60.0320   34.2070   45.6610 C   0  0  0  0  0  0  0  0  0  0  0  0
   59.0090   34.2680   44.5170 C   0  0  0  0  0  0  0  0  0  0  0  0
   58.7880   29.9050   44.6710 C   0  0  0  0  0  0  0  0  0  0  0  0
   58.4840   28.6350   45.1690 C   0  0  0  0  0  0  0  0  0  0  0  0
   57.7818   24.5043   45.3022 H   0  0  0  0  0  0  0  0  0  0  0  0
   56.5491   24.9920   44.0901 H   0  0  0  0  0  0  0  0  0  0  0  0
   58.1667   25.7729   44.0901 H   0  0  0  0  0  0  0  0  0  0  0  0
   55.0892   28.6910   44.7825 H   0  0  0  0  0  0  0  0  0  0  0  0
   55.6258   30.9616   43.9070 H   0  0  0  0  0  0  0  0  0  0  0  0
   59.1515   32.1101   43.3001 H   0  0  0  0  0  0  0  0  0  0  0  0
   57.3893   32.3232   42.8326 H   0  0  0  0  0  0  0  0  0  0  0  0
   57.0540   33.6950   44.3630 H   0  0  0  0  0  0  0  0  0  0  0  0
   56.7200   32.3068   46.0906 H   0  0  0  0  0  0  0  0  0  0  0  0
   58.4883   31.9377   46.2153 H   0  0  0  0  0  0  0  0  0  0  0  0
   57.2022   34.6446   46.8210 H   0  0  0  0  0  0  0  0  0  0  0  0
   57.7082   33.4173   48.0471 H   0  0  0  0  0  0  0  0  0  0  0  0
   59.3076   35.4642   47.2592 H   0  0  0  0  0  0  0  0  0  0  0  0
   59.9293   33.8302   47.7693 H   0  0  0  0  0  0  0  0  0  0  0  0
   60.7749   35.0063   45.5225 H   0  0  0  0  0  0  0  0  0  0  0  0
   60.5196   33.2211   45.6434 H   0  0  0  0  0  0  0  0  0  0  0  0
   58.5276   35.2570   44.5287 H   0  0  0  0  0  0  0  0  0  0  0  0
   59.5526   34.0890   43.5776 H   0  0  0  0  0  0  0  0  0  0  0  0
   59.8312   30.2538   44.6647 H   0  0  0  0  0  0  0  0  0  0  0  0
   59.2896   27.9849   45.5411 H   0  0  0  0  0  0  0  0  0  0  0  0
  1  2  1  0
  2  3  2  0
  2  4  2  0
  2  5  1  0
  5  6  2  0
  6  7  1  0
  7  8  2  0
  8  9  1  0
  9 10  1  0
 10 11  1  0
 11 12  1  0
 12 13  1  0
 13 14  1  0
 14 15  1  0
  8 16  1  0
 16 17  2  0
 17  5  1  0
 15 10  1  0
  1 18  1  0
  1 19  1  0
  1 20  1  0
  6 21  1  0
  7 22  1  0
  9 23  1  0
  9 24  1  0
 10 25  1  0
 11 26  1  0
 11 27  1  0
 12 28  1  0
 12 29  1  0
 13 30  1  0
 13 31  1  0
 14 32  1  0
 14 33  1  0
 15 34  1  0
 15 35  1  0
 16 36  1  0
 17 37  1  0
M  CHG  1  10   1
M  END
>  <UniqueID>  (24) 
21

>  <SMILES>  (24) 
CS(=O)(=O)c1ccc(C[NH+]2CCCCC2)cc1

>  <Energy>  (24) 
43.408610622110615

>  <Genealogy>  (24) 
CS(=O)(=O)c1ccc(C[NH+]2CCCCC2)cc1 (protonated)
CS(=O)(=O)c1ccc(C[NH+]2CCCCC2)cc1 (3D coordinates assigned)
CS(=O)(=O)c1ccc(C[NH+]2CCCCC2)cc1 (nonaromatic ring conformer: 43.408610622110615 kcal/mol)

>  <smiles>  (24) 
CS(=O)(=O)c1ccc(CN2CCCCC2)cc1

>  <score_type>  (24) 
oracle

>  <origin>  (24) 
adg

>  <m_score__min__energy>  (24) 
-5.7300000000000004

>  <m_primary>  (24) 
energy

$$$$
24:0
     RDKit          3D

 45 48  0  0  0  0  0  0  0  0999 V2000
   59.1040   34.8630   44.5800 O   0  0  0  0  0  0  0  0  0  0  0  0
   58.5250   33.7430   44.5320 C   0  0  0  0  0  0  0  0  0  0  0  0
   58.4360   33.0780   43.3060 C   0  0  0  0  0  0  0  0  0  0  0  0
   57.8170   31.8330   43.2410 C   0  0  0  0  0  0  0  0  0  0  0  0
   57.3120   31.2380   44.4030 C   0  0  0  0  0  0  0  0  0  0  0  0
   56.6050   29.9070   44.3450 C   0  0  0  0  0  0  0  0  0  0  0  0
   56.8610   29.2740   43.1410 F   0  0  0  0  0  0  0  0  0  0  0  0
   57.0550   29.1080   45.3790 F   0  0  0  0  0  0  0  0  0  0  0  0
   55.2360   30.0710   44.4650 F   0  0  0  0  0  0  0  0  0  0  0  0
   57.3960   31.9490   45.6120 C   0  0  0  0  0  0  0  0  0  0  0  0
   57.9880   33.1820   45.6640 N   0  0  0  0  0  0  0  0  0  0  0  0
   58.0900   33.8690   46.9590 C   0  0  0  0  0  0  0  0  0  0  0  0
   59.8100   33.7940   47.5590 S   0  0  0  0  0  0  0  0  0  0  0  0
   59.8270   31.9920   47.6400 C   0  0  0  0  0  0  0  0  0  0  0  0
   60.0910   31.2960   46.5010 N   0  0  0  0  0  0  0  0  0  0  0  0
   60.0910   29.9370   46.4860 C   0  0  0  0  0  0  0  0  0  0  0  0
   60.3630   29.2380   45.2980 C   0  0  0  0  0  0  0  0  0  0  0  0
   60.3600   27.8410   45.2880 C   0  0  0  0  0  0  0  0  0  0  0  0
   60.0860   27.1310   46.4600 C   0  0  0  0  0  0  0  0  0  0  0  0
   60.0830   25.7760   46.4450 F   0  0  0  0  0  0  0  0  0  0  0  0
   59.8150   27.8160   47.6490 C   0  0  0  0  0  0  0  0  0  0  0  0
   59.8150   29.2250   47.6700 C   0  0  0  0  0  0  0  0  0  0  0  0
   59.5500   29.9550   48.8390 C   0  0  0  0  0  0  0  0  0  0  0  0
   59.3070   29.3450   49.9190 O   0  0  0  0  0  0  0  0  0  0  0  0
   59.5600   31.3260   48.8120 N   0  0  0  0  0  0  0  0  0  0  0  0
   59.2810   32.0620   50.0180 C   0  0  0  0  0  0  0  0  0  0  0  0
   58.0280   31.9490   50.6400 C   0  0  0  0  0  0  0  0  0  0  0  0
   57.7530   32.6700   51.8060 C   0  0  0  0  0  0  0  0  0  0  0  0
   58.7310   33.5040   52.3590 C   0  0  0  0  0  0  0  0  0  0  0  0
   58.4630   34.2050   53.4880 F   0  0  0  0  0  0  0  0  0  0  0  0
   59.9840   33.6140   51.7490 C   0  0  0  0  0  0  0  0  0  0  0  0
   60.2610   32.8940   50.5830 C   0  0  0  0  0  0  0  0  0  0  0  0
   58.8530   33.5362   42.3970 H   0  0  0  0  0  0  0  0  0  0  0  0
   57.7245   31.3157   42.2746 H   0  0  0  0  0  0  0  0  0  0  0  0
   56.9800   31.5083   46.5300 H   0  0  0  0  0  0  0  0  0  0  0  0
   57.7895   34.9205   46.8400 H   0  0  0  0  0  0  0  0  0  0  0  0
   57.4281   33.3763   47.6864 H   0  0  0  0  0  0  0  0  0  0  0  0
   60.2910   31.8260   45.6220 H   0  0  0  0  0  0  0  0  0  0  0  0
   60.5790   29.7924   44.3728 H   0  0  0  0  0  0  0  0  0  0  0  0
   60.5739   27.2986   44.3552 H   0  0  0  0  0  0  0  0  0  0  0  0
   59.6014   27.2535   48.5698 H   0  0  0  0  0  0  0  0  0  0  0  0
   57.2594   31.2908   50.2086 H   0  0  0  0  0  0  0  0  0  0  0  0
   56.7683   32.5816   52.2883 H   0  0  0  0  0  0  0  0  0  0  0  0
   60.7528   34.2677   52.1868 H   0  0  0  0  0  0  0  0  0  0  0  0
   61.2490   32.9795   50.1071 H   0  0  0  0  0  0  0  0  0  0  0  0
  1  2  2  0
  2  3  1  0
  3  4  2  0
  4  5  1  0
  5  6  1  0
  6  7  1  0
  6  8  1  0
  6  9  1  0
  5 10  2  0
 10 11  1  0
 11 12  1  0
 12 13  1  0
 13 14  1  0
 14 15  2  0
 15 16  1  0
 16 17  2  0
 17 18  1  0
 18 19  2  0
 19 20  1  0
 19 21  1  0
 21 22  2  0
 22 23  1  0
 23 24  2  0
 23 25  1  0
 25 26  1  0
 26 27  2  0
 27 28  1  0
 28 29  2  0
 29 30  1  0
 29 31  1  0
 31 32  2  0
 11  2  1  0
 25 14  1  0
 32 26  1  0
 22 16  1  0
  3 33  1  0
  4 34  1  0
 10 35  1  0
 12 36  1  0
 12 37  1  0
 15 38  1  0
 17 39  1  0
 18 40  1  0
 21 41  1  0
 27 42  1  0
 28 43  1  0
 31 44  1  0
 32 45  1  0
M  CHG  1  15   1
M  END
>  <UniqueID>  (25) 
22

>  <SMILES>  (25) 
O=c1ccc(C(F)(F)F)cn1CSc1[nH+]c2ccc(F)cc2c(=O)n1-c1ccc(F)cc1

>  <Energy>  (25) 
61.98881268553286

>  <Genealogy>  (25) 
O=c1ccc(C(F)(F)F)cn1CSc1[nH+]c2ccc(F)cc2c(=O)n1-c1ccc(F)cc1 (protonated)
O=c1ccc(C(F)(F)F)cn1CSc1[nH+]c2ccc(F)cc2c(=O)n1-c1ccc(F)cc1 (3D coordinates assigned)
O=c1ccc(C(F)(F)F)cn1CSc1[nH+]c2ccc(F)cc2c(=O)n1-c1ccc(F)cc1 (optimized conformer: 61.98881268553286 kcal/mol)

>  <smiles>  (25) 
O=c1ccc(C(F)(F)F)cn1CSc1nc2ccc(F)cc2c(=O)n1-c1ccc(F)cc1

>  <score_type>  (25) 
oracle

>  <origin>  (25) 
adg

>  <m_score__min__energy>  (25) 
-6.29

>  <m_primary>  (25) 
energy

$$$$
25:0
     RDKit          3D

 47 50  0  0  0  0  0  0  0  0999 V2000
   56.0310   30.8360   44.1220 C   0  0  0  0  0  0  0  0  0  0  0  0
   56.5950   29.7400   44.9610 C   0  0  0  0  0  0  0  0  0  0  0  0
   57.6390   29.9290   45.8080 N   0  0  0  0  0  0  0  0  0  0  0  0
   57.8480   28.6970   46.2970 C   0  0  0  0  0  0  0  0  0  0  0  0
   58.8330   28.2860   47.2020 C   0  0  0  0  0  0  0  0  0  0  0  0
   59.7810   29.2140   47.7550 N   0  0  0  0  0  0  0  0  0  0  0  0
   60.1880   30.3830   46.9720 C   0  0  0  0  0  0  0  0  0  0  0  0
   60.9130   31.4250   47.8450 C   0  0  0  0  0  0  0  0  0  0  0  0
   60.3270   31.5660   49.1990 N   0  0  0  0  0  0  0  0  0  0  0  0
   59.3180   32.6380   49.3400 C   0  0  0  0  0  0  0  0  0  0  0  0
   59.6720   33.9180   48.5620 C   0  0  0  0  0  0  0  0  0  0  0  0
   59.0080   33.9210   47.2100 C   0  0  0  0  0  0  0  0  0  0  0  0
   57.6660   33.5200   47.0850 C   0  0  0  0  0  0  0  0  0  0  0  0
   57.0530   33.4950   45.8280 C   0  0  0  0  0  0  0  0  0  0  0  0
   57.7740   33.8590   44.6880 C   0  0  0  0  0  0  0  0  0  0  0  0
   59.1130   34.2430   44.8010 C   0  0  0  0  0  0  0  0  0  0  0  0
   59.7330   34.2710   46.0550 C   0  0  0  0  0  0  0  0  0  0  0  0
   61.0380   34.6330   46.1410 F   0  0  0  0  0  0  0  0  0  0  0  0
   59.9830   30.3150   49.9220 C   0  0  0  0  0  0  0  0  0  0  0  0
   60.2890   29.0510   49.1160 C   0  0  0  0  0  0  0  0  0  0  0  0
   58.8920   26.9100   47.5130 C   0  0  0  0  0  0  0  0  0  0  0  0
   57.9740   26.0050   46.9360 C   0  0  0  0  0  0  0  0  0  0  0  0
   56.9960   26.4590   46.0330 C   0  0  0  0  0  0  0  0  0  0  0  0
   56.9700   27.8190   45.7380 C   0  0  0  0  0  0  0  0  0  0  0  0
   56.1620   28.4540   44.8760 N   0  0  0  0  0  0  0  0  0  0  0  0
   55.6253   31.6244   44.7730 H   0  0  0  0  0  0  0  0  0  0  0  0
   56.8244   31.2570   43.4870 H   0  0  0  0  0  0  0  0  0  0  0  0
   55.2272   30.4351   43.4870 H   0  0  0  0  0  0  0  0  0  0  0  0
   60.8652   30.0567   46.1689 H   0  0  0  0  0  0  0  0  0  0  0  0
   59.2834   30.8512   46.5567 H   0  0  0  0  0  0  0  0  0  0  0  0
   61.9650   31.1212   47.9499 H   0  0  0  0  0  0  0  0  0  0  0  0
   60.8104   32.3983   47.3429 H   0  0  0  0  0  0  0  0  0  0  0  0
   58.3538   32.2601   48.9691 H   0  0  0  0  0  0  0  0  0  0  0  0
   59.2774   32.9070   50.4058 H   0  0  0  0  0  0  0  0  0  0  0  0
   59.3309   34.7938   49.1336 H   0  0  0  0  0  0  0  0  0  0  0  0
   60.7622   33.9552   48.4203 H   0  0  0  0  0  0  0  0  0  0  0  0
   57.0965   33.2250   47.9786 H   0  0  0  0  0  0  0  0  0  0  0  0
   56.0007   33.1880   45.7368 H   0  0  0  0  0  0  0  0  0  0  0  0
   57.2877   33.8434   43.7014 H   0  0  0  0  0  0  0  0  0  0  0  0
   59.6809   34.5239   43.9018 H   0  0  0  0  0  0  0  0  0  0  0  0
   60.5604   30.2816   50.8577 H   0  0  0  0  0  0  0  0  0  0  0  0
   58.8987   30.3311   50.1067 H   0  0  0  0  0  0  0  0  0  0  0  0
   61.3765   28.8882   49.0858 H   0  0  0  0  0  0  0  0  0  0  0  0
   59.8049   28.1843   49.5898 H   0  0  0  0  0  0  0  0  0  0  0  0
   59.6586   26.5401   48.2098 H   0  0  0  0  0  0  0  0  0  0  0  0
   58.0243   24.9371   47.1948 H   0  0  0  0  0  0  0  0  0  0  0  0
   56.2767   25.7635   45.5758 H   0  0  0  0  0  0  0  0  0  0  0  0
  1  2  1  0
  2  3  2  0
  3  4  1  0
  4  5  2  0
  5  6  1  0
  6  7  1  0
  7  8  1  0
  8  9  1  0
  9 10  1  0
 10 11  1  0
 11 12  1  0
 12 13  2  0
 13 14  1  0
 14 15  2  0
 15 16  1  0
 16 17  2  0
 17 18  1  0
  9 19  1  0
 19 20  1  0
  5 21  1  0
 21 22  2  0
 22 23  1  0
 23 24  2  0
 24 25  1  0
 25  2  1  0
 24  4  1  0
 20  6  1  0
 17 12  1  0
  1 26  1  0
  1 27  1  0
  1 28  1  0
  7 29  1  0
  7 30  1  0
  8 31  1  0
  8 32  1  0
 10 33  1  0
 10 34  1  0
 11 35  1  0
 11 36  1  0
 13 37  1  0
 14 38  1  0
 15 39  1  0
 16 40  1  0
 19 41  1  0
 19 42  1  0
 20 43  1  0
 20 44  1  0
 21 45  1  0
 22 46  1  0
 23 47  1  0
M  CHG  1  25  -1
M  END
>  <UniqueID>  (26) 
23

>  <SMILES>  (26) 
Cc1nc2c(N3CCN(CCc4ccccc4F)CC3)cccc2[n-]1

>  <Energy>  (26) 
95.87912115096411

>  <Genealogy>  (26) 
Cc1nc2c(N3CCN(CCc4ccccc4F)CC3)cccc2[n-]1 (protonated)
Cc1nc2c(N3CCN(CCc4ccccc4F)CC3)cccc2[n-]1 (3D coordinates assigned)
Cc1nc2c(N3CCN(CCc4ccccc4F)CC3)cccc2[n-]1 (nonaromatic ring conformer: 95.87912115096411 kcal/mol)

>  <smiles>  (26) 
Cc1nc2c(N3CCN(CCc4ccccc4F)CC3)cccc2[nH]1

>  <score_type>  (26) 
oracle

>  <origin>  (26) 
adg

>  <m_score__min__energy>  (26) 
-9.2799999999999994

>  <m_primary>  (26) 
energy

$$$$
26:0
     RDKit          3D

 46 47  0  0  0  0  0  0  0  0999 V2000
   63.3190   33.8660   46.4050 C   0  0  0  0  0  0  0  0  0  0  0  0
   63.3020   32.9470   47.6220 C   0  0  0  0  0  0  0  0  0  0  0  0
   63.3300   33.7540   48.9290 C   0  0  0  0  0  0  0  0  0  0  0  0
   62.7860   32.9500   50.1240 C   0  0  0  0  0  0  0  0  0  0  0  0
   62.0710   33.8150   51.1700 C   0  0  0  0  0  0  0  0  0  0  0  0
   60.6640   33.8650   50.9310 O   0  0  0  0  0  0  0  0  0  0  0  0
   60.0630   33.4780   49.7280 C   0  0  0  0  0  0  0  0  0  0  0  0
   59.8480   32.2600   49.4800 O   0  0  0  0  0  0  0  0  0  0  0  0
   59.6490   34.4940   48.8030 N   0  0  0  0  0  0  0  0  0  0  0  0
   59.0990   34.2250   47.5020 C   0  0  0  0  0  0  0  0  0  0  0  0
   57.9400   33.4480   47.3420 C   0  0  0  0  0  0  0  0  0  0  0  0
   57.4350   33.1880   46.0640 C   0  0  0  0  0  0  0  0  0  0  0  0
   58.0820   33.6860   44.9280 C   0  0  0  0  0  0  0  0  0  0  0  0
   57.5250   33.4030   43.6700 O   0  0  0  0  0  0  0  0  0  0  0  0
   57.7680   32.2200   42.9080 C   0  0  0  0  0  0  0  0  0  0  0  0
   57.4870   30.9880   43.7270 C   0  0  0  0  0  0  0  0  0  0  0  0
   56.1800   30.4810   43.8280 C   0  0  0  0  0  0  0  0  0  0  0  0
   55.9280   29.3320   44.5850 C   0  0  0  0  0  0  0  0  0  0  0  0
   56.9760   28.6760   45.2340 C   0  0  0  0  0  0  0  0  0  0  0  0
   58.2810   29.1670   45.1270 C   0  0  0  0  0  0  0  0  0  0  0  0
   58.5380   30.3160   44.3730 C   0  0  0  0  0  0  0  0  0  0  0  0
   59.2600   34.4400   45.0860 C   0  0  0  0  0  0  0  0  0  0  0  0
   59.7650   34.7000   46.3630 C   0  0  0  0  0  0  0  0  0  0  0  0
   63.3384   34.9144   46.7374 H   0  0  0  0  0  0  0  0  0  0  0  0
   64.2134   33.6566   45.7999 H   0  0  0  0  0  0  0  0  0  0  0  0
   62.4174   33.6898   45.7999 H   0  0  0  0  0  0  0  0  0  0  0  0
   62.3876   32.3360   47.5973 H   0  0  0  0  0  0  0  0  0  0  0  0
   64.1969   32.3082   47.5882 H   0  0  0  0  0  0  0  0  0  0  0  0
   64.3689   34.0457   49.1425 H   0  0  0  0  0  0  0  0  0  0  0  0
   62.6850   34.6348   48.7945 H   0  0  0  0  0  0  0  0  0  0  0  0
   62.0737   32.2023   49.7451 H   0  0  0  0  0  0  0  0  0  0  0  0
   63.6505   32.4880   50.6231 H   0  0  0  0  0  0  0  0  0  0  0  0
   62.2495   33.3897   52.1686 H   0  0  0  0  0  0  0  0  0  0  0  0
   62.4699   34.8380   51.1044 H   0  0  0  0  0  0  0  0  0  0  0  0
   59.6360   35.4790   49.1520 H   0  0  0  0  0  0  0  0  0  0  0  0
   57.4269   33.0420   48.2262 H   0  0  0  0  0  0  0  0  0  0  0  0
   56.5209   32.5866   45.9510 H   0  0  0  0  0  0  0  0  0  0  0  0
   57.1150   32.2210   42.0228 H   0  0  0  0  0  0  0  0  0  0  0  0
   58.8253   32.2076   42.6046 H   0  0  0  0  0  0  0  0  0  0  0  0
   55.3530   30.9891   43.3104 H   0  0  0  0  0  0  0  0  0  0  0  0
   54.9020   28.9444   44.6692 H   0  0  0  0  0  0  0  0  0  0  0  0
   56.7751   27.7731   45.8294 H   0  0  0  0  0  0  0  0  0  0  0  0
   59.1064   28.6485   45.6367 H   0  0  0  0  0  0  0  0  0  0  0  0
   59.5669   30.6952   44.2853 H   0  0  0  0  0  0  0  0  0  0  0  0
   59.7856   34.8264   44.2003 H   0  0  0  0  0  0  0  0  0  0  0  0
   60.6919   35.2816   46.4755 H   0  0  0  0  0  0  0  0  0  0  0  0
  1  2  1  0
  2  3  1  0
  3  4  1  0
  4  5  1  0
  5  6  1  0
  6  7  1  0
  7  8  2  0
  7  9  1  0
  9 10  1  0
 10 11  2  0
 11 12  1  0
 12 13  2  0
 13 14  1  0
 14 15  1  0
 15 16  1  0
 16 17  2  0
 17 18  1  0
 18 19  2  0
 19 20  1  0
 20 21  2  0
 13 22  1  0
 22 23  2  0
 23 10  1  0
 21 16  1  0
  1 24  1  0
  1 25  1  0
  1 26  1  0
  2 27  1  0
  2 28  1  0
  3 29  1  0
  3 30  1  0
  4 31  1  0
  4 32  1  0
  5 33  1  0
  5 34  1  0
  9 35  1  0
 11 36  1  0
 12 37  1  0
 15 38  1  0
 15 39  1  0
 17 40  1  0
 18 41  1  0
 19 42  1  0
 20 43  1  0
 21 44  1  0
 22 45  1  0
 23 46  1  0
M  END
>  <UniqueID>  (27) 
24

>  <SMILES>  (27) 
CCCCCOC(=O)Nc1ccc(OCc2ccccc2)cc1

>  <Energy>  (27) 
41.940554300327534

>  <Genealogy>  (27) 
CCCCCOC(=O)Nc1ccc(OCc2ccccc2)cc1 (3D coordinates assigned)
CCCCCOC(=O)Nc1ccc(OCc2ccccc2)cc1 (optimized conformer: 41.940554300327534 kcal/mol)

>  <smiles>  (27) 
CCCCCOC(=O)Nc1ccc(OCc2ccccc2)cc1

>  <score_type>  (27) 
oracle

>  <origin>  (27) 
adg

>  <m_score__min__energy>  (27) 
-7.0999999999999996

>  <m_primary>  (27) 
energy

$$$$
27:0
     RDKit          3D

 43 44  0  0  0  0  0  0  0  0999 V2000
   57.4390   31.6260   42.5520 C   0  0  0  0  0  0  0  0  0  0  0  0
   56.6380   30.3420   42.7070 C   0  0  0  0  0  0  0  0  0  0  0  0
   56.1800   30.1000   44.4540 S   0  0  0  0  0  0  0  0  0  0  0  0
   57.8740   29.8100   44.9830 C   0  0  0  0  0  0  0  0  0  0  0  0
   58.5760   28.7180   44.4560 C   0  0  0  0  0  0  0  0  0  0  0  0
   59.8940   28.4730   44.8490 C   0  0  0  0  0  0  0  0  0  0  0  0
   60.5180   29.3230   45.7660 C   0  0  0  0  0  0  0  0  0  0  0  0
   59.8220   30.4110   46.2980 C   0  0  0  0  0  0  0  0  0  0  0  0
   58.4860   30.6470   45.9320 C   0  0  0  0  0  0  0  0  0  0  0  0
   57.7760   31.7840   46.4420 N   0  0  0  0  0  0  0  0  0  0  0  0
   57.7610   33.1020   45.8810 C   0  0  0  0  0  0  0  0  0  0  0  0
   56.7510   33.4530   45.2170 O   0  0  0  0  0  0  0  0  0  0  0  0
   58.8310   34.1220   46.2380 C   0  0  0  0  0  0  0  0  0  0  0  0
   59.9750   33.5890   47.0250 N   0  0  0  0  0  0  0  0  0  0  0  0
   59.9690   34.0670   48.4340 C   0  0  0  0  0  0  0  0  0  0  0  0
   61.3840   34.2090   49.0330 C   0  0  0  0  0  0  0  0  0  0  0  0
   62.2970   33.1430   48.5750 N   0  0  0  0  0  0  0  0  0  0  0  0
   61.9760   31.8450   49.1950 C   0  0  0  0  0  0  0  0  0  0  0  0
   62.4000   33.0500   47.0970 C   0  0  0  0  0  0  0  0  0  0  0  0
   61.2740   33.7930   46.3510 C   0  0  0  0  0  0  0  0  0  0  0  0
   57.6880   32.0251   43.5463 H   0  0  0  0  0  0  0  0  0  0  0  0
   58.3661   31.4153   41.9988 H   0  0  0  0  0  0  0  0  0  0  0  0
   56.8421   32.3660   41.9988 H   0  0  0  0  0  0  0  0  0  0  0  0
   55.7251   30.4063   42.0967 H   0  0  0  0  0  0  0  0  0  0  0  0
   57.2509   29.4917   42.3733 H   0  0  0  0  0  0  0  0  0  0  0  0
   58.0876   28.0512   43.7302 H   0  0  0  0  0  0  0  0  0  0  0  0
   60.4402   27.6117   44.4369 H   0  0  0  0  0  0  0  0  0  0  0  0
   61.5585   29.1351   46.0693 H   0  0  0  0  0  0  0  0  0  0  0  0
   60.3224   31.0867   47.0073 H   0  0  0  0  0  0  0  0  0  0  0  0
   59.2278   34.5412   45.3016 H   0  0  0  0  0  0  0  0  0  0  0  0
   58.3399   34.8685   46.8796 H   0  0  0  0  0  0  0  0  0  0  0  0
   59.8240   32.5510   47.0590 H   0  0  0  0  0  0  0  0  0  0  0  0
   59.4746   35.0491   48.4681 H   0  0  0  0  0  0  0  0  0  0  0  0
   59.4343   33.3147   49.0325 H   0  0  0  0  0  0  0  0  0  0  0  0
   61.7988   35.1827   48.7332 H   0  0  0  0  0  0  0  0  0  0  0  0
   61.2956   34.1289   50.1265 H   0  0  0  0  0  0  0  0  0  0  0  0
   62.0009   31.9456   50.2901 H   0  0  0  0  0  0  0  0  0  0  0  0
   60.9719   31.5259   48.8788 H   0  0  0  0  0  0  0  0  0  0  0  0
   62.7157   31.0947   48.8788 H   0  0  0  0  0  0  0  0  0  0  0  0
   63.3642   33.4799   46.7880 H   0  0  0  0  0  0  0  0  0  0  0  0
   62.3126   31.9854   46.8343 H   0  0  0  0  0  0  0  0  0  0  0  0
   61.5042   34.8684   46.3293 H   0  0  0  0  0  0  0  0  0  0  0  0
   61.2067   33.3953   45.3276 H   0  0  0  0  0  0  0  0  0  0  0  0
  1  2  1  0
  2  3  1  0
  3  4  1  0
  4  5  2  0
  5  6  1  0
  6  7  2  0
  7  8  1  0
  8  9  2  0
  9 10  1  0
 10 11  1  0
 11 12  2  0
 11 13  1  0
 13 14  1  0
 14 15  1  0
 15 16  1  0
 16 17  1  0
 17 18  1  0
 17 19  1  0
 19 20  1  0
  9  4  1  0
 20 14  1  0
  1 21  1  0
  1 22  1  0
  1 23  1  0
  2 24  1  0
  2 25  1  0
  5 26  1  0
  6 27  1  0
  7 28  1  0
  8 29  1  0
 13 30  1  0
 13 31  1  0
 14 32  1  0
 15 33  1  0
 15 34  1  0
 16 35  1  0
 16 36  1  0
 18 37  1  0
 18 38  1  0
 18 39  1  0
 19 40  1  0
 19 41  1  0
 20 42  1  0
 20 43  1  0
M  CHG  2  10  -1  14   1
M  END
>  <UniqueID>  (28) 
25

>  <SMILES>  (28) 
CCSc1ccccc1[N-]C(=O)C[NH+]1CCN(C)CC1

>  <Energy>  (28) 
57.69180636767401

>  <Genealogy>  (28) 
CCSc1ccccc1[N-]C(=O)C[NH+]1CCN(C)CC1 (protonated)
CCSc1ccccc1[N-]C(=O)C[NH+]1CCN(C)CC1 (3D coordinates assigned)
CCSc1ccccc1[N-]C(=O)C[NH+]1CCN(C)CC1 (nonaromatic ring conformer: 57.69180636767401 kcal/mol)

>  <smiles>  (28) 
CCSc1ccccc1NC(=O)CN1CCN(C)CC1

>  <score_type>  (28) 
oracle

>  <origin>  (28) 
adg

>  <m_score__min__energy>  (28) 
-7.0999999999999996

>  <m_primary>  (28) 
energy

$$$$
28:0
     RDKit          3D

 55 56  0  0  0  0  0  0  0  0999 V2000
   59.1410   22.5740   44.8800 C   0  0  0  0  0  0  0  0  0  0  0  0
   57.7760   23.2330   45.0760 C   0  0  0  0  0  0  0  0  0  0  0  0
   57.9360   24.6780   45.3900 N   0  0  0  0  0  0  0  0  0  0  0  0
   57.6960   24.9610   46.8280 C   0  0  0  0  0  0  0  0  0  0  0  0
   57.3730   26.4350   47.0850 C   0  0  0  0  0  0  0  0  0  0  0  0
   57.0500   25.5250   44.5470 C   0  0  0  0  0  0  0  0  0  0  0  0
   57.7680   25.9760   43.2620 C   0  0  0  0  0  0  0  0  0  0  0  0
   57.7660   27.4400   43.1040 N   0  0  0  0  0  0  0  0  0  0  0  0
   58.3630   28.0700   44.2650 C   0  0  0  0  0  0  0  0  0  0  0  0
   59.5470   27.5170   44.7940 C   0  0  0  0  0  0  0  0  0  0  0  0
   60.2020   28.1180   45.8700 C   0  0  0  0  0  0  0  0  0  0  0  0
   59.6910   29.2830   46.4330 C   0  0  0  0  0  0  0  0  0  0  0  0
   58.5190   29.8490   45.9300 C   0  0  0  0  0  0  0  0  0  0  0  0
   57.8330   29.2540   44.8550 C   0  0  0  0  0  0  0  0  0  0  0  0
   56.3250   30.0070   44.2950 S   0  0  0  0  0  0  0  0  0  0  0  0
   55.1480   29.3080   44.9200 O   0  0  0  0  0  0  0  0  0  0  0  0
   56.2410   29.8900   42.8000 O   0  0  0  0  0  0  0  0  0  0  0  0
   56.2760   31.6990   44.7080 N   0  0  0  0  0  0  0  0  0  0  0  0
   57.4410   32.4100   44.1740 C   0  0  0  0  0  0  0  0  0  0  0  0
   57.5160   33.8230   44.7580 C   0  0  0  0  0  0  0  0  0  0  0  0
   58.3730   33.8440   45.9970 C   0  0  0  0  0  0  0  0  0  0  0  0
   57.9970   33.1000   47.1290 C   0  0  0  0  0  0  0  0  0  0  0  0
   58.8100   33.0880   48.2660 C   0  0  0  0  0  0  0  0  0  0  0  0
   59.9990   33.8250   48.2850 C   0  0  0  0  0  0  0  0  0  0  0  0
   60.7870   33.8110   49.3870 F   0  0  0  0  0  0  0  0  0  0  0  0
   60.3770   34.5710   47.1640 C   0  0  0  0  0  0  0  0  0  0  0  0
   59.5710   34.5790   46.0220 C   0  0  0  0  0  0  0  0  0  0  0  0
   59.5882   22.3581   45.8615 H   0  0  0  0  0  0  0  0  0  0  0  0
   59.0181   21.6360   44.3187 H   0  0  0  0  0  0  0  0  0  0  0  0
   59.7991   23.2536   44.3187 H   0  0  0  0  0  0  0  0  0  0  0  0
   57.1865   23.1260   44.1535 H   0  0  0  0  0  0  0  0  0  0  0  0
   57.2605   22.7415   45.9143 H   0  0  0  0  0  0  0  0  0  0  0  0
   56.8498   24.3484   47.1725 H   0  0  0  0  0  0  0  0  0  0  0  0
   58.6180   24.7184   47.3767 H   0  0  0  0  0  0  0  0  0  0  0  0
   57.3329   26.6180   48.1689 H   0  0  0  0  0  0  0  0  0  0  0  0
   58.1543   27.0654   46.6354 H   0  0  0  0  0  0  0  0  0  0  0  0
   56.3997   26.6809   46.6354 H   0  0  0  0  0  0  0  0  0  0  0  0
   56.1550   24.9468   44.2737 H   0  0  0  0  0  0  0  0  0  0  0  0
   56.7729   26.4200   45.1233 H   0  0  0  0  0  0  0  0  0  0  0  0
   58.8101   25.6257   43.2978 H   0  0  0  0  0  0  0  0  0  0  0  0
   57.2278   25.5449   42.4062 H   0  0  0  0  0  0  0  0  0  0  0  0
   58.2650   27.7050   42.2310 H   0  0  0  0  0  0  0  0  0  0  0  0
   56.7810   27.7790   43.0070 H   0  0  0  0  0  0  0  0  0  0  0  0
   59.9606   26.5984   44.3523 H   0  0  0  0  0  0  0  0  0  0  0  0
   61.1225   27.6704   46.2729 H   0  0  0  0  0  0  0  0  0  0  0  0
   60.2121   29.7591   47.2767 H   0  0  0  0  0  0  0  0  0  0  0  0
   58.1260   30.7727   46.3798 H   0  0  0  0  0  0  0  0  0  0  0  0
   58.3552   31.8589   44.4394 H   0  0  0  0  0  0  0  0  0  0  0  0
   57.3466   32.4799   43.0803 H   0  0  0  0  0  0  0  0  0  0  0  0
   57.9495   34.5009   44.0079 H   0  0  0  0  0  0  0  0  0  0  0  0
   56.5000   34.1486   45.0260 H   0  0  0  0  0  0  0  0  0  0  0  0
   57.0593   32.5250   47.1200 H   0  0  0  0  0  0  0  0  0  0  0  0
   58.5147   32.4986   49.1466 H   0  0  0  0  0  0  0  0  0  0  0  0
   61.3105   35.1526   47.1811 H   0  0  0  0  0  0  0  0  0  0  0  0
   59.8751   35.1622   45.1403 H   0  0  0  0  0  0  0  0  0  0  0  0
  1  2  1  0
  2  3  1  0
  3  4  1  0
  4  5  1  0
  3  6  1  0
  6  7  1  0
  7  8  1  0
  8  9  1  0
  9 10  2  0
 10 11  1  0
 11 12  2  0
 12 13  1  0
 13 14  2  0
 14 15  1  0
 15 16  2  0
 15 17  2  0
 15 18  1  0
 18 19  1  0
 19 20  1  0
 20 21  1  0
 21 22  2  0
 22 23  1  0
 23 24  2  0
 24 25  1  0
 24 26  1  0
 26 27  2  0
 14  9  1  0
 27 21  1  0
  1 28  1  0
  1 29  1  0
  1 30  1  0
  2 31  1  0
  2 32  1  0
  4 33  1  0
  4 34  1  0
  5 35  1  0
  5 36  1  0
  5 37  1  0
  6 38  1  0
  6 39  1  0
  7 40  1  0
  7 41  1  0
  8 42  1  0
  8 43  1  0
 10 44  1  0
 11 45  1  0
 12 46  1  0
 13 47  1  0
 19 48  1  0
 19 49  1  0
 20 50  1  0
 20 51  1  0
 22 52  1  0
 23 53  1  0
 26 54  1  0
 27 55  1  0
M  CHG  2   8   1  18  -1
M  END
>  <UniqueID>  (29) 
26

>  <SMILES>  (29) 
CCN(CC)CC[NH2+]c1ccccc1S(=O)(=O)[N-]CCc1ccc(F)cc1

>  <Energy>  (29) 
56.927417758386696

>  <Genealogy>  (29) 
CCN(CC)CC[NH2+]c1ccccc1S(=O)(=O)[N-]CCc1ccc(F)cc1 (protonated)
CCN(CC)CC[NH2+]c1ccccc1S(=O)(=O)[N-]CCc1ccc(F)cc1 (3D coordinates assigned)
CCN(CC)CC[NH2+]c1ccccc1S(=O)(=O)[N-]CCc1ccc(F)cc1 (optimized conformer: 56.927417758386696 kcal/mol)

>  <smiles>  (29) 
CCN(CC)CCNc1ccccc1S(=O)(=O)NCCc1ccc(F)cc1

>  <score_type>  (29) 
oracle

>  <origin>  (29) 
adg

>  <m_score__min__energy>  (29) 
-8.1600000000000001

>  <m_primary>  (29) 
energy

$$$$
29:0
     RDKit          3D

 48 51  0  0  0  0  0  0  0  0999 V2000
   57.3010   24.4730   47.5370 C   0  0  0  0  0  0  0  0  0  0  0  0
   58.1250   25.6340   47.5170 O   0  0  0  0  0  0  0  0  0  0  0  0
   58.1290   26.5830   46.4850 C   0  0  0  0  0  0  0  0  0  0  0  0
   58.1230   26.2130   45.1150 C   0  0  0  0  0  0  0  0  0  0  0  0
   58.1250   27.2080   44.1250 C   0  0  0  0  0  0  0  0  0  0  0  0
   58.1380   28.5050   44.5200 N   0  0  0  0  0  0  0  0  0  0  0  0
   58.1260   29.5720   43.7420 N   0  0  0  0  0  0  0  0  0  0  0  0
   58.1220   30.6630   44.5410 C   0  0  0  0  0  0  0  0  0  0  0  0
   58.0400   32.0530   44.0580 C   0  0  0  0  0  0  0  0  0  0  0  0
   57.8070   32.2730   42.8390 O   0  0  0  0  0  0  0  0  0  0  0  0
   58.2730   33.1570   44.9440 N   0  0  0  0  0  0  0  0  0  0  0  0
   57.4670   33.3200   46.1610 C   0  0  0  0  0  0  0  0  0  0  0  0
   58.3480   33.6830   47.3750 C   0  0  0  0  0  0  0  0  0  0  0  0
   59.7380   34.2420   46.9870 C   0  0  0  0  0  0  0  0  0  0  0  0
   60.6650   33.1760   46.7480 O   0  0  0  0  0  0  0  0  0  0  0  0
   61.8430   32.9310   47.4730 C   0  0  0  0  0  0  0  0  0  0  0  0
   63.0100   33.7060   47.3150 C   0  0  0  0  0  0  0  0  0  0  0  0
   64.1470   33.4270   48.0780 C   0  0  0  0  0  0  0  0  0  0  0  0
   64.1350   32.3770   48.9980 C   0  0  0  0  0  0  0  0  0  0  0  0
   62.9850   31.6000   49.1550 C   0  0  0  0  0  0  0  0  0  0  0  0
   61.8450   31.8730   48.3930 C   0  0  0  0  0  0  0  0  0  0  0  0
   60.7300   31.1190   48.5630 F   0  0  0  0  0  0  0  0  0  0  0  0
   59.6250   35.0940   45.7140 C   0  0  0  0  0  0  0  0  0  0  0  0
   59.1740   34.2370   44.5190 C   0  0  0  0  0  0  0  0  0  0  0  0
   58.1270   30.2640   45.8780 C   0  0  0  0  0  0  0  0  0  0  0  0
   58.1400   28.8850   45.8070 C   0  0  0  0  0  0  0  0  0  0  0  0
   58.1360   27.9460   46.8350 C   0  0  0  0  0  0  0  0  0  0  0  0
   57.0972   24.1859   48.5791 H   0  0  0  0  0  0  0  0  0  0  0  0
   56.3522   24.6879   47.0237 H   0  0  0  0  0  0  0  0  0  0  0  0
   57.8170   23.6483   47.0237 H   0  0  0  0  0  0  0  0  0  0  0  0
   58.1168   25.1506   44.8300 H   0  0  0  0  0  0  0  0  0  0  0  0
   58.1163   26.9427   43.0575 H   0  0  0  0  0  0  0  0  0  0  0  0
   58.0960   29.5490   42.7000 H   0  0  0  0  0  0  0  0  0  0  0  0
   56.7324   34.1226   45.9990 H   0  0  0  0  0  0  0  0  0  0  0  0
   56.9621   32.3659   46.3724 H   0  0  0  0  0  0  0  0  0  0  0  0
   57.8219   34.4427   47.9717 H   0  0  0  0  0  0  0  0  0  0  0  0
   58.5198   32.7538   47.9381 H   0  0  0  0  0  0  0  0  0  0  0  0
   60.1019   34.8590   47.8218 H   0  0  0  0  0  0  0  0  0  0  0  0
   63.0256   34.5325   46.5892 H   0  0  0  0  0  0  0  0  0  0  0  0
   65.0542   34.0365   47.9533 H   0  0  0  0  0  0  0  0  0  0  0  0
   65.0308   32.1617   49.5990 H   0  0  0  0  0  0  0  0  0  0  0  0
   62.9762   30.7721   49.8792 H   0  0  0  0  0  0  0  0  0  0  0  0
   58.8898   35.8951   45.8807 H   0  0  0  0  0  0  0  0  0  0  0  0
   60.6132   35.5209   45.4876 H   0  0  0  0  0  0  0  0  0  0  0  0
   58.6480   34.8785   43.7967 H   0  0  0  0  0  0  0  0  0  0  0  0
   60.0659   33.7841   44.0614 H   0  0  0  0  0  0  0  0  0  0  0  0
   58.1218   30.8983   46.7767 H   0  0  0  0  0  0  0  0  0  0  0  0
   58.1382   28.2601   47.8892 H   0  0  0  0  0  0  0  0  0  0  0  0
  1  2  1  0
  2  3  1  0
  3  4  1  0
  4  5  2  0
  5  6  1  0
  6  7  1  0
  7  8  2  0
  8  9  1  0
  9 10  2  0
  9 11  1  0
 11 12  1  0
 12 13  1  0
 13 14  1  0
 14 15  1  0
 15 16  1  0
 16 17  2  0
 17 18  1  0
 18 19  2  0
 19 20  1  0
 20 21  2  0
 21 22  1  0
 14 23  1  0
 23 24  1  0
  8 25  1  0
 25 26  2  0
 26 27  1  0
 27  3  2  0
 26  6  1  0
 24 11  1  0
 21 16  1  0
  1 28  1  0
  1 29  1  0
  1 30  1  0
  4 31  1  0
  5 32  1  0
  7 33  1  0
 12 34  1  0
 12 35  1  0
 13 36  1  0
 13 37  1  0
 14 38  1  0
 17 39  1  0
 18 40  1  0
 19 41  1  0
 20 42  1  0
 23 43  1  0
 23 44  1  0
 24 45  1  0
 24 46  1  0
 25 47  1  0
 27 48  1  0
M  CHG  1   7   1
M  END
>  <UniqueID>  (30) 
27

>  <SMILES>  (30) 
COc1ccn2[nH+]c(C(=O)N3CCC(Oc4ccccc4F)CC3)cc2c1

>  <Energy>  (30) 
90.54704977972604

>  <Genealogy>  (30) 
COc1ccn2[nH+]c(C(=O)N3CCC(Oc4ccccc4F)CC3)cc2c1 (protonated)
COc1ccn2[nH+]c(C(=O)N3CCC(Oc4ccccc4F)CC3)cc2c1 (3D coordinates assigned)
COc1ccn2[nH+]c(C(=O)N3CCC(Oc4ccccc4F)CC3)cc2c1 (nonaromatic ring conformer: 90.54704977972604 kcal/mol)

>  <smiles>  (30) 
COc1ccn2nc(C(=O)N3CCC(Oc4ccccc4F)CC3)cc2c1

>  <score_type>  (30) 
oracle

>  <origin>  (30) 
adg

>  <m_score__min__energy>  (30) 
-6.8499999999999996

>  <m_primary>  (30) 
energy

$$$$
30:0
     RDKit          3D

 49 51  0  0  0  0  0  0  0  0999 V2000
   58.1530   27.4630   43.3640 C   0  0  0  0  0  0  0  0  0  0  0  0
   58.9420   27.3090   44.5390 O   0  0  0  0  0  0  0  0  0  0  0  0
   59.8780   28.2640   44.9450 C   0  0  0  0  0  0  0  0  0  0  0  0
   60.7730   28.6590   44.1510 O   0  0  0  0  0  0  0  0  0  0  0  0
   59.8360   28.7820   46.3220 C   0  0  0  0  0  0  0  0  0  0  0  0
   60.1240   27.9820   47.4380 C   0  0  0  0  0  0  0  0  0  0  0  0
   60.1300   28.6890   48.6350 C   0  0  0  0  0  0  0  0  0  0  0  0
   60.4940   28.1290   49.9700 C   0  0  0  0  0  0  0  0  0  0  0  0
   59.8030   30.3100   48.3250 S   0  0  0  0  0  0  0  0  0  0  0  0
   59.6120   30.1190   46.6670 C   0  0  0  0  0  0  0  0  0  0  0  0
   59.1980   31.1710   45.7870 N   0  0  0  0  0  0  0  0  0  0  0  0
   57.8840   31.2060   45.2080 C   0  0  0  0  0  0  0  0  0  0  0  0
   57.0730   30.2680   45.4350 O   0  0  0  0  0  0  0  0  0  0  0  0
   57.4350   32.4390   44.4610 C   0  0  0  0  0  0  0  0  0  0  0  0
   57.6970   33.7090   45.1700 N   0  0  0  0  0  0  0  0  0  0  0  0
   58.8930   34.4520   44.7040 C   0  0  0  0  0  0  0  0  0  0  0  0
   59.6540   35.1260   45.8470 C   0  0  0  0  0  0  0  0  0  0  0  0
   59.8510   34.1580   46.9270 N   0  0  0  0  0  0  0  0  0  0  0  0
   61.1710   33.7640   47.3490 C   0  0  0  0  0  0  0  0  0  0  0  0
   62.2560   33.8230   46.4560 C   0  0  0  0  0  0  0  0  0  0  0  0
   63.5240   33.3940   46.8560 C   0  0  0  0  0  0  0  0  0  0  0  0
   63.7220   32.8960   48.1460 C   0  0  0  0  0  0  0  0  0  0  0  0
   62.6510   32.8270   49.0410 C   0  0  0  0  0  0  0  0  0  0  0  0
   62.8950   32.1880   50.6560 Cl  0  0  0  0  0  0  0  0  0  0  0  0
   61.3800   33.2590   48.6450 C   0  0  0  0  0  0  0  0  0  0  0  0
   58.6820   33.4630   47.4770 C   0  0  0  0  0  0  0  0  0  0  0  0
   57.4230   33.6970   46.6260 C   0  0  0  0  0  0  0  0  0  0  0  0
   57.1097   27.6666   43.6470 H   0  0  0  0  0  0  0  0  0  0  0  0
   58.5419   28.3022   42.7686 H   0  0  0  0  0  0  0  0  0  0  0  0
   58.1978   26.5392   42.7686 H   0  0  0  0  0  0  0  0  0  0  0  0
   60.3251   26.9025   47.3724 H   0  0  0  0  0  0  0  0  0  0  0  0
   60.0779   28.7691   50.7619 H   0  0  0  0  0  0  0  0  0  0  0  0
   60.0831   27.1131   50.0659 H   0  0  0  0  0  0  0  0  0  0  0  0
   61.5892   28.0921   50.0659 H   0  0  0  0  0  0  0  0  0  0  0  0
   59.7620   32.0500   45.7890 H   0  0  0  0  0  0  0  0  0  0  0  0
   57.9622   32.4681   43.4960 H   0  0  0  0  0  0  0  0  0  0  0  0
   56.3435   32.3598   44.3498 H   0  0  0  0  0  0  0  0  0  0  0  0
   59.5697   33.7474   44.1985 H   0  0  0  0  0  0  0  0  0  0  0  0
   58.5469   35.2442   44.0238 H   0  0  0  0  0  0  0  0  0  0  0  0
   60.6313   35.4759   45.4831 H   0  0  0  0  0  0  0  0  0  0  0  0
   59.0777   35.9855   46.2200 H   0  0  0  0  0  0  0  0  0  0  0  0
   62.1054   34.2090   45.4370 H   0  0  0  0  0  0  0  0  0  0  0  0
   64.3686   33.4485   46.1533 H   0  0  0  0  0  0  0  0  0  0  0  0
   64.7214   32.5580   48.4575 H   0  0  0  0  0  0  0  0  0  0  0  0
   60.5391   33.2032   49.3519 H   0  0  0  0  0  0  0  0  0  0  0  0
   58.8930   32.3840   47.5106 H   0  0  0  0  0  0  0  0  0  0  0  0
   58.4914   33.8613   48.4845 H   0  0  0  0  0  0  0  0  0  0  0  0
   56.7023   32.8939   46.8396 H   0  0  0  0  0  0  0  0  0  0  0  0
   57.0277   34.6883   46.8926 H   0  0  0  0  0  0  0  0  0  0  0  0
  1  2  1  0
  2  3  1  0
  3  4  2  0
  3  5  1  0
  5  6  1  0
  6  7  2  0
  7  8  1  0
  7  9  1  0
  9 10  1  0
 10 11  1  0
 11 12  1  0
 12 13  2  0
 12 14  1  0
 14 15  1  0
 15 16  1  0
 16 17  1  0
 17 18  1  0
 18 19  1  0
 19 20  2  0
 20 21  1  0
 21 22  2  0
 22 23  1  0
 23 24  1  0
 23 25  2  0
 18 26  1  0
 26 27  1  0
 10  5  2  0
 27 15  1  0
 25 19  1  0
  1 28  1  0
  1 29  1  0
  1 30  1  0
  6 31  1  0
  8 32  1  0
  8 33  1  0
  8 34  1  0
 11 35  1  0
 14 36  1  0
 14 37  1  0
 16 38  1  0
 16 39  1  0
 17 40  1  0
 17 41  1  0
 20 42  1  0
 21 43  1  0
 22 44  1  0
 25 45  1  0
 26 46  1  0
 26 47  1  0
 27 48  1  0
 27 49  1  0
M  END
>  <UniqueID>  (31) 
28

>  <SMILES>  (31) 
COC(=O)c1cc(C)sc1NC(=O)CN1CCN(c2cccc(Cl)c2)CC1

>  <Energy>  (31) 
92.12663810817233

>  <Genealogy>  (31) 
COC(=O)c1cc(C)sc1NC(=O)CN1CCN(c2cccc(Cl)c2)CC1 (3D coordinates assigned)
COC(=O)c1cc(C)sc1NC(=O)CN1CCN(c2cccc(Cl)c2)CC1 (nonaromatic ring conformer: 92.12663810817233 kcal/mol)

>  <smiles>  (31) 
COC(=O)c1cc(C)sc1NC(=O)CN1CCN(c2cccc(Cl)c2)CC1

>  <score_type>  (31) 
oracle

>  <origin>  (31) 
adg

>  <m_score__min__energy>  (31) 
-8.2200000000000006

>  <m_primary>  (31) 
energy

$$$$
31:0
     RDKit          3D

 21 21  0  0  0  0  0  0  0  0999 V2000
   55.5180   29.7050   44.1230 C   0  0  0  0  0  0  0  0  0  0  0  0
   56.7500   30.0860   43.3110 C   0  0  0  0  0  0  0  0  0  0  0  0
   57.3970   31.3230   43.8710 C   0  0  0  0  0  0  0  0  0  0  0  0
   57.4140   31.6100   45.2460 C   0  0  0  0  0  0  0  0  0  0  0  0
   58.0300   32.8170   45.5470 C   0  0  0  0  0  0  0  0  0  0  0  0
   58.1330   33.4260   46.9050 C   0  0  0  0  0  0  0  0  0  0  0  0
   58.5140   33.5570   44.1160 S   0  0  0  0  0  0  0  0  0  0  0  0
   57.9720   32.3340   43.0950 C   0  0  0  0  0  0  0  0  0  0  0  0
   58.1070   32.3480   41.6060 C   0  0  0  0  0  0  0  0  0  0  0  0
   55.7495   29.7766   45.1960 H   0  0  0  0  0  0  0  0  0  0  0  0
   54.6922   30.3897   43.8796 H   0  0  0  0  0  0  0  0  0  0  0  0
   55.2230   28.6736   43.8796 H   0  0  0  0  0  0  0  0  0  0  0  0
   57.4719   29.2566   43.3403 H   0  0  0  0  0  0  0  0  0  0  0  0
   56.4408   30.2880   42.2748 H   0  0  0  0  0  0  0  0  0  0  0  0
   56.9822   30.9446   46.0082 H   0  0  0  0  0  0  0  0  0  0  0  0
   58.0009   32.6449   47.6681 H   0  0  0  0  0  0  0  0  0  0  0  0
   59.1226   33.8913   47.0241 H   0  0  0  0  0  0  0  0  0  0  0  0
   57.3515   34.1909   47.0241 H   0  0  0  0  0  0  0  0  0  0  0  0
   59.1674   32.4580   41.3350 H   0  0  0  0  0  0  0  0  0  0  0  0
   57.7191   31.4048   41.1938 H   0  0  0  0  0  0  0  0  0  0  0  0
   57.5338   33.1915   41.1938 H   0  0  0  0  0  0  0  0  0  0  0  0
  1  2  1  0
  2  3  1  0
  3  4  1  0
  4  5  2  0
  5  6  1  0
  5  7  1  0
  7  8  1  0
  8  9  1  0
  8  3  2  0
  1 10  1  0
  1 11  1  0
  1 12  1  0
  2 13  1  0
  2 14  1  0
  4 15  1  0
  6 16  1  0
  6 17  1  0
  6 18  1  0
  9 19  1  0
  9 20  1  0
  9 21  1  0
M  END
>  <UniqueID>  (32) 
29

>  <SMILES>  (32) 
CCc1cc(C)sc1C

>  <Energy>  (32) 
38.348253648774886

>  <Genealogy>  (32) 
CCc1cc(C)sc1C (3D coordinates assigned)
CCc1cc(C)sc1C (optimized conformer: 38.348253648774886 kcal/mol)

>  <smiles>  (32) 
CCc1cc(C)sc1C

>  <score_type>  (32) 
oracle

>  <origin>  (32) 
adg

>  <m_score__min__energy>  (32) 
-4.5599999999999996

>  <m_primary>  (32) 
energy

$$$$
32:0
     RDKit          3D

 45 46  0  0  0  0  0  0  0  0999 V2000
   56.2710   20.9250   44.9880 C   0  0  0  0  0  0  0  0  0  0  0  0
   56.1220   21.6250   43.7040 N   0  0  0  0  0  0  0  0  0  0  0  0
   57.0690   21.1320   42.6930 C   0  0  0  0  0  0  0  0  0  0  0  0
   56.0610   23.1020   43.8120 C   0  0  0  0  0  0  0  0  0  0  0  0
   54.6830   23.7110   44.1770 C   0  0  0  0  0  0  0  0  0  0  0  0
   54.3500   23.7540   45.6760 C   0  0  0  0  0  0  0  0  0  0  0  0
   55.3870   24.4320   46.4500 N   0  0  0  0  0  0  0  0  0  0  0  0
   55.9320   25.7220   46.1480 C   0  0  0  0  0  0  0  0  0  0  0  0
   55.1430   26.6880   45.9790 O   0  0  0  0  0  0  0  0  0  0  0  0
   57.3490   25.9130   46.0010 N   0  0  0  0  0  0  0  0  0  0  0  0
   57.9990   27.1890   46.1330 C   0  0  0  0  0  0  0  0  0  0  0  0
   58.2500   27.7570   47.3950 C   0  0  0  0  0  0  0  0  0  0  0  0
   58.9050   28.9870   47.4990 C   0  0  0  0  0  0  0  0  0  0  0  0
   59.3210   29.6690   46.3420 C   0  0  0  0  0  0  0  0  0  0  0  0
   59.9930   30.8990   46.4060 O   0  0  0  0  0  0  0  0  0  0  0  0
   59.4520   32.1420   46.0440 C   0  0  0  0  0  0  0  0  0  0  0  0
   60.1070   33.3540   46.3350 C   0  0  0  0  0  0  0  0  0  0  0  0
   59.5250   34.5720   45.9720 C   0  0  0  0  0  0  0  0  0  0  0  0
   58.2840   34.5920   45.3290 C   0  0  0  0  0  0  0  0  0  0  0  0
   57.6200   33.3940   45.0560 C   0  0  0  0  0  0  0  0  0  0  0  0
   58.2000   32.1730   45.4180 C   0  0  0  0  0  0  0  0  0  0  0  0
   59.1070   29.0850   45.0900 C   0  0  0  0  0  0  0  0  0  0  0  0
   58.4520   27.8540   44.9850 C   0  0  0  0  0  0  0  0  0  0  0  0
   56.1196   21.6364   45.8132 H   0  0  0  0  0  0  0  0  0  0  0  0
   55.5240   20.1204   45.0558 H   0  0  0  0  0  0  0  0  0  0  0  0
   57.2809   20.4944   45.0558 H   0  0  0  0  0  0  0  0  0  0  0  0
   57.9377   20.6798   43.1939 H   0  0  0  0  0  0  0  0  0  0  0  0
   56.5742   20.3770   42.0644 H   0  0  0  0  0  0  0  0  0  0  0  0
   57.4036   21.9704   42.0644 H   0  0  0  0  0  0  0  0  0  0  0  0
   56.7788   23.4107   44.5863 H   0  0  0  0  0  0  0  0  0  0  0  0
   56.2883   23.4779   42.8035 H   0  0  0  0  0  0  0  0  0  0  0  0
   54.6575   24.7424   43.7954 H   0  0  0  0  0  0  0  0  0  0  0  0
   53.9322   23.0484   43.7218 H   0  0  0  0  0  0  0  0  0  0  0  0
   53.3985   24.2888   45.8128 H   0  0  0  0  0  0  0  0  0  0  0  0
   54.2807   22.7174   46.0375 H   0  0  0  0  0  0  0  0  0  0  0  0
   57.9320   25.0990   45.7040 H   0  0  0  0  0  0  0  0  0  0  0  0
   57.9288   27.2299   48.3055 H   0  0  0  0  0  0  0  0  0  0  0  0
   59.0960   29.4236   48.4904 H   0  0  0  0  0  0  0  0  0  0  0  0
   61.0793   33.3423   46.8494 H   0  0  0  0  0  0  0  0  0  0  0  0
   60.0444   35.5162   46.1927 H   0  0  0  0  0  0  0  0  0  0  0  0
   57.8305   35.5510   45.0381 H   0  0  0  0  0  0  0  0  0  0  0  0
   56.6403   33.4102   44.5560 H   0  0  0  0  0  0  0  0  0  0  0  0
   57.6693   31.2323   45.2096 H   0  0  0  0  0  0  0  0  0  0  0  0
   59.4562   29.5973   44.1814 H   0  0  0  0  0  0  0  0  0  0  0  0
   58.2910   27.4041   43.9942 H   0  0  0  0  0  0  0  0  0  0  0  0
  1  2  1  0
  2  3  1  0
  2  4  1  0
  4  5  1  0
  5  6  1  0
  6  7  1  0
  7  8  1  0
  8  9  2  0
  8 10  1  0
 10 11  1  0
 11 12  2  0
 12 13  1  0
 13 14  2  0
 14 15  1  0
 15 16  1  0
 16 17  2  0
 17 18  1  0
 18 19  2  0
 19 20  1  0
 20 21  2  0
 14 22  1  0
 22 23  2  0
 23 11  1  0
 21 16  1  0
  1 24  1  0
  1 25  1  0
  1 26  1  0
  3 27  1  0
  3 28  1  0
  3 29  1  0
  4 30  1  0
  4 31  1  0
  5 32  1  0
  5 33  1  0
  6 34  1  0
  6 35  1  0
 10 36  1  0
 12 37  1  0
 13 38  1  0
 17 39  1  0
 18 40  1  0
 19 41  1  0
 20 42  1  0
 21 43  1  0
 22 44  1  0
 23 45  1  0
M  CHG  1   7  -1
M  END
>  <UniqueID>  (33) 
30

>  <SMILES>  (33) 
CN(C)CCC[N-]C(=O)Nc1ccc(Oc2ccccc2)cc1

>  <Energy>  (33) 
57.17830177647487

>  <Genealogy>  (33) 
CN(C)CCC[N-]C(=O)Nc1ccc(Oc2ccccc2)cc1 (protonated)
CN(C)CCC[N-]C(=O)Nc1ccc(Oc2ccccc2)cc1 (3D coordinates assigned)
CN(C)CCC[N-]C(=O)Nc1ccc(Oc2ccccc2)cc1 (optimized conformer: 57.17830177647487 kcal/mol)

>  <smiles>  (33) 
CN(C)CCCNC(=O)Nc1ccc(Oc2ccccc2)cc1

>  <score_type>  (33) 
oracle

>  <origin>  (33) 
adg

>  <m_score__min__energy>  (33) 
-9.2100000000000009

>  <m_primary>  (33) 
energy

$$$$
33:0
     RDKit          3D

 53 56  0  0  0  0  0  0  0  0999 V2000
   60.1890   33.4890   46.4260 C   0  0  0  0  0  0  0  0  0  0  0  0
   59.5690   32.1380   46.8390 C   0  0  1  0  0  0  0  0  0  0  0  0
   59.0210   31.4270   45.5970 C   0  0  0  0  0  0  0  0  0  0  0  0
   58.1530   30.2180   46.0000 C   0  0  1  0  0  0  0  0  0  0  0  0
   57.5980   29.5610   44.7470 C   0  0  0  0  0  0  0  0  0  0  0  0
   56.1870   29.8620   44.3090 C   0  0  0  0  0  0  0  0  0  0  0  0
   55.2870   29.1580   45.1180 O   0  0  0  0  0  0  0  0  0  0  0  0
   58.3650   28.7050   44.0440 C   0  0  0  0  0  0  0  0  0  0  0  0
   59.7630   28.3520   44.4770 C   0  0  0  0  0  0  0  0  0  0  0  0
   59.9420   28.4350   45.9760 C   0  0  0  0  0  0  0  0  0  0  0  0
   60.8860   27.8400   46.4760 O   0  0  0  0  0  0  0  0  0  0  0  0
   58.9470   29.1900   46.8680 C   0  0  2  0  0  0  0  0  0  0  0  0
   57.9720   28.1330   47.4390 C   0  0  0  0  0  0  0  0  0  0  0  0
   59.7100   29.8960   48.0520 C   0  0  2  0  0  0  0  0  0  0  0  0
   58.8430   30.4440   49.2570 C   0  0  1  0  0  0  0  0  0  0  0  0
   58.5130   29.3860   50.1210 O   0  0  0  0  0  0  0  0  0  0  0  0
   59.7190   31.5610   49.9780 C   0  0  0  0  0  0  0  0  0  0  0  0
   60.1270   31.1390   51.4170 C   0  0  0  0  0  0  0  0  0  0  0  0
   59.0220   32.9390   50.0850 C   0  0  0  0  0  0  0  0  0  0  0  0
   60.9490   31.5810   49.0560 C   0  0  2  0  0  0  0  0  0  0  0  0
   62.0410   32.5250   48.7820 C   0  0  0  0  0  0  0  0  0  0  0  0
   62.4820   33.4200   49.5490 O   0  0  0  0  0  0  0  0  0  0  0  0
   62.6780   32.0190   47.5590 C   0  0  0  0  0  0  0  0  0  0  0  0
   61.8730   31.1010   46.9930 C   0  0  0  0  0  0  0  0  0  0  0  0
   60.5120   31.1500   47.6550 C   0  0  2  0  0  0  0  0  0  0  0  0
   60.4521   34.0624   47.3271 H   0  0  0  0  0  0  0  0  0  0  0  0
   61.0947   33.3093   45.8282 H   0  0  0  0  0  0  0  0  0  0  0  0
   59.4622   34.0585   45.8282 H   0  0  0  0  0  0  0  0  0  0  0  0
   58.7700   32.4005   47.5480 H   0  0  0  0  0  0  0  0  0  0  0  0
   58.4092   32.1335   45.0169 H   0  0  0  0  0  0  0  0  0  0  0  0
   59.8671   31.0691   44.9921 H   0  0  0  0  0  0  0  0  0  0  0  0
   57.3220   30.5785   46.6241 H   0  0  0  0  0  0  0  0  0  0  0  0
   55.9966   30.9414   44.4019 H   0  0  0  0  0  0  0  0  0  0  0  0
   56.0551   29.5553   43.2609 H   0  0  0  0  0  0  0  0  0  0  0  0
   54.7700   28.5690   44.5080 H   0  0  0  0  0  0  0  0  0  0  0  0
   57.9584   28.2514   43.1281 H   0  0  0  0  0  0  0  0  0  0  0  0
   59.9846   27.3249   44.1514 H   0  0  0  0  0  0  0  0  0  0  0  0
   60.4493   29.0784   44.0172 H   0  0  0  0  0  0  0  0  0  0  0  0
   58.0004   28.1638   48.5382 H   0  0  0  0  0  0  0  0  0  0  0  0
   56.9510   28.3508   47.0924 H   0  0  0  0  0  0  0  0  0  0  0  0
   58.2714   27.1329   47.0924 H   0  0  0  0  0  0  0  0  0  0  0  0
   60.3276   29.0362   48.3510 H   0  0  0  0  0  0  0  0  0  0  0  0
   57.8920   30.8820   48.9197 H   0  0  0  0  0  0  0  0  0  0  0  0
   59.3520   28.8830   50.2900 H   0  0  0  0  0  0  0  0  0  0  0  0
   59.5558   31.7298   52.1482 H   0  0  0  0  0  0  0  0  0  0  0  0
   59.9113   30.0700   51.5607 H   0  0  0  0  0  0  0  0  0  0  0  0
   61.2027   31.3185   51.5607 H   0  0  0  0  0  0  0  0  0  0  0  0
   58.8893   33.2014   51.1450 H   0  0  0  0  0  0  0  0  0  0  0  0
   59.6422   33.7028   49.5930 H   0  0  0  0  0  0  0  0  0  0  0  0
   58.0393   32.8920   49.5930 H   0  0  0  0  0  0  0  0  0  0  0  0
   61.4868   31.0351   49.8452 H   0  0  0  0  0  0  0  0  0  0  0  0
   63.6554   32.3388   47.1687 H   0  0  0  0  0  0  0  0  0  0  0  0
   62.1590   30.4212   46.1769 H   0  0  0  0  0  0  0  0  0  0  0  0
  1  2  1  0
  2  3  1  0
  3  4  1  0
  4  5  1  0
  5  6  1  0
  6  7  1  0
  5  8  2  0
  8  9  1  0
  9 10  1  0
 10 11  2  0
 10 12  1  0
 12 13  1  1
 12 14  1  0
 14 15  1  0
 15 16  1  0
 15 17  1  0
 17 18  1  0
 17 19  1  0
 17 20  1  0
 20 21  1  0
 21 22  2  0
 21 23  1  0
 23 24  2  0
 25 24  1  6
 25  2  1  0
 12  4  1  0
 25 14  1  0
 25 20  1  0
  1 26  1  0
  1 27  1  0
  1 28  1  0
  2 29  1  1
  3 30  1  0
  3 31  1  0
  4 32  1  1
  6 33  1  0
  6 34  1  0
  7 35  1  0
  8 36  1  0
  9 37  1  0
  9 38  1  0
 13 39  1  0
 13 40  1  0
 13 41  1  0
 14 42  1  1
 15 43  1  6
 16 44  1  0
 18 45  1  0
 18 46  1  0
 18 47  1  0
 19 48  1  0
 19 49  1  0
 19 50  1  0
 20 51  1  1
 23 52  1  0
 24 53  1  0
M  END
>  <UniqueID>  (34) 
31

>  <SMILES>  (34) 
C[C@H]1C[C@H]2C(CO)=CCC(=O)C2(C)C2C(O)C(C)(C)C3C(=O)C=CC321

>  <Energy>  (34) 
131.04846804043464

>  <Genealogy>  (34) 
C[C@H]1C[C@H]2C(CO)=CCC(=O)C2(C)C2C(O)C(C)(C)C3C(=O)C=CC321 (chirality)
C[C@H]1C[C@H]2C(CO)=CCC(=O)C2(C)C2C(O)C(C)(C)C3C(=O)C=CC321 (3D coordinates assigned)
C[C@H]1C[C@H]2C(CO)=CCC(=O)C2(C)C2C(O)C(C)(C)C3C(=O)C=CC321 (nonaromatic ring conformer: 131.04846804043464 kcal/mol)

>  <smiles>  (34) 
CC1CC2C(CO)=CCC(=O)C2(C)C2C(O)C(C)(C)C3C(=O)C=CC132

>  <score_type>  (34) 
oracle

>  <origin>  (34) 
adg

>  <m_score__min__energy>  (34) 
-8.5399999999999991

>  <m_primary>  (34) 
energy

$$$$
34:0
     RDKit          3D

 46 49  0  0  0  0  0  0  0  0999 V2000
   61.0290   29.5700   52.1610 F   0  0  0  0  0  0  0  0  0  0  0  0
   60.8780   28.7780   51.0720 C   0  0  0  0  0  0  0  0  0  0  0  0
   60.9270   27.3870   51.2050 C   0  0  0  0  0  0  0  0  0  0  0  0
   60.7740   26.5690   50.0820 C   0  0  0  0  0  0  0  0  0  0  0  0
   60.5490   27.1400   48.8130 C   0  0  0  0  0  0  0  0  0  0  0  0
   60.4160   26.3370   47.6270 N   0  0  0  0  0  0  0  0  0  0  0  0
   59.4730   26.4150   46.7350 C   0  0  0  0  0  0  0  0  0  0  0  0
   58.9450   25.2980   46.1660 N   0  0  0  0  0  0  0  0  0  0  0  0
   57.9440   25.3910   45.2530 C   0  0  0  0  0  0  0  0  0  0  0  0
   57.3960   24.2010   44.6460 N   0  0  0  0  0  0  0  0  0  0  0  0
   56.0530   24.2380   44.0500 C   0  0  0  0  0  0  0  0  0  0  0  0
   55.8970   23.1220   43.0140 C   0  0  0  0  0  0  0  0  0  0  0  0
   56.2810   21.8740   43.5550 O   0  0  0  0  0  0  0  0  0  0  0  0
   57.6670   21.8900   43.8320 C   0  0  0  0  0  0  0  0  0  0  0  0
   57.9890   22.8910   44.9440 C   0  0  0  0  0  0  0  0  0  0  0  0
   57.4650   26.6180   44.9190 N   0  0  0  0  0  0  0  0  0  0  0  0
   57.9740   27.7440   45.4870 C   0  0  0  0  0  0  0  0  0  0  0  0
   57.4540   29.0420   45.1290 N   0  0  0  0  0  0  0  0  0  0  0  0
   56.1290   29.1510   44.5020 C   0  0  0  0  0  0  0  0  0  0  0  0
   56.0090   30.4640   43.7230 C   0  0  0  0  0  0  0  0  0  0  0  0
   56.3870   31.5620   44.5280 O   0  0  0  0  0  0  0  0  0  0  0  0
   57.7640   31.4710   44.8320 C   0  0  0  0  0  0  0  0  0  0  0  0
   58.0470   30.2520   45.7150 C   0  0  0  0  0  0  0  0  0  0  0  0
   58.9760   27.6310   46.3980 N   0  0  0  0  0  0  0  0  0  0  0  0
   60.5330   28.5350   48.6860 C   0  0  0  0  0  0  0  0  0  0  0  0
   60.6870   29.3520   49.8110 C   0  0  0  0  0  0  0  0  0  0  0  0
   61.0863   26.9355   52.1954 H   0  0  0  0  0  0  0  0  0  0  0  0
   60.8294   25.4756   50.1889 H   0  0  0  0  0  0  0  0  0  0  0  0
   55.3014   24.1047   44.8420 H   0  0  0  0  0  0  0  0  0  0  0  0
   55.9105   25.2086   43.5525 H   0  0  0  0  0  0  0  0  0  0  0  0
   54.8448   23.0689   42.6976 H   0  0  0  0  0  0  0  0  0  0  0  0
   56.5459   23.3471   42.1547 H   0  0  0  0  0  0  0  0  0  0  0  0
   57.9827   20.8851   44.1492 H   0  0  0  0  0  0  0  0  0  0  0  0
   58.2045   22.1912   42.9208 H   0  0  0  0  0  0  0  0  0  0  0  0
   57.5824   22.5179   45.8955 H   0  0  0  0  0  0  0  0  0  0  0  0
   59.0809   23.0034   45.0156 H   0  0  0  0  0  0  0  0  0  0  0  0
   55.9848   28.3065   43.8120 H   0  0  0  0  0  0  0  0  0  0  0  0
   55.3610   29.1337   45.2894 H   0  0  0  0  0  0  0  0  0  0  0  0
   56.6647   30.4211   42.8409 H   0  0  0  0  0  0  0  0  0  0  0  0
   54.9612   30.5967   43.4155 H   0  0  0  0  0  0  0  0  0  0  0  0
   58.3345   31.3785   43.8961 H   0  0  0  0  0  0  0  0  0  0  0  0
   58.0654   32.3781   45.3764 H   0  0  0  0  0  0  0  0  0  0  0  0
   59.1347   30.1149   45.8046 H   0  0  0  0  0  0  0  0  0  0  0  0
   57.6025   30.4209   46.7069 H   0  0  0  0  0  0  0  0  0  0  0  0
   60.3983   28.9914   47.6942 H   0  0  0  0  0  0  0  0  0  0  0  0
   60.6579   30.4464   49.7038 H   0  0  0  0  0  0  0  0  0  0  0  0
  1  2  1  0
  2  3  2  0
  3  4  1  0
  4  5  2  0
  5  6  1  0
  6  7  2  3
  7  8  1  0
  8  9  2  0
  9 10  1  0
 10 11  1  0
 11 12  1  0
 12 13  1  0
 13 14  1  0
 14 15  1  0
  9 16  1  0
 16 17  1  0
 17 18  1  0
 18 19  1  0
 19 20  1  0
 20 21  1  0
 21 22  1  0
 22 23  1  0
 17 24  2  0
  5 25  1  0
 25 26  2  0
 26  2  1  0
 24  7  1  0
 15 10  1  0
 23 18  1  0
  3 27  1  0
  4 28  1  0
 11 29  1  0
 11 30  1  0
 12 31  1  0
 12 32  1  0
 14 33  1  0
 14 34  1  0
 15 35  1  0
 15 36  1  0
 19 37  1  0
 19 38  1  0
 20 39  1  0
 20 40  1  0
 22 41  1  0
 22 42  1  0
 23 43  1  0
 23 44  1  0
 25 45  1  0
 26 46  1  0
M  CHG  1  16  -1
M  END
>  <UniqueID>  (35) 
32

>  <SMILES>  (35) 
Fc1ccc(N=c2nc(N3CCOCC3)[n-]c(N3CCOCC3)n2)cc1

>  <Energy>  (35) 
57.925893403611525

>  <Genealogy>  (35) 
Fc1ccc(N=c2nc(N3CCOCC3)[n-]c(N3CCOCC3)n2)cc1 (protonated)
Fc1ccc(N=c2nc(N3CCOCC3)[n-]c(N3CCOCC3)n2)cc1 (3D coordinates assigned)
Fc1ccc(N=c2nc(N3CCOCC3)[n-]c(N3CCOCC3)n2)cc1 (nonaromatic ring conformer: 57.925893403611525 kcal/mol)

>  <smiles>  (35) 
Fc1ccc(N=c2nc(N3CCOCC3)[nH]c(N3CCOCC3)n2)cc1

>  <score_type>  (35) 
oracle

>  <origin>  (35) 
adg

>  <m_score__min__energy>  (35) 
-7.8799999999999999

>  <m_primary>  (35) 
energy

$$$$
35:0
     RDKit          3D

 47 51  0  0  0  0  0  0  0  0999 V2000
   56.2840   21.2110   44.7420 H   0  0  0  0  0  0  0  0  0  0  0  0
   55.6830   20.7660   45.4720 N   0  0  0  0  0  0  0  0  0  0  0  0
   55.8740   20.9120   46.7490 C   0  0  0  0  0  0  0  0  0  0  0  0
   56.9500   21.6780   47.2550 C   0  0  0  0  0  0  0  0  0  0  0  0
   57.7680   22.2850   46.4410 N   0  0  0  0  0  0  0  0  0  0  0  0
   57.6780   23.6450   45.9820 C   0  0  0  0  0  0  0  0  0  0  0  0
   58.0590   24.7090   46.8210 C   0  0  0  0  0  0  0  0  0  0  0  0
   58.4310   24.4965   47.8341 H   0  0  0  0  0  0  0  0  0  0  0  0
   57.9700   26.0290   46.3820 C   0  0  0  0  0  0  0  0  0  0  0  0
   58.2594   26.8494   47.0551 H   0  0  0  0  0  0  0  0  0  0  0  0
   57.5150   26.3170   45.0910 C   0  0  0  0  0  0  0  0  0  0  0  0
   57.4140   27.7140   44.6240 C   0  0  0  0  0  0  0  0  0  0  0  0
   57.8470   28.1550   43.4250 N   0  0  0  0  0  0  0  0  0  0  0  0
   57.5810   29.4520   43.3810 N   0  0  0  0  0  0  0  0  0  0  0  0
   57.0010   29.7480   44.5570 C   0  0  0  0  0  0  0  0  0  0  0  0
   56.5850   30.9410   44.8610 N   0  0  0  0  0  0  0  0  0  0  0  0
   57.4010   32.1150   45.0100 C   0  0  0  0  0  0  0  0  0  0  0  0
   57.4140   32.7670   46.2510 C   0  0  0  0  0  0  0  0  0  0  0  0
   56.8199   32.3649   47.0849 H   0  0  0  0  0  0  0  0  0  0  0  0
   58.1760   33.9240   46.4370 C   0  0  0  0  0  0  0  0  0  0  0  0
   58.1904   34.4206   47.4184 H   0  0  0  0  0  0  0  0  0  0  0  0
   58.9190   34.4500   45.3780 C   0  0  0  0  0  0  0  0  0  0  0  0
   59.5248   35.3559   45.5277 H   0  0  0  0  0  0  0  0  0  0  0  0
   58.8930   33.8260   44.1290 C   0  0  0  0  0  0  0  0  0  0  0  0
   59.4722   34.2460   43.2935 H   0  0  0  0  0  0  0  0  0  0  0  0
   58.1320   32.6680   43.9380 C   0  0  0  0  0  0  0  0  0  0  0  0
   58.1036   32.1873   42.9490 H   0  0  0  0  0  0  0  0  0  0  0  0
   56.8870   28.6920   45.3250 O   0  0  0  0  0  0  0  0  0  0  0  0
   57.1640   25.2620   44.2360 C   0  0  0  0  0  0  0  0  0  0  0  0
   56.8111   25.4850   43.2183 H   0  0  0  0  0  0  0  0  0  0  0  0
   57.2560   23.9220   44.6590 C   0  0  0  0  0  0  0  0  0  0  0  0
   56.8980   22.8640   43.7430 N   0  0  0  0  0  0  0  0  0  0  0  0
   57.7530   22.0290   43.3810 O   0  0  0  0  0  0  0  0  0  0  0  0
   55.6010   22.7000   43.3170 O   0  0  0  0  0  0  0  0  0  0  0  0
   57.0900   21.8050   48.6040 N   0  0  0  0  0  0  0  0  0  0  0  0
   56.2380   21.2040   49.4710 C   0  0  0  0  0  0  0  0  0  0  0  0
   56.4140   21.3480   50.8510 C   0  0  0  0  0  0  0  0  0  0  0  0
   57.2478   21.9509   51.2400 H   0  0  0  0  0  0  0  0  0  0  0  0
   55.5280   20.7240   51.7360 C   0  0  0  0  0  0  0  0  0  0  0  0
   55.6650   20.8374   52.8215 H   0  0  0  0  0  0  0  0  0  0  0  0
   54.4680   19.9560   51.2420 C   0  0  0  0  0  0  0  0  0  0  0  0
   53.7745   19.4653   51.9408 H   0  0  0  0  0  0  0  0  0  0  0  0
   54.2870   19.8100   49.8630 C   0  0  0  0  0  0  0  0  0  0  0  0
   53.4512   19.2070   49.4785 H   0  0  0  0  0  0  0  0  0  0  0  0
   55.1720   20.4330   48.9700 C   0  0  0  0  0  0  0  0  0  0  0  0
   55.0160   20.3090   47.6220 N   0  0  0  0  0  0  0  0  0  0  0  0
   54.2230   19.7400   47.2440 H   0  0  0  0  0  0  0  0  0  0  0  0
  1  2  1  0
  2  3  2  0
  3  4  1  0
  4  5  2  0
  5  6  1  0
  6  7  2  0
  7  8  1  0
  7  9  1  0
  9 10  1  0
  9 11  2  0
 11 12  1  0
 12 13  2  0
 13 14  1  0
 14 15  1  0
 15 16  2  3
 16 17  1  0
 17 18  2  0
 18 19  1  0
 18 20  1  0
 20 21  1  0
 20 22  2  0
 22 23  1  0
 22 24  1  0
 24 25  1  0
 24 26  2  0
 26 27  1  0
 15 28  1  0
 11 29  1  0
 29 30  1  0
 29 31  2  0
 31 32  1  0
 32 33  2  0
 32 34  1  0
  4 35  1  0
 35 36  1  0
 36 37  2  0
 37 38  1  0
 37 39  1  0
 39 40  1  0
 39 41  2  0
 41 42  1  0
 41 43  1  0
 43 44  1  0
 43 45  2  0
 45 46  1  0
 46 47  1  0
 46  3  1  0
 31  6  1  0
 45 36  1  0
 28 12  1  0
 26 17  1  0
M  CHG  4  14  -1  32   1  34  -1  35  -1
M  END
>  <UniqueID>  (36) 
33

>  <SMILES>  (36) 
N=c1[nH]c2ccccc2[n-]/c1=N\c1ccc(-c2n[n-]c(=Nc3ccccc3)o2)cc1[N+](=O)[O-]

>  <Energy>  (36) 
110.02578052151144

>  <Genealogy>  (36) 
N=c1[nH]c2ccccc2[n-]c1=Nc1ccc(-c2n[n-]c(=Nc3ccccc3)o2)cc1[N+](=O)[O-] (protonated)
N=c1[nH]c2ccccc2[n-]/c1=N\c1ccc(-c2n[n-]c(=Nc3ccccc3)o2)cc1[N+](=O)[O-] (cis-trans isomerization)
N=c1[nH]c2ccccc2[n-]/c1=N\c1ccc(-c2n[n-]c(=Nc3ccccc3)o2)cc1[N+](=O)[O-] (3D coordinates assigned)
N=c1[nH]c2ccccc2[n-]/c1=N\c1ccc(-c2n[n-]c(=Nc3ccccc3)o2)cc1[N+](=O)[O-] (optimized conformer: 110.02578052151144 kcal/mol)

>  <smiles>  (36) 
N=c1[nH]c2ccccc2[nH]c1=Nc1ccc(-c2n[nH]c(=Nc3ccccc3)o2)cc1[N+](=O)[O-]

>  <score_type>  (36) 
oracle

>  <origin>  (36) 
adg

>  <m_score__min__energy>  (36) 
-10.630000000000001

>  <m_primary>  (36) 
energy

$$$$
36:0
     RDKit          3D

 38 40  0  0  0  0  0  0  0  0999 V2000
   55.5830   30.7760   44.4750 O   0  0  0  0  0  0  0  0  0  0  0  0
   56.6280   30.0890   44.6430 C   0  0  0  0  0  0  0  0  0  0  0  0
   56.5010   28.7280   44.9340 C   0  0  0  0  0  0  0  0  0  0  0  0
   57.6460   27.9420   45.1230 C   0  0  0  0  0  0  0  0  0  0  0  0
   57.5260   26.4980   45.4400 C   0  0  0  0  0  0  0  0  0  0  0  0
   58.6520   25.6620   45.3420 C   0  0  0  0  0  0  0  0  0  0  0  0
   58.5520   24.2990   45.6310 C   0  0  0  0  0  0  0  0  0  0  0  0
   57.3200   23.7390   46.0100 C   0  0  0  0  0  0  0  0  0  0  0  0
   57.2240   22.2780   46.3710 C   0  0  0  0  0  0  0  0  0  0  0  0
   58.3980   21.6420   46.0150 F   0  0  0  0  0  0  0  0  0  0  0  0
   56.1660   21.6800   45.7070 F   0  0  0  0  0  0  0  0  0  0  0  0
   57.0220   22.1230   47.7320 F   0  0  0  0  0  0  0  0  0  0  0  0
   56.2020   24.5800   46.1420 C   0  0  0  0  0  0  0  0  0  0  0  0
   56.2990   25.9440   45.8520 C   0  0  0  0  0  0  0  0  0  0  0  0
   55.2040   26.7290   46.0160 F   0  0  0  0  0  0  0  0  0  0  0  0
   58.9040   28.5500   45.0250 C   0  0  0  0  0  0  0  0  0  0  0  0
   58.9950   29.9130   44.7340 C   0  0  0  0  0  0  0  0  0  0  0  0
   57.8700   30.6670   44.5410 N   0  0  0  0  0  0  0  0  0  0  0  0
   58.0120   32.1060   44.2660 C   0  0  0  0  0  0  0  0  0  0  0  0
   58.4900   32.8320   45.4990 C   0  0  0  0  0  0  0  0  0  0  0  0
   58.1580   32.3350   46.7710 C   0  0  0  0  0  0  0  0  0  0  0  0
   58.5700   33.0100   47.9240 C   0  0  0  0  0  0  0  0  0  0  0  0
   59.3160   34.1860   47.8190 C   0  0  0  0  0  0  0  0  0  0  0  0
   59.7160   34.8390   48.9380 F   0  0  0  0  0  0  0  0  0  0  0  0
   59.6510   34.6900   46.5590 C   0  0  0  0  0  0  0  0  0  0  0  0
   59.2410   34.0200   45.4010 C   0  0  0  0  0  0  0  0  0  0  0  0
   59.5850   34.5280   44.1900 F   0  0  0  0  0  0  0  0  0  0  0  0
   55.5025   28.2736   45.0147 H   0  0  0  0  0  0  0  0  0  0  0  0
   59.6200   26.0848   45.0351 H   0  0  0  0  0  0  0  0  0  0  0  0
   59.4441   23.6593   45.5614 H   0  0  0  0  0  0  0  0  0  0  0  0
   55.2415   24.1611   46.4767 H   0  0  0  0  0  0  0  0  0  0  0  0
   59.8173   27.9560   45.1767 H   0  0  0  0  0  0  0  0  0  0  0  0
   59.9849   30.3867   44.6590 H   0  0  0  0  0  0  0  0  0  0  0  0
   58.7412   32.2499   43.4551 H   0  0  0  0  0  0  0  0  0  0  0  0
   57.0331   32.5112   43.9701 H   0  0  0  0  0  0  0  0  0  0  0  0
   57.5704   31.4093   46.8600 H   0  0  0  0  0  0  0  0  0  0  0  0
   58.3061   32.6141   48.9158 H   0  0  0  0  0  0  0  0  0  0  0  0
   60.2388   35.6162   46.4775 H   0  0  0  0  0  0  0  0  0  0  0  0
  1  2  2  0
  2  3  1  0
  3  4  2  0
  4  5  1  0
  5  6  2  0
  6  7  1  0
  7  8  2  0
  8  9  1  0
  9 10  1  0
  9 11  1  0
  9 12  1  0
  8 13  1  0
 13 14  2  0
 14 15  1  0
  4 16  1  0
 16 17  2  0
 17 18  1  0
 18 19  1  0
 19 20  1  0
 20 21  2  0
 21 22  1  0
 22 23  2  0
 23 24  1  0
 23 25  1  0
 25 26  2  0
 26 27  1  0
 18  2  1  0
 26 20  1  0
 14  5  1  0
  3 28  1  0
  6 29  1  0
  7 30  1  0
 13 31  1  0
 16 32  1  0
 17 33  1  0
 19 34  1  0
 19 35  1  0
 21 36  1  0
 22 37  1  0
 25 38  1  0
M  END
>  <UniqueID>  (37) 
34

>  <SMILES>  (37) 
O=c1cc(-c2ccc(C(F)(F)F)cc2F)ccn1Cc1ccc(F)cc1F

>  <Energy>  (37) 
49.9803486159068

>  <Genealogy>  (37) 
O=c1cc(-c2ccc(C(F)(F)F)cc2F)ccn1Cc1ccc(F)cc1F (3D coordinates assigned)
O=c1cc(-c2ccc(C(F)(F)F)cc2F)ccn1Cc1ccc(F)cc1F (optimized conformer: 49.9803486159068 kcal/mol)

>  <smiles>  (37) 
O=c1cc(-c2ccc(C(F)(F)F)cc2F)ccn1Cc1ccc(F)cc1F

>  <score_type>  (37) 
oracle

>  <origin>  (37) 
adg

>  <m_score__min__energy>  (37) 
-7.2800000000000002

>  <m_primary>  (37) 
energy

$$$$
37:0
     RDKit          3D

 40 42  0  0  0  0  0  0  0  0999 V2000
   57.8900   27.5780   47.1550 O   0  0  0  0  0  0  0  0  0  0  0  0
   57.2030   26.9720   46.2870 C   0  0  0  0  0  0  0  0  0  0  0  0
   57.0000   27.5600   44.9910 N   0  0  0  0  0  0  0  0  0  0  0  0
   57.2680   28.9400   44.6880 C   0  0  0  0  0  0  0  0  0  0  0  0
   56.3880   29.7020   43.8990 C   0  0  0  0  0  0  0  0  0  0  0  0
   56.6790   31.0360   43.6020 C   0  0  0  0  0  0  0  0  0  0  0  0
   57.8510   31.6370   44.0920 C   0  0  0  0  0  0  0  0  0  0  0  0
   58.1590   33.0900   43.7830 C   0  0  0  0  0  0  0  0  0  0  0  0
   57.8070   34.0420   44.8660 N   0  0  0  0  0  0  0  0  0  0  0  0
   57.0290   33.4430   45.9570 C   0  0  0  0  0  0  0  0  0  0  0  0
   57.9760   33.1810   47.1200 C   0  0  0  0  0  0  0  0  0  0  0  0
   59.2300   33.9840   46.8210 C   0  0  0  0  0  0  0  0  0  0  0  0
   58.9660   34.6850   45.4950 C   0  0  0  0  0  0  0  0  0  0  0  0
   58.7540   30.8580   44.8340 C   0  0  0  0  0  0  0  0  0  0  0  0
   58.4630   29.5230   45.1280 C   0  0  0  0  0  0  0  0  0  0  0  0
   56.6400   25.6400   46.5990 C   0  0  0  0  0  0  0  0  0  0  0  0
   57.2800   24.7750   47.5040 C   0  0  0  0  0  0  0  0  0  0  0  0
   56.7170   23.5270   47.7770 C   0  0  0  0  0  0  0  0  0  0  0  0
   55.5270   23.1490   47.1540 C   0  0  0  0  0  0  0  0  0  0  0  0
   54.9150   24.0310   46.2610 C   0  0  0  0  0  0  0  0  0  0  0  0
   55.4780   25.2420   46.0070 N   0  0  0  0  0  0  0  0  0  0  0  0
   56.7340   26.9320   44.2000 H   0  0  0  0  0  0  0  0  0  0  0  0
   55.4648   29.2450   43.5132 H   0  0  0  0  0  0  0  0  0  0  0  0
   55.9852   31.6204   42.9797 H   0  0  0  0  0  0  0  0  0  0  0  0
   59.2379   33.1775   43.5870 H   0  0  0  0  0  0  0  0  0  0  0  0
   57.5386   33.3618   42.9163 H   0  0  0  0  0  0  0  0  0  0  0  0
   56.2334   34.1343   46.2717 H   0  0  0  0  0  0  0  0  0  0  0  0
   56.5632   32.5038   45.6239 H   0  0  0  0  0  0  0  0  0  0  0  0
   57.5235   33.5151   48.0653 H   0  0  0  0  0  0  0  0  0  0  0  0
   58.1977   32.1090   47.2282 H   0  0  0  0  0  0  0  0  0  0  0  0
   59.4106   34.7227   47.6158 H   0  0  0  0  0  0  0  0  0  0  0  0
   60.1206   33.3405   46.7690 H   0  0  0  0  0  0  0  0  0  0  0  0
   58.7524   35.7495   45.6714 H   0  0  0  0  0  0  0  0  0  0  0  0
   59.8470   34.6098   44.8406 H   0  0  0  0  0  0  0  0  0  0  0  0
   59.6969   31.3018   45.1862 H   0  0  0  0  0  0  0  0  0  0  0  0
   59.1791   28.9247   45.7103 H   0  0  0  0  0  0  0  0  0  0  0  0
   58.2171   25.0793   47.9932 H   0  0  0  0  0  0  0  0  0  0  0  0
   57.2109   22.8425   48.4824 H   0  0  0  0  0  0  0  0  0  0  0  0
   55.0763   22.1678   47.3639 H   0  0  0  0  0  0  0  0  0  0  0  0
   53.9767   23.7457   45.7628 H   0  0  0  0  0  0  0  0  0  0  0  0
  1  2  2  0
  2  3  1  0
  3  4  1  0
  4  5  2  0
  5  6  1  0
  6  7  2  0
  7  8  1  0
  8  9  1  0
  9 10  1  0
 10 11  1  0
 11 12  1  0
 12 13  1  0
  7 14  1  0
 14 15  2  0
  2 16  1  0
 16 17  2  0
 17 18  1  0
 18 19  2  0
 19 20  1  0
 20 21  2  0
 15  4  1  0
 21 16  1  0
 13  9  1  0
  3 22  1  0
  5 23  1  0
  6 24  1  0
  8 25  1  0
  8 26  1  0
 10 27  1  0
 10 28  1  0
 11 29  1  0
 11 30  1  0
 12 31  1  0
 12 32  1  0
 13 33  1  0
 13 34  1  0
 14 35  1  0
 15 36  1  0
 17 37  1  0
 18 38  1  0
 19 39  1  0
 20 40  1  0
M  END
>  <UniqueID>  (38) 
35

>  <SMILES>  (38) 
O=C(Nc1ccc(CN2CCCC2)cc1)c1ccccn1

>  <Energy>  (38) 
51.078714879262385

>  <Genealogy>  (38) 
O=C(Nc1ccc(CN2CCCC2)cc1)c1ccccn1 (3D coordinates assigned)
O=C(Nc1ccc(CN2CCCC2)cc1)c1ccccn1 (nonaromatic ring conformer: 51.078714879262385 kcal/mol)

>  <smiles>  (38) 
O=C(Nc1ccc(CN2CCCC2)cc1)c1ccccn1

>  <score_type>  (38) 
oracle

>  <origin>  (38) 
adg

>  <m_score__min__energy>  (38) 
-7.7300000000000004

>  <m_primary>  (38) 
energy

$$$$
38:0
     RDKit          3D

 42 45  0  0  0  0  0  0  0  0999 V2000
   57.4280   26.9500   47.1930 O   0  0  0  0  0  0  0  0  0  0  0  0
   56.7210   26.8030   46.1600 C   0  0  0  0  0  0  0  0  0  0  0  0
   56.7210   27.8100   45.1340 N   0  0  0  0  0  0  0  0  0  0  0  0
   57.2920   29.1190   45.2910 C   0  0  0  0  0  0  0  0  0  0  0  0
   58.2350   29.3920   46.2970 C   0  0  0  0  0  0  0  0  0  0  0  0
   58.7600   30.6780   46.4440 C   0  0  0  0  0  0  0  0  0  0  0  0
   58.3440   31.7230   45.6000 C   0  0  0  0  0  0  0  0  0  0  0  0
   58.9020   33.0890   45.7560 C   0  0  0  0  0  0  0  0  0  0  0  0
   59.5960   33.4490   46.9270 C   0  0  0  0  0  0  0  0  0  0  0  0
   60.1210   34.7360   47.0730 C   0  0  0  0  0  0  0  0  0  0  0  0
   59.9600   35.6790   46.0550 C   0  0  0  0  0  0  0  0  0  0  0  0
   59.2740   35.3350   44.8880 C   0  0  0  0  0  0  0  0  0  0  0  0
   58.7470   34.0490   44.7370 C   0  0  0  0  0  0  0  0  0  0  0  0
   57.3820   31.4510   44.6090 C   0  0  0  0  0  0  0  0  0  0  0  0
   56.8580   30.1630   44.4640 C   0  0  0  0  0  0  0  0  0  0  0  0
   55.8930   25.5920   46.0080 C   0  0  0  0  0  0  0  0  0  0  0  0
   54.6420   25.7110   45.9090 O   0  0  0  0  0  0  0  0  0  0  0  0
   56.4780   24.2380   46.0210 C   0  0  0  0  0  0  0  0  0  0  0  0
   56.9160   23.5560   47.1520 C   0  0  0  0  0  0  0  0  0  0  0  0
   57.3830   22.3330   46.8180 N   0  0  0  0  0  0  0  0  0  0  0  0
   57.2280   22.2260   45.4870 C   0  0  0  0  0  0  0  0  0  0  0  0
   57.5320   21.1220   44.6920 C   0  0  0  0  0  0  0  0  0  0  0  0
   57.2390   21.1990   43.3190 C   0  0  0  0  0  0  0  0  0  0  0  0
   56.6430   22.3610   42.7790 C   0  0  0  0  0  0  0  0  0  0  0  0
   56.3440   23.4580   43.6050 C   0  0  0  0  0  0  0  0  0  0  0  0
   56.6720   23.3660   44.9610 C   0  0  0  0  0  0  0  0  0  0  0  0
   56.3750   27.5390   44.1840 H   0  0  0  0  0  0  0  0  0  0  0  0
   58.5616   28.5878   46.9728 H   0  0  0  0  0  0  0  0  0  0  0  0
   59.5062   30.8753   47.2277 H   0  0  0  0  0  0  0  0  0  0  0  0
   59.7260   32.7118   47.7330 H   0  0  0  0  0  0  0  0  0  0  0  0
   60.6622   35.0070   47.9915 H   0  0  0  0  0  0  0  0  0  0  0  0
   60.3732   36.6917   46.1724 H   0  0  0  0  0  0  0  0  0  0  0  0
   59.1482   36.0774   44.0862 H   0  0  0  0  0  0  0  0  0  0  0  0
   58.2073   33.7849   43.8156 H   0  0  0  0  0  0  0  0  0  0  0  0
   57.0401   32.2577   43.9439 H   0  0  0  0  0  0  0  0  0  0  0  0
   56.0978   29.9676   43.6933 H   0  0  0  0  0  0  0  0  0  0  0  0
   56.8862   23.9569   48.1759 H   0  0  0  0  0  0  0  0  0  0  0  0
   57.7680   21.6120   47.4680 H   0  0  0  0  0  0  0  0  0  0  0  0
   57.9868   20.2190   45.1252 H   0  0  0  0  0  0  0  0  0  0  0  0
   57.4751   20.3496   42.6612 H   0  0  0  0  0  0  0  0  0  0  0  0
   56.4115   22.4072   41.7046 H   0  0  0  0  0  0  0  0  0  0  0  0
   55.8666   24.3612   43.1972 H   0  0  0  0  0  0  0  0  0  0  0  0
  1  2  2  0
  2  3  1  0
  3  4  1  0
  4  5  2  0
  5  6  1  0
  6  7  2  0
  7  8  1  0
  8  9  2  0
  9 10  1  0
 10 11  2  0
 11 12  1  0
 12 13  2  0
  7 14  1  0
 14 15  2  0
  2 16  1  0
 16 17  2  0
 16 18  1  0
 18 19  2  0
 19 20  1  0
 20 21  1  0
 21 22  2  0
 22 23  1  0
 23 24  2  0
 24 25  1  0
 25 26  2  0
 15  4  1  0
 26 18  1  0
 13  8  1  0
 26 21  1  0
  3 27  1  0
  5 28  1  0
  6 29  1  0
  9 30  1  0
 10 31  1  0
 11 32  1  0
 12 33  1  0
 13 34  1  0
 14 35  1  0
 15 36  1  0
 19 37  1  0
 20 38  1  0
 22 39  1  0
 23 40  1  0
 24 41  1  0
 25 42  1  0
M  END
>  <UniqueID>  (39) 
36

>  <SMILES>  (39) 
O=C(Nc1ccc(-c2ccccc2)cc1)C(=O)c1c[nH]c2ccccc12

>  <Energy>  (39) 
92.56640949427255

>  <Genealogy>  (39) 
O=C(Nc1ccc(-c2ccccc2)cc1)C(=O)c1c[nH]c2ccccc12 (3D coordinates assigned)
O=C(Nc1ccc(-c2ccccc2)cc1)C(=O)c1c[nH]c2ccccc12 (optimized conformer: 92.56640949427255 kcal/mol)

>  <smiles>  (39) 
O=C(Nc1ccc(-c2ccccc2)cc1)C(=O)c1c[nH]c2ccccc12

>  <score_type>  (39) 
oracle

>  <origin>  (39) 
adg

>  <m_score__min__energy>  (39) 
-9.2799999999999994

>  <m_primary>  (39) 
energy

$$$$
39:0
     RDKit          3D

 21 22  0  0  0  0  0  0  0  0999 V2000
   56.1020   29.6100   41.8730 F   0  0  0  0  0  0  0  0  0  0  0  0
   56.6660   30.4740   42.7540 C   0  0  0  0  0  0  0  0  0  0  0  0
   56.5040   30.3000   44.1240 C   0  0  0  0  0  0  0  0  0  0  0  0
   57.0770   31.1770   44.9850 N   0  0  0  0  0  0  0  0  0  0  0  0
   57.8150   32.2370   44.5500 C   0  0  0  0  0  0  0  0  0  0  0  0
   58.4170   33.1630   45.5630 C   0  0  0  0  0  0  0  0  0  0  0  0
   58.3490   32.9180   46.9540 C   0  0  0  0  0  0  0  0  0  0  0  0
   58.9260   33.8100   47.8640 C   0  0  0  0  0  0  0  0  0  0  0  0
   59.5770   34.9570   47.4100 C   0  0  0  0  0  0  0  0  0  0  0  0
   59.6540   35.2160   46.0430 C   0  0  0  0  0  0  0  0  0  0  0  0
   59.0810   34.3300   45.1260 C   0  0  0  0  0  0  0  0  0  0  0  0
   57.9790   32.4160   43.2010 N   0  0  0  0  0  0  0  0  0  0  0  0
   57.4180   31.5560   42.3070 C   0  0  0  0  0  0  0  0  0  0  0  0
   55.9137   29.4548   44.5076 H   0  0  0  0  0  0  0  0  0  0  0  0
   57.8374   32.0173   47.3240 H   0  0  0  0  0  0  0  0  0  0  0  0
   58.8660   33.6058   48.9432 H   0  0  0  0  0  0  0  0  0  0  0  0
   60.0287   35.6557   48.1296 H   0  0  0  0  0  0  0  0  0  0  0  0
   60.1672   36.1204   45.6843 H   0  0  0  0  0  0  0  0  0  0  0  0
   59.1483   34.5449   44.0493 H   0  0  0  0  0  0  0  0  0  0  0  0
   58.5300   33.2060   42.8090 H   0  0  0  0  0  0  0  0  0  0  0  0
   57.5597   31.7170   41.2281 H   0  0  0  0  0  0  0  0  0  0  0  0
  1  2  1  0
  2  3  2  0
  3  4  1  0
  4  5  2  0
  5  6  1  0
  6  7  2  0
  7  8  1  0
  8  9  2  0
  9 10  1  0
 10 11  2  0
  5 12  1  0
 12 13  2  0
 13  2  1  0
 11  6  1  0
  3 14  1  0
  7 15  1  0
  8 16  1  0
  9 17  1  0
 10 18  1  0
 11 19  1  0
 12 20  1  0
 13 21  1  0
M  CHG  1  12   1
M  END
>  <UniqueID>  (40) 
37

>  <SMILES>  (40) 
Fc1cnc(-c2ccccc2)[nH+]c1

>  <Energy>  (40) 
26.99574623585983

>  <Genealogy>  (40) 
Fc1cnc(-c2ccccc2)[nH+]c1 (protonated)
Fc1cnc(-c2ccccc2)[nH+]c1 (3D coordinates assigned)
Fc1cnc(-c2ccccc2)[nH+]c1 (optimized conformer: 26.99574623585983 kcal/mol)

>  <smiles>  (40) 
Fc1cnc(-c2ccccc2)nc1

>  <score_type>  (40) 
oracle

>  <origin>  (40) 
adg

>  <m_score__min__energy>  (40) 
-3.96

>  <m_primary>  (40) 
energy

$$$$
40:0
     RDKit          3D

 41 43  0  0  0  0  0  0  0  0999 V2000
   59.2790   34.5690   47.5120 C   0  0  0  0  0  0  0  0  0  0  0  0
   58.6960   33.7010   46.4360 C   0  0  0  0  0  0  0  0  0  0  0  0
   58.3470   34.2550   45.1950 C   0  0  0  0  0  0  0  0  0  0  0  0
   57.8270   33.4420   44.1860 C   0  0  0  0  0  0  0  0  0  0  0  0
   57.6760   32.0700   44.3980 C   0  0  0  0  0  0  0  0  0  0  0  0
   58.0590   31.4900   45.6170 C   0  0  0  0  0  0  0  0  0  0  0  0
   57.8790   30.0750   45.8110 N   0  0  0  0  0  0  0  0  0  0  0  0
   56.7770   29.3220   45.2790 C   0  0  0  0  0  0  0  0  0  0  0  0
   55.7430   29.9140   44.8700 O   0  0  0  0  0  0  0  0  0  0  0  0
   56.8130   27.8500   45.2420 C   0  0  0  0  0  0  0  0  0  0  0  0
   57.7960   27.0600   44.6700 C   0  0  0  0  0  0  0  0  0  0  0  0
   57.3500   25.7730   44.8750 C   0  0  0  0  0  0  0  0  0  0  0  0
   58.0140   24.7180   44.4950 N   0  0  0  0  0  0  0  0  0  0  0  0
   58.4830   23.6450   45.3160 C   0  0  0  0  0  0  0  0  0  0  0  0
   59.5620   23.7720   45.9490 O   0  0  0  0  0  0  0  0  0  0  0  0
   57.6810   22.4190   45.4510 C   0  0  0  0  0  0  0  0  0  0  0  0
   57.1700   21.7540   44.3230 C   0  0  0  0  0  0  0  0  0  0  0  0
   56.3820   20.6140   44.4950 C   0  0  0  0  0  0  0  0  0  0  0  0
   56.1100   20.1450   45.7810 C   0  0  0  0  0  0  0  0  0  0  0  0
   56.6390   20.8260   46.8810 C   0  0  0  0  0  0  0  0  0  0  0  0
   57.4020   21.9360   46.6930 N   0  0  0  0  0  0  0  0  0  0  0  0
   56.1740   25.8050   45.5530 N   0  0  0  0  0  0  0  0  0  0  0  0
   55.3510   24.7010   46.0420 C   0  0  0  0  0  0  0  0  0  0  0  0
   55.8460   27.0700   45.7680 N   0  0  0  0  0  0  0  0  0  0  0  0
   58.5570   32.3180   46.6420 C   0  0  0  0  0  0  0  0  0  0  0  0
   59.0068   34.1637   48.4977 H   0  0  0  0  0  0  0  0  0  0  0  0
   60.3744   34.5891   47.4136 H   0  0  0  0  0  0  0  0  0  0  0  0
   58.8832   35.5906   47.4136 H   0  0  0  0  0  0  0  0  0  0  0  0
   58.4833   35.3319   45.0167 H   0  0  0  0  0  0  0  0  0  0  0  0
   57.5355   33.8834   43.2215 H   0  0  0  0  0  0  0  0  0  0  0  0
   57.2532   31.4386   43.6027 H   0  0  0  0  0  0  0  0  0  0  0  0
   58.5390   29.5870   46.4540 H   0  0  0  0  0  0  0  0  0  0  0  0
   58.7193   27.3850   44.1681 H   0  0  0  0  0  0  0  0  0  0  0  0
   57.3892   22.1288   43.3123 H   0  0  0  0  0  0  0  0  0  0  0  0
   55.9766   20.0868   43.6188 H   0  0  0  0  0  0  0  0  0  0  0  0
   55.4869   19.2503   45.9271 H   0  0  0  0  0  0  0  0  0  0  0  0
   56.4379   20.4637   47.9000 H   0  0  0  0  0  0  0  0  0  0  0  0
   55.3519   24.7022   47.1420 H   0  0  0  0  0  0  0  0  0  0  0  0
   54.3207   24.8216   45.6761 H   0  0  0  0  0  0  0  0  0  0  0  0
   55.7609   23.7481   45.6761 H   0  0  0  0  0  0  0  0  0  0  0  0
   58.8390   31.8789   47.6103 H   0  0  0  0  0  0  0  0  0  0  0  0
  1  2  1  0
  2  3  2  0
  3  4  1  0
  4  5  2  0
  5  6  1  0
  6  7  1  0
  7  8  1  0
  8  9  2  0
  8 10  1  0
 10 11  2  0
 11 12  1  0
 12 13  2  3
 13 14  1  0
 14 15  2  0
 14 16  1  0
 16 17  2  0
 17 18  1  0
 18 19  2  0
 19 20  1  0
 20 21  2  0
 12 22  1  0
 22 23  1  0
 22 24  1  0
  6 25  2  0
 25  2  1  0
 24 10  1  0
 21 16  1  0
  1 26  1  0
  1 27  1  0
  1 28  1  0
  3 29  1  0
  4 30  1  0
  5 31  1  0
  7 32  1  0
 11 33  1  0
 17 34  1  0
 18 35  1  0
 19 36  1  0
 20 37  1  0
 23 38  1  0
 23 39  1  0
 23 40  1  0
 25 41  1  0
M  CHG  1  24  -1
M  END
>  <UniqueID>  (41) 
38

>  <SMILES>  (41) 
Cc1cccc(NC(=O)c2cc(=NC(=O)c3ccccn3)n(C)[n-]2)c1

>  <Energy>  (41) 
88.79611553438241

>  <Genealogy>  (41) 
Cc1cccc(NC(=O)c2cc(=NC(=O)c3ccccn3)n(C)[n-]2)c1 (protonated)
Cc1cccc(NC(=O)c2cc(=NC(=O)c3ccccn3)n(C)[n-]2)c1 (3D coordinates assigned)
Cc1cccc(NC(=O)c2cc(=NC(=O)c3ccccn3)n(C)[n-]2)c1 (optimized conformer: 88.79611553438241 kcal/mol)

>  <smiles>  (41) 
Cc1cccc(NC(=O)c2cc(=NC(=O)c3ccccn3)n(C)[nH]2)c1

>  <score_type>  (41) 
oracle

>  <origin>  (41) 
adg

>  <m_score__min__energy>  (41) 
-9.9399999999999995

>  <m_primary>  (41) 
energy

$$$$
41:0
     RDKit          3D

 31 33  0  0  0  0  0  0  0  0999 V2000
   57.8136   32.8857   42.6496 H   0  0  0  0  0  0  0  0  0  0  0  0
   57.7600   32.7090   43.7340 C   0  0  0  0  0  0  0  0  0  0  0  0
   57.8690   33.7370   44.5280 N   0  0  0  0  0  0  0  0  0  0  0  0
   58.5700   33.7860   45.7780 C   0  0  0  0  0  0  0  0  0  0  0  0
   59.8510   33.5600   45.9380 O   0  0  0  0  0  0  0  0  0  0  0  0
   60.0600   33.6920   47.2290 C   0  0  0  0  0  0  0  0  0  0  0  0
   61.3800   33.5420   47.8710 C   0  0  0  0  0  0  0  0  0  0  0  0
   62.4760   33.0740   47.1230 C   0  0  0  0  0  0  0  0  0  0  0  0
   62.3448   32.8164   46.0617 H   0  0  0  0  0  0  0  0  0  0  0  0
   63.7310   32.9350   47.7230 C   0  0  0  0  0  0  0  0  0  0  0  0
   64.5841   32.5692   47.1327 H   0  0  0  0  0  0  0  0  0  0  0  0
   63.9040   33.2600   49.0720 C   0  0  0  0  0  0  0  0  0  0  0  0
   65.4800   33.0840   49.8230 Cl  0  0  0  0  0  0  0  0  0  0  0  0
   62.8200   33.7260   49.8220 C   0  0  0  0  0  0  0  0  0  0  0  0
   62.9562   33.9815   50.8832 H   0  0  0  0  0  0  0  0  0  0  0  0
   61.5630   33.8680   49.2260 C   0  0  0  0  0  0  0  0  0  0  0  0
   60.7137   34.2364   49.8201 H   0  0  0  0  0  0  0  0  0  0  0  0
   58.9170   33.9880   47.8850 N   0  0  0  0  0  0  0  0  0  0  0  0
   57.9790   34.0420   46.9540 N   0  0  0  0  0  0  0  0  0  0  0  0
   56.9710   34.2480   47.1280 H   0  0  0  0  0  0  0  0  0  0  0  0
   57.5690   31.3220   44.2020 C   0  0  0  0  0  0  0  0  0  0  0  0
   56.3370   30.6660   44.0370 C   0  0  0  0  0  0  0  0  0  0  0  0
   55.5006   31.1857   43.5467 H   0  0  0  0  0  0  0  0  0  0  0  0
   56.1710   29.3550   44.4940 C   0  0  0  0  0  0  0  0  0  0  0  0
   55.2111   28.8388   44.3456 H   0  0  0  0  0  0  0  0  0  0  0  0
   57.2250   28.6990   45.1400 C   0  0  0  0  0  0  0  0  0  0  0  0
   57.0170   27.0520   45.7060 Cl  0  0  0  0  0  0  0  0  0  0  0  0
   58.4410   29.3610   45.3390 C   0  0  0  0  0  0  0  0  0  0  0  0
   59.2658   28.8502   45.8575 H   0  0  0  0  0  0  0  0  0  0  0  0
   58.6100   30.6710   44.8800 C   0  0  0  0  0  0  0  0  0  0  0  0
   59.5630   31.1929   45.0513 H   0  0  0  0  0  0  0  0  0  0  0  0
  1  2  1  0
  2  3  2  0
  3  4  1  0
  4  5  1  0
  5  6  1  0
  6  7  1  0
  7  8  2  0
  8  9  1  0
  8 10  1  0
 10 11  1  0
 10 12  2  0
 12 13  1  0
 12 14  1  0
 14 15  1  0
 14 16  2  0
 16 17  1  0
  6 18  2  0
 18 19  1  0
 19 20  1  0
  2 21  1  0
 21 22  2  0
 22 23  1  0
 22 24  1  0
 24 25  1  0
 24 26  2  0
 26 27  1  0
 26 28  1  0
 28 29  1  0
 28 30  2  0
 30 31  1  0
 19  4  2  0
 30 21  1  0
 16  7  1  0
M  CHG  1  19   1
M  END
>  <UniqueID>  (42) 
39

>  <SMILES>  (42) 
Clc1ccc(/C=N\c2[nH+]nc(-c3ccc(Cl)cc3)o2)cc1

>  <Energy>  (42) 
76.80060114401378

>  <Genealogy>  (42) 
Clc1ccc(C=Nc2[nH+]nc(-c3ccc(Cl)cc3)o2)cc1 (protonated)
Clc1ccc(/C=N\c2[nH+]nc(-c3ccc(Cl)cc3)o2)cc1 (cis-trans isomerization)
Clc1ccc(/C=N\c2[nH+]nc(-c3ccc(Cl)cc3)o2)cc1 (3D coordinates assigned)
Clc1ccc(/C=N\c2[nH+]nc(-c3ccc(Cl)cc3)o2)cc1 (optimized conformer: 76.80060114401378 kcal/mol)

>  <smiles>  (42) 
Clc1ccc(C=Nc2nnc(-c3ccc(Cl)cc3)o2)cc1

>  <score_type>  (42) 
oracle

>  <origin>  (42) 
adg

>  <m_score__min__energy>  (42) 
-6.5300000000000002

>  <m_primary>  (42) 
energy

$$$$
42:0
     RDKit          3D

 35 37  0  0  0  0  0  0  0  0999 V2000
   59.0734   34.6427   44.5536 H   0  0  0  0  0  0  0  0  0  0  0  0
   58.5350   33.6840   44.5860 C   0  0  0  0  0  0  0  0  0  0  0  0
   58.1550   32.7160   43.2630 S   0  0  0  0  0  0  0  0  0  0  0  0
   57.3770   31.5500   44.2040 C   0  0  0  0  0  0  0  0  0  0  0  0
   56.8090   30.4590   43.7790 N   0  0  0  0  0  0  0  0  0  0  0  0
   56.4190   29.3090   44.5500 C   0  0  0  0  0  0  0  0  0  0  0  0
   55.2170   29.1400   44.8910 O   0  0  0  0  0  0  0  0  0  0  0  0
   57.4410   28.3110   44.9500 C   0  0  0  0  0  0  0  0  0  0  0  0
   58.8020   28.6630   45.0100 C   0  0  0  0  0  0  0  0  0  0  0  0
   59.1138   29.6857   44.7513 H   0  0  0  0  0  0  0  0  0  0  0  0
   59.7600   27.7220   45.3960 C   0  0  0  0  0  0  0  0  0  0  0  0
   60.8207   28.0091   45.4471 H   0  0  0  0  0  0  0  0  0  0  0  0
   59.3760   26.4190   45.7170 C   0  0  0  0  0  0  0  0  0  0  0  0
   60.1332   25.6848   46.0293 H   0  0  0  0  0  0  0  0  0  0  0  0
   58.0230   26.0430   45.6420 C   0  0  0  0  0  0  0  0  0  0  0  0
   57.5960   24.7480   45.9720 O   0  0  0  0  0  0  0  0  0  0  0  0
   57.5280   23.6630   45.0860 C   0  0  0  0  0  0  0  0  0  0  0  0
   56.6920   23.7510   43.9700 C   0  0  0  0  0  0  0  0  0  0  0  0
   56.0913   24.6576   43.8049 H   0  0  0  0  0  0  0  0  0  0  0  0
   56.6170   22.6930   43.0650 C   0  0  0  0  0  0  0  0  0  0  0  0
   55.9523   22.7557   42.1908 H   0  0  0  0  0  0  0  0  0  0  0  0
   57.3950   21.5520   43.2800 C   0  0  0  0  0  0  0  0  0  0  0  0
   57.3399   20.7085   42.5762 H   0  0  0  0  0  0  0  0  0  0  0  0
   58.2210   21.4840   44.3600 N   0  0  0  0  0  0  0  0  0  0  0  0
   58.8060   20.6300   44.5010 H   0  0  0  0  0  0  0  0  0  0  0  0
   58.3080   22.5050   45.2550 C   0  0  0  0  0  0  0  0  0  0  0  0
   58.9907   22.4245   46.1137 H   0  0  0  0  0  0  0  0  0  0  0  0
   57.0640   26.9940   45.2760 C   0  0  0  0  0  0  0  0  0  0  0  0
   56.0020   26.7092   45.2425 H   0  0  0  0  0  0  0  0  0  0  0  0
   57.3980   31.8790   45.5130 N   0  0  0  0  0  0  0  0  0  0  0  0
   58.0470   33.0560   45.7290 C   0  0  0  0  0  0  0  0  0  0  0  0
   58.1640   33.6510   47.0930 C   0  0  0  0  0  0  0  0  0  0  0  0
   58.0099   32.8673   47.8493 H   0  0  0  0  0  0  0  0  0  0  0  0
   59.1654   34.0888   47.2174 H   0  0  0  0  0  0  0  0  0  0  0  0
   57.4029   34.4354   47.2174 H   0  0  0  0  0  0  0  0  0  0  0  0
  1  2  1  0
  2  3  1  0
  3  4  1  0
  4  5  2  0
  5  6  1  0
  6  7  2  0
  6  8  1  0
  8  9  2  0
  9 10  1  0
  9 11  1  0
 11 12  1  0
 11 13  2  0
 13 14  1  0
 13 15  1  0
 15 16  1  0
 16 17  1  0
 17 18  2  0
 18 19  1  0
 18 20  1  0
 20 21  1  0
 20 22  2  0
 22 23  1  0
 22 24  1  0
 24 25  1  0
 24 26  2  0
 26 27  1  0
 15 28  2  0
 28 29  1  0
  4 30  1  0
 30 31  1  0
 31 32  1  0
 32 33  1  0
 32 34  1  0
 32 35  1  0
 31  2  2  0
 28  8  1  0
 26 17  1  0
M  CHG  2  24   1  30  -1
M  END
>  <UniqueID>  (43) 
40

>  <SMILES>  (43) 
Cc1cs/c(=N\C(=O)c2cccc(Oc3ccc[nH+]c3)c2)[n-]1

>  <Energy>  (43) 
76.9585301508716

>  <Genealogy>  (43) 
Cc1csc(=NC(=O)c2cccc(Oc3ccc[nH+]c3)c2)[n-]1 (protonated)
Cc1cs/c(=N\C(=O)c2cccc(Oc3ccc[nH+]c3)c2)[n-]1 (cis-trans isomerization)
Cc1cs/c(=N\C(=O)c2cccc(Oc3ccc[nH+]c3)c2)[n-]1 (3D coordinates assigned)
Cc1cs/c(=N\C(=O)c2cccc(Oc3ccc[nH+]c3)c2)[n-]1 (optimized conformer: 76.9585301508716 kcal/mol)

>  <smiles>  (43) 
Cc1csc(=NC(=O)c2cccc(Oc3cccnc3)c2)[nH]1

>  <score_type>  (43) 
oracle

>  <origin>  (43) 
adg

>  <m_score__min__energy>  (43) 
-8.3699999999999992

>  <m_primary>  (43) 
energy

$$$$
43:0
     RDKit          3D

 43 45  0  0  0  0  0  0  0  0999 V2000
   57.7330   31.7660   42.9010 C   0  0  0  0  0  0  0  0  0  0  0  0
   57.9650   32.3020   44.2880 C   0  0  0  0  0  0  0  0  0  0  0  0
   57.8470   33.6790   44.5340 C   0  0  0  0  0  0  0  0  0  0  0  0
   58.0550   34.1870   45.8160 C   0  0  0  0  0  0  0  0  0  0  0  0
   58.3890   33.3310   46.8650 C   0  0  0  0  0  0  0  0  0  0  0  0
   58.5340   31.9520   46.6400 C   0  0  0  0  0  0  0  0  0  0  0  0
   58.8730   31.0470   47.7930 C   0  0  0  0  0  0  0  0  0  0  0  0
   58.3090   31.4320   45.3460 C   0  0  0  0  0  0  0  0  0  0  0  0
   58.4260   30.0210   45.0990 N   0  0  0  0  0  0  0  0  0  0  0  0
   59.7560   29.4210   44.9590 C   0  0  0  0  0  0  0  0  0  0  0  0
   59.7480   28.0090   45.4690 C   0  0  0  0  0  0  0  0  0  0  0  0
   60.8030   27.5250   45.9590 O   0  0  0  0  0  0  0  0  0  0  0  0
   58.5500   27.2130   45.3670 N   0  0  0  0  0  0  0  0  0  0  0  0
   58.5480   25.8080   45.7960 C   0  0  0  0  0  0  0  0  0  0  0  0
   57.3480   25.0930   45.2370 C   0  0  0  0  0  0  0  0  0  0  0  0
   56.1380   25.0640   45.9500 C   0  0  0  0  0  0  0  0  0  0  0  0
   55.0360   24.3710   45.4390 C   0  0  0  0  0  0  0  0  0  0  0  0
   55.1370   23.6970   44.2180 C   0  0  0  0  0  0  0  0  0  0  0  0
   56.3390   23.7150   43.5070 C   0  0  0  0  0  0  0  0  0  0  0  0
   57.4430   24.4080   44.0140 C   0  0  0  0  0  0  0  0  0  0  0  0
   57.3890   27.7490   44.6450 C   0  0  0  0  0  0  0  0  0  0  0  0
   57.2510   29.2210   44.8900 C   0  0  0  0  0  0  0  0  0  0  0  0
   56.1070   29.7520   44.8780 O   0  0  0  0  0  0  0  0  0  0  0  0
   57.2968   30.7582   42.9656 H   0  0  0  0  0  0  0  0  0  0  0  0
   57.0421   32.4308   42.3618 H   0  0  0  0  0  0  0  0  0  0  0  0
   58.6906   31.7172   42.3618 H   0  0  0  0  0  0  0  0  0  0  0  0
   57.5889   34.3614   43.7107 H   0  0  0  0  0  0  0  0  0  0  0  0
   57.9552   35.2668   46.0004 H   0  0  0  0  0  0  0  0  0  0  0  0
   58.5399   33.7384   47.8756 H   0  0  0  0  0  0  0  0  0  0  0  0
   58.6768   31.5708   48.7402 H   0  0  0  0  0  0  0  0  0  0  0  0
   58.2540   30.1392   47.7409 H   0  0  0  0  0  0  0  0  0  0  0  0
   59.9361   30.7693   47.7409 H   0  0  0  0  0  0  0  0  0  0  0  0
   60.0442   29.4216   43.8974 H   0  0  0  0  0  0  0  0  0  0  0  0
   60.4769   30.0089   45.5460 H   0  0  0  0  0  0  0  0  0  0  0  0
   59.4637   25.3170   45.4349 H   0  0  0  0  0  0  0  0  0  0  0  0
   58.5078   25.7694   46.8946 H   0  0  0  0  0  0  0  0  0  0  0  0
   56.0570   25.5882   46.9137 H   0  0  0  0  0  0  0  0  0  0  0  0
   54.0888   24.3561   45.9981 H   0  0  0  0  0  0  0  0  0  0  0  0
   54.2694   23.1524   43.8173 H   0  0  0  0  0  0  0  0  0  0  0  0
   56.4175   23.1835   42.5471 H   0  0  0  0  0  0  0  0  0  0  0  0
   58.3892   24.4168   43.4531 H   0  0  0  0  0  0  0  0  0  0  0  0
   57.5201   27.5723   43.5672 H   0  0  0  0  0  0  0  0  0  0  0  0
   56.4816   27.2422   45.0053 H   0  0  0  0  0  0  0  0  0  0  0  0
  1  2  1  0
  2  3  2  0
  3  4  1  0
  4  5  2  0
  5  6  1  0
  6  7  1  0
  6  8  2  0
  8  9  1  0
  9 10  1  0
 10 11  1  0
 11 12  2  0
 11 13  1  0
 13 14  1  0
 14 15  1  0
 15 16  2  0
 16 17  1  0
 17 18  2  0
 18 19  1  0
 19 20  2  0
 13 21  1  0
 21 22  1  0
 22 23  2  0
  8  2  1  0
 22  9  1  0
 20 15  1  0
  1 24  1  0
  1 25  1  0
  1 26  1  0
  3 27  1  0
  4 28  1  0
  5 29  1  0
  7 30  1  0
  7 31  1  0
  7 32  1  0
 10 33  1  0
 10 34  1  0
 14 35  1  0
 14 36  1  0
 16 37  1  0
 17 38  1  0
 18 39  1  0
 19 40  1  0
 20 41  1  0
 21 42  1  0
 21 43  1  0
M  END
>  <UniqueID>  (44) 
41

>  <SMILES>  (44) 
Cc1cccc(C)c1N1CC(=O)N(Cc2ccccc2)CC1=O

>  <Energy>  (44) 
49.37026622021907

>  <Genealogy>  (44) 
Cc1cccc(C)c1N1CC(=O)N(Cc2ccccc2)CC1=O (3D coordinates assigned)
Cc1cccc(C)c1N1CC(=O)N(Cc2ccccc2)CC1=O (nonaromatic ring conformer: 49.37026622021907 kcal/mol)

>  <smiles>  (44) 
Cc1cccc(C)c1N1CC(=O)N(Cc2ccccc2)CC1=O

>  <score_type>  (44) 
oracle

>  <origin>  (44) 
adg

>  <m_score__min__energy>  (44) 
-7.8099999999999996

>  <m_primary>  (44) 
energy

$$$$
44:0
     RDKit          3D

 33 36  0  0  1  0  0  0  0  0999 V2000
   58.7570   33.7580   52.0330 Cl  0  0  0  0  0  0  0  0  0  0  0  0
   59.1670   32.2970   51.1480 C   0  0  0  0  0  0  0  0  0  0  0  0
   60.3570   32.2130   50.4320 C   0  0  0  0  0  0  0  0  0  0  0  0
   60.6300   31.0280   49.7490 C   0  0  0  0  0  0  0  0  0  0  0  0
   59.7420   29.9720   49.7850 C   0  0  0  0  0  0  0  0  0  0  0  0
   59.9680   28.7410   49.1080 N   0  0  0  0  0  0  0  0  0  0  0  0
   59.2980   28.4950   48.0290 C   0  0  0  0  0  0  0  0  0  0  0  0
   58.9890   27.2080   47.6520 C   0  0  0  0  0  0  0  0  0  0  0  0
   58.2700   27.0530   46.4840 C   0  0  0  0  0  0  0  0  0  0  0  0
   57.8920   28.1170   45.7510 N   0  0  0  0  0  0  0  0  0  0  0  0
   57.2110   28.1710   44.6240 N   0  0  0  0  0  0  0  0  0  0  0  0
   57.0910   29.4690   44.2920 C   0  0  0  0  0  0  0  0  0  0  0  0
   56.2720   30.0880   42.8790 Cl  0  0  0  0  0  0  0  0  0  0  0  0
   57.7050   30.2670   45.2230 C   0  0  0  0  0  0  0  0  0  0  0  0
   57.8310   31.7210   45.2810 C   0  0  0  0  0  0  0  0  0  0  0  0
   57.7870   32.6720   44.3420 C   0  0  0  0  0  0  0  0  0  0  0  0
   57.9380   33.9600   44.6990 C   0  0  0  0  0  0  0  0  0  0  0  0
   58.1330   34.2180   46.0360 C   0  0  0  0  0  0  0  0  0  0  0  0
   58.1040   32.5960   46.8290 S   0  0  0  0  0  0  0  0  0  0  0  0
   58.2210   29.3700   46.1640 C   0  0  0  0  0  0  0  0  0  0  0  0
   58.9180   29.5460   47.2970 N   0  0  0  0  0  0  0  0  0  0  0  0
   58.5570   30.0820   50.5090 C   0  0  0  0  0  0  0  0  0  0  0  0
   58.2620   31.2550   51.2010 C   0  0  0  0  0  0  0  0  0  0  0  0
   61.0622   33.0568   50.4054 H   0  0  0  0  0  0  0  0  0  0  0  0
   61.5637   30.9339   49.1751 H   0  0  0  0  0  0  0  0  0  0  0  0
   59.3009   26.3420   48.2543 H   0  0  0  0  0  0  0  0  0  0  0  0
   58.0009   26.0414   46.1459 H   0  0  0  0  0  0  0  0  0  0  0  0
   56.8360   27.3450   44.0900 H   0  0  0  0  0  0  0  0  0  0  0  0
   57.6287   32.4034   43.2871 H   0  0  0  0  0  0  0  0  0  0  0  0
   57.9070   34.7702   43.9556 H   0  0  0  0  0  0  0  0  0  0  0  0
   58.2753   35.1972   46.5165 H   0  0  0  0  0  0  0  0  0  0  0  0
   57.8508   29.2390   50.5346 H   0  0  0  0  0  0  0  0  0  0  0  0
   57.3293   31.3490   51.7765 H   0  0  0  0  0  0  0  0  0  0  0  0
  1  2  1  0
  2  3  2  0
  3  4  1  0
  4  5  2  0
  5  6  1  0
  6  7  2  0
  7  8  1  0
  8  9  2  0
  9 10  1  0
 10 11  1  0
 11 12  1  0
 12 13  1  0
 12 14  2  0
 14 15  1  0
 15 16  2  0
 16 17  1  0
 17 18  2  0
 18 19  1  0
 14 20  1  0
 20 21  2  0
  5 22  1  0
 22 23  2  0
 23  2  1  0
 21  7  1  0
 20 10  1  0
 19 15  1  0
  3 24  1  0
  4 25  1  0
  8 26  1  0
  9 27  1  0
 11 28  1  0
 16 29  1  0
 17 30  1  0
 18 31  1  0
 22 32  1  0
 23 33  1  0
M  END
>  <smiles>  (45) 
Clc1ccc(N=c2ccn3[nH]c(Cl)c(-c4cccs4)c3n2)cc1

>  <score_type>  (45) 
oracle

>  <origin>  (45) 
adg

>  <m_score__min__energy>  (45) 
-7.8600000000000003

>  <m_primary>  (45) 
energy

$$$$
45:0
     RDKit          3D

 42 44  0  0  1  0  0  0  0  0999 V2000
   58.9770   34.6920   44.9440 C   0  0  0  0  0  0  0  0  0  0  0  0
   59.7550   34.4710   46.1720 C   0  0  0  0  0  0  0  0  0  0  0  0
   59.4740   35.3390   47.1050 O   0  0  0  0  0  0  0  0  0  0  0  0
   60.7220   33.4940   46.5210 C   0  0  0  0  0  0  0  0  0  0  0  0
   62.0590   33.8410   46.5040 C   0  0  0  0  0  0  0  0  0  0  0  0
   63.0990   33.1060   46.9910 C   0  0  0  0  0  0  0  0  0  0  0  0
   62.8410   31.9110   47.5530 C   0  0  0  0  0  0  0  0  0  0  0  0
   61.5460   31.4700   47.6180 C   0  0  0  0  0  0  0  0  0  0  0  0
   60.4670   32.2350   47.1100 C   0  0  0  0  0  0  0  0  0  0  0  0
   59.1920   31.5200   47.0540 C   0  0  0  0  0  0  0  0  0  0  0  0
   58.8580   31.0980   45.7100 N   0  0  0  0  0  0  0  0  0  0  0  0
   57.7960   30.4390   45.4430 C   0  0  0  0  0  0  0  0  0  0  0  0
   56.8230   31.0450   44.7930 N   0  0  0  0  0  0  0  0  0  0  0  0
   55.6680   30.3860   44.4180 C   0  0  0  0  0  0  0  0  0  0  0  0
   55.6330   29.0970   44.7770 N   0  0  0  0  0  0  0  0  0  0  0  0
   56.5730   28.4360   45.4290 C   0  0  0  0  0  0  0  0  0  0  0  0
   56.3730   27.0440   45.7230 N   0  0  0  0  0  0  0  0  0  0  0  0
   57.7080   29.1180   45.7860 C   0  0  0  0  0  0  0  0  0  0  0  0
   58.7050   28.3950   46.5470 C   0  0  0  0  0  0  0  0  0  0  0  0
   59.1450   28.4540   47.8550 C   0  0  0  0  0  0  0  0  0  0  0  0
   60.0800   27.6740   48.3350 C   0  0  0  0  0  0  0  0  0  0  0  0
   60.6200   27.7180   49.7480 C   0  0  0  0  0  0  0  0  0  0  0  0
   60.6670   26.7080   47.4510 C   0  0  0  0  0  0  0  0  0  0  0  0
   59.7220   27.0660   45.8670 S   0  0  0  0  0  0  0  0  0  0  0  0
   57.9498   34.9838   45.2082 H   0  0  0  0  0  0  0  0  0  0  0  0
   59.4450   35.4927   44.3526 H   0  0  0  0  0  0  0  0  0  0  0  0
   58.9542   33.7648   44.3526 H   0  0  0  0  0  0  0  0  0  0  0  0
   62.3107   34.8110   46.0505 H   0  0  0  0  0  0  0  0  0  0  0  0
   64.1303   33.4831   46.9256 H   0  0  0  0  0  0  0  0  0  0  0  0
   63.6597   31.2961   47.9551 H   0  0  0  0  0  0  0  0  0  0  0  0
   61.3374   30.4929   48.0782 H   0  0  0  0  0  0  0  0  0  0  0  0
   59.2563   30.6308   47.6984 H   0  0  0  0  0  0  0  0  0  0  0  0
   58.4048   32.2078   47.3965 H   0  0  0  0  0  0  0  0  0  0  0  0
   54.8491   30.8775   43.8723 H   0  0  0  0  0  0  0  0  0  0  0  0
   54.7680   28.5560   44.5000 H   0  0  0  0  0  0  0  0  0  0  0  0
   56.3110   26.3670   44.9250 H   0  0  0  0  0  0  0  0  0  0  0  0
   56.3040   26.7610   46.7310 H   0  0  0  0  0  0  0  0  0  0  0  0
   58.6863   29.1940   48.5273 H   0  0  0  0  0  0  0  0  0  0  0  0
   59.7857   27.6500   50.4617 H   0  0  0  0  0  0  0  0  0  0  0  0
   61.3064   26.8728   49.9047 H   0  0  0  0  0  0  0  0  0  0  0  0
   61.1605   28.6632   49.9047 H   0  0  0  0  0  0  0  0  0  0  0  0
   61.4529   25.9637   47.6466 H   0  0  0  0  0  0  0  0  0  0  0  0
  1  2  1  0
  2  3  2  0
  2  4  1  0
  4  5  2  0
  5  6  1  0
  6  7  2  0
  7  8  1  0
  8  9  2  0
  9 10  1  0
 10 11  1  0
 11 12  2  0
 12 13  1  0
 13 14  2  0
 14 15  1  0
 15 16  1  0
 16 17  1  0
 16 18  2  0
 18 19  1  0
 19 20  2  0
 20 21  1  0
 21 22  1  0
 21 23  2  0
 23 24  1  0
  9  4  1  0
 18 12  1  0
 24 19  1  0
  1 25  1  0
  1 26  1  0
  1 27  1  0
  5 28  1  0
  6 29  1  0
  7 30  1  0
  8 31  1  0
 10 32  1  0
 10 33  1  0
 14 34  1  0
 15 35  1  0
 17 36  1  0
 17 37  1  0
 20 38  1  0
 22 39  1  0
 22 40  1  0
 22 41  1  0
 23 42  1  0
M  END
>  <smiles>  (46) 
CC(=O)c1ccccc1CN=c1nc[nH]c(N)c1-c1cc(C)cs1

>  <score_type>  (46) 
oracle

>  <origin>  (46) 
adg

>  <m_score__min__energy>  (46) 
-8.2400000000000002

>  <m_primary>  (46) 
energy

$$$$
46:0
     RDKit          3D

 43 46  0  0  0  0  0  0  0  0999 V2000
   64.7860   31.9380   50.3310 C   0  0  0  0  0  0  0  0  0  0  0  0
   64.8070   32.8290   49.2220 O   0  0  0  0  0  0  0  0  0  0  0  0
   63.6700   33.2200   48.5000 C   0  0  0  0  0  0  0  0  0  0  0  0
   63.5660   33.0530   47.1050 C   0  0  0  0  0  0  0  0  0  0  0  0
   62.4170   33.4710   46.4300 C   0  0  0  0  0  0  0  0  0  0  0  0
   61.3550   34.0620   47.1320 C   0  0  0  0  0  0  0  0  0  0  0  0
   60.1630   34.6120   46.3890 C   0  0  0  0  0  0  0  0  0  0  0  0
   58.8580   34.3290   47.1510 C   0  0  0  0  0  0  0  0  0  0  0  0
   58.5260   32.8840   47.1420 N   0  0  0  0  0  0  0  0  0  0  0  0
   57.6360   32.4470   45.7680 S   0  0  0  0  0  0  0  0  0  0  0  0
   57.4690   30.9210   45.0370 C   0  0  0  0  0  0  0  0  0  0  0  0
   56.6390   30.8700   43.9030 C   0  0  0  0  0  0  0  0  0  0  0  0
   56.5940   29.7310   43.0990 C   0  0  0  0  0  0  0  0  0  0  0  0
   57.3940   28.6340   43.4090 C   0  0  0  0  0  0  0  0  0  0  0  0
   58.2150   28.6720   44.5360 C   0  0  0  0  0  0  0  0  0  0  0  0
   58.2440   29.8040   45.3670 C   0  0  0  0  0  0  0  0  0  0  0  0
   59.1480   29.6650   46.7950 S   0  0  0  0  0  0  0  0  0  0  0  0
   59.2330   30.7080   48.1380 C   0  0  0  0  0  0  0  0  0  0  0  0
   59.7600   30.1010   49.2380 N   0  0  0  0  0  0  0  0  0  0  0  0
   59.8780   30.6980   50.4440 C   0  0  0  0  0  0  0  0  0  0  0  0
   59.4300   31.9930   50.6080 C   0  0  0  0  0  0  0  0  0  0  0  0
   58.9170   32.6730   49.5110 C   0  0  0  0  0  0  0  0  0  0  0  0
   58.8330   32.0790   48.2210 C   0  0  0  0  0  0  0  0  0  0  0  0
   61.4560   34.2210   48.5220 C   0  0  0  0  0  0  0  0  0  0  0  0
   62.6040   33.7990   49.1990 C   0  0  0  0  0  0  0  0  0  0  0  0
   64.7996   32.5165   51.2665 H   0  0  0  0  0  0  0  0  0  0  0  0
   63.8732   31.3254   50.2920 H   0  0  0  0  0  0  0  0  0  0  0  0
   65.6690   31.2831   50.2920 H   0  0  0  0  0  0  0  0  0  0  0  0
   64.3929   32.5916   46.5453 H   0  0  0  0  0  0  0  0  0  0  0  0
   62.3439   33.3361   45.3408 H   0  0  0  0  0  0  0  0  0  0  0  0
   60.2825   35.6992   46.2724 H   0  0  0  0  0  0  0  0  0  0  0  0
   60.1072   34.1219   45.4058 H   0  0  0  0  0  0  0  0  0  0  0  0
   58.9728   34.6629   48.1928 H   0  0  0  0  0  0  0  0  0  0  0  0
   58.0424   34.8736   46.6529 H   0  0  0  0  0  0  0  0  0  0  0  0
   56.0168   31.7401   43.6465 H   0  0  0  0  0  0  0  0  0  0  0  0
   55.9291   29.6994   42.2233 H   0  0  0  0  0  0  0  0  0  0  0  0
   57.3785   27.7407   42.7673 H   0  0  0  0  0  0  0  0  0  0  0  0
   58.8475   27.8048   44.7769 H   0  0  0  0  0  0  0  0  0  0  0  0
   60.3278   30.1560   51.2890 H   0  0  0  0  0  0  0  0  0  0  0  0
   59.4785   32.4796   51.5933 H   0  0  0  0  0  0  0  0  0  0  0  0
   58.5636   33.7061   49.6441 H   0  0  0  0  0  0  0  0  0  0  0  0
   60.6279   34.6800   49.0820 H   0  0  0  0  0  0  0  0  0  0  0  0
   62.6703   33.9229   50.2900 H   0  0  0  0  0  0  0  0  0  0  0  0
  1  2  1  0
  2  3  1  0
  3  4  2  0
  4  5  1  0
  5  6  2  0
  6  7  1  0
  7  8  1  0
  8  9  1  0
  9 10  1  0
 10 11  1  0
 11 12  2  0
 12 13  1  0
 13 14  2  0
 14 15  1  0
 15 16  2  0
 16 17  1  0
 17 18  1  0
 18 19  2  0
 19 20  1  0
 20 21  2  0
 21 22  1  0
 22 23  2  0
  6 24  1  0
 24 25  2  0
 25  3  1  0
 23  9  1  0
 16 11  1  0
 23 18  1  0
  1 26  1  0
  1 27  1  0
  1 28  1  0
  4 29  1  0
  5 30  1  0
  7 31  1  0
  7 32  1  0
  8 33  1  0
  8 34  1  0
 12 35  1  0
 13 36  1  0
 14 37  1  0
 15 38  1  0
 20 39  1  0
 21 40  1  0
 22 41  1  0
 24 42  1  0
 25 43  1  0
M  END
>  <UniqueID>  (47) 
42

>  <SMILES>  (47) 
COc1ccc(CCn2sc3ccccc3sc3ncccc32)cc1

>  <Energy>  (47) 
83.4098484437859

>  <Genealogy>  (47) 
COc1ccc(CCn2sc3ccccc3sc3ncccc32)cc1 (3D coordinates assigned)
COc1ccc(CCn2sc3ccccc3sc3ncccc32)cc1 (optimized conformer: 83.4098484437859 kcal/mol)

>  <smiles>  (47) 
COc1ccc(CCn2sc3ccccc3sc3ncccc32)cc1

>  <score_type>  (47) 
oracle

>  <origin>  (47) 
adg

>  <m_score__min__energy>  (47) 
-8.0800000000000001

>  <m_primary>  (47) 
energy

$$$$
47:0
     RDKit          3D

 34 36  0  0  0  0  0  0  0  0999 V2000
   59.6430   33.6840   49.1340 C   0  0  0  0  0  0  0  0  0  0  0  0
   59.2640   33.9580   47.7200 C   0  0  0  0  0  0  0  0  0  0  0  0
   58.2460   33.3350   47.0860 N   0  0  0  0  0  0  0  0  0  0  0  0
   58.1530   33.7200   45.7840 C   0  0  0  0  0  0  0  0  0  0  0  0
   57.0700   33.2050   44.8880 C   0  0  0  0  0  0  0  0  0  0  0  0
   57.7740   32.5320   43.3420 S   0  0  0  0  0  0  0  0  0  0  0  0
   57.8030   30.8320   43.9130 C   0  0  0  0  0  0  0  0  0  0  0  0
   58.4530   30.4950   45.0980 C   0  0  0  0  0  0  0  0  0  0  0  0
   58.4420   29.1700   45.5240 C   0  0  0  0  0  0  0  0  0  0  0  0
   57.7870   28.2010   44.7490 C   0  0  0  0  0  0  0  0  0  0  0  0
   57.7620   26.7790   45.1750 C   0  0  0  0  0  0  0  0  0  0  0  0
   57.7290   26.4400   46.5410 C   0  0  0  0  0  0  0  0  0  0  0  0
   57.7020   25.0990   46.9350 C   0  0  0  0  0  0  0  0  0  0  0  0
   57.7080   24.0840   45.9750 C   0  0  0  0  0  0  0  0  0  0  0  0
   57.7410   24.4090   44.6170 C   0  0  0  0  0  0  0  0  0  0  0  0
   57.7670   25.7490   44.2170 C   0  0  0  0  0  0  0  0  0  0  0  0
   57.1770   28.5900   43.5890 N   0  0  0  0  0  0  0  0  0  0  0  0
   57.1860   29.8630   43.1910 N   0  0  0  0  0  0  0  0  0  0  0  0
   59.1040   34.6500   45.3710 C   0  0  0  0  0  0  0  0  0  0  0  0
   60.0950   34.9900   46.6850 S   0  0  0  0  0  0  0  0  0  0  0  0
   58.9384   34.1934   49.8078 H   0  0  0  0  0  0  0  0  0  0  0  0
   59.6091   32.6002   49.3193 H   0  0  0  0  0  0  0  0  0  0  0  0
   60.6615   34.0560   49.3193 H   0  0  0  0  0  0  0  0  0  0  0  0
   56.5182   32.4091   45.4096 H   0  0  0  0  0  0  0  0  0  0  0  0
   56.3951   34.0363   44.6361 H   0  0  0  0  0  0  0  0  0  0  0  0
   58.9683   31.2661   45.6895 H   0  0  0  0  0  0  0  0  0  0  0  0
   58.9429   28.8848   46.4609 H   0  0  0  0  0  0  0  0  0  0  0  0
   57.7244   27.2342   47.3020 H   0  0  0  0  0  0  0  0  0  0  0  0
   57.6759   24.8422   48.0043 H   0  0  0  0  0  0  0  0  0  0  0  0
   57.6868   23.0298   46.2884 H   0  0  0  0  0  0  0  0  0  0  0  0
   57.7466   23.6100   43.8610 H   0  0  0  0  0  0  0  0  0  0  0  0
   57.7915   25.9991   43.1461 H   0  0  0  0  0  0  0  0  0  0  0  0
   56.6680   27.8930   43.0020 H   0  0  0  0  0  0  0  0  0  0  0  0
   59.1909   35.0845   44.3642 H   0  0  0  0  0  0  0  0  0  0  0  0
  1  2  1  0
  2  3  2  0
  3  4  1  0
  4  5  1  0
  5  6  1  0
  6  7  1  0
  7  8  2  0
  8  9  1  0
  9 10  2  0
 10 11  1  0
 11 12  2  0
 12 13  1  0
 13 14  2  0
 14 15  1  0
 15 16  2  0
 10 17  1  0
 17 18  2  0
  4 19  2  0
 19 20  1  0
 20  2  1  0
 18  7  1  0
 16 11  1  0
  1 21  1  0
  1 22  1  0
  1 23  1  0
  5 24  1  0
  5 25  1  0
  8 26  1  0
  9 27  1  0
 12 28  1  0
 13 29  1  0
 14 30  1  0
 15 31  1  0
 16 32  1  0
 17 33  1  0
 19 34  1  0
M  CHG  1  17   1
M  END
>  <UniqueID>  (48) 
43

>  <SMILES>  (48) 
Cc1nc(CSc2ccc(-c3ccccc3)[nH+]n2)cs1

>  <Energy>  (48) 
63.80260922487003

>  <Genealogy>  (48) 
Cc1nc(CSc2ccc(-c3ccccc3)[nH+]n2)cs1 (protonated)
Cc1nc(CSc2ccc(-c3ccccc3)[nH+]n2)cs1 (3D coordinates assigned)
Cc1nc(CSc2ccc(-c3ccccc3)[nH+]n2)cs1 (optimized conformer: 63.80260922487003 kcal/mol)

>  <smiles>  (48) 
Cc1nc(CSc2ccc(-c3ccccc3)nn2)cs1

>  <score_type>  (48) 
oracle

>  <origin>  (48) 
adg

>  <m_score__min__energy>  (48) 
-6.4900000000000002

>  <m_primary>  (48) 
energy

$$$$
48:0
     RDKit          3D

 33 33  0  0  0  0  0  0  0  0999 V2000
   56.8570   30.4510   43.3670 C   0  0  0  0  0  0  0  0  0  0  0  0
   56.6240   31.1990   44.5550 O   0  0  0  0  0  0  0  0  0  0  0  0
   57.6230   31.8660   45.2790 C   0  0  0  0  0  0  0  0  0  0  0  0
   57.6220   33.2670   45.2780 C   0  0  0  0  0  0  0  0  0  0  0  0
   58.5990   33.9780   45.9830 C   0  0  0  0  0  0  0  0  0  0  0  0
   59.5920   33.2920   46.6910 C   0  0  0  0  0  0  0  0  0  0  0  0
   60.8380   34.2080   47.6050 S   0  0  0  0  0  0  0  0  0  0  0  0
   62.2670   33.4900   46.7190 C   0  0  0  0  0  0  0  0  0  0  0  0
   62.8240   32.2740   47.4740 C   0  0  0  0  0  0  0  0  0  0  0  0
   64.1370   32.5480   48.0870 N   0  0  0  0  0  0  0  0  0  0  0  0
   64.0340   33.4510   49.2460 C   0  0  0  0  0  0  0  0  0  0  0  0
   65.2460   33.2870   50.1720 C   0  0  0  0  0  0  0  0  0  0  0  0
   66.1060   32.2970   49.6750 O   0  0  0  0  0  0  0  0  0  0  0  0
   59.5940   31.8930   46.7070 C   0  0  0  0  0  0  0  0  0  0  0  0
   58.6180   31.1810   46.0030 C   0  0  0  0  0  0  0  0  0  0  0  0
   57.1745   29.4317   43.6319 H   0  0  0  0  0  0  0  0  0  0  0  0
   55.9308   30.4045   42.7754 H   0  0  0  0  0  0  0  0  0  0  0  0
   57.6458   30.9387   42.7754 H   0  0  0  0  0  0  0  0  0  0  0  0
   56.8473   33.8120   44.7187 H   0  0  0  0  0  0  0  0  0  0  0  0
   58.5866   35.0779   45.9808 H   0  0  0  0  0  0  0  0  0  0  0  0
   61.9471   33.1751   45.7148 H   0  0  0  0  0  0  0  0  0  0  0  0
   63.0567   34.2525   46.6486 H   0  0  0  0  0  0  0  0  0  0  0  0
   62.1148   31.9950   48.2672 H   0  0  0  0  0  0  0  0  0  0  0  0
   62.9559   31.4587   46.7474 H   0  0  0  0  0  0  0  0  0  0  0  0
   64.5370   31.6360   48.4080 H   0  0  0  0  0  0  0  0  0  0  0  0
   64.7880   32.9550   47.3730 H   0  0  0  0  0  0  0  0  0  0  0  0
   63.9896   34.4910   48.8904 H   0  0  0  0  0  0  0  0  0  0  0  0
   63.1229   33.2004   49.8091 H   0  0  0  0  0  0  0  0  0  0  0  0
   65.7884   34.2420   50.2329 H   0  0  0  0  0  0  0  0  0  0  0  0
   64.8959   32.9890   51.1713 H   0  0  0  0  0  0  0  0  0  0  0  0
   66.6840   32.7380   48.9980 H   0  0  0  0  0  0  0  0  0  0  0  0
   60.3652   31.3519   47.2748 H   0  0  0  0  0  0  0  0  0  0  0  0
   58.6274   30.0811   46.0147 H   0  0  0  0  0  0  0  0  0  0  0  0
  1  2  1  0
  2  3  1  0
  3  4  2  0
  4  5  1  0
  5  6  2  0
  6  7  1  0
  7  8  1  0
  8  9  1  0
  9 10  1  0
 10 11  1  0
 11 12  1  0
 12 13  1  0
  6 14  1  0
 14 15  2  0
 15  3  1  0
  1 16  1  0
  1 17  1  0
  1 18  1  0
  4 19  1  0
  5 20  1  0
  8 21  1  0
  8 22  1  0
  9 23  1  0
  9 24  1  0
 10 25  1  0
 10 26  1  0
 11 27  1  0
 11 28  1  0
 12 29  1  0
 12 30  1  0
 13 31  1  0
 14 32  1  0
 15 33  1  0
M  CHG  1  10   1
M  END
>  <UniqueID>  (49) 
44

>  <SMILES>  (49) 
COc1ccc(SCC[NH2+]CCO)cc1

>  <Energy>  (49) 
22.881961035124867

>  <Genealogy>  (49) 
COc1ccc(SCC[NH2+]CCO)cc1 (protonated)
COc1ccc(SCC[NH2+]CCO)cc1 (3D coordinates assigned)
COc1ccc(SCC[NH2+]CCO)cc1 (optimized conformer: 22.881961035124867 kcal/mol)

>  <smiles>  (49) 
COc1ccc(SCCNCCO)cc1

>  <score_type>  (49) 
oracle

>  <origin>  (49) 
adg

>  <m_score__min__energy>  (49) 
-4.2000000000000002

>  <m_primary>  (49) 
energy

$$$$
49:0
     RDKit          3D

 41 44  0  0  0  0  0  0  0  0999 V2000
   55.6130   30.0460   43.3110 O   0  0  0  0  0  0  0  0  0  0  0  0
   56.2020   29.8800   44.4120 C   0  0  0  0  0  0  0  0  0  0  0  0
   55.8700   28.7590   45.2440 N   0  0  0  0  0  0  0  0  0  0  0  0
   56.6890   27.6080   45.4970 C   0  0  0  0  0  0  0  0  0  0  0  0
   56.2630   26.5580   46.3320 C   0  0  0  0  0  0  0  0  0  0  0  0
   57.0840   25.4420   46.5320 C   0  0  0  0  0  0  0  0  0  0  0  0
   58.3250   25.3600   45.8930 C   0  0  0  0  0  0  0  0  0  0  0  0
   59.1170   24.2770   46.0880 F   0  0  0  0  0  0  0  0  0  0  0  0
   58.7410   26.3880   45.0440 C   0  0  0  0  0  0  0  0  0  0  0  0
   57.9230   27.5040   44.8410 C   0  0  0  0  0  0  0  0  0  0  0  0
   57.1990   30.8750   44.8730 C   0  0  0  0  0  0  0  0  0  0  0  0
   58.3420   30.4570   45.6070 C   0  0  0  0  0  0  0  0  0  0  0  0
   59.2960   31.3910   46.0490 C   0  0  0  0  0  0  0  0  0  0  0  0
   59.0860   32.7370   45.7500 C   0  0  0  0  0  0  0  0  0  0  0  0
   57.9860   33.1460   45.0430 C   0  0  0  0  0  0  0  0  0  0  0  0
   58.0680   34.5140   44.8960 C   0  0  0  0  0  0  0  0  0  0  0  0
   59.2470   34.8810   45.5350 C   0  0  0  0  0  0  0  0  0  0  0  0
   59.8620   33.7950   46.0630 N   0  0  0  0  0  0  0  0  0  0  0  0
   61.1570   33.7910   46.7420 C   0  0  0  0  0  0  0  0  0  0  0  0
   60.9630   33.6880   48.2310 C   0  0  0  0  0  0  0  0  0  0  0  0
   62.0150   33.2620   49.0550 C   0  0  0  0  0  0  0  0  0  0  0  0
   61.8200   33.1430   50.4310 C   0  0  0  0  0  0  0  0  0  0  0  0
   60.5700   33.4500   50.9740 C   0  0  0  0  0  0  0  0  0  0  0  0
   59.5590   33.8580   50.1650 N   0  0  0  0  0  0  0  0  0  0  0  0
   59.7240   33.9810   48.8200 C   0  0  0  0  0  0  0  0  0  0  0  0
   57.0230   32.2490   44.5880 C   0  0  0  0  0  0  0  0  0  0  0  0
   55.2830   26.6145   46.8284 H   0  0  0  0  0  0  0  0  0  0  0  0
   56.7522   24.6279   47.1932 H   0  0  0  0  0  0  0  0  0  0  0  0
   59.7134   26.3198   44.5343 H   0  0  0  0  0  0  0  0  0  0  0  0
   58.2503   28.3052   44.1621 H   0  0  0  0  0  0  0  0  0  0  0  0
   58.4822   29.3895   45.8322 H   0  0  0  0  0  0  0  0  0  0  0  0
   60.1828   31.0690   46.6146 H   0  0  0  0  0  0  0  0  0  0  0  0
   57.3534   35.1743   44.3828 H   0  0  0  0  0  0  0  0  0  0  0  0
   59.6280   35.9107   45.6026 H   0  0  0  0  0  0  0  0  0  0  0  0
   61.7480   32.9317   46.3923 H   0  0  0  0  0  0  0  0  0  0  0  0
   61.6852   34.7283   46.5129 H   0  0  0  0  0  0  0  0  0  0  0  0
   62.9945   33.0216   48.6158 H   0  0  0  0  0  0  0  0  0  0  0  0
   62.6421   32.8108   51.0820 H   0  0  0  0  0  0  0  0  0  0  0  0
   60.4048   33.3611   52.0579 H   0  0  0  0  0  0  0  0  0  0  0  0
   58.8831   34.3113   48.1925 H   0  0  0  0  0  0  0  0  0  0  0  0
   56.1479   32.6001   44.0215 H   0  0  0  0  0  0  0  0  0  0  0  0
  1  2  2  0
  2  3  1  0
  3  4  1  0
  4  5  2  0
  5  6  1  0
  6  7  2  0
  7  8  1  0
  7  9  1  0
  9 10  2  0
  2 11  1  0
 11 12  2  0
 12 13  1  0
 13 14  2  0
 14 15  1  0
 15 16  1  0
 16 17  2  0
 17 18  1  0
 18 19  1  0
 19 20  1  0
 20 21  2  0
 21 22  1  0
 22 23  2  0
 23 24  1  0
 24 25  2  0
 15 26  2  0
 10  4  1  0
 26 11  1  0
 18 14  1  0
 25 20  1  0
  5 27  1  0
  6 28  1  0
  9 29  1  0
 10 30  1  0
 12 31  1  0
 13 32  1  0
 16 33  1  0
 17 34  1  0
 19 35  1  0
 19 36  1  0
 21 37  1  0
 22 38  1  0
 23 39  1  0
 25 40  1  0
 26 41  1  0
M  CHG  1   3  -1
M  END
>  <UniqueID>  (50) 
45

>  <SMILES>  (50) 
O=C([N-]c1ccc(F)cc1)c1ccc2c(ccn2Cc2cccnc2)c1

>  <Energy>  (50) 
82.80993828911672

>  <Genealogy>  (50) 
O=C([N-]c1ccc(F)cc1)c1ccc2c(ccn2Cc2cccnc2)c1 (protonated)
O=C([N-]c1ccc(F)cc1)c1ccc2c(ccn2Cc2cccnc2)c1 (3D coordinates assigned)
O=C([N-]c1ccc(F)cc1)c1ccc2c(ccn2Cc2cccnc2)c1 (optimized conformer: 82.80993828911672 kcal/mol)

>  <smiles>  (50) 
O=C(Nc1ccc(F)cc1)c1ccc2c(ccn2Cc2cccnc2)c1

>  <score_type>  (50) 
oracle

>  <origin>  (50) 
adg

>  <m_score__min__energy>  (50) 
-9.9499999999999993

>  <m_primary>  (50) 
energy

$$$$
50:0
     RDKit          3D

 23 24  0  0  1  0  0  0  0  0999 V2000
   55.3620   29.7540   44.8350 O   0  0  0  0  0  0  0  0  0  0  0  0
   56.7950   29.6880   44.5180 S   0  0  0  0  0  0  0  0  0  0  0  0
   56.9210   29.3460   43.0560 O   0  0  0  0  0  0  0  0  0  0  0  0
   57.7020   28.5010   45.3590 N   0  0  0  0  0  0  0  0  0  0  0  0
   57.1910   27.4430   45.8380 C   0  0  0  0  0  0  0  0  0  0  0  0
   57.9090   26.5180   46.5230 N   0  0  0  0  0  0  0  0  0  0  0  0
   57.0350   25.5480   46.8700 C   0  0  0  0  0  0  0  0  0  0  0  0
   55.8330   25.9110   46.3910 N   0  0  0  0  0  0  0  0  0  0  0  0
   55.9040   27.0660   45.7550 N   0  0  0  0  0  0  0  0  0  0  0  0
   57.5280   31.2890   44.6980 C   0  0  0  0  0  0  0  0  0  0  0  0
   57.8080   32.0710   43.5920 C   0  0  0  0  0  0  0  0  0  0  0  0
   58.3810   33.3130   43.8090 C   0  0  0  0  0  0  0  0  0  0  0  0
   58.6700   33.7710   45.0970 C   0  0  0  0  0  0  0  0  0  0  0  0
   58.3780   32.9660   46.1800 C   0  0  0  0  0  0  0  0  0  0  0  0
   57.8080   31.7280   45.9770 C   0  0  0  0  0  0  0  0  0  0  0  0
   58.9450   26.5620   46.7350 H   0  0  0  0  0  0  0  0  0  0  0  0
   57.2640   24.6339   47.4374 H   0  0  0  0  0  0  0  0  0  0  0  0
   55.1440   27.6010   45.2800 H   0  0  0  0  0  0  0  0  0  0  0  0
   57.5832   31.7184   42.5746 H   0  0  0  0  0  0  0  0  0  0  0  0
   58.6143   33.9545   42.9464 H   0  0  0  0  0  0  0  0  0  0  0  0
   59.1248   34.7614   45.2464 H   0  0  0  0  0  0  0  0  0  0  0  0
   58.5994   33.3115   47.2006 H   0  0  0  0  0  0  0  0  0  0  0  0
   57.5746   31.0856   46.8389 H   0  0  0  0  0  0  0  0  0  0  0  0
  1  2  2  0
  2  3  2  0
  2  4  1  0
  4  5  2  0
  5  6  1  0
  6  7  1  0
  7  8  2  0
  8  9  1  0
  2 10  1  0
 10 11  2  0
 11 12  1  0
 12 13  2  0
 13 14  1  0
 14 15  2  0
  9  5  1  0
 15 10  1  0
  6 16  1  0
  7 17  1  0
  9 18  1  0
 11 19  1  0
 12 20  1  0
 13 21  1  0
 14 22  1  0
 15 23  1  0
M  END
>  <smiles>  (51) 
O=S(=O)(N=c1[nH]cn[nH]1)c1ccccc1

>  <score_type>  (51) 
oracle

>  <origin>  (51) 
adg

>  <m_score__min__energy>  (51) 
-6.8399999999999999

>  <m_primary>  (51) 
energy

$$$$
51:0
     RDKit          3D

 43 48  0  0  0  0  0  0  0  0999 V2000
   61.4590   30.9320   49.7140 O   0  0  0  0  0  0  0  0  0  0  0  0
   60.8460   29.9570   49.2070 C   0  0  0  0  0  0  0  0  0  0  0  0
   60.9970   28.6790   49.7470 C   0  0  0  0  0  0  0  0  0  0  0  0
   60.3140   27.6110   49.1660 C   0  0  0  0  0  0  0  0  0  0  0  0
   60.4710   26.3380   49.7060 O   0  0  0  0  0  0  0  0  0  0  0  0
   59.4840   27.8440   48.0500 C   0  0  0  0  0  0  0  0  0  0  0  0
   58.7670   26.8190   47.3770 C   0  0  0  0  0  0  0  0  0  0  0  0
   58.8530   25.6240   47.7760 O   0  0  0  0  0  0  0  0  0  0  0  0
   57.9920   27.1170   46.2800 N   0  0  0  0  0  0  0  0  0  0  0  0
   57.2700   26.0810   45.5840 C   0  0  0  0  0  0  0  0  0  0  0  0
   56.0590   25.5910   46.0980 C   0  0  0  0  0  0  0  0  0  0  0  0
   55.3620   24.5860   45.4220 C   0  0  0  0  0  0  0  0  0  0  0  0
   55.8680   24.0630   44.2290 C   0  0  0  0  0  0  0  0  0  0  0  0
   57.0730   24.5450   43.7100 C   0  0  0  0  0  0  0  0  0  0  0  0
   57.7740   25.5510   44.3840 C   0  0  0  0  0  0  0  0  0  0  0  0
   57.9170   28.4110   45.8530 C   0  0  0  0  0  0  0  0  0  0  0  0
   57.1920   28.8240   44.7710 N   0  0  0  0  0  0  0  0  0  0  0  0
   57.4510   30.1410   44.7950 C   0  0  0  0  0  0  0  0  0  0  0  0
   57.0170   31.4200   43.8070 S   0  0  0  0  0  0  0  0  0  0  0  0
   57.9310   32.5190   44.7490 C   0  0  0  0  0  0  0  0  0  0  0  0
   58.5360   31.8780   45.8480 C   0  0  0  0  0  0  0  0  0  0  0  0
   58.2530   30.5080   45.8020 C   0  0  0  0  0  0  0  0  0  0  0  0
   58.5800   29.4060   46.5000 N   0  0  0  0  0  0  0  0  0  0  0  0
   59.3800   29.1710   47.5720 C   0  0  0  0  0  0  0  0  0  0  0  0
   60.0570   30.1530   48.1570 O   0  0  0  0  0  0  0  0  0  0  0  0
   59.3850   32.6200   46.8450 C   0  0  0  0  0  0  0  0  0  0  0  0
   59.2360   34.1480   46.7100 C   0  0  0  0  0  0  0  0  0  0  0  0
   59.2180   34.5960   45.2400 C   0  0  0  0  0  0  0  0  0  0  0  0
   58.0170   33.9930   44.4980 C   0  0  0  0  0  0  0  0  0  0  0  0
   61.6465   28.5162   50.6198 H   0  0  0  0  0  0  0  0  0  0  0  0
   55.6571   25.9999   47.0368 H   0  0  0  0  0  0  0  0  0  0  0  0
   54.4136   24.2060   45.8296 H   0  0  0  0  0  0  0  0  0  0  0  0
   55.3179   23.2719   43.6983 H   0  0  0  0  0  0  0  0  0  0  0  0
   57.4706   24.1330   42.7707 H   0  0  0  0  0  0  0  0  0  0  0  0
   58.7223   25.9281   43.9734 H   0  0  0  0  0  0  0  0  0  0  0  0
   59.0822   32.3224   47.8598 H   0  0  0  0  0  0  0  0  0  0  0  0
   60.4370   32.3638   46.6511 H   0  0  0  0  0  0  0  0  0  0  0  0
   58.2942   34.4567   47.1871 H   0  0  0  0  0  0  0  0  0  0  0  0
   60.1019   34.6187   47.1985 H   0  0  0  0  0  0  0  0  0  0  0  0
   59.1528   35.6933   45.1987 H   0  0  0  0  0  0  0  0  0  0  0  0
   60.1417   34.2473   44.7551 H   0  0  0  0  0  0  0  0  0  0  0  0
   57.0937   34.4749   44.8520 H   0  0  0  0  0  0  0  0  0  0  0  0
   58.1439   34.1631   43.4187 H   0  0  0  0  0  0  0  0  0  0  0  0
  1  2  2  0
  2  3  1  0
  3  4  2  0
  4  5  1  0
  4  6  1  0
  6  7  1  0
  7  8  2  0
  7  9  1  0
  9 10  1  0
 10 11  2  0
 11 12  1  0
 12 13  2  0
 13 14  1  0
 14 15  2  0
  9 16  1  0
 16 17  2  0
 17 18  1  0
 18 19  1  0
 19 20  1  0
 20 21  2  0
 21 22  1  0
 22 23  1  0
 23 24  1  0
 24 25  1  0
 21 26  1  0
 26 27  1  0
 27 28  1  0
 28 29  1  0
 25  2  1  0
 24  6  2  0
 15 10  1  0
 23 16  1  0
 22 18  2  0
 29 20  1  0
  3 30  1  0
 11 31  1  0
 12 32  1  0
 13 33  1  0
 14 34  1  0
 15 35  1  0
 26 36  1  0
 26 37  1  0
 27 38  1  0
 27 39  1  0
 28 40  1  0
 28 41  1  0
 29 42  1  0
 29 43  1  0
M  CHG  1   5  -1
M  END
>  <UniqueID>  (52) 
46

>  <SMILES>  (52) 
O=c1cc([O-])c2c(=O)n(-c3ccccc3)c3nc4sc5c(c4n3c2o1)CCCC5

>  <Energy>  (52) 
153.93416580197265

>  <Genealogy>  (52) 
O=c1cc([O-])c2c(=O)n(-c3ccccc3)c3nc4sc5c(c4n3c2o1)CCCC5 (protonated)
O=c1cc([O-])c2c(=O)n(-c3ccccc3)c3nc4sc5c(c4n3c2o1)CCCC5 (3D coordinates assigned)
O=c1cc([O-])c2c(=O)n(-c3ccccc3)c3nc4sc5c(c4n3c2o1)CCCC5 (nonaromatic ring conformer: 153.93416580197265 kcal/mol)

>  <smiles>  (52) 
O=c1cc(O)c2c(=O)n(-c3ccccc3)c3nc4sc5c(c4n3c2o1)CCCC5

>  <score_type>  (52) 
oracle

>  <origin>  (52) 
adg

>  <m_score__min__energy>  (52) 
-9.5199999999999996

>  <m_primary>  (52) 
energy

$$$$
52:0
     RDKit          3D

 71 74  0  0  0  0  0  0  0  0999 V2000
   58.7408   32.9013   48.8118 H   0  0  0  0  0  0  0  0  0  0  0  0
   59.7410   32.9960   48.3640 C   0  0  0  0  0  0  0  0  0  0  0  0
   60.6470   32.0360   48.6220 C   0  0  0  0  0  0  0  0  0  0  0  0
   61.6225   32.3175   49.0454 H   0  0  0  0  0  0  0  0  0  0  0  0
   60.3550   30.5760   48.3430 C   0  0  1  0  0  0  0  0  0  0  0  0
   61.1286   29.9051   48.7447 H   0  0  0  0  0  0  0  0  0  0  0  0
   59.0530   30.1850   49.0740 C   0  0  0  0  0  0  0  0  0  0  0  0
   59.2141   30.2334   50.1611 H   0  0  0  0  0  0  0  0  0  0  0  0
   58.2502   30.8817   48.7909 H   0  0  0  0  0  0  0  0  0  0  0  0
   58.7668   29.1613   48.7909 H   0  0  0  0  0  0  0  0  0  0  0  0
   60.3820   30.3230   46.7920 C   0  0  2  0  0  0  0  0  0  0  0  0
   61.4669   30.4156   46.6359 H   0  0  0  0  0  0  0  0  0  0  0  0
   59.5410   31.3470   45.9760 C   0  0  0  0  0  0  0  0  0  0  0  0
   60.1672   31.8143   45.2018 H   0  0  0  0  0  0  0  0  0  0  0  0
   59.1555   32.1407   46.6328 H   0  0  0  0  0  0  0  0  0  0  0  0
   58.3790   30.5770   45.3180 C   0  0  0  0  0  0  0  0  0  0  0  0
   58.5225   30.5113   44.2294 H   0  0  0  0  0  0  0  0  0  0  0  0
   57.4082   31.0709   45.4715 H   0  0  0  0  0  0  0  0  0  0  0  0
   58.4340   29.1950   45.9530 C   0  0  2  0  0  0  0  0  0  0  0  0
   57.8192   29.2337   46.8643 H   0  0  0  0  0  0  0  0  0  0  0  0
   59.9150   28.9270   46.2610 C   0  0  1  0  0  0  0  0  0  0  0  0
   60.7700   28.6200   44.9920 C   0  0  0  0  0  0  0  0  0  0  0  0
   61.7645   28.2629   45.2975 H   0  0  0  0  0  0  0  0  0  0  0  0
   60.2705   27.8451   44.3920 H   0  0  0  0  0  0  0  0  0  0  0  0
   60.8776   29.5357   44.3920 H   0  0  0  0  0  0  0  0  0  0  0  0
   60.0120   27.7150   47.2260 C   0  0  0  0  0  0  0  0  0  0  0  0
   59.5510   27.9862   48.1872 H   0  0  0  0  0  0  0  0  0  0  0  0
   61.0749   27.4638   47.3570 H   0  0  0  0  0  0  0  0  0  0  0  0
   59.2870   26.4710   46.6540 C   0  0  0  0  0  0  0  0  0  0  0  0
   59.2845   25.6829   47.4214 H   0  0  0  0  0  0  0  0  0  0  0  0
   59.8298   26.1608   45.7489 H   0  0  0  0  0  0  0  0  0  0  0  0
   57.8200   26.7620   46.2390 C   0  0  2  0  0  0  0  0  0  0  0  0
   57.2904   27.0002   47.1732 H   0  0  0  0  0  0  0  0  0  0  0  0
   57.1930   25.5450   45.6000 C   0  0  0  0  0  0  0  0  0  0  0  0
   56.5240   24.5920   46.3850 C   0  0  0  0  0  0  0  0  0  0  0  0
   56.4445   24.7392   47.4722 H   0  0  0  0  0  0  0  0  0  0  0  0
   55.9540   23.4490   45.7910 C   0  0  0  0  0  0  0  0  0  0  0  0
   55.2700   22.4790   46.5390 O   0  0  0  0  0  0  0  0  0  0  0  0
   53.8620   22.2750   46.4980 C   0  0  0  0  0  0  0  0  0  0  0  0
   53.4697   22.2182   47.5241 H   0  0  0  0  0  0  0  0  0  0  0  0
   53.3853   23.1135   45.9691 H   0  0  0  0  0  0  0  0  0  0  0  0
   53.6428   21.3357   45.9691 H   0  0  0  0  0  0  0  0  0  0  0  0
   56.0740   23.2660   44.4070 C   0  0  0  0  0  0  0  0  0  0  0  0
   55.5220   22.1420   43.8040 O   0  0  0  0  0  0  0  0  0  0  0  0
   56.7540   24.2040   43.6250 C   0  0  0  0  0  0  0  0  0  0  0  0
   56.8557   24.0415   42.5418 H   0  0  0  0  0  0  0  0  0  0  0  0
   57.3070   25.3500   44.2120 C   0  0  0  0  0  0  0  0  0  0  0  0
   58.1070   26.3210   43.3900 C   0  0  0  0  0  0  0  0  0  0  0  0
   59.1764   26.1006   43.5233 H   0  0  0  0  0  0  0  0  0  0  0  0
   57.8014   26.2052   42.3397 H   0  0  0  0  0  0  0  0  0  0  0  0
   57.8480   27.7820   43.7980 C   0  0  0  0  0  0  0  0  0  0  0  0
   58.7084   28.3843   43.4710 H   0  0  0  0  0  0  0  0  0  0  0  0
   56.9017   28.0702   43.3169 H   0  0  0  0  0  0  0  0  0  0  0  0
   57.6460   28.0190   45.3280 C   0  0  2  0  0  0  0  0  0  0  0  0
   56.5820   28.2978   45.3178 H   0  0  0  0  0  0  0  0  0  0  0  0
   60.0240   34.2020   47.4890 C   0  0  1  0  0  0  0  0  0  0  0  0
   60.1808   35.0669   48.1504 H   0  0  0  0  0  0  0  0  0  0  0  0
   61.3460   34.0540   46.7140 C   0  0  0  0  0  0  0  0  0  0  0  0
   62.1797   33.9607   47.4255 H   0  0  0  0  0  0  0  0  0  0  0  0
   61.3015   33.1552   46.0814 H   0  0  0  0  0  0  0  0  0  0  0  0
   61.5014   34.9404   46.0814 H   0  0  0  0  0  0  0  0  0  0  0  0
   58.7950   34.5970   46.6130 C   0  0  0  0  0  0  0  0  0  0  0  0
   58.4718   35.5706   47.0101 H   0  0  0  0  0  0  0  0  0  0  0  0
   59.1820   34.7470   45.1330 C   0  0  0  0  0  0  0  0  0  0  0  0
   60.2054   35.1437   45.0600 H   0  0  0  0  0  0  0  0  0  0  0  0
   59.1334   33.7649   44.6399 H   0  0  0  0  0  0  0  0  0  0  0  0
   58.4842   35.4398   44.6399 H   0  0  0  0  0  0  0  0  0  0  0  0
   57.5890   33.6510   46.7470 C   0  0  0  0  0  0  0  0  0  0  0  0
   57.3727   33.4813   47.8121 H   0  0  0  0  0  0  0  0  0  0  0  0
   56.7117   34.1044   46.2624 H   0  0  0  0  0  0  0  0  0  0  0  0
   57.8204   32.6910   46.2624 H   0  0  0  0  0  0  0  0  0  0  0  0
  1  2  1  0
  2  3  2  0
  3  4  1  0
  3  5  1  0
  5  6  1  1
  5  7  1  0
  7  8  1  0
  7  9  1  0
  7 10  1  0
  5 11  1  0
 11 12  1  6
 11 13  1  0
 13 14  1  0
 13 15  1  0
 13 16  1  0
 16 17  1  0
 16 18  1  0
 16 19  1  0
 19 20  1  1
 19 21  1  0
 21 22  1  6
 22 23  1  0
 22 24  1  0
 22 25  1  0
 21 26  1  0
 26 27  1  0
 26 28  1  0
 26 29  1  0
 29 30  1  0
 29 31  1  0
 29 32  1  0
 32 33  1  1
 32 34  1  0
 34 35  2  0
 35 36  1  0
 35 37  1  0
 37 38  1  0
 38 39  1  0
 39 40  1  0
 39 41  1  0
 39 42  1  0
 37 43  2  0
 43 44  1  0
 43 45  1  0
 45 46  1  0
 45 47  2  0
 47 48  1  0
 48 49  1  0
 48 50  1  0
 48 51  1  0
 51 52  1  0
 51 53  1  0
 51 54  1  0
 54 55  1  6
  2 56  1  0
 56 57  1  1
 56 58  1  0
 58 59  1  0
 58 60  1  0
 58 61  1  0
 56 62  1  0
 62 63  1  0
 62 64  1  0
 64 65  1  0
 64 66  1  0
 64 67  1  0
 62 68  1  0
 68 69  1  0
 68 70  1  0
 68 71  1  0
 21 11  1  0
 54 32  1  0
 54 19  1  0
 47 34  1  0
M  CHG  1  44  -1
M  END
>  <UniqueID>  (53) 
47

>  <SMILES>  (53) 
COc1cc2c(cc1[O-])CC[C@@H]1C3CCC(C(C)/C=C/C(C)C(C)C)C3(C)CC[C@H]21

>  <Energy>  (53) 
94.44398238236793

>  <Genealogy>  (53) 
COc1cc2c(cc1[O-])CCC1C2CCC2(C)C(C(C)C=CC(C)C(C)C)CCC12 (protonated)
COc1cc2c(cc1[O-])CC[C@@H]1C3CCC(C(C)C=CC(C)C(C)C)C3(C)CC[C@H]21 (chirality)
COc1cc2c(cc1[O-])CC[C@@H]1C3CCC(C(C)/C=C/C(C)C(C)C)C3(C)CC[C@H]21 (cis-trans isomerization)
COc1cc2c(cc1[O-])CC[C@@H]1C3CCC(C(C)/C=C/C(C)C(C)C)C3(C)CC[C@H]21 (3D coordinates assigned)
COc1cc2c(cc1[O-])CC[C@@H]1C3CCC(C(C)/C=C/C(C)C(C)C)C3(C)CC[C@H]21 (nonaromatic ring conformer: 94.44398238236793 kcal/mol)

>  <smiles>  (53) 
COc1cc2c(cc1O)CCC1C2CCC2(C)C(C(C)C=CC(C)C(C)C)CCC12

>  <score_type>  (53) 
oracle

>  <origin>  (53) 
adg

>  <m_score__min__energy>  (53) 
-11.279999999999999

>  <m_primary>  (53) 
energy

$$$$
53:0
     RDKit          3D

 65 67  0  0  0  0  0  0  0  0999 V2000
   56.1300   25.3010   45.7340 C   0  0  0  0  0  0  0  0  0  0  0  0
   57.3770   25.1700   44.8340 C   0  0  0  0  0  0  0  0  0  0  0  0
   56.9720   24.3520   43.5910 C   0  0  0  0  0  0  0  0  0  0  0  0
   58.4700   24.4180   45.6250 C   0  0  0  0  0  0  0  0  0  0  0  0
   57.8070   26.5390   44.4490 N   0  0  0  0  0  0  0  0  0  0  0  0
   58.4680   27.3750   45.4830 C   0  0  2  0  0  0  0  0  0  0  0  0
   57.5780   28.5650   45.9200 C   0  0  0  0  0  0  0  0  0  0  0  0
   56.2630   28.5140   45.2740 N   0  0  0  0  0  0  0  0  0  0  0  0
   56.2940   29.4160   43.7890 S   0  0  0  0  0  0  0  0  0  0  0  0
   54.8890   29.6980   43.3350 O   0  0  0  0  0  0  0  0  0  0  0  0
   56.9900   28.6090   42.7300 O   0  0  0  0  0  0  0  0  0  0  0  0
   57.1600   30.9260   44.0140 C   0  0  0  0  0  0  0  0  0  0  0  0
   57.3780   31.5540   45.2280 C   0  0  0  0  0  0  0  0  0  0  0  0
   58.0500   32.7740   45.0980 C   0  0  0  0  0  0  0  0  0  0  0  0
   58.3500   33.1070   43.7820 C   0  0  0  0  0  0  0  0  0  0  0  0
   57.7770   31.8840   42.7790 S   0  0  0  0  0  0  0  0  0  0  0  0
   59.7780   27.9300   44.8950 C   0  0  0  0  0  0  0  0  0  0  0  0
   60.4700   28.7380   45.8400 O   0  0  0  0  0  0  0  0  0  0  0  0
   60.3090   30.1070   45.8200 N   0  0  0  0  0  0  0  0  0  0  0  0
   60.6440   30.8910   46.8020 C   0  0  0  0  0  0  0  0  0  0  0  0
   59.9230   30.9460   48.0930 C   0  0  0  0  0  0  0  0  0  0  0  0
   59.9820   29.8760   49.0020 C   0  0  0  0  0  0  0  0  0  0  0  0
   59.3100   29.9430   50.2240 C   0  0  0  0  0  0  0  0  0  0  0  0
   58.5910   31.0890   50.5630 C   0  0  0  0  0  0  0  0  0  0  0  0
   58.5480   32.1740   49.6860 C   0  0  0  0  0  0  0  0  0  0  0  0
   59.2170   32.1170   48.4460 C   0  0  0  0  0  0  0  0  0  0  0  0
   59.1930   33.1930   47.5390 O   0  0  0  0  0  0  0  0  0  0  0  0
   60.0790   34.3130   47.5550 C   0  0  0  0  0  0  0  0  0  0  0  0
   61.4240   33.9260   48.1090 C   0  0  0  0  0  0  0  0  0  0  0  0
   62.4430   33.4730   47.2560 C   0  0  0  0  0  0  0  0  0  0  0  0
   63.6840   33.0970   47.7800 C   0  0  0  0  0  0  0  0  0  0  0  0
   63.9150   33.1670   49.1580 C   0  0  0  0  0  0  0  0  0  0  0  0
   65.4740   32.6940   49.8120 Cl  0  0  0  0  0  0  0  0  0  0  0  0
   62.9020   33.6100   50.0130 C   0  0  0  0  0  0  0  0  0  0  0  0
   61.6580   33.9790   49.4940 C   0  0  0  0  0  0  0  0  0  0  0  0
   56.4352   25.2689   46.7903 H   0  0  0  0  0  0  0  0  0  0  0  0
   55.6269   26.2569   45.5266 H   0  0  0  0  0  0  0  0  0  0  0  0
   55.4392   24.4705   45.5266 H   0  0  0  0  0  0  0  0  0  0  0  0
   56.5048   23.4084   43.9093 H   0  0  0  0  0  0  0  0  0  0  0  0
   56.2563   24.9306   42.9885 H   0  0  0  0  0  0  0  0  0  0  0  0
   57.8660   24.1336   42.9885 H   0  0  0  0  0  0  0  0  0  0  0  0
   58.2919   24.5405   46.7036 H   0  0  0  0  0  0  0  0  0  0  0  0
   58.4392   23.3490   45.3674 H   0  0  0  0  0  0  0  0  0  0  0  0
   59.4573   24.8289   45.3674 H   0  0  0  0  0  0  0  0  0  0  0  0
   57.0270   27.0540   43.9760 H   0  0  0  0  0  0  0  0  0  0  0  0
   58.6553   26.7471   46.3666 H   0  0  0  0  0  0  0  0  0  0  0  0
   57.4426   28.5291   47.0110 H   0  0  0  0  0  0  0  0  0  0  0  0
   58.0758   29.4987   45.6194 H   0  0  0  0  0  0  0  0  0  0  0  0
   56.0840   27.5230   44.9930 H   0  0  0  0  0  0  0  0  0  0  0  0
   57.0565   31.1374   46.1939 H   0  0  0  0  0  0  0  0  0  0  0  0
   58.3158   33.4095   45.9556 H   0  0  0  0  0  0  0  0  0  0  0  0
   58.8736   34.0165   43.4523 H   0  0  0  0  0  0  0  0  0  0  0  0
   60.4237   27.0888   44.6025 H   0  0  0  0  0  0  0  0  0  0  0  0
   59.5295   28.5529   44.0231 H   0  0  0  0  0  0  0  0  0  0  0  0
   61.5132   31.5511   46.6651 H   0  0  0  0  0  0  0  0  0  0  0  0
   60.5631   28.9771   48.7484 H   0  0  0  0  0  0  0  0  0  0  0  0
   59.3476   29.0917   50.9196 H   0  0  0  0  0  0  0  0  0  0  0  0
   58.0568   31.1379   51.5233 H   0  0  0  0  0  0  0  0  0  0  0  0
   57.9886   33.0794   49.9640 H   0  0  0  0  0  0  0  0  0  0  0  0
   60.2063   34.6862   46.5281 H   0  0  0  0  0  0  0  0  0  0  0  0
   59.6461   35.0944   48.1969 H   0  0  0  0  0  0  0  0  0  0  0  0
   62.2648   33.4136   46.1722 H   0  0  0  0  0  0  0  0  0  0  0  0
   64.4801   32.7455   47.1072 H   0  0  0  0  0  0  0  0  0  0  0  0
   63.0842   33.6683   51.0962 H   0  0  0  0  0  0  0  0  0  0  0  0
   60.8586   34.3123   50.1722 H   0  0  0  0  0  0  0  0  0  0  0  0
  1  2  1  0
  2  3  1  0
  2  4  1  0
  2  5  1  0
  5  6  1  0
  6  7  1  0
  7  8  1  0
  8  9  1  0
  9 10  2  0
  9 11  2  0
  9 12  1  0
 12 13  2  0
 13 14  1  0
 14 15  2  0
 15 16  1  0
  6 17  1  0
 17 18  1  0
 18 19  1  0
 19 20  2  3
 20 21  1  0
 21 22  2  0
 22 23  1  0
 23 24  2  0
 24 25  1  0
 25 26  2  0
 26 27  1  0
 27 28  1  0
 28 29  1  0
 29 30  2  0
 30 31  1  0
 31 32  2  0
 32 33  1  0
 32 34  1  0
 34 35  2  0
 16 12  1  0
 26 21  1  0
 35 29  1  0
  1 36  1  0
  1 37  1  0
  1 38  1  0
  3 39  1  0
  3 40  1  0
  3 41  1  0
  4 42  1  0
  4 43  1  0
  4 44  1  0
  5 45  1  0
  6 46  1  1
  7 47  1  0
  7 48  1  0
  8 49  1  0
 13 50  1  0
 14 51  1  0
 15 52  1  0
 17 53  1  0
 17 54  1  0
 20 55  1  0
 22 56  1  0
 23 57  1  0
 24 58  1  0
 25 59  1  0
 28 60  1  0
 28 61  1  0
 30 62  1  0
 31 63  1  0
 34 64  1  0
 35 65  1  0
M  END
>  <UniqueID>  (54) 
48

>  <SMILES>  (54) 
CC(C)(C)N[C@H](CNS(=O)(=O)c1cccs1)CON=Cc1ccccc1OCc1ccc(Cl)cc1

>  <Energy>  (54) 
94.58781451285036

>  <Genealogy>  (54) 
CC(C)(C)N[C@H](CNS(=O)(=O)c1cccs1)CON=Cc1ccccc1OCc1ccc(Cl)cc1 (chirality)
CC(C)(C)N[C@H](CNS(=O)(=O)c1cccs1)CON=Cc1ccccc1OCc1ccc(Cl)cc1 (3D coordinates assigned)
CC(C)(C)N[C@H](CNS(=O)(=O)c1cccs1)CON=Cc1ccccc1OCc1ccc(Cl)cc1 (optimized conformer: 94.58781451285036 kcal/mol)

>  <smiles>  (54) 
CC(C)(C)NC(CNS(=O)(=O)c1cccs1)CON=Cc1ccccc1OCc1ccc(Cl)cc1

>  <score_type>  (54) 
oracle

>  <origin>  (54) 
adg

>  <m_score__min__energy>  (54) 
-9.3200000000000003

>  <m_primary>  (54) 
energy

$$$$
54:0
     RDKit          3D

 36 38  0  0  0  0  0  0  0  0999 V2000
   60.2656   26.1027   45.8142 H   0  0  0  0  0  0  0  0  0  0  0  0
   59.4740   26.8350   45.5970 C   0  0  0  0  0  0  0  0  0  0  0  0
   58.1490   26.5470   45.9210 C   0  0  0  0  0  0  0  0  0  0  0  0
   57.8985   25.5869   46.3959 H   0  0  0  0  0  0  0  0  0  0  0  0
   57.1370   27.4710   45.6460 C   0  0  0  0  0  0  0  0  0  0  0  0
   55.8660   27.1550   46.0000 F   0  0  0  0  0  0  0  0  0  0  0  0
   57.4440   28.7100   45.0370 C   0  0  0  0  0  0  0  0  0  0  0  0
   56.3760   29.7020   44.7390 C   0  0  0  0  0  0  0  0  0  0  0  0
   55.1700   29.3320   44.7130 O   0  0  0  0  0  0  0  0  0  0  0  0
   56.7210   31.0750   44.4890 N   0  0  0  0  0  0  0  0  0  0  0  0
   57.5230   31.8360   45.1770 C   0  0  0  0  0  0  0  0  0  0  0  0
   58.1730   31.5030   46.6990 S   0  0  0  0  0  0  0  0  0  0  0  0
   59.0300   32.9520   46.7690 C   0  0  0  0  0  0  0  0  0  0  0  0
   59.8560   33.3660   47.9160 C   0  0  0  0  0  0  0  0  0  0  0  0
   59.3900   33.4730   49.2130 C   0  0  0  0  0  0  0  0  0  0  0  0
   58.3639   33.2847   49.5619 H   0  0  0  0  0  0  0  0  0  0  0  0
   60.4670   33.8630   49.9840 C   0  0  0  0  0  0  0  0  0  0  0  0
   60.4630   34.0579   51.0666 H   0  0  0  0  0  0  0  0  0  0  0  0
   61.5500   33.9610   49.1330 C   0  0  0  0  0  0  0  0  0  0  0  0
   62.5657   34.2560   49.4353 H   0  0  0  0  0  0  0  0  0  0  0  0
   61.1790   33.6420   47.8780 N   0  0  0  0  0  0  0  0  0  0  0  0
   62.0790   33.5850   46.7290 C   0  0  0  0  0  0  0  0  0  0  0  0
   63.1191   33.5191   47.0809 H   0  0  0  0  0  0  0  0  0  0  0  0
   61.8411   32.7001   46.1204 H   0  0  0  0  0  0  0  0  0  0  0  0
   61.9546   34.4928   46.1204 H   0  0  0  0  0  0  0  0  0  0  0  0
   58.7550   33.6820   45.6050 C   0  0  0  0  0  0  0  0  0  0  0  0
   59.2740   35.0580   45.3220 C   0  0  0  0  0  0  0  0  0  0  0  0
   59.4702   35.5783   46.2711 H   0  0  0  0  0  0  0  0  0  0  0  0
   60.2068   34.9862   44.7435 H   0  0  0  0  0  0  0  0  0  0  0  0
   58.5261   35.6202   44.7435 H   0  0  0  0  0  0  0  0  0  0  0  0
   57.9340   33.0410   44.7270 N   0  0  0  0  0  0  0  0  0  0  0  0
   57.6370   33.4460   43.8110 H   0  0  0  0  0  0  0  0  0  0  0  0
   58.7930   28.9880   44.7180 C   0  0  0  0  0  0  0  0  0  0  0  0
   59.1480   30.1530   44.1170 F   0  0  0  0  0  0  0  0  0  0  0  0
   59.7950   28.0530   44.9970 C   0  0  0  0  0  0  0  0  0  0  0  0
   60.8410   28.2790   44.7422 H   0  0  0  0  0  0  0  0  0  0  0  0
  1  2  1  0
  2  3  2  0
  3  4  1  0
  3  5  1  0
  5  6  1  0
  5  7  2  0
  7  8  1  0
  8  9  2  0
  8 10  1  0
 10 11  2  0
 11 12  1  0
 12 13  1  0
 13 14  1  0
 14 15  2  0
 15 16  1  0
 15 17  1  0
 17 18  1  0
 17 19  2  0
 19 20  1  0
 19 21  1  0
 21 22  1  0
 22 23  1  0
 22 24  1  0
 22 25  1  0
 13 26  2  0
 26 27  1  0
 27 28  1  0
 27 29  1  0
 27 30  1  0
 26 31  1  0
 31 32  1  0
  7 33  1  0
 33 34  1  0
 33 35  2  0
 35 36  1  0
 35  2  1  0
 31 11  1  0
 21 14  1  0
M  END
>  <UniqueID>  (55) 
49

>  <SMILES>  (55) 
Cc1[nH]/c(=N/C(=O)c2c(F)cccc2F)sc1-c1cccn1C

>  <Energy>  (55) 
105.20119239548748

>  <Genealogy>  (55) 
Cc1[nH]/c(=N/C(=O)c2c(F)cccc2F)sc1-c1cccn1C (cis-trans isomerization)
Cc1[nH]/c(=N/C(=O)c2c(F)cccc2F)sc1-c1cccn1C (3D coordinates assigned)
Cc1[nH]/c(=N/C(=O)c2c(F)cccc2F)sc1-c1cccn1C (optimized conformer: 105.20119239548748 kcal/mol)

>  <smiles>  (55) 
Cc1[nH]c(=NC(=O)c2c(F)cccc2F)sc1-c1cccn1C

>  <score_type>  (55) 
oracle

>  <origin>  (55) 
adg

>  <m_score__min__energy>  (55) 
-7.79

>  <m_primary>  (55) 
energy

$$$$
55:0
     RDKit          3D

 70 74  0  0  0  0  0  0  0  0999 V2000
   60.7780   28.5540   44.8470 C   0  0  0  0  0  0  0  0  0  0  0  0
   59.8970   29.1620   45.8630 N   0  0  0  0  0  0  0  0  0  0  0  0
   58.4830   28.8280   45.5950 C   0  0  0  0  0  0  0  0  0  0  0  0
   57.9610   29.6510   44.4460 C   0  0  0  0  0  0  0  0  0  0  0  0
   56.8670   29.1940   43.6930 C   0  0  0  0  0  0  0  0  0  0  0  0
   56.3520   29.9730   42.6520 C   0  0  0  0  0  0  0  0  0  0  0  0
   56.9300   31.2100   42.3520 C   0  0  0  0  0  0  0  0  0  0  0  0
   58.0200   31.6710   43.0950 C   0  0  0  0  0  0  0  0  0  0  0  0
   58.5350   30.8970   44.1400 C   0  0  0  0  0  0  0  0  0  0  0  0
   60.2960   28.7350   47.2220 C   0  0  0  0  0  0  0  0  0  0  0  0
   59.6180   29.5960   48.2490 C   0  0  0  0  0  0  0  0  0  0  0  0
   59.0050   29.1340   49.3950 C   0  0  0  0  0  0  0  0  0  0  0  0
   58.6680   30.2510   50.1300 C   0  0  0  0  0  0  0  0  0  0  0  0
   58.1370   30.1940   51.5060 C   0  0  0  0  0  0  0  0  0  0  0  0
   56.9910   29.7100   51.7010 O   0  0  0  0  0  0  0  0  0  0  0  0
   58.8910   30.6700   52.6300 N   0  0  0  0  0  0  0  0  0  0  0  0
   60.1090   31.4280   52.5650 C   0  0  0  0  0  0  0  0  0  0  0  0
   60.1800   32.7560   53.0280 C   0  0  0  0  0  0  0  0  0  0  0  0
   61.3910   33.4530   52.9800 C   0  0  0  0  0  0  0  0  0  0  0  0
   62.5310   32.8400   52.4560 C   0  0  0  0  0  0  0  0  0  0  0  0
   62.4590   31.5340   51.9640 C   0  0  0  0  0  0  0  0  0  0  0  0
   61.2490   30.8340   52.0100 C   0  0  0  0  0  0  0  0  0  0  0  0
   59.0090   31.3820   49.4630 N   0  0  0  0  0  0  0  0  0  0  0  0
   58.7740   32.7570   49.9110 C   0  0  0  0  0  0  0  0  0  0  0  0
   59.6230   30.9850   48.3170 C   0  0  0  0  0  0  0  0  0  0  0  0
   60.2700   31.9030   47.2870 C   0  0  0  0  0  0  0  0  0  0  0  0
   59.2900   32.8120   46.5520 C   0  0  0  0  0  0  0  0  0  0  0  0
   57.8890   32.7100   46.6970 C   0  0  0  0  0  0  0  0  0  0  0  0
   57.0390   33.5670   45.9930 C   0  0  0  0  0  0  0  0  0  0  0  0
   57.5670   34.5310   45.1320 C   0  0  0  0  0  0  0  0  0  0  0  0
   58.9500   34.6350   44.9680 C   0  0  0  0  0  0  0  0  0  0  0  0
   59.8050   33.7800   45.6680 C   0  0  0  0  0  0  0  0  0  0  0  0
   61.4800   32.6170   47.8710 C   0  0  0  0  0  0  0  0  0  0  0  0
   61.3740   33.7980   48.6360 C   0  0  0  0  0  0  0  0  0  0  0  0
   62.5150   34.4000   49.1740 C   0  0  0  0  0  0  0  0  0  0  0  0
   63.7730   33.8340   48.9590 C   0  0  0  0  0  0  0  0  0  0  0  0
   63.8950   32.6660   48.2040 C   0  0  0  0  0  0  0  0  0  0  0  0
   62.7570   32.0590   47.6670 C   0  0  0  0  0  0  0  0  0  0  0  0
   61.5845   27.9974   45.3468 H   0  0  0  0  0  0  0  0  0  0  0  0
   60.1929   27.8665   44.2185 H   0  0  0  0  0  0  0  0  0  0  0  0
   61.2132   29.3449   44.2185 H   0  0  0  0  0  0  0  0  0  0  0  0
   58.4038   27.7603   45.3423 H   0  0  0  0  0  0  0  0  0  0  0  0
   57.8867   29.0475   46.4929 H   0  0  0  0  0  0  0  0  0  0  0  0
   56.4132   28.2188   43.9232 H   0  0  0  0  0  0  0  0  0  0  0  0
   55.4918   29.6122   42.0690 H   0  0  0  0  0  0  0  0  0  0  0  0
   56.5266   31.8207   41.5308 H   0  0  0  0  0  0  0  0  0  0  0  0
   58.4739   32.6445   42.8576 H   0  0  0  0  0  0  0  0  0  0  0  0
   59.3917   31.2645   44.7240 H   0  0  0  0  0  0  0  0  0  0  0  0
   60.0032   27.6858   47.3752 H   0  0  0  0  0  0  0  0  0  0  0  0
   61.3862   28.8365   47.3276 H   0  0  0  0  0  0  0  0  0  0  0  0
   58.8216   28.0843   49.6680 H   0  0  0  0  0  0  0  0  0  0  0  0
   59.2804   33.2462   53.4285 H   0  0  0  0  0  0  0  0  0  0  0  0
   61.4458   34.4855   53.3554 H   0  0  0  0  0  0  0  0  0  0  0  0
   63.4860   33.3853   52.4305 H   0  0  0  0  0  0  0  0  0  0  0  0
   63.3546   31.0562   51.5402 H   0  0  0  0  0  0  0  0  0  0  0  0
   61.1927   29.8116   51.6081 H   0  0  0  0  0  0  0  0  0  0  0  0
   58.7686   32.7885   51.0105 H   0  0  0  0  0  0  0  0  0  0  0  0
   59.5738   33.4087   49.5294 H   0  0  0  0  0  0  0  0  0  0  0  0
   57.8032   33.1061   49.5294 H   0  0  0  0  0  0  0  0  0  0  0  0
   60.6490   31.2575   46.4810 H   0  0  0  0  0  0  0  0  0  0  0  0
   57.4636   31.9502   47.3692 H   0  0  0  0  0  0  0  0  0  0  0  0
   55.9494   33.4818   46.1177 H   0  0  0  0  0  0  0  0  0  0  0  0
   56.8948   35.2074   44.5838 H   0  0  0  0  0  0  0  0  0  0  0  0
   59.3668   35.3913   44.2866 H   0  0  0  0  0  0  0  0  0  0  0  0
   60.8927   33.8638   45.5271 H   0  0  0  0  0  0  0  0  0  0  0  0
   60.3857   34.2484   48.8103 H   0  0  0  0  0  0  0  0  0  0  0  0
   62.4216   35.3213   49.7678 H   0  0  0  0  0  0  0  0  0  0  0  0
   64.6691   34.3089   49.3850 H   0  0  0  0  0  0  0  0  0  0  0  0
   64.8873   32.2236   48.0319 H   0  0  0  0  0  0  0  0  0  0  0  0
   62.8594   31.1353   47.0785 H   0  0  0  0  0  0  0  0  0  0  0  0
  1  2  1  0
  2  3  1  0
  3  4  1  0
  4  5  2  0
  5  6  1  0
  6  7  2  0
  7  8  1  0
  8  9  2  0
  2 10  1  0
 10 11  1  0
 11 12  1  0
 12 13  2  0
 13 14  1  0
 14 15  2  0
 14 16  1  0
 16 17  1  0
 17 18  2  0
 18 19  1  0
 19 20  2  0
 20 21  1  0
 21 22  2  0
 13 23  1  0
 23 24  1  0
 23 25  1  0
 25 26  1  0
 26 27  1  0
 27 28  2  0
 28 29  1  0
 29 30  2  0
 30 31  1  0
 31 32  2  0
 26 33  1  0
 33 34  2  0
 34 35  1  0
 35 36  2  0
 36 37  1  0
 37 38  2  0
  9  4  1  0
 25 11  2  0
 32 27  1  0
 38 33  1  0
 22 17  1  0
  1 39  1  0
  1 40  1  0
  1 41  1  0
  3 42  1  0
  3 43  1  0
  5 44  1  0
  6 45  1  0
  7 46  1  0
  8 47  1  0
  9 48  1  0
 10 49  1  0
 10 50  1  0
 12 51  1  0
 18 52  1  0
 19 53  1  0
 20 54  1  0
 21 55  1  0
 22 56  1  0
 24 57  1  0
 24 58  1  0
 24 59  1  0
 26 60  1  0
 28 61  1  0
 29 62  1  0
 30 63  1  0
 31 64  1  0
 32 65  1  0
 34 66  1  0
 35 67  1  0
 36 68  1  0
 37 69  1  0
 38 70  1  0
M  CHG  1  16  -1
M  END
>  <UniqueID>  (56) 
50

>  <SMILES>  (56) 
CN(Cc1ccccc1)Cc1cc(C(=O)[N-]c2ccccc2)n(C)c1C(c1ccccc1)c1ccccc1

>  <Energy>  (56) 
109.4997903894006

>  <Genealogy>  (56) 
CN(Cc1ccccc1)Cc1cc(C(=O)[N-]c2ccccc2)n(C)c1C(c1ccccc1)c1ccccc1 (protonated)
CN(Cc1ccccc1)Cc1cc(C(=O)[N-]c2ccccc2)n(C)c1C(c1ccccc1)c1ccccc1 (3D coordinates assigned)
CN(Cc1ccccc1)Cc1cc(C(=O)[N-]c2ccccc2)n(C)c1C(c1ccccc1)c1ccccc1 (optimized conformer: 109.4997903894006 kcal/mol)

>  <smiles>  (56) 
CN(Cc1ccccc1)Cc1cc(C(=O)Nc2ccccc2)n(C)c1C(c1ccccc1)c1ccccc1

>  <score_type>  (56) 
oracle

>  <origin>  (56) 
adg

>  <m_score__min__energy>  (56) 
-11.699999999999999

>  <m_primary>  (56) 
energy

$$$$
56:0
     RDKit          3D

 35 37  0  0  0  0  0  0  0  0999 V2000
   62.5980   34.0190   46.5890 O   0  0  0  0  0  0  0  0  0  0  0  0
   62.8710   33.7100   47.7810 C   0  0  0  0  0  0  0  0  0  0  0  0
   64.1100   33.1240   48.0630 C   0  0  0  0  0  0  0  0  0  0  0  0
   64.4270   32.7840   49.3750 C   0  0  0  0  0  0  0  0  0  0  0  0
   63.5100   33.0310   50.3940 C   0  0  0  0  0  0  0  0  0  0  0  0
   62.2820   33.6160   50.0830 C   0  0  0  0  0  0  0  0  0  0  0  0
   61.9670   33.9430   48.7910 N   0  0  0  0  0  0  0  0  0  0  0  0
   60.6730   34.5880   48.5140 C   0  0  0  0  0  0  0  0  0  0  0  0
   59.8990   33.7890   47.4990 C   0  0  0  0  0  0  0  0  0  0  0  0
   59.6700   32.4190   47.6960 C   0  0  0  0  0  0  0  0  0  0  0  0
   58.9810   31.6730   46.7360 C   0  0  0  0  0  0  0  0  0  0  0  0
   58.5130   32.2820   45.5580 C   0  0  0  0  0  0  0  0  0  0  0  0
   57.7820   31.4890   44.5370 C   0  0  0  0  0  0  0  0  0  0  0  0
   57.6990   31.9390   43.2050 C   0  0  0  0  0  0  0  0  0  0  0  0
   57.0100   31.1910   42.2460 C   0  0  0  0  0  0  0  0  0  0  0  0
   56.3960   29.9880   42.6020 C   0  0  0  0  0  0  0  0  0  0  0  0
   56.4710   29.5310   43.9210 C   0  0  0  0  0  0  0  0  0  0  0  0
   57.1590   30.2740   44.8830 C   0  0  0  0  0  0  0  0  0  0  0  0
   58.7520   33.6540   45.3620 C   0  0  0  0  0  0  0  0  0  0  0  0
   59.4400   34.3990   46.3240 C   0  0  0  0  0  0  0  0  0  0  0  0
   64.8291   32.9332   47.2528 H   0  0  0  0  0  0  0  0  0  0  0  0
   65.3981   32.3220   49.6063 H   0  0  0  0  0  0  0  0  0  0  0  0
   63.7517   32.7673   51.4342 H   0  0  0  0  0  0  0  0  0  0  0  0
   61.5576   33.8171   50.8860 H   0  0  0  0  0  0  0  0  0  0  0  0
   60.0920   34.6514   49.4459 H   0  0  0  0  0  0  0  0  0  0  0  0
   60.8536   35.5966   48.1140 H   0  0  0  0  0  0  0  0  0  0  0  0
   60.0347   31.9294   48.6110 H   0  0  0  0  0  0  0  0  0  0  0  0
   58.8032   30.6004   46.9032 H   0  0  0  0  0  0  0  0  0  0  0  0
   58.1797   32.8857   42.9174 H   0  0  0  0  0  0  0  0  0  0  0  0
   56.9512   31.5507   41.2082 H   0  0  0  0  0  0  0  0  0  0  0  0
   55.8543   29.4011   41.8456 H   0  0  0  0  0  0  0  0  0  0  0  0
   55.9870   28.5840   44.2019 H   0  0  0  0  0  0  0  0  0  0  0  0
   57.2147   29.9075   45.9187 H   0  0  0  0  0  0  0  0  0  0  0  0
   58.3947   34.1446   44.4446 H   0  0  0  0  0  0  0  0  0  0  0  0
   59.6223   35.4710   46.1576 H   0  0  0  0  0  0  0  0  0  0  0  0
  1  2  2  0
  2  3  1  0
  3  4  2  0
  4  5  1  0
  5  6  2  0
  6  7  1  0
  7  8  1  0
  8  9  1  0
  9 10  2  0
 10 11  1  0
 11 12  2  0
 12 13  1  0
 13 14  2  0
 14 15  1  0
 15 16  2  0
 16 17  1  0
 17 18  2  0
 12 19  1  0
 19 20  2  0
  7  2  1  0
 20  9  1  0
 18 13  1  0
  3 21  1  0
  4 22  1  0
  5 23  1  0
  6 24  1  0
  8 25  1  0
  8 26  1  0
 10 27  1  0
 11 28  1  0
 14 29  1  0
 15 30  1  0
 16 31  1  0
 17 32  1  0
 18 33  1  0
 19 34  1  0
 20 35  1  0
M  END
>  <UniqueID>  (57) 
51

>  <SMILES>  (57) 
O=c1ccccn1Cc1ccc(-c2ccccc2)cc1

>  <Energy>  (57) 
44.645589157633815

>  <Genealogy>  (57) 
O=c1ccccn1Cc1ccc(-c2ccccc2)cc1 (3D coordinates assigned)
O=c1ccccn1Cc1ccc(-c2ccccc2)cc1 (optimized conformer: 44.645589157633815 kcal/mol)

>  <smiles>  (57) 
O=c1ccccn1Cc1ccc(-c2ccccc2)cc1

>  <score_type>  (57) 
oracle

>  <origin>  (57) 
adg

>  <m_score__min__energy>  (57) 
-7.29

>  <m_primary>  (57) 
energy

$$$$
57:0
     RDKit          3D

 28 30  0  0  0  0  0  0  0  0999 V2000
   57.2390   26.4100   45.4670 C   0  0  0  0  0  0  0  0  0  0  0  0
   56.3080   27.4790   45.3390 O   0  0  0  0  0  0  0  0  0  0  0  0
   56.6580   28.8030   45.0330 C   0  0  0  0  0  0  0  0  0  0  0  0
   56.2870   29.4190   43.8220 C   0  0  0  0  0  0  0  0  0  0  0  0
   56.6580   30.7400   43.5590 C   0  0  0  0  0  0  0  0  0  0  0  0
   57.4040   31.4660   44.4980 C   0  0  0  0  0  0  0  0  0  0  0  0
   57.7800   32.7930   44.2380 C   0  0  0  0  0  0  0  0  0  0  0  0
   58.5260   33.5150   45.1810 C   0  0  0  0  0  0  0  0  0  0  0  0
   58.9050   34.8440   44.9250 C   0  0  0  0  0  0  0  0  0  0  0  0
   59.6480   35.5550   45.8700 C   0  0  0  0  0  0  0  0  0  0  0  0
   60.0200   34.9500   47.0740 C   0  0  0  0  0  0  0  0  0  0  0  0
   59.6500   33.6290   47.3400 C   0  0  0  0  0  0  0  0  0  0  0  0
   58.9030   32.9020   46.3990 C   0  0  0  0  0  0  0  0  0  0  0  0
   58.5280   31.5750   46.6590 C   0  0  0  0  0  0  0  0  0  0  0  0
   57.7810   30.8540   45.7150 C   0  0  0  0  0  0  0  0  0  0  0  0
   57.4030   29.5260   45.9710 C   0  0  0  0  0  0  0  0  0  0  0  0
   57.4176   26.2049   46.5329 H   0  0  0  0  0  0  0  0  0  0  0  0
   56.8322   25.5096   44.9835 H   0  0  0  0  0  0  0  0  0  0  0  0
   58.1868   26.6893   44.9835 H   0  0  0  0  0  0  0  0  0  0  0  0
   55.7019   28.8569   43.0792 H   0  0  0  0  0  0  0  0  0  0  0  0
   56.3633   31.2128   42.6105 H   0  0  0  0  0  0  0  0  0  0  0  0
   57.4882   33.2690   43.2902 H   0  0  0  0  0  0  0  0  0  0  0  0
   58.6160   35.3249   43.9789 H   0  0  0  0  0  0  0  0  0  0  0  0
   59.9416   36.5953   45.6660 H   0  0  0  0  0  0  0  0  0  0  0  0
   60.6055   35.5153   47.8140 H   0  0  0  0  0  0  0  0  0  0  0  0
   59.9447   33.1573   48.2890 H   0  0  0  0  0  0  0  0  0  0  0  0
   58.8207   31.0983   47.6062 H   0  0  0  0  0  0  0  0  0  0  0  0
   57.6955   29.0495   46.9183 H   0  0  0  0  0  0  0  0  0  0  0  0
  1  2  1  0
  2  3  1  0
  3  4  2  0
  4  5  1  0
  5  6  2  0
  6  7  1  0
  7  8  2  0
  8  9  1  0
  9 10  2  0
 10 11  1  0
 11 12  2  0
 12 13  1  0
 13 14  2  0
 14 15  1  0
 15 16  2  0
 16  3  1  0
 15  6  1  0
 13  8  1  0
  1 17  1  0
  1 18  1  0
  1 19  1  0
  4 20  1  0
  5 21  1  0
  7 22  1  0
  9 23  1  0
 10 24  1  0
 11 25  1  0
 12 26  1  0
 14 27  1  0
 16 28  1  0
M  END
>  <UniqueID>  (58) 
52

>  <SMILES>  (58) 
COc1ccc2cc3ccccc3cc2c1

>  <Energy>  (58) 
36.0500236528096

>  <Genealogy>  (58) 
COc1ccc2cc3ccccc3cc2c1 (3D coordinates assigned)
COc1ccc2cc3ccccc3cc2c1 (optimized conformer: 36.0500236528096 kcal/mol)

>  <smiles>  (58) 
COc1ccc2cc3ccccc3cc2c1

>  <score_type>  (58) 
oracle

>  <origin>  (58) 
adg

>  <m_score__min__energy>  (58) 
-6.6100000000000003

>  <m_primary>  (58) 
energy

$$$$
58:0
     RDKit          3D

 46 49  0  0  0  0  0  0  0  0999 V2000
   57.3530   33.5480   46.7120 C   0  0  0  0  0  0  0  0  0  0  0  0
   58.5830   33.7260   45.9310 N   0  0  0  0  0  0  0  0  0  0  0  0
   58.6250   33.2170   44.5490 C   0  0  0  0  0  0  0  0  0  0  0  0
   58.1700   31.7800   44.4910 C   0  0  0  0  0  0  0  0  0  0  0  0
   57.1540   31.3980   43.5970 C   0  0  0  0  0  0  0  0  0  0  0  0
   56.7200   30.0710   43.5460 C   0  0  0  0  0  0  0  0  0  0  0  0
   57.2920   29.1140   44.3860 C   0  0  0  0  0  0  0  0  0  0  0  0
   58.3020   29.4820   45.2780 C   0  0  0  0  0  0  0  0  0  0  0  0
   58.7410   30.8090   45.3360 C   0  0  0  0  0  0  0  0  0  0  0  0
   59.7260   31.1400   46.2080 F   0  0  0  0  0  0  0  0  0  0  0  0
   59.7590   34.3110   46.5390 C   0  0  0  0  0  0  0  0  0  0  0  0
   60.3400   35.2850   45.9850 O   0  0  0  0  0  0  0  0  0  0  0  0
   60.3250   33.7900   47.7990 C   0  0  0  0  0  0  0  0  0  0  0  0
   59.6490   33.8750   48.9560 C   0  0  0  0  0  0  0  0  0  0  0  0
   60.1800   33.2530   50.2310 C   0  0  0  0  0  0  0  0  0  0  0  0
   61.7210   33.2970   50.3290 C   0  0  0  0  0  0  0  0  0  0  0  0
   62.3210   33.0440   49.0180 N   0  0  0  0  0  0  0  0  0  0  0  0
   61.7060   33.2950   47.8520 C   0  0  0  0  0  0  0  0  0  0  0  0
   62.5240   33.1110   46.7960 N   0  0  0  0  0  0  0  0  0  0  0  0
   63.6890   32.7360   47.3060 N   0  0  0  0  0  0  0  0  0  0  0  0
   63.5800   32.7120   48.6540 C   0  0  0  0  0  0  0  0  0  0  0  0
   64.7030   32.4290   49.5830 C   0  0  0  0  0  0  0  0  0  0  0  0
   64.5810   31.4630   50.5970 C   0  0  0  0  0  0  0  0  0  0  0  0
   65.6660   31.2120   51.4420 C   0  0  0  0  0  0  0  0  0  0  0  0
   66.8560   31.9220   51.2770 C   0  0  0  0  0  0  0  0  0  0  0  0
   66.9440   32.8740   50.2620 C   0  0  0  0  0  0  0  0  0  0  0  0
   65.8800   33.1020   49.4490 N   0  0  0  0  0  0  0  0  0  0  0  0
   57.5919   33.5826   47.7852 H   0  0  0  0  0  0  0  0  0  0  0  0
   56.6440   34.3529   46.4680 H   0  0  0  0  0  0  0  0  0  0  0  0
   56.9013   32.5751   46.4680 H   0  0  0  0  0  0  0  0  0  0  0  0
   57.9636   33.8300   43.9191 H   0  0  0  0  0  0  0  0  0  0  0  0
   59.6616   33.2726   44.1852 H   0  0  0  0  0  0  0  0  0  0  0  0
   56.6984   32.1483   42.9341 H   0  0  0  0  0  0  0  0  0  0  0  0
   55.9260   29.7798   42.8426 H   0  0  0  0  0  0  0  0  0  0  0  0
   56.9474   28.0702   44.3455 H   0  0  0  0  0  0  0  0  0  0  0  0
   58.7537   28.7259   45.9370 H   0  0  0  0  0  0  0  0  0  0  0  0
   58.6874   34.4086   48.9785 H   0  0  0  0  0  0  0  0  0  0  0  0
   59.7587   33.7981   51.0886 H   0  0  0  0  0  0  0  0  0  0  0  0
   59.8809   32.1944   50.2295 H   0  0  0  0  0  0  0  0  0  0  0  0
   62.0337   34.2895   50.6857 H   0  0  0  0  0  0  0  0  0  0  0  0
   62.0571   32.5206   51.0321 H   0  0  0  0  0  0  0  0  0  0  0  0
   64.5400   32.5540   46.7320 H   0  0  0  0  0  0  0  0  0  0  0  0
   63.6393   30.9090   50.7245 H   0  0  0  0  0  0  0  0  0  0  0  0
   65.5818   30.4556   52.2362 H   0  0  0  0  0  0  0  0  0  0  0  0
   67.7137   31.7330   51.9393 H   0  0  0  0  0  0  0  0  0  0  0  0
   67.8759   33.4409   50.1195 H   0  0  0  0  0  0  0  0  0  0  0  0
  1  2  1  0
  2  3  1  0
  3  4  1  0
  4  5  2  0
  5  6  1  0
  6  7  2  0
  7  8  1  0
  8  9  2  0
  9 10  1  0
  2 11  1  0
 11 12  2  0
 11 13  1  0
 13 14  2  0
 14 15  1  0
 15 16  1  0
 16 17  1  0
 17 18  1  0
 18 19  2  0
 19 20  1  0
 20 21  2  0
 21 22  1  0
 22 23  2  0
 23 24  1  0
 24 25  2  0
 25 26  1  0
 26 27  2  0
  9  4  1  0
 18 13  1  0
 27 22  1  0
 21 17  1  0
  1 28  1  0
  1 29  1  0
  1 30  1  0
  3 31  1  0
  3 32  1  0
  5 33  1  0
  6 34  1  0
  7 35  1  0
  8 36  1  0
 14 37  1  0
 15 38  1  0
 15 39  1  0
 16 40  1  0
 16 41  1  0
 20 42  1  0
 23 43  1  0
 24 44  1  0
 25 45  1  0
 26 46  1  0
M  CHG  1  20   1
M  END
>  <UniqueID>  (59) 
53

>  <SMILES>  (59) 
CN(Cc1ccccc1F)C(=O)C1=CCCn2c1n[nH+]c2-c1ccccn1

>  <Energy>  (59) 
95.9373309821753

>  <Genealogy>  (59) 
CN(Cc1ccccc1F)C(=O)C1=CCCn2c1n[nH+]c2-c1ccccn1 (protonated)
CN(Cc1ccccc1F)C(=O)C1=CCCn2c1n[nH+]c2-c1ccccn1 (3D coordinates assigned)
CN(Cc1ccccc1F)C(=O)C1=CCCn2c1n[nH+]c2-c1ccccn1 (nonaromatic ring conformer: 95.9373309821753 kcal/mol)

>  <smiles>  (59) 
CN(Cc1ccccc1F)C(=O)C1=CCCn2c1nnc2-c1ccccn1

>  <score_type>  (59) 
oracle

>  <origin>  (59) 
adg

>  <m_score__min__energy>  (59) 
-7.4500000000000002

>  <m_primary>  (59) 
energy

$$$$
59:0
     RDKit          3D

 31 33  0  0  0  0  0  0  0  0999 V2000
   57.6560   27.6010   45.0590 C   0  0  0  0  0  0  0  0  0  0  0  0
   57.9500   29.0650   45.2510 C   0  0  0  0  0  0  0  0  0  0  0  0
   59.1920   29.4670   45.7610 C   0  0  0  0  0  0  0  0  0  0  0  0
   59.5020   30.8190   45.9460 C   0  0  0  0  0  0  0  0  0  0  0  0
   58.5240   31.7780   45.5960 C   0  0  0  0  0  0  0  0  0  0  0  0
   57.3310   31.3660   45.0840 N   0  0  0  0  0  0  0  0  0  0  0  0
   57.0180   30.0570   44.8970 C   0  0  0  0  0  0  0  0  0  0  0  0
   55.6730   29.7130   44.3290 C   0  0  0  0  0  0  0  0  0  0  0  0
   58.7360   33.1730   45.7860 N   0  0  0  0  0  0  0  0  0  0  0  0
   58.2380   34.1360   44.8070 C   0  0  0  0  0  0  0  0  0  0  0  0
   59.0580   33.6890   47.3960 S   0  0  0  0  0  0  0  0  0  0  0  0
   58.1200   33.0160   48.3580 O   0  0  0  0  0  0  0  0  0  0  0  0
   58.8990   35.1810   47.5000 O   0  0  0  0  0  0  0  0  0  0  0  0
   60.7010   33.2390   47.7310 C   0  0  0  0  0  0  0  0  0  0  0  0
   61.5230   34.0340   48.5230 C   0  0  0  0  0  0  0  0  0  0  0  0
   63.0600   33.3650   48.5200 S   0  0  0  0  0  0  0  0  0  0  0  0
   62.7010   32.0660   47.5190 C   0  0  0  0  0  0  0  0  0  0  0  0
   61.3570   32.1250   47.1690 C   0  0  0  0  0  0  0  0  0  0  0  0
   60.8150   31.1020   46.3690 O   0  0  0  0  0  0  0  0  0  0  0  0
   57.5584   27.1148   46.0409 H   0  0  0  0  0  0  0  0  0  0  0  0
   56.7169   27.4861   44.4979 H   0  0  0  0  0  0  0  0  0  0  0  0
   58.4780   27.1324   44.4979 H   0  0  0  0  0  0  0  0  0  0  0  0
   59.9394   28.7031   46.0215 H   0  0  0  0  0  0  0  0  0  0  0  0
   54.9638   29.5316   45.1500 H   0  0  0  0  0  0  0  0  0  0  0  0
   55.3119   30.5477   43.7102 H   0  0  0  0  0  0  0  0  0  0  0  0
   55.7570   28.8074   43.7102 H   0  0  0  0  0  0  0  0  0  0  0  0
   57.7937   34.9951   45.3310 H   0  0  0  0  0  0  0  0  0  0  0  0
   59.0704   34.4816   44.1764 H   0  0  0  0  0  0  0  0  0  0  0  0
   57.4748   33.6565   44.1764 H   0  0  0  0  0  0  0  0  0  0  0  0
   61.2172   34.9447   49.0589 H   0  0  0  0  0  0  0  0  0  0  0  0
   63.4134   31.2938   47.1931 H   0  0  0  0  0  0  0  0  0  0  0  0
  1  2  1  0
  2  3  2  0
  3  4  1  0
  4  5  2  0
  5  6  1  0
  6  7  2  0
  7  8  1  0
  5  9  1  0
  9 10  1  0
  9 11  1  0
 11 12  2  0
 11 13  2  0
 11 14  1  0
 14 15  2  0
 15 16  1  0
 16 17  1  0
 17 18  2  0
 18 19  1  0
  7  2  1  0
 18 14  1  0
 19  4  1  0
  1 20  1  0
  1 21  1  0
  1 22  1  0
  3 23  1  0
  8 24  1  0
  8 25  1  0
  8 26  1  0
 10 27  1  0
 10 28  1  0
 10 29  1  0
 15 30  1  0
 17 31  1  0
M  END
>  <UniqueID>  (60) 
54

>  <SMILES>  (60) 
Cc1cc2c(nc1C)N(C)S(=O)(=O)c1cscc1O2

>  <Energy>  (60) 
79.77627373048323

>  <Genealogy>  (60) 
Cc1cc2c(nc1C)N(C)S(=O)(=O)c1cscc1O2 (3D coordinates assigned)
Cc1cc2c(nc1C)N(C)S(=O)(=O)c1cscc1O2 (nonaromatic ring conformer: 79.77627373048323 kcal/mol)

>  <smiles>  (60) 
Cc1cc2c(nc1C)N(C)S(=O)(=O)c1cscc1O2

>  <score_type>  (60) 
oracle

>  <origin>  (60) 
adg

>  <m_score__min__energy>  (60) 
-6.96

>  <m_primary>  (60) 
energy

$$$$
60:0
     RDKit          3D

 29 30  0  0  0  0  0  0  0  0999 V2000
   56.4090   25.2810   47.1350 O   0  0  0  0  0  0  0  0  0  0  0  0
   56.0940   26.1920   46.3430 N   0  0  0  0  0  0  0  0  0  0  0  0
   54.7690   26.3410   45.9970 O   0  0  0  0  0  0  0  0  0  0  0  0
   57.0940   27.0720   45.7990 C   0  0  0  0  0  0  0  0  0  0  0  0
   58.4460   26.6820   45.7580 C   0  0  0  0  0  0  0  0  0  0  0  0
   59.4140   27.5370   45.2250 C   0  0  0  0  0  0  0  0  0  0  0  0
   59.0470   28.7890   44.7290 C   0  0  0  0  0  0  0  0  0  0  0  0
   57.7080   29.1960   44.7660 C   0  0  0  0  0  0  0  0  0  0  0  0
   57.2620   30.7730   44.1190 S   0  0  0  0  0  0  0  0  0  0  0  0
   55.9530   31.1840   44.7330 O   0  0  0  0  0  0  0  0  0  0  0  0
   57.0890   30.6910   42.6260 O   0  0  0  0  0  0  0  0  0  0  0  0
   58.4980   31.9450   44.5230 N   0  0  0  0  0  0  0  0  0  0  0  0
   58.0870   33.2920   44.1110 C   0  0  0  0  0  0  0  0  0  0  0  0
   57.4100   33.9640   45.2970 C   0  0  0  0  0  0  0  0  0  0  0  0
   57.7930   33.1370   46.5090 C   0  0  0  0  0  0  0  0  0  0  0  0
   58.6790   32.0190   45.9770 C   0  0  0  0  0  0  0  0  0  0  0  0
   56.7350   28.3360   45.2970 C   0  0  0  0  0  0  0  0  0  0  0  0
   58.7424   25.6972   46.1483 H   0  0  0  0  0  0  0  0  0  0  0  0
   60.4678   27.2227   45.1962 H   0  0  0  0  0  0  0  0  0  0  0  0
   59.8121   29.4578   44.3078 H   0  0  0  0  0  0  0  0  0  0  0  0
   58.9693   33.8741   43.8065 H   0  0  0  0  0  0  0  0  0  0  0  0
   57.3936   33.2347   43.2590 H   0  0  0  0  0  0  0  0  0  0  0  0
   57.7690   34.9977   45.4087 H   0  0  0  0  0  0  0  0  0  0  0  0
   56.3188   34.0142   45.1674 H   0  0  0  0  0  0  0  0  0  0  0  0
   58.3449   33.7521   47.2350 H   0  0  0  0  0  0  0  0  0  0  0  0
   56.9078   32.7427   47.0295 H   0  0  0  0  0  0  0  0  0  0  0  0
   59.7320   32.2347   46.2109 H   0  0  0  0  0  0  0  0  0  0  0  0
   58.4049   31.0614   46.4438 H   0  0  0  0  0  0  0  0  0  0  0  0
   55.6819   28.6530   45.3210 H   0  0  0  0  0  0  0  0  0  0  0  0
  1  2  2  0
  2  3  1  0
  2  4  1  0
  4  5  2  0
  5  6  1  0
  6  7  2  0
  7  8  1  0
  8  9  1  0
  9 10  2  0
  9 11  2  0
  9 12  1  0
 12 13  1  0
 13 14  1  0
 14 15  1  0
 15 16  1  0
  8 17  2  0
 17  4  1  0
 16 12  1  0
  5 18  1  0
  6 19  1  0
  7 20  1  0
 13 21  1  0
 13 22  1  0
 14 23  1  0
 14 24  1  0
 15 25  1  0
 15 26  1  0
 16 27  1  0
 16 28  1  0
 17 29  1  0
M  CHG  2   2   1   3  -1
M  END
>  <UniqueID>  (61) 
55

>  <SMILES>  (61) 
O=[N+]([O-])c1cccc(S(=O)(=O)N2CCCC2)c1

>  <Energy>  (61) 
30.471889997875223

>  <Genealogy>  (61) 
O=[N+]([O-])c1cccc(S(=O)(=O)N2CCCC2)c1 (3D coordinates assigned)
O=[N+]([O-])c1cccc(S(=O)(=O)N2CCCC2)c1 (nonaromatic ring conformer: 30.471889997875223 kcal/mol)

>  <smiles>  (61) 
O=[N+]([O-])c1cccc(S(=O)(=O)N2CCCC2)c1

>  <score_type>  (61) 
oracle

>  <origin>  (61) 
adg

>  <m_score__min__energy>  (61) 
-7.8700000000000001

>  <m_primary>  (61) 
energy

$$$$
61:0
     RDKit          3D

 25 26  0  0  0  0  0  0  0  0999 V2000
   55.3390   29.2800   44.9300 O   0  0  0  0  0  0  0  0  0  0  0  0
   56.4970   29.7670   44.8320 C   0  0  0  0  0  0  0  0  0  0  0  0
   56.6340   31.1510   44.4910 N   0  0  0  0  0  0  0  0  0  0  0  0
   57.3860   32.1250   45.2270 C   0  0  0  0  0  0  0  0  0  0  0  0
   58.1640   31.7810   46.3420 C   0  0  0  0  0  0  0  0  0  0  0  0
   58.8890   32.7350   46.9820 N   0  0  0  0  0  0  0  0  0  0  0  0
   58.8820   34.0230   46.5530 C   0  0  0  0  0  0  0  0  0  0  0  0
   58.1580   34.3720   45.4580 N   0  0  0  0  0  0  0  0  0  0  0  0
   57.4200   33.4500   44.7860 C   0  0  0  0  0  0  0  0  0  0  0  0
   57.6540   28.9530   45.0920 N   0  0  0  0  0  0  0  0  0  0  0  0
   57.5890   27.5490   45.3920 C   0  0  0  0  0  0  0  0  0  0  0  0
   57.3490   27.1060   46.7050 C   0  0  0  0  0  0  0  0  0  0  0  0
   57.3160   25.7400   46.9960 C   0  0  0  0  0  0  0  0  0  0  0  0
   57.5330   24.8040   45.9850 C   0  0  0  0  0  0  0  0  0  0  0  0
   57.7900   25.2300   44.6810 C   0  0  0  0  0  0  0  0  0  0  0  0
   57.8260   26.5980   44.3790 C   0  0  0  0  0  0  0  0  0  0  0  0
   58.1370   27.0910   42.7200 Cl  0  0  0  0  0  0  0  0  0  0  0  0
   58.1871   30.7404   46.6977 H   0  0  0  0  0  0  0  0  0  0  0  0
   59.4634   34.7849   47.0928 H   0  0  0  0  0  0  0  0  0  0  0  0
   56.8489   33.7472   43.8941 H   0  0  0  0  0  0  0  0  0  0  0  0
   58.5990   29.3920   45.0230 H   0  0  0  0  0  0  0  0  0  0  0  0
   57.1862   27.8398   47.5081 H   0  0  0  0  0  0  0  0  0  0  0  0
   57.1186   25.4021   48.0240 H   0  0  0  0  0  0  0  0  0  0  0  0
   57.5016   23.7289   46.2156 H   0  0  0  0  0  0  0  0  0  0  0  0
   57.9650   24.4890   43.8871 H   0  0  0  0  0  0  0  0  0  0  0  0
  1  2  2  0
  2  3  1  0
  3  4  1  0
  4  5  2  0
  5  6  1  0
  6  7  2  0
  7  8  1  0
  8  9  2  0
  2 10  1  0
 10 11  1  0
 11 12  2  0
 12 13  1  0
 13 14  2  0
 14 15  1  0
 15 16  2  0
 16 17  1  0
  9  4  1  0
 16 11  1  0
  5 18  1  0
  7 19  1  0
  9 20  1  0
 10 21  1  0
 12 22  1  0
 13 23  1  0
 14 24  1  0
 15 25  1  0
M  CHG  1   3  -1
M  END
>  <UniqueID>  (62) 
56

>  <SMILES>  (62) 
O=C([N-]c1cncnc1)Nc1ccccc1Cl

>  <Energy>  (62) 
36.06754034430628

>  <Genealogy>  (62) 
O=C([N-]c1cncnc1)Nc1ccccc1Cl (protonated)
O=C([N-]c1cncnc1)Nc1ccccc1Cl (3D coordinates assigned)
O=C([N-]c1cncnc1)Nc1ccccc1Cl (optimized conformer: 36.06754034430628 kcal/mol)

>  <smiles>  (62) 
O=C(Nc1cncnc1)Nc1ccccc1Cl

>  <score_type>  (62) 
oracle

>  <origin>  (62) 
adg

>  <m_score__min__energy>  (62) 
-7.75

>  <m_primary>  (62) 
energy

$$$$
62:0
     RDKit          3D

 75 80  0  0  0  0  0  0  0  0999 V2000
   58.9910   23.9740   46.0020 C   0  0  0  0  0  0  0  0  0  0  0  0
   57.9930   23.7600   44.9000 C   0  0  0  0  0  0  0  0  0  0  0  0
   57.4130   24.7520   44.1280 C   0  0  0  0  0  0  0  0  0  0  0  0
   57.5240   26.2130   44.3250 C   0  0  0  0  0  0  0  0  0  0  0  0
   58.4090   26.9320   43.5130 C   0  0  0  0  0  0  0  0  0  0  0  0
   58.6420   28.2820   43.7450 C   0  0  0  0  0  0  0  0  0  0  0  0
   58.0000   28.9280   44.8110 C   0  0  0  0  0  0  0  0  0  0  0  0
   58.2610   30.3260   45.0850 N   0  0  0  0  0  0  0  0  0  0  0  0
   57.5570   31.3580   44.3050 C   0  0  0  0  0  0  0  0  0  0  0  0
   58.3200   32.6810   44.3050 C   0  0  0  0  0  0  0  0  0  0  0  0
   58.6330   33.0940   45.7120 C   0  0  0  0  0  0  0  0  0  0  0  0
   58.6070   34.4490   46.0690 C   0  0  0  0  0  0  0  0  0  0  0  0
   58.9780   34.8440   47.3530 C   0  0  0  0  0  0  0  0  0  0  0  0
   59.3890   33.8930   48.2860 C   0  0  0  0  0  0  0  0  0  0  0  0
   59.4180   32.5280   47.9530 C   0  0  0  0  0  0  0  0  0  0  0  0
   59.8790   31.5760   48.9810 C   0  0  0  0  0  0  0  0  0  0  0  0
   60.8120   31.8980   49.7650 O   0  0  0  0  0  0  0  0  0  0  0  0
   59.3300   30.2530   49.0150 N   0  0  0  0  0  0  0  0  0  0  0  0
   59.9110   29.1210   49.6820 C   0  0  0  0  0  0  0  0  0  0  0  0
   60.1300   29.1100   51.0720 C   0  0  0  0  0  0  0  0  0  0  0  0
   60.6710   27.9780   51.6900 C   0  0  0  0  0  0  0  0  0  0  0  0
   60.9920   26.8500   50.9290 C   0  0  0  0  0  0  0  0  0  0  0  0
   61.6780   25.4340   51.7030 Cl  0  0  0  0  0  0  0  0  0  0  0  0
   60.7570   26.8490   49.5500 C   0  0  0  0  0  0  0  0  0  0  0  0
   60.2120   27.9790   48.9310 C   0  0  0  0  0  0  0  0  0  0  0  0
   59.0300   32.1180   46.6490 C   0  0  0  0  0  0  0  0  0  0  0  0
   59.1940   30.6850   46.1720 C   0  0  0  0  0  0  0  0  0  0  0  0
   57.1310   28.2190   45.5920 N   0  0  0  0  0  0  0  0  0  0  0  0
   56.8620   26.8930   45.3750 C   0  0  0  0  0  0  0  0  0  0  0  0
   55.8550   26.2190   46.2320 C   0  0  0  0  0  0  0  0  0  0  0  0
   54.6270   26.3360   45.9750 O   0  0  0  0  0  0  0  0  0  0  0  0
   56.2460   25.4150   47.2950 O   0  0  0  0  0  0  0  0  0  0  0  0
   56.6380   24.1900   43.1770 N   0  0  0  0  0  0  0  0  0  0  0  0
   56.7560   22.8650   43.3900 C   0  0  0  0  0  0  0  0  0  0  0  0
   57.5450   22.5670   44.4460 N   0  0  0  0  0  0  0  0  0  0  0  0
   57.8590   21.2100   44.9090 C   0  0  0  0  0  0  0  0  0  0  0  0
   56.8110   20.6260   45.8980 C   0  0  0  0  0  0  0  0  0  0  0  0
   55.4220   21.3100   45.8290 C   0  0  0  0  0  0  0  0  0  0  0  0
   55.2600   22.5470   46.7390 C   0  0  0  0  0  0  0  0  0  0  0  0
   56.0290   22.4640   48.0700 C   0  0  0  0  0  0  0  0  0  0  0  0
   56.4300   21.0330   48.4220 C   0  0  0  0  0  0  0  0  0  0  0  0
   57.3580   20.4620   47.3440 C   0  0  0  0  0  0  0  0  0  0  0  0
   58.4907   23.8667   46.9757 H   0  0  0  0  0  0  0  0  0  0  0  0
   59.7949   23.2278   45.9186 H   0  0  0  0  0  0  0  0  0  0  0  0
   59.4183   24.9842   45.9186 H   0  0  0  0  0  0  0  0  0  0  0  0
   58.9242   26.4241   42.6844 H   0  0  0  0  0  0  0  0  0  0  0  0
   59.3286   28.8427   43.0938 H   0  0  0  0  0  0  0  0  0  0  0  0
   57.4479   31.0089   43.2676 H   0  0  0  0  0  0  0  0  0  0  0  0
   56.5737   31.5280   44.7679 H   0  0  0  0  0  0  0  0  0  0  0  0
   59.2583   32.5601   43.7438 H   0  0  0  0  0  0  0  0  0  0  0  0
   57.6986   33.4555   43.8317 H   0  0  0  0  0  0  0  0  0  0  0  0
   58.2926   35.2036   45.3330 H   0  0  0  0  0  0  0  0  0  0  0  0
   58.9465   35.9079   47.6308 H   0  0  0  0  0  0  0  0  0  0  0  0
   59.6936   34.2144   49.2929 H   0  0  0  0  0  0  0  0  0  0  0  0
   59.8749   29.9944   51.6743 H   0  0  0  0  0  0  0  0  0  0  0  0
   60.8442   27.9752   52.7763 H   0  0  0  0  0  0  0  0  0  0  0  0
   61.0010   25.9588   48.9517 H   0  0  0  0  0  0  0  0  0  0  0  0
   60.0190   27.9699   47.8481 H   0  0  0  0  0  0  0  0  0  0  0  0
   60.2235   30.5529   45.8076 H   0  0  0  0  0  0  0  0  0  0  0  0
   58.9717   30.0277   47.0255 H   0  0  0  0  0  0  0  0  0  0  0  0
   56.6550   28.7010   46.3870 H   0  0  0  0  0  0  0  0  0  0  0  0
   56.2612   22.1041   42.7685 H   0  0  0  0  0  0  0  0  0  0  0  0
   57.9144   20.5485   44.0319 H   0  0  0  0  0  0  0  0  0  0  0  0
   58.8136   21.2698   45.4523 H   0  0  0  0  0  0  0  0  0  0  0  0
   56.6246   19.6030   45.5393 H   0  0  0  0  0  0  0  0  0  0  0  0
   55.2477   21.6253   44.7897 H   0  0  0  0  0  0  0  0  0  0  0  0
   54.6942   20.5667   46.1866 H   0  0  0  0  0  0  0  0  0  0  0  0
   55.6201   23.4285   46.1883 H   0  0  0  0  0  0  0  0  0  0  0  0
   54.1925   22.6085   46.9972 H   0  0  0  0  0  0  0  0  0  0  0  0
   56.9391   23.0767   47.9910 H   0  0  0  0  0  0  0  0  0  0  0  0
   55.3638   22.8314   48.8653 H   0  0  0  0  0  0  0  0  0  0  0  0
   56.9526   21.0299   49.3899 H   0  0  0  0  0  0  0  0  0  0  0  0
   55.5245   20.4113   48.4816 H   0  0  0  0  0  0  0  0  0  0  0  0
   58.3265   20.9795   47.4098 H   0  0  0  0  0  0  0  0  0  0  0  0
   57.4455   19.3821   47.5341 H   0  0  0  0  0  0  0  0  0  0  0  0
  1  2  1  0
  2  3  2  0
  3  4  1  0
  4  5  2  0
  5  6  1  0
  6  7  2  0
  7  8  1  0
  8  9  1  0
  9 10  1  0
 10 11  1  0
 11 12  2  0
 12 13  1  0
 13 14  2  0
 14 15  1  0
 15 16  1  0
 16 17  2  0
 16 18  1  0
 18 19  1  0
 19 20  2  0
 20 21  1  0
 21 22  2  0
 22 23  1  0
 22 24  1  0
 24 25  2  0
 15 26  2  0
 26 27  1  0
  7 28  1  0
 28 29  2  0
 29 30  1  0
 30 31  2  0
 30 32  1  0
  3 33  1  0
 33 34  2  0
 34 35  1  0
 35 36  1  0
 36 37  1  0
 37 38  1  0
 38 39  1  0
 39 40  1  0
 40 41  1  0
 41 42  1  0
 35  2  1  0
 42 37  1  0
 29  4  1  0
 27  8  1  0
 26 11  1  0
 25 19  1  0
  1 43  1  0
  1 44  1  0
  1 45  1  0
  5 46  1  0
  6 47  1  0
  9 48  1  0
  9 49  1  0
 10 50  1  0
 10 51  1  0
 12 52  1  0
 13 53  1  0
 14 54  1  0
 20 55  1  0
 21 56  1  0
 24 57  1  0
 25 58  1  0
 27 59  1  0
 27 60  1  0
 28 61  1  0
 34 62  1  0
 36 63  1  0
 36 64  1  0
 37 65  1  0
 38 66  1  0
 38 67  1  0
 39 68  1  0
 39 69  1  0
 40 70  1  0
 40 71  1  0
 41 72  1  0
 41 73  1  0
 42 74  1  0
 42 75  1  0
M  CHG  3  18  -1  28   1  32  -1
M  END
>  <UniqueID>  (63) 
57

>  <SMILES>  (63) 
Cc1c(-c2ccc(N3CCc4cccc(C(=O)[N-]c5ccc(Cl)cc5)c4C3)[nH+]c2C(=O)[O-])ncn1CC1CCCCC1

>  <Energy>  (63) 
142.039142486825

>  <Genealogy>  (63) 
Cc1c(-c2ccc(N3CCc4cccc(C(=O)[N-]c5ccc(Cl)cc5)c4C3)[nH+]c2C(=O)[O-])ncn1CC1CCCCC1 (protonated)
Cc1c(-c2ccc(N3CCc4cccc(C(=O)[N-]c5ccc(Cl)cc5)c4C3)[nH+]c2C(=O)[O-])ncn1CC1CCCCC1 (3D coordinates assigned)
Cc1c(-c2ccc(N3CCc4cccc(C(=O)[N-]c5ccc(Cl)cc5)c4C3)[nH+]c2C(=O)[O-])ncn1CC1CCCCC1 (nonaromatic ring conformer: 142.039142486825 kcal/mol)

>  <smiles>  (63) 
Cc1c(-c2ccc(N3CCc4cccc(C(=O)Nc5ccc(Cl)cc5)c4C3)nc2C(=O)O)ncn1CC1CCCCC1

>  <score_type>  (63) 
oracle

>  <origin>  (63) 
adg

>  <m_score__min__energy>  (63) 
-12.050000000000001

>  <m_primary>  (63) 
energy

$$$$
63:0
     RDKit          3D

 33 35  0  0  0  0  0  0  0  0999 V2000
   58.2960   29.8540   50.1130 F   0  0  0  0  0  0  0  0  0  0  0  0
   59.2430   30.1840   49.2000 C   0  0  0  0  0  0  0  0  0  0  0  0
   60.1210   31.2410   49.4540 C   0  0  0  0  0  0  0  0  0  0  0  0
   61.0920   31.5850   48.5100 C   0  0  0  0  0  0  0  0  0  0  0  0
   61.1930   30.8670   47.3140 C   0  0  0  0  0  0  0  0  0  0  0  0
   60.3290   29.7900   47.0620 C   0  0  0  0  0  0  0  0  0  0  0  0
   60.4330   29.0180   45.7710 C   0  0  0  0  0  0  0  0  0  0  0  0
   59.8220   29.7190   44.6870 O   0  0  0  0  0  0  0  0  0  0  0  0
   58.4400   29.8600   44.4830 C   0  0  0  0  0  0  0  0  0  0  0  0
   57.6420   28.8890   43.9270 C   0  0  0  0  0  0  0  0  0  0  0  0
   58.1330   27.3120   43.3420 Cl  0  0  0  0  0  0  0  0  0  0  0  0
   56.3610   29.3900   44.0040 C   0  0  0  0  0  0  0  0  0  0  0  0
   56.3970   30.6200   44.5570 N   0  0  0  0  0  0  0  0  0  0  0  0
   57.6590   30.9070   44.8410 N   0  0  0  0  0  0  0  0  0  0  0  0
   58.0580   32.1960   45.3190 C   0  0  0  0  0  0  0  0  0  0  0  0
   58.4990   33.1720   44.4130 C   0  0  0  0  0  0  0  0  0  0  0  0
   58.9230   34.4200   44.8760 C   0  0  0  0  0  0  0  0  0  0  0  0
   58.9340   34.6920   46.2480 C   0  0  0  0  0  0  0  0  0  0  0  0
   58.5280   33.7120   47.1570 C   0  0  0  0  0  0  0  0  0  0  0  0
   58.1020   32.4620   46.6970 C   0  0  0  0  0  0  0  0  0  0  0  0
   59.3400   29.4650   48.0040 C   0  0  0  0  0  0  0  0  0  0  0  0
   60.0477   31.8023   50.3972 H   0  0  0  0  0  0  0  0  0  0  0  0
   61.7780   32.4218   48.7078 H   0  0  0  0  0  0  0  0  0  0  0  0
   61.9519   31.1472   46.5686 H   0  0  0  0  0  0  0  0  0  0  0  0
   61.4955   28.8556   45.5371 H   0  0  0  0  0  0  0  0  0  0  0  0
   59.9076   28.0603   45.9003 H   0  0  0  0  0  0  0  0  0  0  0  0
   55.4523   28.8693   43.6677 H   0  0  0  0  0  0  0  0  0  0  0  0
   58.5110   32.9540   43.3349 H   0  0  0  0  0  0  0  0  0  0  0  0
   59.2486   35.1897   44.1607 H   0  0  0  0  0  0  0  0  0  0  0  0
   59.2622   35.6771   46.6110 H   0  0  0  0  0  0  0  0  0  0  0  0
   58.5434   33.9239   48.2363 H   0  0  0  0  0  0  0  0  0  0  0  0
   57.8009   31.6858   47.4159 H   0  0  0  0  0  0  0  0  0  0  0  0
   58.6389   28.6421   47.8009 H   0  0  0  0  0  0  0  0  0  0  0  0
  1  2  1  0
  2  3  2  0
  3  4  1  0
  4  5  2  0
  5  6  1  0
  6  7  1  0
  7  8  1  0
  8  9  1  0
  9 10  2  0
 10 11  1  0
 10 12  1  0
 12 13  2  0
 13 14  1  0
 14 15  1  0
 15 16  2  0
 16 17  1  0
 17 18  2  0
 18 19  1  0
 19 20  2  0
  6 21  2  0
 21  2  1  0
 14  9  1  0
 20 15  1  0
  3 22  1  0
  4 23  1  0
  5 24  1  0
  7 25  1  0
  7 26  1  0
 12 27  1  0
 16 28  1  0
 17 29  1  0
 18 30  1  0
 19 31  1  0
 20 32  1  0
 21 33  1  0
M  END
>  <UniqueID>  (64) 
58

>  <SMILES>  (64) 
Fc1cccc(COc2c(Cl)cnn2-c2ccccc2)c1

>  <Energy>  (64) 
74.35418406638931

>  <Genealogy>  (64) 
Fc1cccc(COc2c(Cl)cnn2-c2ccccc2)c1 (3D coordinates assigned)
Fc1cccc(COc2c(Cl)cnn2-c2ccccc2)c1 (optimized conformer: 74.35418406638931 kcal/mol)

>  <smiles>  (64) 
Fc1cccc(COc2c(Cl)cnn2-c2ccccc2)c1

>  <score_type>  (64) 
oracle

>  <origin>  (64) 
adg

>  <m_score__min__energy>  (64) 
-6.8099999999999996

>  <m_primary>  (64) 
energy

$$$$
64:0
     RDKit          3D

 24 25  0  0  0  0  0  0  0  0999 V2000
   55.9300   29.2110   45.1890 O   0  0  0  0  0  0  0  0  0  0  0  0
   57.0120   28.6870   45.5680 C   0  0  0  0  0  0  0  0  0  0  0  0
   58.2140   29.4800   45.6150 N   0  0  0  0  0  0  0  0  0  0  0  0
   58.2470   30.8970   45.3700 C   0  0  0  0  0  0  0  0  0  0  0  0
   57.8620   31.3870   44.1120 C   0  0  0  0  0  0  0  0  0  0  0  0
   57.9090   32.7580   43.8410 C   0  0  0  0  0  0  0  0  0  0  0  0
   58.3580   33.6500   44.8180 C   0  0  0  0  0  0  0  0  0  0  0  0
   58.4060   34.9790   44.5530 F   0  0  0  0  0  0  0  0  0  0  0  0
   58.7680   33.1700   46.0660 C   0  0  0  0  0  0  0  0  0  0  0  0
   58.7210   31.8000   46.3410 C   0  0  0  0  0  0  0  0  0  0  0  0
   57.0180   27.2540   45.9510 C   0  0  0  0  0  0  0  0  0  0  0  0
   58.2210   26.6210   46.2980 C   0  0  0  0  0  0  0  0  0  0  0  0
   58.2290   25.3100   46.6520 N   0  0  0  0  0  0  0  0  0  0  0  0
   57.0780   24.5900   46.6870 C   0  0  0  0  0  0  0  0  0  0  0  0
   55.8980   25.1810   46.3720 N   0  0  0  0  0  0  0  0  0  0  0  0
   55.8430   26.4870   46.0090 C   0  0  0  0  0  0  0  0  0  0  0  0
   59.1310   29.0120   45.7820 H   0  0  0  0  0  0  0  0  0  0  0  0
   57.5211   30.6878   43.3343 H   0  0  0  0  0  0  0  0  0  0  0  0
   57.5920   33.1347   42.8573 H   0  0  0  0  0  0  0  0  0  0  0  0
   59.1282   33.8717   46.8327 H   0  0  0  0  0  0  0  0  0  0  0  0
   59.0556   31.4260   47.3198 H   0  0  0  0  0  0  0  0  0  0  0  0
   59.1626   27.1896   46.2832 H   0  0  0  0  0  0  0  0  0  0  0  0
   57.1024   23.5275   46.9708 H   0  0  0  0  0  0  0  0  0  0  0  0
   54.8753   26.9465   45.7594 H   0  0  0  0  0  0  0  0  0  0  0  0
  1  2  2  0
  2  3  1  0
  3  4  1  0
  4  5  2  0
  5  6  1  0
  6  7  2  0
  7  8  1  0
  7  9  1  0
  9 10  2  0
  2 11  1  0
 11 12  2  0
 12 13  1  0
 13 14  2  0
 14 15  1  0
 15 16  2  0
 10  4  1  0
 16 11  1  0
  3 17  1  0
  5 18  1  0
  6 19  1  0
  9 20  1  0
 10 21  1  0
 12 22  1  0
 14 23  1  0
 16 24  1  0
M  END
>  <UniqueID>  (65) 
59

>  <SMILES>  (65) 
O=C(Nc1ccc(F)cc1)c1cncnc1

>  <Energy>  (65) 
33.04085075329381

>  <Genealogy>  (65) 
O=C(Nc1ccc(F)cc1)c1cncnc1 (3D coordinates assigned)
O=C(Nc1ccc(F)cc1)c1cncnc1 (optimized conformer: 33.04085075329381 kcal/mol)

>  <smiles>  (65) 
O=C(Nc1ccc(F)cc1)c1cncnc1

>  <score_type>  (65) 
oracle

>  <origin>  (65) 
adg

>  <m_score__min__energy>  (65) 
-5.1699999999999999

>  <m_primary>  (65) 
energy

$$$$
65:0
     RDKit          3D

 45 47  0  0  0  0  0  0  0  0999 V2000
   62.1916   34.5265   50.9632 H   0  0  0  0  0  0  0  0  0  0  0  0
   61.6530   33.6940   50.4870 C   0  0  0  0  0  0  0  0  0  0  0  0
   60.2080   33.8480   50.2180 C   0  0  0  0  0  0  0  0  0  0  0  0
   59.4470   34.0870   51.1940 O   0  0  0  0  0  0  0  0  0  0  0  0
   59.6230   33.7500   48.8590 C   0  0  0  0  0  0  0  0  0  0  0  0
   60.1190   34.5600   47.8230 C   0  0  0  0  0  0  0  0  0  0  0  0
   60.9301   35.2742   48.0278 H   0  0  0  0  0  0  0  0  0  0  0  0
   59.5870   34.4630   46.5330 C   0  0  0  0  0  0  0  0  0  0  0  0
   59.9741   35.1069   45.7296 H   0  0  0  0  0  0  0  0  0  0  0  0
   58.5640   33.5490   46.2630 C   0  0  0  0  0  0  0  0  0  0  0  0
   57.8400   33.4180   44.5010 Br  0  0  0  0  0  0  0  0  0  0  0  0
   58.0780   32.7250   47.2820 C   0  0  0  0  0  0  0  0  0  0  0  0
   57.2773   32.0016   47.0685 H   0  0  0  0  0  0  0  0  0  0  0  0
   58.6080   32.8190   48.5720 C   0  0  0  0  0  0  0  0  0  0  0  0
   58.2291   32.1609   49.3678 H   0  0  0  0  0  0  0  0  0  0  0  0
   62.3340   32.5850   50.1760 C   0  0  0  0  0  0  0  0  0  0  0  0
   63.2198   32.3250   50.7741 H   0  0  0  0  0  0  0  0  0  0  0  0
   61.9450   31.6950   49.0620 C   0  0  0  0  0  0  0  0  0  0  0  0
   60.9970   30.6750   49.0280 C   0  0  0  0  0  0  0  0  0  0  0  0
   60.0590   30.2880   50.1370 C   0  0  0  0  0  0  0  0  0  0  0  0
   60.5375   30.4854   51.1076 H   0  0  0  0  0  0  0  0  0  0  0  0
   59.1340   30.8779   50.0575 H   0  0  0  0  0  0  0  0  0  0  0  0
   59.8191   29.2174   50.0575 H   0  0  0  0  0  0  0  0  0  0  0  0
   60.9680   30.1610   47.7740 N   0  0  0  0  0  0  0  0  0  0  0  0
   60.1480   29.0840   47.2840 C   0  0  0  0  0  0  0  0  0  0  0  0
   59.0800   29.3390   46.4080 C   0  0  0  0  0  0  0  0  0  0  0  0
   58.8746   30.3687   46.0802 H   0  0  0  0  0  0  0  0  0  0  0  0
   58.2770   28.2900   45.9510 C   0  0  0  0  0  0  0  0  0  0  0  0
   57.4403   28.4987   45.2681 H   0  0  0  0  0  0  0  0  0  0  0  0
   58.5330   26.9720   46.3590 C   0  0  0  0  0  0  0  0  0  0  0  0
   57.6460   25.8530   45.8990 C   0  0  0  0  0  0  0  0  0  0  0  0
   57.2317   25.3303   46.7737 H   0  0  0  0  0  0  0  0  0  0  0  0
   56.8241   26.2620   45.2930 H   0  0  0  0  0  0  0  0  0  0  0  0
   58.2318   25.1462   45.2930 H   0  0  0  0  0  0  0  0  0  0  0  0
   59.5790   26.7220   47.2600 C   0  0  0  0  0  0  0  0  0  0  0  0
   59.7681   25.6959   47.6084 H   0  0  0  0  0  0  0  0  0  0  0  0
   60.3820   27.7710   47.7170 C   0  0  0  0  0  0  0  0  0  0  0  0
   61.2023   27.5652   48.4204 H   0  0  0  0  0  0  0  0  0  0  0  0
   61.8230   30.8310   47.0150 N   0  0  0  0  0  0  0  0  0  0  0  0
   61.9950   30.6480   46.0010 H   0  0  0  0  0  0  0  0  0  0  0  0
   62.4330   31.7650   47.7670 C   0  0  0  0  0  0  0  0  0  0  0  0
   63.4430   32.7360   47.2470 C   0  0  0  0  0  0  0  0  0  0  0  0
   63.9509   33.2243   48.0917 H   0  0  0  0  0  0  0  0  0  0  0  0
   64.1832   32.2017   46.6333 H   0  0  0  0  0  0  0  0  0  0  0  0
   62.9383   33.4967   46.6333 H   0  0  0  0  0  0  0  0  0  0  0  0
  1  2  1  0
  2  3  1  0
  3  4  2  0
  3  5  1  0
  5  6  2  0
  6  7  1  0
  6  8  1  0
  8  9  1  0
  8 10  2  0
 10 11  1  0
 10 12  1  0
 12 13  1  0
 12 14  2  0
 14 15  1  0
  2 16  2  0
 16 17  1  0
 16 18  1  0
 18 19  2  0
 19 20  1  0
 20 21  1  0
 20 22  1  0
 20 23  1  0
 19 24  1  0
 24 25  1  0
 25 26  2  0
 26 27  1  0
 26 28  1  0
 28 29  1  0
 28 30  2  0
 30 31  1  0
 31 32  1  0
 31 33  1  0
 31 34  1  0
 30 35  1  0
 35 36  1  0
 35 37  2  0
 37 38  1  0
 24 39  1  0
 39 40  1  0
 39 41  2  0
 41 42  1  0
 42 43  1  0
 42 44  1  0
 42 45  1  0
 14  5  1  0
 41 18  1  0
 37 25  1  0
M  CHG  1  39   1
M  END
>  <UniqueID>  (66) 
60

>  <SMILES>  (66) 
Cc1ccc(-n2[nH+]c(C)c(/C=C/C(=O)c3ccc(Br)cc3)c2C)cc1

>  <Energy>  (66) 
88.13617377499314

>  <Genealogy>  (66) 
Cc1ccc(-n2[nH+]c(C)c(C=CC(=O)c3ccc(Br)cc3)c2C)cc1 (protonated)
Cc1ccc(-n2[nH+]c(C)c(/C=C/C(=O)c3ccc(Br)cc3)c2C)cc1 (cis-trans isomerization)
Cc1ccc(-n2[nH+]c(C)c(/C=C/C(=O)c3ccc(Br)cc3)c2C)cc1 (3D coordinates assigned)
Cc1ccc(-n2[nH+]c(C)c(/C=C/C(=O)c3ccc(Br)cc3)c2C)cc1 (optimized conformer: 88.13617377499314 kcal/mol)

>  <smiles>  (66) 
Cc1ccc(-n2nc(C)c(C=CC(=O)c3ccc(Br)cc3)c2C)cc1

>  <score_type>  (66) 
oracle

>  <origin>  (66) 
adg

>  <m_score__min__energy>  (66) 
-8.0199999999999996

>  <m_primary>  (66) 
energy

$$$$
66:0
     RDKit          3D

 48 49  0  0  0  0  0  0  0  0999 V2000
   57.9830   31.9710   46.7920 N   0  0  0  0  0  0  0  0  0  0  0  0
   59.1550   32.7580   46.3940 C   0  0  1  0  0  0  0  0  0  0  0  0
   58.8940   33.4790   45.0580 C   0  0  0  0  0  0  0  0  0  0  0  0
   58.4420   32.5270   44.0450 N   0  0  0  0  0  0  0  0  0  0  0  0
   57.1360   31.9340   44.0650 C   0  0  0  0  0  0  0  0  0  0  0  0
   56.2770   32.3080   44.9080 O   0  0  0  0  0  0  0  0  0  0  0  0
   56.7940   30.8290   43.1080 C   0  0  0  0  0  0  0  0  0  0  0  0
   56.3430   29.5520   43.8520 C   0  0  2  0  0  0  0  0  0  0  0  0
   55.9620   29.8450   45.2380 N   0  0  0  0  0  0  0  0  0  0  0  0
   57.4670   28.5000   43.8320 C   0  0  0  0  0  0  0  0  0  0  0  0
   58.3890   28.6540   45.0170 C   0  0  0  0  0  0  0  0  0  0  0  0
   59.5780   29.3910   44.8860 C   0  0  0  0  0  0  0  0  0  0  0  0
   60.4540   29.5180   45.9670 C   0  0  0  0  0  0  0  0  0  0  0  0
   60.1550   28.9040   47.1860 C   0  0  0  0  0  0  0  0  0  0  0  0
   58.9810   28.1610   47.3250 C   0  0  0  0  0  0  0  0  0  0  0  0
   58.0990   28.0300   46.2460 C   0  0  0  0  0  0  0  0  0  0  0  0
   56.9690   27.2940   46.4010 F   0  0  0  0  0  0  0  0  0  0  0  0
   59.6060   33.7320   47.5110 C   0  0  0  0  0  0  0  0  0  0  0  0
   61.0920   33.7030   47.7830 C   0  0  0  0  0  0  0  0  0  0  0  0
   61.5780   33.8640   49.0920 C   0  0  0  0  0  0  0  0  0  0  0  0
   62.9530   33.8250   49.3430 C   0  0  0  0  0  0  0  0  0  0  0  0
   63.8520   33.6280   48.2910 C   0  0  0  0  0  0  0  0  0  0  0  0
   63.3780   33.4710   46.9860 C   0  0  0  0  0  0  0  0  0  0  0  0
   62.0030   33.5090   46.7310 C   0  0  0  0  0  0  0  0  0  0  0  0
   57.1530   32.6050   46.8600 H   0  0  0  0  0  0  0  0  0  0  0  0
   57.7770   31.2480   46.0660 H   0  0  0  0  0  0  0  0  0  0  0  0
   59.9942   32.0639   46.2390 H   0  0  0  0  0  0  0  0  0  0  0  0
   58.1197   34.2463   45.2054 H   0  0  0  0  0  0  0  0  0  0  0  0
   59.8292   33.9465   44.7162 H   0  0  0  0  0  0  0  0  0  0  0  0
   59.1410   32.1850   43.3480 H   0  0  0  0  0  0  0  0  0  0  0  0
   55.9791   31.1657   42.4503 H   0  0  0  0  0  0  0  0  0  0  0  0
   57.6949   30.5876   42.5248 H   0  0  0  0  0  0  0  0  0  0  0  0
   55.4599   29.1547   43.3302 H   0  0  0  0  0  0  0  0  0  0  0  0
   56.7430   30.3480   45.7200 H   0  0  0  0  0  0  0  0  0  0  0  0
   55.1260   30.4730   45.2410 H   0  0  0  0  0  0  0  0  0  0  0  0
   57.0177   27.4962   43.8566 H   0  0  0  0  0  0  0  0  0  0  0  0
   58.0570   28.6422   42.9145 H   0  0  0  0  0  0  0  0  0  0  0  0
   59.8207   29.8710   43.9265 H   0  0  0  0  0  0  0  0  0  0  0  0
   61.3799   30.1019   45.8583 H   0  0  0  0  0  0  0  0  0  0  0  0
   60.8449   29.0060   48.0367 H   0  0  0  0  0  0  0  0  0  0  0  0
   58.7486   27.6772   48.2852 H   0  0  0  0  0  0  0  0  0  0  0  0
   59.3280   34.7537   47.2131 H   0  0  0  0  0  0  0  0  0  0  0  0
   59.1049   33.4118   48.4364 H   0  0  0  0  0  0  0  0  0  0  0  0
   60.8738   34.0213   49.9223 H   0  0  0  0  0  0  0  0  0  0  0  0
   63.3277   33.9495   50.3697 H   0  0  0  0  0  0  0  0  0  0  0  0
   64.9333   33.5965   48.4906 H   0  0  0  0  0  0  0  0  0  0  0  0
   64.0864   33.3174   46.1586 H   0  0  0  0  0  0  0  0  0  0  0  0
   61.6334   33.3864   45.7022 H   0  0  0  0  0  0  0  0  0  0  0  0
  1  2  1  0
  2  3  1  0
  3  4  1  0
  4  5  1  0
  5  6  2  0
  5  7  1  0
  7  8  1  0
  8  9  1  0
  8 10  1  0
 10 11  1  0
 11 12  2  0
 12 13  1  0
 13 14  2  0
 14 15  1  0
 15 16  2  0
 16 17  1  0
  2 18  1  0
 18 19  1  0
 19 20  2  0
 20 21  1  0
 21 22  2  0
 22 23  1  0
 23 24  2  0
 16 11  1  0
 24 19  1  0
  1 25  1  0
  1 26  1  0
  2 27  1  6
  3 28  1  0
  3 29  1  0
  4 30  1  0
  7 31  1  0
  7 32  1  0
  8 33  1  6
  9 34  1  0
  9 35  1  0
 10 36  1  0
 10 37  1  0
 12 38  1  0
 13 39  1  0
 14 40  1  0
 15 41  1  0
 18 42  1  0
 18 43  1  0
 20 44  1  0
 21 45  1  0
 22 46  1  0
 23 47  1  0
 24 48  1  0
M  END
>  <UniqueID>  (67) 
61

>  <SMILES>  (67) 
N[C@@H](CNC(=O)C[C@H](N)Cc1ccccc1F)Cc1ccccc1

>  <Energy>  (67) 
38.428253085662334

>  <Genealogy>  (67) 
N[C@@H](CNC(=O)C[C@H](N)Cc1ccccc1F)Cc1ccccc1 (chirality)
N[C@@H](CNC(=O)C[C@H](N)Cc1ccccc1F)Cc1ccccc1 (3D coordinates assigned)
N[C@@H](CNC(=O)C[C@H](N)Cc1ccccc1F)Cc1ccccc1 (optimized conformer: 38.428253085662334 kcal/mol)

>  <smiles>  (67) 
NC(CNC(=O)CC(N)Cc1ccccc1F)Cc1ccccc1

>  <score_type>  (67) 
oracle

>  <origin>  (67) 
adg

>  <m_score__min__energy>  (67) 
-8.1500000000000004

>  <m_primary>  (67) 
energy

$$$$
67:0
     RDKit          3D

 37 39  0  0  1  0  0  0  0  0999 V2000
   58.1480   26.8140   42.8020 C   0  0  0  0  0  0  0  0  0  0  0  0
   57.7240   27.7030   43.9500 C   0  0  2  0  0  0  0  0  0  0  0  0
   57.8320   29.1050   43.6390 N   0  0  0  0  0  0  0  0  0  0  0  0
   56.8890   30.0020   44.2410 C   0  0  0  0  0  0  0  0  0  0  0  0
   55.9820   29.6140   45.0220 O   0  0  0  0  0  0  0  0  0  0  0  0
   56.9520   31.4190   43.9630 N   0  0  0  0  0  0  0  0  0  0  0  0
   57.5020   32.2210   44.8390 C   0  0  0  0  0  0  0  0  0  0  0  0
   58.0720   33.4150   44.3920 C   0  0  0  0  0  0  0  0  0  0  0  0
   58.6390   34.2270   45.3520 C   0  0  0  0  0  0  0  0  0  0  0  0
   59.2590   35.4240   45.2510 N   0  0  0  0  0  0  0  0  0  0  0  0
   59.6500   35.8370   46.4530 N   0  0  0  0  0  0  0  0  0  0  0  0
   59.2930   34.9160   47.3770 C   0  0  0  0  0  0  0  0  0  0  0  0
   59.5000   34.9640   48.6480 N   0  0  0  0  0  0  0  0  0  0  0  0
   58.6550   33.8940   46.6960 C   0  0  0  0  0  0  0  0  0  0  0  0
   58.0710   32.6920   47.0800 C   0  0  0  0  0  0  0  0  0  0  0  0
   57.5190   31.9030   46.1390 N   0  0  0  0  0  0  0  0  0  0  0  0
   58.3510   27.2750   45.2020 C   0  0  0  0  0  0  0  0  0  0  0  0
   59.6720   27.6620   45.4730 C   0  0  0  0  0  0  0  0  0  0  0  0
   60.3270   27.2910   46.6190 C   0  0  0  0  0  0  0  0  0  0  0  0
   59.6710   26.5100   47.5430 C   0  0  0  0  0  0  0  0  0  0  0  0
   58.4060   26.1260   47.3080 N   0  0  0  0  0  0  0  0  0  0  0  0
   57.7590   26.4960   46.1690 C   0  0  0  0  0  0  0  0  0  0  0  0
   56.1300   25.9620   45.9690 Cl  0  0  0  0  0  0  0  0  0  0  0  0
   58.5896   25.8881   43.1990 H   0  0  0  0  0  0  0  0  0  0  0  0
   57.2707   26.5671   42.1861 H   0  0  0  0  0  0  0  0  0  0  0  0
   58.8920   27.3404   42.1861 H   0  0  0  0  0  0  0  0  0  0  0  0
   56.6441   27.5742   44.1151 H   0  0  0  0  0  0  0  0  0  0  0  0
   58.5290   29.5420   43.0110 H   0  0  0  0  0  0  0  0  0  0  0  0
   58.0689   33.6938   43.3279 H   0  0  0  0  0  0  0  0  0  0  0  0
   59.4320   35.9810   44.3850 H   0  0  0  0  0  0  0  0  0  0  0  0
   60.1490   36.7120   46.7040 H   0  0  0  0  0  0  0  0  0  0  0  0
   59.1150   35.7440   49.2100 H   0  0  0  0  0  0  0  0  0  0  0  0
   58.0601   32.3900   48.1377 H   0  0  0  0  0  0  0  0  0  0  0  0
   57.0920   31.0080   46.4690 H   0  0  0  0  0  0  0  0  0  0  0  0
   60.2020   28.2864   44.7387 H   0  0  0  0  0  0  0  0  0  0  0  0
   61.3634   27.6134   46.7976 H   0  0  0  0  0  0  0  0  0  0  0  0
   60.1799   26.2022   48.4684 H   0  0  0  0  0  0  0  0  0  0  0  0
  1  2  1  0
  2  3  1  0
  3  4  1  0
  4  5  2  0
  4  6  1  0
  6  7  2  0
  7  8  1  0
  8  9  2  0
  9 10  1  0
 10 11  1  0
 11 12  1  0
 12 13  2  3
 12 14  1  0
 14 15  2  0
 15 16  1  0
  2 17  1  0
 17 18  2  0
 18 19  1  0
 19 20  2  0
 20 21  1  0
 21 22  2  0
 22 23  1  0
 16  7  1  0
 22 17  1  0
 14  9  1  0
  1 24  1  0
  1 25  1  0
  1 26  1  0
  2 27  1  1
  3 28  1  0
  8 29  1  0
 10 30  1  0
 11 31  1  0
 13 32  1  0
 15 33  1  0
 16 34  1  0
 18 35  1  0
 19 36  1  0
 20 37  1  0
M  END
>  <smiles>  (68) 
CC(NC(=O)N=c1cc2[nH][nH]c(=N)c2c[nH]1)c1cccnc1Cl

>  <score_type>  (68) 
oracle

>  <origin>  (68) 
adg

>  <m_score__min__energy>  (68) 
-8.3100000000000005

>  <m_primary>  (68) 
energy

$$$$
68:0
     RDKit          3D

 35 36  0  0  0  0  0  0  0  0999 V2000
   55.5300   29.7410   44.0210 C   0  0  0  0  0  0  0  0  0  0  0  0
   56.7610   30.0060   43.1500 C   0  0  0  0  0  0  0  0  0  0  0  0
   57.7330   31.0270   43.7810 C   0  0  1  0  0  0  0  0  0  0  0  0
   57.8170   32.3250   42.9590 C   0  0  0  0  0  0  0  0  0  0  0  0
   57.3730   31.2590   45.2050 N   0  0  0  0  0  0  0  0  0  0  0  0
   58.1960   30.4910   46.1540 C   0  0  0  0  0  0  0  0  0  0  0  0
   57.0900   32.6590   45.6180 C   0  0  0  0  0  0  0  0  0  0  0  0
   58.3200   33.4870   45.9030 C   0  0  0  0  0  0  0  0  0  0  0  0
   58.5240   34.7590   45.3690 C   0  0  0  0  0  0  0  0  0  0  0  0
   60.0080   35.3190   45.9240 S   0  0  0  0  0  0  0  0  0  0  0  0
   60.3350   33.9250   46.8080 C   0  0  0  0  0  0  0  0  0  0  0  0
   61.5420   33.6860   47.6170 C   0  0  0  0  0  0  0  0  0  0  0  0
   62.7610   33.2580   47.0650 C   0  0  0  0  0  0  0  0  0  0  0  0
   63.7680   33.0910   48.0040 C   0  0  0  0  0  0  0  0  0  0  0  0
   63.1420   33.4740   49.5150 S   0  0  0  0  0  0  0  0  0  0  0  0
   61.5900   33.8560   48.9980 C   0  0  0  0  0  0  0  0  0  0  0  0
   59.3300   33.0290   46.6910 N   0  0  0  0  0  0  0  0  0  0  0  0
   55.8120   29.8017   45.0825 H   0  0  0  0  0  0  0  0  0  0  0  0
   54.7578   30.4935   43.8031 H   0  0  0  0  0  0  0  0  0  0  0  0
   55.1358   28.7374   43.8031 H   0  0  0  0  0  0  0  0  0  0  0  0
   57.2966   29.0569   43.0007 H   0  0  0  0  0  0  0  0  0  0  0  0
   56.4079   30.4298   42.1983 H   0  0  0  0  0  0  0  0  0  0  0  0
   58.7490   30.6059   43.7625 H   0  0  0  0  0  0  0  0  0  0  0  0
   57.8728   33.1872   43.6398 H   0  0  0  0  0  0  0  0  0  0  0  0
   58.7154   32.2999   42.3248 H   0  0  0  0  0  0  0  0  0  0  0  0
   56.9229   32.4159   42.3248 H   0  0  0  0  0  0  0  0  0  0  0  0
   57.9122   30.7558   47.1832 H   0  0  0  0  0  0  0  0  0  0  0  0
   58.0326   29.4151   45.9939 H   0  0  0  0  0  0  0  0  0  0  0  0
   59.2581   30.7283   45.9939 H   0  0  0  0  0  0  0  0  0  0  0  0
   56.5256   33.1483   44.8105 H   0  0  0  0  0  0  0  0  0  0  0  0
   56.5265   32.5999   46.5609 H   0  0  0  0  0  0  0  0  0  0  0  0
   57.8357   35.2998   44.7028 H   0  0  0  0  0  0  0  0  0  0  0  0
   62.9033   33.0729   45.9901 H   0  0  0  0  0  0  0  0  0  0  0  0
   64.7975   32.7645   47.7955 H   0  0  0  0  0  0  0  0  0  0  0  0
   60.7576   34.1831   49.6383 H   0  0  0  0  0  0  0  0  0  0  0  0
  1  2  1  0
  2  3  1  0
  3  4  1  0
  3  5  1  0
  5  6  1  0
  5  7  1  0
  7  8  1  0
  8  9  2  0
  9 10  1  0
 10 11  1  0
 11 12  1  0
 12 13  1  0
 13 14  2  0
 14 15  1  0
 15 16  1  0
 11 17  2  0
 17  8  1  0
 16 12  2  0
  1 18  1  0
  1 19  1  0
  1 20  1  0
  2 21  1  0
  2 22  1  0
  3 23  1  1
  4 24  1  0
  4 25  1  0
  4 26  1  0
  6 27  1  0
  6 28  1  0
  6 29  1  0
  7 30  1  0
  7 31  1  0
  9 32  1  0
 13 33  1  0
 14 34  1  0
 16 35  1  0
M  END
>  <UniqueID>  (69) 
62

>  <SMILES>  (69) 
CC[C@@H](C)N(C)Cc1csc(-c2ccsc2)n1

>  <Energy>  (69) 
93.69264196187784

>  <Genealogy>  (69) 
CC[C@@H](C)N(C)Cc1csc(-c2ccsc2)n1 (chirality)
CC[C@@H](C)N(C)Cc1csc(-c2ccsc2)n1 (3D coordinates assigned)
CC[C@@H](C)N(C)Cc1csc(-c2ccsc2)n1 (optimized conformer: 93.69264196187784 kcal/mol)

>  <smiles>  (69) 
CCC(C)N(C)Cc1csc(-c2ccsc2)n1

>  <score_type>  (69) 
oracle

>  <origin>  (69) 
adg

>  <m_score__min__energy>  (69) 
-6.54

>  <m_primary>  (69) 
energy

$$$$
69:0
     RDKit          3D

 22 22  0  0  0  0  0  0  0  0999 V2000
   56.1070   27.2290   45.6230 O   0  0  0  0  0  0  0  0  0  0  0  0
   57.3370   27.3030   45.8970 C   0  0  0  0  0  0  0  0  0  0  0  0
   57.7840   26.8120   47.1220 C   0  0  0  0  0  0  0  0  0  0  0  0
   59.1370   26.8950   47.4240 C   0  0  0  0  0  0  0  0  0  0  0  0
   59.9950   27.4480   46.5310 N   0  0  0  0  0  0  0  0  0  0  0  0
   59.5570   27.9260   45.3340 C   0  0  0  0  0  0  0  0  0  0  0  0
   60.3920   28.4280   44.5330 O   0  0  0  0  0  0  0  0  0  0  0  0
   58.2220   27.8590   45.0060 N   0  0  0  0  0  0  0  0  0  0  0  0
   57.7400   28.3620   43.7020 C   0  0  0  0  0  0  0  0  0  0  0  0
   57.3010   29.8330   43.7900 C   0  0  0  0  0  0  0  0  0  0  0  0
   55.7800   30.0140   43.7270 C   0  0  0  0  0  0  0  0  0  0  0  0
   55.1540   29.4030   44.8240 O   0  0  0  0  0  0  0  0  0  0  0  0
   57.0774   26.3663   47.8376 H   0  0  0  0  0  0  0  0  0  0  0  0
   59.5118   26.5132   48.3851 H   0  0  0  0  0  0  0  0  0  0  0  0
   61.0110   27.5030   46.7720 H   0  0  0  0  0  0  0  0  0  0  0  0
   58.5510   28.2750   42.9639 H   0  0  0  0  0  0  0  0  0  0  0  0
   56.8694   27.7605   43.4017 H   0  0  0  0  0  0  0  0  0  0  0  0
   57.6636   30.2498   44.7412 H   0  0  0  0  0  0  0  0  0  0  0  0
   57.7286   30.3543   42.9209 H   0  0  0  0  0  0  0  0  0  0  0  0
   55.5453   31.0887   43.7318 H   0  0  0  0  0  0  0  0  0  0  0  0
   55.4093   29.5422   42.8051 H   0  0  0  0  0  0  0  0  0  0  0  0
   54.7810   28.5430   44.4950 H   0  0  0  0  0  0  0  0  0  0  0  0
  1  2  2  0
  2  3  1  0
  3  4  2  0
  4  5  1  0
  5  6  1  0
  6  7  2  0
  6  8  1  0
  8  9  1  0
  9 10  1  0
 10 11  1  0
 11 12  1  0
  8  2  1  0
  3 13  1  0
  4 14  1  0
  5 15  1  0
  9 16  1  0
  9 17  1  0
 10 18  1  0
 10 19  1  0
 11 20  1  0
 11 21  1  0
 12 22  1  0
M  END
>  <UniqueID>  (70) 
63

>  <SMILES>  (70) 
O=c1cc[nH]c(=O)n1CCCO

>  <Energy>  (70) 
20.422645977978036

>  <Genealogy>  (70) 
O=c1cc[nH]c(=O)n1CCCO (3D coordinates assigned)
O=c1cc[nH]c(=O)n1CCCO (optimized conformer: 20.422645977978036 kcal/mol)

>  <smiles>  (70) 
O=c1cc[nH]c(=O)n1CCCO

>  <score_type>  (70) 
oracle

>  <origin>  (70) 
adg

>  <m_score__min__energy>  (70) 
-4.8700000000000001

>  <m_primary>  (70) 
energy

$$$$
70:0
     RDKit          3D

 46 49  0  0  0  0  0  0  0  0999 V2000
   58.1490   27.5810   43.7790 C   0  0  0  0  0  0  0  0  0  0  0  0
   57.9610   29.0120   44.1860 C   0  0  0  0  0  0  0  0  0  0  0  0
   56.8780   29.7520   43.6910 C   0  0  0  0  0  0  0  0  0  0  0  0
   56.6810   31.0740   44.0990 C   0  0  0  0  0  0  0  0  0  0  0  0
   57.5630   31.6720   45.0120 C   0  0  0  0  0  0  0  0  0  0  0  0
   57.3290   33.0840   45.4800 C   0  0  0  0  0  0  0  0  0  0  0  0
   58.3650   34.0340   44.8710 C   0  0  0  0  0  0  0  0  0  0  0  0
   59.6560   33.9000   45.5450 N   0  0  0  0  0  0  0  0  0  0  0  0
   59.8110   34.2450   46.9310 C   0  0  0  0  0  0  0  0  0  0  0  0
   58.8640   34.8170   47.5380 O   0  0  0  0  0  0  0  0  0  0  0  0
   61.0690   33.9580   47.6590 C   0  0  0  0  0  0  0  0  0  0  0  0
   62.1800   33.3640   46.9960 C   0  0  0  0  0  0  0  0  0  0  0  0
   63.3720   33.0870   47.6900 C   0  0  0  0  0  0  0  0  0  0  0  0
   63.4170   33.4070   49.0430 C   0  0  0  0  0  0  0  0  0  0  0  0
   62.3580   33.9710   49.6960 C   0  0  0  0  0  0  0  0  0  0  0  0
   61.1640   34.2570   49.0410 C   0  0  0  0  0  0  0  0  0  0  0  0
   62.6570   34.1900   50.9950 N   0  0  0  0  0  0  0  0  0  0  0  0
   63.9370   33.7420   51.0750 C   0  0  0  0  0  0  0  0  0  0  0  0
   64.4140   33.2440   49.9200 N   0  0  0  0  0  0  0  0  0  0  0  0
   65.7720   32.7450   49.7430 C   0  0  0  0  0  0  0  0  0  0  0  0
   66.4100   32.5270   51.1290 C   0  0  0  0  0  0  0  0  0  0  0  0
   66.1500   33.6310   51.9880 O   0  0  0  0  0  0  0  0  0  0  0  0
   64.7690   33.7030   52.3180 C   0  0  0  0  0  0  0  0  0  0  0  0
   58.6280   30.9220   45.5320 C   0  0  0  0  0  0  0  0  0  0  0  0
   58.8250   29.6000   45.1230 C   0  0  0  0  0  0  0  0  0  0  0  0
   58.2316   26.9520   44.6776 H   0  0  0  0  0  0  0  0  0  0  0  0
   57.2861   27.2536   43.1804 H   0  0  0  0  0  0  0  0  0  0  0  0
   59.0671   27.4876   43.1804 H   0  0  0  0  0  0  0  0  0  0  0  0
   56.1797   29.2896   42.9778 H   0  0  0  0  0  0  0  0  0  0  0  0
   55.8307   31.6484   43.7027 H   0  0  0  0  0  0  0  0  0  0  0  0
   56.3219   33.4037   45.1742 H   0  0  0  0  0  0  0  0  0  0  0  0
   57.4222   33.1139   46.5756 H   0  0  0  0  0  0  0  0  0  0  0  0
   58.4892   33.7955   43.8044 H   0  0  0  0  0  0  0  0  0  0  0  0
   58.0096   35.0676   44.9948 H   0  0  0  0  0  0  0  0  0  0  0  0
   60.4900   33.5920   44.9970 H   0  0  0  0  0  0  0  0  0  0  0  0
   62.1054   33.1182   45.9264 H   0  0  0  0  0  0  0  0  0  0  0  0
   64.2361   32.6343   47.1817 H   0  0  0  0  0  0  0  0  0  0  0  0
   60.3164   34.7033   49.5816 H   0  0  0  0  0  0  0  0  0  0  0  0
   65.7463   31.7918   49.1946 H   0  0  0  0  0  0  0  0  0  0  0  0
   66.3647   33.4741   49.1711 H   0  0  0  0  0  0  0  0  0  0  0  0
   65.9911   31.6146   51.5786 H   0  0  0  0  0  0  0  0  0  0  0  0
   67.4984   32.4291   51.0029 H   0  0  0  0  0  0  0  0  0  0  0  0
   64.4918   32.8197   52.9121 H   0  0  0  0  0  0  0  0  0  0  0  0
   64.5880   34.6203   52.8974 H   0  0  0  0  0  0  0  0  0  0  0  0
   59.3112   31.3761   46.2649 H   0  0  0  0  0  0  0  0  0  0  0  0
   59.6611   29.0176   45.5374 H   0  0  0  0  0  0  0  0  0  0  0  0
  1  2  1  0
  2  3  2  0
  3  4  1  0
  4  5  2  0
  5  6  1  0
  6  7  1  0
  7  8  1  0
  8  9  1  0
  9 10  2  0
  9 11  1  0
 11 12  2  0
 12 13  1  0
 13 14  2  0
 14 15  1  0
 15 16  2  0
 15 17  1  0
 17 18  2  0
 18 19  1  0
 19 20  1  0
 20 21  1  0
 21 22  1  0
 22 23  1  0
  5 24  1  0
 24 25  2  0
 25  2  1  0
 16 11  1  0
 23 18  1  0
 19 14  1  0
  1 26  1  0
  1 27  1  0
  1 28  1  0
  3 29  1  0
  4 30  1  0
  6 31  1  0
  6 32  1  0
  7 33  1  0
  7 34  1  0
  8 35  1  0
 12 36  1  0
 13 37  1  0
 16 38  1  0
 20 39  1  0
 20 40  1  0
 21 41  1  0
 21 42  1  0
 23 43  1  0
 23 44  1  0
 24 45  1  0
 25 46  1  0
M  END
>  <UniqueID>  (71) 
64

>  <SMILES>  (71) 
Cc1ccc(CCNC(=O)c2ccc3c(c2)nc2n3CCOC2)cc1

>  <Energy>  (71) 
89.42442029229737

>  <Genealogy>  (71) 
Cc1ccc(CCNC(=O)c2ccc3c(c2)nc2n3CCOC2)cc1 (3D coordinates assigned)
Cc1ccc(CCNC(=O)c2ccc3c(c2)nc2n3CCOC2)cc1 (nonaromatic ring conformer: 89.42442029229737 kcal/mol)

>  <smiles>  (71) 
Cc1ccc(CCNC(=O)c2ccc3c(c2)nc2n3CCOC2)cc1

>  <score_type>  (71) 
oracle

>  <origin>  (71) 
adg

>  <m_score__min__energy>  (71) 
-8.8800000000000008

>  <m_primary>  (71) 
energy

$$$$
71:0
     RDKit          3D

 29 30  0  0  0  0  0  0  0  0999 V2000
   55.7760   29.1360   45.2310 O   0  0  0  0  0  0  0  0  0  0  0  0
   56.6780   29.8270   44.6870 C   0  0  0  0  0  0  0  0  0  0  0  0
   56.4510   31.2280   44.4900 N   0  0  0  0  0  0  0  0  0  0  0  0
   57.4380   32.1600   43.9560 C   0  0  0  0  0  0  0  0  0  0  0  0
   58.0170   33.0080   45.0570 C   0  0  0  0  0  0  0  0  0  0  0  0
   58.8210   34.1150   44.7520 C   0  0  0  0  0  0  0  0  0  0  0  0
   59.3400   34.9060   45.7790 C   0  0  0  0  0  0  0  0  0  0  0  0
   59.0510   34.5810   47.1050 C   0  0  0  0  0  0  0  0  0  0  0  0
   58.2730   33.5020   47.3870 N   0  0  0  0  0  0  0  0  0  0  0  0
   57.7560   32.7160   46.4060 C   0  0  0  0  0  0  0  0  0  0  0  0
   57.8940   29.2040   44.2440 N   0  0  0  0  0  0  0  0  0  0  0  0
   58.4270   27.9970   44.8130 C   0  0  0  0  0  0  0  0  0  0  0  0
   57.7690   26.7610   44.6620 C   0  0  0  0  0  0  0  0  0  0  0  0
   58.2950   25.6060   45.2500 C   0  0  0  0  0  0  0  0  0  0  0  0
   59.4710   25.6740   46.0010 C   0  0  0  0  0  0  0  0  0  0  0  0
   60.1200   26.8990   46.1730 C   0  0  0  0  0  0  0  0  0  0  0  0
   59.5970   28.0570   45.5870 C   0  0  0  0  0  0  0  0  0  0  0  0
   58.2473   31.5922   43.4736 H   0  0  0  0  0  0  0  0  0  0  0  0
   56.9453   32.8172   43.2244 H   0  0  0  0  0  0  0  0  0  0  0  0
   59.0432   34.3607   43.7031 H   0  0  0  0  0  0  0  0  0  0  0  0
   59.9704   35.7766   45.5452 H   0  0  0  0  0  0  0  0  0  0  0  0
   59.4527   35.1979   47.9224 H   0  0  0  0  0  0  0  0  0  0  0  0
   57.1318   31.8493   46.6691 H   0  0  0  0  0  0  0  0  0  0  0  0
   58.3820   29.6130   43.4170 H   0  0  0  0  0  0  0  0  0  0  0  0
   56.8377   26.7037   44.0793 H   0  0  0  0  0  0  0  0  0  0  0  0
   57.7815   24.6419   45.1208 H   0  0  0  0  0  0  0  0  0  0  0  0
   59.8859   24.7630   46.4569 H   0  0  0  0  0  0  0  0  0  0  0  0
   61.0427   26.9533   46.7694 H   0  0  0  0  0  0  0  0  0  0  0  0
   60.1060   29.0211   45.7337 H   0  0  0  0  0  0  0  0  0  0  0  0
  1  2  2  0
  2  3  1  0
  3  4  1  0
  4  5  1  0
  5  6  2  0
  6  7  1  0
  7  8  2  0
  8  9  1  0
  9 10  2  0
  2 11  1  0
 11 12  1  0
 12 13  2  0
 13 14  1  0
 14 15  2  0
 15 16  1  0
 16 17  2  0
 10  5  1  0
 17 12  1  0
  4 18  1  0
  4 19  1  0
  6 20  1  0
  7 21  1  0
  8 22  1  0
 10 23  1  0
 11 24  1  0
 13 25  1  0
 14 26  1  0
 15 27  1  0
 16 28  1  0
 17 29  1  0
M  CHG  1   3  -1
M  END
>  <UniqueID>  (72) 
65

>  <SMILES>  (72) 
O=C([N-]Cc1cccnc1)Nc1ccccc1

>  <Energy>  (72) 
31.395286936638612

>  <Genealogy>  (72) 
O=C([N-]Cc1cccnc1)Nc1ccccc1 (protonated)
O=C([N-]Cc1cccnc1)Nc1ccccc1 (3D coordinates assigned)
O=C([N-]Cc1cccnc1)Nc1ccccc1 (optimized conformer: 31.395286936638612 kcal/mol)

>  <smiles>  (72) 
O=C(NCc1cccnc1)Nc1ccccc1

>  <score_type>  (72) 
oracle

>  <origin>  (72) 
adg

>  <m_score__min__energy>  (72) 
-8.2300000000000004

>  <m_primary>  (72) 
energy

$$$$
72:0
     RDKit          3D

 46 48  0  0  1  0  0  0  0  0999 V2000
   54.8470   24.1560   46.7260 O   0  0  0  0  0  0  0  0  0  0  0  0
   56.0590   24.6230   46.2300 N   0  0  0  0  0  0  0  0  0  0  0  0
   56.2000   25.8460   45.8450 C   0  0  0  0  0  0  0  0  0  0  0  0
   55.0960   26.6800   46.0220 O   0  0  0  0  0  0  0  0  0  0  0  0
   57.4230   26.3720   45.2530 C   0  0  0  0  0  0  0  0  0  0  0  0
   58.5510   26.3420   45.9350 C   0  0  0  0  0  0  0  0  0  0  0  0
   59.2830   27.5130   46.3710 C   0  0  0  0  0  0  0  0  0  0  0  0
   59.8800   28.3370   45.4320 C   0  0  0  0  0  0  0  0  0  0  0  0
   60.5890   29.4660   45.7720 C   0  0  0  0  0  0  0  0  0  0  0  0
   60.7190   29.8040   47.1090 C   0  0  0  0  0  0  0  0  0  0  0  0
   61.4970   31.0320   47.4090 C   0  0  0  0  0  0  0  0  0  0  0  0
   60.8950   32.1760   46.7600 N   0  0  0  0  0  0  0  0  0  0  0  0
   59.7970   32.7280   47.4850 C   0  0  0  0  0  0  0  0  0  0  0  0
   58.4500   32.1870   47.1510 C   0  0  0  0  0  0  0  0  0  0  0  0
   58.2010   32.2640   45.7070 N   0  0  0  0  0  0  0  0  0  0  0  0
   58.5340   33.3560   44.9990 C   0  0  0  0  0  0  0  0  0  0  0  0
   58.1630   33.0880   43.6950 C   0  0  0  0  0  0  0  0  0  0  0  0
   57.6000   31.8120   43.6260 C   0  0  0  0  0  0  0  0  0  0  0  0
   57.0850   31.0910   42.5810 C   0  0  0  0  0  0  0  0  0  0  0  0
   56.5840   29.8260   42.8150 C   0  0  0  0  0  0  0  0  0  0  0  0
   56.6350   29.3570   44.1120 C   0  0  0  0  0  0  0  0  0  0  0  0
   57.1500   30.0740   45.1650 C   0  0  0  0  0  0  0  0  0  0  0  0
   57.6470   31.3360   44.9220 C   0  0  0  0  0  0  0  0  0  0  0  0
   60.1420   29.0130   48.0780 C   0  0  0  0  0  0  0  0  0  0  0  0
   59.4290   27.8730   47.6880 C   0  0  0  0  0  0  0  0  0  0  0  0
   54.0980   24.8280   46.7500 H   0  0  0  0  0  0  0  0  0  0  0  0
   54.2050   26.3330   46.3800 H   0  0  0  0  0  0  0  0  0  0  0  0
   57.4053   26.7940   44.2373 H   0  0  0  0  0  0  0  0  0  0  0  0
   58.9661   25.3561   46.1914 H   0  0  0  0  0  0  0  0  0  0  0  0
   59.7832   28.0776   44.3674 H   0  0  0  0  0  0  0  0  0  0  0  0
   61.0468   30.0922   44.9921 H   0  0  0  0  0  0  0  0  0  0  0  0
   61.5107   31.1968   48.4965 H   0  0  0  0  0  0  0  0  0  0  0  0
   62.5239   30.9065   47.0351 H   0  0  0  0  0  0  0  0  0  0  0  0
   60.7330   32.0240   45.7470 H   0  0  0  0  0  0  0  0  0  0  0  0
   59.9759   32.5460   48.5550 H   0  0  0  0  0  0  0  0  0  0  0  0
   59.7647   33.7915   47.2058 H   0  0  0  0  0  0  0  0  0  0  0  0
   58.3939   31.1361   47.4711 H   0  0  0  0  0  0  0  0  0  0  0  0
   57.6898   32.7872   47.6724 H   0  0  0  0  0  0  0  0  0  0  0  0
   59.0051   34.2745   45.3790 H   0  0  0  0  0  0  0  0  0  0  0  0
   58.2912   33.7731   42.8440 H   0  0  0  0  0  0  0  0  0  0  0  0
   57.0708   31.5155   41.5663 H   0  0  0  0  0  0  0  0  0  0  0  0
   56.1618   29.2174   42.0018 H   0  0  0  0  0  0  0  0  0  0  0  0
   56.2403   28.3504   44.3146 H   0  0  0  0  0  0  0  0  0  0  0  0
   57.1652   29.6498   46.1798 H   0  0  0  0  0  0  0  0  0  0  0  0
   60.2400   29.2732   49.1423 H   0  0  0  0  0  0  0  0  0  0  0  0
   58.9695   27.2434   48.4641 H   0  0  0  0  0  0  0  0  0  0  0  0
  1  2  1  0
  2  3  2  0
  3  4  1  0
  3  5  1  0
  5  6  2  0
  6  7  1  0
  7  8  2  0
  8  9  1  0
  9 10  2  0
 10 11  1  0
 11 12  1  0
 12 13  1  0
 13 14  1  0
 14 15  1  0
 15 16  1  0
 16 17  2  0
 17 18  1  0
 18 19  2  0
 19 20  1  0
 20 21  2  0
 21 22  1  0
 22 23  2  0
 10 24  1  0
 24 25  2  0
 25  7  1  0
 23 15  1  0
 23 18  1  0
  1 26  1  0
  4 27  1  0
  5 28  1  0
  6 29  1  0
  8 30  1  0
  9 31  1  0
 11 32  1  0
 11 33  1  0
 12 34  1  0
 13 35  1  0
 13 36  1  0
 14 37  1  0
 14 38  1  0
 16 39  1  0
 17 40  1  0
 19 41  1  0
 20 42  1  0
 21 43  1  0
 22 44  1  0
 24 45  1  0
 25 46  1  0
M  END
>  <smiles>  (73) 
ON=C(O)C=Cc1ccc(CNCCn2ccc3ccccc32)cc1

>  <score_type>  (73) 
oracle

>  <origin>  (73) 
adg

>  <m_score__min__energy>  (73) 
-9.6899999999999995

>  <m_primary>  (73) 
energy

$$$$
73:0
     RDKit          3D

 46 48  0  0  0  0  0  0  0  0999 V2000
   55.1500   28.9610   44.9580 O   0  0  0  0  0  0  0  0  0  0  0  0
   56.4800   29.3130   44.7610 C   0  0  0  0  0  0  0  0  0  0  0  0
   56.7770   30.5350   44.1460 C   0  0  0  0  0  0  0  0  0  0  0  0
   58.1060   30.9110   43.9330 C   0  0  0  0  0  0  0  0  0  0  0  0
   59.1430   30.0660   44.3310 C   0  0  0  0  0  0  0  0  0  0  0  0
   58.8550   28.8430   44.9450 C   0  0  0  0  0  0  0  0  0  0  0  0
   57.5220   28.4580   45.1740 C   0  0  0  0  0  0  0  0  0  0  0  0
   57.2320   27.1180   45.8070 C   0  0  0  0  0  0  0  0  0  0  0  0
   58.0470   26.9170   47.0910 C   0  0  0  0  0  0  0  0  0  0  0  0
   59.3690   26.3480   46.7870 N   0  0  0  0  0  0  0  0  0  0  0  0
   60.3910   26.8270   47.7290 C   0  0  0  0  0  0  0  0  0  0  0  0
   60.1020   28.2550   48.1030 C   0  0  0  0  0  0  0  0  0  0  0  0
   59.3560   28.5530   49.2530 C   0  0  0  0  0  0  0  0  0  0  0  0
   59.1360   29.8810   49.6280 C   0  0  0  0  0  0  0  0  0  0  0  0
   59.6740   30.9300   48.8680 C   0  0  0  0  0  0  0  0  0  0  0  0
   59.4460   32.3600   49.2840 C   0  0  0  0  0  0  0  0  0  0  0  0
   59.8560   33.2600   48.2540 O   0  0  0  0  0  0  0  0  0  0  0  0
   59.0820   33.6200   47.1390 C   0  0  0  0  0  0  0  0  0  0  0  0
   57.7890   33.1160   46.9110 C   0  0  0  0  0  0  0  0  0  0  0  0
   57.0760   33.5100   45.7760 C   0  0  0  0  0  0  0  0  0  0  0  0
   57.6590   34.4070   44.8800 C   0  0  0  0  0  0  0  0  0  0  0  0
   58.9060   34.8910   45.1180 N   0  0  0  0  0  0  0  0  0  0  0  0
   59.6190   34.5230   46.2150 C   0  0  0  0  0  0  0  0  0  0  0  0
   60.4090   30.6330   47.7090 C   0  0  0  0  0  0  0  0  0  0  0  0
   60.6290   29.3050   47.3340 C   0  0  0  0  0  0  0  0  0  0  0  0
   55.9614   31.2016   43.8293 H   0  0  0  0  0  0  0  0  0  0  0  0
   58.3348   31.8732   43.4515 H   0  0  0  0  0  0  0  0  0  0  0  0
   60.1886   30.3625   44.1614 H   0  0  0  0  0  0  0  0  0  0  0  0
   59.6762   28.1781   45.2507 H   0  0  0  0  0  0  0  0  0  0  0  0
   56.1608   27.0617   46.0506 H   0  0  0  0  0  0  0  0  0  0  0  0
   57.5120   26.3299   45.0925 H   0  0  0  0  0  0  0  0  0  0  0  0
   58.1786   27.8883   47.5903 H   0  0  0  0  0  0  0  0  0  0  0  0
   57.5053   26.2195   47.7468 H   0  0  0  0  0  0  0  0  0  0  0  0
   59.6440   26.6720   45.8300 H   0  0  0  0  0  0  0  0  0  0  0  0
   60.3770   26.2015   48.6337 H   0  0  0  0  0  0  0  0  0  0  0  0
   61.3819   26.7666   47.2552 H   0  0  0  0  0  0  0  0  0  0  0  0
   58.9419   27.7367   49.8630 H   0  0  0  0  0  0  0  0  0  0  0  0
   58.5379   30.1049   50.5237 H   0  0  0  0  0  0  0  0  0  0  0  0
   58.3756   32.5097   49.4884 H   0  0  0  0  0  0  0  0  0  0  0  0
   60.0407   32.5633   50.1868 H   0  0  0  0  0  0  0  0  0  0  0  0
   57.3391   32.4117   47.6262 H   0  0  0  0  0  0  0  0  0  0  0  0
   56.0654   33.1172   45.5905 H   0  0  0  0  0  0  0  0  0  0  0  0
   57.1090   34.7222   43.9811 H   0  0  0  0  0  0  0  0  0  0  0  0
   60.6248   34.9378   46.3775 H   0  0  0  0  0  0  0  0  0  0  0  0
   60.8136   31.4498   47.0932 H   0  0  0  0  0  0  0  0  0  0  0  0
   61.2178   29.0811   46.4322 H   0  0  0  0  0  0  0  0  0  0  0  0
  1  2  1  0
  2  3  2  0
  3  4  1  0
  4  5  2  0
  5  6  1  0
  6  7  2  0
  7  8  1  0
  8  9  1  0
  9 10  1  0
 10 11  1  0
 11 12  1  0
 12 13  2  0
 13 14  1  0
 14 15  2  0
 15 16  1  0
 16 17  1  0
 17 18  1  0
 18 19  2  0
 19 20  1  0
 20 21  2  0
 21 22  1  0
 22 23  2  0
 15 24  1  0
 24 25  2  0
  7  2  1  0
 25 12  1  0
 23 18  1  0
  3 26  1  0
  4 27  1  0
  5 28  1  0
  6 29  1  0
  8 30  1  0
  8 31  1  0
  9 32  1  0
  9 33  1  0
 10 34  1  0
 11 35  1  0
 11 36  1  0
 13 37  1  0
 14 38  1  0
 16 39  1  0
 16 40  1  0
 19 41  1  0
 20 42  1  0
 21 43  1  0
 23 44  1  0
 24 45  1  0
 25 46  1  0
M  CHG  1   1  -1
M  END
>  <UniqueID>  (74) 
66

>  <SMILES>  (74) 
[O-]c1ccccc1CCNCc1ccc(COc2cccnc2)cc1

>  <Energy>  (74) 
45.81278044211767

>  <Genealogy>  (74) 
[O-]c1ccccc1CCNCc1ccc(COc2cccnc2)cc1 (protonated)
[O-]c1ccccc1CCNCc1ccc(COc2cccnc2)cc1 (3D coordinates assigned)
[O-]c1ccccc1CCNCc1ccc(COc2cccnc2)cc1 (optimized conformer: 45.81278044211767 kcal/mol)

>  <smiles>  (74) 
Oc1ccccc1CCNCc1ccc(COc2cccnc2)cc1

>  <score_type>  (74) 
oracle

>  <origin>  (74) 
adg

>  <m_score__min__energy>  (74) 
-12.390000000000001

>  <m_primary>  (74) 
energy

$$$$
74:0
     RDKit          3D

 48 51  0  0  0  0  0  0  0  0999 V2000
   58.7930   23.5120   45.6100 C   0  0  0  0  0  0  0  0  0  0  0  0
   58.5750   24.7280   46.3190 O   0  0  0  0  0  0  0  0  0  0  0  0
   58.1140   25.9150   45.7340 C   0  0  0  0  0  0  0  0  0  0  0  0
   56.8420   26.4510   46.0130 C   0  0  0  0  0  0  0  0  0  0  0  0
   56.4400   27.6520   45.4220 C   0  0  0  0  0  0  0  0  0  0  0  0
   57.2960   28.3280   44.5450 C   0  0  0  0  0  0  0  0  0  0  0  0
   56.8030   29.8720   43.8580 S   0  0  0  0  0  0  0  0  0  0  0  0
   55.6740   30.4780   44.6500 O   0  0  0  0  0  0  0  0  0  0  0  0
   56.3290   29.6460   42.4510 O   0  0  0  0  0  0  0  0  0  0  0  0
   58.1430   30.9770   43.8380 N   0  0  0  0  0  0  0  0  0  0  0  0
   58.2160   32.1510   44.6710 C   0  0  0  0  0  0  0  0  0  0  0  0
   58.0290   33.4300   44.1120 C   0  0  0  0  0  0  0  0  0  0  0  0
   58.2050   34.5780   44.8790 C   0  0  0  0  0  0  0  0  0  0  0  0
   58.5840   34.4760   46.2130 C   0  0  0  0  0  0  0  0  0  0  0  0
   58.7450   33.2170   46.8100 C   0  0  0  0  0  0  0  0  0  0  0  0
   58.5320   32.0390   46.0530 C   0  0  0  0  0  0  0  0  0  0  0  0
   58.6070   30.7330   46.6760 N   0  0  0  0  0  0  0  0  0  0  0  0
   57.4690   29.9480   46.5730 O   0  0  0  0  0  0  0  0  0  0  0  0
   59.6920   30.2890   47.2880 C   0  0  0  0  0  0  0  0  0  0  0  0
   59.7880   28.8570   47.7550 C   0  0  0  0  0  0  0  0  0  0  0  0
   60.7950   31.2090   47.6660 C   0  0  0  0  0  0  0  0  0  0  0  0
   62.1490   30.9110   47.6780 C   0  0  0  0  0  0  0  0  0  0  0  0
   62.7900   32.0380   48.1530 C   0  0  0  0  0  0  0  0  0  0  0  0
   61.8050   32.9700   48.4180 C   0  0  0  0  0  0  0  0  0  0  0  0
   62.0970   34.5910   49.0220 Cl  0  0  0  0  0  0  0  0  0  0  0  0
   60.5920   32.4580   48.1310 N   0  0  0  0  0  0  0  0  0  0  0  0
   59.2930   33.1230   48.2020 C   0  0  0  0  0  0  0  0  0  0  0  0
   58.5560   27.7900   44.2550 C   0  0  0  0  0  0  0  0  0  0  0  0
   58.9580   26.5890   44.8440 C   0  0  0  0  0  0  0  0  0  0  0  0
   58.9402   22.6909   46.3270 H   0  0  0  0  0  0  0  0  0  0  0  0
   57.9195   23.2945   44.9777 H   0  0  0  0  0  0  0  0  0  0  0  0
   59.6876   23.6115   44.9777 H   0  0  0  0  0  0  0  0  0  0  0  0
   56.1627   25.9228   46.6982 H   0  0  0  0  0  0  0  0  0  0  0  0
   55.4467   28.0677   45.6470 H   0  0  0  0  0  0  0  0  0  0  0  0
   58.8130   30.8410   43.0510 H   0  0  0  0  0  0  0  0  0  0  0  0
   57.7399   33.5230   43.0548 H   0  0  0  0  0  0  0  0  0  0  0  0
   58.0439   35.5686   44.4287 H   0  0  0  0  0  0  0  0  0  0  0  0
   58.7585   35.3876   46.8033 H   0  0  0  0  0  0  0  0  0  0  0  0
   56.6330   30.2310   46.0800 H   0  0  0  0  0  0  0  0  0  0  0  0
   59.7899   28.8293   48.8547 H   0  0  0  0  0  0  0  0  0  0  0  0
   58.9259   28.2889   47.3754 H   0  0  0  0  0  0  0  0  0  0  0  0
   60.7182   28.4091   47.3754 H   0  0  0  0  0  0  0  0  0  0  0  0
   62.6190   29.9652   47.3704 H   0  0  0  0  0  0  0  0  0  0  0  0
   63.8732   32.1684   48.2931 H   0  0  0  0  0  0  0  0  0  0  0  0
   58.6083   32.5386   48.8342 H   0  0  0  0  0  0  0  0  0  0  0  0
   59.4005   34.1266   48.6393 H   0  0  0  0  0  0  0  0  0  0  0  0
   59.2304   28.3143   43.5620 H   0  0  0  0  0  0  0  0  0  0  0  0
   59.9466   26.1692   44.6063 H   0  0  0  0  0  0  0  0  0  0  0  0
  1  2  1  0
  2  3  1  0
  3  4  2  0
  4  5  1  0
  5  6  2  0
  6  7  1  0
  7  8  2  0
  7  9  2  0
  7 10  1  0
 10 11  1  0
 11 12  2  0
 12 13  1  0
 13 14  2  0
 14 15  1  0
 15 16  2  0
 16 17  1  0
 17 18  1  0
 17 19  2  0
 19 20  1  0
 19 21  1  0
 21 22  2  0
 22 23  1  0
 23 24  2  0
 24 25  1  0
 24 26  1  0
 26 27  1  0
  6 28  1  0
 28 29  2  0
 29  3  1  0
 16 11  1  0
 26 21  1  0
 27 15  1  0
  1 30  1  0
  1 31  1  0
  1 32  1  0
  4 33  1  0
  5 34  1  0
 10 35  1  0
 12 36  1  0
 13 37  1  0
 14 38  1  0
 18 39  1  0
 20 40  1  0
 20 41  1  0
 20 42  1  0
 22 43  1  0
 23 44  1  0
 27 45  1  0
 27 46  1  0
 28 47  1  0
 29 48  1  0
M  CHG  1  17   1
M  END
>  <UniqueID>  (75) 
67

>  <SMILES>  (75) 
COc1ccc(S(=O)(=O)Nc2cccc3c2[N+](O)=C(C)c2ccc(Cl)n2C3)cc1

>  <Energy>  (75) 
102.44912123813458

>  <Genealogy>  (75) 
COc1ccc(S(=O)(=O)Nc2cccc3c2[N+](O)=C(C)c2ccc(Cl)n2C3)cc1 (protonated)
COc1ccc(S(=O)(=O)Nc2cccc3c2[N+](O)=C(C)c2ccc(Cl)n2C3)cc1 (3D coordinates assigned)
COc1ccc(S(=O)(=O)Nc2cccc3c2[N+](O)=C(C)c2ccc(Cl)n2C3)cc1 (nonaromatic ring conformer: 102.44912123813458 kcal/mol)

>  <smiles>  (75) 
COc1ccc(S(=O)(=O)Nc2cccc3c2[N+]([O-])=C(C)c2ccc(Cl)n2C3)cc1

>  <score_type>  (75) 
oracle

>  <origin>  (75) 
adg

>  <m_score__min__energy>  (75) 
-7.4500000000000002

>  <m_primary>  (75) 
energy

$$$$
75:0
     RDKit          3D

 35 36  0  0  0  0  0  0  0  0999 V2000
   57.6810   32.4920   40.9090 C   0  0  0  0  0  0  0  0  0  0  0  0
   57.0350   31.5320   41.9030 C   0  0  0  0  0  0  0  0  0  0  0  0
   57.5200   31.7830   43.2660 N   0  0  0  0  0  0  0  0  0  0  0  0
   58.2260   33.0450   43.5560 C   0  0  0  0  0  0  0  0  0  0  0  0
   58.3760   33.2730   45.0410 C   0  0  0  0  0  0  0  0  0  0  0  0
   57.2460   33.2810   45.8760 C   0  0  0  0  0  0  0  0  0  0  0  0
   57.3900   33.4620   47.2550 C   0  0  0  0  0  0  0  0  0  0  0  0
   58.6590   33.6390   47.8110 C   0  0  0  0  0  0  0  0  0  0  0  0
   59.7880   33.6390   46.9870 C   0  0  0  0  0  0  0  0  0  0  0  0
   59.6500   33.4610   45.6080 C   0  0  0  0  0  0  0  0  0  0  0  0
   57.2540   30.8090   44.3000 C   0  0  0  0  0  0  0  0  0  0  0  0
   56.1230   30.7850   44.8570 O   0  0  0  0  0  0  0  0  0  0  0  0
   58.2830   29.8430   44.7370 C   0  0  0  0  0  0  0  0  0  0  0  0
   58.2760   28.5230   44.2560 C   0  0  0  0  0  0  0  0  0  0  0  0
   59.2660   27.6210   44.6610 C   0  0  0  0  0  0  0  0  0  0  0  0
   60.2600   28.0280   45.5550 C   0  0  0  0  0  0  0  0  0  0  0  0
   60.2630   29.3340   46.0520 C   0  0  0  0  0  0  0  0  0  0  0  0
   59.2740   30.2370   45.6520 C   0  0  0  0  0  0  0  0  0  0  0  0
   58.2136   33.2834   41.4568 H   0  0  0  0  0  0  0  0  0  0  0  0
   58.3928   31.9410   40.2767 H   0  0  0  0  0  0  0  0  0  0  0  0
   56.9025   32.9438   40.2767 H   0  0  0  0  0  0  0  0  0  0  0  0
   55.9438   31.6687   41.8783 H   0  0  0  0  0  0  0  0  0  0  0  0
   57.3002   30.5026   41.6200 H   0  0  0  0  0  0  0  0  0  0  0  0
   59.2256   33.0074   43.0984 H   0  0  0  0  0  0  0  0  0  0  0  0
   57.6328   33.8729   43.1404 H   0  0  0  0  0  0  0  0  0  0  0  0
   56.2440   33.1443   45.4431 H   0  0  0  0  0  0  0  0  0  0  0  0
   56.5016   33.4650   47.9036 H   0  0  0  0  0  0  0  0  0  0  0  0
   58.7698   33.7783   48.8965 H   0  0  0  0  0  0  0  0  0  0  0  0
   60.7872   33.7794   47.4250 H   0  0  0  0  0  0  0  0  0  0  0  0
   60.5410   33.4679   44.9630 H   0  0  0  0  0  0  0  0  0  0  0  0
   57.4898   28.1976   43.5589 H   0  0  0  0  0  0  0  0  0  0  0  0
   59.2619   26.5908   44.2754 H   0  0  0  0  0  0  0  0  0  0  0  0
   61.0410   27.3194   45.8679 H   0  0  0  0  0  0  0  0  0  0  0  0
   61.0441   29.6516   46.7584 H   0  0  0  0  0  0  0  0  0  0  0  0
   59.2714   31.2604   46.0552 H   0  0  0  0  0  0  0  0  0  0  0  0
  1  2  1  0
  2  3  1  0
  3  4  1  0
  4  5  1  0
  5  6  2  0
  6  7  1  0
  7  8  2  0
  8  9  1  0
  9 10  2  0
  3 11  1  0
 11 12  2  0
 11 13  1  0
 13 14  2  0
 14 15  1  0
 15 16  2  0
 16 17  1  0
 17 18  2  0
 10  5  1  0
 18 13  1  0
  1 19  1  0
  1 20  1  0
  1 21  1  0
  2 22  1  0
  2 23  1  0
  4 24  1  0
  4 25  1  0
  6 26  1  0
  7 27  1  0
  8 28  1  0
  9 29  1  0
 10 30  1  0
 14 31  1  0
 15 32  1  0
 16 33  1  0
 17 34  1  0
 18 35  1  0
M  END
>  <UniqueID>  (76) 
68

>  <SMILES>  (76) 
CCN(Cc1ccccc1)C(=O)c1ccccc1

>  <Energy>  (76) 
35.38417630399854

>  <Genealogy>  (76) 
CCN(Cc1ccccc1)C(=O)c1ccccc1 (3D coordinates assigned)
CCN(Cc1ccccc1)C(=O)c1ccccc1 (optimized conformer: 35.38417630399854 kcal/mol)

>  <smiles>  (76) 
CCN(Cc1ccccc1)C(=O)c1ccccc1

>  <score_type>  (76) 
oracle

>  <origin>  (76) 
adg

>  <m_score__min__energy>  (76) 
-7.1100000000000003

>  <m_primary>  (76) 
energy

$$$$
76:0
     RDKit          3D

 44 47  0  0  0  0  0  0  0  0999 V2000
   59.5350   28.4330   44.2490 O   0  0  0  0  0  0  0  0  0  0  0  0
   58.8540   28.4960   45.3090 C   0  0  0  0  0  0  0  0  0  0  0  0
   59.4410   29.1040   46.5260 C   0  0  0  0  0  0  0  0  0  0  0  0
   58.9920   28.7170   47.8020 C   0  0  0  0  0  0  0  0  0  0  0  0
   59.5510   29.2840   48.9520 C   0  0  0  0  0  0  0  0  0  0  0  0
   60.5670   30.2360   48.8400 C   0  0  0  0  0  0  0  0  0  0  0  0
   61.0280   30.6200   47.5780 C   0  0  0  0  0  0  0  0  0  0  0  0
   60.4710   30.0560   46.4260 C   0  0  0  0  0  0  0  0  0  0  0  0
   57.5130   27.9750   45.3120 N   0  0  0  0  0  0  0  0  0  0  0  0
   56.3950   28.8980   45.0780 C   0  0  0  0  0  0  0  0  0  0  0  0
   56.8650   30.1240   44.3550 C   0  0  0  0  0  0  0  0  0  0  0  0
   56.8850   30.3000   42.9770 C   0  0  0  0  0  0  0  0  0  0  0  0
   57.4070   31.5390   42.5880 C   0  0  0  0  0  0  0  0  0  0  0  0
   57.8060   32.3360   43.6540 C   0  0  0  0  0  0  0  0  0  0  0  0
   57.5110   31.4960   45.0800 S   0  0  0  0  0  0  0  0  0  0  0  0
   57.2690   26.6110   45.7210 C   0  0  0  0  0  0  0  0  0  0  0  0
   58.2230   25.6250   45.9130 C   0  0  0  0  0  0  0  0  0  0  0  0
   57.5260   24.5060   46.3240 C   0  0  0  0  0  0  0  0  0  0  0  0
   58.1130   23.2890   46.6470 O   0  0  0  0  0  0  0  0  0  0  0  0
   56.2010   24.7540   46.4020 N   0  0  0  0  0  0  0  0  0  0  0  0
   55.1690   23.8340   46.8030 C   0  0  0  0  0  0  0  0  0  0  0  0
   55.2580   23.1580   48.0330 C   0  0  0  0  0  0  0  0  0  0  0  0
   54.2550   22.2640   48.4210 C   0  0  0  0  0  0  0  0  0  0  0  0
   53.1560   22.0390   47.5900 C   0  0  0  0  0  0  0  0  0  0  0  0
   53.0580   22.7070   46.3670 C   0  0  0  0  0  0  0  0  0  0  0  0
   54.0590   23.6010   45.9740 C   0  0  0  0  0  0  0  0  0  0  0  0
   56.0430   26.0440   46.0390 C   0  0  0  0  0  0  0  0  0  0  0  0
   54.8140   26.6940   45.9940 O   0  0  0  0  0  0  0  0  0  0  0  0
   58.1961   27.9635   47.8958 H   0  0  0  0  0  0  0  0  0  0  0  0
   59.1901   28.9799   49.9456 H   0  0  0  0  0  0  0  0  0  0  0  0
   61.0041   30.6833   49.7449 H   0  0  0  0  0  0  0  0  0  0  0  0
   61.8305   31.3673   47.4906 H   0  0  0  0  0  0  0  0  0  0  0  0
   60.8409   30.3590   45.4354 H   0  0  0  0  0  0  0  0  0  0  0  0
   55.6294   28.3920   44.4715 H   0  0  0  0  0  0  0  0  0  0  0  0
   55.9743   29.1985   46.0489 H   0  0  0  0  0  0  0  0  0  0  0  0
   56.5270   29.5426   42.2642 H   0  0  0  0  0  0  0  0  0  0  0  0
   57.4933   31.8524   41.5371 H   0  0  0  0  0  0  0  0  0  0  0  0
   58.2404   33.3437   43.5779 H   0  0  0  0  0  0  0  0  0  0  0  0
   59.3097   25.7148   45.7682 H   0  0  0  0  0  0  0  0  0  0  0  0
   56.1205   23.3332   48.6929 H   0  0  0  0  0  0  0  0  0  0  0  0
   54.3322   21.7368   49.3833 H   0  0  0  0  0  0  0  0  0  0  0  0
   52.3678   21.3362   47.8980 H   0  0  0  0  0  0  0  0  0  0  0  0
   52.1922   22.5295   45.7121 H   0  0  0  0  0  0  0  0  0  0  0  0
   53.9768   24.1248   45.0102 H   0  0  0  0  0  0  0  0  0  0  0  0
  1  2  2  0
  2  3  1  0
  3  4  2  0
  4  5  1  0
  5  6  2  0
  6  7  1  0
  7  8  2  0
  2  9  1  0
  9 10  1  0
 10 11  1  0
 11 12  2  0
 12 13  1  0
 13 14  2  0
 14 15  1  0
  9 16  1  0
 16 17  1  0
 17 18  2  0
 18 19  1  0
 18 20  1  0
 20 21  1  0
 21 22  2  0
 22 23  1  0
 23 24  2  0
 24 25  1  0
 25 26  2  0
 20 27  1  0
 27 28  1  0
  8  3  1  0
 15 11  1  0
 27 16  2  0
 26 21  1  0
  4 29  1  0
  5 30  1  0
  6 31  1  0
  7 32  1  0
  8 33  1  0
 10 34  1  0
 10 35  1  0
 12 36  1  0
 13 37  1  0
 14 38  1  0
 17 39  1  0
 22 40  1  0
 23 41  1  0
 24 42  1  0
 25 43  1  0
 26 44  1  0
M  CHG  2  19  -1  28  -1
M  END
>  <UniqueID>  (77) 
69

>  <SMILES>  (77) 
O=C(c1ccccc1)N(Cc1cccs1)c1cc([O-])n(-c2ccccc2)c1[O-]

>  <Energy>  (77) 
115.54302528574743

>  <Genealogy>  (77) 
O=C(c1ccccc1)N(Cc1cccs1)c1cc([O-])n(-c2ccccc2)c1[O-] (protonated)
O=C(c1ccccc1)N(Cc1cccs1)c1cc([O-])n(-c2ccccc2)c1[O-] (3D coordinates assigned)
O=C(c1ccccc1)N(Cc1cccs1)c1cc([O-])n(-c2ccccc2)c1[O-] (optimized conformer: 115.54302528574743 kcal/mol)

>  <smiles>  (77) 
O=C(c1ccccc1)N(Cc1cccs1)c1cc(O)n(-c2ccccc2)c1O

>  <score_type>  (77) 
oracle

>  <origin>  (77) 
adg

>  <m_score__min__energy>  (77) 
-12.65

>  <m_primary>  (77) 
energy

$$$$
77:0
     RDKit          3D

 29 30  0  0  0  0  0  0  0  0999 V2000
   58.2420   34.2200   45.2040 C   0  0  0  0  0  0  0  0  0  0  0  0
   58.2010   32.7270   45.4060 C   0  0  0  0  0  0  0  0  0  0  0  0
   57.2880   31.9650   44.6560 C   0  0  0  0  0  0  0  0  0  0  0  0
   57.2300   30.5670   44.7850 C   0  0  0  0  0  0  0  0  0  0  0  0
   56.2590   29.7880   43.9780 C   0  0  0  0  0  0  0  0  0  0  0  0
   56.5500   29.3950   42.6330 N   0  0  0  0  0  0  0  0  0  0  0  0
   55.1450   29.4720   44.4760 O   0  0  0  0  0  0  0  0  0  0  0  0
   58.0890   29.9340   45.6980 C   0  0  0  0  0  0  0  0  0  0  0  0
   58.9850   30.6810   46.4620 C   0  0  0  0  0  0  0  0  0  0  0  0
   59.0440   32.0770   46.3390 C   0  0  0  0  0  0  0  0  0  0  0  0
   59.9940   32.8250   47.1960 C   0  0  0  0  0  0  0  0  0  0  0  0
   59.5370   33.5160   48.3310 C   0  0  0  0  0  0  0  0  0  0  0  0
   60.4410   34.2100   49.1430 C   0  0  0  0  0  0  0  0  0  0  0  0
   61.8040   34.2120   48.8310 C   0  0  0  0  0  0  0  0  0  0  0  0
   62.6780   34.8840   49.6200 F   0  0  0  0  0  0  0  0  0  0  0  0
   62.2660   33.5150   47.7110 C   0  0  0  0  0  0  0  0  0  0  0  0
   61.3660   32.8210   46.8980 C   0  0  0  0  0  0  0  0  0  0  0  0
   58.2558   34.7222   46.1826 H   0  0  0  0  0  0  0  0  0  0  0  0
   59.1479   34.4891   44.6410 H   0  0  0  0  0  0  0  0  0  0  0  0
   57.3523   34.5384   44.6410 H   0  0  0  0  0  0  0  0  0  0  0  0
   56.6074   32.4720   43.9562 H   0  0  0  0  0  0  0  0  0  0  0  0
   55.8740   28.7970   42.1090 H   0  0  0  0  0  0  0  0  0  0  0  0
   57.3820   29.7610   42.1210 H   0  0  0  0  0  0  0  0  0  0  0  0
   58.0548   28.8404   45.8114 H   0  0  0  0  0  0  0  0  0  0  0  0
   59.6537   30.1692   47.1698 H   0  0  0  0  0  0  0  0  0  0  0  0
   58.4660   33.5114   48.5818 H   0  0  0  0  0  0  0  0  0  0  0  0
   60.0790   34.7545   50.0276 H   0  0  0  0  0  0  0  0  0  0  0  0
   63.3391   33.5128   47.4693 H   0  0  0  0  0  0  0  0  0  0  0  0
   61.7341   32.2691   46.0206 H   0  0  0  0  0  0  0  0  0  0  0  0
  1  2  1  0
  2  3  2  0
  3  4  1  0
  4  5  1  0
  5  6  1  0
  5  7  2  0
  4  8  2  0
  8  9  1  0
  9 10  2  0
 10 11  1  0
 11 12  2  0
 12 13  1  0
 13 14  2  0
 14 15  1  0
 14 16  1  0
 16 17  2  0
 10  2  1  0
 17 11  1  0
  1 18  1  0
  1 19  1  0
  1 20  1  0
  3 21  1  0
  6 22  1  0
  6 23  1  0
  8 24  1  0
  9 25  1  0
 12 26  1  0
 13 27  1  0
 16 28  1  0
 17 29  1  0
M  END
>  <UniqueID>  (78) 
70

>  <SMILES>  (78) 
Cc1cc(C(N)=O)ccc1-c1ccc(F)cc1

>  <Energy>  (78) 
38.276409050634435

>  <Genealogy>  (78) 
Cc1cc(C(N)=O)ccc1-c1ccc(F)cc1 (3D coordinates assigned)
Cc1cc(C(N)=O)ccc1-c1ccc(F)cc1 (optimized conformer: 38.276409050634435 kcal/mol)

>  <smiles>  (78) 
Cc1cc(C(N)=O)ccc1-c1ccc(F)cc1

>  <score_type>  (78) 
oracle

>  <origin>  (78) 
adg

>  <m_score__min__energy>  (78) 
-7.3799999999999999

>  <m_primary>  (78) 
energy

$$$$
78:0
     RDKit          3D

 34 36  0  0  0  0  0  0  0  0999 V2000
   56.1720   29.9370   44.8890 O   0  0  0  0  0  0  0  0  0  0  0  0
   57.4000   30.2050   45.0020 C   0  0  0  0  0  0  0  0  0  0  0  0
   58.3910   29.1950   44.7370 N   0  0  0  0  0  0  0  0  0  0  0  0
   58.0800   27.8440   44.3580 C   0  0  0  0  0  0  0  0  0  0  0  0
   58.1440   27.4260   43.0180 C   0  0  0  0  0  0  0  0  0  0  0  0
   57.8080   26.1160   42.6730 C   0  0  0  0  0  0  0  0  0  0  0  0
   57.3920   25.2140   43.6550 C   0  0  0  0  0  0  0  0  0  0  0  0
   57.2980   25.6180   44.9990 C   0  0  0  0  0  0  0  0  0  0  0  0
   56.8460   24.6640   46.0440 C   0  0  0  0  0  0  0  0  0  0  0  0
   57.7630   23.8700   46.7500 C   0  0  0  0  0  0  0  0  0  0  0  0
   57.3260   23.0030   47.6990 N   0  0  0  0  0  0  0  0  0  0  0  0
   56.0050   22.8890   47.9870 C   0  0  0  0  0  0  0  0  0  0  0  0
   55.0960   23.6440   47.3210 N   0  0  0  0  0  0  0  0  0  0  0  0
   55.4860   24.5220   46.3600 C   0  0  0  0  0  0  0  0  0  0  0  0
   57.6380   26.9420   45.3370 C   0  0  0  0  0  0  0  0  0  0  0  0
   57.7980   31.5690   45.4120 C   0  0  0  0  0  0  0  0  0  0  0  0
   57.6600   32.6320   44.5000 C   0  0  0  0  0  0  0  0  0  0  0  0
   58.0260   33.9300   44.8650 C   0  0  0  0  0  0  0  0  0  0  0  0
   58.5440   34.1810   46.1370 C   0  0  0  0  0  0  0  0  0  0  0  0
   58.7060   33.1300   47.0450 C   0  0  0  0  0  0  0  0  0  0  0  0
   58.3400   31.8280   46.6880 C   0  0  0  0  0  0  0  0  0  0  0  0
   58.5690   30.8210   47.5680 F   0  0  0  0  0  0  0  0  0  0  0  0
   59.4000   29.4610   44.7720 H   0  0  0  0  0  0  0  0  0  0  0  0
   58.4602   28.1340   42.2378 H   0  0  0  0  0  0  0  0  0  0  0  0
   57.8711   25.7926   41.6235 H   0  0  0  0  0  0  0  0  0  0  0  0
   57.1363   24.1813   43.3755 H   0  0  0  0  0  0  0  0  0  0  0  0
   58.8386   23.9504   46.5339 H   0  0  0  0  0  0  0  0  0  0  0  0
   55.6707   22.1833   48.7617 H   0  0  0  0  0  0  0  0  0  0  0  0
   54.7337   25.1231   45.8283 H   0  0  0  0  0  0  0  0  0  0  0  0
   57.5559   27.2733   46.3827 H   0  0  0  0  0  0  0  0  0  0  0  0
   57.2613   32.4396   43.4930 H   0  0  0  0  0  0  0  0  0  0  0  0
   57.9058   34.7560   44.1486 H   0  0  0  0  0  0  0  0  0  0  0  0
   58.8245   35.2050   46.4247 H   0  0  0  0  0  0  0  0  0  0  0  0
   59.1228   33.3278   48.0436 H   0  0  0  0  0  0  0  0  0  0  0  0
  1  2  2  0
  2  3  1  0
  3  4  1  0
  4  5  2  0
  5  6  1  0
  6  7  2  0
  7  8  1  0
  8  9  1  0
  9 10  2  0
 10 11  1  0
 11 12  2  0
 12 13  1  0
 13 14  2  0
  8 15  2  0
  2 16  1  0
 16 17  2  0
 17 18  1  0
 18 19  2  0
 19 20  1  0
 20 21  2  0
 21 22  1  0
 15  4  1  0
 21 16  1  0
 14  9  1  0
  3 23  1  0
  5 24  1  0
  6 25  1  0
  7 26  1  0
 10 27  1  0
 12 28  1  0
 14 29  1  0
 15 30  1  0
 17 31  1  0
 18 32  1  0
 19 33  1  0
 20 34  1  0
M  END
>  <UniqueID>  (79) 
71

>  <SMILES>  (79) 
O=C(Nc1cccc(-c2cncnc2)c1)c1ccccc1F

>  <Energy>  (79) 
52.0180987317831

>  <Genealogy>  (79) 
O=C(Nc1cccc(-c2cncnc2)c1)c1ccccc1F (3D coordinates assigned)
O=C(Nc1cccc(-c2cncnc2)c1)c1ccccc1F (optimized conformer: 52.0180987317831 kcal/mol)

>  <smiles>  (79) 
O=C(Nc1cccc(-c2cncnc2)c1)c1ccccc1F

>  <score_type>  (79) 
oracle

>  <origin>  (79) 
adg

>  <m_score__min__energy>  (79) 
-7.4800000000000004

>  <m_primary>  (79) 
energy

$$$$
79:0
     RDKit          3D

 43 46  0  0  0  0  0  0  0  0999 V2000
   59.9466   36.3074   44.6729 H   0  0  0  0  0  0  0  0  0  0  0  0
   59.6080   35.4520   45.2760 C   0  0  0  0  0  0  0  0  0  0  0  0
   60.0670   35.2930   46.5400 N   0  0  0  0  0  0  0  0  0  0  0  0
   59.6390   34.2820   47.3390 C   0  0  0  0  0  0  0  0  0  0  0  0
   60.1040   34.2150   48.6570 C   0  0  0  0  0  0  0  0  0  0  0  0
   60.8756   34.9190   49.0022 H   0  0  0  0  0  0  0  0  0  0  0  0
   59.5930   33.2590   49.5350 C   0  0  0  0  0  0  0  0  0  0  0  0
   60.1670   33.1910   51.1920 Cl  0  0  0  0  0  0  0  0  0  0  0  0
   58.5880   32.3920   49.1090 C   0  0  0  0  0  0  0  0  0  0  0  0
   58.1591   31.6638   49.8131 H   0  0  0  0  0  0  0  0  0  0  0  0
   58.1220   32.4430   47.7910 C   0  0  0  0  0  0  0  0  0  0  0  0
   57.3013   31.7803   47.4789 H   0  0  0  0  0  0  0  0  0  0  0  0
   58.6930   33.3360   46.8550 C   0  0  0  0  0  0  0  0  0  0  0  0
   58.3000   33.4210   45.4810 C   0  0  0  0  0  0  0  0  0  0  0  0
   57.6150   32.5130   44.8330 N   0  0  0  0  0  0  0  0  0  0  0  0
   57.5450   31.0940   45.0270 C   0  0  0  0  0  0  0  0  0  0  0  0
   58.5970   30.4000   45.6480 C   0  0  0  0  0  0  0  0  0  0  0  0
   59.4683   30.9520   46.0304 H   0  0  0  0  0  0  0  0  0  0  0  0
   58.5390   29.0100   45.7810 C   0  0  0  0  0  0  0  0  0  0  0  0
   59.3496   28.4769   46.2994 H   0  0  0  0  0  0  0  0  0  0  0  0
   57.4540   28.2890   45.2580 C   0  0  0  0  0  0  0  0  0  0  0  0
   57.4080   26.8630   45.4300 N   0  0  0  0  0  0  0  0  0  0  0  0
   58.2270   26.3000   45.1070 H   0  0  0  0  0  0  0  0  0  0  0  0
   56.2690   26.1460   45.9260 C   0  0  0  0  0  0  0  0  0  0  0  0
   55.1420   26.7080   46.0000 O   0  0  0  0  0  0  0  0  0  0  0  0
   56.4040   24.7570   46.2470 N   0  0  0  0  0  0  0  0  0  0  0  0
   56.5390   23.6900   45.2980 C   0  0  0  0  0  0  0  0  0  0  0  0
   56.2890   23.9590   43.9460 C   0  0  0  0  0  0  0  0  0  0  0  0
   55.9852   24.9702   43.6374 H   0  0  0  0  0  0  0  0  0  0  0  0
   56.4230   22.9510   42.9860 C   0  0  0  0  0  0  0  0  0  0  0  0
   56.2103   23.1668   41.9285 H   0  0  0  0  0  0  0  0  0  0  0  0
   56.8270   21.6700   43.3700 C   0  0  0  0  0  0  0  0  0  0  0  0
   56.9600   20.6940   42.4390 F   0  0  0  0  0  0  0  0  0  0  0  0
   57.1110   21.3990   44.7110 C   0  0  0  0  0  0  0  0  0  0  0  0
   57.4409   20.3929   45.0092 H   0  0  0  0  0  0  0  0  0  0  0  0
   56.9770   22.4040   45.6760 C   0  0  0  0  0  0  0  0  0  0  0  0
   57.3320   22.1330   46.9560 F   0  0  0  0  0  0  0  0  0  0  0  0
   56.4110   28.9880   44.6230 C   0  0  0  0  0  0  0  0  0  0  0  0
   55.5447   28.4374   44.2276 H   0  0  0  0  0  0  0  0  0  0  0  0
   56.4700   30.3790   44.4920 C   0  0  0  0  0  0  0  0  0  0  0  0
   55.6658   30.9133   43.9649 H   0  0  0  0  0  0  0  0  0  0  0  0
   58.7090   34.5360   44.7380 C   0  0  0  0  0  0  0  0  0  0  0  0
   58.3166   34.6886   43.7218 H   0  0  0  0  0  0  0  0  0  0  0  0
  1  2  1  0
  2  3  1  0
  3  4  1  0
  4  5  2  0
  5  6  1  0
  5  7  1  0
  7  8  1  0
  7  9  2  0
  9 10  1  0
  9 11  1  0
 11 12  1  0
 11 13  2  0
 13 14  1  0
 14 15  2  0
 15 16  1  0
 16 17  2  0
 17 18  1  0
 17 19  1  0
 19 20  1  0
 19 21  2  0
 21 22  1  0
 22 23  1  0
 22 24  1  0
 24 25  2  0
 24 26  1  0
 26 27  1  0
 27 28  2  0
 28 29  1  0
 28 30  1  0
 30 31  1  0
 30 32  2  0
 32 33  1  0
 32 34  1  0
 34 35  1  0
 34 36  2  0
 36 37  1  0
 21 38  1  0
 38 39  1  0
 38 40  2  0
 40 41  1  0
 14 42  1  0
 42 43  1  0
 42  2  2  0
 13  4  1  0
 40 16  1  0
 36 27  1  0
M  CHG  2   3  -1  26  -1
M  END
>  <UniqueID>  (80) 
72

>  <SMILES>  (80) 
O=C([N-]c1ccc(F)cc1F)Nc1ccc(/N=c2/cc[n-]c3cc(Cl)ccc23)cc1

>  <Energy>  (80) 
79.63410987675812

>  <Genealogy>  (80) 
O=C([N-]c1ccc(F)cc1F)Nc1ccc(N=c2cc[n-]c3cc(Cl)ccc23)cc1 (protonated)
O=C([N-]c1ccc(F)cc1F)Nc1ccc(/N=c2/cc[n-]c3cc(Cl)ccc23)cc1 (cis-trans isomerization)
O=C([N-]c1ccc(F)cc1F)Nc1ccc(/N=c2/cc[n-]c3cc(Cl)ccc23)cc1 (3D coordinates assigned)
O=C([N-]c1ccc(F)cc1F)Nc1ccc(/N=c2/cc[n-]c3cc(Cl)ccc23)cc1 (optimized conformer: 79.63410987675812 kcal/mol)

>  <smiles>  (80) 
O=C(Nc1ccc(N=c2cc[nH]c3cc(Cl)ccc23)cc1)Nc1ccc(F)cc1F

>  <score_type>  (80) 
oracle

>  <origin>  (80) 
adg

>  <m_score__min__energy>  (80) 
-11.300000000000001

>  <m_primary>  (80) 
energy

$$$$
80:0
     RDKit          3D

 16 16  0  0  0  0  0  0  0  0999 V2000
   55.1110   28.1780   44.8680 H   0  0  0  0  0  0  0  0  0  0  0  0
   55.3840   29.1490   44.7780 O   0  0  0  0  0  0  0  0  0  0  0  0
   55.4500   29.7320   43.5340 N   0  0  0  0  0  0  0  0  0  0  0  0
   56.5430   30.2930   43.1280 C   0  0  0  0  0  0  0  0  0  0  0  0
   56.9863   29.9852   42.1695 H   0  0  0  0  0  0  0  0  0  0  0  0
   57.2040   31.3400   43.9320 C   0  0  0  0  0  0  0  0  0  0  0  0
   57.8780   32.3830   43.2820 C   0  0  0  0  0  0  0  0  0  0  0  0
   57.9127   32.4196   42.1832 H   0  0  0  0  0  0  0  0  0  0  0  0
   58.5050   33.3750   44.0380 C   0  0  0  0  0  0  0  0  0  0  0  0
   59.0355   34.1979   43.5366 H   0  0  0  0  0  0  0  0  0  0  0  0
   58.4570   33.3200   45.4300 C   0  0  0  0  0  0  0  0  0  0  0  0
   58.9485   34.0970   46.0339 H   0  0  0  0  0  0  0  0  0  0  0  0
   57.7790   32.2690   46.0500 C   0  0  0  0  0  0  0  0  0  0  0  0
   57.7353   32.2170   47.1479 H   0  0  0  0  0  0  0  0  0  0  0  0
   57.1710   31.3070   45.3000 N   0  0  0  0  0  0  0  0  0  0  0  0
   56.6730   30.5370   45.8000 H   0  0  0  0  0  0  0  0  0  0  0  0
  1  2  1  0
  2  3  1  0
  3  4  2  0
  4  5  1  0
  4  6  1  0
  6  7  2  0
  7  8  1  0
  7  9  1  0
  9 10  1  0
  9 11  2  0
 11 12  1  0
 11 13  1  0
 13 14  1  0
 13 15  2  0
 15 16  1  0
 15  6  1  0
M  CHG  1  15   1
M  END
>  <UniqueID>  (81) 
73

>  <SMILES>  (81) 
O/N=C/c1cccc[nH+]1

>  <Energy>  (81) 
12.765272098441471

>  <Genealogy>  (81) 
ON=Cc1cccc[nH+]1 (protonated)
O/N=C/c1cccc[nH+]1 (cis-trans isomerization)
O/N=C/c1cccc[nH+]1 (3D coordinates assigned)
O/N=C/c1cccc[nH+]1 (optimized conformer: 12.765272098441471 kcal/mol)

>  <smiles>  (81) 
ON=Cc1ccccn1

>  <score_type>  (81) 
oracle

>  <origin>  (81) 
adg

>  <m_score__min__energy>  (81) 
-3.98

>  <m_primary>  (81) 
energy

$$$$
81:0
     RDKit          3D

 28 30  0  0  0  0  0  0  0  0999 V2000
   56.8520   30.4390   43.1760 C   0  0  0  0  0  0  0  0  0  0  0  0
   56.6480   30.8310   44.5010 O   0  0  0  0  0  0  0  0  0  0  0  0
   57.3500   31.7800   45.2020 C   0  0  0  0  0  0  0  0  0  0  0  0
   58.2520   31.4330   46.1910 C   0  0  0  0  0  0  0  0  0  0  0  0
   58.9380   32.4180   46.8740 C   0  0  0  0  0  0  0  0  0  0  0  0
   58.7340   33.7620   46.5790 C   0  0  0  0  0  0  0  0  0  0  0  0
   59.6600   34.9560   47.5060 S   0  0  0  0  0  0  0  0  0  0  0  0
   60.9590   34.2150   48.4870 C   0  0  0  0  0  0  0  0  0  0  0  0
   60.8450   34.0090   49.8120 N   0  0  0  0  0  0  0  0  0  0  0  0
   61.8580   33.4440   50.5140 C   0  0  0  0  0  0  0  0  0  0  0  0
   63.0010   33.0750   49.9080 N   0  0  0  0  0  0  0  0  0  0  0  0
   63.1370   33.2710   48.5890 C   0  0  0  0  0  0  0  0  0  0  0  0
   64.1260   33.0250   47.6860 N   0  0  0  0  0  0  0  0  0  0  0  0
   63.7250   33.4290   46.4720 C   0  0  0  0  0  0  0  0  0  0  0  0
   62.4980   33.9320   46.5670 N   0  0  0  0  0  0  0  0  0  0  0  0
   62.1240   33.8450   47.8420 C   0  0  0  0  0  0  0  0  0  0  0  0
   57.8330   34.0790   45.5930 C   0  0  0  0  0  0  0  0  0  0  0  0
   57.1310   33.1060   44.8910 C   0  0  0  0  0  0  0  0  0  0  0  0
   57.3597   29.4634   43.1563 H   0  0  0  0  0  0  0  0  0  0  0  0
   55.8818   30.3578   42.6641 H   0  0  0  0  0  0  0  0  0  0  0  0
   57.4752   31.1871   42.6641 H   0  0  0  0  0  0  0  0  0  0  0  0
   58.4229   30.3737   46.4334 H   0  0  0  0  0  0  0  0  0  0  0  0
   59.6539   32.1365   47.6603 H   0  0  0  0  0  0  0  0  0  0  0  0
   61.7435   33.2848   51.5964 H   0  0  0  0  0  0  0  0  0  0  0  0
   65.0530   32.5870   47.9140 H   0  0  0  0  0  0  0  0  0  0  0  0
   64.3157   33.3561   45.5470 H   0  0  0  0  0  0  0  0  0  0  0  0
   57.6608   35.1380   45.3504 H   0  0  0  0  0  0  0  0  0  0  0  0
   56.4159   33.3875   44.1040 H   0  0  0  0  0  0  0  0  0  0  0  0
  1  2  1  0
  2  3  1  0
  3  4  2  0
  4  5  1  0
  5  6  2  0
  6  7  1  0
  7  8  1  0
  8  9  2  0
  9 10  1  0
 10 11  2  0
 11 12  1  0
 12 13  1  0
 13 14  1  0
 14 15  2  0
 15 16  1  0
  6 17  1  0
 17 18  2  0
 18  3  1  0
 16  8  1  0
 16 12  2  0
  1 19  1  0
  1 20  1  0
  1 21  1  0
  4 22  1  0
  5 23  1  0
 10 24  1  0
 13 25  1  0
 14 26  1  0
 17 27  1  0
 18 28  1  0
M  END
>  <smiles>  (82) 
COc1ccc(Sc2ncnc3[nH]cnc23)cc1

>  <score_type>  (82) 
oracle

>  <origin>  (82) 
adg

>  <m_score__min__energy>  (82) 
-6.4000000000000004

>  <m_primary>  (82) 
energy

$$$$
82:0
     RDKit          3D

 33 36  0  0  0  0  0  0  0  0999 V2000
   55.5080   28.9660   44.7760 O   0  0  0  0  0  0  0  0  0  0  0  0
   56.6650   29.2200   45.2100 C   0  0  0  0  0  0  0  0  0  0  0  0
   57.0340   30.5150   45.3690 N   0  0  0  0  0  0  0  0  0  0  0  0
   58.2700   30.8590   45.8170 C   0  0  0  0  0  0  0  0  0  0  0  0
   59.1970   29.8430   46.1280 C   0  0  0  0  0  0  0  0  0  0  0  0
   60.4770   30.1870   46.5930 C   0  0  0  0  0  0  0  0  0  0  0  0
   60.8370   31.5260   46.7480 C   0  0  0  0  0  0  0  0  0  0  0  0
   59.9250   32.5450   46.4430 C   0  0  0  0  0  0  0  0  0  0  0  0
   60.2920   33.8910   46.6000 C   0  0  0  0  0  0  0  0  0  0  0  0
   59.3840   34.9080   46.2970 C   0  0  0  0  0  0  0  0  0  0  0  0
   58.1060   34.5910   45.8340 C   0  0  0  0  0  0  0  0  0  0  0  0
   57.7260   33.2570   45.6720 C   0  0  0  0  0  0  0  0  0  0  0  0
   58.6280   32.2170   45.9730 C   0  0  0  0  0  0  0  0  0  0  0  0
   58.8000   28.5030   45.9620 C   0  0  0  0  0  0  0  0  0  0  0  0
   59.6040   27.5710   46.2490 O   0  0  0  0  0  0  0  0  0  0  0  0
   57.5400   28.2080   45.5040 N   0  0  0  0  0  0  0  0  0  0  0  0
   57.1380   26.8330   45.3320 C   0  0  0  0  0  0  0  0  0  0  0  0
   56.1170   26.2880   46.1290 C   0  0  0  0  0  0  0  0  0  0  0  0
   55.7270   24.9560   45.9610 C   0  0  0  0  0  0  0  0  0  0  0  0
   56.3550   24.1600   44.9980 C   0  0  0  0  0  0  0  0  0  0  0  0
   57.3710   24.6940   44.2020 C   0  0  0  0  0  0  0  0  0  0  0  0
   57.7640   26.0260   44.3670 C   0  0  0  0  0  0  0  0  0  0  0  0
   61.2006   29.3952   46.8366 H   0  0  0  0  0  0  0  0  0  0  0  0
   61.8427   31.7832   47.1118 H   0  0  0  0  0  0  0  0  0  0  0  0
   61.2987   34.1456   46.9631 H   0  0  0  0  0  0  0  0  0  0  0  0
   59.6766   35.9608   46.4235 H   0  0  0  0  0  0  0  0  0  0  0  0
   57.3949   35.3956   45.5956 H   0  0  0  0  0  0  0  0  0  0  0  0
   56.7165   33.0166   45.3072 H   0  0  0  0  0  0  0  0  0  0  0  0
   55.6226   26.9119   46.8881 H   0  0  0  0  0  0  0  0  0  0  0  0
   54.9263   24.5342   46.5862 H   0  0  0  0  0  0  0  0  0  0  0  0
   56.0484   23.1117   44.8671 H   0  0  0  0  0  0  0  0  0  0  0  0
   57.8626   24.0661   43.4444 H   0  0  0  0  0  0  0  0  0  0  0  0
   58.5655   26.4431   43.7395 H   0  0  0  0  0  0  0  0  0  0  0  0
  1  2  2  0
  2  3  1  0
  3  4  1  0
  4  5  2  0
  5  6  1  0
  6  7  2  0
  7  8  1  0
  8  9  2  0
  9 10  1  0
 10 11  2  0
 11 12  1  0
 12 13  2  0
  5 14  1  0
 14 15  2  0
 14 16  1  0
 16 17  1  0
 17 18  2  0
 18 19  1  0
 19 20  2  0
 20 21  1  0
 21 22  2  0
 16  2  1  0
 22 17  1  0
 13  4  1  0
 13  8  1  0
  6 23  1  0
  7 24  1  0
  9 25  1  0
 10 26  1  0
 11 27  1  0
 12 28  1  0
 18 29  1  0
 19 30  1  0
 20 31  1  0
 21 32  1  0
 22 33  1  0
M  CHG  1   3  -1
M  END
>  <UniqueID>  (83) 
74

>  <SMILES>  (83) 
O=c1[n-]c2c(ccc3ccccc32)c(=O)n1-c1ccccc1

>  <Energy>  (83) 
57.20090798203248

>  <Genealogy>  (83) 
O=c1[n-]c2c(ccc3ccccc32)c(=O)n1-c1ccccc1 (protonated)
O=c1[n-]c2c(ccc3ccccc32)c(=O)n1-c1ccccc1 (3D coordinates assigned)
O=c1[n-]c2c(ccc3ccccc32)c(=O)n1-c1ccccc1 (optimized conformer: 57.20090798203248 kcal/mol)

>  <smiles>  (83) 
O=c1[nH]c2c(ccc3ccccc32)c(=O)n1-c1ccccc1

>  <score_type>  (83) 
oracle

>  <origin>  (83) 
adg

>  <m_score__min__energy>  (83) 
-9.6600000000000001

>  <m_primary>  (83) 
energy

$$$$
83:0
     RDKit          3D

 37 39  0  0  0  0  0  0  0  0999 V2000
   63.3940   33.9050   46.5670 C   0  0  0  0  0  0  0  0  0  0  0  0
   63.2250   33.3530   47.7760 C   0  0  0  0  0  0  0  0  0  0  0  0
   63.3570   31.8620   47.9340 C   0  0  0  0  0  0  0  0  0  0  0  0
   62.8820   34.2250   48.9630 C   0  0  0  0  0  0  0  0  0  0  0  0
   61.4620   34.5740   48.9590 N   0  0  0  0  0  0  0  0  0  0  0  0
   60.5720   34.0730   48.1550 C   0  0  0  0  0  0  0  0  0  0  0  0
   60.2010   34.6930   47.0090 N   0  0  0  0  0  0  0  0  0  0  0  0
   59.2620   33.9790   46.3380 C   0  0  0  0  0  0  0  0  0  0  0  0
   58.6840   34.3600   45.1260 C   0  0  0  0  0  0  0  0  0  0  0  0
   57.7190   33.5220   44.5430 C   0  0  0  0  0  0  0  0  0  0  0  0
   57.3340   32.3120   45.1740 C   0  0  0  0  0  0  0  0  0  0  0  0
   56.3440   31.4400   44.6110 N   0  0  0  0  0  0  0  0  0  0  0  0
   56.5670   29.7510   44.2890 S   0  0  0  0  0  0  0  0  0  0  0  0
   56.5930   29.5340   42.8030 O   0  0  0  0  0  0  0  0  0  0  0  0
   55.4220   28.9780   44.8810 O   0  0  0  0  0  0  0  0  0  0  0  0
   58.0860   29.2050   44.9720 C   0  0  0  0  0  0  0  0  0  0  0  0
   59.3490   29.5350   44.5050 C   0  0  0  0  0  0  0  0  0  0  0  0
   60.3760   28.9640   45.2640 C   0  0  0  0  0  0  0  0  0  0  0  0
   59.9220   28.1880   46.3240 C   0  0  0  0  0  0  0  0  0  0  0  0
   58.2390   28.2130   46.3180 S   0  0  0  0  0  0  0  0  0  0  0  0
   57.9330   31.9450   46.3920 C   0  0  0  0  0  0  0  0  0  0  0  0
   58.8870   32.7910   46.9480 C   0  0  0  0  0  0  0  0  0  0  0  0
   59.7470   32.6050   48.3810 S   0  0  0  0  0  0  0  0  0  0  0  0
   63.2996   34.9937   46.4414 H   0  0  0  0  0  0  0  0  0  0  0  0
   63.6272   33.2695   45.7000 H   0  0  0  0  0  0  0  0  0  0  0  0
   63.3796   31.6072   49.0038 H   0  0  0  0  0  0  0  0  0  0  0  0
   62.4993   31.3654   47.4568 H   0  0  0  0  0  0  0  0  0  0  0  0
   64.2886   31.5238   47.4568 H   0  0  0  0  0  0  0  0  0  0  0  0
   63.1169   33.6810   49.8898 H   0  0  0  0  0  0  0  0  0  0  0  0
   63.4724   35.1511   48.9020 H   0  0  0  0  0  0  0  0  0  0  0  0
   60.5890   35.6080   46.6840 H   0  0  0  0  0  0  0  0  0  0  0  0
   58.9789   35.2997   44.6361 H   0  0  0  0  0  0  0  0  0  0  0  0
   57.2570   33.8076   43.5865 H   0  0  0  0  0  0  0  0  0  0  0  0
   59.5249   30.1780   43.6300 H   0  0  0  0  0  0  0  0  0  0  0  0
   61.4429   29.1150   45.0427 H   0  0  0  0  0  0  0  0  0  0  0  0
   60.5550   27.6491   47.0444 H   0  0  0  0  0  0  0  0  0  0  0  0
   57.6528   31.0078   46.8951 H   0  0  0  0  0  0  0  0  0  0  0  0
  1  2  2  0
  2  3  1  0
  2  4  1  0
  4  5  1  0
  5  6  2  3
  6  7  1  0
  7  8  1  0
  8  9  2  0
  9 10  1  0
 10 11  2  0
 11 12  1  0
 12 13  1  0
 13 14  2  0
 13 15  2  0
 13 16  1  0
 16 17  2  0
 17 18  1  0
 18 19  2  0
 19 20  1  0
 11 21  1  0
 21 22  2  0
 22 23  1  0
 23  6  1  0
 22  8  1  0
 20 16  1  0
  1 24  1  0
  1 25  1  0
  3 26  1  0
  3 27  1  0
  3 28  1  0
  4 29  1  0
  4 30  1  0
  7 31  1  0
  9 32  1  0
 10 33  1  0
 17 34  1  0
 18 35  1  0
 19 36  1  0
 21 37  1  0
M  CHG  1  12  -1
M  END
>  <UniqueID>  (84) 
75

>  <SMILES>  (84) 
C=C(C)CN=c1[nH]c2ccc([N-]S(=O)(=O)c3cccs3)cc2s1

>  <Energy>  (84) 
98.19619947024714

>  <Genealogy>  (84) 
C=C(C)CN=c1[nH]c2ccc([N-]S(=O)(=O)c3cccs3)cc2s1 (protonated)
C=C(C)CN=c1[nH]c2ccc([N-]S(=O)(=O)c3cccs3)cc2s1 (3D coordinates assigned)
C=C(C)CN=c1[nH]c2ccc([N-]S(=O)(=O)c3cccs3)cc2s1 (optimized conformer: 98.19619947024714 kcal/mol)

>  <smiles>  (84) 
C=C(C)CN=c1[nH]c2ccc(NS(=O)(=O)c3cccs3)cc2s1

>  <score_type>  (84) 
oracle

>  <origin>  (84) 
adg

>  <m_score__min__energy>  (84) 
-9.7300000000000004

>  <m_primary>  (84) 
energy

$$$$
84:0
     RDKit          3D

 32 33  0  0  0  0  0  0  0  0999 V2000
   59.6640   29.8870   49.2050 C   0  0  0  0  0  0  0  0  0  0  0  0
   59.6980   29.4320   47.7760 C   0  0  0  0  0  0  0  0  0  0  0  0
   60.7620   29.8020   46.9400 C   0  0  0  0  0  0  0  0  0  0  0  0
   60.8030   29.3570   45.6170 C   0  0  0  0  0  0  0  0  0  0  0  0
   59.7980   28.5190   45.1250 C   0  0  0  0  0  0  0  0  0  0  0  0
   58.7490   28.1050   45.9650 C   0  0  0  0  0  0  0  0  0  0  0  0
   57.6890   27.2580   45.4990 N   0  0  0  0  0  0  0  0  0  0  0  0
   56.2800   27.4930   45.6230 C   0  0  0  0  0  0  0  0  0  0  0  0
   55.5180   26.5990   46.0750 O   0  0  0  0  0  0  0  0  0  0  0  0
   55.7150   28.7480   45.2280 N   0  0  0  0  0  0  0  0  0  0  0  0
   56.3770   29.7790   44.4810 C   0  0  0  0  0  0  0  0  0  0  0  0
   56.3460   29.8130   43.0760 C   0  0  0  0  0  0  0  0  0  0  0  0
   57.0090   30.8300   42.3850 C   0  0  0  0  0  0  0  0  0  0  0  0
   57.7270   31.8030   43.0830 C   0  0  0  0  0  0  0  0  0  0  0  0
   57.8150   31.7520   44.4840 C   0  0  0  0  0  0  0  0  0  0  0  0
   58.5600   32.8210   45.2440 C   0  0  0  0  0  0  0  0  0  0  0  0
   59.5660   32.2330   45.9870 F   0  0  0  0  0  0  0  0  0  0  0  0
   57.7070   33.5000   46.0970 F   0  0  0  0  0  0  0  0  0  0  0  0
   59.1210   33.7380   44.3720 F   0  0  0  0  0  0  0  0  0  0  0  0
   57.1220   30.7400   45.1750 C   0  0  0  0  0  0  0  0  0  0  0  0
   58.6990   28.5760   47.2840 C   0  0  0  0  0  0  0  0  0  0  0  0
   59.7293   29.0130   49.8697 H   0  0  0  0  0  0  0  0  0  0  0  0
   60.5145   30.5577   49.3966 H   0  0  0  0  0  0  0  0  0  0  0  0
   58.7232   30.4239   49.3966 H   0  0  0  0  0  0  0  0  0  0  0  0
   61.5663   30.4445   47.3277 H   0  0  0  0  0  0  0  0  0  0  0  0
   61.6289   29.6669   44.9598 H   0  0  0  0  0  0  0  0  0  0  0  0
   59.8279   28.1826   44.0781 H   0  0  0  0  0  0  0  0  0  0  0  0
   55.7988   29.0376   42.5199 H   0  0  0  0  0  0  0  0  0  0  0  0
   56.9652   30.8644   41.2864 H   0  0  0  0  0  0  0  0  0  0  0  0
   58.2265   32.6140   42.5328 H   0  0  0  0  0  0  0  0  0  0  0  0
   57.1664   30.7039   46.2735 H   0  0  0  0  0  0  0  0  0  0  0  0
   57.8698   28.2725   47.9400 H   0  0  0  0  0  0  0  0  0  0  0  0
  1  2  1  0
  2  3  2  0
  3  4  1  0
  4  5  2  0
  5  6  1  0
  6  7  1  0
  7  8  1  0
  8  9  2  0
  8 10  1  0
 10 11  1  0
 11 12  2  0
 12 13  1  0
 13 14  2  0
 14 15  1  0
 15 16  1  0
 16 17  1  0
 16 18  1  0
 16 19  1  0
 15 20  2  0
  6 21  2  0
 21  2  1  0
 20 11  1  0
  1 22  1  0
  1 23  1  0
  1 24  1  0
  3 25  1  0
  4 26  1  0
  5 27  1  0
 12 28  1  0
 13 29  1  0
 14 30  1  0
 20 31  1  0
 21 32  1  0
M  CHG  2   7  -1  10  -1
M  END
>  <UniqueID>  (85) 
76

>  <SMILES>  (85) 
Cc1cccc([N-]C(=O)[N-]c2cccc(C(F)(F)F)c2)c1

>  <Energy>  (85) 
39.166146777305535

>  <Genealogy>  (85) 
Cc1cccc([N-]C(=O)[N-]c2cccc(C(F)(F)F)c2)c1 (protonated)
Cc1cccc([N-]C(=O)[N-]c2cccc(C(F)(F)F)c2)c1 (3D coordinates assigned)
Cc1cccc([N-]C(=O)[N-]c2cccc(C(F)(F)F)c2)c1 (optimized conformer: 39.166146777305535 kcal/mol)

>  <smiles>  (85) 
Cc1cccc(NC(=O)Nc2cccc(C(F)(F)F)c2)c1

>  <score_type>  (85) 
oracle

>  <origin>  (85) 
adg

>  <m_score__min__energy>  (85) 
-9.8900000000000006

>  <m_primary>  (85) 
energy

$$$$
85:0
     RDKit          3D

 32 33  0  0  0  0  0  0  0  0999 V2000
   63.8230   33.1180   47.8990 C   0  0  0  0  0  0  0  0  0  0  0  0
   62.7500   33.9680   48.2900 O   0  0  0  0  0  0  0  0  0  0  0  0
   61.4270   33.8310   47.8430 C   0  0  0  0  0  0  0  0  0  0  0  0
   61.1620   34.0240   46.4820 C   0  0  0  0  0  0  0  0  0  0  0  0
   59.8610   33.8990   45.9870 C   0  0  0  0  0  0  0  0  0  0  0  0
   58.8050   33.5660   46.8480 C   0  0  0  0  0  0  0  0  0  0  0  0
   57.3990   33.4700   46.3240 C   0  0  0  0  0  0  0  0  0  0  0  0
   57.3780   32.6560   45.0700 C   0  0  0  0  0  0  0  0  0  0  0  0
   57.7850   33.0890   43.8210 C   0  0  0  0  0  0  0  0  0  0  0  0
   57.5610   32.0210   42.9770 C   0  0  0  0  0  0  0  0  0  0  0  0
   57.7720   32.0010   41.4970 C   0  0  0  0  0  0  0  0  0  0  0  0
   57.0120   31.0180   43.7560 C   0  0  0  0  0  0  0  0  0  0  0  0
   56.5760   29.6690   43.2870 C   0  0  0  0  0  0  0  0  0  0  0  0
   56.9200   31.4260   45.0020 O   0  0  0  0  0  0  0  0  0  0  0  0
   59.0640   33.3850   48.2150 C   0  0  0  0  0  0  0  0  0  0  0  0
   60.3660   33.5110   48.7100 C   0  0  0  0  0  0  0  0  0  0  0  0
   64.3226   32.7222   48.7955 H   0  0  0  0  0  0  0  0  0  0  0  0
   63.4300   32.2835   47.2997 H   0  0  0  0  0  0  0  0  0  0  0  0
   64.5454   33.6915   47.2997 H   0  0  0  0  0  0  0  0  0  0  0  0
   61.9845   34.2761   45.7965 H   0  0  0  0  0  0  0  0  0  0  0  0
   59.6643   34.0625   44.9172 H   0  0  0  0  0  0  0  0  0  0  0  0
   56.7597   32.9913   47.0804 H   0  0  0  0  0  0  0  0  0  0  0  0
   57.0238   34.4808   46.1061 H   0  0  0  0  0  0  0  0  0  0  0  0
   58.1985   34.0736   43.5573 H   0  0  0  0  0  0  0  0  0  0  0  0
   58.8458   31.8992   41.2811 H   0  0  0  0  0  0  0  0  0  0  0  0
   57.2280   31.1504   41.0605 H   0  0  0  0  0  0  0  0  0  0  0  0
   57.3975   32.9387   41.0605 H   0  0  0  0  0  0  0  0  0  0  0  0
   56.3688   29.0278   44.1565 H   0  0  0  0  0  0  0  0  0  0  0  0
   55.6644   29.7689   42.6795 H   0  0  0  0  0  0  0  0  0  0  0  0
   57.3736   29.2165   42.6795 H   0  0  0  0  0  0  0  0  0  0  0  0
   58.2389   33.1428   48.9009 H   0  0  0  0  0  0  0  0  0  0  0  0
   60.5614   33.3593   49.7818 H   0  0  0  0  0  0  0  0  0  0  0  0
  1  2  1  0
  2  3  1  0
  3  4  2  0
  4  5  1  0
  5  6  2  0
  6  7  1  0
  7  8  1  0
  8  9  2  0
  9 10  1  0
 10 11  1  0
 10 12  2  0
 12 13  1  0
 12 14  1  0
  6 15  1  0
 15 16  2  0
 16  3  1  0
 14  8  1  0
  1 17  1  0
  1 18  1  0
  1 19  1  0
  4 20  1  0
  5 21  1  0
  7 22  1  0
  7 23  1  0
  9 24  1  0
 11 25  1  0
 11 26  1  0
 11 27  1  0
 13 28  1  0
 13 29  1  0
 13 30  1  0
 15 31  1  0
 16 32  1  0
M  END
>  <UniqueID>  (86) 
77

>  <SMILES>  (86) 
COc1ccc(Cc2cc(C)c(C)o2)cc1

>  <Energy>  (86) 
53.07477863029384

>  <Genealogy>  (86) 
COc1ccc(Cc2cc(C)c(C)o2)cc1 (3D coordinates assigned)
COc1ccc(Cc2cc(C)c(C)o2)cc1 (optimized conformer: 53.07477863029384 kcal/mol)

>  <smiles>  (86) 
COc1ccc(Cc2cc(C)c(C)o2)cc1

>  <score_type>  (86) 
oracle

>  <origin>  (86) 
adg

>  <m_score__min__energy>  (86) 
-6.3899999999999997

>  <m_primary>  (86) 
energy

$$$$
86:0
     RDKit          3D

 44 46  0  0  0  0  0  0  0  0999 V2000
   55.5120   29.5810   44.9650 N   0  0  0  0  0  0  0  0  0  0  0  0
   56.8660   29.9320   44.5310 C   0  0  2  0  0  0  0  0  0  0  0  0
   57.2910   29.0360   43.3390 C   0  0  0  0  0  0  0  0  0  0  0  0
   58.1590   27.8550   43.7870 C   0  0  0  0  0  0  0  0  0  0  0  0
   59.4550   28.3310   44.4730 C   0  0  0  0  0  0  0  0  0  0  0  0
   59.2990   29.6740   45.2150 C   0  0  0  0  0  0  0  0  0  0  0  0
   57.8620   29.8740   45.7240 C   0  0  1  0  0  0  0  0  0  0  0  0
   57.7670   31.0930   46.4650 O   0  0  0  0  0  0  0  0  0  0  0  0
   58.2140   32.3590   46.0450 C   0  0  0  0  0  0  0  0  0  0  0  0
   57.6190   33.0480   44.9670 C   0  0  0  0  0  0  0  0  0  0  0  0
   58.1050   34.2960   44.5710 C   0  0  0  0  0  0  0  0  0  0  0  0
   59.1870   34.8700   45.2360 C   0  0  0  0  0  0  0  0  0  0  0  0
   59.7860   34.2010   46.3030 C   0  0  0  0  0  0  0  0  0  0  0  0
   59.3020   32.9490   46.7220 C   0  0  0  0  0  0  0  0  0  0  0  0
   59.9810   32.2330   47.8640 C   0  0  0  0  0  0  0  0  0  0  0  0
   61.4090   32.6900   48.0030 C   0  0  0  0  0  0  0  0  0  0  0  0
   62.3960   32.1970   47.1330 C   0  0  0  0  0  0  0  0  0  0  0  0
   63.7280   32.5990   47.2780 C   0  0  0  0  0  0  0  0  0  0  0  0
   64.0830   33.4940   48.2890 C   0  0  0  0  0  0  0  0  0  0  0  0
   63.1070   33.9910   49.1590 C   0  0  0  0  0  0  0  0  0  0  0  0
   61.7750   33.5920   49.0170 C   0  0  0  0  0  0  0  0  0  0  0  0
   55.4340   29.7100   46.0010 H   0  0  0  0  0  0  0  0  0  0  0  0
   54.8310   30.2370   44.5170 H   0  0  0  0  0  0  0  0  0  0  0  0
   56.8782   30.9719   44.1725 H   0  0  0  0  0  0  0  0  0  0  0  0
   56.3870   28.6459   42.8484 H   0  0  0  0  0  0  0  0  0  0  0  0
   57.8860   29.6511   42.6479 H   0  0  0  0  0  0  0  0  0  0  0  0
   57.5856   27.2391   44.4954 H   0  0  0  0  0  0  0  0  0  0  0  0
   58.4355   27.2735   42.8951 H   0  0  0  0  0  0  0  0  0  0  0  0
   59.7661   27.5657   45.1993 H   0  0  0  0  0  0  0  0  0  0  0  0
   60.2038   28.4829   43.6816 H   0  0  0  0  0  0  0  0  0  0  0  0
   59.9874   29.6903   46.0728 H   0  0  0  0  0  0  0  0  0  0  0  0
   59.5313   30.4861   44.5104 H   0  0  0  0  0  0  0  0  0  0  0  0
   57.6071   29.0234   46.3732 H   0  0  0  0  0  0  0  0  0  0  0  0
   56.7670   32.5994   44.4352 H   0  0  0  0  0  0  0  0  0  0  0  0
   57.6324   34.8275   43.7318 H   0  0  0  0  0  0  0  0  0  0  0  0
   59.5689   35.8517   44.9189 H   0  0  0  0  0  0  0  0  0  0  0  0
   60.6433   34.6560   46.8206 H   0  0  0  0  0  0  0  0  0  0  0  0
   59.4404   32.4477   48.7976 H   0  0  0  0  0  0  0  0  0  0  0  0
   59.9732   31.1523   47.6592 H   0  0  0  0  0  0  0  0  0  0  0  0
   62.1202   31.4922   46.3348 H   0  0  0  0  0  0  0  0  0  0  0  0
   64.4968   32.2094   46.5945 H   0  0  0  0  0  0  0  0  0  0  0  0
   65.1310   33.8086   48.4015 H   0  0  0  0  0  0  0  0  0  0  0  0
   63.3878   34.6961   49.9552 H   0  0  0  0  0  0  0  0  0  0  0  0
   61.0096   33.9857   49.7019 H   0  0  0  0  0  0  0  0  0  0  0  0
  1  2  1  0
  2  3  1  0
  3  4  1  0
  4  5  1  0
  5  6  1  0
  6  7  1  0
  7  8  1  0
  8  9  1  0
  9 10  2  0
 10 11  1  0
 11 12  2  0
 12 13  1  0
 13 14  2  0
 14 15  1  0
 15 16  1  0
 16 17  2  0
 17 18  1  0
 18 19  2  0
 19 20  1  0
 20 21  2  0
  7  2  1  0
 14  9  1  0
 21 16  1  0
  1 22  1  0
  1 23  1  0
  2 24  1  6
  3 25  1  0
  3 26  1  0
  4 27  1  0
  4 28  1  0
  5 29  1  0
  5 30  1  0
  6 31  1  0
  6 32  1  0
  7 33  1  1
 10 34  1  0
 11 35  1  0
 12 36  1  0
 13 37  1  0
 15 38  1  0
 15 39  1  0
 17 40  1  0
 18 41  1  0
 19 42  1  0
 20 43  1  0
 21 44  1  0
M  END
>  <UniqueID>  (87) 
78

>  <SMILES>  (87) 
N[C@@H]1CCCC[C@H]1Oc1ccccc1Cc1ccccc1

>  <Energy>  (87) 
45.52136532665031

>  <Genealogy>  (87) 
N[C@@H]1CCCC[C@H]1Oc1ccccc1Cc1ccccc1 (chirality)
N[C@@H]1CCCC[C@H]1Oc1ccccc1Cc1ccccc1 (3D coordinates assigned)
N[C@@H]1CCCC[C@H]1Oc1ccccc1Cc1ccccc1 (nonaromatic ring conformer: 45.52136532665031 kcal/mol)

>  <smiles>  (87) 
NC1CCCCC1Oc1ccccc1Cc1ccccc1

>  <score_type>  (87) 
oracle

>  <origin>  (87) 
adg

>  <m_score__min__energy>  (87) 
-8.8800000000000008

>  <m_primary>  (87) 
energy

$$$$
87:0
     RDKit          3D

 49 51  0  0  0  0  0  0  0  0999 V2000
   57.0120   29.2120   43.3210 C   0  0  0  0  0  0  0  0  0  0  0  0
   56.1290   29.9630   44.2700 C   0  0  0  0  0  0  0  0  0  0  0  0
   55.2240   29.3390   44.8830 O   0  0  0  0  0  0  0  0  0  0  0  0
   56.3080   31.3610   44.5330 N   0  0  0  0  0  0  0  0  0  0  0  0
   57.4240   31.9740   45.1930 C   0  0  0  0  0  0  0  0  0  0  0  0
   58.4860   31.2130   45.7080 C   0  0  0  0  0  0  0  0  0  0  0  0
   59.5740   31.8440   46.3160 C   0  0  0  0  0  0  0  0  0  0  0  0
   59.6290   33.2400   46.4030 C   0  0  0  0  0  0  0  0  0  0  0  0
   60.7680   33.8450   47.0300 N   0  0  0  0  0  0  0  0  0  0  0  0
   61.4040   33.4060   48.5840 S   0  0  0  0  0  0  0  0  0  0  0  0
   61.7330   34.6550   49.3510 O   0  0  0  0  0  0  0  0  0  0  0  0
   62.6610   32.6040   48.3910 O   0  0  0  0  0  0  0  0  0  0  0  0
   60.2040   32.4830   49.4830 C   0  0  0  0  0  0  0  0  0  0  0  0
   59.2960   33.1440   50.3160 C   0  0  0  0  0  0  0  0  0  0  0  0
   58.3310   32.4210   51.0220 C   0  0  0  0  0  0  0  0  0  0  0  0
   58.2650   31.0200   50.9120 C   0  0  0  0  0  0  0  0  0  0  0  0
   57.2290   30.2650   51.6570 C   0  0  0  0  0  0  0  0  0  0  0  0
   57.5060   29.1240   52.1160 O   0  0  0  0  0  0  0  0  0  0  0  0
   55.9120   30.8070   51.8520 N   0  0  0  0  0  0  0  0  0  0  0  0
   54.9580   30.2160   52.7860 C   0  0  0  0  0  0  0  0  0  0  0  0
   53.5740   30.7420   52.5160 C   0  0  0  0  0  0  0  0  0  0  0  0
   52.6190   30.8050   53.5440 C   0  0  0  0  0  0  0  0  0  0  0  0
   51.3440   31.3210   53.2890 C   0  0  0  0  0  0  0  0  0  0  0  0
   51.0170   31.7800   52.0110 C   0  0  0  0  0  0  0  0  0  0  0  0
   51.9640   31.7270   50.9850 C   0  0  0  0  0  0  0  0  0  0  0  0
   53.2400   31.2120   51.2350 C   0  0  0  0  0  0  0  0  0  0  0  0
   59.1780   30.3630   50.0660 C   0  0  0  0  0  0  0  0  0  0  0  0
   60.1420   31.0890   49.3620 C   0  0  0  0  0  0  0  0  0  0  0  0
   58.5770   34.0030   45.8650 C   0  0  0  0  0  0  0  0  0  0  0  0
   57.4900   33.3700   45.2550 C   0  0  0  0  0  0  0  0  0  0  0  0
   57.7286   28.6026   43.8912 H   0  0  0  0  0  0  0  0  0  0  0  0
   56.3960   28.5568   42.6875 H   0  0  0  0  0  0  0  0  0  0  0  0
   57.5598   29.9252   42.6875 H   0  0  0  0  0  0  0  0  0  0  0  0
   58.4610   30.1159   45.6324 H   0  0  0  0  0  0  0  0  0  0  0  0
   60.3942   31.2389   46.7298 H   0  0  0  0  0  0  0  0  0  0  0  0
   59.3416   34.2385   50.4160 H   0  0  0  0  0  0  0  0  0  0  0  0
   57.6171   32.9516   51.6691 H   0  0  0  0  0  0  0  0  0  0  0  0
   55.5970   31.6240   51.2830 H   0  0  0  0  0  0  0  0  0  0  0  0
   54.9612   29.1226   52.6657 H   0  0  0  0  0  0  0  0  0  0  0  0
   55.2492   30.4812   53.8131 H   0  0  0  0  0  0  0  0  0  0  0  0
   52.8744   30.4476   54.5525 H   0  0  0  0  0  0  0  0  0  0  0  0
   50.5979   31.3653   54.0961 H   0  0  0  0  0  0  0  0  0  0  0  0
   50.0132   32.1835   51.8121 H   0  0  0  0  0  0  0  0  0  0  0  0
   51.7056   32.0907   49.9795 H   0  0  0  0  0  0  0  0  0  0  0  0
   53.9844   31.1748   50.4260 H   0  0  0  0  0  0  0  0  0  0  0  0
   59.1322   29.2693   49.9582 H   0  0  0  0  0  0  0  0  0  0  0  0
   60.8553   30.5636   48.7100 H   0  0  0  0  0  0  0  0  0  0  0  0
   58.6097   35.1009   45.9244 H   0  0  0  0  0  0  0  0  0  0  0  0
   56.6802   33.9744   44.8203 H   0  0  0  0  0  0  0  0  0  0  0  0
  1  2  1  0
  2  3  2  0
  2  4  1  0
  4  5  1  0
  5  6  2  0
  6  7  1  0
  7  8  2  0
  8  9  1  0
  9 10  1  0
 10 11  2  0
 10 12  2  0
 10 13  1  0
 13 14  2  0
 14 15  1  0
 15 16  2  0
 16 17  1  0
 17 18  2  0
 17 19  1  0
 19 20  1  0
 20 21  1  0
 21 22  2  0
 22 23  1  0
 23 24  2  0
 24 25  1  0
 25 26  2  0
 16 27  1  0
 27 28  2  0
  8 29  1  0
 29 30  2  0
 30  5  1  0
 28 13  1  0
 26 21  1  0
  1 31  1  0
  1 32  1  0
  1 33  1  0
  6 34  1  0
  7 35  1  0
 14 36  1  0
 15 37  1  0
 19 38  1  0
 20 39  1  0
 20 40  1  0
 22 41  1  0
 23 42  1  0
 24 43  1  0
 25 44  1  0
 26 45  1  0
 27 46  1  0
 28 47  1  0
 29 48  1  0
 30 49  1  0
M  CHG  2   4  -1   9  -1
M  END
>  <UniqueID>  (88) 
79

>  <SMILES>  (88) 
CC(=O)[N-]c1ccc([N-]S(=O)(=O)c2ccc(C(=O)NCc3ccccc3)cc2)cc1

>  <Energy>  (88) 
57.60628251453649

>  <Genealogy>  (88) 
CC(=O)[N-]c1ccc([N-]S(=O)(=O)c2ccc(C(=O)NCc3ccccc3)cc2)cc1 (protonated)
CC(=O)[N-]c1ccc([N-]S(=O)(=O)c2ccc(C(=O)NCc3ccccc3)cc2)cc1 (3D coordinates assigned)
CC(=O)[N-]c1ccc([N-]S(=O)(=O)c2ccc(C(=O)NCc3ccccc3)cc2)cc1 (optimized conformer: 57.60628251453649 kcal/mol)

>  <smiles>  (88) 
CC(=O)Nc1ccc(NS(=O)(=O)c2ccc(C(=O)NCc3ccccc3)cc2)cc1

>  <score_type>  (88) 
oracle

>  <origin>  (88) 
adg

>  <m_score__min__energy>  (88) 
-12.24

>  <m_primary>  (88) 
energy

$$$$
88:0
     RDKit          3D

 53 55  0  0  0  0  0  0  0  0999 V2000
   63.7750   33.4010   47.6980 C   0  0  0  0  0  0  0  0  0  0  0  0
   63.4300   33.4950   49.0480 C   0  0  0  0  0  0  0  0  0  0  0  0
   62.1030   33.7340   49.4180 C   0  0  0  0  0  0  0  0  0  0  0  0
   61.1120   33.8880   48.4340 C   0  0  0  0  0  0  0  0  0  0  0  0
   59.6830   34.1370   48.8370 C   0  0  0  0  0  0  0  0  0  0  0  0
   58.9510   32.9120   48.8910 O   0  0  0  0  0  0  0  0  0  0  0  0
   59.4530   31.6830   49.3500 C   0  0  0  0  0  0  0  0  0  0  0  0
   59.5770   31.3870   50.7220 C   0  0  0  0  0  0  0  0  0  0  0  0
   60.0880   30.1540   51.1350 C   0  0  0  0  0  0  0  0  0  0  0  0
   60.4720   29.2050   50.1890 C   0  0  0  0  0  0  0  0  0  0  0  0
   60.3490   29.4840   48.8270 C   0  0  0  0  0  0  0  0  0  0  0  0
   59.8410   30.7260   48.3970 C   0  0  0  0  0  0  0  0  0  0  0  0
   59.7010   31.0540   47.0360 O   0  0  0  0  0  0  0  0  0  0  0  0
   59.4080   30.1330   45.9860 C   0  0  0  0  0  0  0  0  0  0  0  0
   58.2950   29.1680   46.4140 C   0  0  0  0  0  0  0  0  0  0  0  0
   57.5900   28.5090   45.2190 C   0  0  0  0  0  0  0  0  0  0  0  0
   57.6350   29.3840   43.9570 C   0  0  0  0  0  0  0  0  0  0  0  0
   56.3670   30.2260   43.7730 C   0  0  0  0  0  0  0  0  0  0  0  0
   56.2720   31.2520   44.7640 O   0  0  0  0  0  0  0  0  0  0  0  0
   57.1310   32.3550   44.9120 C   0  0  0  0  0  0  0  0  0  0  0  0
   57.0400   33.0990   46.0970 C   0  0  0  0  0  0  0  0  0  0  0  0
   57.8640   34.2080   46.3060 C   0  0  0  0  0  0  0  0  0  0  0  0
   58.7920   34.5830   45.3320 C   0  0  0  0  0  0  0  0  0  0  0  0
   58.8970   33.8490   44.1500 C   0  0  0  0  0  0  0  0  0  0  0  0
   58.0750   32.7380   43.9360 C   0  0  0  0  0  0  0  0  0  0  0  0
   61.4640   33.7800   47.0790 C   0  0  0  0  0  0  0  0  0  0  0  0
   62.7930   33.5420   46.7140 C   0  0  0  0  0  0  0  0  0  0  0  0
   64.8202   33.2159   47.4092 H   0  0  0  0  0  0  0  0  0  0  0  0
   64.2036   33.3808   49.8216 H   0  0  0  0  0  0  0  0  0  0  0  0
   61.8341   33.8017   50.4825 H   0  0  0  0  0  0  0  0  0  0  0  0
   59.6655   34.6117   49.8291 H   0  0  0  0  0  0  0  0  0  0  0  0
   59.2152   34.7949   48.0897 H   0  0  0  0  0  0  0  0  0  0  0  0
   59.2698   32.1307   51.4720 H   0  0  0  0  0  0  0  0  0  0  0  0
   60.1874   29.9319   52.2078 H   0  0  0  0  0  0  0  0  0  0  0  0
   60.8727   28.2344   50.5165 H   0  0  0  0  0  0  0  0  0  0  0  0
   60.6504   28.7300   48.0850 H   0  0  0  0  0  0  0  0  0  0  0  0
   59.0814   30.6906   45.0958 H   0  0  0  0  0  0  0  0  0  0  0  0
   60.3143   29.5527   45.7581 H   0  0  0  0  0  0  0  0  0  0  0  0
   58.7352   28.3792   47.0417 H   0  0  0  0  0  0  0  0  0  0  0  0
   57.5419   29.7520   46.9634 H   0  0  0  0  0  0  0  0  0  0  0  0
   58.0841   27.5505   45.0021 H   0  0  0  0  0  0  0  0  0  0  0  0
   56.5336   28.3657   45.4902 H   0  0  0  0  0  0  0  0  0  0  0  0
   58.4991   30.0609   44.0291 H   0  0  0  0  0  0  0  0  0  0  0  0
   57.7150   28.7116   43.0902 H   0  0  0  0  0  0  0  0  0  0  0  0
   56.3886   30.6919   42.7768 H   0  0  0  0  0  0  0  0  0  0  0  0
   55.4946   29.5640   43.8763 H   0  0  0  0  0  0  0  0  0  0  0  0
   56.3132   32.8069   46.8693 H   0  0  0  0  0  0  0  0  0  0  0  0
   57.7817   34.7860   47.2383 H   0  0  0  0  0  0  0  0  0  0  0  0
   59.4398   35.4566   45.4966 H   0  0  0  0  0  0  0  0  0  0  0  0
   59.6287   34.1452   43.3840 H   0  0  0  0  0  0  0  0  0  0  0  0
   58.1648   32.1610   43.0038 H   0  0  0  0  0  0  0  0  0  0  0  0
   60.6921   33.8829   46.3021 H   0  0  0  0  0  0  0  0  0  0  0  0
   63.0655   33.4657   45.6510 H   0  0  0  0  0  0  0  0  0  0  0  0
  1  2  2  0
  2  3  1  0
  3  4  2  0
  4  5  1  0
  5  6  1  0
  6  7  1  0
  7  8  2  0
  8  9  1  0
  9 10  2  0
 10 11  1  0
 11 12  2  0
 12 13  1  0
 13 14  1  0
 14 15  1  0
 15 16  1  0
 16 17  1  0
 17 18  1  0
 18 19  1  0
 19 20  1  0
 20 21  2  0
 21 22  1  0
 22 23  2  0
 23 24  1  0
 24 25  2  0
  4 26  1  0
 26 27  2  0
 27  1  1  0
 12  7  1  0
 25 20  1  0
  1 28  1  0
  2 29  1  0
  3 30  1  0
  5 31  1  0
  5 32  1  0
  8 33  1  0
  9 34  1  0
 10 35  1  0
 11 36  1  0
 14 37  1  0
 14 38  1  0
 15 39  1  0
 15 40  1  0
 16 41  1  0
 16 42  1  0
 17 43  1  0
 17 44  1  0
 18 45  1  0
 18 46  1  0
 21 47  1  0
 22 48  1  0
 23 49  1  0
 24 50  1  0
 25 51  1  0
 26 52  1  0
 27 53  1  0
M  END
>  <UniqueID>  (89) 
80

>  <SMILES>  (89) 
c1ccc(COc2ccccc2OCCCCCOc2ccccc2)cc1

>  <Energy>  (89) 
50.86831378077794

>  <Genealogy>  (89) 
c1ccc(COc2ccccc2OCCCCCOc2ccccc2)cc1 (3D coordinates assigned)
c1ccc(COc2ccccc2OCCCCCOc2ccccc2)cc1 (optimized conformer: 50.86831378077794 kcal/mol)

>  <smiles>  (89) 
c1ccc(COc2ccccc2OCCCCCOc2ccccc2)cc1

>  <score_type>  (89) 
oracle

>  <origin>  (89) 
adg

>  <m_score__min__energy>  (89) 
-7.96

>  <m_primary>  (89) 
energy

$$$$
89:0
     RDKit          3D

 31 33  0  0  0  0  0  0  0  0999 V2000
   57.6651   23.7079   45.6548 H   0  0  0  0  0  0  0  0  0  0  0  0
   57.6040   24.8030   45.5710 C   0  0  0  0  0  0  0  0  0  0  0  0
   57.2900   25.5740   46.6940 C   0  0  0  0  0  0  0  0  0  0  0  0
   57.0969   25.0844   47.6599 H   0  0  0  0  0  0  0  0  0  0  0  0
   57.2210   26.9670   46.5910 C   0  0  0  0  0  0  0  0  0  0  0  0
   56.9631   27.5692   47.4747 H   0  0  0  0  0  0  0  0  0  0  0  0
   57.4800   27.6020   45.3620 C   0  0  0  0  0  0  0  0  0  0  0  0
   57.3910   29.0310   45.2210 N   0  0  0  0  0  0  0  0  0  0  0  0
   58.1650   29.6140   45.6110 H   0  0  0  0  0  0  0  0  0  0  0  0
   56.2530   29.7200   44.6840 C   0  0  0  0  0  0  0  0  0  0  0  0
   55.1670   29.1060   44.4930 O   0  0  0  0  0  0  0  0  0  0  0  0
   56.3610   31.1260   44.4090 N   0  0  0  0  0  0  0  0  0  0  0  0
   57.1640   31.9640   44.9940 C   0  0  0  0  0  0  0  0  0  0  0  0
   57.7780   31.6740   46.1730 N   0  0  0  0  0  0  0  0  0  0  0  0
   58.4810   32.8030   46.3690 C   0  0  0  0  0  0  0  0  0  0  0  0
   59.2920   33.0590   47.4220 N   0  0  0  0  0  0  0  0  0  0  0  0
   59.9420   34.2620   47.4770 C   0  0  0  0  0  0  0  0  0  0  0  0
   60.8420   34.5670   48.6310 C   0  0  0  0  0  0  0  0  0  0  0  0
   60.3045   34.3849   49.5733 H   0  0  0  0  0  0  0  0  0  0  0  0
   61.7301   33.9197   48.5844 H   0  0  0  0  0  0  0  0  0  0  0  0
   61.1536   35.6209   48.5844 H   0  0  0  0  0  0  0  0  0  0  0  0
   59.7620   35.2150   46.4470 C   0  0  0  0  0  0  0  0  0  0  0  0
   60.2802   36.1846   46.4847 H   0  0  0  0  0  0  0  0  0  0  0  0
   58.9120   34.9020   45.3780 C   0  0  0  0  0  0  0  0  0  0  0  0
   58.7448   35.6139   44.5563 H   0  0  0  0  0  0  0  0  0  0  0  0
   58.3040   33.6930   45.3920 N   0  0  0  0  0  0  0  0  0  0  0  0
   57.4730   33.1910   44.5020 N   0  0  0  0  0  0  0  0  0  0  0  0
   57.7700   26.8160   44.2360 C   0  0  0  0  0  0  0  0  0  0  0  0
   57.9434   27.2986   43.2628 H   0  0  0  0  0  0  0  0  0  0  0  0
   57.8400   25.4240   44.3430 C   0  0  0  0  0  0  0  0  0  0  0  0
   58.0814   24.8168   43.4581 H   0  0  0  0  0  0  0  0  0  0  0  0
  1  2  1  0
  2  3  2  0
  3  4  1  0
  3  5  1  0
  5  6  1  0
  5  7  2  0
  7  8  1  0
  8  9  1  0
  8 10  1  0
 10 11  2  0
 10 12  1  0
 12 13  2  0
 13 14  1  0
 14 15  2  0
 15 16  1  0
 16 17  2  0
 17 18  1  0
 18 19  1  0
 18 20  1  0
 18 21  1  0
 17 22  1  0
 22 23  1  0
 22 24  2  0
 24 25  1  0
 24 26  1  0
 26 27  1  0
  7 28  1  0
 28 29  1  0
 28 30  2  0
 30 31  1  0
 30  2  1  0
 27 13  1  0
 26 15  1  0
M  CHG  1  27  -1
M  END
>  <UniqueID>  (90) 
81

>  <SMILES>  (90) 
Cc1ccn2[n-]/c(=N\C(=O)Nc3ccccc3)nc2n1

>  <Energy>  (90) 
77.64633848227088

>  <Genealogy>  (90) 
Cc1ccn2[n-]c(=NC(=O)Nc3ccccc3)nc2n1 (protonated)
Cc1ccn2[n-]/c(=N\C(=O)Nc3ccccc3)nc2n1 (cis-trans isomerization)
Cc1ccn2[n-]/c(=N\C(=O)Nc3ccccc3)nc2n1 (3D coordinates assigned)
Cc1ccn2[n-]/c(=N\C(=O)Nc3ccccc3)nc2n1 (optimized conformer: 77.64633848227088 kcal/mol)

>  <smiles>  (90) 
Cc1ccn2[nH]c(=NC(=O)Nc3ccccc3)nc2n1

>  <score_type>  (90) 
oracle

>  <origin>  (90) 
adg

>  <m_score__min__energy>  (90) 
-8

>  <m_primary>  (90) 
energy

$$$$
90:0
     RDKit          3D

 40 42  0  0  0  0  0  0  0  0999 V2000
   57.2210   34.2620   45.9130 O   0  0  0  0  0  0  0  0  0  0  0  0
   58.3920   33.8710   45.6590 C   0  0  0  0  0  0  0  0  0  0  0  0
   59.5340   34.8270   45.7750 C   0  0  0  0  0  0  0  0  0  0  0  0
   60.5070   34.3130   46.7950 C   0  0  0  0  0  0  0  0  0  0  0  0
   61.7410   33.7720   46.4010 C   0  0  0  0  0  0  0  0  0  0  0  0
   62.6580   33.3770   47.3770 C   0  0  0  0  0  0  0  0  0  0  0  0
   62.3460   33.5330   48.7290 C   0  0  0  0  0  0  0  0  0  0  0  0
   61.1150   34.0870   49.0850 C   0  0  0  0  0  0  0  0  0  0  0  0
   60.2340   34.4660   48.1210 N   0  0  0  0  0  0  0  0  0  0  0  0
   58.6690   32.4920   45.3850 N   0  0  0  0  0  0  0  0  0  0  0  0
   57.8970   31.6090   44.5620 C   0  0  0  0  0  0  0  0  0  0  0  0
   57.7530   31.8010   43.1780 C   0  0  0  0  0  0  0  0  0  0  0  0
   56.9590   30.9270   42.4280 C   0  0  0  0  0  0  0  0  0  0  0  0
   56.2910   29.8710   43.0570 C   0  0  0  0  0  0  0  0  0  0  0  0
   56.4220   29.6750   44.4370 C   0  0  0  0  0  0  0  0  0  0  0  0
   55.6980   28.6050   45.0640 N   0  0  0  0  0  0  0  0  0  0  0  0
   56.2700   27.4200   45.6390 C   0  0  0  0  0  0  0  0  0  0  0  0
   55.5080   26.4580   45.9190 O   0  0  0  0  0  0  0  0  0  0  0  0
   57.7180   27.3100   45.9420 C   0  0  0  0  0  0  0  0  0  0  0  0
   58.1580   26.8630   47.2020 C   0  0  0  0  0  0  0  0  0  0  0  0
   59.5250   26.8030   47.4910 C   0  0  0  0  0  0  0  0  0  0  0  0
   60.4630   27.1740   46.5250 C   0  0  0  0  0  0  0  0  0  0  0  0
   60.0360   27.5990   45.2640 C   0  0  0  0  0  0  0  0  0  0  0  0
   58.6700   27.6600   44.9700 C   0  0  0  0  0  0  0  0  0  0  0  0
   57.2710   30.5180   45.1720 C   0  0  0  0  0  0  0  0  0  0  0  0
   60.0367   34.9193   44.8010 H   0  0  0  0  0  0  0  0  0  0  0  0
   59.1596   35.8135   46.0860 H   0  0  0  0  0  0  0  0  0  0  0  0
   61.9831   33.6604   45.3338 H   0  0  0  0  0  0  0  0  0  0  0  0
   63.6248   32.9436   47.0812 H   0  0  0  0  0  0  0  0  0  0  0  0
   63.0618   33.2230   49.5046 H   0  0  0  0  0  0  0  0  0  0  0  0
   60.8575   34.2171   50.1465 H   0  0  0  0  0  0  0  0  0  0  0  0
   58.2651   32.6395   42.6834 H   0  0  0  0  0  0  0  0  0  0  0  0
   56.8597   31.0703   41.3419 H   0  0  0  0  0  0  0  0  0  0  0  0
   55.6602   29.1918   42.4648 H   0  0  0  0  0  0  0  0  0  0  0  0
   57.4236   26.5596   47.9626 H   0  0  0  0  0  0  0  0  0  0  0  0
   59.8622   26.4629   48.4813 H   0  0  0  0  0  0  0  0  0  0  0  0
   61.5375   27.1317   46.7566 H   0  0  0  0  0  0  0  0  0  0  0  0
   60.7753   27.8859   44.5017 H   0  0  0  0  0  0  0  0  0  0  0  0
   58.3392   27.9838   43.9721 H   0  0  0  0  0  0  0  0  0  0  0  0
   57.4454   30.3177   46.2395 H   0  0  0  0  0  0  0  0  0  0  0  0
  1  2  2  0
  2  3  1  0
  3  4  1  0
  4  5  2  0
  5  6  1  0
  6  7  2  0
  7  8  1  0
  8  9  2  0
  2 10  1  0
 10 11  1  0
 11 12  2  0
 12 13  1  0
 13 14  2  0
 14 15  1  0
 15 16  1  0
 16 17  1  0
 17 18  2  0
 17 19  1  0
 19 20  2  0
 20 21  1  0
 21 22  2  0
 22 23  1  0
 23 24  2  0
 15 25  2  0
  9  4  1  0
 25 11  1  0
 24 19  1  0
  3 26  1  0
  3 27  1  0
  5 28  1  0
  6 29  1  0
  7 30  1  0
  8 31  1  0
 12 32  1  0
 13 33  1  0
 14 34  1  0
 20 35  1  0
 21 36  1  0
 22 37  1  0
 23 38  1  0
 24 39  1  0
 25 40  1  0
M  CHG  2  10  -1  16  -1
M  END
>  <UniqueID>  (91) 
82

>  <SMILES>  (91) 
O=C(Cc1ccccn1)[N-]c1cccc([N-]C(=O)c2ccccc2)c1

>  <Energy>  (91) 
50.52340662341097

>  <Genealogy>  (91) 
O=C(Cc1ccccn1)[N-]c1cccc([N-]C(=O)c2ccccc2)c1 (protonated)
O=C(Cc1ccccn1)[N-]c1cccc([N-]C(=O)c2ccccc2)c1 (3D coordinates assigned)
O=C(Cc1ccccn1)[N-]c1cccc([N-]C(=O)c2ccccc2)c1 (optimized conformer: 50.52340662341097 kcal/mol)

>  <smiles>  (91) 
O=C(Cc1ccccn1)Nc1cccc(NC(=O)c2ccccc2)c1

>  <score_type>  (91) 
oracle

>  <origin>  (91) 
adg

>  <m_score__min__energy>  (91) 
-12.25

>  <m_primary>  (91) 
energy

$$$$
91:0
     RDKit          3D

 47 48  0  0  0  0  0  0  0  0999 V2000
   59.5600   33.5380   50.5720 C   0  0  0  0  0  0  0  0  0  0  0  0
   59.0120   32.9480   49.2760 C   0  0  0  0  0  0  0  0  0  0  0  0
   59.3240   33.8050   48.1330 N   0  0  0  0  0  0  0  0  0  0  0  0
   58.4640   34.1770   47.2010 N   0  0  0  0  0  0  0  0  0  0  0  0
   59.1220   34.8110   46.2410 N   0  0  0  0  0  0  0  0  0  0  0  0
   60.4190   34.8390   46.5210 N   0  0  0  0  0  0  0  0  0  0  0  0
   60.5330   34.2030   47.7000 C   0  0  0  0  0  0  0  0  0  0  0  0
   62.0980   33.8730   48.5160 S   0  0  0  0  0  0  0  0  0  0  0  0
   62.6360   32.6160   47.3090 C   0  0  0  0  0  0  0  0  0  0  0  0
   61.6060   31.5380   47.1660 C   0  0  0  0  0  0  0  0  0  0  0  0
   61.8770   30.3710   47.5560 O   0  0  0  0  0  0  0  0  0  0  0  0
   60.3450   31.8340   46.5420 N   0  0  0  0  0  0  0  0  0  0  0  0
   59.3130   30.8650   46.2840 C   0  0  0  0  0  0  0  0  0  0  0  0
   59.4330   29.5810   46.8320 C   0  0  0  0  0  0  0  0  0  0  0  0
   58.4490   28.6190   46.6050 C   0  0  0  0  0  0  0  0  0  0  0  0
   57.3230   28.9240   45.8330 C   0  0  0  0  0  0  0  0  0  0  0  0
   56.3350   27.9080   45.6250 N   0  0  0  0  0  0  0  0  0  0  0  0
   56.5310   26.4970   45.7950 C   0  0  0  0  0  0  0  0  0  0  0  0
   55.6320   25.8300   46.3720 O   0  0  0  0  0  0  0  0  0  0  0  0
   57.7120   25.7760   45.1810 C   0  0  0  0  0  0  0  0  0  0  0  0
   57.4190   24.2800   45.0190 C   0  0  0  0  0  0  0  0  0  0  0  0
   58.0640   26.4090   43.8320 C   0  0  0  0  0  0  0  0  0  0  0  0
   57.2180   30.1870   45.2170 C   0  0  0  0  0  0  0  0  0  0  0  0
   56.1260   30.4360   44.3710 O   0  0  0  0  0  0  0  0  0  0  0  0
   55.9210   29.8150   43.1060 C   0  0  0  0  0  0  0  0  0  0  0  0
   58.2170   31.1530   45.4500 C   0  0  0  0  0  0  0  0  0  0  0  0
   59.0922   33.0343   51.4308 H   0  0  0  0  0  0  0  0  0  0  0  0
   60.6495   33.3913   50.6098 H   0  0  0  0  0  0  0  0  0  0  0  0
   59.3334   34.6137   50.6098 H   0  0  0  0  0  0  0  0  0  0  0  0
   59.4609   31.9568   49.1147 H   0  0  0  0  0  0  0  0  0  0  0  0
   57.9184   32.8681   49.3640 H   0  0  0  0  0  0  0  0  0  0  0  0
   62.7914   33.0976   46.3323 H   0  0  0  0  0  0  0  0  0  0  0  0
   63.5722   32.1627   47.6668 H   0  0  0  0  0  0  0  0  0  0  0  0
   60.2350   32.7820   46.1150 H   0  0  0  0  0  0  0  0  0  0  0  0
   60.3103   29.3297   47.4462 H   0  0  0  0  0  0  0  0  0  0  0  0
   58.5592   27.6130   47.0362 H   0  0  0  0  0  0  0  0  0  0  0  0
   58.5742   25.8762   45.8568 H   0  0  0  0  0  0  0  0  0  0  0  0
   57.3279   23.8146   46.0115 H   0  0  0  0  0  0  0  0  0  0  0  0
   56.4781   24.1486   44.4646 H   0  0  0  0  0  0  0  0  0  0  0  0
   58.2408   23.8033   44.4646 H   0  0  0  0  0  0  0  0  0  0  0  0
   58.5924   27.3591   43.9995 H   0  0  0  0  0  0  0  0  0  0  0  0
   58.7112   25.7248   43.2637 H   0  0  0  0  0  0  0  0  0  0  0  0
   57.1413   26.5978   43.2637 H   0  0  0  0  0  0  0  0  0  0  0  0
   55.5794   28.7803   43.2565 H   0  0  0  0  0  0  0  0  0  0  0  0
   55.1597   30.3741   42.5421 H   0  0  0  0  0  0  0  0  0  0  0  0
   56.8655   29.8110   42.5421 H   0  0  0  0  0  0  0  0  0  0  0  0
   58.1393   32.1422   44.9751 H   0  0  0  0  0  0  0  0  0  0  0  0
  1  2  1  0
  2  3  1  0
  3  4  1  0
  4  5  2  0
  5  6  1  0
  6  7  2  0
  7  8  1  0
  8  9  1  0
  9 10  1  0
 10 11  2  0
 10 12  1  0
 12 13  1  0
 13 14  2  0
 14 15  1  0
 15 16  2  0
 16 17  1  0
 17 18  1  0
 18 19  2  0
 18 20  1  0
 20 21  1  0
 20 22  1  0
 16 23  1  0
 23 24  1  0
 24 25  1  0
 23 26  2  0
  7  3  1  0
 26 13  1  0
  1 27  1  0
  1 28  1  0
  1 29  1  0
  2 30  1  0
  2 31  1  0
  9 32  1  0
  9 33  1  0
 12 34  1  0
 14 35  1  0
 15 36  1  0
 20 37  1  0
 21 38  1  0
 21 39  1  0
 21 40  1  0
 22 41  1  0
 22 42  1  0
 22 43  1  0
 25 44  1  0
 25 45  1  0
 25 46  1  0
 26 47  1  0
M  CHG  1  17  -1
M  END
>  <UniqueID>  (92) 
83

>  <SMILES>  (92) 
CCn1nnnc1SCC(=O)Nc1ccc([N-]C(=O)C(C)C)c(OC)c1

>  <Energy>  (92) 
81.62361178341185

>  <Genealogy>  (92) 
CCn1nnnc1SCC(=O)Nc1ccc([N-]C(=O)C(C)C)c(OC)c1 (protonated)
CCn1nnnc1SCC(=O)Nc1ccc([N-]C(=O)C(C)C)c(OC)c1 (3D coordinates assigned)
CCn1nnnc1SCC(=O)Nc1ccc([N-]C(=O)C(C)C)c(OC)c1 (optimized conformer: 81.62361178341185 kcal/mol)

>  <smiles>  (92) 
CCn1nnnc1SCC(=O)Nc1ccc(NC(=O)C(C)C)c(OC)c1

>  <score_type>  (92) 
oracle

>  <origin>  (92) 
adg

>  <m_score__min__energy>  (92) 
-9.9700000000000006

>  <m_primary>  (92) 
energy

$$$$
92:0
     RDKit          3D

 36 39  0  0  0  0  0  0  0  0999 V2000
   63.4740   33.8510   48.8960 C   0  0  0  0  0  0  0  0  0  0  0  0
   63.6080   33.4850   47.5550 C   0  0  0  0  0  0  0  0  0  0  0  0
   62.4780   33.3930   46.7360 C   0  0  0  0  0  0  0  0  0  0  0  0
   61.1970   33.6650   47.2550 C   0  0  0  0  0  0  0  0  0  0  0  0
   59.9950   33.5680   46.3900 C   0  0  0  0  0  0  0  0  0  0  0  0
   59.5220   34.6950   45.6950 C   0  0  0  0  0  0  0  0  0  0  0  0
   58.3910   34.6030   44.8830 C   0  0  0  0  0  0  0  0  0  0  0  0
   57.7170   33.3870   44.7510 C   0  0  0  0  0  0  0  0  0  0  0  0
   58.1700   32.2470   45.4340 C   0  0  0  0  0  0  0  0  0  0  0  0
   57.4780   30.9930   45.2970 N   0  0  0  0  0  0  0  0  0  0  0  0
   56.2640   30.8550   44.7880 N   0  0  0  0  0  0  0  0  0  0  0  0
   55.9280   29.5760   44.8100 N   0  0  0  0  0  0  0  0  0  0  0  0
   56.9900   28.9470   45.3530 C   0  0  0  0  0  0  0  0  0  0  0  0
   57.0630   27.4950   45.5760 C   0  0  0  0  0  0  0  0  0  0  0  0
   58.2590   26.7890   45.3690 C   0  0  0  0  0  0  0  0  0  0  0  0
   58.2880   25.4110   45.5910 C   0  0  0  0  0  0  0  0  0  0  0  0
   57.1350   24.7500   46.0150 C   0  0  0  0  0  0  0  0  0  0  0  0
   55.9620   25.4820   46.2110 C   0  0  0  0  0  0  0  0  0  0  0  0
   55.9520   26.8240   45.9900 N   0  0  0  0  0  0  0  0  0  0  0  0
   57.9680   29.8210   45.6640 N   0  0  0  0  0  0  0  0  0  0  0  0
   59.3100   32.3460   46.2520 C   0  0  0  0  0  0  0  0  0  0  0  0
   61.0760   34.0330   48.6100 C   0  0  0  0  0  0  0  0  0  0  0  0
   62.2100   34.1240   49.4230 C   0  0  0  0  0  0  0  0  0  0  0  0
   64.3646   33.9243   49.5375 H   0  0  0  0  0  0  0  0  0  0  0  0
   64.6043   33.2686   47.1420 H   0  0  0  0  0  0  0  0  0  0  0  0
   62.5903   33.1064   45.6799 H   0  0  0  0  0  0  0  0  0  0  0  0
   60.0475   35.6565   45.7921 H   0  0  0  0  0  0  0  0  0  0  0  0
   58.0290   35.4915   44.3449 H   0  0  0  0  0  0  0  0  0  0  0  0
   56.8265   33.3220   44.1085 H   0  0  0  0  0  0  0  0  0  0  0  0
   59.1645   27.3167   45.0351 H   0  0  0  0  0  0  0  0  0  0  0  0
   59.2189   24.8471   45.4318 H   0  0  0  0  0  0  0  0  0  0  0  0
   57.1496   23.6646   46.1929 H   0  0  0  0  0  0  0  0  0  0  0  0
   55.0456   24.9730   46.5443 H   0  0  0  0  0  0  0  0  0  0  0  0
   59.6708   31.4573   46.7906 H   0  0  0  0  0  0  0  0  0  0  0  0
   60.0831   34.2500   49.0308 H   0  0  0  0  0  0  0  0  0  0  0  0
   62.1062   34.4112   50.4798 H   0  0  0  0  0  0  0  0  0  0  0  0
  1  2  2  0
  2  3  1  0
  3  4  2  0
  4  5  1  0
  5  6  2  0
  6  7  1  0
  7  8  2  0
  8  9  1  0
  9 10  1  0
 10 11  1  0
 11 12  2  0
 12 13  1  0
 13 14  1  0
 14 15  2  0
 15 16  1  0
 16 17  2  0
 17 18  1  0
 18 19  2  0
 13 20  2  0
  9 21  2  0
  4 22  1  0
 22 23  2  0
 23  1  1  0
 21  5  1  0
 20 10  1  0
 19 14  1  0
  1 24  1  0
  2 25  1  0
  3 26  1  0
  6 27  1  0
  7 28  1  0
  8 29  1  0
 15 30  1  0
 16 31  1  0
 17 32  1  0
 18 33  1  0
 21 34  1  0
 22 35  1  0
 23 36  1  0
M  END
>  <UniqueID>  (93) 
84

>  <SMILES>  (93) 
c1ccc(-c2cccc(-n3nnc(-c4ccccn4)n3)c2)cc1

>  <Energy>  (93) 
86.20373998763579

>  <Genealogy>  (93) 
c1ccc(-c2cccc(-n3nnc(-c4ccccn4)n3)c2)cc1 (3D coordinates assigned)
c1ccc(-c2cccc(-n3nnc(-c4ccccn4)n3)c2)cc1 (optimized conformer: 86.20373998763579 kcal/mol)

>  <smiles>  (93) 
c1ccc(-c2cccc(-n3nnc(-c4ccccn4)n3)c2)cc1

>  <score_type>  (93) 
oracle

>  <origin>  (93) 
adg

>  <m_score__min__energy>  (93) 
-9.6300000000000008

>  <m_primary>  (93) 
energy

$$$$
93:0
     RDKit          3D

 29 31  0  0  1  0  0  0  0  0999 V2000
   58.8750   34.5790   45.8500 C   0  0  0  0  0  0  0  0  0  0  0  0
   59.1030   34.2510   44.5370 C   0  0  0  0  0  0  0  0  0  0  0  0
   58.4820   33.1580   43.9840 C   0  0  0  0  0  0  0  0  0  0  0  0
   57.6130   32.3240   44.6610 C   0  0  0  0  0  0  0  0  0  0  0  0
   56.9540   31.1480   44.0220 C   0  0  0  0  0  0  0  0  0  0  0  0
   56.4420   30.1670   44.8840 N   0  0  0  0  0  0  0  0  0  0  0  0
   56.9340   29.0730   45.2180 C   0  0  0  0  0  0  0  0  0  0  0  0
   56.1550   27.9770   45.2630 N   0  0  0  0  0  0  0  0  0  0  0  0
   56.6450   26.7680   45.6070 C   0  0  0  0  0  0  0  0  0  0  0  0
   57.9540   26.6140   45.9230 N   0  0  0  0  0  0  0  0  0  0  0  0
   58.7280   27.7180   45.8770 C   0  0  0  0  0  0  0  0  0  0  0  0
   60.0370   27.8230   46.1510 N   0  0  0  0  0  0  0  0  0  0  0  0
   60.3820   29.1070   45.9820 C   0  0  0  0  0  0  0  0  0  0  0  0
   59.2620   29.8590   45.5860 C   0  0  0  0  0  0  0  0  0  0  0  0
   58.2490   28.9590   45.5290 C   0  0  0  0  0  0  0  0  0  0  0  0
   57.3890   32.6670   45.9930 C   0  0  0  0  0  0  0  0  0  0  0  0
   58.0180   33.7810   46.5660 C   0  0  0  0  0  0  0  0  0  0  0  0
   59.3618   35.4505   46.3121 H   0  0  0  0  0  0  0  0  0  0  0  0
   59.7834   34.8637   43.9274 H   0  0  0  0  0  0  0  0  0  0  0  0
   58.6911   32.9306   42.9283 H   0  0  0  0  0  0  0  0  0  0  0  0
   56.1194   31.5243   43.4122 H   0  0  0  0  0  0  0  0  0  0  0  0
   57.7494   30.6453   43.4522 H   0  0  0  0  0  0  0  0  0  0  0  0
   55.1430   28.0550   45.0270 H   0  0  0  0  0  0  0  0  0  0  0  0
   55.9740   25.8967   45.6313 H   0  0  0  0  0  0  0  0  0  0  0  0
   60.6740   27.0570   46.4400 H   0  0  0  0  0  0  0  0  0  0  0  0
   61.3934   29.5130   46.1313 H   0  0  0  0  0  0  0  0  0  0  0  0
   59.2173   30.9368   45.3705 H   0  0  0  0  0  0  0  0  0  0  0  0
   56.7089   32.0548   46.6035 H   0  0  0  0  0  0  0  0  0  0  0  0
   57.8189   34.0227   47.6205 H   0  0  0  0  0  0  0  0  0  0  0  0
  1  2  2  0
  2  3  1  0
  3  4  2  0
  4  5  1  0
  5  6  1  0
  6  7  2  0
  7  8  1  0
  8  9  1  0
  9 10  2  0
 10 11  1  0
 11 12  1  0
 12 13  1  0
 13 14  2  0
 14 15  1  0
  4 16  1  0
 16 17  2  0
 17  1  1  0
 15  7  1  0
 15 11  2  0
  1 18  1  0
  2 19  1  0
  3 20  1  0
  5 21  1  0
  5 22  1  0
  8 23  1  0
  9 24  1  0
 12 25  1  0
 13 26  1  0
 14 27  1  0
 16 28  1  0
 17 29  1  0
M  END
>  <smiles>  (94) 
c1ccc(CN=c2[nH]cnc3[nH]ccc23)cc1

>  <score_type>  (94) 
oracle

>  <origin>  (94) 
adg

>  <m_score__min__energy>  (94) 
-6.5499999999999998

>  <m_primary>  (94) 
energy

$$$$
