0:0
     RDKit          3D

 30 31  0  0  0  0  0  0  0  0999 V2000
   56.2260   25.2110   47.1460 O   0  0  0  0  0  0  0  0  0  0  0  0
   55.9340   26.0320   46.2380 C   0  0  0  0  0  0  0  0  0  0  0  0
   54.6020   26.3360   45.9870 O   0  0  0  0  0  0  0  0  0  0  0  0
   57.0130   26.6650   45.4210 C   0  0  0  0  0  0  0  0  0  0  0  0
   57.8380   27.9940   46.3670 S   0  0  0  0  0  0  0  0  0  0  0  0
   57.9330   29.2070   45.0030 C   0  0  0  0  0  0  0  0  0  0  0  0
   56.6350   29.9330   44.8550 C   0  0  0  0  0  0  0  0  0  0  0  0
   55.5530   29.2860   44.9020 O   0  0  0  0  0  0  0  0  0  0  0  0
   56.6430   31.3560   44.6710 N   0  0  0  0  0  0  0  0  0  0  0  0
   57.4590   32.1960   45.2350 C   0  0  0  0  0  0  0  0  0  0  0  0
   58.7260   31.9010   45.5980 N   0  0  0  0  0  0  0  0  0  0  0  0
   59.3570   32.9680   46.1640 C   0  0  0  0  0  0  0  0  0  0  0  0
   60.7600   32.8700   46.6460 C   0  0  0  0  0  0  0  0  0  0  0  0
   61.2120   31.7570   47.3850 C   0  0  0  0  0  0  0  0  0  0  0  0
   62.5360   31.6910   47.8290 C   0  0  0  0  0  0  0  0  0  0  0  0
   63.4250   32.7300   47.5460 C   0  0  0  0  0  0  0  0  0  0  0  0
   62.9900   33.8400   46.8200 C   0  0  0  0  0  0  0  0  0  0  0  0
   61.6670   33.9130   46.3740 C   0  0  0  0  0  0  0  0  0  0  0  0
   58.5680   34.1230   46.2500 C   0  0  0  0  0  0  0  0  0  0  0  0
   57.0550   33.7800   45.5950 S   0  0  0  0  0  0  0  0  0  0  0  0
   57.7556   25.9008   45.1479 H   0  0  0  0  0  0  0  0  0  0  0  0
   56.5645   27.0994   44.5154 H   0  0  0  0  0  0  0  0  0  0  0  0
   58.7308   29.9328   45.2192 H   0  0  0  0  0  0  0  0  0  0  0  0
   58.1496   28.6722   44.0665 H   0  0  0  0  0  0  0  0  0  0  0  0
   60.5178   30.9350   47.6137 H   0  0  0  0  0  0  0  0  0  0  0  0
   62.8786   30.8176   48.4033 H   0  0  0  0  0  0  0  0  0  0  0  0
   64.4667   32.6738   47.8947 H   0  0  0  0  0  0  0  0  0  0  0  0
   63.6898   34.6592   46.5983 H   0  0  0  0  0  0  0  0  0  0  0  0
   61.3312   34.7928   45.8055 H   0  0  0  0  0  0  0  0  0  0  0  0
   58.8831   35.0883   46.6729 H   0  0  0  0  0  0  0  0  0  0  0  0
  1  2  2  0
  2  3  1  0
  2  4  1  0
  4  5  1  0
  5  6  1  0
  6  7  1  0
  7  8  2  0
  7  9  1  0
  9 10  2  3
 10 11  1  0
 11 12  1  0
 12 13  1  0
 13 14  2  0
 14 15  1  0
 15 16  2  0
 16 17  1  0
 17 18  2  0
 12 19  2  0
 19 20  1  0
 20 10  1  0
 18 13  1  0
  4 21  1  0
  4 22  1  0
  6 23  1  0
  6 24  1  0
 14 25  1  0
 15 26  1  0
 16 27  1  0
 17 28  1  0
 18 29  1  0
 19 30  1  0
M  CHG  2   3  -1  11  -1
M  END
>  <UniqueID>  (1) 
1

>  <SMILES>  (1) 
O=C([O-])CSCC(=O)N=c1[n-]c(-c2ccccc2)cs1

>  <Energy>  (1) 
59.38909947729741

>  <Genealogy>  (1) 
O=C([O-])CSCC(=O)N=c1[n-]c(-c2ccccc2)cs1 (protonated)
O=C([O-])CSCC(=O)N=c1[n-]c(-c2ccccc2)cs1 (3D coordinates assigned)
O=C([O-])CSCC(=O)N=c1[n-]c(-c2ccccc2)cs1 (optimized conformer: 59.38909947729741 kcal/mol)

>  <smiles>  (1) 
O=C(O)CSCC(=O)N=c1[nH]c(-c2ccccc2)cs1

>  <score_type>  (1) 
oracle

>  <origin>  (1) 
adg

>  <m_score__min__energy>  (1) 
-12.16

>  <m_primary>  (1) 
energy

$$$$
1:0
     RDKit          3D

 47 50  0  0  0  0  0  0  0  0999 V2000
   57.5180   33.0270   47.3090 O   0  0  0  0  0  0  0  0  0  0  0  0
   57.7940   32.7490   46.1100 C   0  0  0  0  0  0  0  0  0  0  0  0
   56.7970   32.1820   45.2530 N   0  0  0  0  0  0  0  0  0  0  0  0
   56.9390   30.9500   44.5350 C   0  0  0  0  0  0  0  0  0  0  0  0
   56.5240   30.8730   43.1900 C   0  0  0  0  0  0  0  0  0  0  0  0
   56.6480   29.6670   42.4660 C   0  0  0  0  0  0  0  0  0  0  0  0
   57.1690   28.5150   43.0800 C   0  0  0  0  0  0  0  0  0  0  0  0
   57.5470   28.6090   44.4210 C   0  0  0  0  0  0  0  0  0  0  0  0
   57.4320   29.7760   45.1240 C   0  0  0  0  0  0  0  0  0  0  0  0
   57.8250   29.4640   46.4140 C   0  0  0  0  0  0  0  0  0  0  0  0
   58.1770   28.1580   46.4520 N   0  0  0  0  0  0  0  0  0  0  0  0
   58.0080   27.6430   45.2390 N   0  0  0  0  0  0  0  0  0  0  0  0
   58.3010   26.2500   44.9000 C   0  0  0  0  0  0  0  0  0  0  0  0
   57.0170   25.4140   44.8030 C   0  0  0  0  0  0  0  0  0  0  0  0
   56.1440   25.5130   46.0570 C   0  0  0  0  0  0  0  0  0  0  0  0
   55.4510   26.7300   46.0730 O   0  0  0  0  0  0  0  0  0  0  0  0
   59.1170   32.9550   45.6070 N   0  0  0  0  0  0  0  0  0  0  0  0
   60.1830   33.5240   46.4380 C   0  0  1  0  0  0  0  0  0  0  0  0
   59.7330   34.8570   47.0810 C   0  0  0  0  0  0  0  0  0  0  0  0
   59.6500   34.6320   48.6040 C   0  0  0  0  0  0  0  0  0  0  0  0
   60.1770   33.2610   48.7950 C   0  0  0  0  0  0  0  0  0  0  0  0
   60.3720   32.6060   50.0130 C   0  0  0  0  0  0  0  0  0  0  0  0
   60.8860   31.3000   50.0030 C   0  0  0  0  0  0  0  0  0  0  0  0
   61.0860   30.6430   51.1730 F   0  0  0  0  0  0  0  0  0  0  0  0
   61.1950   30.6720   48.7830 C   0  0  0  0  0  0  0  0  0  0  0  0
   60.9900   31.3480   47.5710 C   0  0  0  0  0  0  0  0  0  0  0  0
   61.2860   30.7470   46.3910 F   0  0  0  0  0  0  0  0  0  0  0  0
   60.4730   32.6480   47.6030 C   0  0  0  0  0  0  0  0  0  0  0  0
   56.0993   31.7613   42.6995 H   0  0  0  0  0  0  0  0  0  0  0  0
   56.3341   29.6288   41.4124 H   0  0  0  0  0  0  0  0  0  0  0  0
   57.2753   27.5721   42.5235 H   0  0  0  0  0  0  0  0  0  0  0  0
   57.8474   30.1605   47.2651 H   0  0  0  0  0  0  0  0  0  0  0  0
   58.8217   26.2195   43.9315 H   0  0  0  0  0  0  0  0  0  0  0  0
   58.9306   25.8256   45.6959 H   0  0  0  0  0  0  0  0  0  0  0  0
   56.4330   25.7670   43.9403 H   0  0  0  0  0  0  0  0  0  0  0  0
   57.3166   24.3614   44.6923 H   0  0  0  0  0  0  0  0  0  0  0  0
   55.4211   24.6839   46.0621 H   0  0  0  0  0  0  0  0  0  0  0  0
   56.7886   25.4570   46.9466 H   0  0  0  0  0  0  0  0  0  0  0  0
   56.1010   27.4140   46.3780 H   0  0  0  0  0  0  0  0  0  0  0  0
   59.3150   32.6920   44.6140 H   0  0  0  0  0  0  0  0  0  0  0  0
   61.0495   33.6458   45.7714 H   0  0  0  0  0  0  0  0  0  0  0  0
   60.4644   35.6476   46.8574 H   0  0  0  0  0  0  0  0  0  0  0  0
   58.7569   35.1697   46.6818 H   0  0  0  0  0  0  0  0  0  0  0  0
   60.2678   35.3664   49.1416 H   0  0  0  0  0  0  0  0  0  0  0  0
   58.6280   34.7499   48.9935 H   0  0  0  0  0  0  0  0  0  0  0  0
   60.1273   33.1044   50.9626 H   0  0  0  0  0  0  0  0  0  0  0  0
   61.5983   29.6486   48.7792 H   0  0  0  0  0  0  0  0  0  0  0  0
  1  2  2  0
  2  3  1  0
  3  4  1  0
  4  5  2  0
  5  6  1  0
  6  7  2  0
  7  8  1  0
  8  9  2  0
  9 10  1  0
 10 11  2  0
 11 12  1  0
 12 13  1  0
 13 14  1  0
 14 15  1  0
 15 16  1  0
  2 17  1  0
 17 18  1  0
 18 19  1  0
 19 20  1  0
 20 21  1  0
 21 22  2  0
 22 23  1  0
 23 24  1  0
 23 25  2  0
 25 26  1  0
 26 27  1  0
 26 28  2  0
  9  4  1  0
 28 18  1  0
 12  8  1  0
 28 21  1  0
  5 29  1  0
  6 30  1  0
  7 31  1  0
 10 32  1  0
 13 33  1  0
 13 34  1  0
 14 35  1  0
 14 36  1  0
 15 37  1  0
 15 38  1  0
 16 39  1  0
 17 40  1  0
 18 41  1  6
 19 42  1  0
 19 43  1  0
 20 44  1  0
 20 45  1  0
 22 46  1  0
 25 47  1  0
M  CHG  1   3  -1
M  END
>  <UniqueID>  (2) 
2

>  <SMILES>  (2) 
O=C([N-]c1cccc2c1cnn2CCCO)N[C@H]1CCc2cc(F)cc(F)c21

>  <Energy>  (2) 
95.69853660722465

>  <Genealogy>  (2) 
O=C([N-]c1cccc2c1cnn2CCCO)NC1CCc2cc(F)cc(F)c21 (protonated)
O=C([N-]c1cccc2c1cnn2CCCO)N[C@H]1CCc2cc(F)cc(F)c21 (chirality)
O=C([N-]c1cccc2c1cnn2CCCO)N[C@H]1CCc2cc(F)cc(F)c21 (3D coordinates assigned)
O=C([N-]c1cccc2c1cnn2CCCO)N[C@H]1CCc2cc(F)cc(F)c21 (nonaromatic ring conformer: 95.69853660722465 kcal/mol)

>  <smiles>  (2) 
O=C(Nc1cccc2c1cnn2CCCO)NC1CCc2cc(F)cc(F)c21

>  <score_type>  (2) 
oracle

>  <origin>  (2) 
adg

>  <m_score__min__energy>  (2) 
-9.9800000000000004

>  <m_primary>  (2) 
energy

$$$$
2:0
     RDKit          3D

 53 55  0  0  0  0  0  0  0  0999 V2000
   60.0400   34.5400   48.2050 C   0  0  0  0  0  0  0  0  0  0  0  0
   58.9300   33.5190   47.9790 C   0  0  0  0  0  0  0  0  0  0  0  0
   59.0760   32.8860   46.7100 O   0  0  0  0  0  0  0  0  0  0  0  0
   58.5760   33.4220   45.5170 C   0  0  0  0  0  0  0  0  0  0  0  0
   58.6920   34.6520   45.2650 O   0  0  0  0  0  0  0  0  0  0  0  0
   57.9020   32.5420   44.5560 C   0  0  0  0  0  0  0  0  0  0  0  0
   58.1420   32.4840   43.2010 C   0  0  0  0  0  0  0  0  0  0  0  0
   57.3480   31.5450   42.6570 N   0  0  0  0  0  0  0  0  0  0  0  0
   56.6360   31.0730   43.7060 C   0  0  0  0  0  0  0  0  0  0  0  0
   55.6600   29.9430   43.5900 C   0  0  0  0  0  0  0  0  0  0  0  0
   55.5750   29.1900   44.8420 N   0  0  0  0  0  0  0  0  0  0  0  0
   56.2960   28.1860   45.2660 C   0  0  0  0  0  0  0  0  0  0  0  0
   55.6390   27.0590   45.6310 N   0  0  0  0  0  0  0  0  0  0  0  0
   56.2840   25.9630   46.0880 C   0  0  0  0  0  0  0  0  0  0  0  0
   57.6790   25.9630   46.1890 C   0  0  0  0  0  0  0  0  0  0  0  0
   58.3530   24.7210   46.7270 C   0  0  0  0  0  0  0  0  0  0  0  0
   58.3830   27.0930   45.8300 N   0  0  0  0  0  0  0  0  0  0  0  0
   59.8630   27.1310   45.8790 C   0  0  0  0  0  0  0  0  0  0  0  0
   60.3310   27.9660   47.0380 C   0  0  0  0  0  0  0  0  0  0  0  0
   60.7880   27.3950   48.0670 O   0  0  0  0  0  0  0  0  0  0  0  0
   60.2630   29.3970   46.9810 N   0  0  0  0  0  0  0  0  0  0  0  0
   60.2270   30.2170   48.1870 C   0  0  0  0  0  0  0  0  0  0  0  0
   61.4490   31.0940   48.2440 C   0  0  0  0  0  0  0  0  0  0  0  0
   61.8880   31.7870   47.1030 C   0  0  0  0  0  0  0  0  0  0  0  0
   63.0480   32.5680   47.1570 C   0  0  0  0  0  0  0  0  0  0  0  0
   63.7790   32.6550   48.3450 C   0  0  0  0  0  0  0  0  0  0  0  0
   63.3530   31.9620   49.4820 C   0  0  0  0  0  0  0  0  0  0  0  0
   62.1930   31.1800   49.4330 C   0  0  0  0  0  0  0  0  0  0  0  0
   57.7110   28.2040   45.3660 C   0  0  0  0  0  0  0  0  0  0  0  0
   58.3650   29.2270   45.0240 O   0  0  0  0  0  0  0  0  0  0  0  0
   56.9560   31.6460   44.8880 N   0  0  0  0  0  0  0  0  0  0  0  0
   60.1938   34.6814   49.2850 H   0  0  0  0  0  0  0  0  0  0  0  0
   60.9715   34.1765   47.7465 H   0  0  0  0  0  0  0  0  0  0  0  0
   59.7554   35.4985   47.7465 H   0  0  0  0  0  0  0  0  0  0  0  0
   58.9751   32.7560   48.7701 H   0  0  0  0  0  0  0  0  0  0  0  0
   57.9613   34.0395   48.0043 H   0  0  0  0  0  0  0  0  0  0  0  0
   58.8657   33.1050   42.6528 H   0  0  0  0  0  0  0  0  0  0  0  0
   54.6671   30.3493   43.3470 H   0  0  0  0  0  0  0  0  0  0  0  0
   56.0045   29.2637   42.7963 H   0  0  0  0  0  0  0  0  0  0  0  0
   55.7116   25.0704   46.3807 H   0  0  0  0  0  0  0  0  0  0  0  0
   58.3404   24.7442   47.8267 H   0  0  0  0  0  0  0  0  0  0  0  0
   57.8150   23.8293   46.3729 H   0  0  0  0  0  0  0  0  0  0  0  0
   59.3938   24.6860   46.3729 H   0  0  0  0  0  0  0  0  0  0  0  0
   60.2477   26.1067   45.9923 H   0  0  0  0  0  0  0  0  0  0  0  0
   60.2381   27.5764   44.9458 H   0  0  0  0  0  0  0  0  0  0  0  0
   60.1200   29.8700   46.0590 H   0  0  0  0  0  0  0  0  0  0  0  0
   59.3255   30.8472   48.1733 H   0  0  0  0  0  0  0  0  0  0  0  0
   60.2082   29.5624   49.0708 H   0  0  0  0  0  0  0  0  0  0  0  0
   61.3182   31.7154   46.1648 H   0  0  0  0  0  0  0  0  0  0  0  0
   63.3848   33.1140   46.2634 H   0  0  0  0  0  0  0  0  0  0  0  0
   64.6905   33.2694   48.3855 H   0  0  0  0  0  0  0  0  0  0  0  0
   63.9299   32.0313   50.4160 H   0  0  0  0  0  0  0  0  0  0  0  0
   61.8630   30.6314   50.3275 H   0  0  0  0  0  0  0  0  0  0  0  0
  1  2  1  0
  2  3  1  0
  3  4  1  0
  4  5  2  0
  4  6  1  0
  6  7  2  0
  7  8  1  0
  8  9  1  0
  9 10  1  0
 10 11  1  0
 11 12  2  3
 12 13  1  0
 13 14  1  0
 14 15  2  0
 15 16  1  0
 15 17  1  0
 17 18  1  0
 18 19  1  0
 19 20  2  0
 19 21  1  0
 21 22  1  0
 22 23  1  0
 23 24  2  0
 24 25  1  0
 25 26  2  0
 26 27  1  0
 27 28  2  0
 17 29  1  0
 29 30  2  0
  9 31  2  0
 31  6  1  0
 29 12  1  0
 28 23  1  0
  1 32  1  0
  1 33  1  0
  1 34  1  0
  2 35  1  0
  2 36  1  0
  7 37  1  0
 10 38  1  0
 10 39  1  0
 14 40  1  0
 16 41  1  0
 16 42  1  0
 16 43  1  0
 18 44  1  0
 18 45  1  0
 21 46  1  0
 22 47  1  0
 22 48  1  0
 24 49  1  0
 25 50  1  0
 26 51  1  0
 27 52  1  0
 28 53  1  0
M  CHG  2   8  -1  13  -1
M  END
>  <UniqueID>  (3) 
3

>  <SMILES>  (3) 
CCOC(=O)c1c[n-]c(CN=c2[n-]cc(C)n(CC(=O)NCc3ccccc3)c2=O)n1

>  <Energy>  (3) 
82.10257707616235

>  <Genealogy>  (3) 
CCOC(=O)c1c[n-]c(CN=c2[n-]cc(C)n(CC(=O)NCc3ccccc3)c2=O)n1 (protonated)
CCOC(=O)c1c[n-]c(CN=c2[n-]cc(C)n(CC(=O)NCc3ccccc3)c2=O)n1 (3D coordinates assigned)
CCOC(=O)c1c[n-]c(CN=c2[n-]cc(C)n(CC(=O)NCc3ccccc3)c2=O)n1 (optimized conformer: 82.10257707616235 kcal/mol)

>  <smiles>  (3) 
CCOC(=O)c1c[nH]c(CN=c2[nH]cc(C)n(CC(=O)NCc3ccccc3)c2=O)n1

>  <score_type>  (3) 
oracle

>  <origin>  (3) 
adg

>  <m_score__min__energy>  (3) 
-11.619999999999999

>  <m_primary>  (3) 
energy

$$$$
3:0
     RDKit          3D

 43 45  0  0  0  0  0  0  0  0999 V2000
   55.9580   30.3370   42.9010 O   0  0  0  0  0  0  0  0  0  0  0  0
   56.5090   30.2870   44.0320 C   0  0  0  0  0  0  0  0  0  0  0  0
   57.1010   28.9910   44.5040 C   0  0  0  0  0  0  0  0  0  0  0  0
   56.1010   28.2350   45.2540 N   0  0  0  0  0  0  0  0  0  0  0  0
   56.7910   26.7380   45.8020 S   0  0  0  0  0  0  0  0  0  0  0  0
   55.8330   26.0620   46.7410 O   0  0  0  0  0  0  0  0  0  0  0  0
   57.0360   25.8310   44.6270 O   0  0  0  0  0  0  0  0  0  0  0  0
   58.3040   27.0310   46.6420 C   0  0  0  0  0  0  0  0  0  0  0  0
   59.4740   26.3070   46.4730 C   0  0  0  0  0  0  0  0  0  0  0  0
   60.5030   26.7300   47.3220 C   0  0  0  0  0  0  0  0  0  0  0  0
   60.1410   27.7770   48.1600 C   0  0  0  0  0  0  0  0  0  0  0  0
   58.5370   28.1780   47.8470 S   0  0  0  0  0  0  0  0  0  0  0  0
   56.5220   31.4680   44.8470 N   0  0  0  0  0  0  0  0  0  0  0  0
   57.6470   31.9920   45.5670 C   0  0  0  0  0  0  0  0  0  0  0  0
   58.3450   31.1510   46.4390 C   0  0  0  0  0  0  0  0  0  0  0  0
   59.4410   31.6320   47.1630 C   0  0  0  0  0  0  0  0  0  0  0  0
   59.8490   32.9710   47.0280 C   0  0  0  0  0  0  0  0  0  0  0  0
   60.9600   33.4970   47.7740 N   0  0  0  0  0  0  0  0  0  0  0  0
   62.2110   32.8050   47.9330 C   0  0  0  0  0  0  0  0  0  0  0  0
   62.5360   31.9050   47.1120 O   0  0  0  0  0  0  0  0  0  0  0  0
   63.1480   33.1720   49.0240 C   0  0  0  0  0  0  0  0  0  0  0  0
   64.4630   32.6680   49.0260 C   0  0  0  0  0  0  0  0  0  0  0  0
   65.3490   33.0050   50.0540 C   0  0  0  0  0  0  0  0  0  0  0  0
   64.9340   33.8430   51.0910 C   0  0  0  0  0  0  0  0  0  0  0  0
   63.6290   34.3410   51.1060 C   0  0  0  0  0  0  0  0  0  0  0  0
   62.7390   34.0070   50.0800 C   0  0  0  0  0  0  0  0  0  0  0  0
   59.1130   33.8260   46.1940 C   0  0  0  0  0  0  0  0  0  0  0  0
   58.0180   33.3430   45.4710 C   0  0  0  0  0  0  0  0  0  0  0  0
   57.4289   28.4013   43.6352 H   0  0  0  0  0  0  0  0  0  0  0  0
   57.9621   29.2007   45.1556 H   0  0  0  0  0  0  0  0  0  0  0  0
   59.5822   25.4867   45.7482 H   0  0  0  0  0  0  0  0  0  0  0  0
   61.5048   26.2758   47.3254 H   0  0  0  0  0  0  0  0  0  0  0  0
   60.7923   28.2617   48.9022 H   0  0  0  0  0  0  0  0  0  0  0  0
   58.0300   30.1036   46.5565 H   0  0  0  0  0  0  0  0  0  0  0  0
   59.9865   30.9595   47.8413 H   0  0  0  0  0  0  0  0  0  0  0  0
   60.8950   34.4810   48.1170 H   0  0  0  0  0  0  0  0  0  0  0  0
   64.7953   32.0049   48.2136 H   0  0  0  0  0  0  0  0  0  0  0  0
   66.3752   32.6091   50.0457 H   0  0  0  0  0  0  0  0  0  0  0  0
   65.6344   34.1109   51.8958 H   0  0  0  0  0  0  0  0  0  0  0  0
   63.3008   34.9968   51.9259 H   0  0  0  0  0  0  0  0  0  0  0  0
   61.7118   34.4000   50.0988 H   0  0  0  0  0  0  0  0  0  0  0  0
   59.3996   34.8845   46.1082 H   0  0  0  0  0  0  0  0  0  0  0  0
   57.4449   34.0239   44.8245 H   0  0  0  0  0  0  0  0  0  0  0  0
  1  2  2  0
  2  3  1  0
  3  4  1  0
  4  5  1  0
  5  6  2  0
  5  7  2  0
  5  8  1  0
  8  9  2  0
  9 10  1  0
 10 11  2  0
 11 12  1  0
  2 13  1  0
 13 14  1  0
 14 15  2  0
 15 16  1  0
 16 17  2  0
 17 18  1  0
 18 19  1  0
 19 20  2  0
 19 21  1  0
 21 22  2  0
 22 23  1  0
 23 24  2  0
 24 25  1  0
 25 26  2  0
 17 27  1  0
 27 28  2  0
 12  8  1  0
 28 14  1  0
 26 21  1  0
  3 29  1  0
  3 30  1  0
  9 31  1  0
 10 32  1  0
 11 33  1  0
 15 34  1  0
 16 35  1  0
 18 36  1  0
 22 37  1  0
 23 38  1  0
 24 39  1  0
 25 40  1  0
 26 41  1  0
 27 42  1  0
 28 43  1  0
M  CHG  2   4  -1  13  -1
M  END
>  <UniqueID>  (4) 
4

>  <SMILES>  (4) 
O=C(C[N-]S(=O)(=O)c1cccs1)[N-]c1ccc(NC(=O)c2ccccc2)cc1

>  <Energy>  (4) 
78.64449345002053

>  <Genealogy>  (4) 
O=C(C[N-]S(=O)(=O)c1cccs1)[N-]c1ccc(NC(=O)c2ccccc2)cc1 (protonated)
O=C(C[N-]S(=O)(=O)c1cccs1)[N-]c1ccc(NC(=O)c2ccccc2)cc1 (3D coordinates assigned)
O=C(C[N-]S(=O)(=O)c1cccs1)[N-]c1ccc(NC(=O)c2ccccc2)cc1 (optimized conformer: 78.64449345002053 kcal/mol)

>  <smiles>  (4) 
O=C(CNS(=O)(=O)c1cccs1)Nc1ccc(NC(=O)c2ccccc2)cc1

>  <score_type>  (4) 
oracle

>  <origin>  (4) 
adg

>  <m_score__min__energy>  (4) 
-11.69

>  <m_primary>  (4) 
energy

$$$$
4:0
     RDKit          3D

 94 99  0  0  0  0  0  0  0  0999 V2000
   66.0440   34.5250   54.2720 O   0  0  0  0  0  0  0  0  0  0  0  0
   65.7060   33.7150   53.3650 C   0  0  0  0  0  0  0  0  0  0  0  0
   64.3910   33.8980   52.6330 C   0  0  0  0  0  0  0  0  0  0  0  0
   63.1600   33.4600   53.4480 C   0  0  0  0  0  0  0  0  0  0  0  0
   62.8880   31.9950   53.2920 C   0  0  0  0  0  0  0  0  0  0  0  0
   61.7060   31.4860   52.8960 N   0  0  0  0  0  0  0  0  0  0  0  0
   61.9720   30.1650   52.9130 C   0  0  0  0  0  0  0  0  0  0  0  0
   60.9910   29.1270   52.4770 C   0  0  0  0  0  0  0  0  0  0  0  0
   60.4450   29.4370   51.1060 C   0  0  0  0  0  0  0  0  0  0  0  0
   61.0100   28.8400   49.9670 C   0  0  0  0  0  0  0  0  0  0  0  0
   60.5010   29.1190   48.6970 C   0  0  0  0  0  0  0  0  0  0  0  0
   59.4210   30.0040   48.5410 C   0  0  0  0  0  0  0  0  0  0  0  0
   58.8550   30.2910   47.2910 O   0  0  0  0  0  0  0  0  0  0  0  0
   58.5860   29.1310   46.0560 S   0  0  0  0  0  0  0  0  0  0  0  0
   57.6190   28.0860   46.5410 O   0  0  0  0  0  0  0  0  0  0  0  0
   59.8840   28.4640   45.7040 O   0  0  0  0  0  0  0  0  0  0  0  0
   57.9570   29.9490   44.6300 C   0  0  0  0  0  0  0  0  0  0  0  0
   58.5180   31.1600   44.1910 C   0  0  0  0  0  0  0  0  0  0  0  0
   58.0420   31.7840   43.0310 C   0  0  0  0  0  0  0  0  0  0  0  0
   57.0070   31.1880   42.3000 C   0  0  0  0  0  0  0  0  0  0  0  0
   56.4430   29.9740   42.7320 C   0  0  0  0  0  0  0  0  0  0  0  0
   56.9160   29.3590   43.8940 C   0  0  0  0  0  0  0  0  0  0  0  0
   58.8850   30.6310   49.6730 C   0  0  0  0  0  0  0  0  0  0  0  0
   59.3860   30.3490   50.9480 C   0  0  0  0  0  0  0  0  0  0  0  0
   63.2390   29.8910   53.2860 N   0  0  0  0  0  0  0  0  0  0  0  0
   63.7710   31.0520   53.5180 O   0  0  0  0  0  0  0  0  0  0  0  0
   66.5970   32.6390   53.0440 N   0  0  0  0  0  0  0  0  0  0  0  0
   66.9800   32.1300   51.4320 S   0  0  0  0  0  0  0  0  0  0  0  0
   68.0480   33.0270   50.8710 O   0  0  0  0  0  0  0  0  0  0  0  0
   67.5030   30.7220   51.4840 O   0  0  0  0  0  0  0  0  0  0  0  0
   65.5330   32.1590   50.4310 C   0  0  0  0  0  0  0  0  0  0  0  0
   65.3950   33.0910   49.3950 C   0  0  0  0  0  0  0  0  0  0  0  0
   64.2390   33.1010   48.6090 C   0  0  0  0  0  0  0  0  0  0  0  0
   63.2060   32.1810   48.8480 C   0  0  0  0  0  0  0  0  0  0  0  0
   61.9610   32.1830   47.9840 C   0  0  0  0  0  0  0  0  0  0  0  0
   61.0150   33.2910   48.2730 N   0  0  0  0  0  0  0  0  0  0  0  0
   61.3200   33.9920   49.5400 C   0  0  0  0  0  0  0  0  0  0  0  0
   60.4930   33.4220   50.7030 C   0  0  0  0  0  0  0  0  0  0  0  0
   59.2890   34.1420   50.8920 O   0  0  0  0  0  0  0  0  0  0  0  0
   58.9210   34.2060   52.2580 C   0  0  0  0  0  0  0  0  0  0  0  0
   58.2410   32.9330   52.6780 C   0  0  0  0  0  0  0  0  0  0  0  0
   57.1190   32.4660   51.9690 C   0  0  0  0  0  0  0  0  0  0  0  0
   56.4820   31.2860   52.3670 C   0  0  0  0  0  0  0  0  0  0  0  0
   56.9560   30.5670   53.4710 C   0  0  0  0  0  0  0  0  0  0  0  0
   58.0570   31.0380   54.1870 C   0  0  0  0  0  0  0  0  0  0  0  0
   58.6970   32.2190   53.7960 C   0  0  0  0  0  0  0  0  0  0  0  0
   60.8510   34.2300   47.1410 C   0  0  0  0  0  0  0  0  0  0  0  0
   59.4650   34.1330   46.5630 C   0  0  0  0  0  0  0  0  0  0  0  0
   59.1880   34.6820   45.2970 C   0  0  0  0  0  0  0  0  0  0  0  0
   57.9050   34.5810   44.7520 C   0  0  0  0  0  0  0  0  0  0  0  0
   56.8980   33.9070   45.4540 C   0  0  0  0  0  0  0  0  0  0  0  0
   57.1700   33.3450   46.7050 C   0  0  0  0  0  0  0  0  0  0  0  0
   58.4470   33.4600   47.2610 C   0  0  0  0  0  0  0  0  0  0  0  0
   63.3650   31.2280   49.8650 C   0  0  0  0  0  0  0  0  0  0  0  0
   64.5150   31.2290   50.6580 C   0  0  0  0  0  0  0  0  0  0  0  0
   64.2794   34.9630   52.3814 H   0  0  0  0  0  0  0  0  0  0  0  0
   64.4292   33.2564   51.7403 H   0  0  0  0  0  0  0  0  0  0  0  0
   63.3395   33.6785   54.5110 H   0  0  0  0  0  0  0  0  0  0  0  0
   62.2858   34.0138   53.0752 H   0  0  0  0  0  0  0  0  0  0  0  0
   61.4917   28.1479   52.4512 H   0  0  0  0  0  0  0  0  0  0  0  0
   60.1546   29.1152   53.1914 H   0  0  0  0  0  0  0  0  0  0  0  0
   61.8585   28.1485   50.0761 H   0  0  0  0  0  0  0  0  0  0  0  0
   60.9488   28.6425   47.8124 H   0  0  0  0  0  0  0  0  0  0  0  0
   59.3369   31.6213   44.7624 H   0  0  0  0  0  0  0  0  0  0  0  0
   58.4786   32.7365   42.6962 H   0  0  0  0  0  0  0  0  0  0  0  0
   56.6337   31.6708   41.3848 H   0  0  0  0  0  0  0  0  0  0  0  0
   55.6299   29.5090   42.1553 H   0  0  0  0  0  0  0  0  0  0  0  0
   56.4725   28.4112   44.2331 H   0  0  0  0  0  0  0  0  0  0  0  0
   58.0622   31.3520   49.5582 H   0  0  0  0  0  0  0  0  0  0  0  0
   58.9506   30.8419   51.8297 H   0  0  0  0  0  0  0  0  0  0  0  0
   66.1980   33.8168   49.1992 H   0  0  0  0  0  0  0  0  0  0  0  0
   64.1380   33.8358   47.7966 H   0  0  0  0  0  0  0  0  0  0  0  0
   62.2725   32.2622   46.9320 H   0  0  0  0  0  0  0  0  0  0  0  0
   61.4252   31.2477   48.2035 H   0  0  0  0  0  0  0  0  0  0  0  0
   62.3895   33.8725   49.7678 H   0  0  0  0  0  0  0  0  0  0  0  0
   61.0657   35.0554   49.4199 H   0  0  0  0  0  0  0  0  0  0  0  0
   60.2497   32.3714   50.4860 H   0  0  0  0  0  0  0  0  0  0  0  0
   61.0909   33.5066   51.6225 H   0  0  0  0  0  0  0  0  0  0  0  0
   59.8231   34.3538   52.8698 H   0  0  0  0  0  0  0  0  0  0  0  0
   58.2253   35.0460   52.4010 H   0  0  0  0  0  0  0  0  0  0  0  0
   56.7428   33.0287   51.1019 H   0  0  0  0  0  0  0  0  0  0  0  0
   55.6057   30.9217   51.8108 H   0  0  0  0  0  0  0  0  0  0  0  0
   56.4611   29.6323   53.7734 H   0  0  0  0  0  0  0  0  0  0  0  0
   58.4227   30.4793   55.0611 H   0  0  0  0  0  0  0  0  0  0  0  0
   59.5610   32.5891   54.3674 H   0  0  0  0  0  0  0  0  0  0  0  0
   61.0225   35.2568   47.4964 H   0  0  0  0  0  0  0  0  0  0  0  0
   61.5786   33.9693   46.3583 H   0  0  0  0  0  0  0  0  0  0  0  0
   59.9839   35.1922   44.7347 H   0  0  0  0  0  0  0  0  0  0  0  0
   57.6863   35.0307   43.7722 H   0  0  0  0  0  0  0  0  0  0  0  0
   55.8909   33.8196   45.0203 H   0  0  0  0  0  0  0  0  0  0  0  0
   56.3783   32.8120   47.2520 H   0  0  0  0  0  0  0  0  0  0  0  0
   58.6563   33.0224   48.2483 H   0  0  0  0  0  0  0  0  0  0  0  0
   62.5807   30.4766   50.0388 H   0  0  0  0  0  0  0  0  0  0  0  0
   64.6201   30.4918   51.4676 H   0  0  0  0  0  0  0  0  0  0  0  0
  1  2  2  0
  2  3  1  0
  3  4  1  0
  4  5  1  0
  5  6  2  0
  6  7  1  0
  7  8  1  0
  8  9  1  0
  9 10  2  0
 10 11  1  0
 11 12  2  0
 12 13  1  0
 13 14  1  0
 14 15  2  0
 14 16  2  0
 14 17  1  0
 17 18  2  0
 18 19  1  0
 19 20  2  0
 20 21  1  0
 21 22  2  0
 12 23  1  0
 23 24  2  0
  7 25  2  0
 25 26  1  0
  2 27  1  0
 27 28  1  0
 28 29  2  0
 28 30  2  0
 28 31  1  0
 31 32  2  0
 32 33  1  0
 33 34  2  0
 34 35  1  0
 35 36  1  0
 36 37  1  0
 37 38  1  0
 38 39  1  0
 39 40  1  0
 40 41  1  0
 41 42  2  0
 42 43  1  0
 43 44  2  0
 44 45  1  0
 45 46  2  0
 36 47  1  0
 47 48  1  0
 48 49  2  0
 49 50  1  0
 50 51  2  0
 51 52  1  0
 52 53  2  0
 34 54  1  0
 54 55  2  0
 26  5  1  0
 55 31  1  0
 24  9  1  0
 46 41  1  0
 53 48  1  0
 22 17  1  0
  3 56  1  0
  3 57  1  0
  4 58  1  0
  4 59  1  0
  8 60  1  0
  8 61  1  0
 10 62  1  0
 11 63  1  0
 18 64  1  0
 19 65  1  0
 20 66  1  0
 21 67  1  0
 22 68  1  0
 23 69  1  0
 24 70  1  0
 32 71  1  0
 33 72  1  0
 35 73  1  0
 35 74  1  0
 37 75  1  0
 37 76  1  0
 38 77  1  0
 38 78  1  0
 40 79  1  0
 40 80  1  0
 42 81  1  0
 43 82  1  0
 44 83  1  0
 45 84  1  0
 46 85  1  0
 47 86  1  0
 47 87  1  0
 49 88  1  0
 50 89  1  0
 51 90  1  0
 52 91  1  0
 53 92  1  0
 54 93  1  0
 55 94  1  0
M  CHG  1  27  -1
M  END
>  <UniqueID>  (5) 
5

>  <SMILES>  (5) 
O=C(CCc1nc(Cc2ccc(OS(=O)(=O)c3ccccc3)cc2)no1)[N-]S(=O)(=O)c1ccc(CN(CCOCc2ccccc2)Cc2ccccc2)cc1

>  <Energy>  (5) 
127.21726420050243

>  <Genealogy>  (5) 
O=C(CCc1nc(Cc2ccc(OS(=O)(=O)c3ccccc3)cc2)no1)[N-]S(=O)(=O)c1ccc(CN(CCOCc2ccccc2)Cc2ccccc2)cc1 (protonated)
O=C(CCc1nc(Cc2ccc(OS(=O)(=O)c3ccccc3)cc2)no1)[N-]S(=O)(=O)c1ccc(CN(CCOCc2ccccc2)Cc2ccccc2)cc1 (3D coordinates assigned)
O=C(CCc1nc(Cc2ccc(OS(=O)(=O)c3ccccc3)cc2)no1)[N-]S(=O)(=O)c1ccc(CN(CCOCc2ccccc2)Cc2ccccc2)cc1 (optimized conformer: 127.21726420050243 kcal/mol)

>  <smiles>  (5) 
O=C(CCc1nc(Cc2ccc(OS(=O)(=O)c3ccccc3)cc2)no1)NS(=O)(=O)c1ccc(CN(CCOCc2ccccc2)Cc2ccccc2)cc1

>  <score_type>  (5) 
oracle

>  <origin>  (5) 
adg

>  <m_score__min__energy>  (5) 
-13.279999999999999

>  <m_primary>  (5) 
energy

$$$$
5:0
     RDKit          3D

 42 44  0  0  0  0  0  0  0  0999 V2000
   57.1660   32.0740   52.6360 O   0  0  0  0  0  0  0  0  0  0  0  0
   57.1000   31.1440   51.7860 C   0  0  0  0  0  0  0  0  0  0  0  0
   56.0250   30.2010   51.8570 N   0  0  0  0  0  0  0  0  0  0  0  0
   55.8450   29.2520   52.9510 C   0  0  0  0  0  0  0  0  0  0  0  0
   54.4290   28.6640   52.9430 C   0  0  0  0  0  0  0  0  0  0  0  0
   53.4010   29.7080   52.5910 C   0  0  0  0  0  0  0  0  0  0  0  0
   53.2000   30.0790   51.2510 C   0  0  0  0  0  0  0  0  0  0  0  0
   52.2770   31.0790   50.9280 C   0  0  0  0  0  0  0  0  0  0  0  0
   51.5550   31.7200   51.9400 C   0  0  0  0  0  0  0  0  0  0  0  0
   50.6400   32.7150   51.6170 O   0  0  0  0  0  0  0  0  0  0  0  0
   51.7590   31.3630   53.2770 C   0  0  0  0  0  0  0  0  0  0  0  0
   52.6790   30.3630   53.6030 C   0  0  0  0  0  0  0  0  0  0  0  0
   58.1380   31.0320   50.7300 C   0  0  0  0  0  0  0  0  0  0  0  0
   58.1730   31.9830   49.6900 C   0  0  0  0  0  0  0  0  0  0  0  0
   59.1380   31.9060   48.6760 C   0  0  0  0  0  0  0  0  0  0  0  0
   59.1630   32.8880   47.6230 N   0  0  0  0  0  0  0  0  0  0  0  0
   58.4940   32.6450   46.4500 C   0  0  0  0  0  0  0  0  0  0  0  0
   57.7780   31.4640   46.2730 O   0  0  0  0  0  0  0  0  0  0  0  0
   58.5120   33.5860   45.4180 C   0  0  0  0  0  0  0  0  0  0  0  0
   59.2100   34.7800   45.5860 C   0  0  0  0  0  0  0  0  0  0  0  0
   59.2310   35.6370   44.6640 O   0  0  0  0  0  0  0  0  0  0  0  0
   59.8860   35.0210   46.7820 C   0  0  0  0  0  0  0  0  0  0  0  0
   59.8580   34.0580   47.8000 C   0  0  0  0  0  0  0  0  0  0  0  0
   60.5490   34.2940   48.9900 O   0  0  0  0  0  0  0  0  0  0  0  0
   60.0780   30.8670   48.6930 C   0  0  0  0  0  0  0  0  0  0  0  0
   60.0510   29.9150   49.7120 C   0  0  0  0  0  0  0  0  0  0  0  0
   59.0890   29.9850   50.7250 C   0  0  0  0  0  0  0  0  0  0  0  0
   59.0880   29.0010   51.7080 O   0  0  0  0  0  0  0  0  0  0  0  0
   56.5739   28.4354   52.8421 H   0  0  0  0  0  0  0  0  0  0  0  0
   55.9983   29.7820   53.9026 H   0  0  0  0  0  0  0  0  0  0  0  0
   54.3829   27.8524   52.2019 H   0  0  0  0  0  0  0  0  0  0  0  0
   54.2061   28.2855   53.9515 H   0  0  0  0  0  0  0  0  0  0  0  0
   53.7705   29.5813   50.4530 H   0  0  0  0  0  0  0  0  0  0  0  0
   52.1187   31.3617   49.8768 H   0  0  0  0  0  0  0  0  0  0  0  0
   51.1943   31.8703   54.0731 H   0  0  0  0  0  0  0  0  0  0  0  0
   52.8386   30.0875   54.6559 H   0  0  0  0  0  0  0  0  0  0  0  0
   57.4330   32.7967   49.6739 H   0  0  0  0  0  0  0  0  0  0  0  0
   57.9779   33.3854   44.4775 H   0  0  0  0  0  0  0  0  0  0  0  0
   60.4380   35.9616   46.9255 H   0  0  0  0  0  0  0  0  0  0  0  0
   60.5780   33.6060   49.7330 H   0  0  0  0  0  0  0  0  0  0  0  0
   60.8387   30.8020   47.9011 H   0  0  0  0  0  0  0  0  0  0  0  0
   60.7924   29.1024   49.7191 H   0  0  0  0  0  0  0  0  0  0  0  0
  1  2  2  0
  2  3  1  0
  3  4  1  0
  4  5  1  0
  5  6  1  0
  6  7  2  0
  7  8  1  0
  8  9  2  0
  9 10  1  0
  9 11  1  0
 11 12  2  0
  2 13  1  0
 13 14  2  0
 14 15  1  0
 15 16  1  0
 16 17  1  0
 17 18  1  0
 17 19  2  0
 19 20  1  0
 20 21  2  0
 20 22  1  0
 22 23  2  0
 23 24  1  0
 15 25  2  0
 25 26  1  0
 26 27  2  0
 27 28  1  0
 12  6  1  0
 27 13  1  0
 23 16  1  0
  4 29  1  0
  4 30  1  0
  5 31  1  0
  5 32  1  0
  7 33  1  0
  8 34  1  0
 11 35  1  0
 12 36  1  0
 14 37  1  0
 19 38  1  0
 22 39  1  0
 24 40  1  0
 25 41  1  0
 26 42  1  0
M  CHG  4   3  -1  10  -1  18  -1  28  -1
M  END
>  <UniqueID>  (6) 
6

>  <SMILES>  (6) 
O=C([N-]CCc1ccc([O-])cc1)c1cc(-n2c([O-])cc(=O)cc2O)ccc1[O-]

>  <Energy>  (6) 
52.02609249550706

>  <Genealogy>  (6) 
O=C([N-]CCc1ccc([O-])cc1)c1cc(-n2c([O-])cc(=O)cc2O)ccc1[O-] (protonated)
O=C([N-]CCc1ccc([O-])cc1)c1cc(-n2c([O-])cc(=O)cc2O)ccc1[O-] (3D coordinates assigned)
O=C([N-]CCc1ccc([O-])cc1)c1cc(-n2c([O-])cc(=O)cc2O)ccc1[O-] (optimized conformer: 52.02609249550706 kcal/mol)

>  <smiles>  (6) 
O=C(NCCc1ccc(O)cc1)c1cc(-n2c(O)cc(=O)cc2O)ccc1O

>  <score_type>  (6) 
oracle

>  <origin>  (6) 
adg

>  <m_score__min__energy>  (6) 
-14.59

>  <m_primary>  (6) 
energy

$$$$
6:0
     RDKit          3D

 27 28  0  0  0  0  0  0  0  0999 V2000
   57.5700   33.4240   45.1300 C   0  0  0  0  0  0  0  0  0  0  0  0
   58.0630   33.7950   46.3140 C   0  0  0  0  0  0  0  0  0  0  0  0
   58.4150   32.7840   47.3690 C   0  0  0  0  0  0  0  0  0  0  0  0
   58.7720   31.5040   46.7560 N   0  0  0  0  0  0  0  0  0  0  0  0
   60.0960   30.9390   46.7930 C   0  0  0  0  0  0  0  0  0  0  0  0
   61.3940   31.8680   47.1740 S   0  0  0  0  0  0  0  0  0  0  0  0
   60.3210   29.5970   46.3360 N   0  0  0  0  0  0  0  0  0  0  0  0
   59.3510   28.5430   46.4430 C   0  0  0  0  0  0  0  0  0  0  0  0
   59.6780   27.3690   47.1690 C   0  0  0  0  0  0  0  0  0  0  0  0
   58.7420   26.3280   47.3120 C   0  0  0  0  0  0  0  0  0  0  0  0
   57.4900   26.4990   46.7330 C   0  0  0  0  0  0  0  0  0  0  0  0
   56.4530   25.6470   46.7530 N   0  0  0  0  0  0  0  0  0  0  0  0
   55.5120   26.3310   46.0540 C   0  0  0  0  0  0  0  0  0  0  0  0
   54.3620   25.8670   45.8400 O   0  0  0  0  0  0  0  0  0  0  0  0
   55.8960   27.5530   45.6040 N   0  0  0  0  0  0  0  0  0  0  0  0
   57.1590   27.6300   46.0500 C   0  0  0  0  0  0  0  0  0  0  0  0
   58.0550   28.6820   45.8870 C   0  0  0  0  0  0  0  0  0  0  0  0
   57.3206   34.1845   44.3753 H   0  0  0  0  0  0  0  0  0  0  0  0
   57.4132   32.3579   44.9092 H   0  0  0  0  0  0  0  0  0  0  0  0
   58.2150   34.8644   46.5220 H   0  0  0  0  0  0  0  0  0  0  0  0
   59.2689   33.1550   47.9549 H   0  0  0  0  0  0  0  0  0  0  0  0
   57.5425   32.6338   48.0219 H   0  0  0  0  0  0  0  0  0  0  0  0
   58.0170   30.9800   46.2590 H   0  0  0  0  0  0  0  0  0  0  0  0
   61.2440   29.3740   45.8990 H   0  0  0  0  0  0  0  0  0  0  0  0
   60.6742   27.2713   47.6252 H   0  0  0  0  0  0  0  0  0  0  0  0
   58.9927   25.4098   47.8634 H   0  0  0  0  0  0  0  0  0  0  0  0
   57.7662   29.5936   45.3433 H   0  0  0  0  0  0  0  0  0  0  0  0
  1  2  2  0
  2  3  1  0
  3  4  1  0
  4  5  1  0
  5  6  2  0
  5  7  1  0
  7  8  1  0
  8  9  2  0
  9 10  1  0
 10 11  2  0
 11 12  1  0
 12 13  1  0
 13 14  2  0
 13 15  1  0
 15 16  1  0
 16 17  2  0
 17  8  1  0
 16 11  1  0
  1 18  1  0
  1 19  1  0
  2 20  1  0
  3 21  1  0
  3 22  1  0
  4 23  1  0
  7 24  1  0
  9 25  1  0
 10 26  1  0
 17 27  1  0
M  CHG  2  12  -1  15  -1
M  END
>  <UniqueID>  (7) 
7

>  <SMILES>  (7) 
C=CCNC(=S)Nc1ccc2[n-]c(=O)[n-]c2c1

>  <Energy>  (7) 
61.64759431509026

>  <Genealogy>  (7) 
C=CCNC(=S)Nc1ccc2[n-]c(=O)[n-]c2c1 (protonated)
C=CCNC(=S)Nc1ccc2[n-]c(=O)[n-]c2c1 (3D coordinates assigned)
C=CCNC(=S)Nc1ccc2[n-]c(=O)[n-]c2c1 (optimized conformer: 61.64759431509026 kcal/mol)

>  <smiles>  (7) 
C=CCNC(=S)Nc1ccc2[nH]c(=O)[nH]c2c1

>  <score_type>  (7) 
oracle

>  <origin>  (7) 
adg

>  <m_score__min__energy>  (7) 
-9.8900000000000006

>  <m_primary>  (7) 
energy

$$$$
7:0
     RDKit          3D

 43 45  0  0  0  0  0  0  0  0999 V2000
   64.4390   33.0840   48.8730 C   0  0  0  0  0  0  0  0  0  0  0  0
   63.2630   33.7660   48.4480 O   0  0  0  0  0  0  0  0  0  0  0  0
   62.0630   33.8040   49.1750 C   0  0  0  0  0  0  0  0  0  0  0  0
   60.8560   33.8110   48.4690 C   0  0  0  0  0  0  0  0  0  0  0  0
   59.6370   33.8230   49.1520 C   0  0  0  0  0  0  0  0  0  0  0  0
   59.6160   33.8300   50.5480 C   0  0  0  0  0  0  0  0  0  0  0  0
   60.8120   33.8310   51.2750 C   0  0  0  0  0  0  0  0  0  0  0  0
   60.7440   33.8220   52.7090 N   0  0  0  0  0  0  0  0  0  0  0  0
   59.2890   33.9630   53.6430 S   0  0  0  0  0  0  0  0  0  0  0  0
   59.6490   34.2580   55.0730 O   0  0  0  0  0  0  0  0  0  0  0  0
   58.4630   35.0980   53.1080 O   0  0  0  0  0  0  0  0  0  0  0  0
   58.3530   32.4740   53.5270 C   0  0  0  0  0  0  0  0  0  0  0  0
   58.5670   31.4480   54.4540 C   0  0  0  0  0  0  0  0  0  0  0  0
   57.7810   30.2930   54.4160 C   0  0  0  0  0  0  0  0  0  0  0  0
   56.7790   30.1590   53.4530 C   0  0  0  0  0  0  0  0  0  0  0  0
   56.5680   31.1730   52.5010 C   0  0  0  0  0  0  0  0  0  0  0  0
   55.5080   31.0880   51.5330 N   0  0  0  0  0  0  0  0  0  0  0  0
   54.2660   30.4050   51.7570 C   0  0  0  0  0  0  0  0  0  0  0  0
   54.1560   29.5590   52.6860 O   0  0  0  0  0  0  0  0  0  0  0  0
   53.0840   30.7010   50.8890 C   0  0  0  0  0  0  0  0  0  0  0  0
   52.0170   31.3710   51.6980 C   0  0  0  0  0  0  0  0  0  0  0  0
   51.8120   31.2050   53.3620 S   0  0  0  0  0  0  0  0  0  0  0  0
   50.5540   32.3190   53.4000 C   0  0  0  0  0  0  0  0  0  0  0  0
   49.9290   32.6470   54.4420 O   0  0  0  0  0  0  0  0  0  0  0  0
   50.2810   32.8380   52.1850 N   0  0  0  0  0  0  0  0  0  0  0  0
   51.1020   32.3150   51.2370 C   0  0  0  0  0  0  0  0  0  0  0  0
   51.0210   32.7060   49.9060 O   0  0  0  0  0  0  0  0  0  0  0  0
   57.3550   32.3330   52.5530 C   0  0  0  0  0  0  0  0  0  0  0  0
   62.0370   33.8300   50.5820 C   0  0  0  0  0  0  0  0  0  0  0  0
   64.4740   33.0637   49.9723 H   0  0  0  0  0  0  0  0  0  0  0  0
   64.4250   32.0539   48.4875 H   0  0  0  0  0  0  0  0  0  0  0  0
   65.3262   33.6078   48.4875 H   0  0  0  0  0  0  0  0  0  0  0  0
   60.8662   33.8070   47.3691 H   0  0  0  0  0  0  0  0  0  0  0  0
   58.6922   33.8269   48.5887 H   0  0  0  0  0  0  0  0  0  0  0  0
   58.6532   33.8348   51.0800 H   0  0  0  0  0  0  0  0  0  0  0  0
   59.3554   31.5507   55.2142 H   0  0  0  0  0  0  0  0  0  0  0  0
   57.9521   29.4882   55.1460 H   0  0  0  0  0  0  0  0  0  0  0  0
   56.1513   29.2558   53.4386 H   0  0  0  0  0  0  0  0  0  0  0  0
   55.6660   31.5170   50.5940 H   0  0  0  0  0  0  0  0  0  0  0  0
   53.3910   31.3652   50.0677 H   0  0  0  0  0  0  0  0  0  0  0  0
   52.6908   29.7600   50.4768 H   0  0  0  0  0  0  0  0  0  0  0  0
   57.1875   33.1388   51.8232 H   0  0  0  0  0  0  0  0  0  0  0  0
   62.9820   33.8497   51.1447 H   0  0  0  0  0  0  0  0  0  0  0  0
  1  2  1  0
  2  3  1  0
  3  4  2  0
  4  5  1  0
  5  6  2  0
  6  7  1  0
  7  8  1  0
  8  9  1  0
  9 10  2  0
  9 11  2  0
  9 12  1  0
 12 13  2  0
 13 14  1  0
 14 15  2  0
 15 16  1  0
 16 17  1  0
 17 18  1  0
 18 19  2  0
 18 20  1  0
 20 21  1  0
 21 22  1  0
 22 23  1  0
 23 24  2  0
 23 25  1  0
 25 26  1  0
 26 27  1  0
 16 28  2  0
  7 29  2  0
 29  3  1  0
 28 12  1  0
 26 21  2  0
  1 30  1  0
  1 31  1  0
  1 32  1  0
  4 33  1  0
  5 34  1  0
  6 35  1  0
 13 36  1  0
 14 37  1  0
 15 38  1  0
 17 39  1  0
 20 40  1  0
 20 41  1  0
 28 42  1  0
 29 43  1  0
M  CHG  3   8  -1  25  -1  27  -1
M  END
>  <UniqueID>  (8) 
8

>  <SMILES>  (8) 
COc1cccc([N-]S(=O)(=O)c2cccc(NC(=O)Cc3sc(=O)[n-]c3[O-])c2)c1

>  <Energy>  (8) 
78.2041768905757

>  <Genealogy>  (8) 
COc1cccc([N-]S(=O)(=O)c2cccc(NC(=O)Cc3sc(=O)[n-]c3[O-])c2)c1 (protonated)
COc1cccc([N-]S(=O)(=O)c2cccc(NC(=O)Cc3sc(=O)[n-]c3[O-])c2)c1 (3D coordinates assigned)
COc1cccc([N-]S(=O)(=O)c2cccc(NC(=O)Cc3sc(=O)[n-]c3[O-])c2)c1 (optimized conformer: 78.2041768905757 kcal/mol)

>  <smiles>  (8) 
COc1cccc(NS(=O)(=O)c2cccc(NC(=O)Cc3sc(=O)[nH]c3O)c2)c1

>  <score_type>  (8) 
oracle

>  <origin>  (8) 
adg

>  <m_score__min__energy>  (8) 
-17.530000000000001

>  <m_primary>  (8) 
energy

$$$$
8:0
     RDKit          3D

 40 42  0  0  0  0  0  0  0  0999 V2000
   59.7580   28.6980   46.0030 O   0  0  0  0  0  0  0  0  0  0  0  0
   58.4050   29.1480   46.4780 S   0  0  0  0  0  0  0  0  0  0  0  0
   58.3460   29.1160   47.9790 O   0  0  0  0  0  0  0  0  0  0  0  0
   57.1890   28.0910   45.8350 N   0  0  0  0  0  0  0  0  0  0  0  0
   57.1870   26.6620   45.9500 C   0  0  0  0  0  0  0  0  0  0  0  0
   58.3780   25.9100   45.9260 C   0  0  0  0  0  0  0  0  0  0  0  0
   58.3340   24.5180   46.0420 C   0  0  0  0  0  0  0  0  0  0  0  0
   57.1090   23.8630   46.1830 C   0  0  0  0  0  0  0  0  0  0  0  0
   55.9230   24.6010   46.2080 C   0  0  0  0  0  0  0  0  0  0  0  0
   55.9600   25.9950   46.0930 C   0  0  0  0  0  0  0  0  0  0  0  0
   54.7710   26.7160   46.1200 O   0  0  0  0  0  0  0  0  0  0  0  0
   58.1260   30.8010   45.9270 C   0  0  0  0  0  0  0  0  0  0  0  0
   58.8090   31.8720   46.5260 C   0  0  0  0  0  0  0  0  0  0  0  0
   58.6060   33.1860   46.0780 C   0  0  0  0  0  0  0  0  0  0  0  0
   59.3220   34.2950   46.7460 C   0  0  0  0  0  0  0  0  0  0  0  0
   60.1070   34.1480   47.7760 N   0  0  0  0  0  0  0  0  0  0  0  0
   61.3310   33.3980   47.8420 C   0  0  0  0  0  0  0  0  0  0  0  0
   62.5150   33.8820   47.2540 C   0  0  0  0  0  0  0  0  0  0  0  0
   63.6850   33.1200   47.2970 C   0  0  0  0  0  0  0  0  0  0  0  0
   63.6800   31.8620   47.9050 C   0  0  0  0  0  0  0  0  0  0  0  0
   62.5010   31.3590   48.4610 C   0  0  0  0  0  0  0  0  0  0  0  0
   61.3220   32.1190   48.4230 C   0  0  0  0  0  0  0  0  0  0  0  0
   60.1440   31.6150   48.9690 O   0  0  0  0  0  0  0  0  0  0  0  0
   57.6730   33.4290   45.0560 C   0  0  0  0  0  0  0  0  0  0  0  0
   56.9910   32.3670   44.4590 C   0  0  0  0  0  0  0  0  0  0  0  0
   57.2160   31.0550   44.8870 C   0  0  0  0  0  0  0  0  0  0  0  0
   56.5270   30.0130   44.2780 O   0  0  0  0  0  0  0  0  0  0  0  0
   59.3462   26.4203   45.8155 H   0  0  0  0  0  0  0  0  0  0  0  0
   59.2675   23.9365   46.0222 H   0  0  0  0  0  0  0  0  0  0  0  0
   57.0778   22.7672   46.2743 H   0  0  0  0  0  0  0  0  0  0  0  0
   54.9578   24.0850   46.3184 H   0  0  0  0  0  0  0  0  0  0  0  0
   59.5085   31.6792   47.3528 H   0  0  0  0  0  0  0  0  0  0  0  0
   59.1827   35.3106   46.3471 H   0  0  0  0  0  0  0  0  0  0  0  0
   62.5188   34.8642   46.7587 H   0  0  0  0  0  0  0  0  0  0  0  0
   64.6117   33.5110   46.8515 H   0  0  0  0  0  0  0  0  0  0  0  0
   64.6046   31.2674   47.9459 H   0  0  0  0  0  0  0  0  0  0  0  0
   62.4970   30.3640   48.9300 H   0  0  0  0  0  0  0  0  0  0  0  0
   59.6870   30.7970   48.5830 H   0  0  0  0  0  0  0  0  0  0  0  0
   57.4791   34.4599   44.7249 H   0  0  0  0  0  0  0  0  0  0  0  0
   56.2736   32.5633   43.6485 H   0  0  0  0  0  0  0  0  0  0  0  0
  1  2  2  0
  2  3  2  0
  2  4  1  0
  4  5  1  0
  5  6  2  0
  6  7  1  0
  7  8  2  0
  8  9  1  0
  9 10  2  0
 10 11  1  0
  2 12  1  0
 12 13  2  0
 13 14  1  0
 14 15  1  0
 15 16  2  3
 16 17  1  0
 17 18  2  0
 18 19  1  0
 19 20  2  0
 20 21  1  0
 21 22  2  0
 22 23  1  0
 14 24  2  0
 24 25  1  0
 25 26  2  0
 26 27  1  0
 10  5  1  0
 26 12  1  0
 22 17  1  0
  6 28  1  0
  7 29  1  0
  8 30  1  0
  9 31  1  0
 13 32  1  0
 15 33  1  0
 18 34  1  0
 19 35  1  0
 20 36  1  0
 21 37  1  0
 23 38  1  0
 24 39  1  0
 25 40  1  0
M  CHG  3   4  -1  11  -1  27  -1
M  END
>  <UniqueID>  (9) 
9

>  <SMILES>  (9) 
O=S(=O)([N-]c1ccccc1[O-])c1cc(C=Nc2ccccc2O)ccc1[O-]

>  <Energy>  (9) 
59.27779849169907

>  <Genealogy>  (9) 
O=S(=O)([N-]c1ccccc1[O-])c1cc(C=Nc2ccccc2O)ccc1[O-] (protonated)
O=S(=O)([N-]c1ccccc1[O-])c1cc(C=Nc2ccccc2O)ccc1[O-] (3D coordinates assigned)
O=S(=O)([N-]c1ccccc1[O-])c1cc(C=Nc2ccccc2O)ccc1[O-] (optimized conformer: 59.27779849169907 kcal/mol)

>  <smiles>  (9) 
O=S(=O)(Nc1ccccc1O)c1cc(C=Nc2ccccc2O)ccc1O

>  <score_type>  (9) 
oracle

>  <origin>  (9) 
adg

>  <m_score__min__energy>  (9) 
-14.779999999999999

>  <m_primary>  (9) 
energy

$$$$
9:0
     RDKit          3D

 50 52  0  0  0  0  0  0  0  0999 V2000
   59.6350   36.8280   46.7440 H   0  0  0  0  0  0  0  0  0  0  0  0
   59.7720   36.1160   45.9920 N   0  0  0  0  0  0  0  0  0  0  0  0
   60.1920   34.6340   46.7730 S   0  0  0  0  0  0  0  0  0  0  0  0
   61.6230   34.2900   46.4660 O   0  0  0  0  0  0  0  0  0  0  0  0
   60.0430   34.7940   48.2600 O   0  0  0  0  0  0  0  0  0  0  0  0
   59.1350   33.3490   46.2000 C   0  0  0  0  0  0  0  0  0  0  0  0
   57.9170   33.6650   45.5840 C   0  0  0  0  0  0  0  0  0  0  0  0
   57.6252   34.7174   45.4527 H   0  0  0  0  0  0  0  0  0  0  0  0
   57.0720   32.6460   45.1360 C   0  0  0  0  0  0  0  0  0  0  0  0
   56.1236   32.8993   44.6397 H   0  0  0  0  0  0  0  0  0  0  0  0
   57.4270   31.3070   45.3160 C   0  0  0  0  0  0  0  0  0  0  0  0
   56.5900   30.3080   44.8290 O   0  0  0  0  0  0  0  0  0  0  0  0
   58.6320   30.9800   45.9700 C   0  0  0  0  0  0  0  0  0  0  0  0
   59.0210   29.6130   46.1790 N   0  0  0  0  0  0  0  0  0  0  0  0
   58.7170   28.6030   45.4140 C   0  0  0  0  0  0  0  0  0  0  0  0
   59.0732   28.6145   44.3733 H   0  0  0  0  0  0  0  0  0  0  0  0
   57.9200   27.4420   45.8660 C   0  0  0  0  0  0  0  0  0  0  0  0
   58.5290   26.3430   46.4930 C   0  0  0  0  0  0  0  0  0  0  0  0
   59.6180   26.3364   46.6478 H   0  0  0  0  0  0  0  0  0  0  0  0
   57.7610   25.2590   46.9210 C   0  0  0  0  0  0  0  0  0  0  0  0
   58.2483   24.4017   47.4085 H   0  0  0  0  0  0  0  0  0  0  0  0
   56.3650   25.2570   46.7320 C   0  0  0  0  0  0  0  0  0  0  0  0
   55.5380   24.2120   47.1780 O   0  0  0  0  0  0  0  0  0  0  0  0
   55.9080   23.1760   48.0900 C   0  0  0  0  0  0  0  0  0  0  0  0
   56.8344   22.7003   47.7358 H   0  0  0  0  0  0  0  0  0  0  0  0
   56.0569   23.6238   49.0836 H   0  0  0  0  0  0  0  0  0  0  0  0
   54.8110   22.1140   48.1970 C   0  0  0  0  0  0  0  0  0  0  0  0
   55.1881   21.1625   47.7939 H   0  0  0  0  0  0  0  0  0  0  0  0
   54.5337   21.9950   49.2548 H   0  0  0  0  0  0  0  0  0  0  0  0
   53.6330   22.5190   47.4450 N   0  0  0  0  0  0  0  0  0  0  0  0
   53.4880   22.2720   46.0480 C   0  0  0  0  0  0  0  0  0  0  0  0
   52.4420   22.6640   45.4630 O   0  0  0  0  0  0  0  0  0  0  0  0
   54.4720   21.5510   45.3580 O   0  0  0  0  0  0  0  0  0  0  0  0
   55.7030   22.0670   44.9290 C   0  0  0  0  0  0  0  0  0  0  0  0
   55.7970   23.1960   44.0920 C   0  0  0  0  0  0  0  0  0  0  0  0
   54.8822   23.7003   43.7471 H   0  0  0  0  0  0  0  0  0  0  0  0
   57.0490   23.6780   43.6980 C   0  0  0  0  0  0  0  0  0  0  0  0
   57.1165   24.5548   43.0372 H   0  0  0  0  0  0  0  0  0  0  0  0
   58.2150   23.0480   44.1420 C   0  0  0  0  0  0  0  0  0  0  0  0
   59.1990   23.4239   43.8251 H   0  0  0  0  0  0  0  0  0  0  0  0
   58.1290   21.9400   44.9890 C   0  0  0  0  0  0  0  0  0  0  0  0
   59.0462   21.4479   45.3447 H   0  0  0  0  0  0  0  0  0  0  0  0
   56.8780   21.4560   45.3850 C   0  0  0  0  0  0  0  0  0  0  0  0
   56.8164   20.5892   46.0595 H   0  0  0  0  0  0  0  0  0  0  0  0
   55.7680   26.3350   46.0610 C   0  0  0  0  0  0  0  0  0  0  0  0
   54.3970   26.3400   45.8380 O   0  0  0  0  0  0  0  0  0  0  0  0
   56.5420   27.4140   45.6200 C   0  0  0  0  0  0  0  0  0  0  0  0
   56.0657   28.2440   45.0776 H   0  0  0  0  0  0  0  0  0  0  0  0
   59.4920   32.0040   46.3840 C   0  0  0  0  0  0  0  0  0  0  0  0
   60.4533   31.7532   46.8563 H   0  0  0  0  0  0  0  0  0  0  0  0
  1  2  1  0
  2  3  1  0
  3  4  2  0
  3  5  2  0
  3  6  1  0
  6  7  2  0
  7  8  1  0
  7  9  1  0
  9 10  1  0
  9 11  2  0
 11 12  1  0
 11 13  1  0
 13 14  1  0
 14 15  2  0
 15 16  1  0
 15 17  1  0
 17 18  2  0
 18 19  1  0
 18 20  1  0
 20 21  1  0
 20 22  2  0
 22 23  1  0
 23 24  1  0
 24 25  1  0
 24 26  1  0
 24 27  1  0
 27 28  1  0
 27 29  1  0
 27 30  1  0
 30 31  1  0
 31 32  2  0
 31 33  1  0
 33 34  1  0
 34 35  2  0
 35 36  1  0
 35 37  1  0
 37 38  1  0
 37 39  2  0
 39 40  1  0
 39 41  1  0
 41 42  1  0
 41 43  2  0
 43 44  1  0
 22 45  1  0
 45 46  1  0
 45 47  2  0
 47 48  1  0
 13 49  2  0
 49 50  1  0
 49  6  1  0
 47 17  1  0
 43 34  1  0
M  CHG  4   2  -1  12  -1  30  -1  46  -1
M  END
>  <UniqueID>  (10) 
10

>  <SMILES>  (10) 
[NH-]S(=O)(=O)c1ccc([O-])c(/N=C\c2ccc(OCC[N-]C(=O)Oc3ccccc3)c([O-])c2)c1

>  <Energy>  (10) 
64.62462171539298

>  <Genealogy>  (10) 
[NH-]S(=O)(=O)c1ccc([O-])c(N=Cc2ccc(OCC[N-]C(=O)Oc3ccccc3)c([O-])c2)c1 (protonated)
[NH-]S(=O)(=O)c1ccc([O-])c(/N=C\c2ccc(OCC[N-]C(=O)Oc3ccccc3)c([O-])c2)c1 (cis-trans isomerization)
[NH-]S(=O)(=O)c1ccc([O-])c(/N=C\c2ccc(OCC[N-]C(=O)Oc3ccccc3)c([O-])c2)c1 (3D coordinates assigned)
[NH-]S(=O)(=O)c1ccc([O-])c(/N=C\c2ccc(OCC[N-]C(=O)Oc3ccccc3)c([O-])c2)c1 (optimized conformer: 64.62462171539298 kcal/mol)

>  <smiles>  (10) 
NS(=O)(=O)c1ccc(O)c(N=Cc2ccc(OCCNC(=O)Oc3ccccc3)c(O)c2)c1

>  <score_type>  (10) 
oracle

>  <origin>  (10) 
adg

>  <m_score__min__energy>  (10) 
-17.809999999999999

>  <m_primary>  (10) 
energy

$$$$
10:0
     RDKit          3D

 55 57  0  0  1  0  0  0  0  0999 V2000
   56.2490   23.4010   43.0290 C   0  0  0  0  0  0  0  0  0  0  0  0
   56.8600   22.3120   43.8870 C   0  0  0  0  0  0  0  0  0  0  0  0
   57.1110   21.1090   42.9990 C   0  0  0  0  0  0  0  0  0  0  0  0
   55.8740   21.9250   44.9460 C   0  0  0  0  0  0  0  0  0  0  0  0
   58.0960   22.7780   44.5290 C   0  0  0  0  0  0  0  0  0  0  0  0
   58.1990   23.9890   45.1960 C   0  0  0  0  0  0  0  0  0  0  0  0
   59.4940   24.0660   45.6540 C   0  0  0  0  0  0  0  0  0  0  0  0
   60.0440   25.0160   46.3280 N   0  0  0  0  0  0  0  0  0  0  0  0
   59.7950   26.3710   45.9660 C   0  0  0  0  0  0  0  0  0  0  0  0
   60.8080   27.0710   45.6920 O   0  0  0  0  0  0  0  0  0  0  0  0
   58.4670   26.8780   45.9240 N   0  0  0  0  0  0  0  0  0  0  0  0
   58.1960   28.2290   45.5650 C   0  0  0  0  0  0  0  0  0  0  0  0
   58.6340   29.2880   46.3350 C   0  0  0  0  0  0  0  0  0  0  0  0
   58.3480   30.5950   45.9530 C   0  0  0  0  0  0  0  0  0  0  0  0
   57.6350   30.9000   44.8170 C   0  0  0  0  0  0  0  0  0  0  0  0
   57.3380   32.2120   44.3850 N   0  0  0  0  0  0  0  0  0  0  0  0
   57.0230   33.3200   45.2520 C   0  0  0  0  0  0  0  0  0  0  0  0
   58.0750   34.3850   45.0680 C   0  0  0  0  0  0  0  0  0  0  0  0
   59.0820   34.1880   46.1420 C   0  0  0  0  0  0  0  0  0  0  0  0
   60.4030   33.9740   45.8200 C   0  0  0  0  0  0  0  0  0  0  0  0
   61.3480   33.7890   46.8050 C   0  0  0  0  0  0  0  0  0  0  0  0
   60.9770   33.8160   48.1480 C   0  0  0  0  0  0  0  0  0  0  0  0
   59.6640   34.0290   48.4930 C   0  0  0  0  0  0  0  0  0  0  0  0
   58.7500   34.2090   47.4730 C   0  0  0  0  0  0  0  0  0  0  0  0
   57.2050   29.8100   44.0600 C   0  0  0  0  0  0  0  0  0  0  0  0
   57.4780   28.5080   44.4230 C   0  0  0  0  0  0  0  0  0  0  0  0
   60.1560   22.9350   45.2760 N   0  0  0  0  0  0  0  0  0  0  0  0
   59.2910   22.1870   44.6060 N   0  0  0  0  0  0  0  0  0  0  0  0
   55.8137   24.1768   43.6761 H   0  0  0  0  0  0  0  0  0  0  0  0
   57.0281   23.8479   42.3940 H   0  0  0  0  0  0  0  0  0  0  0  0
   55.4615   22.9690   42.3940 H   0  0  0  0  0  0  0  0  0  0  0  0
   57.2958   20.2235   43.6249 H   0  0  0  0  0  0  0  0  0  0  0  0
   56.2305   20.9319   42.3639 H   0  0  0  0  0  0  0  0  0  0  0  0
   57.9889   21.2988   42.3639 H   0  0  0  0  0  0  0  0  0  0  0  0
   56.3152   22.0982   45.9387 H   0  0  0  0  0  0  0  0  0  0  0  0
   54.9632   22.5324   44.8385 H   0  0  0  0  0  0  0  0  0  0  0  0
   55.6195   20.8603   44.8385 H   0  0  0  0  0  0  0  0  0  0  0  0
   57.4048   24.7379   45.3318 H   0  0  0  0  0  0  0  0  0  0  0  0
   57.6290   26.2890   46.1540 H   0  0  0  0  0  0  0  0  0  0  0  0
   59.2103   29.0980   47.2525 H   0  0  0  0  0  0  0  0  0  0  0  0
   58.7074   31.4194   46.5864 H   0  0  0  0  0  0  0  0  0  0  0  0
   57.3450   32.4060   43.3570 H   0  0  0  0  0  0  0  0  0  0  0  0
   56.0344   33.7259   44.9913 H   0  0  0  0  0  0  0  0  0  0  0  0
   57.0042   32.9855   46.2997 H   0  0  0  0  0  0  0  0  0  0  0  0
   58.5495   34.2812   44.0811 H   0  0  0  0  0  0  0  0  0  0  0  0
   57.6314   35.3900   45.1242 H   0  0  0  0  0  0  0  0  0  0  0  0
   60.7078   33.9504   44.7633 H   0  0  0  0  0  0  0  0  0  0  0  0
   62.3996   33.6193   46.5304 H   0  0  0  0  0  0  0  0  0  0  0  0
   61.7347   33.6669   48.9314 H   0  0  0  0  0  0  0  0  0  0  0  0
   59.3510   34.0553   49.5472 H   0  0  0  0  0  0  0  0  0  0  0  0
   57.6972   34.3786   47.7430 H   0  0  0  0  0  0  0  0  0  0  0  0
   56.6283   29.9955   43.1419 H   0  0  0  0  0  0  0  0  0  0  0  0
   57.1178   27.6816   43.7926 H   0  0  0  0  0  0  0  0  0  0  0  0
   61.1570   22.7130   45.4830 H   0  0  0  0  0  0  0  0  0  0  0  0
   59.4850   21.2370   44.1720 H   0  0  0  0  0  0  0  0  0  0  0  0
  1  2  1  0
  2  3  1  0
  2  4  1  0
  2  5  1  0
  5  6  2  0
  6  7  1  0
  7  8  2  0
  8  9  1  0
  9 10  2  0
  9 11  1  0
 11 12  1  0
 12 13  2  0
 13 14  1  0
 14 15  2  0
 15 16  1  0
 16 17  1  0
 17 18  1  0
 18 19  1  0
 19 20  2  0
 20 21  1  0
 21 22  2  0
 22 23  1  0
 23 24  2  0
 15 25  1  0
 25 26  2  0
  7 27  1  0
 27 28  1  0
 28  5  1  0
 26 12  1  0
 24 19  1  0
  1 29  1  0
  1 30  1  0
  1 31  1  0
  3 32  1  0
  3 33  1  0
  3 34  1  0
  4 35  1  0
  4 36  1  0
  4 37  1  0
  6 38  1  0
 11 39  1  0
 13 40  1  0
 14 41  1  0
 16 42  1  0
 17 43  1  0
 17 44  1  0
 18 45  1  0
 18 46  1  0
 20 47  1  0
 21 48  1  0
 22 49  1  0
 23 50  1  0
 24 51  1  0
 25 52  1  0
 26 53  1  0
 27 54  1  0
 28 55  1  0
M  END
>  <smiles>  (11) 
CC(C)(C)c1cc(=NC(=O)Nc2ccc(NCCc3ccccc3)cc2)[nH][nH]1

>  <score_type>  (11) 
oracle

>  <origin>  (11) 
adg

>  <m_score__min__energy>  (11) 
-8.3900000000000006

>  <m_primary>  (11) 
energy

$$$$
11:0
     RDKit          3D

 39 41  0  0  0  0  0  0  0  0999 V2000
   58.5260   34.9730   45.0010 O   0  0  0  0  0  0  0  0  0  0  0  0
   58.6380   33.7420   45.2460 C   0  0  0  0  0  0  0  0  0  0  0  0
   57.9120   32.8480   44.5260 N   0  0  0  0  0  0  0  0  0  0  0  0
   58.0320   31.5080   44.7320 C   0  0  0  0  0  0  0  0  0  0  0  0
   57.3520   30.7160   44.0240 O   0  0  0  0  0  0  0  0  0  0  0  0
   58.8870   31.0290   45.6930 N   0  0  0  0  0  0  0  0  0  0  0  0
   59.0520   29.5730   45.8930 C   0  0  1  0  0  0  0  0  0  0  0  0
   57.8880   28.9980   46.7060 C   0  0  0  0  0  0  0  0  0  0  0  0
   57.3580   27.8710   45.8470 C   0  0  1  0  0  0  0  0  0  0  0  0
   56.1230   28.2070   45.2570 O   0  0  0  0  0  0  0  0  0  0  0  0
   58.4760   27.6700   44.8220 C   0  0  1  0  0  0  0  0  0  0  0  0
   58.0140   27.1000   43.4690 C   0  0  0  0  0  0  0  0  0  0  0  0
   57.4060   28.0810   42.6730 O   0  0  0  0  0  0  0  0  0  0  0  0
   59.1310   28.9030   44.6500 O   0  0  0  0  0  0  0  0  0  0  0  0
   59.6440   31.9080   46.4190 C   0  0  0  0  0  0  0  0  0  0  0  0
   59.5220   33.2840   46.2350 C   0  0  0  0  0  0  0  0  0  0  0  0
   60.3110   34.1390   47.0210 O   0  0  0  0  0  0  0  0  0  0  0  0
   61.1300   33.7340   48.0840 C   0  0  0  0  0  0  0  0  0  0  0  0
   60.5600   33.6020   49.3570 C   0  0  0  0  0  0  0  0  0  0  0  0
   59.2400   33.8510   49.5390 F   0  0  0  0  0  0  0  0  0  0  0  0
   61.3420   33.1940   50.4420 C   0  0  0  0  0  0  0  0  0  0  0  0
   62.7020   32.9300   50.2650 C   0  0  0  0  0  0  0  0  0  0  0  0
   63.2870   33.0860   49.0060 C   0  0  0  0  0  0  0  0  0  0  0  0
   62.5120   33.4940   47.9130 C   0  0  0  0  0  0  0  0  0  0  0  0
   63.3130   33.7660   46.3710 Cl  0  0  0  0  0  0  0  0  0  0  0  0
   57.2580   33.1960   43.7880 H   0  0  0  0  0  0  0  0  0  0  0  0
   59.9888   29.4175   46.4482 H   0  0  0  0  0  0  0  0  0  0  0  0
   58.2400   28.6171   47.6760 H   0  0  0  0  0  0  0  0  0  0  0  0
   57.1199   29.7516   46.9341 H   0  0  0  0  0  0  0  0  0  0  0  0
   57.1371   26.9516   46.4090 H   0  0  0  0  0  0  0  0  0  0  0  0
   56.3040   28.7000   44.4150 H   0  0  0  0  0  0  0  0  0  0  0  0
   59.1561   26.9029   45.2207 H   0  0  0  0  0  0  0  0  0  0  0  0
   58.8875   26.6983   42.9345 H   0  0  0  0  0  0  0  0  0  0  0  0
   57.2738   26.3102   43.6646 H   0  0  0  0  0  0  0  0  0  0  0  0
   57.8380   28.9450   42.9010 H   0  0  0  0  0  0  0  0  0  0  0  0
   60.3601   31.5223   47.1595 H   0  0  0  0  0  0  0  0  0  0  0  0
   60.8854   33.0808   51.4363 H   0  0  0  0  0  0  0  0  0  0  0  0
   63.3130   32.5990   51.1177 H   0  0  0  0  0  0  0  0  0  0  0  0
   64.3607   32.8876   48.8725 H   0  0  0  0  0  0  0  0  0  0  0  0
  1  2  2  0
  2  3  1  0
  3  4  1  0
  4  5  2  0
  4  6  1  0
  6  7  1  0
  7  8  1  0
  8  9  1  0
  9 10  1  0
  9 11  1  0
 11 12  1  0
 12 13  1  0
 11 14  1  0
  6 15  1  0
 15 16  2  0
 16 17  1  0
 17 18  1  0
 18 19  2  0
 19 20  1  0
 19 21  1  0
 21 22  2  0
 22 23  1  0
 23 24  2  0
 24 25  1  0
 16  2  1  0
 24 18  1  0
 14  7  1  0
  3 26  1  0
  7 27  1  1
  8 28  1  0
  8 29  1  0
  9 30  1  1
 10 31  1  0
 11 32  1  1
 12 33  1  0
 12 34  1  0
 13 35  1  0
 15 36  1  0
 21 37  1  0
 22 38  1  0
 23 39  1  0
M  END
>  <UniqueID>  (12) 
11

>  <SMILES>  (12) 
O=c1[nH]c(=O)n([C@H]2C[C@@H](O)C(CO)O2)cc1Oc1c(F)cccc1Cl

>  <Energy>  (12) 
57.61742689235631

>  <Genealogy>  (12) 
O=c1[nH]c(=O)n([C@H]2C[C@@H](O)C(CO)O2)cc1Oc1c(F)cccc1Cl (chirality)
O=c1[nH]c(=O)n([C@H]2C[C@@H](O)C(CO)O2)cc1Oc1c(F)cccc1Cl (3D coordinates assigned)
O=c1[nH]c(=O)n([C@H]2C[C@@H](O)C(CO)O2)cc1Oc1c(F)cccc1Cl (nonaromatic ring conformer: 57.61742689235631 kcal/mol)

>  <smiles>  (12) 
O=c1[nH]c(=O)n(C2CC(O)C(CO)O2)cc1Oc1c(F)cccc1Cl

>  <score_type>  (12) 
oracle

>  <origin>  (12) 
adg

>  <m_score__min__energy>  (12) 
-6.5499999999999998

>  <m_primary>  (12) 
energy

$$$$
12:0
     RDKit          3D

 47 49  0  0  0  0  0  0  0  0999 V2000
   54.7700   26.2780   45.9900 N   0  0  0  0  0  0  0  0  0  0  0  0
   56.3920   25.6870   46.0720 S   0  0  0  0  0  0  0  0  0  0  0  0
   56.6710   25.1820   47.4600 O   0  0  0  0  0  0  0  0  0  0  0  0
   56.5600   24.5500   45.1020 O   0  0  0  0  0  0  0  0  0  0  0  0
   57.5130   26.9860   45.6760 C   0  0  0  0  0  0  0  0  0  0  0  0
   58.1930   26.9810   44.4510 C   0  0  0  0  0  0  0  0  0  0  0  0
   59.0600   28.0280   44.1270 C   0  0  0  0  0  0  0  0  0  0  0  0
   59.2560   29.0800   45.0250 C   0  0  0  0  0  0  0  0  0  0  0  0
   58.5940   29.0900   46.2620 C   0  0  0  0  0  0  0  0  0  0  0  0
   58.7930   30.1970   47.1580 N   0  0  0  0  0  0  0  0  0  0  0  0
   59.9830   30.3900   47.9420 C   0  0  0  0  0  0  0  0  0  0  0  0
   60.9940   29.6590   47.7670 O   0  0  0  0  0  0  0  0  0  0  0  0
   60.0410   31.4810   48.9690 C   0  0  0  0  0  0  0  0  0  0  0  0
   59.0310   32.4580   48.7210 O   0  0  0  0  0  0  0  0  0  0  0  0
   58.8310   33.1370   47.5060 C   0  0  0  0  0  0  0  0  0  0  0  0
   57.5840   33.1430   46.8490 C   0  0  0  0  0  0  0  0  0  0  0  0
   57.4150   33.8510   45.6580 C   0  0  0  0  0  0  0  0  0  0  0  0
   58.4820   34.5630   45.1090 C   0  0  0  0  0  0  0  0  0  0  0  0
   59.7230   34.5640   45.7470 C   0  0  0  0  0  0  0  0  0  0  0  0
   59.9090   33.8500   46.9410 C   0  0  0  0  0  0  0  0  0  0  0  0
   61.2060   33.8480   47.5630 N   0  0  0  0  0  0  0  0  0  0  0  0
   61.3960   34.3920   48.9100 C   0  0  0  0  0  0  0  0  0  0  0  0
   62.4680   33.5760   49.6390 C   0  0  0  0  0  0  0  0  0  0  0  0
   63.6500   33.4890   48.8630 O   0  0  0  0  0  0  0  0  0  0  0  0
   63.3950   32.7640   47.6750 C   0  0  0  0  0  0  0  0  0  0  0  0
   62.3990   33.5110   46.7830 C   0  0  0  0  0  0  0  0  0  0  0  0
   57.7050   28.0450   46.5730 C   0  0  0  0  0  0  0  0  0  0  0  0
   54.7060   27.0810   46.6560 H   0  0  0  0  0  0  0  0  0  0  0  0
   58.0442   26.1520   43.7435 H   0  0  0  0  0  0  0  0  0  0  0  0
   59.5893   28.0238   43.1627 H   0  0  0  0  0  0  0  0  0  0  0  0
   59.9334   29.9054   44.7607 H   0  0  0  0  0  0  0  0  0  0  0  0
   58.0760   30.9560   47.1610 H   0  0  0  0  0  0  0  0  0  0  0  0
   59.8861   31.0462   49.9675 H   0  0  0  0  0  0  0  0  0  0  0  0
   61.0261   31.9674   48.9146 H   0  0  0  0  0  0  0  0  0  0  0  0
   56.7381   32.5858   47.2779 H   0  0  0  0  0  0  0  0  0  0  0  0
   56.4387   33.8476   45.1512 H   0  0  0  0  0  0  0  0  0  0  0  0
   58.3448   35.1238   44.1727 H   0  0  0  0  0  0  0  0  0  0  0  0
   60.5609   35.1280   45.3114 H   0  0  0  0  0  0  0  0  0  0  0  0
   61.7173   35.4417   48.8404 H   0  0  0  0  0  0  0  0  0  0  0  0
   60.4489   34.3368   49.4667 H   0  0  0  0  0  0  0  0  0  0  0  0
   62.7012   34.0623   50.5977 H   0  0  0  0  0  0  0  0  0  0  0  0
   62.0824   32.5598   49.8083 H   0  0  0  0  0  0  0  0  0  0  0  0
   64.3386   32.6282   47.1262 H   0  0  0  0  0  0  0  0  0  0  0  0
   62.9636   31.7885   47.9439 H   0  0  0  0  0  0  0  0  0  0  0  0
   62.8641   34.4339   46.4063 H   0  0  0  0  0  0  0  0  0  0  0  0
   62.1148   32.8720   45.9339 H   0  0  0  0  0  0  0  0  0  0  0  0
   57.1570   28.0594   47.5267 H   0  0  0  0  0  0  0  0  0  0  0  0
  1  2  1  0
  2  3  2  0
  2  4  2  0
  2  5  1  0
  5  6  2  0
  6  7  1  0
  7  8  2  0
  8  9  1  0
  9 10  1  0
 10 11  1  0
 11 12  2  0
 11 13  1  0
 13 14  1  0
 14 15  1  0
 15 16  2  0
 16 17  1  0
 17 18  2  0
 18 19  1  0
 19 20  2  0
 20 21  1  0
 21 22  1  0
 22 23  1  0
 23 24  1  0
 24 25  1  0
 25 26  1  0
  9 27  2  0
 27  5  1  0
 20 15  1  0
 26 21  1  0
  1 28  1  0
  6 29  1  0
  7 30  1  0
  8 31  1  0
 10 32  1  0
 13 33  1  0
 13 34  1  0
 16 35  1  0
 17 36  1  0
 18 37  1  0
 19 38  1  0
 22 39  1  0
 22 40  1  0
 23 41  1  0
 23 42  1  0
 25 43  1  0
 25 44  1  0
 26 45  1  0
 26 46  1  0
 27 47  1  0
M  CHG  1   1  -1
M  END
>  <UniqueID>  (13) 
12

>  <SMILES>  (13) 
[NH-]S(=O)(=O)c1cccc(NC(=O)COc2ccccc2N2CCOCC2)c1

>  <Energy>  (13) 
56.58767061017925

>  <Genealogy>  (13) 
[NH-]S(=O)(=O)c1cccc(NC(=O)COc2ccccc2N2CCOCC2)c1 (protonated)
[NH-]S(=O)(=O)c1cccc(NC(=O)COc2ccccc2N2CCOCC2)c1 (3D coordinates assigned)
[NH-]S(=O)(=O)c1cccc(NC(=O)COc2ccccc2N2CCOCC2)c1 (nonaromatic ring conformer: 56.58767061017925 kcal/mol)

>  <smiles>  (13) 
NS(=O)(=O)c1cccc(NC(=O)COc2ccccc2N2CCOCC2)c1

>  <score_type>  (13) 
oracle

>  <origin>  (13) 
adg

>  <m_score__min__energy>  (13) 
-11.27

>  <m_primary>  (13) 
energy

$$$$
13:0
     RDKit          3D

 36 38  0  0  0  0  0  0  0  0999 V2000
   58.9960   34.1309   42.9998 H   0  0  0  0  0  0  0  0  0  0  0  0
   58.4980   33.4920   43.7440 C   0  0  0  0  0  0  0  0  0  0  0  0
   57.8740   32.3310   43.4120 N   0  0  0  0  0  0  0  0  0  0  0  0
   57.3610   31.7100   44.4960 C   0  0  0  0  0  0  0  0  0  0  0  0
   56.6880   30.6000   44.4000 N   0  0  0  0  0  0  0  0  0  0  0  0
   57.1230   29.3150   44.8620 C   0  0  0  0  0  0  0  0  0  0  0  0
   58.3590   29.0830   44.9320 O   0  0  0  0  0  0  0  0  0  0  0  0
   56.1730   28.3240   45.2880 N   0  0  0  0  0  0  0  0  0  0  0  0
   55.1530   28.5460   45.2410 H   0  0  0  0  0  0  0  0  0  0  0  0
   56.5420   26.9800   45.6290 C   0  0  0  0  0  0  0  0  0  0  0  0
   57.8920   26.6050   45.5620 C   0  0  0  0  0  0  0  0  0  0  0  0
   58.6505   27.3417   45.2587 H   0  0  0  0  0  0  0  0  0  0  0  0
   58.2780   25.2990   45.8790 C   0  0  0  0  0  0  0  0  0  0  0  0
   59.3395   25.0138   45.8363 H   0  0  0  0  0  0  0  0  0  0  0  0
   57.3160   24.3560   46.2500 C   0  0  0  0  0  0  0  0  0  0  0  0
   57.6219   23.3317   46.5092 H   0  0  0  0  0  0  0  0  0  0  0  0
   55.9660   24.7130   46.2920 C   0  0  0  0  0  0  0  0  0  0  0  0
   55.2102   23.9668   46.5781 H   0  0  0  0  0  0  0  0  0  0  0  0
   55.5720   26.0180   45.9710 C   0  0  0  0  0  0  0  0  0  0  0  0
   54.2190   26.3380   45.9670 O   0  0  0  0  0  0  0  0  0  0  0  0
   57.6380   32.5870   45.9130 S   0  0  0  0  0  0  0  0  0  0  0  0
   58.4580   33.8100   45.0990 C   0  0  0  0  0  0  0  0  0  0  0  0
   59.1230   34.9820   45.7460 C   0  0  0  0  0  0  0  0  0  0  0  0
   59.6894   35.5435   44.9884 H   0  0  0  0  0  0  0  0  0  0  0  0
   58.3558   35.6303   46.1945 H   0  0  0  0  0  0  0  0  0  0  0  0
   60.0620   34.5110   46.8220 C   0  0  0  0  0  0  0  0  0  0  0  0
   61.2960   33.9320   46.4820 C   0  0  0  0  0  0  0  0  0  0  0  0
   61.5900   33.8488   45.4253 H   0  0  0  0  0  0  0  0  0  0  0  0
   62.1520   33.4610   47.4830 C   0  0  0  0  0  0  0  0  0  0  0  0
   63.1214   33.0169   47.2128 H   0  0  0  0  0  0  0  0  0  0  0  0
   61.7770   33.5540   48.8260 C   0  0  0  0  0  0  0  0  0  0  0  0
   62.4520   33.1846   49.6120 H   0  0  0  0  0  0  0  0  0  0  0  0
   60.5450   34.1160   49.1710 C   0  0  0  0  0  0  0  0  0  0  0  0
   60.1790   34.1980   50.4740 F   0  0  0  0  0  0  0  0  0  0  0  0
   59.6870   34.5900   48.1740 C   0  0  0  0  0  0  0  0  0  0  0  0
   58.7153   35.0262   48.4488 H   0  0  0  0  0  0  0  0  0  0  0  0
  1  2  1  0
  2  3  1  0
  3  4  1  0
  4  5  2  0
  5  6  1  0
  6  7  2  0
  6  8  1  0
  8  9  1  0
  8 10  1  0
 10 11  2  0
 11 12  1  0
 11 13  1  0
 13 14  1  0
 13 15  2  0
 15 16  1  0
 15 17  1  0
 17 18  1  0
 17 19  2  0
 19 20  1  0
  4 21  1  0
 21 22  1  0
 22 23  1  0
 23 24  1  0
 23 25  1  0
 23 26  1  0
 26 27  2  0
 27 28  1  0
 27 29  1  0
 29 30  1  0
 29 31  2  0
 31 32  1  0
 31 33  1  0
 33 34  1  0
 33 35  2  0
 35 36  1  0
 22  2  2  0
 35 26  1  0
 19 10  1  0
M  CHG  2   3  -1  20  -1
M  END
>  <UniqueID>  (14) 
13

>  <SMILES>  (14) 
O=C(/N=c1/[n-]cc(Cc2cccc(F)c2)s1)Nc1ccccc1[O-]

>  <Energy>  (14) 
78.56878804803873

>  <Genealogy>  (14) 
O=C(N=c1[n-]cc(Cc2cccc(F)c2)s1)Nc1ccccc1[O-] (protonated)
O=C(/N=c1/[n-]cc(Cc2cccc(F)c2)s1)Nc1ccccc1[O-] (cis-trans isomerization)
O=C(/N=c1/[n-]cc(Cc2cccc(F)c2)s1)Nc1ccccc1[O-] (3D coordinates assigned)
O=C(/N=c1/[n-]cc(Cc2cccc(F)c2)s1)Nc1ccccc1[O-] (optimized conformer: 78.56878804803873 kcal/mol)

>  <smiles>  (14) 
O=C(N=c1[nH]cc(Cc2cccc(F)c2)s1)Nc1ccccc1O

>  <score_type>  (14) 
oracle

>  <origin>  (14) 
adg

>  <m_score__min__energy>  (14) 
-13.970000000000001

>  <m_primary>  (14) 
energy

$$$$
14:0
     RDKit          3D

 47 50  0  0  0  0  0  0  0  0999 V2000
   55.1510   29.1800   44.5400 O   0  0  0  0  0  0  0  0  0  0  0  0
   56.3540   29.5090   44.7190 C   0  0  0  0  0  0  0  0  0  0  0  0
   56.7410   30.8700   44.4670 N   0  0  0  0  0  0  0  0  0  0  0  0
   57.4080   31.6460   45.2720 C   0  0  0  0  0  0  0  0  0  0  0  0
   57.8450   31.2230   46.4770 N   0  0  0  0  0  0  0  0  0  0  0  0
   58.5290   32.1940   47.1370 C   0  0  0  0  0  0  0  0  0  0  0  0
   58.6370   33.4010   46.4520 C   0  0  0  0  0  0  0  0  0  0  0  0
   59.3960   34.6050   46.9090 C   0  0  0  0  0  0  0  0  0  0  0  0
   60.7790   34.2090   47.3460 C   0  0  0  0  0  0  0  0  0  0  0  0
   61.7530   33.8710   46.3920 C   0  0  0  0  0  0  0  0  0  0  0  0
   63.0490   33.5380   46.7990 C   0  0  0  0  0  0  0  0  0  0  0  0
   63.3830   33.5490   48.1560 C   0  0  0  0  0  0  0  0  0  0  0  0
   62.4230   33.8980   49.1100 C   0  0  0  0  0  0  0  0  0  0  0  0
   62.8460   33.9230   50.8130 Cl  0  0  0  0  0  0  0  0  0  0  0  0
   61.1250   34.2310   48.7070 C   0  0  0  0  0  0  0  0  0  0  0  0
   57.8800   33.2390   44.9590 S   0  0  0  0  0  0  0  0  0  0  0  0
   57.3330   28.4740   45.1330 C   0  0  0  0  0  0  0  0  0  0  0  0
   58.6990   28.6910   44.9220 C   0  0  0  0  0  0  0  0  0  0  0  0
   59.6190   27.6930   45.2270 C   0  0  0  0  0  0  0  0  0  0  0  0
   59.1700   26.4760   45.7360 C   0  0  0  0  0  0  0  0  0  0  0  0
   57.8390   26.2670   45.9740 N   0  0  0  0  0  0  0  0  0  0  0  0
   57.3940   24.9390   46.4290 C   0  0  0  0  0  0  0  0  0  0  0  0
   57.2580   24.0110   45.2490 C   0  0  0  0  0  0  0  0  0  0  0  0
   58.0810   22.8760   45.1350 C   0  0  0  0  0  0  0  0  0  0  0  0
   57.9100   21.9870   44.0700 C   0  0  0  0  0  0  0  0  0  0  0  0
   56.9190   22.2220   43.1140 C   0  0  0  0  0  0  0  0  0  0  0  0
   56.0900   23.3420   43.2260 C   0  0  0  0  0  0  0  0  0  0  0  0
   56.2560   24.2320   44.2910 C   0  0  0  0  0  0  0  0  0  0  0  0
   56.9220   27.2540   45.7110 C   0  0  0  0  0  0  0  0  0  0  0  0
   55.7020   27.0740   45.9850 O   0  0  0  0  0  0  0  0  0  0  0  0
   58.9638   32.0383   48.1354 H   0  0  0  0  0  0  0  0  0  0  0  0
   59.4685   35.3253   46.0808 H   0  0  0  0  0  0  0  0  0  0  0  0
   58.8675   35.0628   47.7582 H   0  0  0  0  0  0  0  0  0  0  0  0
   61.4959   33.8682   45.3225 H   0  0  0  0  0  0  0  0  0  0  0  0
   63.8070   33.2669   46.0494 H   0  0  0  0  0  0  0  0  0  0  0  0
   64.4020   33.2828   48.4735 H   0  0  0  0  0  0  0  0  0  0  0  0
   60.3727   34.5111   49.4591 H   0  0  0  0  0  0  0  0  0  0  0  0
   59.0460   29.6520   44.5144 H   0  0  0  0  0  0  0  0  0  0  0  0
   60.6939   27.8635   45.0674 H   0  0  0  0  0  0  0  0  0  0  0  0
   59.8933   25.6750   45.9487 H   0  0  0  0  0  0  0  0  0  0  0  0
   58.1329   24.5282   47.1328 H   0  0  0  0  0  0  0  0  0  0  0  0
   56.4185   25.0354   46.9280 H   0  0  0  0  0  0  0  0  0  0  0  0
   58.8618   22.6874   45.8865 H   0  0  0  0  0  0  0  0  0  0  0  0
   58.5566   21.1012   43.9846 H   0  0  0  0  0  0  0  0  0  0  0  0
   56.7908   21.5253   42.2725 H   0  0  0  0  0  0  0  0  0  0  0  0
   55.3065   23.5231   42.4755 H   0  0  0  0  0  0  0  0  0  0  0  0
   55.5985   25.1095   44.3788 H   0  0  0  0  0  0  0  0  0  0  0  0
  1  2  2  0
  2  3  1  0
  3  4  2  3
  4  5  1  0
  5  6  1  0
  6  7  2  0
  7  8  1  0
  8  9  1  0
  9 10  2  0
 10 11  1  0
 11 12  2  0
 12 13  1  0
 13 14  1  0
 13 15  2  0
  7 16  1  0
  2 17  1  0
 17 18  2  0
 18 19  1  0
 19 20  2  0
 20 21  1  0
 21 22  1  0
 22 23  1  0
 23 24  2  0
 24 25  1  0
 25 26  2  0
 26 27  1  0
 27 28  2  0
 21 29  1  0
 29 30  2  0
 16  4  1  0
 29 17  1  0
 15  9  1  0
 28 23  1  0
  6 31  1  0
  8 32  1  0
  8 33  1  0
 10 34  1  0
 11 35  1  0
 12 36  1  0
 15 37  1  0
 18 38  1  0
 19 39  1  0
 20 40  1  0
 22 41  1  0
 22 42  1  0
 24 43  1  0
 25 44  1  0
 26 45  1  0
 27 46  1  0
 28 47  1  0
M  CHG  1   5  -1
M  END
>  <UniqueID>  (15) 
14

>  <SMILES>  (15) 
O=C(N=c1[n-]cc(Cc2cccc(Cl)c2)s1)c1cccn(Cc2ccccc2)c1=O

>  <Energy>  (15) 
88.22127818339689

>  <Genealogy>  (15) 
O=C(N=c1[n-]cc(Cc2cccc(Cl)c2)s1)c1cccn(Cc2ccccc2)c1=O (protonated)
O=C(N=c1[n-]cc(Cc2cccc(Cl)c2)s1)c1cccn(Cc2ccccc2)c1=O (3D coordinates assigned)
O=C(N=c1[n-]cc(Cc2cccc(Cl)c2)s1)c1cccn(Cc2ccccc2)c1=O (optimized conformer: 88.22127818339689 kcal/mol)

>  <smiles>  (15) 
O=C(N=c1[nH]cc(Cc2cccc(Cl)c2)s1)c1cccn(Cc2ccccc2)c1=O

>  <score_type>  (15) 
oracle

>  <origin>  (15) 
adg

>  <m_score__min__energy>  (15) 
-12

>  <m_primary>  (15) 
energy

$$$$
15:0
     RDKit          3D

 46 49  0  0  0  0  0  0  0  0999 V2000
   54.8040   23.4810   46.3110 O   0  0  0  0  0  0  0  0  0  0  0  0
   56.0520   23.5300   46.4790 C   0  0  0  0  0  0  0  0  0  0  0  0
   56.6380   24.5740   47.3750 C   0  0  0  0  0  0  0  0  0  0  0  0
   56.9780   25.7580   46.5870 N   0  0  0  0  0  0  0  0  0  0  0  0
   58.2300   26.1600   46.2770 C   0  0  0  0  0  0  0  0  0  0  0  0
   58.1830   27.4020   45.6720 C   0  0  0  0  0  0  0  0  0  0  0  0
   59.5760   28.3890   45.2670 S   0  0  0  0  0  0  0  0  0  0  0  0
   59.8680   28.2810   43.7950 O   0  0  0  0  0  0  0  0  0  0  0  0
   60.7640   27.9020   46.0490 O   0  0  0  0  0  0  0  0  0  0  0  0
   59.2200   30.0460   45.6810 N   0  0  0  0  0  0  0  0  0  0  0  0
   58.5910   30.1100   47.0110 C   0  0  0  0  0  0  0  0  0  0  0  0
   58.4630   31.5710   47.4820 C   0  0  0  0  0  0  0  0  0  0  0  0
   58.5480   32.5890   46.3220 C   0  0  0  0  0  0  0  0  0  0  0  0
   57.8110   32.0350   45.0900 C   0  0  0  0  0  0  0  0  0  0  0  0
   58.3420   30.6470   44.6590 C   0  0  0  0  0  0  0  0  0  0  0  0
   59.9060   32.8030   45.9910 O   0  0  0  0  0  0  0  0  0  0  0  0
   60.1460   34.1590   46.1920 C   0  0  0  0  0  0  0  0  0  0  0  0
   58.9690   34.6910   46.9460 C   0  0  0  0  0  0  0  0  0  0  0  0
   57.9300   33.7940   46.7210 O   0  0  0  0  0  0  0  0  0  0  0  0
   56.8540   27.7650   45.6190 C   0  0  0  0  0  0  0  0  0  0  0  0
   56.3340   28.9540   45.1240 O   0  0  0  0  0  0  0  0  0  0  0  0
   56.1410   26.7370   46.1900 C   0  0  0  0  0  0  0  0  0  0  0  0
   54.7620   26.7120   46.3670 O   0  0  0  0  0  0  0  0  0  0  0  0
   56.9250   22.5840   45.8440 N   0  0  0  0  0  0  0  0  0  0  0  0
   56.8070   22.0850   44.6480 C   0  0  0  0  0  0  0  0  0  0  0  0
   57.7720   21.4150   43.9160 C   0  0  0  0  0  0  0  0  0  0  0  0
   57.1440   21.1740   42.7130 C   0  0  0  0  0  0  0  0  0  0  0  0
   55.9260   21.6680   42.7640 O   0  0  0  0  0  0  0  0  0  0  0  0
   55.6880   22.2270   43.9150 N   0  0  0  0  0  0  0  0  0  0  0  0
   55.9051   24.8466   48.1486 H   0  0  0  0  0  0  0  0  0  0  0  0
   57.5463   24.1787   47.8533 H   0  0  0  0  0  0  0  0  0  0  0  0
   59.1472   25.5863   46.4758 H   0  0  0  0  0  0  0  0  0  0  0  0
   57.5895   29.6581   46.9591 H   0  0  0  0  0  0  0  0  0  0  0  0
   59.2202   29.5610   47.7270 H   0  0  0  0  0  0  0  0  0  0  0  0
   57.4926   31.6933   47.9853 H   0  0  0  0  0  0  0  0  0  0  0  0
   59.3054   31.7733   48.1598 H   0  0  0  0  0  0  0  0  0  0  0  0
   56.7411   31.9451   45.3294 H   0  0  0  0  0  0  0  0  0  0  0  0
   57.9806   32.7323   44.2564 H   0  0  0  0  0  0  0  0  0  0  0  0
   57.4862   29.9773   44.4886 H   0  0  0  0  0  0  0  0  0  0  0  0
   58.9334   30.7810   43.7412 H   0  0  0  0  0  0  0  0  0  0  0  0
   61.0670   34.2994   46.7768 H   0  0  0  0  0  0  0  0  0  0  0  0
   60.2771   34.6860   45.2354 H   0  0  0  0  0  0  0  0  0  0  0  0
   59.1980   34.7484   48.0204 H   0  0  0  0  0  0  0  0  0  0  0  0
   58.7036   35.7054   46.6136 H   0  0  0  0  0  0  0  0  0  0  0  0
   58.7929   21.1412   44.2206 H   0  0  0  0  0  0  0  0  0  0  0  0
   57.5884   20.6539   41.8516 H   0  0  0  0  0  0  0  0  0  0  0  0
  1  2  2  0
  2  3  1  0
  3  4  1  0
  4  5  1  0
  5  6  2  0
  6  7  1  0
  7  8  2  0
  7  9  2  0
  7 10  1  0
 10 11  1  0
 11 12  1  0
 12 13  1  0
 13 14  1  0
 14 15  1  0
 13 16  1  0
 16 17  1  0
 17 18  1  0
 18 19  1  0
  6 20  1  0
 20 21  1  0
 20 22  2  0
 22 23  1  0
  2 24  1  0
 24 25  2  3
 25 26  1  0
 26 27  2  0
 27 28  1  0
 28 29  1  0
 22  4  1  0
 29 25  1  0
 15 10  1  0
 19 13  1  0
  3 30  1  0
  3 31  1  0
  5 32  1  0
 11 33  1  0
 11 34  1  0
 12 35  1  0
 12 36  1  0
 14 37  1  0
 14 38  1  0
 15 39  1  0
 15 40  1  0
 17 41  1  0
 17 42  1  0
 18 43  1  0
 18 44  1  0
 26 45  1  0
 27 46  1  0
M  CHG  3  21  -1  23  -1  29  -1
M  END
>  <UniqueID>  (16) 
15

>  <SMILES>  (16) 
O=C(Cn1cc(S(=O)(=O)N2CCC3(CC2)OCCO3)c([O-])c1[O-])N=c1cco[n-]1

>  <Energy>  (16) 
108.65242817519406

>  <Genealogy>  (16) 
O=C(Cn1cc(S(=O)(=O)N2CCC3(CC2)OCCO3)c([O-])c1[O-])N=c1cco[n-]1 (protonated)
O=C(Cn1cc(S(=O)(=O)N2CCC3(CC2)OCCO3)c([O-])c1[O-])N=c1cco[n-]1 (3D coordinates assigned)
O=C(Cn1cc(S(=O)(=O)N2CCC3(CC2)OCCO3)c([O-])c1[O-])N=c1cco[n-]1 (nonaromatic ring conformer: 108.65242817519406 kcal/mol)

>  <smiles>  (16) 
O=C(Cn1cc(S(=O)(=O)N2CCC3(CC2)OCCO3)c(O)c1O)N=c1cco[nH]1

>  <score_type>  (16) 
oracle

>  <origin>  (16) 
adg

>  <m_score__min__energy>  (16) 
-16.629999999999999

>  <m_primary>  (16) 
energy

$$$$
16:0
     RDKit          3D

 56 59  0  0  0  0  0  0  0  0999 V2000
   57.9652   32.6314   50.2665 H   0  0  0  0  0  0  0  0  0  0  0  0
   58.8430   32.1190   50.6870 C   0  0  0  0  0  0  0  0  0  0  0  0
   58.6600   30.8040   51.3260 C   0  0  0  0  0  0  0  0  0  0  0  0
   57.5040   30.3040   51.3570 O   0  0  0  0  0  0  0  0  0  0  0  0
   56.6570   28.6500   44.8320 N   0  0  0  0  0  0  0  0  0  0  0  0
   57.5050   28.1440   45.6840 C   0  0  0  0  0  0  0  0  0  0  0  0
   57.3250   26.8860   46.2990 C   0  0  0  0  0  0  0  0  0  0  0  0
   56.4360   26.2795   46.0712 H   0  0  0  0  0  0  0  0  0  0  0  0
   61.7570   27.0560   51.7350 C   0  0  0  0  0  0  0  0  0  0  0  0
   62.4502   26.5015   52.3846 H   0  0  0  0  0  0  0  0  0  0  0  0
   61.4710   26.5870   50.4930 N   0  0  0  0  0  0  0  0  0  0  0  0
   60.6100   27.2300   49.6610 C   0  0  0  0  0  0  0  0  0  0  0  0
   60.3630   26.6840   48.3940 O   0  0  0  0  0  0  0  0  0  0  0  0
   59.4270   27.1720   47.4700 C   0  0  0  0  0  0  0  0  0  0  0  0
   59.5770   28.4140   46.8360 C   0  0  0  0  0  0  0  0  0  0  0  0
   60.4634   29.0319   47.0421 H   0  0  0  0  0  0  0  0  0  0  0  0
   58.6290   28.8560   45.9670 N   0  0  0  0  0  0  0  0  0  0  0  0
   60.3130   28.9590   51.3510 C   0  0  0  0  0  0  0  0  0  0  0  0
   59.7960   30.0670   51.8110 N   0  0  0  0  0  0  0  0  0  0  0  0
   56.4270   30.0260   44.4900 C   0  0  0  0  0  0  0  0  0  0  0  0
   55.2580   30.4710   44.3450 O   0  0  0  0  0  0  0  0  0  0  0  0
   57.5450   30.9170   44.4060 N   0  0  0  0  0  0  0  0  0  0  0  0
   58.5010   30.5440   44.6060 H   0  0  0  0  0  0  0  0  0  0  0  0
   57.4020   32.3300   44.0640 C   0  0  0  0  0  0  0  0  0  0  0  0
   57.8943   32.5218   43.0992 H   0  0  0  0  0  0  0  0  0  0  0  0
   56.3320   32.5759   43.9954 H   0  0  0  0  0  0  0  0  0  0  0  0
   58.0360   33.1890   45.1250 C   0  0  0  0  0  0  0  0  0  0  0  0
   57.7850   32.9280   46.4820 C   0  0  0  0  0  0  0  0  0  0  0  0
   57.1094   32.1080   46.7667 H   0  0  0  0  0  0  0  0  0  0  0  0
   58.3910   33.7070   47.4720 C   0  0  0  0  0  0  0  0  0  0  0  0
   58.1894   33.5006   48.5335 H   0  0  0  0  0  0  0  0  0  0  0  0
   59.2520   34.7470   47.1150 C   0  0  0  0  0  0  0  0  0  0  0  0
   59.7259   35.3605   47.8954 H   0  0  0  0  0  0  0  0  0  0  0  0
   59.5120   35.0090   45.7670 C   0  0  0  0  0  0  0  0  0  0  0  0
   60.1926   35.8265   45.4870 H   0  0  0  0  0  0  0  0  0  0  0  0
   58.9070   34.2320   44.7740 C   0  0  0  0  0  0  0  0  0  0  0  0
   59.1146   34.4391   43.7138 H   0  0  0  0  0  0  0  0  0  0  0  0
   60.0220   28.4400   50.0720 C   0  0  0  0  0  0  0  0  0  0  0  0
   59.3386   28.9789   49.3993 H   0  0  0  0  0  0  0  0  0  0  0  0
   58.2850   26.4180   47.1990 C   0  0  0  0  0  0  0  0  0  0  0  0
   58.1396   25.4483   47.6975 H   0  0  0  0  0  0  0  0  0  0  0  0
   61.1740   28.2390   52.1890 C   0  0  0  0  0  0  0  0  0  0  0  0
   61.3900   28.6059   53.2033 H   0  0  0  0  0  0  0  0  0  0  0  0
   60.0420   32.7130   50.6000 C   0  0  0  0  0  0  0  0  0  0  0  0
   60.3868   33.3170   51.4522 H   0  0  0  0  0  0  0  0  0  0  0  0
   60.9290   32.5990   49.4150 C   0  0  0  0  0  0  0  0  0  0  0  0
   60.8070   31.4700   48.5850 C   0  0  0  0  0  0  0  0  0  0  0  0
   60.0684   30.6917   48.8276 H   0  0  0  0  0  0  0  0  0  0  0  0
   61.6170   31.3290   47.4540 C   0  0  0  0  0  0  0  0  0  0  0  0
   61.5186   30.4387   46.8156 H   0  0  0  0  0  0  0  0  0  0  0  0
   62.5500   32.3160   47.1340 C   0  0  0  0  0  0  0  0  0  0  0  0
   63.1923   32.1986   46.2488 H   0  0  0  0  0  0  0  0  0  0  0  0
   62.6690   33.4520   47.9360 C   0  0  0  0  0  0  0  0  0  0  0  0
   63.3985   34.2333   47.6765 H   0  0  0  0  0  0  0  0  0  0  0  0
   61.8610   33.5990   49.0710 C   0  0  0  0  0  0  0  0  0  0  0  0
   61.9543   34.4989   49.6966 H   0  0  0  0  0  0  0  0  0  0  0  0
  1  2  1  0
  2  3  1  0
  3  4  2  0
  3  5  1  0
  5  6  2  0
  6  7  1  0
  7  8  1  0
  7  9  2  0
  9 10  1  0
  9 11  1  0
 11 12  1  0
 12 13  1  0
 13 14  1  0
 14 15  2  0
 15 16  1  0
 15 17  1  0
 17 18  1  0
 18 19  2  0
 19 20  1  0
 20 21  2  0
 20 22  1  0
 22 23  1  0
 22 24  1  0
 24 25  1  0
 24 26  1  0
 24 27  1  0
 27 28  2  0
 28 29  1  0
 28 30  1  0
 30 31  1  0
 30 32  2  0
 32 33  1  0
 32 34  1  0
 34 35  1  0
 34 36  2  0
 36 37  1  0
 18 38  1  0
 38 39  1  0
 38 40  2  0
 40 41  1  0
 12 42  2  0
 42 43  1  0
  2 44  2  3
 44 45  1  0
 44 46  1  0
 46 47  2  0
 47 48  1  0
 47 49  1  0
 49 50  1  0
 49 51  2  0
 51 52  1  0
 51 53  1  0
 53 54  1  0
 53 55  2  0
 55 56  1  0
 42  6  1  0
 55 46  1  0
 40 14  1  0
 36 27  1  0
M  CHG  2  11  -1  17  -1
M  END
>  <UniqueID>  (17) 
16

>  <SMILES>  (17) 
O=C(C=Cc1ccccc1)/N=c1/cc[n-]c(Oc2cc/c(=N\C(=O)NCc3ccccc3)[n-]c2)c1

>  <Energy>  (17) 
82.50370450120553

>  <Genealogy>  (17) 
O=C(C=Cc1ccccc1)N=c1cc[n-]c(Oc2ccc(=NC(=O)NCc3ccccc3)[n-]c2)c1 (protonated)
O=C(C=Cc1ccccc1)/N=c1/cc[n-]c(Oc2cc/c(=N\C(=O)NCc3ccccc3)[n-]c2)c1 (cis-trans isomerization)
O=C(C=Cc1ccccc1)/N=c1/cc[n-]c(Oc2cc/c(=N\C(=O)NCc3ccccc3)[n-]c2)c1 (3D coordinates assigned)
O=C(C=Cc1ccccc1)/N=c1/cc[n-]c(Oc2cc/c(=N\C(=O)NCc3ccccc3)[n-]c2)c1 (optimized conformer: 82.50370450120553 kcal/mol)

>  <smiles>  (17) 
O=C(C=Cc1ccccc1)N=c1cc[nH]c(Oc2ccc(=NC(=O)NCc3ccccc3)[nH]c2)c1

>  <score_type>  (17) 
oracle

>  <origin>  (17) 
adg

>  <m_score__min__energy>  (17) 
-12.35

>  <m_primary>  (17) 
energy

$$$$
17:0
     RDKit          3D

 59 63  0  0  0  0  0  0  0  0999 V2000
   55.9230   27.0750   45.7680 N   0  0  0  0  0  0  0  0  0  0  0  0
   57.5570   26.8780   45.2390 S   0  0  0  0  0  0  0  0  0  0  0  0
   57.6980   27.4160   43.8410 O   0  0  0  0  0  0  0  0  0  0  0  0
   57.9110   25.4170   45.2330 O   0  0  0  0  0  0  0  0  0  0  0  0
   58.6370   27.7370   46.3330 C   0  0  0  0  0  0  0  0  0  0  0  0
   59.6590   28.5530   45.8300 C   0  0  0  0  0  0  0  0  0  0  0  0
   60.5070   29.2380   46.7050 C   0  0  0  0  0  0  0  0  0  0  0  0
   60.3410   29.1160   48.0950 C   0  0  0  0  0  0  0  0  0  0  0  0
   61.2200   29.8910   49.0380 C   0  0  0  0  0  0  0  0  0  0  0  0
   60.5990   31.1800   49.3640 N   0  0  0  0  0  0  0  0  0  0  0  0
   60.0750   32.0210   48.3200 C   0  0  0  0  0  0  0  0  0  0  0  0
   58.7620   31.9980   47.8450 C   0  0  0  0  0  0  0  0  0  0  0  0
   58.5440   32.9550   46.8480 C   0  0  0  0  0  0  0  0  0  0  0  0
   57.3440   33.1780   46.1660 C   0  0  0  0  0  0  0  0  0  0  0  0
   57.2980   34.1830   45.1830 C   0  0  0  0  0  0  0  0  0  0  0  0
   58.4460   34.9450   44.8890 C   0  0  0  0  0  0  0  0  0  0  0  0
   59.6460   34.7150   45.5810 C   0  0  0  0  0  0  0  0  0  0  0  0
   59.6660   33.7180   46.5530 C   0  0  0  0  0  0  0  0  0  0  0  0
   60.9520   33.2290   47.5150 S   0  0  0  0  0  0  0  0  0  0  0  0
   60.3610   31.6180   51.0330 S   0  0  0  0  0  0  0  0  0  0  0  0
   60.7770   33.0520   51.2300 O   0  0  0  0  0  0  0  0  0  0  0  0
   61.1960   30.7380   51.9250 O   0  0  0  0  0  0  0  0  0  0  0  0
   58.6730   31.3950   51.4850 C   0  0  0  0  0  0  0  0  0  0  0  0
   57.9190   32.4490   52.0080 C   0  0  0  0  0  0  0  0  0  0  0  0
   56.5790   32.2480   52.3470 C   0  0  0  0  0  0  0  0  0  0  0  0
   55.9960   30.9800   52.1590 C   0  0  0  0  0  0  0  0  0  0  0  0
   54.6140   30.7270   52.4950 N   0  0  0  0  0  0  0  0  0  0  0  0
   53.5930   30.8190   51.4420 C   0  0  0  0  0  0  0  0  0  0  0  0
   52.2240   31.1400   52.0510 C   0  0  0  0  0  0  0  0  0  0  0  0
   51.9220   30.2500   53.1060 O   0  0  0  0  0  0  0  0  0  0  0  0
   52.8280   30.4570   54.1710 C   0  0  0  0  0  0  0  0  0  0  0  0
   54.2510   30.0690   53.7580 C   0  0  0  0  0  0  0  0  0  0  0  0
   56.7610   29.9730   51.6530 N   0  0  0  0  0  0  0  0  0  0  0  0
   58.0660   30.1470   51.3170 C   0  0  0  0  0  0  0  0  0  0  0  0
   59.3050   28.3120   48.5970 C   0  0  0  0  0  0  0  0  0  0  0  0
   58.4620   27.6230   47.7210 C   0  0  0  0  0  0  0  0  0  0  0  0
   55.5220   27.8740   45.2290 H   0  0  0  0  0  0  0  0  0  0  0  0
   59.7944   28.6549   44.7431 H   0  0  0  0  0  0  0  0  0  0  0  0
   61.3083   29.8757   46.3034 H   0  0  0  0  0  0  0  0  0  0  0  0
   61.3615   29.3115   49.9622 H   0  0  0  0  0  0  0  0  0  0  0  0
   62.1922   30.0720   48.5563 H   0  0  0  0  0  0  0  0  0  0  0  0
   57.9886   31.3073   48.2122 H   0  0  0  0  0  0  0  0  0  0  0  0
   56.4510   32.5777   46.3943 H   0  0  0  0  0  0  0  0  0  0  0  0
   56.3604   34.3751   44.6407 H   0  0  0  0  0  0  0  0  0  0  0  0
   58.4020   35.7239   44.1136 H   0  0  0  0  0  0  0  0  0  0  0  0
   60.5467   35.3069   45.3610 H   0  0  0  0  0  0  0  0  0  0  0  0
   58.3808   33.4368   52.1527 H   0  0  0  0  0  0  0  0  0  0  0  0
   55.9825   33.0755   52.7585 H   0  0  0  0  0  0  0  0  0  0  0  0
   53.8713   31.6154   50.7361 H   0  0  0  0  0  0  0  0  0  0  0  0
   53.5328   29.8535   50.9185 H   0  0  0  0  0  0  0  0  0  0  0  0
   52.2346   32.1691   52.4394 H   0  0  0  0  0  0  0  0  0  0  0  0
   51.4572   31.0331   51.2696 H   0  0  0  0  0  0  0  0  0  0  0  0
   52.8123   31.5192   54.4565 H   0  0  0  0  0  0  0  0  0  0  0  0
   52.5235   29.8277   55.0202 H   0  0  0  0  0  0  0  0  0  0  0  0
   54.9544   30.3802   54.5443 H   0  0  0  0  0  0  0  0  0  0  0  0
   54.2981   28.9788   53.6194 H   0  0  0  0  0  0  0  0  0  0  0  0
   58.6458   29.3044   50.9121 H   0  0  0  0  0  0  0  0  0  0  0  0
   59.1565   28.2242   49.6834 H   0  0  0  0  0  0  0  0  0  0  0  0
   57.6575   26.9883   48.1211 H   0  0  0  0  0  0  0  0  0  0  0  0
  1  2  1  0
  2  3  2  0
  2  4  2  0
  2  5  1  0
  5  6  2  0
  6  7  1  0
  7  8  2  0
  8  9  1  0
  9 10  1  0
 10 11  1  0
 11 12  2  0
 12 13  1  0
 13 14  2  0
 14 15  1  0
 15 16  2  0
 16 17  1  0
 17 18  2  0
 18 19  1  0
 10 20  1  0
 20 21  2  0
 20 22  2  0
 20 23  1  0
 23 24  2  0
 24 25  1  0
 25 26  2  0
 26 27  1  0
 27 28  1  0
 28 29  1  0
 29 30  1  0
 30 31  1  0
 31 32  1  0
 26 33  1  0
 33 34  2  0
  8 35  1  0
 35 36  2  0
 36  5  1  0
 19 11  1  0
 34 23  1  0
 18 13  1  0
 32 27  1  0
  1 37  1  0
  6 38  1  0
  7 39  1  0
  9 40  1  0
  9 41  1  0
 12 42  1  0
 14 43  1  0
 15 44  1  0
 16 45  1  0
 17 46  1  0
 24 47  1  0
 25 48  1  0
 28 49  1  0
 28 50  1  0
 29 51  1  0
 29 52  1  0
 31 53  1  0
 31 54  1  0
 32 55  1  0
 32 56  1  0
 34 57  1  0
 35 58  1  0
 36 59  1  0
M  CHG  1   1  -1
M  END
>  <UniqueID>  (18) 
17

>  <SMILES>  (18) 
[NH-]S(=O)(=O)c1ccc(CN(c2cc3ccccc3s2)S(=O)(=O)c2ccc(N3CCOCC3)nc2)cc1

>  <Energy>  (18) 
101.98441412393558

>  <Genealogy>  (18) 
[NH-]S(=O)(=O)c1ccc(CN(c2cc3ccccc3s2)S(=O)(=O)c2ccc(N3CCOCC3)nc2)cc1 (protonated)
[NH-]S(=O)(=O)c1ccc(CN(c2cc3ccccc3s2)S(=O)(=O)c2ccc(N3CCOCC3)nc2)cc1 (3D coordinates assigned)
[NH-]S(=O)(=O)c1ccc(CN(c2cc3ccccc3s2)S(=O)(=O)c2ccc(N3CCOCC3)nc2)cc1 (nonaromatic ring conformer: 101.98441412393558 kcal/mol)

>  <smiles>  (18) 
NS(=O)(=O)c1ccc(CN(c2cc3ccccc3s2)S(=O)(=O)c2ccc(N3CCOCC3)nc2)cc1

>  <score_type>  (18) 
oracle

>  <origin>  (18) 
adg

>  <m_score__min__energy>  (18) 
-12.16

>  <m_primary>  (18) 
energy

$$$$
18:0
     RDKit          3D

 36 38  0  0  0  0  0  0  0  0999 V2000
   56.5550   30.4620   42.8010 O   0  0  0  0  0  0  0  0  0  0  0  0
   56.9920   30.4830   43.9810 C   0  0  0  0  0  0  0  0  0  0  0  0
   56.6540   31.5980   44.8170 N   0  0  0  0  0  0  0  0  0  0  0  0
   57.5300   32.6720   45.1920 C   0  0  0  0  0  0  0  0  0  0  0  0
   58.3610   33.3100   44.2530 C   0  0  0  0  0  0  0  0  0  0  0  0
   59.1910   34.3630   44.6500 C   0  0  0  0  0  0  0  0  0  0  0  0
   59.1850   34.7980   45.9790 C   0  0  0  0  0  0  0  0  0  0  0  0
   60.0100   35.8440   46.3720 O   0  0  0  0  0  0  0  0  0  0  0  0
   58.3430   34.1820   46.9110 C   0  0  0  0  0  0  0  0  0  0  0  0
   57.5130   33.1280   46.5160 C   0  0  0  0  0  0  0  0  0  0  0  0
   57.7880   29.3370   44.4830 C   0  0  0  0  0  0  0  0  0  0  0  0
   58.9060   29.5440   45.3070 C   0  0  0  0  0  0  0  0  0  0  0  0
   59.6440   28.4570   45.7820 C   0  0  0  0  0  0  0  0  0  0  0  0
   59.2700   27.1540   45.4480 C   0  0  0  0  0  0  0  0  0  0  0  0
   58.1520   26.9270   44.6310 C   0  0  0  0  0  0  0  0  0  0  0  0
   57.7220   25.5220   44.3020 C   0  0  0  0  0  0  0  0  0  0  0  0
   57.3400   24.7820   45.5590 C   0  0  0  0  0  0  0  0  0  0  0  0
   58.0810   23.6670   45.9740 C   0  0  0  0  0  0  0  0  0  0  0  0
   57.7150   22.9810   47.0870 N   0  0  0  0  0  0  0  0  0  0  0  0
   56.6300   23.3520   47.8120 C   0  0  0  0  0  0  0  0  0  0  0  0
   56.3090   22.7030   48.8410 O   0  0  0  0  0  0  0  0  0  0  0  0
   55.8880   24.4210   47.4260 N   0  0  0  0  0  0  0  0  0  0  0  0
   56.2130   25.1390   46.3200 C   0  0  0  0  0  0  0  0  0  0  0  0
   55.4970   26.1220   45.9890 O   0  0  0  0  0  0  0  0  0  0  0  0
   57.4070   28.0220   44.1620 C   0  0  0  0  0  0  0  0  0  0  0  0
   58.3578   32.9796   43.2038 H   0  0  0  0  0  0  0  0  0  0  0  0
   59.8497   34.8499   43.9158 H   0  0  0  0  0  0  0  0  0  0  0  0
   58.3338   34.5270   47.9555 H   0  0  0  0  0  0  0  0  0  0  0  0
   56.8433   32.6547   47.2491 H   0  0  0  0  0  0  0  0  0  0  0  0
   59.2023   30.5676   45.5800 H   0  0  0  0  0  0  0  0  0  0  0  0
   60.5226   28.6283   46.4213 H   0  0  0  0  0  0  0  0  0  0  0  0
   59.8539   26.3022   45.8267 H   0  0  0  0  0  0  0  0  0  0  0  0
   56.8561   25.5571   43.6246 H   0  0  0  0  0  0  0  0  0  0  0  0
   58.5587   24.9964   43.8185 H   0  0  0  0  0  0  0  0  0  0  0  0
   58.9610   23.3470   45.3967 H   0  0  0  0  0  0  0  0  0  0  0  0
   56.5177   27.8491   43.5381 H   0  0  0  0  0  0  0  0  0  0  0  0
  1  2  2  0
  2  3  1  0
  3  4  1  0
  4  5  2  0
  5  6  1  0
  6  7  2  0
  7  8  1  0
  7  9  1  0
  9 10  2  0
  2 11  1  0
 11 12  2  0
 12 13  1  0
 13 14  2  0
 14 15  1  0
 15 16  1  0
 16 17  1  0
 17 18  2  0
 18 19  1  0
 19 20  1  0
 20 21  2  0
 20 22  1  0
 22 23  1  0
 23 24  2  0
 15 25  2  0
 10  4  1  0
 25 11  1  0
 23 17  1  0
  5 26  1  0
  6 27  1  0
  9 28  1  0
 10 29  1  0
 12 30  1  0
 13 31  1  0
 14 32  1  0
 16 33  1  0
 16 34  1  0
 18 35  1  0
 25 36  1  0
M  CHG  4   3  -1   8  -1  19  -1  22  -1
M  END
>  <UniqueID>  (19) 
18

>  <SMILES>  (19) 
O=C([N-]c1ccc([O-])cc1)c1cccc(Cc2c[n-]c(=O)[n-]c2=O)c1

>  <Energy>  (19) 
46.755632701437236

>  <Genealogy>  (19) 
O=C([N-]c1ccc([O-])cc1)c1cccc(Cc2c[n-]c(=O)[n-]c2=O)c1 (protonated)
O=C([N-]c1ccc([O-])cc1)c1cccc(Cc2c[n-]c(=O)[n-]c2=O)c1 (3D coordinates assigned)
O=C([N-]c1ccc([O-])cc1)c1cccc(Cc2c[n-]c(=O)[n-]c2=O)c1 (optimized conformer: 46.755632701437236 kcal/mol)

>  <smiles>  (19) 
O=C(Nc1ccc(O)cc1)c1cccc(Cc2c[nH]c(=O)[nH]c2=O)c1

>  <score_type>  (19) 
oracle

>  <origin>  (19) 
adg

>  <m_score__min__energy>  (19) 
-14.25

>  <m_primary>  (19) 
energy

$$$$
19:0
     RDKit          3D

 55 58  0  0  1  0  0  0  0  0999 V2000
   67.6130   28.3260   50.7120 C   0  0  0  0  0  0  0  0  0  0  0  0
   67.5600   29.5360   51.5120 N   0  0  0  0  0  0  0  0  0  0  0  0
   68.3920   29.7470   52.6820 C   0  0  0  0  0  0  0  0  0  0  0  0
   66.6540   30.5650   51.1350 C   0  0  0  0  0  0  0  0  0  0  0  0
   65.2990   30.4720   51.3740 C   0  0  0  0  0  0  0  0  0  0  0  0
   64.4040   31.4510   51.0200 C   0  0  0  0  0  0  0  0  0  0  0  0
   64.8400   32.6030   50.3910 C   0  0  0  0  0  0  0  0  0  0  0  0
   63.8580   33.5630   50.0580 N   0  0  0  0  0  0  0  0  0  0  0  0
   62.7400   33.3520   49.2240 C   0  0  0  0  0  0  0  0  0  0  0  0
   62.4820   32.2750   48.6700 O   0  0  0  0  0  0  0  0  0  0  0  0
   61.8170   34.4330   48.9750 N   0  0  0  0  0  0  0  0  0  0  0  0
   60.6990   34.1790   48.1240 C   0  0  0  0  0  0  0  0  0  0  0  0
   60.6900   34.5610   46.7940 C   0  0  0  0  0  0  0  0  0  0  0  0
   59.6040   34.3140   45.9650 C   0  0  0  0  0  0  0  0  0  0  0  0
   58.5100   33.6720   46.4820 C   0  0  0  0  0  0  0  0  0  0  0  0
   57.2890   33.3530   45.6970 C   0  0  0  0  0  0  0  0  0  0  0  0
   57.5670   32.4840   44.5700 N   0  0  0  0  0  0  0  0  0  0  0  0
   57.1770   31.2540   44.6200 C   0  0  0  0  0  0  0  0  0  0  0  0
   55.9690   30.8420   44.1920 N   0  0  0  0  0  0  0  0  0  0  0  0
   55.6070   29.5330   44.2690 C   0  0  0  0  0  0  0  0  0  0  0  0
   56.4870   28.6280   44.7860 N   0  0  0  0  0  0  0  0  0  0  0  0
   57.6980   29.0210   45.2190 C   0  0  0  0  0  0  0  0  0  0  0  0
   58.6220   28.1210   45.7550 C   0  0  0  0  0  0  0  0  0  0  0  0
   59.8620   28.5340   46.1950 C   0  0  0  0  0  0  0  0  0  0  0  0
   60.2270   29.8630   46.1170 C   0  0  0  0  0  0  0  0  0  0  0  0
   61.4520   30.2970   46.5480 F   0  0  0  0  0  0  0  0  0  0  0  0
   59.3170   30.7540   45.5880 C   0  0  0  0  0  0  0  0  0  0  0  0
   58.0770   30.3450   45.1470 C   0  0  0  0  0  0  0  0  0  0  0  0
   58.5190   33.2880   47.8190 C   0  0  0  0  0  0  0  0  0  0  0  0
   59.6020   33.5360   48.6400 C   0  0  0  0  0  0  0  0  0  0  0  0
   66.1740   32.7070   50.1490 C   0  0  0  0  0  0  0  0  0  0  0  0
   67.0940   31.7130   50.5080 C   0  0  0  0  0  0  0  0  0  0  0  0
   67.6514   27.4493   51.3753 H   0  0  0  0  0  0  0  0  0  0  0  0
   66.7166   28.2666   50.0772 H   0  0  0  0  0  0  0  0  0  0  0  0
   68.5112   28.3452   50.0772 H   0  0  0  0  0  0  0  0  0  0  0  0
   67.7917   29.5948   53.5911 H   0  0  0  0  0  0  0  0  0  0  0  0
   69.2283   29.0325   52.6709 H   0  0  0  0  0  0  0  0  0  0  0  0
   68.7867   30.7737   52.6709 H   0  0  0  0  0  0  0  0  0  0  0  0
   64.9166   29.5692   51.8727 H   0  0  0  0  0  0  0  0  0  0  0  0
   63.3340   31.3184   51.2379 H   0  0  0  0  0  0  0  0  0  0  0  0
   63.9430   34.5440   50.4610 H   0  0  0  0  0  0  0  0  0  0  0  0
   61.9650   35.3850   49.4090 H   0  0  0  0  0  0  0  0  0  0  0  0
   61.5699   35.0760   46.3810 H   0  0  0  0  0  0  0  0  0  0  0  0
   59.6218   34.6285   44.9111 H   0  0  0  0  0  0  0  0  0  0  0  0
   56.5649   32.8538   46.3576 H   0  0  0  0  0  0  0  0  0  0  0  0
   56.8889   34.2980   45.3008 H   0  0  0  0  0  0  0  0  0  0  0  0
   54.6163   29.2081   43.9185 H   0  0  0  0  0  0  0  0  0  0  0  0
   56.2400   27.6140   44.8590 H   0  0  0  0  0  0  0  0  0  0  0  0
   58.3540   27.0566   45.8279 H   0  0  0  0  0  0  0  0  0  0  0  0
   60.5659   27.7985   46.6115 H   0  0  0  0  0  0  0  0  0  0  0  0
   59.5876   31.8178   45.5162 H   0  0  0  0  0  0  0  0  0  0  0  0
   57.6400   32.7729   48.2337 H   0  0  0  0  0  0  0  0  0  0  0  0
   59.5852   33.2220   49.6941 H   0  0  0  0  0  0  0  0  0  0  0  0
   66.5479   33.6125   49.6487 H   0  0  0  0  0  0  0  0  0  0  0  0
   68.1639   31.8473   50.2907 H   0  0  0  0  0  0  0  0  0  0  0  0
  1  2  1  0
  2  3  1  0
  2  4  1  0
  4  5  2  0
  5  6  1  0
  6  7  2  0
  7  8  1  0
  8  9  1  0
  9 10  2  0
  9 11  1  0
 11 12  1  0
 12 13  2  0
 13 14  1  0
 14 15  2  0
 15 16  1  0
 16 17  1  0
 17 18  2  0
 18 19  1  0
 19 20  2  0
 20 21  1  0
 21 22  1  0
 22 23  2  0
 23 24  1  0
 24 25  2  0
 25 26  1  0
 25 27  1  0
 27 28  2  0
 15 29  1  0
 29 30  2  0
  7 31  1  0
 31 32  2  0
 32  4  1  0
 30 12  1  0
 28 18  1  0
 28 22  1  0
  1 33  1  0
  1 34  1  0
  1 35  1  0
  3 36  1  0
  3 37  1  0
  3 38  1  0
  5 39  1  0
  6 40  1  0
  8 41  1  0
 11 42  1  0
 13 43  1  0
 14 44  1  0
 16 45  1  0
 16 46  1  0
 20 47  1  0
 21 48  1  0
 23 49  1  0
 24 50  1  0
 27 51  1  0
 29 52  1  0
 30 53  1  0
 31 54  1  0
 32 55  1  0
M  END
>  <smiles>  (20) 
CN(C)c1ccc(NC(=O)Nc2ccc(CN=c3nc[nH]c4ccc(F)cc34)cc2)cc1

>  <score_type>  (20) 
oracle

>  <origin>  (20) 
adg

>  <m_score__min__energy>  (20) 
-8.6799999999999997

>  <m_primary>  (20) 
energy

$$$$
20:0
     RDKit          3D

 31 32  0  0  0  0  0  0  0  0999 V2000
   60.2217   26.1797   45.8613 H   0  0  0  0  0  0  0  0  0  0  0  0
   59.4150   26.8950   45.6430 C   0  0  0  0  0  0  0  0  0  0  0  0
   59.7150   28.1360   45.0820 C   0  0  0  0  0  0  0  0  0  0  0  0
   60.7593   28.3982   44.8570 H   0  0  0  0  0  0  0  0  0  0  0  0
   58.6930   29.0470   44.8050 C   0  0  0  0  0  0  0  0  0  0  0  0
   58.9398   30.0239   44.3636 H   0  0  0  0  0  0  0  0  0  0  0  0
   57.3490   28.7280   45.0850 C   0  0  0  0  0  0  0  0  0  0  0  0
   56.2790   29.7130   44.7830 C   0  0  0  0  0  0  0  0  0  0  0  0
   55.1280   29.3090   44.4570 O   0  0  0  0  0  0  0  0  0  0  0  0
   56.5370   31.1210   44.8570 N   0  0  0  0  0  0  0  0  0  0  0  0
   57.3750   31.8400   43.9050 C   0  0  0  0  0  0  0  0  0  0  0  0
   56.7471   32.5138   43.3036 H   0  0  0  0  0  0  0  0  0  0  0  0
   57.8795   31.1151   43.2493 H   0  0  0  0  0  0  0  0  0  0  0  0
   58.4050   32.6420   44.6330 C   0  0  0  0  0  0  0  0  0  0  0  0
   58.8850   33.6740   44.0890 O   0  0  0  0  0  0  0  0  0  0  0  0
   58.8730   32.1930   45.9130 N   0  0  0  0  0  0  0  0  0  0  0  0
   60.0340   32.4070   46.4730 C   0  0  0  0  0  0  0  0  0  0  0  0
   60.4630   31.5340   47.4880 C   0  0  0  0  0  0  0  0  0  0  0  0
   59.4810   30.1630   47.9950 Cl  0  0  0  0  0  0  0  0  0  0  0  0
   61.6980   31.7480   48.1030 C   0  0  0  0  0  0  0  0  0  0  0  0
   62.0461   31.0645   48.8914 H   0  0  0  0  0  0  0  0  0  0  0  0
   62.4900   32.8290   47.7170 C   0  0  0  0  0  0  0  0  0  0  0  0
   64.0420   33.1090   48.4850 Cl  0  0  0  0  0  0  0  0  0  0  0  0
   62.0270   33.6920   46.7240 C   0  0  0  0  0  0  0  0  0  0  0  0
   62.6401   34.5527   46.4185 H   0  0  0  0  0  0  0  0  0  0  0  0
   60.8220   33.4760   46.1310 N   0  0  0  0  0  0  0  0  0  0  0  0
   60.5110   34.1860   45.4340 H   0  0  0  0  0  0  0  0  0  0  0  0
   57.0580   27.4660   45.6530 C   0  0  0  0  0  0  0  0  0  0  0  0
   55.7860   27.0990   45.9480 F   0  0  0  0  0  0  0  0  0  0  0  0
   58.0900   26.5620   45.9270 C   0  0  0  0  0  0  0  0  0  0  0  0
   57.8554   25.5825   46.3691 H   0  0  0  0  0  0  0  0  0  0  0  0
  1  2  1  0
  2  3  2  0
  3  4  1  0
  3  5  1  0
  5  6  1  0
  5  7  2  0
  7  8  1  0
  8  9  2  0
  8 10  1  0
 10 11  1  0
 11 12  1  0
 11 13  1  0
 11 14  1  0
 14 15  2  0
 14 16  1  0
 16 17  2  0
 17 18  1  0
 18 19  1  0
 18 20  2  0
 20 21  1  0
 20 22  1  0
 22 23  1  0
 22 24  2  0
 24 25  1  0
 24 26  1  0
 26 27  1  0
  7 28  1  0
 28 29  1  0
 28 30  2  0
 30 31  1  0
 30  2  1  0
 26 17  1  0
M  CHG  1  10  -1
M  END
>  <UniqueID>  (21) 
19

>  <SMILES>  (21) 
O=C(C[N-]C(=O)c1ccccc1F)/N=c1\[nH]cc(Cl)cc1Cl

>  <Energy>  (21) 
38.538945707369514

>  <Genealogy>  (21) 
O=C(C[N-]C(=O)c1ccccc1F)N=c1[nH]cc(Cl)cc1Cl (protonated)
O=C(C[N-]C(=O)c1ccccc1F)/N=c1\[nH]cc(Cl)cc1Cl (cis-trans isomerization)
O=C(C[N-]C(=O)c1ccccc1F)/N=c1\[nH]cc(Cl)cc1Cl (3D coordinates assigned)
O=C(C[N-]C(=O)c1ccccc1F)/N=c1\[nH]cc(Cl)cc1Cl (optimized conformer: 38.538945707369514 kcal/mol)

>  <smiles>  (21) 
O=C(CNC(=O)c1ccccc1F)N=c1[nH]cc(Cl)cc1Cl

>  <score_type>  (21) 
oracle

>  <origin>  (21) 
adg

>  <m_score__min__energy>  (21) 
-9.5299999999999994

>  <m_primary>  (21) 
energy

$$$$
21:0
     RDKit          3D

 47 49  0  0  1  0  0  0  0  0999 V2000
   57.8050   26.0000   47.1120 C   0  0  0  0  0  0  0  0  0  0  0  0
   56.7770   25.9440   45.6710 S   0  0  0  0  0  0  0  0  0  0  0  0
   56.7430   24.5430   45.1430 O   0  0  0  0  0  0  0  0  0  0  0  0
   55.3660   26.3690   46.0180 O   0  0  0  0  0  0  0  0  0  0  0  0
   57.3890   27.0290   44.4440 N   0  0  0  0  0  0  0  0  0  0  0  0
   58.0440   28.2240   44.8310 C   0  0  0  0  0  0  0  0  0  0  0  0
   59.4010   28.1780   45.1350 C   0  0  0  0  0  0  0  0  0  0  0  0
   60.0270   29.3450   45.5230 C   0  0  0  0  0  0  0  0  0  0  0  0
   59.2840   30.5130   45.5930 C   0  0  0  0  0  0  0  0  0  0  0  0
   57.9210   30.5320   45.2800 C   0  0  0  0  0  0  0  0  0  0  0  0
   57.2740   31.7820   45.3720 N   0  0  0  0  0  0  0  0  0  0  0  0
   57.9260   32.8210   45.7330 C   0  0  0  0  0  0  0  0  0  0  0  0
   58.2390   33.7280   44.7250 C   0  0  0  0  0  0  0  0  0  0  0  0
   58.9470   34.8830   45.0530 C   0  0  0  0  0  0  0  0  0  0  0  0
   59.2870   35.0500   46.3460 N   0  0  0  0  0  0  0  0  0  0  0  0
   58.9560   34.1270   47.3030 C   0  0  0  0  0  0  0  0  0  0  0  0
   59.3330   34.4140   48.4880 N   0  0  0  0  0  0  0  0  0  0  0  0
   59.4470   33.4460   49.5040 C   0  0  0  0  0  0  0  0  0  0  0  0
   58.5170   32.7060   49.8960 O   0  0  0  0  0  0  0  0  0  0  0  0
   60.8040   33.3050   50.1520 C   0  0  0  0  0  0  0  0  0  0  0  0
   61.8500   33.1880   49.0770 C   0  0  0  0  0  0  0  0  0  0  0  0
   62.7680   34.1460   48.7990 C   0  0  0  0  0  0  0  0  0  0  0  0
   63.6900   33.8960   47.7740 C   0  0  0  0  0  0  0  0  0  0  0  0
   63.6600   32.6980   47.0590 C   0  0  0  0  0  0  0  0  0  0  0  0
   62.7050   31.7110   47.3480 C   0  0  0  0  0  0  0  0  0  0  0  0
   61.8200   31.9920   48.3620 C   0  0  0  0  0  0  0  0  0  0  0  0
   58.2770   33.0110   47.0090 N   0  0  0  0  0  0  0  0  0  0  0  0
   57.3040   29.3630   44.8940 C   0  0  0  0  0  0  0  0  0  0  0  0
   57.1752   25.9657   48.0132 H   0  0  0  0  0  0  0  0  0  0  0  0
   58.4880   25.1377   47.1089 H   0  0  0  0  0  0  0  0  0  0  0  0
   58.3903   26.9314   47.1089 H   0  0  0  0  0  0  0  0  0  0  0  0
   57.2470   26.7560   43.4250 H   0  0  0  0  0  0  0  0  0  0  0  0
   59.9615   27.2339   45.0677 H   0  0  0  0  0  0  0  0  0  0  0  0
   61.0983   29.3482   45.7727 H   0  0  0  0  0  0  0  0  0  0  0  0
   59.7776   31.4463   45.9018 H   0  0  0  0  0  0  0  0  0  0  0  0
   57.9326   33.5365   43.6860 H   0  0  0  0  0  0  0  0  0  0  0  0
   59.2167   35.6266   44.2886 H   0  0  0  0  0  0  0  0  0  0  0  0
   59.8280   35.9270   46.6140 H   0  0  0  0  0  0  0  0  0  0  0  0
   61.0101   34.1896   50.7725 H   0  0  0  0  0  0  0  0  0  0  0  0
   60.8213   32.4069   50.7869 H   0  0  0  0  0  0  0  0  0  0  0  0
   62.7884   35.0912   49.3612 H   0  0  0  0  0  0  0  0  0  0  0  0
   64.4481   34.6547   47.5295 H   0  0  0  0  0  0  0  0  0  0  0  0
   64.3944   32.5250   46.2585 H   0  0  0  0  0  0  0  0  0  0  0  0
   62.6666   30.7624   46.7924 H   0  0  0  0  0  0  0  0  0  0  0  0
   61.0572   31.2424   48.6194 H   0  0  0  0  0  0  0  0  0  0  0  0
   58.0720   32.3630   47.7870 H   0  0  0  0  0  0  0  0  0  0  0  0
   56.2334   29.3509   44.6416 H   0  0  0  0  0  0  0  0  0  0  0  0
  1  2  1  0
  2  3  2  0
  2  4  2  0
  2  5  1  0
  5  6  1  0
  6  7  2  0
  7  8  1  0
  8  9  2  0
  9 10  1  0
 10 11  1  0
 11 12  2  0
 12 13  1  0
 13 14  2  0
 14 15  1  0
 15 16  1  0
 16 17  2  0
 17 18  1  0
 18 19  2  0
 18 20  1  0
 20 21  1  0
 21 22  2  0
 22 23  1  0
 23 24  2  0
 24 25  1  0
 25 26  2  0
 16 27  1  0
 10 28  2  0
 28  6  1  0
 27 12  1  0
 26 21  1  0
  1 29  1  0
  1 30  1  0
  1 31  1  0
  5 32  1  0
  7 33  1  0
  8 34  1  0
  9 35  1  0
 13 36  1  0
 14 37  1  0
 15 38  1  0
 20 39  1  0
 20 40  1  0
 22 41  1  0
 23 42  1  0
 24 43  1  0
 25 44  1  0
 26 45  1  0
 27 46  1  0
 28 47  1  0
M  END
>  <smiles>  (22) 
CS(=O)(=O)Nc1cccc(N=c2cc[nH]c(=NC(=O)Cc3ccccc3)[nH]2)c1

>  <score_type>  (22) 
oracle

>  <origin>  (22) 
adg

>  <m_score__min__energy>  (22) 
-9.0099999999999998

>  <m_primary>  (22) 
energy

$$$$
22:0
     RDKit          3D

 45 48  0  0  0  0  0  0  0  0999 V2000
   58.8399   33.1233   47.7825 H   0  0  0  0  0  0  0  0  0  0  0  0
   59.2420   33.0950   46.7590 C   0  0  0  0  0  0  0  0  0  0  0  0
   58.8560   34.1610   45.8080 C   0  0  0  0  0  0  0  0  0  0  0  0
   59.3300   35.3220   45.9390 O   0  0  0  0  0  0  0  0  0  0  0  0
   58.0260   33.8820   44.6720 N   0  0  0  0  0  0  0  0  0  0  0  0
   57.5190   32.7300   44.3450 C   0  0  0  0  0  0  0  0  0  0  0  0
   56.7450   32.0220   45.1940 N   0  0  0  0  0  0  0  0  0  0  0  0
   56.3580   30.8480   44.6960 N   0  0  0  0  0  0  0  0  0  0  0  0
   56.8360   30.6090   43.4540 C   0  0  0  0  0  0  0  0  0  0  0  0
   56.5270   29.3810   42.6700 C   0  0  0  0  0  0  0  0  0  0  0  0
   56.3177   28.5492   43.3588 H   0  0  0  0  0  0  0  0  0  0  0  0
   55.6465   29.5626   42.0361 H   0  0  0  0  0  0  0  0  0  0  0  0
   57.3885   29.1242   42.0361 H   0  0  0  0  0  0  0  0  0  0  0  0
   57.7810   31.8890   42.9010 S   0  0  0  0  0  0  0  0  0  0  0  0
   60.0660   32.0960   46.4130 C   0  0  0  0  0  0  0  0  0  0  0  0
   61.0361   32.3556   45.9641 H   0  0  0  0  0  0  0  0  0  0  0  0
   59.7440   30.6600   46.6010 C   0  0  0  0  0  0  0  0  0  0  0  0
   59.7260   30.1390   47.9040 C   0  0  0  0  0  0  0  0  0  0  0  0
   59.9465   30.7981   48.7566 H   0  0  0  0  0  0  0  0  0  0  0  0
   59.4310   28.7920   48.1300 C   0  0  0  0  0  0  0  0  0  0  0  0
   59.4163   28.4012   49.1581 H   0  0  0  0  0  0  0  0  0  0  0  0
   59.1530   27.9330   47.0530 C   0  0  0  0  0  0  0  0  0  0  0  0
   58.8490   26.5000   47.2860 C   0  0  0  0  0  0  0  0  0  0  0  0
   59.1270   25.9830   48.4020 O   0  0  0  0  0  0  0  0  0  0  0  0
   58.2160   25.6930   46.2750 N   0  0  0  0  0  0  0  0  0  0  0  0
   56.9150   26.0400   45.7650 C   0  0  0  0  0  0  0  0  0  0  0  0
   56.3710   27.1340   46.0710 O   0  0  0  0  0  0  0  0  0  0  0  0
   56.2460   25.1570   44.9210 O   0  0  0  0  0  0  0  0  0  0  0  0
   56.8170   23.9390   44.5500 C   0  0  0  0  0  0  0  0  0  0  0  0
   56.0540   23.0110   43.8330 C   0  0  0  0  0  0  0  0  0  0  0  0
   55.0148   23.2484   43.5615 H   0  0  0  0  0  0  0  0  0  0  0  0
   56.6080   21.7840   43.4610 C   0  0  0  0  0  0  0  0  0  0  0  0
   56.0025   21.0540   42.9039 H   0  0  0  0  0  0  0  0  0  0  0  0
   57.9310   21.4830   43.7960 C   0  0  0  0  0  0  0  0  0  0  0  0
   58.3661   20.5166   43.5016 H   0  0  0  0  0  0  0  0  0  0  0  0
   58.7020   22.4090   44.5050 C   0  0  0  0  0  0  0  0  0  0  0  0
   59.7466   22.1735   44.7569 H   0  0  0  0  0  0  0  0  0  0  0  0
   58.1480   23.6390   44.8970 C   0  0  0  0  0  0  0  0  0  0  0  0
   59.0100   24.6670   45.5890 C   0  0  0  0  0  0  0  0  0  0  0  0
   59.6471   25.1570   44.8380 H   0  0  0  0  0  0  0  0  0  0  0  0
   59.6105   24.1446   46.3482 H   0  0  0  0  0  0  0  0  0  0  0  0
   59.2010   28.4440   45.7460 C   0  0  0  0  0  0  0  0  0  0  0  0
   59.0065   27.7778   44.8926 H   0  0  0  0  0  0  0  0  0  0  0  0
   59.4940   29.7930   45.5200 C   0  0  0  0  0  0  0  0  0  0  0  0
   59.5294   30.1792   44.4906 H   0  0  0  0  0  0  0  0  0  0  0  0
  1  2  1  0
  2  3  1  0
  3  4  2  0
  3  5  1  0
  5  6  2  3
  6  7  1  0
  7  8  1  0
  8  9  2  0
  9 10  1  0
 10 11  1  0
 10 12  1  0
 10 13  1  0
  9 14  1  0
  2 15  2  0
 15 16  1  0
 15 17  1  0
 17 18  2  0
 18 19  1  0
 18 20  1  0
 20 21  1  0
 20 22  2  0
 22 23  1  0
 23 24  2  0
 23 25  1  0
 25 26  1  0
 26 27  2  0
 26 28  1  0
 28 29  1  0
 29 30  2  0
 30 31  1  0
 30 32  1  0
 32 33  1  0
 32 34  2  0
 34 35  1  0
 34 36  1  0
 36 37  1  0
 36 38  2  0
 38 39  1  0
 39 40  1  0
 39 41  1  0
 22 42  1  0
 42 43  1  0
 42 44  2  0
 44 45  1  0
 14  6  1  0
 44 17  1  0
 39 25  1  0
 38 29  1  0
M  CHG  1   7  -1
M  END
>  <UniqueID>  (23) 
20

>  <SMILES>  (23) 
Cc1n[n-]c(=NC(=O)/C=C/c2ccc(C(=O)N3Cc4ccccc4OC3=O)cc2)s1

>  <Energy>  (23) 
97.54140498945333

>  <Genealogy>  (23) 
Cc1n[n-]c(=NC(=O)C=Cc2ccc(C(=O)N3Cc4ccccc4OC3=O)cc2)s1 (protonated)
Cc1n[n-]c(=NC(=O)/C=C/c2ccc(C(=O)N3Cc4ccccc4OC3=O)cc2)s1 (cis-trans isomerization)
Cc1n[n-]c(=NC(=O)/C=C/c2ccc(C(=O)N3Cc4ccccc4OC3=O)cc2)s1 (3D coordinates assigned)
Cc1n[n-]c(=NC(=O)/C=C/c2ccc(C(=O)N3Cc4ccccc4OC3=O)cc2)s1 (nonaromatic ring conformer: 97.54140498945333 kcal/mol)

>  <smiles>  (23) 
Cc1n[nH]c(=NC(=O)C=Cc2ccc(C(=O)N3Cc4ccccc4OC3=O)cc2)s1

>  <score_type>  (23) 
oracle

>  <origin>  (23) 
adg

>  <m_score__min__energy>  (23) 
-10.49

>  <m_primary>  (23) 
energy

$$$$
23:0
     RDKit          3D

 42 44  0  0  0  0  0  0  0  0999 V2000
   55.5110   26.4700   46.0290 N   0  0  0  0  0  0  0  0  0  0  0  0
   56.9090   26.1950   45.9750 C   0  0  0  0  0  0  0  0  0  0  0  0
   57.3050   25.1140   45.4660 O   0  0  0  0  0  0  0  0  0  0  0  0
   57.8720   27.1540   46.5510 C   0  0  0  0  0  0  0  0  0  0  0  0
   58.5640   26.8910   47.7470 C   0  0  0  0  0  0  0  0  0  0  0  0
   59.4930   27.8750   48.0960 C   0  0  0  0  0  0  0  0  0  0  0  0
   60.3730   27.8820   49.2920 C   0  0  0  0  0  0  0  0  0  0  0  0
   60.7690   26.6780   49.9110 C   0  0  0  0  0  0  0  0  0  0  0  0
   61.5960   26.6990   51.0380 C   0  0  0  0  0  0  0  0  0  0  0  0
   62.0420   27.9150   51.5600 C   0  0  0  0  0  0  0  0  0  0  0  0
   61.6610   29.1140   50.9560 C   0  0  0  0  0  0  0  0  0  0  0  0
   60.8340   29.1000   49.8280 C   0  0  0  0  0  0  0  0  0  0  0  0
   59.4430   29.0810   46.9170 S   0  0  0  0  0  0  0  0  0  0  0  0
   58.2470   28.3750   45.9780 C   0  0  0  0  0  0  0  0  0  0  0  0
   57.6960   29.0000   44.8140 N   0  0  0  0  0  0  0  0  0  0  0  0
   56.5460   29.8550   44.7840 C   0  0  0  0  0  0  0  0  0  0  0  0
   55.4210   29.3650   45.0620 O   0  0  0  0  0  0  0  0  0  0  0  0
   56.6230   31.2390   44.4130 N   0  0  0  0  0  0  0  0  0  0  0  0
   57.1860   32.3220   45.2190 C   0  0  0  0  0  0  0  0  0  0  0  0
   58.1760   31.7600   46.2680 C   0  0  0  0  0  0  0  0  0  0  0  0
   59.2570   32.7750   46.7010 C   0  0  0  0  0  0  0  0  0  0  0  0
   58.7750   34.2220   46.5480 C   0  0  0  0  0  0  0  0  0  0  0  0
   58.4150   34.5480   45.0850 C   0  0  0  0  0  0  0  0  0  0  0  0
   57.8830   33.3310   44.2980 C   0  0  0  0  0  0  0  0  0  0  0  0
   55.1550   27.4520   46.0040 H   0  0  0  0  0  0  0  0  0  0  0  0
   58.3894   25.9904   48.3540 H   0  0  0  0  0  0  0  0  0  0  0  0
   60.4247   25.7158   49.5041 H   0  0  0  0  0  0  0  0  0  0  0  0
   61.8964   25.7545   51.5152 H   0  0  0  0  0  0  0  0  0  0  0  0
   62.6931   27.9278   52.4465 H   0  0  0  0  0  0  0  0  0  0  0  0
   62.0117   30.0718   51.3678 H   0  0  0  0  0  0  0  0  0  0  0  0
   60.5410   30.0490   49.3552 H   0  0  0  0  0  0  0  0  0  0  0  0
   56.3754   32.8313   45.7608 H   0  0  0  0  0  0  0  0  0  0  0  0
   57.6053   31.4580   47.1586 H   0  0  0  0  0  0  0  0  0  0  0  0
   58.6973   30.9123   45.7993 H   0  0  0  0  0  0  0  0  0  0  0  0
   59.5123   32.5947   47.7556 H   0  0  0  0  0  0  0  0  0  0  0  0
   60.1343   32.6370   46.0519 H   0  0  0  0  0  0  0  0  0  0  0  0
   57.8844   34.3700   47.1764 H   0  0  0  0  0  0  0  0  0  0  0  0
   59.5906   34.8913   46.8592 H   0  0  0  0  0  0  0  0  0  0  0  0
   57.6414   35.3300   45.0824 H   0  0  0  0  0  0  0  0  0  0  0  0
   59.3402   34.8761   44.5886 H   0  0  0  0  0  0  0  0  0  0  0  0
   57.1636   33.6811   43.5432 H   0  0  0  0  0  0  0  0  0  0  0  0
   58.7385   32.8285   43.8231 H   0  0  0  0  0  0  0  0  0  0  0  0
  1  2  1  0
  2  3  2  0
  2  4  1  0
  4  5  1  0
  5  6  2  0
  6  7  1  0
  7  8  2  0
  8  9  1  0
  9 10  2  0
 10 11  1  0
 11 12  2  0
  6 13  1  0
 13 14  1  0
 14 15  1  0
 15 16  1  0
 16 17  2  0
 16 18  1  0
 18 19  1  0
 19 20  1  0
 20 21  1  0
 21 22  1  0
 22 23  1  0
 23 24  1  0
 14  4  2  0
 24 19  1  0
 12  7  1  0
  1 25  1  0
  5 26  1  0
  8 27  1  0
  9 28  1  0
 10 29  1  0
 11 30  1  0
 12 31  1  0
 19 32  1  0
 20 33  1  0
 20 34  1  0
 21 35  1  0
 21 36  1  0
 22 37  1  0
 22 38  1  0
 23 39  1  0
 23 40  1  0
 24 41  1  0
 24 42  1  0
M  CHG  3   1  -1  15  -1  18  -1
M  END
>  <UniqueID>  (24) 
21

>  <SMILES>  (24) 
[NH-]C(=O)c1cc(-c2ccccc2)sc1[N-]C(=O)[N-]C1CCCCC1

>  <Energy>  (24) 
80.4607509288763

>  <Genealogy>  (24) 
[NH-]C(=O)c1cc(-c2ccccc2)sc1[N-]C(=O)[N-]C1CCCCC1 (protonated)
[NH-]C(=O)c1cc(-c2ccccc2)sc1[N-]C(=O)[N-]C1CCCCC1 (3D coordinates assigned)
[NH-]C(=O)c1cc(-c2ccccc2)sc1[N-]C(=O)[N-]C1CCCCC1 (nonaromatic ring conformer: 80.4607509288763 kcal/mol)

>  <smiles>  (24) 
NC(=O)c1cc(-c2ccccc2)sc1NC(=O)NC1CCCCC1

>  <score_type>  (24) 
oracle

>  <origin>  (24) 
adg

>  <m_score__min__energy>  (24) 
-13.890000000000001

>  <m_primary>  (24) 
energy

$$$$
24:0
     RDKit          3D

 50 52  0  0  0  0  0  0  0  0999 V2000
   54.7398   29.9625   43.9021 H   0  0  0  0  0  0  0  0  0  0  0  0
   55.8070   30.0370   44.1580 C   0  0  0  0  0  0  0  0  0  0  0  0
   56.3050   29.3300   45.2080 N   0  0  0  0  0  0  0  0  0  0  0  0
   57.6160   29.3900   45.5680 C   0  0  0  0  0  0  0  0  0  0  0  0
   58.0190   28.6710   46.5780 N   0  0  0  0  0  0  0  0  0  0  0  0
   59.2660   27.9140   46.6430 C   0  0  0  0  0  0  0  0  0  0  0  0
   60.0619   28.4782   46.1349 H   0  0  0  0  0  0  0  0  0  0  0  0
   59.1252   26.9416   46.1485 H   0  0  0  0  0  0  0  0  0  0  0  0
   59.6600   27.6840   48.1010 C   0  0  0  0  0  0  0  0  0  0  0  0
   60.7422   27.8460   48.2132 H   0  0  0  0  0  0  0  0  0  0  0  0
   59.3994   26.6527   48.3810 H   0  0  0  0  0  0  0  0  0  0  0  0
   58.9430   28.6060   48.9770 N   0  0  0  0  0  0  0  0  0  0  0  0
   59.2550   29.9950   49.1370 C   0  0  0  0  0  0  0  0  0  0  0  0
   59.8470   30.3670   50.1850 O   0  0  0  0  0  0  0  0  0  0  0  0
   58.9070   30.9570   48.1300 N   0  0  0  0  0  0  0  0  0  0  0  0
   58.7130   30.6350   47.1560 H   0  0  0  0  0  0  0  0  0  0  0  0
   58.6330   32.3580   48.4440 C   0  0  0  0  0  0  0  0  0  0  0  0
   57.6670   32.4347   48.9646 H   0  0  0  0  0  0  0  0  0  0  0  0
   59.4311   32.7510   49.0909 H   0  0  0  0  0  0  0  0  0  0  0  0
   58.5810   33.1590   47.1690 C   0  0  0  0  0  0  0  0  0  0  0  0
   57.3490   33.3590   46.5220 C   0  0  0  0  0  0  0  0  0  0  0  0
   56.4378   32.8930   46.9252 H   0  0  0  0  0  0  0  0  0  0  0  0
   57.2750   34.1460   45.3700 C   0  0  0  0  0  0  0  0  0  0  0  0
   56.3086   34.2913   44.8651 H   0  0  0  0  0  0  0  0  0  0  0  0
   58.4240   34.7470   44.8600 C   0  0  0  0  0  0  0  0  0  0  0  0
   58.3626   35.3652   43.9522 H   0  0  0  0  0  0  0  0  0  0  0  0
   59.6540   34.5670   45.4980 C   0  0  0  0  0  0  0  0  0  0  0  0
   60.5570   35.0444   45.0897 H   0  0  0  0  0  0  0  0  0  0  0  0
   59.7440   33.7770   46.6620 C   0  0  0  0  0  0  0  0  0  0  0  0
   60.9570   33.6010   47.3520 O   0  0  0  0  0  0  0  0  0  0  0  0
   61.8890   32.5420   47.1350 C   0  0  0  0  0  0  0  0  0  0  0  0
   61.3389   31.5979   47.0079 H   0  0  0  0  0  0  0  0  0  0  0  0
   62.4755   32.7681   46.2323 H   0  0  0  0  0  0  0  0  0  0  0  0
   62.8310   32.4110   48.3020 C   0  0  0  0  0  0  0  0  0  0  0  0
   63.9860   33.2060   48.3680 C   0  0  0  0  0  0  0  0  0  0  0  0
   64.1963   33.9341   47.5707 H   0  0  0  0  0  0  0  0  0  0  0  0
   64.8700   33.0760   49.4430 C   0  0  0  0  0  0  0  0  0  0  0  0
   65.7702   33.7062   49.4930 H   0  0  0  0  0  0  0  0  0  0  0  0
   64.6120   32.1470   50.4540 C   0  0  0  0  0  0  0  0  0  0  0  0
   65.3069   32.0485   51.3010 H   0  0  0  0  0  0  0  0  0  0  0  0
   63.4710   31.3430   50.3890 C   0  0  0  0  0  0  0  0  0  0  0  0
   63.2697   30.6099   51.1840 H   0  0  0  0  0  0  0  0  0  0  0  0
   62.5850   31.4690   49.3150 C   0  0  0  0  0  0  0  0  0  0  0  0
   61.6922   30.8285   49.2628 H   0  0  0  0  0  0  0  0  0  0  0  0
   58.4920   30.2150   44.8310 C   0  0  0  0  0  0  0  0  0  0  0  0
   59.5543   30.2826   45.1083 H   0  0  0  0  0  0  0  0  0  0  0  0
   58.0000   30.9450   43.7470 C   0  0  0  0  0  0  0  0  0  0  0  0
   58.6754   31.5881   43.1637 H   0  0  0  0  0  0  0  0  0  0  0  0
   56.6490   30.8570   43.4050 C   0  0  0  0  0  0  0  0  0  0  0  0
   56.2528   31.4274   42.5519 H   0  0  0  0  0  0  0  0  0  0  0  0
  1  2  1  0
  2  3  1  0
  3  4  1  0
  4  5  2  0
  5  6  1  0
  6  7  1  0
  6  8  1  0
  6  9  1  0
  9 10  1  0
  9 11  1  0
  9 12  1  0
 12 13  1  0
 13 14  2  0
 13 15  1  0
 15 16  1  0
 15 17  1  0
 17 18  1  0
 17 19  1  0
 17 20  1  0
 20 21  2  0
 21 22  1  0
 21 23  1  0
 23 24  1  0
 23 25  2  0
 25 26  1  0
 25 27  1  0
 27 28  1  0
 27 29  2  0
 29 30  1  0
 30 31  1  0
 31 32  1  0
 31 33  1  0
 31 34  1  0
 34 35  2  0
 35 36  1  0
 35 37  1  0
 37 38  1  0
 37 39  2  0
 39 40  1  0
 39 41  1  0
 41 42  1  0
 41 43  2  0
 43 44  1  0
  4 45  1  0
 45 46  1  0
 45 47  2  0
 47 48  1  0
 47 49  1  0
 49 50  1  0
 49  2  2  0
 29 20  1  0
 43 34  1  0
M  CHG  2   3  -1  12  -1
M  END
>  <UniqueID>  (25) 
22

>  <SMILES>  (25) 
O=C([N-]CC/N=c1\cccc[n-]1)NCc1ccccc1OCc1ccccc1

>  <Energy>  (25) 
45.922086626095414

>  <Genealogy>  (25) 
O=C([N-]CCN=c1cccc[n-]1)NCc1ccccc1OCc1ccccc1 (protonated)
O=C([N-]CC/N=c1\cccc[n-]1)NCc1ccccc1OCc1ccccc1 (cis-trans isomerization)
O=C([N-]CC/N=c1\cccc[n-]1)NCc1ccccc1OCc1ccccc1 (3D coordinates assigned)
O=C([N-]CC/N=c1\cccc[n-]1)NCc1ccccc1OCc1ccccc1 (optimized conformer: 45.922086626095414 kcal/mol)

>  <smiles>  (25) 
O=C(NCCN=c1cccc[nH]1)NCc1ccccc1OCc1ccccc1

>  <score_type>  (25) 
oracle

>  <origin>  (25) 
adg

>  <m_score__min__energy>  (25) 
-11.84

>  <m_primary>  (25) 
energy

$$$$
25:0
     RDKit          3D

 40 42  0  0  0  0  0  0  0  0999 V2000
   64.9883   32.9277   48.9091 H   0  0  0  0  0  0  0  0  0  0  0  0
   64.0030   33.2650   48.5550 C   0  0  0  0  0  0  0  0  0  0  0  0
   63.7010   33.2270   47.1920 C   0  0  0  0  0  0  0  0  0  0  0  0
   64.4461   32.8522   46.4748 H   0  0  0  0  0  0  0  0  0  0  0  0
   62.4520   33.6650   46.7370 C   0  0  0  0  0  0  0  0  0  0  0  0
   62.2155   33.6306   45.6633 H   0  0  0  0  0  0  0  0  0  0  0  0
   61.4990   34.1490   47.6510 C   0  0  0  0  0  0  0  0  0  0  0  0
   60.2250   34.5680   47.2390 O   0  0  0  0  0  0  0  0  0  0  0  0
   59.2750   33.7600   46.5990 C   0  0  0  0  0  0  0  0  0  0  0  0
   59.1020   32.4070   46.9350 C   0  0  0  0  0  0  0  0  0  0  0  0
   59.7101   31.9589   47.7346 H   0  0  0  0  0  0  0  0  0  0  0  0
   58.1600   31.6280   46.2570 C   0  0  0  0  0  0  0  0  0  0  0  0
   58.0302   30.5700   46.5288 H   0  0  0  0  0  0  0  0  0  0  0  0
   57.3810   32.1820   45.2360 C   0  0  0  0  0  0  0  0  0  0  0  0
   56.4370   31.3570   44.6000 O   0  0  0  0  0  0  0  0  0  0  0  0
   56.7490   30.2660   43.7320 C   0  0  0  0  0  0  0  0  0  0  0  0
   57.4491   30.6100   42.9564 H   0  0  0  0  0  0  0  0  0  0  0  0
   55.8187   29.9026   43.2711 H   0  0  0  0  0  0  0  0  0  0  0  0
   57.3770   29.1450   44.4990 C   0  0  0  0  0  0  0  0  0  0  0  0
   58.6050   28.9030   44.3540 O   0  0  0  0  0  0  0  0  0  0  0  0
   56.5480   28.2640   45.2680 N   0  0  0  0  0  0  0  0  0  0  0  0
   56.8450   27.1030   45.7870 C   0  0  0  0  0  0  0  0  0  0  0  0
   55.8690   26.1480   46.1910 C   0  0  0  0  0  0  0  0  0  0  0  0
   54.5050   26.3410   45.9970 O   0  0  0  0  0  0  0  0  0  0  0  0
   56.2870   24.9420   46.7610 C   0  0  0  0  0  0  0  0  0  0  0  0
   55.5418   24.2075   47.1003 H   0  0  0  0  0  0  0  0  0  0  0  0
   57.6460   24.6690   46.9000 C   0  0  0  0  0  0  0  0  0  0  0  0
   57.9792   23.7247   47.3554 H   0  0  0  0  0  0  0  0  0  0  0  0
   58.5800   25.6050   46.4560 C   0  0  0  0  0  0  0  0  0  0  0  0
   59.6553   25.3916   46.5468 H   0  0  0  0  0  0  0  0  0  0  0  0
   58.1660   26.7810   45.9110 N   0  0  0  0  0  0  0  0  0  0  0  0
   58.8950   27.4640   45.6030 H   0  0  0  0  0  0  0  0  0  0  0  0
   57.5690   33.5340   44.8840 C   0  0  0  0  0  0  0  0  0  0  0  0
   56.9713   33.9788   44.0747 H   0  0  0  0  0  0  0  0  0  0  0  0
   58.5130   34.3100   45.5610 C   0  0  0  0  0  0  0  0  0  0  0  0
   58.6590   35.3624   45.2761 H   0  0  0  0  0  0  0  0  0  0  0  0
   61.8060   34.1680   49.0190 C   0  0  0  0  0  0  0  0  0  0  0  0
   61.0597   34.5288   49.7421 H   0  0  0  0  0  0  0  0  0  0  0  0
   63.0550   33.7310   49.4690 C   0  0  0  0  0  0  0  0  0  0  0  0
   63.2915   33.7540   50.5430 H   0  0  0  0  0  0  0  0  0  0  0  0
  1  2  1  0
  2  3  2  0
  3  4  1  0
  3  5  1  0
  5  6  1  0
  5  7  2  0
  7  8  1  0
  8  9  1  0
  9 10  2  0
 10 11  1  0
 10 12  1  0
 12 13  1  0
 12 14  2  0
 14 15  1  0
 15 16  1  0
 16 17  1  0
 16 18  1  0
 16 19  1  0
 19 20  2  0
 19 21  1  0
 21 22  2  0
 22 23  1  0
 23 24  1  0
 23 25  2  0
 25 26  1  0
 25 27  1  0
 27 28  1  0
 27 29  2  0
 29 30  1  0
 29 31  1  0
 31 32  1  0
 14 33  1  0
 33 34  1  0
 33 35  2  0
 35 36  1  0
  7 37  1  0
 37 38  1  0
 37 39  2  0
 39 40  1  0
 39  2  1  0
 35  9  1  0
 31 22  1  0
M  CHG  1  24  -1
M  END
>  <UniqueID>  (26) 
23

>  <SMILES>  (26) 
O=C(COc1ccc(Oc2ccccc2)cc1)/N=c1/[nH]cccc1[O-]

>  <Energy>  (26) 
59.974071050358525

>  <Genealogy>  (26) 
O=C(COc1ccc(Oc2ccccc2)cc1)N=c1[nH]cccc1[O-] (protonated)
O=C(COc1ccc(Oc2ccccc2)cc1)/N=c1/[nH]cccc1[O-] (cis-trans isomerization)
O=C(COc1ccc(Oc2ccccc2)cc1)/N=c1/[nH]cccc1[O-] (3D coordinates assigned)
O=C(COc1ccc(Oc2ccccc2)cc1)/N=c1/[nH]cccc1[O-] (optimized conformer: 59.974071050358525 kcal/mol)

>  <smiles>  (26) 
O=C(COc1ccc(Oc2ccccc2)cc1)N=c1[nH]cccc1O

>  <score_type>  (26) 
oracle

>  <origin>  (26) 
adg

>  <m_score__min__energy>  (26) 
-12.109999999999999

>  <m_primary>  (26) 
energy

$$$$
26:0
     RDKit          3D

 47 49  0  0  0  0  0  0  0  0999 V2000
   60.1440   29.8940   48.7190 C   0  0  0  0  0  0  0  0  0  0  0  0
   60.9100   30.2560   47.5760 O   0  0  0  0  0  0  0  0  0  0  0  0
   61.6160   31.4610   47.4420 C   0  0  0  0  0  0  0  0  0  0  0  0
   63.0190   31.4980   47.3250 C   0  0  0  0  0  0  0  0  0  0  0  0
   63.6850   32.7200   47.1890 C   0  0  0  0  0  0  0  0  0  0  0  0
   62.9610   33.9130   47.1730 C   0  0  0  0  0  0  0  0  0  0  0  0
   61.5700   33.8900   47.2910 C   0  0  0  0  0  0  0  0  0  0  0  0
   60.8950   32.6690   47.4210 C   0  0  0  0  0  0  0  0  0  0  0  0
   59.4720   32.6630   47.5300 N   0  0  0  0  0  0  0  0  0  0  0  0
   58.4790   33.1620   46.2050 S   0  0  0  0  0  0  0  0  0  0  0  0
   59.2320   34.1420   45.3500 O   0  0  0  0  0  0  0  0  0  0  0  0
   57.2480   33.8400   46.7380 O   0  0  0  0  0  0  0  0  0  0  0  0
   58.0110   31.7580   45.2520 C   0  0  0  0  0  0  0  0  0  0  0  0
   57.3830   31.9240   44.0110 C   0  0  0  0  0  0  0  0  0  0  0  0
   56.9430   30.8110   43.2930 C   0  0  0  0  0  0  0  0  0  0  0  0
   57.1230   29.5250   43.8110 C   0  0  0  0  0  0  0  0  0  0  0  0
   57.7590   29.3410   45.0510 C   0  0  0  0  0  0  0  0  0  0  0  0
   57.9200   27.9800   45.6110 C   0  0  0  0  0  0  0  0  0  0  0  0
   58.7100   27.7930   46.5760 O   0  0  0  0  0  0  0  0  0  0  0  0
   57.1800   26.8720   45.0740 N   0  0  0  0  0  0  0  0  0  0  0  0
   57.4980   25.5140   45.4100 C   0  0  0  0  0  0  0  0  0  0  0  0
   58.8420   25.1140   45.3840 C   0  0  0  0  0  0  0  0  0  0  0  0
   59.1910   23.7870   45.6330 C   0  0  0  0  0  0  0  0  0  0  0  0
   58.2020   22.8460   45.9160 C   0  0  0  0  0  0  0  0  0  0  0  0
   56.8610   23.2340   45.9730 C   0  0  0  0  0  0  0  0  0  0  0  0
   56.4890   24.5710   45.7410 C   0  0  0  0  0  0  0  0  0  0  0  0
   55.0700   24.9640   45.9130 C   0  0  0  0  0  0  0  0  0  0  0  0
   54.7070   26.3420   45.9950 N   0  0  0  0  0  0  0  0  0  0  0  0
   54.1640   24.0890   45.9580 O   0  0  0  0  0  0  0  0  0  0  0  0
   58.1970   30.4680   45.7680 C   0  0  0  0  0  0  0  0  0  0  0  0
   60.6999   30.1567   49.6311 H   0  0  0  0  0  0  0  0  0  0  0  0
   59.1862   30.4347   48.7048 H   0  0  0  0  0  0  0  0  0  0  0  0
   59.9537   28.8107   48.7048 H   0  0  0  0  0  0  0  0  0  0  0  0
   63.5941   30.5604   47.3407 H   0  0  0  0  0  0  0  0  0  0  0  0
   64.7807   32.7410   47.0945 H   0  0  0  0  0  0  0  0  0  0  0  0
   63.4872   34.8732   47.0672 H   0  0  0  0  0  0  0  0  0  0  0  0
   61.0028   34.8324   47.2819 H   0  0  0  0  0  0  0  0  0  0  0  0
   57.2362   32.9342   43.6013 H   0  0  0  0  0  0  0  0  0  0  0  0
   56.4534   30.9459   42.3172 H   0  0  0  0  0  0  0  0  0  0  0  0
   56.7650   28.6523   43.2451 H   0  0  0  0  0  0  0  0  0  0  0  0
   56.2640   27.0600   44.6070 H   0  0  0  0  0  0  0  0  0  0  0  0
   59.6271   25.8529   45.1655 H   0  0  0  0  0  0  0  0  0  0  0  0
   60.2477   23.4824   45.6061 H   0  0  0  0  0  0  0  0  0  0  0  0
   58.4779   21.7963   46.0947 H   0  0  0  0  0  0  0  0  0  0  0  0
   56.0876   22.4860   46.2018 H   0  0  0  0  0  0  0  0  0  0  0  0
   53.7770   26.6290   46.3700 H   0  0  0  0  0  0  0  0  0  0  0  0
   58.6900   30.3365   46.7425 H   0  0  0  0  0  0  0  0  0  0  0  0
  1  2  1  0
  2  3  1  0
  3  4  2  0
  4  5  1  0
  5  6  2  0
  6  7  1  0
  7  8  2  0
  8  9  1  0
  9 10  1  0
 10 11  2  0
 10 12  2  0
 10 13  1  0
 13 14  2  0
 14 15  1  0
 15 16  2  0
 16 17  1  0
 17 18  1  0
 18 19  2  0
 18 20  1  0
 20 21  1  0
 21 22  2  0
 22 23  1  0
 23 24  2  0
 24 25  1  0
 25 26  2  0
 26 27  1  0
 27 28  1  0
 27 29  2  0
 17 30  2  0
  8  3  1  0
 30 13  1  0
 26 21  1  0
  1 31  1  0
  1 32  1  0
  1 33  1  0
  4 34  1  0
  5 35  1  0
  6 36  1  0
  7 37  1  0
 14 38  1  0
 15 39  1  0
 16 40  1  0
 20 41  1  0
 22 42  1  0
 23 43  1  0
 24 44  1  0
 25 45  1  0
 28 46  1  0
 30 47  1  0
M  CHG  2   9  -1  28  -1
M  END
>  <UniqueID>  (27) 
24

>  <SMILES>  (27) 
COc1ccccc1[N-]S(=O)(=O)c1cccc(C(=O)Nc2ccccc2C([NH-])=O)c1

>  <Energy>  (27) 
65.85946458181553

>  <Genealogy>  (27) 
COc1ccccc1[N-]S(=O)(=O)c1cccc(C(=O)Nc2ccccc2C([NH-])=O)c1 (protonated)
COc1ccccc1[N-]S(=O)(=O)c1cccc(C(=O)Nc2ccccc2C([NH-])=O)c1 (3D coordinates assigned)
COc1ccccc1[N-]S(=O)(=O)c1cccc(C(=O)Nc2ccccc2C([NH-])=O)c1 (optimized conformer: 65.85946458181553 kcal/mol)

>  <smiles>  (27) 
COc1ccccc1NS(=O)(=O)c1cccc(C(=O)Nc2ccccc2C(N)=O)c1

>  <score_type>  (27) 
oracle

>  <origin>  (27) 
adg

>  <m_score__min__energy>  (27) 
-13.94

>  <m_primary>  (27) 
energy

$$$$
27:0
     RDKit          3D

 28 29  0  0  0  0  0  0  0  0999 V2000
   55.8130   30.5130   43.1670 O   0  0  0  0  0  0  0  0  0  0  0  0
   56.0890   30.2200   44.3630 C   0  0  0  0  0  0  0  0  0  0  0  0
   56.7600   31.1640   45.2010 N   0  0  0  0  0  0  0  0  0  0  0  0
   58.1870   31.1070   45.4980 C   0  0  0  0  0  0  0  0  0  0  0  0
   58.7250   32.4840   45.7440 C   0  0  0  0  0  0  0  0  0  0  0  0
   58.2870   33.5710   44.9740 C   0  0  0  0  0  0  0  0  0  0  0  0
   58.8220   34.8390   45.2100 C   0  0  0  0  0  0  0  0  0  0  0  0
   59.7880   35.0110   46.2040 C   0  0  0  0  0  0  0  0  0  0  0  0
   60.2060   33.9060   46.9490 C   0  0  0  0  0  0  0  0  0  0  0  0
   59.6720   32.6780   46.7040 N   0  0  0  0  0  0  0  0  0  0  0  0
   55.6920   28.9590   44.9110 N   0  0  0  0  0  0  0  0  0  0  0  0
   56.5840   27.9140   45.3240 C   0  0  0  0  0  0  0  0  0  0  0  0
   57.9380   28.0150   44.9790 C   0  0  0  0  0  0  0  0  0  0  0  0
   58.8410   27.0160   45.3550 C   0  0  0  0  0  0  0  0  0  0  0  0
   58.3920   25.9000   46.0650 C   0  0  0  0  0  0  0  0  0  0  0  0
   57.0380   25.7730   46.3860 C   0  0  0  0  0  0  0  0  0  0  0  0
   56.1280   26.7660   46.0060 C   0  0  0  0  0  0  0  0  0  0  0  0
   54.7770   26.5840   46.2790 O   0  0  0  0  0  0  0  0  0  0  0  0
   58.3462   30.4902   46.3948 H   0  0  0  0  0  0  0  0  0  0  0  0
   58.7131   30.6668   44.6381 H   0  0  0  0  0  0  0  0  0  0  0  0
   57.5284   33.4260   44.1907 H   0  0  0  0  0  0  0  0  0  0  0  0
   58.4836   35.7000   44.6148 H   0  0  0  0  0  0  0  0  0  0  0  0
   60.2150   36.0060   46.3980 H   0  0  0  0  0  0  0  0  0  0  0  0
   60.9669   34.0280   47.7339 H   0  0  0  0  0  0  0  0  0  0  0  0
   58.2930   28.8860   44.4086 H   0  0  0  0  0  0  0  0  0  0  0  0
   59.9050   27.1089   45.0917 H   0  0  0  0  0  0  0  0  0  0  0  0
   59.1049   25.1205   46.3717 H   0  0  0  0  0  0  0  0  0  0  0  0
   56.6862   24.8897   46.9392 H   0  0  0  0  0  0  0  0  0  0  0  0
  1  2  2  0
  2  3  1  0
  3  4  1  0
  4  5  1  0
  5  6  2  0
  6  7  1  0
  7  8  2  0
  8  9  1  0
  9 10  2  0
  2 11  1  0
 11 12  1  0
 12 13  2  0
 13 14  1  0
 14 15  2  0
 15 16  1  0
 16 17  2  0
 17 18  1  0
 10  5  1  0
 17 12  1  0
  4 19  1  0
  4 20  1  0
  6 21  1  0
  7 22  1  0
  8 23  1  0
  9 24  1  0
 13 25  1  0
 14 26  1  0
 15 27  1  0
 16 28  1  0
M  CHG  3   3  -1  11  -1  18  -1
M  END
>  <UniqueID>  (28) 
25

>  <SMILES>  (28) 
O=C([N-]Cc1ccccn1)[N-]c1ccccc1[O-]

>  <Energy>  (28) 
32.24973700060915

>  <Genealogy>  (28) 
O=C([N-]Cc1ccccn1)[N-]c1ccccc1[O-] (protonated)
O=C([N-]Cc1ccccn1)[N-]c1ccccc1[O-] (3D coordinates assigned)
O=C([N-]Cc1ccccn1)[N-]c1ccccc1[O-] (optimized conformer: 32.24973700060915 kcal/mol)

>  <smiles>  (28) 
O=C(NCc1ccccn1)Nc1ccccc1O

>  <score_type>  (28) 
oracle

>  <origin>  (28) 
adg

>  <m_score__min__energy>  (28) 
-14.74

>  <m_primary>  (28) 
energy

$$$$
28:0
     RDKit          3D

 43 46  0  0  0  0  0  0  0  0999 V2000
   53.2630   24.0360   44.9910 C   0  0  0  0  0  0  0  0  0  0  0  0
   54.3900   24.7900   45.6130 C   0  0  0  0  0  0  0  0  0  0  0  0
   55.5940   24.2600   46.0230 C   0  0  0  0  0  0  0  0  0  0  0  0
   56.2750   25.3700   46.4930 C   0  0  0  0  0  0  0  0  0  0  0  0
   57.4890   25.4090   46.9620 N   0  0  0  0  0  0  0  0  0  0  0  0
   58.6630   25.8580   46.2700 C   0  0  0  0  0  0  0  0  0  0  0  0
   59.5770   25.0280   46.0280 O   0  0  0  0  0  0  0  0  0  0  0  0
   58.7980   27.2730   45.7770 C   0  0  0  0  0  0  0  0  0  0  0  0
   58.5030   28.4680   47.1290 S   0  0  0  0  0  0  0  0  0  0  0  0
   57.8450   29.7630   46.0640 C   0  0  0  0  0  0  0  0  0  0  0  0
   56.7610   29.4740   45.2990 N   0  0  0  0  0  0  0  0  0  0  0  0
   56.2020   30.3970   44.4780 C   0  0  0  0  0  0  0  0  0  0  0  0
   55.1990   30.0860   43.7820 O   0  0  0  0  0  0  0  0  0  0  0  0
   56.7220   31.6510   44.4050 N   0  0  0  0  0  0  0  0  0  0  0  0
   57.8050   32.0020   45.1520 C   0  0  0  0  0  0  0  0  0  0  0  0
   58.3330   33.2980   45.0670 C   0  0  0  0  0  0  0  0  0  0  0  0
   59.4460   33.6590   45.8280 C   0  0  0  0  0  0  0  0  0  0  0  0
   60.0540   32.7310   46.6920 C   0  0  0  0  0  0  0  0  0  0  0  0
   61.2390   33.1190   47.4980 C   0  0  0  0  0  0  0  0  0  0  0  0
   62.5350   32.7600   47.0830 C   0  0  0  0  0  0  0  0  0  0  0  0
   63.6500   33.1240   47.8450 C   0  0  0  0  0  0  0  0  0  0  0  0
   63.4840   33.8480   49.0280 C   0  0  0  0  0  0  0  0  0  0  0  0
   62.2020   34.2100   49.4510 C   0  0  0  0  0  0  0  0  0  0  0  0
   61.0850   33.8490   48.6930 C   0  0  0  0  0  0  0  0  0  0  0  0
   59.5250   31.4310   46.7800 C   0  0  0  0  0  0  0  0  0  0  0  0
   58.4040   31.0570   46.0150 C   0  0  0  0  0  0  0  0  0  0  0  0
   55.5200   26.4740   46.3460 N   0  0  0  0  0  0  0  0  0  0  0  0
   54.3950   26.0870   45.8190 O   0  0  0  0  0  0  0  0  0  0  0  0
   52.6266   23.6102   45.7808 H   0  0  0  0  0  0  0  0  0  0  0  0
   52.6663   24.7174   44.3668 H   0  0  0  0  0  0  0  0  0  0  0  0
   53.6651   23.2244   44.3668 H   0  0  0  0  0  0  0  0  0  0  0  0
   55.9309   23.2135   45.9860 H   0  0  0  0  0  0  0  0  0  0  0  0
   59.8137   27.4208   45.3813 H   0  0  0  0  0  0  0  0  0  0  0  0
   58.0493   27.4429   44.9892 H   0  0  0  0  0  0  0  0  0  0  0  0
   56.2770   32.3480   43.7640 H   0  0  0  0  0  0  0  0  0  0  0  0
   57.8672   34.0350   44.3963 H   0  0  0  0  0  0  0  0  0  0  0  0
   59.8512   34.6787   45.7512 H   0  0  0  0  0  0  0  0  0  0  0  0
   62.6720   32.1891   46.1528 H   0  0  0  0  0  0  0  0  0  0  0  0
   64.6592   32.8397   47.5122 H   0  0  0  0  0  0  0  0  0  0  0  0
   64.3618   34.1331   49.6264 H   0  0  0  0  0  0  0  0  0  0  0  0
   62.0721   34.7803   50.3826 H   0  0  0  0  0  0  0  0  0  0  0  0
   60.0787   34.1367   49.0316 H   0  0  0  0  0  0  0  0  0  0  0  0
   59.9924   30.6982   47.4542 H   0  0  0  0  0  0  0  0  0  0  0  0
  1  2  1  0
  2  3  2  0
  3  4  1  0
  4  5  2  3
  5  6  1  0
  6  7  2  0
  6  8  1  0
  8  9  1  0
  9 10  1  0
 10 11  2  0
 11 12  1  0
 12 13  2  0
 12 14  1  0
 14 15  1  0
 15 16  2  0
 16 17  1  0
 17 18  2  0
 18 19  1  0
 19 20  2  0
 20 21  1  0
 21 22  2  0
 22 23  1  0
 23 24  2  0
 18 25  1  0
 25 26  2  0
  4 27  1  0
 27 28  1  0
 28  2  1  0
 26 10  1  0
 26 15  1  0
 24 19  1  0
  1 29  1  0
  1 30  1  0
  1 31  1  0
  3 32  1  0
  8 33  1  0
  8 34  1  0
 14 35  1  0
 16 36  1  0
 17 37  1  0
 20 38  1  0
 21 39  1  0
 22 40  1  0
 23 41  1  0
 24 42  1  0
 25 43  1  0
M  CHG  1  27  -1
M  END
>  <UniqueID>  (29) 
26

>  <SMILES>  (29) 
Cc1cc(=NC(=O)CSc2nc(=O)[nH]c3ccc(-c4ccccc4)cc23)[n-]o1

>  <Energy>  (29) 
91.1117640098968

>  <Genealogy>  (29) 
Cc1cc(=NC(=O)CSc2nc(=O)[nH]c3ccc(-c4ccccc4)cc23)[n-]o1 (protonated)
Cc1cc(=NC(=O)CSc2nc(=O)[nH]c3ccc(-c4ccccc4)cc23)[n-]o1 (3D coordinates assigned)
Cc1cc(=NC(=O)CSc2nc(=O)[nH]c3ccc(-c4ccccc4)cc23)[n-]o1 (optimized conformer: 91.1117640098968 kcal/mol)

>  <smiles>  (29) 
Cc1cc(=NC(=O)CSc2nc(=O)[nH]c3ccc(-c4ccccc4)cc23)[nH]o1

>  <score_type>  (29) 
oracle

>  <origin>  (29) 
adg

>  <m_score__min__energy>  (29) 
-11.880000000000001

>  <m_primary>  (29) 
energy

$$$$
29:0
     RDKit          3D

 39 41  0  0  1  0  0  0  0  0999 V2000
   56.7800   34.6190   44.6570 N   0  0  0  0  0  0  0  0  0  0  0  0
   57.2930   33.6920   45.1860 C   0  0  0  0  0  0  0  0  0  0  0  0
   57.9270   32.5910   45.8350 C   0  0  0  0  0  0  0  0  0  0  0  0
   57.6780   31.3340   45.3330 C   0  0  0  0  0  0  0  0  0  0  0  0
   56.8100   31.1650   44.1800 C   0  0  0  0  0  0  0  0  0  0  0  0
   57.1950   31.4680   43.0320 O   0  0  0  0  0  0  0  0  0  0  0  0
   55.5330   30.6600   44.3420 O   0  0  0  0  0  0  0  0  0  0  0  0
   58.2410   30.2600   45.9170 N   0  0  0  0  0  0  0  0  0  0  0  0
   59.0540   30.3370   46.9860 C   0  0  0  0  0  0  0  0  0  0  0  0
   59.6190   29.1180   47.5480 C   0  0  0  0  0  0  0  0  0  0  0  0
   59.7810   28.9110   48.9020 C   0  0  0  0  0  0  0  0  0  0  0  0
   60.3250   27.7300   49.3830 C   0  0  0  0  0  0  0  0  0  0  0  0
   60.7120   26.7380   48.5070 C   0  0  0  0  0  0  0  0  0  0  0  0
   60.5610   26.9170   47.1380 C   0  0  0  0  0  0  0  0  0  0  0  0
   60.0210   28.0970   46.7120 C   0  0  0  0  0  0  0  0  0  0  0  0
   59.2970   31.5650   47.4730 N   0  0  0  0  0  0  0  0  0  0  0  0
   58.7530   32.6860   46.9220 C   0  0  0  0  0  0  0  0  0  0  0  0
   59.0140   33.8080   47.4000 N   0  0  0  0  0  0  0  0  0  0  0  0
   60.1990   34.5640   47.3700 C   0  0  0  0  0  0  0  0  0  0  0  0
   61.4250   33.7920   47.7320 C   0  0  0  0  0  0  0  0  0  0  0  0
   62.4350   33.5330   46.8080 C   0  0  0  0  0  0  0  0  0  0  0  0
   63.5760   32.8130   47.1580 C   0  0  0  0  0  0  0  0  0  0  0  0
   63.7620   32.3240   48.4280 C   0  0  0  0  0  0  0  0  0  0  0  0
   62.7730   32.5720   49.3530 C   0  0  0  0  0  0  0  0  0  0  0  0
   61.6500   33.2830   49.0000 C   0  0  0  0  0  0  0  0  0  0  0  0
   55.1450   30.4790   45.2770 H   0  0  0  0  0  0  0  0  0  0  0  0
   59.4741   29.6944   49.6106 H   0  0  0  0  0  0  0  0  0  0  0  0
   60.4482   27.5840   50.4663 H   0  0  0  0  0  0  0  0  0  0  0  0
   61.1416   25.8021   48.8936 H   0  0  0  0  0  0  0  0  0  0  0  0
   60.8649   26.1377   46.4236 H   0  0  0  0  0  0  0  0  0  0  0  0
   59.8983   28.2431   45.6287 H   0  0  0  0  0  0  0  0  0  0  0  0
   59.9200   31.6810   48.3010 H   0  0  0  0  0  0  0  0  0  0  0  0
   60.3292   34.9617   46.3527 H   0  0  0  0  0  0  0  0  0  0  0  0
   60.0888   35.3560   48.1254 H   0  0  0  0  0  0  0  0  0  0  0  0
   62.3295   33.9054   45.7783 H   0  0  0  0  0  0  0  0  0  0  0  0
   64.3486   32.6314   46.3963 H   0  0  0  0  0  0  0  0  0  0  0  0
   64.6656   31.7566   48.6955 H   0  0  0  0  0  0  0  0  0  0  0  0
   62.8818   32.1987   50.3820 H   0  0  0  0  0  0  0  0  0  0  0  0
   60.8849   33.4578   49.7708 H   0  0  0  0  0  0  0  0  0  0  0  0
  1  2  3  0
  2  3  1  0
  3  4  2  0
  4  5  1  0
  5  6  2  0
  5  7  1  0
  4  8  1  0
  8  9  2  0
  9 10  1  0
 10 11  2  0
 11 12  1  0
 12 13  2  0
 13 14  1  0
 14 15  2  0
  9 16  1  0
 16 17  1  0
 17 18  2  0
 18 19  1  0
 19 20  1  0
 20 21  2  0
 21 22  1  0
 22 23  2  0
 23 24  1  0
 24 25  2  0
 17  3  1  0
 25 20  1  0
 15 10  1  0
  7 26  1  0
 11 27  1  0
 12 28  1  0
 13 29  1  0
 14 30  1  0
 15 31  1  0
 16 32  1  0
 19 33  1  0
 19 34  1  0
 21 35  1  0
 22 36  1  0
 23 37  1  0
 24 38  1  0
 25 39  1  0
M  END
>  <smiles>  (30) 
N#Cc1c(C(=O)O)nc(-c2ccccc2)[nH]c1=NCc1ccccc1

>  <score_type>  (30) 
oracle

>  <origin>  (30) 
adg

>  <m_score__min__energy>  (30) 
-8.1799999999999997

>  <m_primary>  (30) 
energy

$$$$
30:0
     RDKit          3D

 51 54  0  0  0  0  0  0  0  0999 V2000
   61.4160   29.8940   49.5140 O   0  0  0  0  0  0  0  0  0  0  0  0
   60.6160   30.2080   48.5930 C   0  0  0  0  0  0  0  0  0  0  0  0
   59.1730   29.8290   48.7140 C   0  0  0  0  0  0  0  0  0  0  0  0
   58.6450   29.4580   47.4020 N   0  0  0  0  0  0  0  0  0  0  0  0
   58.5460   28.1960   46.9270 C   0  0  0  0  0  0  0  0  0  0  0  0
   58.0520   28.2010   45.6250 C   0  0  0  0  0  0  0  0  0  0  0  0
   57.7660   27.0160   44.7920 C   0  0  0  0  0  0  0  0  0  0  0  0
   57.8840   27.0990   43.5400 O   0  0  0  0  0  0  0  0  0  0  0  0
   57.2820   25.7470   45.3840 C   0  0  0  0  0  0  0  0  0  0  0  0
   58.1380   24.6330   45.4180 C   0  0  0  0  0  0  0  0  0  0  0  0
   57.7070   23.4250   45.9750 C   0  0  0  0  0  0  0  0  0  0  0  0
   56.4230   23.3200   46.5110 C   0  0  0  0  0  0  0  0  0  0  0  0
   55.5700   24.4260   46.5060 C   0  0  0  0  0  0  0  0  0  0  0  0
   55.9950   25.6400   45.9540 C   0  0  0  0  0  0  0  0  0  0  0  0
   55.1410   26.7370   46.0000 O   0  0  0  0  0  0  0  0  0  0  0  0
   57.8430   29.5350   45.3130 C   0  0  0  0  0  0  0  0  0  0  0  0
   57.3730   30.1450   44.1480 C   0  0  0  0  0  0  0  0  0  0  0  0
   57.2910   31.5480   44.1260 C   0  0  0  0  0  0  0  0  0  0  0  0
   57.6850   32.3070   45.2470 C   0  0  0  0  0  0  0  0  0  0  0  0
   58.1640   31.6680   46.4060 C   0  0  0  0  0  0  0  0  0  0  0  0
   58.2280   30.2710   46.4090 C   0  0  0  0  0  0  0  0  0  0  0  0
   61.0880   30.8860   47.4200 N   0  0  0  0  0  0  0  0  0  0  0  0
   62.5000   31.1910   47.1920 C   0  0  0  0  0  0  0  0  0  0  0  0
   62.7710   32.6830   47.4020 C   0  0  0  0  0  0  0  0  0  0  0  0
   61.5030   33.4930   47.3220 C   0  0  0  0  0  0  0  0  0  0  0  0
   60.8000   33.8330   48.4900 C   0  0  0  0  0  0  0  0  0  0  0  0
   59.6100   34.5640   48.4090 C   0  0  0  0  0  0  0  0  0  0  0  0
   59.1080   34.9500   47.1650 C   0  0  0  0  0  0  0  0  0  0  0  0
   59.8000   34.6170   45.9980 C   0  0  0  0  0  0  0  0  0  0  0  0
   60.9930   33.8920   46.0740 C   0  0  0  0  0  0  0  0  0  0  0  0
   59.0763   28.9753   49.4009 H   0  0  0  0  0  0  0  0  0  0  0  0
   58.6046   30.6861   49.1043 H   0  0  0  0  0  0  0  0  0  0  0  0
   58.8178   27.2913   47.4905 H   0  0  0  0  0  0  0  0  0  0  0  0
   59.1539   24.7118   45.0037 H   0  0  0  0  0  0  0  0  0  0  0  0
   58.3813   22.5560   45.9906 H   0  0  0  0  0  0  0  0  0  0  0  0
   56.0822   22.3652   46.9379 H   0  0  0  0  0  0  0  0  0  0  0  0
   54.5614   24.3427   46.9371 H   0  0  0  0  0  0  0  0  0  0  0  0
   57.0761   29.5460   43.2745 H   0  0  0  0  0  0  0  0  0  0  0  0
   56.9162   32.0582   43.2265 H   0  0  0  0  0  0  0  0  0  0  0  0
   57.6177   33.4045   45.2156 H   0  0  0  0  0  0  0  0  0  0  0  0
   58.4790   32.2507   47.2842 H   0  0  0  0  0  0  0  0  0  0  0  0
   60.3940   31.2010   46.7040 H   0  0  0  0  0  0  0  0  0  0  0  0
   63.1134   30.6098   47.8962 H   0  0  0  0  0  0  0  0  0  0  0  0
   62.7564   30.9270   46.1554 H   0  0  0  0  0  0  0  0  0  0  0  0
   63.2250   32.8274   48.3935 H   0  0  0  0  0  0  0  0  0  0  0  0
   63.4490   33.0252   46.6062 H   0  0  0  0  0  0  0  0  0  0  0  0
   61.1868   33.5232   49.4720 H   0  0  0  0  0  0  0  0  0  0  0  0
   59.0688   34.8352   49.3275 H   0  0  0  0  0  0  0  0  0  0  0  0
   58.1672   35.5166   47.1036 H   0  0  0  0  0  0  0  0  0  0  0  0
   59.4059   34.9255   45.0185 H   0  0  0  0  0  0  0  0  0  0  0  0
   61.5353   33.6325   45.1528 H   0  0  0  0  0  0  0  0  0  0  0  0
  1  2  2  0
  2  3  1  0
  3  4  1  0
  4  5  1  0
  5  6  2  0
  6  7  1  0
  7  8  2  0
  7  9  1  0
  9 10  2  0
 10 11  1  0
 11 12  2  0
 12 13  1  0
 13 14  2  0
 14 15  1  0
  6 16  1  0
 16 17  2  0
 17 18  1  0
 18 19  2  0
 19 20  1  0
 20 21  2  0
  2 22  1  0
 22 23  1  0
 23 24  1  0
 24 25  1  0
 25 26  2  0
 26 27  1  0
 27 28  2  0
 28 29  1  0
 29 30  2  0
 21  4  1  0
 30 25  1  0
 14  9  1  0
 21 16  1  0
  3 31  1  0
  3 32  1  0
  5 33  1  0
 10 34  1  0
 11 35  1  0
 12 36  1  0
 13 37  1  0
 17 38  1  0
 18 39  1  0
 19 40  1  0
 20 41  1  0
 22 42  1  0
 23 43  1  0
 23 44  1  0
 24 45  1  0
 24 46  1  0
 26 47  1  0
 27 48  1  0
 28 49  1  0
 29 50  1  0
 30 51  1  0
M  CHG  1  15  -1
M  END
>  <UniqueID>  (31) 
27

>  <SMILES>  (31) 
O=C(Cn1cc(C(=O)c2ccccc2[O-])c2ccccc21)NCCc1ccccc1

>  <Energy>  (31) 
84.77970126981442

>  <Genealogy>  (31) 
O=C(Cn1cc(C(=O)c2ccccc2[O-])c2ccccc21)NCCc1ccccc1 (protonated)
O=C(Cn1cc(C(=O)c2ccccc2[O-])c2ccccc21)NCCc1ccccc1 (3D coordinates assigned)
O=C(Cn1cc(C(=O)c2ccccc2[O-])c2ccccc21)NCCc1ccccc1 (optimized conformer: 84.77970126981442 kcal/mol)

>  <smiles>  (31) 
O=C(Cn1cc(C(=O)c2ccccc2O)c2ccccc21)NCCc1ccccc1

>  <score_type>  (31) 
oracle

>  <origin>  (31) 
adg

>  <m_score__min__energy>  (31) 
-13.119999999999999

>  <m_primary>  (31) 
energy

$$$$
31:0
     RDKit          3D

 51 52  0  0  0  0  0  0  0  0999 V2000
   58.4270   22.2450   44.4950 C   0  0  0  0  0  0  0  0  0  0  0  0
   57.1250   22.4390   43.7250 C   0  0  0  0  0  0  0  0  0  0  0  0
   56.7260   23.9180   43.6740 C   0  0  0  0  0  0  0  0  0  0  0  0
   55.4260   24.1620   44.4420 C   0  0  0  0  0  0  0  0  0  0  0  0
   55.7420   25.0020   45.9840 S   0  0  0  0  0  0  0  0  0  0  0  0
   55.0550   26.3390   45.9740 O   0  0  0  0  0  0  0  0  0  0  0  0
   55.2080   24.1710   47.1190 O   0  0  0  0  0  0  0  0  0  0  0  0
   57.4610   25.2170   46.1530 N   0  0  0  0  0  0  0  0  0  0  0  0
   57.7670   26.2930   47.0990 C   0  0  0  0  0  0  0  0  0  0  0  0
   58.0230   27.5810   46.3750 C   0  0  0  0  0  0  0  0  0  0  0  0
   58.9850   28.3100   46.7400 O   0  0  0  0  0  0  0  0  0  0  0  0
   57.2160   27.9430   45.2430 N   0  0  0  0  0  0  0  0  0  0  0  0
   57.2630   29.2280   44.6000 C   0  0  0  0  0  0  0  0  0  0  0  0
   56.9000   29.3340   43.2490 C   0  0  0  0  0  0  0  0  0  0  0  0
   56.9220   30.5750   42.6070 C   0  0  0  0  0  0  0  0  0  0  0  0
   57.2950   31.7230   43.3100 C   0  0  0  0  0  0  0  0  0  0  0  0
   57.6430   31.6340   44.6640 C   0  0  0  0  0  0  0  0  0  0  0  0
   58.1040   33.0760   45.5650 S   0  0  0  0  0  0  0  0  0  0  0  0
   58.0160   34.2800   44.6660 O   0  0  0  0  0  0  0  0  0  0  0  0
   57.1500   33.2460   46.7140 O   0  0  0  0  0  0  0  0  0  0  0  0
   59.7400   32.8880   46.1610 N   0  0  0  0  0  0  0  0  0  0  0  0
   60.3930   34.1940   46.4060 C   0  0  0  0  0  0  0  0  0  0  0  0
   60.3890   34.5910   47.8930 C   0  0  0  0  0  0  0  0  0  0  0  0
   59.2240   34.1090   48.5240 O   0  0  0  0  0  0  0  0  0  0  0  0
   59.2660   32.6960   48.6170 C   0  0  0  0  0  0  0  0  0  0  0  0
   59.7940   32.0030   47.3380 C   0  0  0  0  0  0  0  0  0  0  0  0
   57.6120   30.3910   45.3100 C   0  0  0  0  0  0  0  0  0  0  0  0
   58.2221   22.2755   45.5753 H   0  0  0  0  0  0  0  0  0  0  0  0
   58.8666   21.2714   44.2325 H   0  0  0  0  0  0  0  0  0  0  0  0
   59.1314   23.0481   44.2325 H   0  0  0  0  0  0  0  0  0  0  0  0
   57.2567   22.0673   42.6981 H   0  0  0  0  0  0  0  0  0  0  0  0
   56.3292   21.8812   44.2404 H   0  0  0  0  0  0  0  0  0  0  0  0
   57.5279   24.5226   44.1229 H   0  0  0  0  0  0  0  0  0  0  0  0
   56.5708   24.2030   42.6230 H   0  0  0  0  0  0  0  0  0  0  0  0
   54.7553   24.7798   43.8268 H   0  0  0  0  0  0  0  0  0  0  0  0
   54.9611   23.1896   44.6616 H   0  0  0  0  0  0  0  0  0  0  0  0
   56.9149   26.4262   47.7818 H   0  0  0  0  0  0  0  0  0  0  0  0
   58.6707   26.0200   47.6636 H   0  0  0  0  0  0  0  0  0  0  0  0
   56.6270   27.1980   44.8050 H   0  0  0  0  0  0  0  0  0  0  0  0
   56.5964   28.4353   42.6920 H   0  0  0  0  0  0  0  0  0  0  0  0
   56.6448   30.6481   41.5450 H   0  0  0  0  0  0  0  0  0  0  0  0
   57.3155   32.6975   42.8001 H   0  0  0  0  0  0  0  0  0  0  0  0
   61.4356   34.1364   46.0600 H   0  0  0  0  0  0  0  0  0  0  0  0
   59.8235   34.9582   45.8568 H   0  0  0  0  0  0  0  0  0  0  0  0
   61.2733   34.1609   48.3860 H   0  0  0  0  0  0  0  0  0  0  0  0
   60.4109   35.6880   47.9710 H   0  0  0  0  0  0  0  0  0  0  0  0
   59.9226   32.4227   49.4561 H   0  0  0  0  0  0  0  0  0  0  0  0
   58.2313   32.3530   48.7642 H   0  0  0  0  0  0  0  0  0  0  0  0
   60.8380   31.6996   47.5051 H   0  0  0  0  0  0  0  0  0  0  0  0
   59.1511   31.1336   47.1358 H   0  0  0  0  0  0  0  0  0  0  0  0
   57.8622   30.3243   46.3791 H   0  0  0  0  0  0  0  0  0  0  0  0
  1  2  1  0
  2  3  1  0
  3  4  1  0
  4  5  1  0
  5  6  2  0
  5  7  2  0
  5  8  1  0
  8  9  1  0
  9 10  1  0
 10 11  2  0
 10 12  1  0
 12 13  1  0
 13 14  2  0
 14 15  1  0
 15 16  2  0
 16 17  1  0
 17 18  1  0
 18 19  2  0
 18 20  2  0
 18 21  1  0
 21 22  1  0
 22 23  1  0
 23 24  1  0
 24 25  1  0
 25 26  1  0
 17 27  2  0
 27 13  1  0
 26 21  1  0
  1 28  1  0
  1 29  1  0
  1 30  1  0
  2 31  1  0
  2 32  1  0
  3 33  1  0
  3 34  1  0
  4 35  1  0
  4 36  1  0
  9 37  1  0
  9 38  1  0
 12 39  1  0
 14 40  1  0
 15 41  1  0
 16 42  1  0
 22 43  1  0
 22 44  1  0
 23 45  1  0
 23 46  1  0
 25 47  1  0
 25 48  1  0
 26 49  1  0
 26 50  1  0
 27 51  1  0
M  CHG  1   8  -1
M  END
>  <UniqueID>  (32) 
28

>  <SMILES>  (32) 
CCCCS(=O)(=O)[N-]CC(=O)Nc1cccc(S(=O)(=O)N2CCOCC2)c1

>  <Energy>  (32) 
49.90368185055342

>  <Genealogy>  (32) 
CCCCS(=O)(=O)[N-]CC(=O)Nc1cccc(S(=O)(=O)N2CCOCC2)c1 (protonated)
CCCCS(=O)(=O)[N-]CC(=O)Nc1cccc(S(=O)(=O)N2CCOCC2)c1 (3D coordinates assigned)
CCCCS(=O)(=O)[N-]CC(=O)Nc1cccc(S(=O)(=O)N2CCOCC2)c1 (nonaromatic ring conformer: 49.90368185055342 kcal/mol)

>  <smiles>  (32) 
CCCCS(=O)(=O)NCC(=O)Nc1cccc(S(=O)(=O)N2CCOCC2)c1

>  <score_type>  (32) 
oracle

>  <origin>  (32) 
adg

>  <m_score__min__energy>  (32) 
-10.49

>  <m_primary>  (32) 
energy

$$$$
32:0
     RDKit          3D

 66 69  0  0  0  0  0  0  0  0999 V2000
   58.3930   26.2100   45.5750 C   0  0  0  0  0  0  0  0  0  0  0  0
   57.6180   27.5230   45.6690 C   0  0  0  0  0  0  0  0  0  0  0  0
   58.3660   28.6140   45.0260 N   0  0  0  0  0  0  0  0  0  0  0  0
   57.6760   29.4030   43.9900 C   0  0  0  0  0  0  0  0  0  0  0  0
   56.3990   29.9840   44.5210 C   0  0  0  0  0  0  0  0  0  0  0  0
   55.4830   29.2110   44.9120 O   0  0  0  0  0  0  0  0  0  0  0  0
   56.1990   31.4030   44.5120 N   0  0  0  0  0  0  0  0  0  0  0  0
   57.1470   32.4040   44.9030 C   0  0  0  0  0  0  0  0  0  0  0  0
   57.0510   33.0660   46.1430 C   0  0  0  0  0  0  0  0  0  0  0  0
   58.0250   33.9920   46.5250 C   0  0  0  0  0  0  0  0  0  0  0  0
   59.1110   34.2520   45.6880 C   0  0  0  0  0  0  0  0  0  0  0  0
   59.2280   33.5880   44.4640 C   0  0  0  0  0  0  0  0  0  0  0  0
   58.2480   32.6560   44.0640 C   0  0  0  0  0  0  0  0  0  0  0  0
   58.3290   31.9620   42.8450 O   0  0  0  0  0  0  0  0  0  0  0  0
   57.6310   32.3280   41.6610 C   0  0  0  0  0  0  0  0  0  0  0  0
   59.7460   28.8550   45.4100 C   0  0  0  0  0  0  0  0  0  0  0  0
   60.6140   28.9650   44.4980 O   0  0  0  0  0  0  0  0  0  0  0  0
   60.2040   28.9510   46.8270 C   0  0  0  0  0  0  0  0  0  0  0  0
   60.7530   27.9750   47.4020 O   0  0  0  0  0  0  0  0  0  0  0  0
   59.9950   30.1830   47.6070 C   0  0  0  0  0  0  0  0  0  0  0  0
   58.9130   30.4410   48.4440 C   0  0  0  0  0  0  0  0  0  0  0  0
   59.0270   31.6760   48.9890 N   0  0  0  0  0  0  0  0  0  0  0  0
   58.0630   32.3120   49.8900 C   0  0  0  0  0  0  0  0  0  0  0  0
   57.9360   31.5640   51.1930 C   0  0  0  0  0  0  0  0  0  0  0  0
   57.3920   30.4240   51.1920 O   0  0  0  0  0  0  0  0  0  0  0  0
   58.3930   32.1380   52.4390 N   0  0  0  0  0  0  0  0  0  0  0  0
   59.2720   33.3190   52.4560 C   0  0  0  0  0  0  0  0  0  0  0  0
   59.1430   34.0710   53.7860 C   0  0  0  0  0  0  0  0  0  0  0  0
   59.3030   33.1950   54.8830 O   0  0  0  0  0  0  0  0  0  0  0  0
   58.2400   32.2640   54.9000 C   0  0  0  0  0  0  0  0  0  0  0  0
   58.3080   31.3450   53.6730 C   0  0  0  0  0  0  0  0  0  0  0  0
   60.1940   32.1850   48.5360 C   0  0  0  0  0  0  0  0  0  0  0  0
   60.7740   33.4190   48.8520 C   0  0  0  0  0  0  0  0  0  0  0  0
   62.0210   33.7290   48.2780 C   0  0  0  0  0  0  0  0  0  0  0  0
   62.6630   32.8120   47.4210 C   0  0  0  0  0  0  0  0  0  0  0  0
   62.0630   31.5750   47.1240 C   0  0  0  0  0  0  0  0  0  0  0  0
   60.8130   31.2990   47.6880 C   0  0  0  0  0  0  0  0  0  0  0  0
   58.6115   25.8399   46.5876 H   0  0  0  0  0  0  0  0  0  0  0  0
   57.7894   25.4658   45.0349 H   0  0  0  0  0  0  0  0  0  0  0  0
   59.3363   26.3788   45.0349 H   0  0  0  0  0  0  0  0  0  0  0  0
   56.6465   27.4059   45.1666 H   0  0  0  0  0  0  0  0  0  0  0  0
   57.4706   27.7721   46.7302 H   0  0  0  0  0  0  0  0  0  0  0  0
   58.3346   30.2207   43.6619 H   0  0  0  0  0  0  0  0  0  0  0  0
   57.4360   28.7403   43.1455 H   0  0  0  0  0  0  0  0  0  0  0  0
   56.2054   32.8528   46.8134 H   0  0  0  0  0  0  0  0  0  0  0  0
   57.9357   34.5172   47.4874 H   0  0  0  0  0  0  0  0  0  0  0  0
   59.8764   34.9810   45.9924 H   0  0  0  0  0  0  0  0  0  0  0  0
   60.0881   33.7931   43.8097 H   0  0  0  0  0  0  0  0  0  0  0  0
   56.6865   32.8233   41.9304 H   0  0  0  0  0  0  0  0  0  0  0  0
   58.2504   33.0173   41.0684 H   0  0  0  0  0  0  0  0  0  0  0  0
   57.4163   31.4265   41.0684 H   0  0  0  0  0  0  0  0  0  0  0  0
   58.0848   29.7427   48.6353 H   0  0  0  0  0  0  0  0  0  0  0  0
   58.3961   33.3391   50.1001 H   0  0  0  0  0  0  0  0  0  0  0  0
   57.0799   32.3082   49.3965 H   0  0  0  0  0  0  0  0  0  0  0  0
   60.3149   32.9950   52.3240 H   0  0  0  0  0  0  0  0  0  0  0  0
   58.9755   33.9926   51.6385 H   0  0  0  0  0  0  0  0  0  0  0  0
   59.9165   34.8517   53.8338 H   0  0  0  0  0  0  0  0  0  0  0  0
   58.1392   34.5177   53.8390 H   0  0  0  0  0  0  0  0  0  0  0  0
   58.3081   31.6540   55.8129 H   0  0  0  0  0  0  0  0  0  0  0  0
   57.2870   32.8131   54.8798 H   0  0  0  0  0  0  0  0  0  0  0  0
   59.1968   30.7017   53.7516 H   0  0  0  0  0  0  0  0  0  0  0  0
   57.3963   30.7305   53.6384 H   0  0  0  0  0  0  0  0  0  0  0  0
   60.2704   34.1252   49.5285 H   0  0  0  0  0  0  0  0  0  0  0  0
   62.4987   34.6947   48.4999 H   0  0  0  0  0  0  0  0  0  0  0  0
   63.6392   33.0655   46.9819 H   0  0  0  0  0  0  0  0  0  0  0  0
   62.5618   30.8465   46.4679 H   0  0  0  0  0  0  0  0  0  0  0  0
  1  2  1  0
  2  3  1  0
  3  4  1  0
  4  5  1  0
  5  6  2  0
  5  7  1  0
  7  8  1  0
  8  9  2  0
  9 10  1  0
 10 11  2  0
 11 12  1  0
 12 13  2  0
 13 14  1  0
 14 15  1  0
  3 16  1  0
 16 17  2  0
 16 18  1  0
 18 19  2  0
 18 20  1  0
 20 21  2  0
 21 22  1  0
 22 23  1  0
 23 24  1  0
 24 25  2  0
 24 26  1  0
 26 27  1  0
 27 28  1  0
 28 29  1  0
 29 30  1  0
 30 31  1  0
 22 32  1  0
 32 33  2  0
 33 34  1  0
 34 35  2  0
 35 36  1  0
 36 37  2  0
 13  8  1  0
 37 20  1  0
 31 26  1  0
 37 32  1  0
  1 38  1  0
  1 39  1  0
  1 40  1  0
  2 41  1  0
  2 42  1  0
  4 43  1  0
  4 44  1  0
  9 45  1  0
 10 46  1  0
 11 47  1  0
 12 48  1  0
 15 49  1  0
 15 50  1  0
 15 51  1  0
 21 52  1  0
 23 53  1  0
 23 54  1  0
 27 55  1  0
 27 56  1  0
 28 57  1  0
 28 58  1  0
 30 59  1  0
 30 60  1  0
 31 61  1  0
 31 62  1  0
 33 63  1  0
 34 64  1  0
 35 65  1  0
 36 66  1  0
M  CHG  1   7  -1
M  END
>  <UniqueID>  (33) 
29

>  <SMILES>  (33) 
CCN(CC(=O)[N-]c1ccccc1OC)C(=O)C(=O)c1cn(CC(=O)N2CCOCC2)c2ccccc12

>  <Energy>  (33) 
110.41147545010412

>  <Genealogy>  (33) 
CCN(CC(=O)[N-]c1ccccc1OC)C(=O)C(=O)c1cn(CC(=O)N2CCOCC2)c2ccccc12 (protonated)
CCN(CC(=O)[N-]c1ccccc1OC)C(=O)C(=O)c1cn(CC(=O)N2CCOCC2)c2ccccc12 (3D coordinates assigned)
CCN(CC(=O)[N-]c1ccccc1OC)C(=O)C(=O)c1cn(CC(=O)N2CCOCC2)c2ccccc12 (nonaromatic ring conformer: 110.41147545010412 kcal/mol)

>  <smiles>  (33) 
CCN(CC(=O)Nc1ccccc1OC)C(=O)C(=O)c1cn(CC(=O)N2CCOCC2)c2ccccc12

>  <score_type>  (33) 
oracle

>  <origin>  (33) 
adg

>  <m_score__min__energy>  (33) 
-13.66

>  <m_primary>  (33) 
energy

$$$$
33:0
     RDKit          3D

 42 44  0  0  0  0  0  0  0  0999 V2000
   57.6521   20.5278   42.9421 H   0  0  0  0  0  0  0  0  0  0  0  0
   57.0240   21.3120   43.3900 C   0  0  0  0  0  0  0  0  0  0  0  0
   56.6230   22.4050   42.6230 C   0  0  0  0  0  0  0  0  0  0  0  0
   56.9343   22.4817   41.5708 H   0  0  0  0  0  0  0  0  0  0  0  0
   55.8270   23.4020   43.1890 C   0  0  0  0  0  0  0  0  0  0  0  0
   55.5132   24.2610   42.5777 H   0  0  0  0  0  0  0  0  0  0  0  0
   55.4220   23.3190   44.5340 C   0  0  0  0  0  0  0  0  0  0  0  0
   54.5940   24.4430   45.1190 C   0  0  0  0  0  0  0  0  0  0  0  0
   54.3341   25.1526   44.3196 H   0  0  0  0  0  0  0  0  0  0  0  0
   53.6836   24.0143   45.5633 H   0  0  0  0  0  0  0  0  0  0  0  0
   55.3370   25.1500   46.1650 N   0  0  0  0  0  0  0  0  0  0  0  0
   56.2410   26.0570   45.9480 C   0  0  0  0  0  0  0  0  0  0  0  0
   55.8900   27.3500   45.7020 N   0  0  0  0  0  0  0  0  0  0  0  0
   56.8200   28.3110   45.4570 C   0  0  0  0  0  0  0  0  0  0  0  0
   56.3460   29.7140   45.1330 C   0  0  0  0  0  0  0  0  0  0  0  0
   55.6861   30.0264   45.9557 H   0  0  0  0  0  0  0  0  0  0  0  0
   57.4950   30.7560   45.1210 C   0  0  0  0  0  0  0  0  0  0  0  0
   57.3844   31.4148   45.9949 H   0  0  0  0  0  0  0  0  0  0  0  0
   58.4478   30.2071   45.1501 H   0  0  0  0  0  0  0  0  0  0  0  0
   57.4870   31.6150   43.8520 C   0  0  0  0  0  0  0  0  0  0  0  0
   56.5848   32.2443   43.8494 H   0  0  0  0  0  0  0  0  0  0  0  0
   58.3927   32.2393   43.8460 H   0  0  0  0  0  0  0  0  0  0  0  0
   57.4900   30.7750   42.6470 N   0  0  0  0  0  0  0  0  0  0  0  0
   58.3900   30.2410   42.6190 H   0  0  0  0  0  0  0  0  0  0  0  0
   56.3590   29.8250   42.5660 C   0  0  0  0  0  0  0  0  0  0  0  0
   55.7078   30.1374   41.7363 H   0  0  0  0  0  0  0  0  0  0  0  0
   56.8003   28.8283   42.4180 H   0  0  0  0  0  0  0  0  0  0  0  0
   55.5010   29.7360   43.8420 C   0  0  0  0  0  0  0  0  0  0  0  0
   54.8308   30.6076   43.8759 H   0  0  0  0  0  0  0  0  0  0  0  0
   54.9406   28.7905   43.7979 H   0  0  0  0  0  0  0  0  0  0  0  0
   58.1770   27.9530   45.4430 C   0  0  0  0  0  0  0  0  0  0  0  0
   58.9526   28.7026   45.2274 H   0  0  0  0  0  0  0  0  0  0  0  0
   58.5230   26.6270   45.7080 C   0  0  0  0  0  0  0  0  0  0  0  0
   59.7320   26.2780   45.7140 O   0  0  0  0  0  0  0  0  0  0  0  0
   57.5530   25.7090   45.9530 N   0  0  0  0  0  0  0  0  0  0  0  0
   55.8310   22.2070   45.3130 C   0  0  0  0  0  0  0  0  0  0  0  0
   55.4270   22.0650   46.7580 C   0  0  0  0  0  0  0  0  0  0  0  0
   56.2668   22.3602   47.4042 H   0  0  0  0  0  0  0  0  0  0  0  0
   54.5618   22.7129   46.9622 H   0  0  0  0  0  0  0  0  0  0  0  0
   55.1575   21.0183   46.9622 H   0  0  0  0  0  0  0  0  0  0  0  0
   56.6300   21.2110   44.7250 C   0  0  0  0  0  0  0  0  0  0  0  0
   56.9476   20.3439   45.3227 H   0  0  0  0  0  0  0  0  0  0  0  0
  1  2  1  0
  2  3  2  0
  3  4  1  0
  3  5  1  0
  5  6  1  0
  5  7  2  0
  7  8  1  0
  8  9  1  0
  8 10  1  0
  8 11  1  0
 11 12  2  0
 12 13  1  0
 13 14  1  0
 14 15  1  0
 15 16  1  0
 15 17  1  0
 17 18  1  0
 17 19  1  0
 17 20  1  0
 20 21  1  0
 20 22  1  0
 20 23  1  0
 23 24  1  0
 23 25  1  0
 25 26  1  0
 25 27  1  0
 25 28  1  0
 28 29  1  0
 28 30  1  0
 14 31  2  0
 31 32  1  0
 31 33  1  0
 33 34  2  0
 33 35  1  0
  7 36  1  0
 36 37  1  0
 37 38  1  0
 37 39  1  0
 37 40  1  0
 36 41  2  0
 41 42  1  0
 41  2  1  0
 35 12  1  0
 28 15  1  0
M  CHG  2  13  -1  35  -1
M  END
>  <UniqueID>  (34) 
30

>  <SMILES>  (34) 
Cc1ccccc1C/N=c1\[n-]c(C2CCNCC2)cc(=O)[n-]1

>  <Energy>  (34) 
51.53140623915235

>  <Genealogy>  (34) 
Cc1ccccc1CN=c1[n-]c(C2CCNCC2)cc(=O)[n-]1 (protonated)
Cc1ccccc1C/N=c1\[n-]c(C2CCNCC2)cc(=O)[n-]1 (cis-trans isomerization)
Cc1ccccc1C/N=c1\[n-]c(C2CCNCC2)cc(=O)[n-]1 (3D coordinates assigned)
Cc1ccccc1C/N=c1\[n-]c(C2CCNCC2)cc(=O)[n-]1 (nonaromatic ring conformer: 51.53140623915235 kcal/mol)

>  <smiles>  (34) 
Cc1ccccc1CN=c1[nH]c(C2CCNCC2)cc(=O)[nH]1

>  <score_type>  (34) 
oracle

>  <origin>  (34) 
adg

>  <m_score__min__energy>  (34) 
-11.19

>  <m_primary>  (34) 
energy

$$$$
34:0
     RDKit          3D

 35 37  0  0  0  0  0  0  0  0999 V2000
   61.2847   29.1020   48.9149 H   0  0  0  0  0  0  0  0  0  0  0  0
   60.5190   29.1980   48.1310 C   0  0  0  0  0  0  0  0  0  0  0  0
   59.3020   28.0840   47.8000 S   0  0  0  0  0  0  0  0  0  0  0  0
   58.6470   29.0010   46.5570 C   0  0  0  0  0  0  0  0  0  0  0  0
   57.6160   28.6120   45.8620 N   0  0  0  0  0  0  0  0  0  0  0  0
   56.6900   29.4100   45.1070 C   0  0  0  0  0  0  0  0  0  0  0  0
   55.5170   29.0150   44.8780 O   0  0  0  0  0  0  0  0  0  0  0  0
   57.1370   30.6860   44.5350 C   0  0  0  0  0  0  0  0  0  0  0  0
   57.3590   31.7680   45.2450 O   0  0  0  0  0  0  0  0  0  0  0  0
   57.7470   32.7220   44.4300 C   0  0  0  0  0  0  0  0  0  0  0  0
   58.0660   34.1170   44.8670 C   0  0  0  0  0  0  0  0  0  0  0  0
   57.3196   34.8072   44.4469 H   0  0  0  0  0  0  0  0  0  0  0  0
   59.0718   34.3803   44.5078 H   0  0  0  0  0  0  0  0  0  0  0  0
   58.0440   34.2200   46.3870 C   0  0  0  0  0  0  0  0  0  0  0  0
   58.2548   33.2330   46.8245 H   0  0  0  0  0  0  0  0  0  0  0  0
   58.8090   34.9383   46.7169 H   0  0  0  0  0  0  0  0  0  0  0  0
   57.0523   34.5630   46.7169 H   0  0  0  0  0  0  0  0  0  0  0  0
   57.7760   32.2560   43.1300 C   0  0  0  0  0  0  0  0  0  0  0  0
   58.0541   32.8208   42.2279 H   0  0  0  0  0  0  0  0  0  0  0  0
   57.3840   30.9360   43.1980 C   0  0  0  0  0  0  0  0  0  0  0  0
   57.2877   30.2282   42.3615 H   0  0  0  0  0  0  0  0  0  0  0  0
   59.3470   30.1460   46.3650 N   0  0  0  0  0  0  0  0  0  0  0  0
   59.1370   30.8640   45.6410 H   0  0  0  0  0  0  0  0  0  0  0  0
   60.3900   30.2660   47.2390 C   0  0  0  0  0  0  0  0  0  0  0  0
   61.3130   31.4280   47.2280 C   0  0  0  0  0  0  0  0  0  0  0  0
   62.6450   31.2880   47.6610 C   0  0  0  0  0  0  0  0  0  0  0  0
   63.0059   30.3091   48.0097 H   0  0  0  0  0  0  0  0  0  0  0  0
   63.5130   32.3850   47.6510 C   0  0  0  0  0  0  0  0  0  0  0  0
   64.5523   32.2662   47.9911 H   0  0  0  0  0  0  0  0  0  0  0  0
   63.0620   33.6300   47.2100 C   0  0  0  0  0  0  0  0  0  0  0  0
   63.7468   34.4908   47.2010 H   0  0  0  0  0  0  0  0  0  0  0  0
   61.7420   33.7840   46.7800 C   0  0  0  0  0  0  0  0  0  0  0  0
   61.3878   34.7663   46.4340 H   0  0  0  0  0  0  0  0  0  0  0  0
   60.8700   32.6900   46.7890 C   0  0  0  0  0  0  0  0  0  0  0  0
   59.8310   32.8169   46.4507 H   0  0  0  0  0  0  0  0  0  0  0  0
  1  2  1  0
  2  3  1  0
  3  4  1  0
  4  5  2  0
  5  6  1  0
  6  7  2  0
  6  8  1  0
  8  9  1  0
  9 10  1  0
 10 11  1  0
 11 12  1  0
 11 13  1  0
 11 14  1  0
 14 15  1  0
 14 16  1  0
 14 17  1  0
 10 18  2  0
 18 19  1  0
 18 20  1  0
 20 21  1  0
  4 22  1  0
 22 23  1  0
 22 24  1  0
 24 25  1  0
 25 26  2  0
 26 27  1  0
 26 28  1  0
 28 29  1  0
 28 30  2  0
 30 31  1  0
 30 32  1  0
 32 33  1  0
 32 34  2  0
 34 35  1  0
 24  2  2  0
 34 25  1  0
 20  8  2  0
M  END
>  <UniqueID>  (35) 
31

>  <SMILES>  (35) 
CCc1ccc(C(=O)/N=c2\[nH]c(-c3ccccc3)cs2)o1

>  <Energy>  (35) 
96.45817197641861

>  <Genealogy>  (35) 
CCc1ccc(C(=O)/N=c2\[nH]c(-c3ccccc3)cs2)o1 (cis-trans isomerization)
CCc1ccc(C(=O)/N=c2\[nH]c(-c3ccccc3)cs2)o1 (3D coordinates assigned)
CCc1ccc(C(=O)/N=c2\[nH]c(-c3ccccc3)cs2)o1 (optimized conformer: 96.45817197641861 kcal/mol)

>  <smiles>  (35) 
CCc1ccc(C(=O)N=c2[nH]c(-c3ccccc3)cs2)o1

>  <score_type>  (35) 
oracle

>  <origin>  (35) 
adg

>  <m_score__min__energy>  (35) 
-7.4400000000000004

>  <m_primary>  (35) 
energy

$$$$
35:0
     RDKit          3D

 40 42  0  0  0  0  0  0  0  0999 V2000
   59.6240   28.9000   48.9550 O   0  0  0  0  0  0  0  0  0  0  0  0
   59.5910   29.8180   48.0930 C   0  0  0  0  0  0  0  0  0  0  0  0
   59.6790   29.4850   46.6370 C   0  0  0  0  0  0  0  0  0  0  0  0
   58.5300   28.6450   46.2660 N   0  0  0  0  0  0  0  0  0  0  0  0
   58.5280   27.3320   46.6510 C   0  0  0  0  0  0  0  0  0  0  0  0
   57.3960   26.5390   46.4760 C   0  0  0  0  0  0  0  0  0  0  0  0
   56.2420   27.0940   45.9110 C   0  0  0  0  0  0  0  0  0  0  0  0
   55.0320   26.3330   45.7990 N   0  0  0  0  0  0  0  0  0  0  0  0
   54.9570   24.9000   45.8040 C   0  0  0  0  0  0  0  0  0  0  0  0
   53.9800   24.3470   46.3730 O   0  0  0  0  0  0  0  0  0  0  0  0
   56.0050   24.0540   45.1910 C   0  0  0  0  0  0  0  0  0  0  0  0
   55.9240   23.6370   43.8510 C   0  0  0  0  0  0  0  0  0  0  0  0
   56.9320   22.8320   43.3190 C   0  0  0  0  0  0  0  0  0  0  0  0
   58.0180   22.4620   44.1130 C   0  0  0  0  0  0  0  0  0  0  0  0
   58.0810   22.9130   45.4340 C   0  0  0  0  0  0  0  0  0  0  0  0
   57.0870   23.6920   45.9370 N   0  0  0  0  0  0  0  0  0  0  0  0
   56.2700   28.4190   45.4670 C   0  0  0  0  0  0  0  0  0  0  0  0
   55.1470   28.9770   44.8650 O   0  0  0  0  0  0  0  0  0  0  0  0
   57.4220   29.1920   45.6650 C   0  0  0  0  0  0  0  0  0  0  0  0
   57.4200   30.4020   45.3060 O   0  0  0  0  0  0  0  0  0  0  0  0
   59.5020   31.1900   48.4920 N   0  0  0  0  0  0  0  0  0  0  0  0
   59.5260   32.3230   47.6110 C   0  0  0  0  0  0  0  0  0  0  0  0
   60.6560   33.1500   47.6090 C   0  0  0  0  0  0  0  0  0  0  0  0
   60.6930   34.2940   46.8050 C   0  0  0  0  0  0  0  0  0  0  0  0
   59.5940   34.6260   46.0080 C   0  0  0  0  0  0  0  0  0  0  0  0
   59.6370   35.7420   45.2370 F   0  0  0  0  0  0  0  0  0  0  0  0
   58.4510   33.8160   46.0180 C   0  0  0  0  0  0  0  0  0  0  0  0
   57.0530   34.2440   45.0490 Cl  0  0  0  0  0  0  0  0  0  0  0  0
   58.4140   32.6710   46.8220 C   0  0  0  0  0  0  0  0  0  0  0  0
   59.6639   30.4122   46.0453 H   0  0  0  0  0  0  0  0  0  0  0  0
   60.6149   28.9430   46.4363 H   0  0  0  0  0  0  0  0  0  0  0  0
   59.4311   26.8973   47.1042 H   0  0  0  0  0  0  0  0  0  0  0  0
   57.4091   25.4820   46.7803 H   0  0  0  0  0  0  0  0  0  0  0  0
   55.0720   23.9431   43.2262 H   0  0  0  0  0  0  0  0  0  0  0  0
   56.8705   22.4897   42.2754 H   0  0  0  0  0  0  0  0  0  0  0  0
   58.8147   21.8232   43.7041 H   0  0  0  0  0  0  0  0  0  0  0  0
   58.9365   22.6372   46.0681 H   0  0  0  0  0  0  0  0  0  0  0  0
   61.5191   32.8987   48.2430 H   0  0  0  0  0  0  0  0  0  0  0  0
   61.5882   34.9332   46.8000 H   0  0  0  0  0  0  0  0  0  0  0  0
   57.5125   32.0409   46.8372 H   0  0  0  0  0  0  0  0  0  0  0  0
  1  2  2  0
  2  3  1  0
  3  4  1  0
  4  5  1  0
  5  6  2  0
  6  7  1  0
  7  8  1  0
  8  9  1  0
  9 10  2  0
  9 11  1  0
 11 12  2  0
 12 13  1  0
 13 14  2  0
 14 15  1  0
 15 16  2  0
  7 17  2  0
 17 18  1  0
 17 19  1  0
 19 20  2  0
  2 21  1  0
 21 22  1  0
 22 23  2  0
 23 24  1  0
 24 25  2  0
 25 26  1  0
 25 27  1  0
 27 28  1  0
 27 29  2  0
 19  4  1  0
 29 22  1  0
 16 11  1  0
  3 30  1  0
  3 31  1  0
  5 32  1  0
  6 33  1  0
 12 34  1  0
 13 35  1  0
 14 36  1  0
 15 37  1  0
 23 38  1  0
 24 39  1  0
 29 40  1  0
M  CHG  3   8  -1  18  -1  21  -1
M  END
>  <UniqueID>  (36) 
32

>  <SMILES>  (36) 
O=C(Cn1ccc([N-]C(=O)c2ccccn2)c([O-])c1=O)[N-]c1ccc(F)c(Cl)c1

>  <Energy>  (36) 
54.104849548492965

>  <Genealogy>  (36) 
O=C(Cn1ccc([N-]C(=O)c2ccccn2)c([O-])c1=O)[N-]c1ccc(F)c(Cl)c1 (protonated)
O=C(Cn1ccc([N-]C(=O)c2ccccn2)c([O-])c1=O)[N-]c1ccc(F)c(Cl)c1 (3D coordinates assigned)
O=C(Cn1ccc([N-]C(=O)c2ccccn2)c([O-])c1=O)[N-]c1ccc(F)c(Cl)c1 (optimized conformer: 54.104849548492965 kcal/mol)

>  <smiles>  (36) 
O=C(Cn1ccc(NC(=O)c2ccccn2)c(O)c1=O)Nc1ccc(F)c(Cl)c1

>  <score_type>  (36) 
oracle

>  <origin>  (36) 
adg

>  <m_score__min__energy>  (36) 
-15.24

>  <m_primary>  (36) 
energy

$$$$
36:0
     RDKit          3D

 29 31  0  0  0  0  0  0  0  0999 V2000
   55.1410   29.3260   44.8990 N   0  0  0  0  0  0  0  0  0  0  0  0
   56.6720   29.4780   44.1110 S   0  0  0  0  0  0  0  0  0  0  0  0
   56.4550   29.7770   42.6530 O   0  0  0  0  0  0  0  0  0  0  0  0
   57.4290   28.1860   44.2290 O   0  0  0  0  0  0  0  0  0  0  0  0
   57.5910   30.7800   44.8580 C   0  0  0  0  0  0  0  0  0  0  0  0
   57.1280   32.1010   44.7910 C   0  0  0  0  0  0  0  0  0  0  0  0
   57.8560   33.1310   45.3940 C   0  0  0  0  0  0  0  0  0  0  0  0
   59.0380   32.8550   46.0910 C   0  0  0  0  0  0  0  0  0  0  0  0
   59.7680   33.9490   46.6700 N   0  0  0  0  0  0  0  0  0  0  0  0
   60.7620   33.8630   47.5050 C   0  0  0  0  0  0  0  0  0  0  0  0
   62.0120   33.4620   47.1610 N   0  0  0  0  0  0  0  0  0  0  0  0
   62.8210   33.4340   48.2510 C   0  0  0  0  0  0  0  0  0  0  0  0
   64.1680   33.0670   48.2230 C   0  0  0  0  0  0  0  0  0  0  0  0
   64.8940   33.0760   49.4270 C   0  0  0  0  0  0  0  0  0  0  0  0
   64.2690   33.4470   50.6350 C   0  0  0  0  0  0  0  0  0  0  0  0
   62.9140   33.8130   50.6510 C   0  0  0  0  0  0  0  0  0  0  0  0
   62.2170   33.7970   49.4440 C   0  0  0  0  0  0  0  0  0  0  0  0
   60.6060   34.1750   49.1590 S   0  0  0  0  0  0  0  0  0  0  0  0
   59.5120   31.5300   46.1360 C   0  0  0  0  0  0  0  0  0  0  0  0
   58.7860   30.5000   45.5330 C   0  0  0  0  0  0  0  0  0  0  0  0
   55.2510   28.5950   45.6370 H   0  0  0  0  0  0  0  0  0  0  0  0
   56.1901   32.3279   44.2630 H   0  0  0  0  0  0  0  0  0  0  0  0
   57.4965   34.1680   45.3200 H   0  0  0  0  0  0  0  0  0  0  0  0
   64.6512   32.7768   47.2784 H   0  0  0  0  0  0  0  0  0  0  0  0
   65.9566   32.7917   49.4264 H   0  0  0  0  0  0  0  0  0  0  0  0
   64.8469   33.4497   51.5710 H   0  0  0  0  0  0  0  0  0  0  0  0
   62.4169   34.1038   51.5882 H   0  0  0  0  0  0  0  0  0  0  0  0
   60.4588   31.3047   46.6486 H   0  0  0  0  0  0  0  0  0  0  0  0
   59.1542   29.4650   45.5885 H   0  0  0  0  0  0  0  0  0  0  0  0
  1  2  1  0
  2  3  2  0
  2  4  2  0
  2  5  1  0
  5  6  2  0
  6  7  1  0
  7  8  2  0
  8  9  1  0
  9 10  2  3
 10 11  1  0
 11 12  1  0
 12 13  2  0
 13 14  1  0
 14 15  2  0
 15 16  1  0
 16 17  2  0
 17 18  1  0
  8 19  1  0
 19 20  2  0
 20  5  1  0
 18 10  1  0
 17 12  1  0
  1 21  1  0
  6 22  1  0
  7 23  1  0
 13 24  1  0
 14 25  1  0
 15 26  1  0
 16 27  1  0
 19 28  1  0
 20 29  1  0
M  CHG  2   1  -1  11  -1
M  END
>  <UniqueID>  (37) 
33

>  <SMILES>  (37) 
[NH-]S(=O)(=O)c1ccc(N=c2[n-]c3ccccc3s2)cc1

>  <Energy>  (37) 
71.96097103438728

>  <Genealogy>  (37) 
[NH-]S(=O)(=O)c1ccc(N=c2[n-]c3ccccc3s2)cc1 (protonated)
[NH-]S(=O)(=O)c1ccc(N=c2[n-]c3ccccc3s2)cc1 (3D coordinates assigned)
[NH-]S(=O)(=O)c1ccc(N=c2[n-]c3ccccc3s2)cc1 (optimized conformer: 71.96097103438728 kcal/mol)

>  <smiles>  (37) 
NS(=O)(=O)c1ccc(N=c2[nH]c3ccccc3s2)cc1

>  <score_type>  (37) 
oracle

>  <origin>  (37) 
adg

>  <m_score__min__energy>  (37) 
-11.17

>  <m_primary>  (37) 
energy

$$$$
37:0
     RDKit          3D

 58 61  0  0  0  0  0  0  0  0999 V2000
   57.3252   32.3528   41.3997 H   0  0  0  0  0  0  0  0  0  0  0  0
   57.4050   31.9650   42.4260 C   0  0  0  0  0  0  0  0  0  0  0  0
   57.0790   30.6320   42.6940 C   0  0  0  0  0  0  0  0  0  0  0  0
   56.7394   29.9774   41.8778 H   0  0  0  0  0  0  0  0  0  0  0  0
   57.1830   30.1220   44.0040 C   0  0  0  0  0  0  0  0  0  0  0  0
   56.8650   28.7500   44.3210 N   0  0  0  0  0  0  0  0  0  0  0  0
   55.8590   28.5180   44.4880 H   0  0  0  0  0  0  0  0  0  0  0  0
   57.8510   27.6600   44.3660 C   0  0  0  0  0  0  0  0  0  0  0  0
   57.6999   27.0108   43.4909 H   0  0  0  0  0  0  0  0  0  0  0  0
   59.2940   28.2200   44.2800 C   0  0  0  0  0  0  0  0  0  0  0  0
   59.8743   27.6014   43.5795 H   0  0  0  0  0  0  0  0  0  0  0  0
   59.2348   29.2624   43.9336 H   0  0  0  0  0  0  0  0  0  0  0  0
   59.9940   28.2120   45.6460 C   0  0  0  0  0  0  0  0  0  0  0  0
   61.0053   28.6295   45.5317 H   0  0  0  0  0  0  0  0  0  0  0  0
   59.3964   28.8176   46.3432 H   0  0  0  0  0  0  0  0  0  0  0  0
   60.0990   26.8400   46.1950 N   0  0  0  0  0  0  0  0  0  0  0  0
   60.4260   26.8920   47.6300 C   0  0  0  0  0  0  0  0  0  0  0  0
   59.5094   26.7462   48.2204 H   0  0  0  0  0  0  0  0  0  0  0  0
   61.1475   26.0973   47.8707 H   0  0  0  0  0  0  0  0  0  0  0  0
   60.8654   27.8713   47.8707 H   0  0  0  0  0  0  0  0  0  0  0  0
   58.9100   25.9830   45.9410 C   0  0  0  0  0  0  0  0  0  0  0  0
   59.1261   25.3278   45.0843 H   0  0  0  0  0  0  0  0  0  0  0  0
   58.7160   25.4071   46.8579 H   0  0  0  0  0  0  0  0  0  0  0  0
   57.6440   26.7950   45.6300 C   0  0  0  0  0  0  0  0  0  0  0  0
   56.8038   26.1051   45.4626 H   0  0  0  0  0  0  0  0  0  0  0  0
   57.4283   27.4567   46.4818 H   0  0  0  0  0  0  0  0  0  0  0  0
   57.6110   30.9790   45.0320 C   0  0  0  0  0  0  0  0  0  0  0  0
   57.6950   30.5954   46.0595 H   0  0  0  0  0  0  0  0  0  0  0  0
   57.9320   32.3160   44.7640 C   0  0  0  0  0  0  0  0  0  0  0  0
   58.4400   33.3660   46.0800 S   0  0  0  0  0  0  0  0  0  0  0  0
   58.8230   34.7070   45.5190 O   0  0  0  0  0  0  0  0  0  0  0  0
   57.3260   33.5550   47.0730 O   0  0  0  0  0  0  0  0  0  0  0  0
   59.7980   32.6500   46.8860 N   0  0  0  0  0  0  0  0  0  0  0  0
   61.0780   33.0810   46.8230 C   0  0  0  0  0  0  0  0  0  0  0  0
   61.4188   33.9625   46.2602 H   0  0  0  0  0  0  0  0  0  0  0  0
   61.9020   32.2470   47.5740 C   0  0  0  0  0  0  0  0  0  0  0  0
   63.3620   32.4050   47.7510 C   0  0  0  0  0  0  0  0  0  0  0  0
   64.1240   32.9820   46.6790 N   0  0  0  0  0  0  0  0  0  0  0  0
   65.1600   33.0970   46.7230 H   0  0  0  0  0  0  0  0  0  0  0  0
   63.6430   33.3340   45.8210 H   0  0  0  0  0  0  0  0  0  0  0  0
   63.9380   31.9840   48.8480 N   0  0  0  0  0  0  0  0  0  0  0  0
   64.6710   31.2410   48.7940 H   0  0  0  0  0  0  0  0  0  0  0  0
   63.6440   32.5160   50.1770 C   0  0  0  0  0  0  0  0  0  0  0  0
   64.0264   31.8240   50.9418 H   0  0  0  0  0  0  0  0  0  0  0  0
   64.1282   33.4966   50.2948 H   0  0  0  0  0  0  0  0  0  0  0  0
   62.5561   32.6278   50.2948 H   0  0  0  0  0  0  0  0  0  0  0  0
   61.0670   31.2820   48.1190 C   0  0  0  0  0  0  0  0  0  0  0  0
   61.3190   30.2310   49.0050 C   0  0  0  0  0  0  0  0  0  0  0  0
   62.3353   30.0351   49.3776 H   0  0  0  0  0  0  0  0  0  0  0  0
   60.2330   29.4310   49.4060 C   0  0  0  0  0  0  0  0  0  0  0  0
   60.4001   28.5894   50.0943 H   0  0  0  0  0  0  0  0  0  0  0  0
   58.9310   29.7000   48.9320 C   0  0  0  0  0  0  0  0  0  0  0  0
   58.0920   29.0619   49.2465 H   0  0  0  0  0  0  0  0  0  0  0  0
   58.7000   30.7790   48.0600 C   0  0  0  0  0  0  0  0  0  0  0  0
   57.6880   31.0037   47.6922 H   0  0  0  0  0  0  0  0  0  0  0  0
   59.7950   31.5570   47.6750 C   0  0  0  0  0  0  0  0  0  0  0  0
   57.8310   32.8050   43.4550 C   0  0  0  0  0  0  0  0  0  0  0  0
   58.0879   33.8524   43.2384 H   0  0  0  0  0  0  0  0  0  0  0  0
  1  2  1  0
  2  3  2  0
  3  4  1  0
  3  5  1  0
  5  6  1  0
  6  7  1  0
  6  8  1  0
  8  9  1  0
  8 10  1  0
 10 11  1  0
 10 12  1  0
 10 13  1  0
 13 14  1  0
 13 15  1  0
 13 16  1  0
 16 17  1  0
 17 18  1  0
 17 19  1  0
 17 20  1  0
 16 21  1  0
 21 22  1  0
 21 23  1  0
 21 24  1  0
 24 25  1  0
 24 26  1  0
  5 27  2  0
 27 28  1  0
 27 29  1  0
 29 30  1  0
 30 31  2  0
 30 32  2  0
 30 33  1  0
 33 34  1  0
 34 35  1  0
 34 36  2  0
 36 37  1  0
 37 38  1  0
 38 39  1  0
 38 40  1  0
 37 41  2  0
 41 42  1  0
 41 43  1  0
 43 44  1  0
 43 45  1  0
 43 46  1  0
 36 47  1  0
 47 48  2  0
 48 49  1  0
 48 50  1  0
 50 51  1  0
 50 52  2  0
 52 53  1  0
 52 54  1  0
 54 55  1  0
 54 56  2  0
 29 57  2  0
 57 58  1  0
 57  2  1  0
 24  8  1  0
 56 33  1  0
 56 47  1  0
M  CHG  1  41   1
M  END
>  <UniqueID>  (38) 
34

>  <SMILES>  (38) 
C/[NH+]=C(\N)c1cn(S(=O)(=O)c2cccc(NC3CCN(C)CC3)c2)c2ccccc12

>  <Energy>  (38) 
106.2695874647176

>  <Genealogy>  (38) 
C[NH+]=C(N)c1cn(S(=O)(=O)c2cccc(NC3CCN(C)CC3)c2)c2ccccc12 (protonated)
C/[NH+]=C(\N)c1cn(S(=O)(=O)c2cccc(NC3CCN(C)CC3)c2)c2ccccc12 (cis-trans isomerization)
C/[NH+]=C(\N)c1cn(S(=O)(=O)c2cccc(NC3CCN(C)CC3)c2)c2ccccc12 (3D coordinates assigned)
C/[NH+]=C(\N)c1cn(S(=O)(=O)c2cccc(NC3CCN(C)CC3)c2)c2ccccc12 (nonaromatic ring conformer: 106.2695874647176 kcal/mol)

>  <smiles>  (38) 
CN=C(N)c1cn(S(=O)(=O)c2cccc(NC3CCN(C)CC3)c2)c2ccccc12

>  <score_type>  (38) 
oracle

>  <origin>  (38) 
adg

>  <m_score__min__energy>  (38) 
-8.0399999999999991

>  <m_primary>  (38) 
energy

$$$$
38:0
     RDKit          3D

 56 59  0  0  0  0  0  0  0  0999 V2000
   65.1285   33.5802   51.4558 H   0  0  0  0  0  0  0  0  0  0  0  0
   64.4330   33.5540   50.6040 C   0  0  0  0  0  0  0  0  0  0  0  0
   63.2070   34.2180   50.6820 C   0  0  0  0  0  0  0  0  0  0  0  0
   62.9395   34.7707   51.5947 H   0  0  0  0  0  0  0  0  0  0  0  0
   62.3180   34.1820   49.6020 C   0  0  0  0  0  0  0  0  0  0  0  0
   61.3491   34.6978   49.6736 H   0  0  0  0  0  0  0  0  0  0  0  0
   62.6570   33.4890   48.4240 C   0  0  0  0  0  0  0  0  0  0  0  0
   61.6930   33.4330   47.3000 C   0  0  0  0  0  0  0  0  0  0  0  0
   62.0550   33.8440   46.1650 O   0  0  0  0  0  0  0  0  0  0  0  0
   60.3540   32.9400   47.4960 N   0  0  0  0  0  0  0  0  0  0  0  0
   60.0420   32.6970   48.4640 H   0  0  0  0  0  0  0  0  0  0  0  0
   59.3760   32.8220   46.4490 C   0  0  0  0  0  0  0  0  0  0  0  0
   58.7670   33.9800   45.9450 C   0  0  0  0  0  0  0  0  0  0  0  0
   59.0656   34.9663   46.3297 H   0  0  0  0  0  0  0  0  0  0  0  0
   57.7840   33.8890   44.9580 C   0  0  0  0  0  0  0  0  0  0  0  0
   57.3163   34.8032   44.5638 H   0  0  0  0  0  0  0  0  0  0  0  0
   57.3930   32.6410   44.4700 C   0  0  0  0  0  0  0  0  0  0  0  0
   56.6162   32.5769   43.6938 H   0  0  0  0  0  0  0  0  0  0  0  0
   57.9830   31.4700   44.9620 C   0  0  0  0  0  0  0  0  0  0  0  0
   57.5180   30.2070   44.4640 N   0  0  0  0  0  0  0  0  0  0  0  0
   56.2280   29.6140   44.6710 C   0  0  0  0  0  0  0  0  0  0  0  0
   55.1800   30.2960   44.5330 O   0  0  0  0  0  0  0  0  0  0  0  0
   56.1370   28.3080   45.2410 N   0  0  0  0  0  0  0  0  0  0  0  0
   57.0320   27.6710   45.9430 C   0  0  0  0  0  0  0  0  0  0  0  0
   58.0900   28.3080   46.5540 C   0  0  0  0  0  0  0  0  0  0  0  0
   58.3136   29.3849   46.5736 H   0  0  0  0  0  0  0  0  0  0  0  0
   58.8030   27.2810   47.1350 C   0  0  0  0  0  0  0  0  0  0  0  0
   60.0900   27.4210   47.8830 C   0  0  0  0  0  0  0  0  0  0  0  0
   60.9114   27.0292   47.2651 H   0  0  0  0  0  0  0  0  0  0  0  0
   60.0163   26.8546   48.8231 H   0  0  0  0  0  0  0  0  0  0  0  0
   60.3650   28.8840   48.2120 C   0  0  0  0  0  0  0  0  0  0  0  0
   60.3898   29.0159   49.3038 H   0  0  0  0  0  0  0  0  0  0  0  0
   61.3345   29.1799   47.7848 H   0  0  0  0  0  0  0  0  0  0  0  0
   59.5691   29.5118   47.7848 H   0  0  0  0  0  0  0  0  0  0  0  0
   58.1880   26.1050   46.9100 N   0  0  0  0  0  0  0  0  0  0  0  0
   57.1020   26.3320   46.1840 N   0  0  0  0  0  0  0  0  0  0  0  0
   56.0510   25.3120   46.0840 C   0  0  0  0  0  0  0  0  0  0  0  0
   55.8313   24.9180   47.0872 H   0  0  0  0  0  0  0  0  0  0  0  0
   55.1486   25.7697   45.6525 H   0  0  0  0  0  0  0  0  0  0  0  0
   56.5010   24.1810   45.1930 C   0  0  0  0  0  0  0  0  0  0  0  0
   57.5920   23.3720   45.5550 C   0  0  0  0  0  0  0  0  0  0  0  0
   58.1159   23.5517   46.5054 H   0  0  0  0  0  0  0  0  0  0  0  0
   58.0140   22.3390   44.7110 C   0  0  0  0  0  0  0  0  0  0  0  0
   58.8692   21.7098   44.9987 H   0  0  0  0  0  0  0  0  0  0  0  0
   57.3510   22.1050   43.5030 C   0  0  0  0  0  0  0  0  0  0  0  0
   57.6880   21.2957   42.8386 H   0  0  0  0  0  0  0  0  0  0  0  0
   56.2600   22.8990   43.1390 C   0  0  0  0  0  0  0  0  0  0  0  0
   55.7358   22.7113   42.1903 H   0  0  0  0  0  0  0  0  0  0  0  0
   55.8340   23.9330   43.9810 C   0  0  0  0  0  0  0  0  0  0  0  0
   54.9732   24.5543   43.6927 H   0  0  0  0  0  0  0  0  0  0  0  0
   58.9580   31.5660   45.9740 C   0  0  0  0  0  0  0  0  0  0  0  0
   59.3966   30.6501   46.3967 H   0  0  0  0  0  0  0  0  0  0  0  0
   63.8940   32.8220   48.3590 C   0  0  0  0  0  0  0  0  0  0  0  0
   64.1698   32.2694   47.4487 H   0  0  0  0  0  0  0  0  0  0  0  0
   64.7750   32.8570   49.4440 C   0  0  0  0  0  0  0  0  0  0  0  0
   65.7406   32.3337   49.3833 H   0  0  0  0  0  0  0  0  0  0  0  0
  1  2  1  0
  2  3  2  0
  3  4  1  0
  3  5  1  0
  5  6  1  0
  5  7  2  0
  7  8  1  0
  8  9  2  0
  8 10  1  0
 10 11  1  0
 10 12  1  0
 12 13  2  0
 13 14  1  0
 13 15  1  0
 15 16  1  0
 15 17  2  0
 17 18  1  0
 17 19  1  0
 19 20  1  0
 20 21  1  0
 21 22  2  0
 21 23  1  0
 23 24  2  0
 24 25  1  0
 25 26  1  0
 25 27  2  0
 27 28  1  0
 28 29  1  0
 28 30  1  0
 28 31  1  0
 31 32  1  0
 31 33  1  0
 31 34  1  0
 27 35  1  0
 35 36  1  0
 36 37  1  0
 37 38  1  0
 37 39  1  0
 37 40  1  0
 40 41  2  0
 41 42  1  0
 41 43  1  0
 43 44  1  0
 43 45  2  0
 45 46  1  0
 45 47  1  0
 47 48  1  0
 47 49  2  0
 49 50  1  0
 19 51  2  0
 51 52  1  0
  7 53  1  0
 53 54  1  0
 53 55  2  0
 55 56  1  0
 55  2  1  0
 51 12  1  0
 36 24  1  0
 49 40  1  0
M  CHG  2  20  -1  35  -1
M  END
>  <UniqueID>  (39) 
35

>  <SMILES>  (39) 
CCc1c/c(=N/C(=O)[N-]c2cccc(NC(=O)c3ccccc3)c2)n(Cc2ccccc2)[n-]1

>  <Energy>  (39) 
109.98525979980569

>  <Genealogy>  (39) 
CCc1cc(=NC(=O)[N-]c2cccc(NC(=O)c3ccccc3)c2)n(Cc2ccccc2)[n-]1 (protonated)
CCc1c/c(=N/C(=O)[N-]c2cccc(NC(=O)c3ccccc3)c2)n(Cc2ccccc2)[n-]1 (cis-trans isomerization)
CCc1c/c(=N/C(=O)[N-]c2cccc(NC(=O)c3ccccc3)c2)n(Cc2ccccc2)[n-]1 (3D coordinates assigned)
CCc1c/c(=N/C(=O)[N-]c2cccc(NC(=O)c3ccccc3)c2)n(Cc2ccccc2)[n-]1 (optimized conformer: 109.98525979980569 kcal/mol)

>  <smiles>  (39) 
CCc1cc(=NC(=O)Nc2cccc(NC(=O)c3ccccc3)c2)n(Cc2ccccc2)[nH]1

>  <score_type>  (39) 
oracle

>  <origin>  (39) 
adg

>  <m_score__min__energy>  (39) 
-12.92

>  <m_primary>  (39) 
energy

$$$$
39:0
     RDKit          3D

 44 46  0  0  0  0  0  0  0  0999 V2000
   55.9400   29.6980   42.6430 C   0  0  0  0  0  0  0  0  0  0  0  0
   56.7110   30.1800   43.8410 C   0  0  0  0  0  0  0  0  0  0  0  0
   57.4180   31.3900   43.7550 C   0  0  0  0  0  0  0  0  0  0  0  0
   58.1230   31.8850   44.8580 C   0  0  0  0  0  0  0  0  0  0  0  0
   58.7420   33.1750   44.7650 N   0  0  0  0  0  0  0  0  0  0  0  0
   59.0990   34.0160   45.8710 C   0  0  0  0  0  0  0  0  0  0  0  0
   58.2210   34.2960   46.7280 O   0  0  0  0  0  0  0  0  0  0  0  0
   60.4210   34.5500   46.0340 N   0  0  0  0  0  0  0  0  0  0  0  0
   61.4510   34.0350   46.8900 C   0  0  0  0  0  0  0  0  0  0  0  0
   61.1380   33.7390   48.2220 C   0  0  0  0  0  0  0  0  0  0  0  0
   62.1290   33.2780   49.0960 C   0  0  0  0  0  0  0  0  0  0  0  0
   63.4400   33.1090   48.6400 C   0  0  0  0  0  0  0  0  0  0  0  0
   64.7980   32.5260   49.8470 Br  0  0  0  0  0  0  0  0  0  0  0  0
   63.7520   33.3640   47.3020 C   0  0  0  0  0  0  0  0  0  0  0  0
   62.7580   33.8090   46.4230 C   0  0  0  0  0  0  0  0  0  0  0  0
   58.1900   31.1230   46.0340 C   0  0  0  0  0  0  0  0  0  0  0  0
   57.4820   29.9250   46.1350 C   0  0  0  0  0  0  0  0  0  0  0  0
   56.7050   29.4700   45.0640 C   0  0  0  0  0  0  0  0  0  0  0  0
   55.9000   28.3020   45.2490 N   0  0  0  0  0  0  0  0  0  0  0  0
   56.4610   27.0170   45.5380 C   0  0  0  0  0  0  0  0  0  0  0  0
   56.0070   26.3220   46.4890 O   0  0  0  0  0  0  0  0  0  0  0  0
   57.6050   26.4970   44.7260 C   0  0  0  0  0  0  0  0  0  0  0  0
   58.8060   25.5690   45.7470 S   0  0  0  0  0  0  0  0  0  0  0  0
   57.9320   24.0070   45.6590 C   0  0  0  0  0  0  0  0  0  0  0  0
   57.3930   23.5900   44.4830 N   0  0  0  0  0  0  0  0  0  0  0  0
   56.7210   22.4110   44.4040 C   0  0  0  0  0  0  0  0  0  0  0  0
   56.2220   22.0470   43.3070 O   0  0  0  0  0  0  0  0  0  0  0  0
   56.5880   21.6090   45.5380 C   0  0  0  0  0  0  0  0  0  0  0  0
   57.1550   22.0500   46.7350 C   0  0  0  0  0  0  0  0  0  0  0  0
   57.0550   21.2780   47.8840 O   0  0  0  0  0  0  0  0  0  0  0  0
   57.8110   23.2380   46.7730 N   0  0  0  0  0  0  0  0  0  0  0  0
   55.0516   29.1426   42.9779 H   0  0  0  0  0  0  0  0  0  0  0  0
   55.6262   30.5610   42.0374 H   0  0  0  0  0  0  0  0  0  0  0  0
   56.5784   29.0379   42.0374 H   0  0  0  0  0  0  0  0  0  0  0  0
   57.4178   31.9547   42.8110 H   0  0  0  0  0  0  0  0  0  0  0  0
   60.1074   33.8695   48.5837 H   0  0  0  0  0  0  0  0  0  0  0  0
   61.8766   33.0486   50.1418 H   0  0  0  0  0  0  0  0  0  0  0  0
   64.7797   33.2148   46.9393 H   0  0  0  0  0  0  0  0  0  0  0  0
   62.9998   33.9824   45.3640 H   0  0  0  0  0  0  0  0  0  0  0  0
   58.8025   31.4710   46.8789 H   0  0  0  0  0  0  0  0  0  0  0  0
   57.5350   29.3349   47.0618 H   0  0  0  0  0  0  0  0  0  0  0  0
   57.2116   25.8289   43.9457 H   0  0  0  0  0  0  0  0  0  0  0  0
   58.1282   27.3589   44.2862 H   0  0  0  0  0  0  0  0  0  0  0  0
   56.0488   20.6514   45.4899 H   0  0  0  0  0  0  0  0  0  0  0  0
  1  2  1  0
  2  3  2  0
  3  4  1  0
  4  5  1  0
  5  6  1  0
  6  7  2  0
  6  8  1  0
  8  9  1  0
  9 10  2  0
 10 11  1  0
 11 12  2  0
 12 13  1  0
 12 14  1  0
 14 15  2  0
  4 16  2  0
 16 17  1  0
 17 18  2  0
 18 19  1  0
 19 20  1  0
 20 21  2  0
 20 22  1  0
 22 23  1  0
 23 24  1  0
 24 25  2  0
 25 26  1  0
 26 27  2  0
 26 28  1  0
 28 29  2  0
 29 30  1  0
 29 31  1  0
 18  2  1  0
 31 24  1  0
 15  9  1  0
  1 32  1  0
  1 33  1  0
  1 34  1  0
  3 35  1  0
 10 36  1  0
 11 37  1  0
 14 38  1  0
 15 39  1  0
 16 40  1  0
 17 41  1  0
 22 42  1  0
 22 43  1  0
 28 44  1  0
M  CHG  5   5  -1   8  -1  19  -1  30  -1  31  -1
M  END
>  <UniqueID>  (40) 
36

>  <SMILES>  (40) 
Cc1cc([N-]C(=O)[N-]c2ccc(Br)cc2)ccc1[N-]C(=O)CSc1nc(=O)cc([O-])[n-]1

>  <Energy>  (40) 
53.751584579050984

>  <Genealogy>  (40) 
Cc1cc([N-]C(=O)[N-]c2ccc(Br)cc2)ccc1[N-]C(=O)CSc1nc(=O)cc([O-])[n-]1 (protonated)
Cc1cc([N-]C(=O)[N-]c2ccc(Br)cc2)ccc1[N-]C(=O)CSc1nc(=O)cc([O-])[n-]1 (3D coordinates assigned)
Cc1cc([N-]C(=O)[N-]c2ccc(Br)cc2)ccc1[N-]C(=O)CSc1nc(=O)cc([O-])[n-]1 (optimized conformer: 53.751584579050984 kcal/mol)

>  <smiles>  (40) 
Cc1cc(NC(=O)Nc2ccc(Br)cc2)ccc1NC(=O)CSc1nc(=O)cc(O)[nH]1

>  <score_type>  (40) 
oracle

>  <origin>  (40) 
adg

>  <m_score__min__energy>  (40) 
-17.760000000000002

>  <m_primary>  (40) 
energy

$$$$
40:0
     RDKit          3D

 46 49  0  0  0  0  0  0  0  0999 V2000
   55.4220   29.7160   44.9390 O   0  0  0  0  0  0  0  0  0  0  0  0
   56.5860   29.8790   44.4870 C   0  0  0  0  0  0  0  0  0  0  0  0
   57.0990   28.9440   43.5260 N   0  0  0  0  0  0  0  0  0  0  0  0
   58.2670   28.0850   43.7130 C   0  0  0  0  0  0  0  0  0  0  0  0
   58.2370   27.4090   45.0550 C   0  0  0  0  0  0  0  0  0  0  0  0
   59.3930   27.3210   45.8450 C   0  0  0  0  0  0  0  0  0  0  0  0
   59.3400   26.6490   47.0670 C   0  0  0  0  0  0  0  0  0  0  0  0
   58.1390   26.0800   47.4940 C   0  0  0  0  0  0  0  0  0  0  0  0
   57.0020   26.2040   46.6910 C   0  0  0  0  0  0  0  0  0  0  0  0
   57.0750   26.8580   45.5020 N   0  0  0  0  0  0  0  0  0  0  0  0
   57.4050   30.9900   45.0010 C   0  0  0  0  0  0  0  0  0  0  0  0
   57.2060   32.2870   44.5100 C   0  0  0  0  0  0  0  0  0  0  0  0
   57.9320   33.3590   45.0390 C   0  0  0  0  0  0  0  0  0  0  0  0
   58.8780   33.1380   46.0500 C   0  0  0  0  0  0  0  0  0  0  0  0
   59.8120   34.4740   46.7130 S   0  0  0  0  0  0  0  0  0  0  0  0
   59.0830   35.0420   47.8990 O   0  0  0  0  0  0  0  0  0  0  0  0
   59.9800   35.5650   45.6930 O   0  0  0  0  0  0  0  0  0  0  0  0
   61.3690   33.8950   47.2100 N   0  0  0  0  0  0  0  0  0  0  0  0
   62.5340   33.8310   46.3330 C   0  0  0  0  0  0  0  0  0  0  0  0
   63.7340   33.4760   47.2440 C   0  0  0  0  0  0  0  0  0  0  0  0
   63.1380   33.4660   48.6090 C   0  0  0  0  0  0  0  0  0  0  0  0
   63.7810   33.2500   49.8290 C   0  0  0  0  0  0  0  0  0  0  0  0
   63.0150   33.2860   51.0040 C   0  0  0  0  0  0  0  0  0  0  0  0
   61.6310   33.5350   50.9410 C   0  0  0  0  0  0  0  0  0  0  0  0
   61.0050   33.7510   49.7030 C   0  0  0  0  0  0  0  0  0  0  0  0
   61.7920   33.7060   48.5470 C   0  0  0  0  0  0  0  0  0  0  0  0
   59.0960   31.8370   46.5220 C   0  0  0  0  0  0  0  0  0  0  0  0
   58.3610   30.7670   46.0030 C   0  0  0  0  0  0  0  0  0  0  0  0
   58.2774   27.3175   42.9251 H   0  0  0  0  0  0  0  0  0  0  0  0
   59.1705   28.7100   43.6586 H   0  0  0  0  0  0  0  0  0  0  0  0
   60.3337   27.7780   45.5040 H   0  0  0  0  0  0  0  0  0  0  0  0
   60.2418   26.5680   47.6917 H   0  0  0  0  0  0  0  0  0  0  0  0
   58.0881   25.5404   48.4512 H   0  0  0  0  0  0  0  0  0  0  0  0
   56.0463   25.7715   47.0219 H   0  0  0  0  0  0  0  0  0  0  0  0
   56.4764   32.4628   43.7058 H   0  0  0  0  0  0  0  0  0  0  0  0
   57.7605   34.3777   44.6611 H   0  0  0  0  0  0  0  0  0  0  0  0
   62.3932   33.0548   45.5664 H   0  0  0  0  0  0  0  0  0  0  0  0
   62.6952   34.7834   45.8067 H   0  0  0  0  0  0  0  0  0  0  0  0
   64.1454   32.4889   46.9866 H   0  0  0  0  0  0  0  0  0  0  0  0
   64.5721   34.1817   47.1458 H   0  0  0  0  0  0  0  0  0  0  0  0
   64.8631   33.0561   49.8683 H   0  0  0  0  0  0  0  0  0  0  0  0
   63.4979   33.1190   51.9781 H   0  0  0  0  0  0  0  0  0  0  0  0
   61.0369   33.5605   51.8664 H   0  0  0  0  0  0  0  0  0  0  0  0
   59.9248   33.9503   49.6435 H   0  0  0  0  0  0  0  0  0  0  0  0
   59.8484   31.6567   47.3040 H   0  0  0  0  0  0  0  0  0  0  0  0
   58.5327   29.7484   46.3811 H   0  0  0  0  0  0  0  0  0  0  0  0
  1  2  2  0
  2  3  1  0
  3  4  1  0
  4  5  1  0
  5  6  2  0
  6  7  1  0
  7  8  2  0
  8  9  1  0
  9 10  2  0
  2 11  1  0
 11 12  2  0
 12 13  1  0
 13 14  2  0
 14 15  1  0
 15 16  2  0
 15 17  2  0
 15 18  1  0
 18 19  1  0
 19 20  1  0
 20 21  1  0
 21 22  2  0
 22 23  1  0
 23 24  2  0
 24 25  1  0
 25 26  2  0
 14 27  1  0
 27 28  2  0
 10  5  1  0
 28 11  1  0
 26 18  1  0
 26 21  1  0
  4 29  1  0
  4 30  1  0
  6 31  1  0
  7 32  1  0
  8 33  1  0
  9 34  1  0
 12 35  1  0
 13 36  1  0
 19 37  1  0
 19 38  1  0
 20 39  1  0
 20 40  1  0
 22 41  1  0
 23 42  1  0
 24 43  1  0
 25 44  1  0
 27 45  1  0
 28 46  1  0
M  CHG  1   3  -1
M  END
>  <UniqueID>  (41) 
37

>  <SMILES>  (41) 
O=C([N-]Cc1ccccn1)c1ccc(S(=O)(=O)N2CCc3ccccc32)cc1

>  <Energy>  (41) 
68.32145476692197

>  <Genealogy>  (41) 
O=C([N-]Cc1ccccn1)c1ccc(S(=O)(=O)N2CCc3ccccc32)cc1 (protonated)
O=C([N-]Cc1ccccn1)c1ccc(S(=O)(=O)N2CCc3ccccc32)cc1 (3D coordinates assigned)
O=C([N-]Cc1ccccn1)c1ccc(S(=O)(=O)N2CCc3ccccc32)cc1 (nonaromatic ring conformer: 68.32145476692197 kcal/mol)

>  <smiles>  (41) 
O=C(NCc1ccccn1)c1ccc(S(=O)(=O)N2CCc3ccccc32)cc1

>  <score_type>  (41) 
oracle

>  <origin>  (41) 
adg

>  <m_score__min__energy>  (41) 
-11.59

>  <m_primary>  (41) 
energy

$$$$
41:0
     RDKit          3D

 41 43  0  0  0  0  0  0  0  0999 V2000
   58.5050   26.6930   47.0480 O   0  0  0  0  0  0  0  0  0  0  0  0
   58.1620   27.7410   46.4350 C   0  0  0  0  0  0  0  0  0  0  0  0
   56.8890   27.8400   45.9790 N   0  0  0  0  0  0  0  0  0  0  0  0
   56.4620   28.9240   45.2900 C   0  0  0  0  0  0  0  0  0  0  0  0
   55.1400   28.9840   44.8650 O   0  0  0  0  0  0  0  0  0  0  0  0
   57.3490   29.9680   45.0170 C   0  0  0  0  0  0  0  0  0  0  0  0
   56.8830   31.1490   44.2530 C   0  0  0  0  0  0  0  0  0  0  0  0
   57.5270   32.3250   44.1970 C   0  0  0  0  0  0  0  0  0  0  0  0
   58.1160   33.0270   45.3590 C   0  0  0  0  0  0  0  0  0  0  0  0
   59.0750   34.0450   45.1980 C   0  0  0  0  0  0  0  0  0  0  0  0
   59.6180   34.6840   46.3170 C   0  0  0  0  0  0  0  0  0  0  0  0
   59.2180   34.3090   47.6020 C   0  0  0  0  0  0  0  0  0  0  0  0
   59.7410   34.9360   48.6850 F   0  0  0  0  0  0  0  0  0  0  0  0
   58.2890   33.2800   47.7710 C   0  0  0  0  0  0  0  0  0  0  0  0
   57.7470   32.6320   46.6550 C   0  0  0  0  0  0  0  0  0  0  0  0
   58.6830   29.8310   45.4440 C   0  0  0  0  0  0  0  0  0  0  0  0
   59.5370   30.6900   45.0900 O   0  0  0  0  0  0  0  0  0  0  0  0
   59.0610   28.7580   46.2160 N   0  0  0  0  0  0  0  0  0  0  0  0
   60.4380   28.6790   46.7530 C   0  0  0  0  0  0  0  0  0  0  0  0
   60.6580   29.6200   47.9540 C   0  0  0  0  0  0  0  0  0  0  0  0
   60.9980   31.0720   47.5750 C   0  0  0  0  0  0  0  0  0  0  0  0
   62.1490   31.6000   48.3270 N   0  0  0  0  0  0  0  0  0  0  0  0
   62.4660   31.2040   49.5970 C   0  0  0  0  0  0  0  0  0  0  0  0
   61.7140   30.2710   50.3020 O   0  0  0  0  0  0  0  0  0  0  0  0
   63.5710   31.8270   50.1610 C   0  0  0  0  0  0  0  0  0  0  0  0
   64.1420   32.9560   49.0560 S   0  0  0  0  0  0  0  0  0  0  0  0
   62.9800   32.5910   47.9010 C   0  0  0  0  0  0  0  0  0  0  0  0
   62.8030   33.4500   46.5150 S   0  0  0  0  0  0  0  0  0  0  0  0
   55.9418   31.0550   43.6915 H   0  0  0  0  0  0  0  0  0  0  0  0
   57.6246   32.8040   43.2116 H   0  0  0  0  0  0  0  0  0  0  0  0
   59.3983   34.3388   44.1885 H   0  0  0  0  0  0  0  0  0  0  0  0
   60.3617   35.4837   46.1852 H   0  0  0  0  0  0  0  0  0  0  0  0
   57.9826   32.9781   48.7834 H   0  0  0  0  0  0  0  0  0  0  0  0
   57.0292   31.8101   46.7937 H   0  0  0  0  0  0  0  0  0  0  0  0
   60.6325   27.6452   47.0746 H   0  0  0  0  0  0  0  0  0  0  0  0
   61.1268   28.9903   45.9539 H   0  0  0  0  0  0  0  0  0  0  0  0
   59.7375   29.6290   48.5562 H   0  0  0  0  0  0  0  0  0  0  0  0
   61.5277   29.2286   48.5020 H   0  0  0  0  0  0  0  0  0  0  0  0
   61.2318   31.1100   46.5008 H   0  0  0  0  0  0  0  0  0  0  0  0
   60.1251   31.6937   47.8230 H   0  0  0  0  0  0  0  0  0  0  0  0
   63.9965   31.6186   51.1538 H   0  0  0  0  0  0  0  0  0  0  0  0
  1  2  2  0
  2  3  1  0
  3  4  1  0
  4  5  1  0
  4  6  2  0
  6  7  1  0
  7  8  2  3
  8  9  1  0
  9 10  2  0
 10 11  1  0
 11 12  2  0
 12 13  1  0
 12 14  1  0
 14 15  2  0
  6 16  1  0
 16 17  2  0
 16 18  1  0
 18 19  1  0
 19 20  1  0
 20 21  1  0
 21 22  1  0
 22 23  1  0
 23 24  1  0
 23 25  2  0
 25 26  1  0
 26 27  1  0
 27 28  2  0
 18  2  1  0
 27 22  1  0
 15  9  1  0
  7 29  1  0
  8 30  1  0
 10 31  1  0
 11 32  1  0
 14 33  1  0
 15 34  1  0
 19 35  1  0
 19 36  1  0
 20 37  1  0
 20 38  1  0
 21 39  1  0
 21 40  1  0
 25 41  1  0
M  CHG  3   3  -1   5  -1  24  -1
M  END
>  <UniqueID>  (42) 
38

>  <SMILES>  (42) 
O=c1[n-]c([O-])c(C=Cc2ccc(F)cc2)c(=O)n1CCCn1c([O-])csc1=S

>  <Energy>  (42) 
88.50546453079464

>  <Genealogy>  (42) 
O=c1[n-]c([O-])c(C=Cc2ccc(F)cc2)c(=O)n1CCCn1c([O-])csc1=S (protonated)
O=c1[n-]c([O-])c(C=Cc2ccc(F)cc2)c(=O)n1CCCn1c([O-])csc1=S (3D coordinates assigned)
O=c1[n-]c([O-])c(C=Cc2ccc(F)cc2)c(=O)n1CCCn1c([O-])csc1=S (optimized conformer: 88.50546453079464 kcal/mol)

>  <smiles>  (42) 
O=c1[nH]c(O)c(C=Cc2ccc(F)cc2)c(=O)n1CCCn1c(O)csc1=S

>  <score_type>  (42) 
oracle

>  <origin>  (42) 
adg

>  <m_score__min__energy>  (42) 
-14.35

>  <m_primary>  (42) 
energy

$$$$
42:0
     RDKit          3D

 47 49  0  0  0  0  0  0  0  0999 V2000
   57.0420   31.2200   43.2640 C   0  0  0  0  0  0  0  0  0  0  0  0
   57.7460   32.0770   44.2830 C   0  0  0  0  0  0  0  0  0  0  0  0
   57.5300   33.4680   44.2690 C   0  0  0  0  0  0  0  0  0  0  0  0
   58.1610   34.2950   45.2000 C   0  0  0  0  0  0  0  0  0  0  0  0
   59.0130   33.7480   46.1580 C   0  0  0  0  0  0  0  0  0  0  0  0
   59.2330   32.3700   46.1940 C   0  0  0  0  0  0  0  0  0  0  0  0
   58.5970   31.5170   45.2720 C   0  0  0  0  0  0  0  0  0  0  0  0
   58.8910   30.0360   45.3410 C   0  0  0  0  0  0  0  0  0  0  0  0
   58.2650   29.4380   46.5620 C   0  0  0  0  0  0  0  0  0  0  0  0
   58.6220   29.8300   47.7060 O   0  0  0  0  0  0  0  0  0  0  0  0
   57.1990   28.4940   46.4160 N   0  0  0  0  0  0  0  0  0  0  0  0
   57.3520   27.0740   46.2890 C   0  0  0  0  0  0  0  0  0  0  0  0
   58.6290   26.5240   46.4530 C   0  0  0  0  0  0  0  0  0  0  0  0
   58.8260   25.1440   46.3520 C   0  0  0  0  0  0  0  0  0  0  0  0
   57.7420   24.2930   46.0940 C   0  0  0  0  0  0  0  0  0  0  0  0
   57.9580   22.8030   46.0160 C   0  0  0  0  0  0  0  0  0  0  0  0
   57.9890   22.3460   44.6090 N   0  0  0  0  0  0  0  0  0  0  0  0
   57.2560   21.0680   44.4380 C   0  0  0  0  0  0  0  0  0  0  0  0
   56.8070   20.8820   42.9790 C   0  0  0  0  0  0  0  0  0  0  0  0
   55.9290   21.8990   42.5140 O   0  0  0  0  0  0  0  0  0  0  0  0
   56.0770   23.1370   43.1960 C   0  0  0  0  0  0  0  0  0  0  0  0
   57.5130   23.4020   43.6820 C   0  0  0  0  0  0  0  0  0  0  0  0
   56.4550   24.8360   45.9660 C   0  0  0  0  0  0  0  0  0  0  0  0
   56.2540   26.2170   46.0770 C   0  0  0  0  0  0  0  0  0  0  0  0
   54.9570   26.7160   46.0110 O   0  0  0  0  0  0  0  0  0  0  0  0
   56.4252   30.4692   43.7796 H   0  0  0  0  0  0  0  0  0  0  0  0
   56.3993   31.8526   42.6341 H   0  0  0  0  0  0  0  0  0  0  0  0
   57.7873   30.7123   42.6341 H   0  0  0  0  0  0  0  0  0  0  0  0
   56.8577   33.9074   43.5174 H   0  0  0  0  0  0  0  0  0  0  0  0
   57.9854   35.3807   45.1775 H   0  0  0  0  0  0  0  0  0  0  0  0
   59.5127   34.4032   46.8867 H   0  0  0  0  0  0  0  0  0  0  0  0
   59.9101   31.9463   46.9503 H   0  0  0  0  0  0  0  0  0  0  0  0
   58.4835   29.5432   44.4460 H   0  0  0  0  0  0  0  0  0  0  0  0
   59.9801   29.8895   45.3892 H   0  0  0  0  0  0  0  0  0  0  0  0
   59.4841   27.1833   46.6630 H   0  0  0  0  0  0  0  0  0  0  0  0
   59.8352   24.7240   46.4754 H   0  0  0  0  0  0  0  0  0  0  0  0
   58.9149   22.5523   46.4971 H   0  0  0  0  0  0  0  0  0  0  0  0
   57.1256   22.3002   46.5302 H   0  0  0  0  0  0  0  0  0  0  0  0
   57.9156   20.2343   44.7206 H   0  0  0  0  0  0  0  0  0  0  0  0
   56.3630   21.0872   45.0801 H   0  0  0  0  0  0  0  0  0  0  0  0
   57.7016   20.8770   42.3389 H   0  0  0  0  0  0  0  0  0  0  0  0
   56.2511   19.9339   42.9336 H   0  0  0  0  0  0  0  0  0  0  0  0
   55.7854   23.9481   42.5126 H   0  0  0  0  0  0  0  0  0  0  0  0
   55.4360   23.0933   44.0889 H   0  0  0  0  0  0  0  0  0  0  0  0
   58.1824   23.4373   42.8099 H   0  0  0  0  0  0  0  0  0  0  0  0
   57.5171   24.3585   44.2252 H   0  0  0  0  0  0  0  0  0  0  0  0
   55.5982   24.1725   45.7772 H   0  0  0  0  0  0  0  0  0  0  0  0
  1  2  1  0
  2  3  2  0
  3  4  1  0
  4  5  2  0
  5  6  1  0
  6  7  2  0
  7  8  1  0
  8  9  1  0
  9 10  2  0
  9 11  1  0
 11 12  1  0
 12 13  2  0
 13 14  1  0
 14 15  2  0
 15 16  1  0
 16 17  1  0
 17 18  1  0
 18 19  1  0
 19 20  1  0
 20 21  1  0
 21 22  1  0
 15 23  1  0
 23 24  2  0
 24 25  1  0
  7  2  1  0
 24 12  1  0
 22 17  1  0
  1 26  1  0
  1 27  1  0
  1 28  1  0
  3 29  1  0
  4 30  1  0
  5 31  1  0
  6 32  1  0
  8 33  1  0
  8 34  1  0
 13 35  1  0
 14 36  1  0
 16 37  1  0
 16 38  1  0
 18 39  1  0
 18 40  1  0
 19 41  1  0
 19 42  1  0
 21 43  1  0
 21 44  1  0
 22 45  1  0
 22 46  1  0
 23 47  1  0
M  CHG  2  11  -1  25  -1
M  END
>  <UniqueID>  (43) 
39

>  <SMILES>  (43) 
Cc1ccccc1CC(=O)[N-]c1ccc(CN2CCOCC2)cc1[O-]

>  <Energy>  (43) 
67.09307555863766

>  <Genealogy>  (43) 
Cc1ccccc1CC(=O)[N-]c1ccc(CN2CCOCC2)cc1[O-] (protonated)
Cc1ccccc1CC(=O)[N-]c1ccc(CN2CCOCC2)cc1[O-] (3D coordinates assigned)
Cc1ccccc1CC(=O)[N-]c1ccc(CN2CCOCC2)cc1[O-] (nonaromatic ring conformer: 67.09307555863766 kcal/mol)

>  <smiles>  (43) 
Cc1ccccc1CC(=O)Nc1ccc(CN2CCOCC2)cc1O

>  <score_type>  (43) 
oracle

>  <origin>  (43) 
adg

>  <m_score__min__energy>  (43) 
-15

>  <m_primary>  (43) 
energy

$$$$
43:0
     RDKit          3D

 43 45  0  0  0  0  0  0  0  0999 V2000
   54.0780   22.7700   47.0650 C   0  0  0  0  0  0  0  0  0  0  0  0
   53.5180   23.0290   45.6950 C   0  0  0  0  0  0  0  0  0  0  0  0
   52.5660   22.3680   45.3090 O   0  0  0  0  0  0  0  0  0  0  0  0
   54.1060   24.0660   44.7700 C   0  0  0  0  0  0  0  0  0  0  0  0
   55.5450   24.2780   45.0150 N   0  0  0  0  0  0  0  0  0  0  0  0
   55.9740   25.4710   45.7060 C   0  0  0  0  0  0  0  0  0  0  0  0
   55.1430   26.3780   45.9930 O   0  0  0  0  0  0  0  0  0  0  0  0
   57.3960   25.6220   46.0760 C   0  0  0  0  0  0  0  0  0  0  0  0
   57.8340   26.6960   46.7540 C   0  0  0  0  0  0  0  0  0  0  0  0
   57.8140   28.0760   46.2150 C   0  0  0  0  0  0  0  0  0  0  0  0
   58.6030   29.0540   46.8320 C   0  0  0  0  0  0  0  0  0  0  0  0
   58.6260   30.3590   46.3400 C   0  0  0  0  0  0  0  0  0  0  0  0
   57.8740   30.7120   45.2090 C   0  0  0  0  0  0  0  0  0  0  0  0
   57.9170   32.1310   44.7050 C   0  0  0  0  0  0  0  0  0  0  0  0
   57.0850   29.7280   44.5660 C   0  0  0  0  0  0  0  0  0  0  0  0
   56.2810   30.0530   43.3350 C   0  0  0  0  0  0  0  0  0  0  0  0
   57.0770   28.4140   45.0670 C   0  0  0  0  0  0  0  0  0  0  0  0
   58.2930   24.6280   45.6780 O   0  0  0  0  0  0  0  0  0  0  0  0
   57.9000   23.5150   44.9310 C   0  0  0  0  0  0  0  0  0  0  0  0
   58.8750   22.5960   44.5320 C   0  0  0  0  0  0  0  0  0  0  0  0
   58.5250   21.4860   43.7610 C   0  0  0  0  0  0  0  0  0  0  0  0
   57.1970   21.2950   43.3800 C   0  0  0  0  0  0  0  0  0  0  0  0
   56.2120   22.2040   43.7780 C   0  0  0  0  0  0  0  0  0  0  0  0
   56.5460   23.3220   44.5740 C   0  0  0  0  0  0  0  0  0  0  0  0
   53.3564   23.1037   47.8252 H   0  0  0  0  0  0  0  0  0  0  0  0
   54.2668   21.6931   47.1864 H   0  0  0  0  0  0  0  0  0  0  0  0
   55.0208   23.3235   47.1864 H   0  0  0  0  0  0  0  0  0  0  0  0
   53.9688   23.7325   43.7308 H   0  0  0  0  0  0  0  0  0  0  0  0
   53.5875   25.0181   44.9562 H   0  0  0  0  0  0  0  0  0  0  0  0
   58.2306   26.5418   47.7684 H   0  0  0  0  0  0  0  0  0  0  0  0
   59.2094   28.7914   47.7114 H   0  0  0  0  0  0  0  0  0  0  0  0
   59.2403   31.1197   46.8440 H   0  0  0  0  0  0  0  0  0  0  0  0
   57.9380   32.8232   45.5597 H   0  0  0  0  0  0  0  0  0  0  0  0
   58.8199   32.2758   44.0937 H   0  0  0  0  0  0  0  0  0  0  0  0
   57.0245   32.3302   44.0937 H   0  0  0  0  0  0  0  0  0  0  0  0
   55.2992   30.4499   43.6325 H   0  0  0  0  0  0  0  0  0  0  0  0
   56.8148   30.8060   42.7366 H   0  0  0  0  0  0  0  0  0  0  0  0
   56.1416   29.1406   42.7366 H   0  0  0  0  0  0  0  0  0  0  0  0
   56.4864   27.6408   44.5538 H   0  0  0  0  0  0  0  0  0  0  0  0
   59.9237   22.7483   44.8271 H   0  0  0  0  0  0  0  0  0  0  0  0
   59.2954   20.7632   43.4545 H   0  0  0  0  0  0  0  0  0  0  0  0
   56.9235   20.4257   42.7639 H   0  0  0  0  0  0  0  0  0  0  0  0
   55.1681   22.0472   43.4686 H   0  0  0  0  0  0  0  0  0  0  0  0
  1  2  1  0
  2  3  2  0
  2  4  1  0
  4  5  1  0
  5  6  1  0
  6  7  2  0
  6  8  1  0
  8  9  2  3
  9 10  1  0
 10 11  2  0
 11 12  1  0
 12 13  2  0
 13 14  1  0
 13 15  1  0
 15 16  1  0
 15 17  2  0
  8 18  1  0
 18 19  1  0
 19 20  2  0
 20 21  1  0
 21 22  2  0
 22 23  1  0
 23 24  2  0
 24  5  1  0
 17 10  1  0
 24 19  1  0
  1 25  1  0
  1 26  1  0
  1 27  1  0
  4 28  1  0
  4 29  1  0
  9 30  1  0
 11 31  1  0
 12 32  1  0
 14 33  1  0
 14 34  1  0
 14 35  1  0
 16 36  1  0
 16 37  1  0
 16 38  1  0
 17 39  1  0
 20 40  1  0
 21 41  1  0
 22 42  1  0
 23 43  1  0
M  END
>  <UniqueID>  (44) 
40

>  <SMILES>  (44) 
CC(=O)CN1C(=O)C(=Cc2ccc(C)c(C)c2)Oc2ccccc21

>  <Energy>  (44) 
50.82007363134937

>  <Genealogy>  (44) 
CC(=O)CN1C(=O)C(=Cc2ccc(C)c(C)c2)Oc2ccccc21 (3D coordinates assigned)
CC(=O)CN1C(=O)C(=Cc2ccc(C)c(C)c2)Oc2ccccc21 (nonaromatic ring conformer: 50.82007363134937 kcal/mol)

>  <smiles>  (44) 
CC(=O)CN1C(=O)C(=Cc2ccc(C)c(C)c2)Oc2ccccc21

>  <score_type>  (44) 
oracle

>  <origin>  (44) 
adg

>  <m_score__min__energy>  (44) 
-7.8200000000000003

>  <m_primary>  (44) 
energy

$$$$
44:0
     RDKit          3D

 27 29  0  0  0  0  0  0  0  0999 V2000
   54.1010   21.1190   46.5420 C   0  0  0  0  0  0  0  0  0  0  0  0
   53.6020   22.2650   46.0720 C   0  0  0  0  0  0  0  0  0  0  0  0
   52.5190   22.2840   45.2700 N   0  0  0  0  0  0  0  0  0  0  0  0
   52.4390   23.5690   44.8750 C   0  0  0  0  0  0  0  0  0  0  0  0
   51.5430   23.9850   44.0960 O   0  0  0  0  0  0  0  0  0  0  0  0
   53.3980   24.3710   45.3740 N   0  0  0  0  0  0  0  0  0  0  0  0
   54.1300   23.5570   46.1610 C   0  0  0  0  0  0  0  0  0  0  0  0
   55.1620   24.0320   46.8820 C   0  0  0  0  0  0  0  0  0  0  0  0
   56.0610   25.1250   46.4800 C   0  0  0  0  0  0  0  0  0  0  0  0
   55.6420   26.3120   45.9960 N   0  0  0  0  0  0  0  0  0  0  0  0
   56.7620   26.9740   45.6300 C   0  0  0  0  0  0  0  0  0  0  0  0
   56.7430   28.3310   45.0620 C   0  0  0  0  0  0  0  0  0  0  0  0
   57.8050   28.9430   44.4210 C   0  0  0  0  0  0  0  0  0  0  0  0
   57.3610   30.1950   44.0470 C   0  0  0  0  0  0  0  0  0  0  0  0
   56.0520   30.2940   44.4730 C   0  0  0  0  0  0  0  0  0  0  0  0
   55.6800   29.1580   45.0900 N   0  0  0  0  0  0  0  0  0  0  0  0
   57.8950   26.2070   45.8480 C   0  0  0  0  0  0  0  0  0  0  0  0
   57.4300   25.0270   46.3730 C   0  0  0  0  0  0  0  0  0  0  0  0
   58.2070   23.9300   46.7260 O   0  0  0  0  0  0  0  0  0  0  0  0
   54.9861   21.1313   47.1950 H   0  0  0  0  0  0  0  0  0  0  0  0
   53.6269   20.1627   46.2762 H   0  0  0  0  0  0  0  0  0  0  0  0
   55.3501   23.5615   47.8583 H   0  0  0  0  0  0  0  0  0  0  0  0
   58.8037   28.5170   44.2446 H   0  0  0  0  0  0  0  0  0  0  0  0
   57.9381   30.9644   43.5132 H   0  0  0  0  0  0  0  0  0  0  0  0
   55.4071   31.1734   44.3290 H   0  0  0  0  0  0  0  0  0  0  0  0
   54.7410   28.9670   45.5060 H   0  0  0  0  0  0  0  0  0  0  0  0
   58.9401   26.4835   45.6446 H   0  0  0  0  0  0  0  0  0  0  0  0
  1  2  2  0
  2  3  1  0
  3  4  1  0
  4  5  2  0
  4  6  1  0
  6  7  1  0
  7  8  2  3
  8  9  1  0
  9 10  1  0
 10 11  1  0
 11 12  1  0
 12 13  2  0
 13 14  1  0
 14 15  2  0
 15 16  1  0
 11 17  2  0
 17 18  1  0
 18 19  1  0
  7  2  1  0
 18  9  2  0
 16 12  1  0
  1 20  1  0
  1 21  1  0
  8 22  1  0
 13 23  1  0
 14 24  1  0
 15 25  1  0
 16 26  1  0
 17 27  1  0
M  CHG  4   3  -1   6  -1  10  -1  19  -1
M  END
>  <UniqueID>  (45) 
41

>  <SMILES>  (45) 
C=c1[n-]c(=O)[n-]c1=Cc1[n-]c(-c2ccc[nH]2)cc1[O-]

>  <Energy>  (45) 
119.95661754373128

>  <Genealogy>  (45) 
C=c1[n-]c(=O)[n-]c1=Cc1[n-]c(-c2ccc[nH]2)cc1[O-] (protonated)
C=c1[n-]c(=O)[n-]c1=Cc1[n-]c(-c2ccc[nH]2)cc1[O-] (3D coordinates assigned)
C=c1[n-]c(=O)[n-]c1=Cc1[n-]c(-c2ccc[nH]2)cc1[O-] (optimized conformer: 119.95661754373128 kcal/mol)

>  <smiles>  (45) 
C=c1[nH]c(=O)[nH]c1=Cc1[nH]c(-c2ccc[nH]2)cc1O

>  <score_type>  (45) 
oracle

>  <origin>  (45) 
adg

>  <m_score__min__energy>  (45) 
-14.390000000000001

>  <m_primary>  (45) 
energy

$$$$
45:0
     RDKit          3D

 29 30  0  0  0  0  0  0  0  0999 V2000
   60.6539   30.8661   45.6345 H   0  0  0  0  0  0  0  0  0  0  0  0
   60.4870   30.0990   46.4050 C   0  0  0  0  0  0  0  0  0  0  0  0
   60.3870   28.7760   46.1740 N   0  0  0  0  0  0  0  0  0  0  0  0
   60.1870   28.1840   47.3410 N   0  0  0  0  0  0  0  0  0  0  0  0
   60.0670   26.7380   47.5120 C   0  0  0  0  0  0  0  0  0  0  0  0
   60.1469   26.4930   48.5814 H   0  0  0  0  0  0  0  0  0  0  0  0
   60.8728   26.2469   46.9468 H   0  0  0  0  0  0  0  0  0  0  0  0
   58.7130   26.2380   46.9790 C   0  0  1  0  0  0  0  0  0  0  0  0
   58.1895   25.7643   47.8226 H   0  0  0  0  0  0  0  0  0  0  0  0
   57.8770   27.3470   46.5020 N   0  0  0  0  0  0  0  0  0  0  0  0
   58.3080   28.2980   46.4980 H   0  0  0  0  0  0  0  0  0  0  0  0
   56.5220   27.2050   46.0360 C   0  0  0  0  0  0  0  0  0  0  0  0
   55.8470   26.1920   46.3540 O   0  0  0  0  0  0  0  0  0  0  0  0
   55.8940   28.2290   45.2500 N   0  0  0  0  0  0  0  0  0  0  0  0
   56.4420   29.3440   44.8670 C   0  0  0  0  0  0  0  0  0  0  0  0
   57.2850   30.0800   45.6230 N   0  0  0  0  0  0  0  0  0  0  0  0
   57.7410   31.1680   44.9480 C   0  0  0  0  0  0  0  0  0  0  0  0
   58.4348   31.8940   45.3970 H   0  0  0  0  0  0  0  0  0  0  0  0
   57.2650   31.2950   43.6470 C   0  0  0  0  0  0  0  0  0  0  0  0
   57.5145   32.1040   42.9446 H   0  0  0  0  0  0  0  0  0  0  0  0
   56.2410   29.9960   43.3340 S   0  0  0  0  0  0  0  0  0  0  0  0
   58.8930   25.1770   45.8890 C   0  0  0  0  0  0  0  0  0  0  0  0
   59.0595   24.1954   46.3567 H   0  0  0  0  0  0  0  0  0  0  0  0
   57.9889   25.1366   45.2638 H   0  0  0  0  0  0  0  0  0  0  0  0
   59.7599   25.4370   45.2638 H   0  0  0  0  0  0  0  0  0  0  0  0
   60.1610   29.1030   48.3230 C   0  0  0  0  0  0  0  0  0  0  0  0
   60.0155   28.8978   49.3939 H   0  0  0  0  0  0  0  0  0  0  0  0
   60.3480   30.3460   47.7570 C   0  0  0  0  0  0  0  0  0  0  0  0
   60.3795   31.3192   48.2687 H   0  0  0  0  0  0  0  0  0  0  0  0
  1  2  1  0
  2  3  2  0
  3  4  1  0
  4  5  1  0
  5  6  1  0
  5  7  1  0
  5  8  1  0
  8  9  1  1
  8 10  1  0
 10 11  1  0
 10 12  1  0
 12 13  2  0
 12 14  1  0
 14 15  2  0
 15 16  1  0
 16 17  1  0
 17 18  1  0
 17 19  2  0
 19 20  1  0
 19 21  1  0
  8 22  1  0
 22 23  1  0
 22 24  1  0
 22 25  1  0
  4 26  1  0
 26 27  1  0
 26 28  2  0
 28 29  1  0
 28  2  1  0
 21 15  1  0
M  CHG  1  16  -1
M  END
>  <UniqueID>  (46) 
42

>  <SMILES>  (46) 
C[C@@H](Cn1cccn1)NC(=O)/N=c1\[n-]ccs1

>  <Energy>  (46) 
85.3936906987898

>  <Genealogy>  (46) 
CC(Cn1cccn1)NC(=O)N=c1[n-]ccs1 (protonated)
C[C@@H](Cn1cccn1)NC(=O)N=c1[n-]ccs1 (chirality)
C[C@@H](Cn1cccn1)NC(=O)/N=c1\[n-]ccs1 (cis-trans isomerization)
C[C@@H](Cn1cccn1)NC(=O)/N=c1\[n-]ccs1 (3D coordinates assigned)
C[C@@H](Cn1cccn1)NC(=O)/N=c1\[n-]ccs1 (optimized conformer: 85.3936906987898 kcal/mol)

>  <smiles>  (46) 
CC(Cn1cccn1)NC(=O)N=c1[nH]ccs1

>  <score_type>  (46) 
oracle

>  <origin>  (46) 
adg

>  <m_score__min__energy>  (46) 
-6.5099999999999998

>  <m_primary>  (46) 
energy

$$$$
46:0
     RDKit          3D

 44 47  0  0  0  0  0  0  0  0999 V2000
   62.6680   33.1840   47.0340 C   0  0  0  0  0  0  0  0  0  0  0  0
   63.1340   33.1880   48.4570 C   0  0  0  0  0  0  0  0  0  0  0  0
   64.4900   33.0870   48.7900 C   0  0  0  0  0  0  0  0  0  0  0  0
   64.6670   33.1290   50.4670 S   0  0  0  0  0  0  0  0  0  0  0  0
   63.0290   33.2730   50.7750 C   0  0  0  0  0  0  0  0  0  0  0  0
   62.4450   33.3650   51.9920 N   0  0  0  0  0  0  0  0  0  0  0  0
   61.0930   33.4810   52.0670 C   0  0  0  0  0  0  0  0  0  0  0  0
   60.3370   33.5020   50.9300 N   0  0  0  0  0  0  0  0  0  0  0  0
   60.9050   33.4080   49.6890 C   0  0  0  0  0  0  0  0  0  0  0  0
   60.0630   33.4310   48.5280 N   0  0  0  0  0  0  0  0  0  0  0  0
   59.9310   34.7000   47.8000 C   0  0  0  0  0  0  0  0  0  0  0  0
   59.5740   34.4860   46.3140 C   0  0  0  0  0  0  0  0  0  0  0  0
   58.9080   33.1190   46.0240 C   0  0  0  0  0  0  0  0  0  0  0  0
   58.0360   33.1680   44.7890 C   0  0  0  0  0  0  0  0  0  0  0  0
   57.3940   34.2180   44.5200 O   0  0  0  0  0  0  0  0  0  0  0  0
   57.7690   31.9820   44.0250 N   0  0  0  0  0  0  0  0  0  0  0  0
   57.2000   30.8820   44.4380 C   0  0  0  0  0  0  0  0  0  0  0  0
   57.8430   29.9650   45.2940 C   0  0  0  0  0  0  0  0  0  0  0  0
   57.1720   28.8060   45.6900 C   0  0  0  0  0  0  0  0  0  0  0  0
   55.9150   28.5570   45.2400 N   0  0  0  0  0  0  0  0  0  0  0  0
   55.2780   29.4110   44.3980 C   0  0  0  0  0  0  0  0  0  0  0  0
   55.9110   30.5830   43.9760 C   0  0  0  0  0  0  0  0  0  0  0  0
   58.0890   32.6430   47.2310 C   0  0  0  0  0  0  0  0  0  0  0  0
   59.0130   32.4080   48.4340 C   0  0  0  0  0  0  0  0  0  0  0  0
   62.3040   33.2920   49.5960 C   0  0  0  0  0  0  0  0  0  0  0  0
   61.5683   33.1746   47.0083 H   0  0  0  0  0  0  0  0  0  0  0  0
   63.0389   34.0854   46.5242 H   0  0  0  0  0  0  0  0  0  0  0  0
   63.0544   32.2891   46.5242 H   0  0  0  0  0  0  0  0  0  0  0  0
   65.3146   32.9943   48.0679 H   0  0  0  0  0  0  0  0  0  0  0  0
   60.6047   33.5584   53.0496 H   0  0  0  0  0  0  0  0  0  0  0  0
   59.2990   33.5930   51.0170 H   0  0  0  0  0  0  0  0  0  0  0  0
   59.1378   35.2983   48.2721 H   0  0  0  0  0  0  0  0  0  0  0  0
   60.9015   35.2161   47.8429 H   0  0  0  0  0  0  0  0  0  0  0  0
   58.8808   35.2823   46.0053 H   0  0  0  0  0  0  0  0  0  0  0  0
   60.5183   34.5093   45.7502 H   0  0  0  0  0  0  0  0  0  0  0  0
   59.7177   32.3984   45.8364 H   0  0  0  0  0  0  0  0  0  0  0  0
   58.8660   30.1609   45.6476 H   0  0  0  0  0  0  0  0  0  0  0  0
   57.6630   28.0927   46.3683 H   0  0  0  0  0  0  0  0  0  0  0  0
   54.2614   29.1796   44.0474 H   0  0  0  0  0  0  0  0  0  0  0  0
   55.3997   31.2683   43.2839 H   0  0  0  0  0  0  0  0  0  0  0  0
   57.3426   33.4086   47.4893 H   0  0  0  0  0  0  0  0  0  0  0  0
   57.5837   31.7001   46.9747 H   0  0  0  0  0  0  0  0  0  0  0  0
   58.4110   32.4311   49.3543 H   0  0  0  0  0  0  0  0  0  0  0  0
   59.5007   31.4308   48.3027 H   0  0  0  0  0  0  0  0  0  0  0  0
  1  2  1  0
  2  3  2  0
  3  4  1  0
  4  5  1  0
  5  6  2  0
  6  7  1  0
  7  8  2  0
  8  9  1  0
  9 10  1  0
 10 11  1  0
 11 12  1  0
 12 13  1  0
 13 14  1  0
 14 15  2  0
 14 16  1  0
 16 17  2  3
 17 18  1  0
 18 19  2  0
 19 20  1  0
 20 21  1  0
 21 22  2  0
 13 23  1  0
 23 24  1  0
  9 25  2  0
 25  2  1  0
 25  5  1  0
 24 10  1  0
 22 17  1  0
  1 26  1  0
  1 27  1  0
  1 28  1  0
  3 29  1  0
  7 30  1  0
  8 31  1  0
 11 32  1  0
 11 33  1  0
 12 34  1  0
 12 35  1  0
 13 36  1  0
 18 37  1  0
 19 38  1  0
 21 39  1  0
 22 40  1  0
 23 41  1  0
 23 42  1  0
 24 43  1  0
 24 44  1  0
M  CHG  2   8   1  20  -1
M  END
>  <UniqueID>  (47) 
43

>  <SMILES>  (47) 
Cc1csc2nc[nH+]c(N3CCC(C(=O)N=c4cc[n-]cc4)CC3)c12

>  <Energy>  (47) 
97.56305893461995

>  <Genealogy>  (47) 
Cc1csc2nc[nH+]c(N3CCC(C(=O)N=c4cc[n-]cc4)CC3)c12 (protonated)
Cc1csc2nc[nH+]c(N3CCC(C(=O)N=c4cc[n-]cc4)CC3)c12 (3D coordinates assigned)
Cc1csc2nc[nH+]c(N3CCC(C(=O)N=c4cc[n-]cc4)CC3)c12 (nonaromatic ring conformer: 97.56305893461995 kcal/mol)

>  <smiles>  (47) 
Cc1csc2ncnc(N3CCC(C(=O)N=c4cc[nH]cc4)CC3)c12

>  <score_type>  (47) 
oracle

>  <origin>  (47) 
adg

>  <m_score__min__energy>  (47) 
-8.5299999999999994

>  <m_primary>  (47) 
energy

$$$$
47:0
     RDKit          3D

 50 51  0  0  0  0  0  0  0  0999 V2000
   56.6040   21.8290   42.9260 C   0  0  0  0  0  0  0  0  0  0  0  0
   56.6560   23.2270   43.5370 C   0  0  0  0  0  0  0  0  0  0  0  0
   55.6560   23.3530   44.6190 N   0  0  0  0  0  0  0  0  0  0  0  0
   54.3080   23.7040   44.1070 C   0  0  0  0  0  0  0  0  0  0  0  0
   53.3040   24.1130   45.1950 C   0  0  0  0  0  0  0  0  0  0  0  0
   56.1250   24.2350   45.7130 C   0  0  0  0  0  0  0  0  0  0  0  0
   57.3310   25.0920   45.2730 C   0  0  0  0  0  0  0  0  0  0  0  0
   57.7340   26.1210   46.3420 C   0  0  0  0  0  0  0  0  0  0  0  0
   58.5290   27.2920   45.7490 C   0  0  0  0  0  0  0  0  0  0  0  0
   57.6370   28.3040   45.1800 N   0  0  0  0  0  0  0  0  0  0  0  0
   56.2880   28.2840   45.1750 C   0  0  0  0  0  0  0  0  0  0  0  0
   55.5240   27.2920   45.7790 O   0  0  0  0  0  0  0  0  0  0  0  0
   55.7720   29.3670   44.4900 C   0  0  0  0  0  0  0  0  0  0  0  0
   56.8720   30.0660   44.0320 C   0  0  0  0  0  0  0  0  0  0  0  0
   56.8080   31.2410   43.2150 N   0  0  0  0  0  0  0  0  0  0  0  0
   57.7550   32.3170   43.2290 C   0  0  0  0  0  0  0  0  0  0  0  0
   58.3430   32.6150   42.1550 O   0  0  0  0  0  0  0  0  0  0  0  0
   58.0910   33.0570   44.4700 C   0  0  0  0  0  0  0  0  0  0  0  0
   59.1170   34.0190   44.4580 C   0  0  0  0  0  0  0  0  0  0  0  0
   59.4380   34.7240   45.6220 C   0  0  0  0  0  0  0  0  0  0  0  0
   58.7490   34.4670   46.8100 C   0  0  0  0  0  0  0  0  0  0  0  0
   57.7420   33.5000   46.8380 C   0  0  0  0  0  0  0  0  0  0  0  0
   57.4140   32.7950   45.6750 C   0  0  0  0  0  0  0  0  0  0  0  0
   58.0030   29.4050   44.4910 C   0  0  0  0  0  0  0  0  0  0  0  0
   59.3280   29.8010   44.3230 O   0  0  0  0  0  0  0  0  0  0  0  0
   56.5761   21.0784   43.7296 H   0  0  0  0  0  0  0  0  0  0  0  0
   55.7017   21.7340   42.3040 H   0  0  0  0  0  0  0  0  0  0  0  0
   57.4967   21.6672   42.3040 H   0  0  0  0  0  0  0  0  0  0  0  0
   57.6603   23.4057   43.9487 H   0  0  0  0  0  0  0  0  0  0  0  0
   56.4315   23.9673   42.7550 H   0  0  0  0  0  0  0  0  0  0  0  0
   54.4146   24.5432   43.4039 H   0  0  0  0  0  0  0  0  0  0  0  0
   53.9056   22.7966   43.6329 H   0  0  0  0  0  0  0  0  0  0  0  0
   53.7447   23.9335   46.1868 H   0  0  0  0  0  0  0  0  0  0  0  0
   53.0630   25.1810   45.0887 H   0  0  0  0  0  0  0  0  0  0  0  0
   52.3853   23.5174   45.0887 H   0  0  0  0  0  0  0  0  0  0  0  0
   55.3028   24.9020   46.0114 H   0  0  0  0  0  0  0  0  0  0  0  0
   56.4414   23.6014   46.5547 H   0  0  0  0  0  0  0  0  0  0  0  0
   58.1863   24.4275   45.0808 H   0  0  0  0  0  0  0  0  0  0  0  0
   57.0404   25.6433   44.3666 H   0  0  0  0  0  0  0  0  0  0  0  0
   56.8228   26.5152   46.8155 H   0  0  0  0  0  0  0  0  0  0  0  0
   58.3779   25.6123   47.0745 H   0  0  0  0  0  0  0  0  0  0  0  0
   59.1344   27.7532   46.5432 H   0  0  0  0  0  0  0  0  0  0  0  0
   59.1728   26.9043   44.9458 H   0  0  0  0  0  0  0  0  0  0  0  0
   54.7117   29.6190   44.3411 H   0  0  0  0  0  0  0  0  0  0  0  0
   59.6698   34.2178   43.5280 H   0  0  0  0  0  0  0  0  0  0  0  0
   60.2345   35.4824   45.6024 H   0  0  0  0  0  0  0  0  0  0  0  0
   58.9998   35.0264   47.7233 H   0  0  0  0  0  0  0  0  0  0  0  0
   57.2059   33.2923   47.7758 H   0  0  0  0  0  0  0  0  0  0  0  0
   56.6225   32.0317   45.7029 H   0  0  0  0  0  0  0  0  0  0  0  0
   59.6470   30.2640   43.4830 H   0  0  0  0  0  0  0  0  0  0  0  0
  1  2  1  0
  2  3  1  0
  3  4  1  0
  4  5  1  0
  3  6  1  0
  6  7  1  0
  7  8  1  0
  8  9  1  0
  9 10  1  0
 10 11  1  0
 11 12  1  0
 11 13  2  0
 13 14  1  0
 14 15  1  0
 15 16  1  0
 16 17  2  0
 16 18  1  0
 18 19  2  0
 19 20  1  0
 20 21  2  0
 21 22  1  0
 22 23  2  0
 14 24  2  0
 24 25  1  0
 24 10  1  0
 23 18  1  0
  1 26  1  0
  1 27  1  0
  1 28  1  0
  2 29  1  0
  2 30  1  0
  4 31  1  0
  4 32  1  0
  5 33  1  0
  5 34  1  0
  5 35  1  0
  6 36  1  0
  6 37  1  0
  7 38  1  0
  7 39  1  0
  8 40  1  0
  8 41  1  0
  9 42  1  0
  9 43  1  0
 13 44  1  0
 19 45  1  0
 20 46  1  0
 21 47  1  0
 22 48  1  0
 23 49  1  0
 25 50  1  0
M  CHG  2  12  -1  15  -1
M  END
>  <UniqueID>  (48) 
44

>  <SMILES>  (48) 
CCN(CC)CCCCn1c([O-])cc([N-]C(=O)c2ccccc2)c1O

>  <Energy>  (48) 
80.97090983494962

>  <Genealogy>  (48) 
CCN(CC)CCCCn1c([O-])cc([N-]C(=O)c2ccccc2)c1O (protonated)
CCN(CC)CCCCn1c([O-])cc([N-]C(=O)c2ccccc2)c1O (3D coordinates assigned)
CCN(CC)CCCCn1c([O-])cc([N-]C(=O)c2ccccc2)c1O (optimized conformer: 80.97090983494962 kcal/mol)

>  <smiles>  (48) 
CCN(CC)CCCCn1c(O)cc(NC(=O)c2ccccc2)c1O

>  <score_type>  (48) 
oracle

>  <origin>  (48) 
adg

>  <m_score__min__energy>  (48) 
-10.73

>  <m_primary>  (48) 
energy

$$$$
48:0
     RDKit          3D

 31 32  0  0  0  0  0  0  0  0999 V2000
   55.3450   24.0790   44.8110 C   0  0  0  0  0  0  0  0  0  0  0  0
   56.4320   24.8650   45.2470 O   0  0  0  0  0  0  0  0  0  0  0  0
   55.9670   25.9370   46.0480 C   0  0  2  0  0  0  0  0  0  0  0  0
   54.5690   26.0620   45.9550 O   0  0  0  0  0  0  0  0  0  0  0  0
   56.6300   27.2080   45.5880 C   0  0  0  0  0  0  0  0  0  0  0  0
   58.0200   27.2630   45.4110 C   0  0  0  0  0  0  0  0  0  0  0  0
   58.6070   28.4400   44.9430 C   0  0  0  0  0  0  0  0  0  0  0  0
   57.8140   29.5570   44.6570 C   0  0  0  0  0  0  0  0  0  0  0  0
   58.4350   30.7560   44.1630 N   0  0  0  0  0  0  0  0  0  0  0  0
   58.4670   32.0040   44.8770 C   0  0  0  0  0  0  0  0  0  0  0  0
   58.8800   32.0700   46.2220 C   0  0  0  0  0  0  0  0  0  0  0  0
   58.9250   33.3000   46.8860 C   0  0  0  0  0  0  0  0  0  0  0  0
   58.5710   34.4730   46.2140 C   0  0  0  0  0  0  0  0  0  0  0  0
   58.1780   34.4180   44.8740 C   0  0  0  0  0  0  0  0  0  0  0  0
   58.1330   33.1910   44.2070 C   0  0  0  0  0  0  0  0  0  0  0  0
   56.4180   29.4460   44.7970 C   0  0  0  0  0  0  0  0  0  0  0  0
   55.6600   30.4010   44.4810 O   0  0  0  0  0  0  0  0  0  0  0  0
   55.8710   28.2880   45.2560 N   0  0  0  0  0  0  0  0  0  0  0  0
   54.8026   23.6868   45.6840 H   0  0  0  0  0  0  0  0  0  0  0  0
   54.6660   24.6964   44.2045 H   0  0  0  0  0  0  0  0  0  0  0  0
   55.7186   23.2408   44.2045 H   0  0  0  0  0  0  0  0  0  0  0  0
   56.2199   25.7390   47.1001 H   0  0  0  0  0  0  0  0  0  0  0  0
   54.3760   26.7130   45.2300 H   0  0  0  0  0  0  0  0  0  0  0  0
   58.6430   26.3856   45.6391 H   0  0  0  0  0  0  0  0  0  0  0  0
   59.6964   28.4896   44.7986 H   0  0  0  0  0  0  0  0  0  0  0  0
   58.9540   30.6950   43.2580 H   0  0  0  0  0  0  0  0  0  0  0  0
   59.1683   31.1504   46.7523 H   0  0  0  0  0  0  0  0  0  0  0  0
   59.2396   33.3442   47.9391 H   0  0  0  0  0  0  0  0  0  0  0  0
   58.6017   35.4389   46.7394 H   0  0  0  0  0  0  0  0  0  0  0  0
   57.9037   35.3419   44.3437 H   0  0  0  0  0  0  0  0  0  0  0  0
   57.8336   33.1552   43.1491 H   0  0  0  0  0  0  0  0  0  0  0  0
  1  2  1  0
  2  3  1  0
  3  4  1  0
  3  5  1  0
  5  6  2  0
  6  7  1  0
  7  8  2  0
  8  9  1  0
  9 10  1  0
 10 11  2  0
 11 12  1  0
 12 13  2  0
 13 14  1  0
 14 15  2  0
  8 16  1  0
 16 17  2  0
 16 18  1  0
 18  5  1  0
 15 10  1  0
  1 19  1  0
  1 20  1  0
  1 21  1  0
  3 22  1  1
  4 23  1  0
  6 24  1  0
  7 25  1  0
  9 26  1  0
 11 27  1  0
 12 28  1  0
 13 29  1  0
 14 30  1  0
 15 31  1  0
M  CHG  1  18  -1
M  END
>  <UniqueID>  (49) 
45

>  <SMILES>  (49) 
CO[C@H](O)c1ccc(Nc2ccccc2)c(=O)[n-]1

>  <Energy>  (49) 
41.30261282125824

>  <Genealogy>  (49) 
COC(O)c1ccc(Nc2ccccc2)c(=O)[n-]1 (protonated)
CO[C@H](O)c1ccc(Nc2ccccc2)c(=O)[n-]1 (chirality)
CO[C@H](O)c1ccc(Nc2ccccc2)c(=O)[n-]1 (3D coordinates assigned)
CO[C@H](O)c1ccc(Nc2ccccc2)c(=O)[n-]1 (optimized conformer: 41.30261282125824 kcal/mol)

>  <smiles>  (49) 
COC(O)c1ccc(Nc2ccccc2)c(=O)[nH]1

>  <score_type>  (49) 
oracle

>  <origin>  (49) 
adg

>  <m_score__min__energy>  (49) 
-9.7699999999999996

>  <m_primary>  (49) 
energy

$$$$
49:0
     RDKit          3D

 40 44  0  0  0  0  0  0  0  0999 V2000
   55.5280   27.8430   45.2480 O   0  0  0  0  0  0  0  0  0  0  0  0
   56.6340   28.6340   45.5330 C   0  0  0  0  0  0  0  0  0  0  0  0
   56.8040   29.8580   44.8850 C   0  0  0  0  0  0  0  0  0  0  0  0
   57.9180   30.6530   45.1690 C   0  0  0  0  0  0  0  0  0  0  0  0
   58.9190   30.2090   46.0610 C   0  0  0  0  0  0  0  0  0  0  0  0
   60.0850   31.1160   46.4630 C   0  0  1  0  0  0  0  0  0  0  0  0
   59.8320   32.6110   46.4950 C   0  0  0  0  0  0  0  0  0  0  0  0
   58.5480   33.1430   46.7350 C   0  0  0  0  0  0  0  0  0  0  0  0
   58.3380   34.5220   46.7170 C   0  0  0  0  0  0  0  0  0  0  0  0
   59.4080   35.3900   46.5030 C   0  0  0  0  0  0  0  0  0  0  0  0
   60.7010   34.8840   46.3630 C   0  0  0  0  0  0  0  0  0  0  0  0
   60.9380   33.5040   46.4180 C   0  0  0  0  0  0  0  0  0  0  0  0
   62.3130   33.0610   46.4490 N   0  0  0  0  0  0  0  0  0  0  0  0
   62.8200   32.0760   47.1420 C   0  0  0  0  0  0  0  0  0  0  0  0
   62.0180   31.2620   48.0120 N   0  0  0  0  0  0  0  0  0  0  0  0
   60.7640   30.8100   47.7650 C   0  0  0  0  0  0  0  0  0  0  0  0
   60.1730   30.2910   48.8730 N   0  0  0  0  0  0  0  0  0  0  0  0
   61.1310   30.3570   49.8160 C   0  0  0  0  0  0  0  0  0  0  0  0
   61.0460   29.9880   51.1560 C   0  0  0  0  0  0  0  0  0  0  0  0
   62.1680   30.2270   51.9710 C   0  0  0  0  0  0  0  0  0  0  0  0
   63.3260   30.8390   51.4370 C   0  0  0  0  0  0  0  0  0  0  0  0
   63.3730   31.2160   50.0820 C   0  0  0  0  0  0  0  0  0  0  0  0
   62.2530   30.9420   49.2960 C   0  0  0  0  0  0  0  0  0  0  0  0
   58.6790   29.0100   46.7700 C   0  0  0  0  0  0  0  0  0  0  0  0
   57.5660   28.2170   46.4850 C   0  0  0  0  0  0  0  0  0  0  0  0
   56.0601   30.1978   44.1494 H   0  0  0  0  0  0  0  0  0  0  0  0
   58.0165   31.6387   44.6909 H   0  0  0  0  0  0  0  0  0  0  0  0
   60.7318   30.8586   45.6113 H   0  0  0  0  0  0  0  0  0  0  0  0
   57.7057   32.4653   46.9379 H   0  0  0  0  0  0  0  0  0  0  0  0
   57.3264   34.9253   46.8719 H   0  0  0  0  0  0  0  0  0  0  0  0
   59.2328   36.4744   46.4445 H   0  0  0  0  0  0  0  0  0  0  0  0
   61.5425   35.5753   46.2079 H   0  0  0  0  0  0  0  0  0  0  0  0
   63.8958   31.8634   47.0563 H   0  0  0  0  0  0  0  0  0  0  0  0
   59.1860   29.9740   48.9960 H   0  0  0  0  0  0  0  0  0  0  0  0
   60.1343   29.5262   51.5629 H   0  0  0  0  0  0  0  0  0  0  0  0
   62.1443   29.9357   53.0315 H   0  0  0  0  0  0  0  0  0  0  0  0
   64.1957   31.0215   52.0853 H   0  0  0  0  0  0  0  0  0  0  0  0
   64.2603   31.7087   49.6579 H   0  0  0  0  0  0  0  0  0  0  0  0
   59.3797   28.6971   47.5581 H   0  0  0  0  0  0  0  0  0  0  0  0
   57.4231   27.2618   47.0115 H   0  0  0  0  0  0  0  0  0  0  0  0
  1  2  1  0
  2  3  2  0
  3  4  1  0
  4  5  2  0
  5  6  1  0
  6  7  1  0
  7  8  2  0
  8  9  1  0
  9 10  2  0
 10 11  1  0
 11 12  2  0
 12 13  1  0
 13 14  2  0
 14 15  1  0
 15 16  1  0
 16 17  2  0
 17 18  1  0
 18 19  2  0
 19 20  1  0
 20 21  2  0
 21 22  1  0
 22 23  2  0
  5 24  1  0
 24 25  2  0
 25  2  1  0
 16  6  1  0
 23 18  1  0
 12  7  1  0
 23 15  1  0
  3 26  1  0
  4 27  1  0
  6 28  1  6
  8 29  1  0
  9 30  1  0
 10 31  1  0
 11 32  1  0
 14 33  1  0
 17 34  1  0
 19 35  1  0
 20 36  1  0
 21 37  1  0
 22 38  1  0
 24 39  1  0
 25 40  1  0
M  CHG  2   1  -1  17   1
M  END
>  <UniqueID>  (50) 
46

>  <SMILES>  (50) 
[O-]c1ccc([C@H]2c3ccccc3N=Cn3c2[nH+]c2ccccc23)cc1

>  <Energy>  (50) 
112.599178128833

>  <Genealogy>  (50) 
[O-]c1ccc(C2c3ccccc3N=Cn3c2[nH+]c2ccccc23)cc1 (protonated)
[O-]c1ccc([C@H]2c3ccccc3N=Cn3c2[nH+]c2ccccc23)cc1 (chirality)
[O-]c1ccc([C@H]2c3ccccc3N=Cn3c2[nH+]c2ccccc23)cc1 (3D coordinates assigned)
[O-]c1ccc([C@H]2c3ccccc3N=Cn3c2[nH+]c2ccccc23)cc1 (nonaromatic ring conformer: 112.599178128833 kcal/mol)

>  <smiles>  (50) 
Oc1ccc(C2c3ccccc3N=Cn3c2nc2ccccc23)cc1

>  <score_type>  (50) 
oracle

>  <origin>  (50) 
adg

>  <m_score__min__energy>  (50) 
-8.8200000000000003

>  <m_primary>  (50) 
energy

$$$$
50:0
     RDKit          3D

 30 31  0  0  0  0  0  0  0  0999 V2000
   55.1460   29.3850   44.8790 N   0  0  0  0  0  0  0  0  0  0  0  0
   56.7290   29.5900   44.2190 S   0  0  0  0  0  0  0  0  0  0  0  0
   56.6490   29.6180   42.7170 O   0  0  0  0  0  0  0  0  0  0  0  0
   57.5970   28.4360   44.6330 O   0  0  0  0  0  0  0  0  0  0  0  0
   57.4210   31.1000   44.8060 C   0  0  0  0  0  0  0  0  0  0  0  0
   57.4230   32.2390   43.9910 C   0  0  0  0  0  0  0  0  0  0  0  0
   57.9830   33.4330   44.4520 C   0  0  0  0  0  0  0  0  0  0  0  0
   58.5310   33.5050   45.7460 C   0  0  0  0  0  0  0  0  0  0  0  0
   59.1440   34.7080   46.2360 N   0  0  0  0  0  0  0  0  0  0  0  0
   59.7570   34.8770   47.3750 C   0  0  0  0  0  0  0  0  0  0  0  0
   61.0450   34.2420   47.7320 C   0  0  0  0  0  0  0  0  0  0  0  0
   61.9380   33.7870   46.7450 C   0  0  0  0  0  0  0  0  0  0  0  0
   63.1600   33.2150   47.1100 C   0  0  0  0  0  0  0  0  0  0  0  0
   63.5130   33.1120   48.4620 C   0  0  0  0  0  0  0  0  0  0  0  0
   64.7280   32.5430   48.8370 O   0  0  0  0  0  0  0  0  0  0  0  0
   62.6420   33.5920   49.4450 C   0  0  0  0  0  0  0  0  0  0  0  0
   61.4180   34.1640   49.0820 C   0  0  0  0  0  0  0  0  0  0  0  0
   58.5650   32.3520   46.5400 C   0  0  0  0  0  0  0  0  0  0  0  0
   58.0060   31.1580   46.0780 C   0  0  0  0  0  0  0  0  0  0  0  0
   55.2200   28.6590   45.6270 H   0  0  0  0  0  0  0  0  0  0  0  0
   56.9820   32.1933   42.9843 H   0  0  0  0  0  0  0  0  0  0  0  0
   57.9956   34.3198   43.8012 H   0  0  0  0  0  0  0  0  0  0  0  0
   59.2852   35.5352   48.1194 H   0  0  0  0  0  0  0  0  0  0  0  0
   61.6735   33.8817   45.6815 H   0  0  0  0  0  0  0  0  0  0  0  0
   63.8462   32.8448   46.3340 H   0  0  0  0  0  0  0  0  0  0  0  0
   65.5890   32.7660   48.3530 H   0  0  0  0  0  0  0  0  0  0  0  0
   62.9201   33.5196   50.5068 H   0  0  0  0  0  0  0  0  0  0  0  0
   60.7446   34.5546   49.8592 H   0  0  0  0  0  0  0  0  0  0  0  0
   59.0349   32.3867   47.5340 H   0  0  0  0  0  0  0  0  0  0  0  0
   58.0251   30.2610   46.7144 H   0  0  0  0  0  0  0  0  0  0  0  0
  1  2  1  0
  2  3  2  0
  2  4  2  0
  2  5  1  0
  5  6  2  0
  6  7  1  0
  7  8  2  0
  8  9  1  0
  9 10  2  3
 10 11  1  0
 11 12  2  0
 12 13  1  0
 13 14  2  0
 14 15  1  0
 14 16  1  0
 16 17  2  0
  8 18  1  0
 18 19  2  0
 19  5  1  0
 17 11  1  0
  1 20  1  0
  6 21  1  0
  7 22  1  0
 10 23  1  0
 12 24  1  0
 13 25  1  0
 15 26  1  0
 16 27  1  0
 17 28  1  0
 18 29  1  0
 19 30  1  0
M  CHG  1   1  -1
M  END
>  <UniqueID>  (51) 
47

>  <SMILES>  (51) 
[NH-]S(=O)(=O)c1ccc(N=Cc2ccc(O)cc2)cc1

>  <Energy>  (51) 
41.09573147649921

>  <Genealogy>  (51) 
[NH-]S(=O)(=O)c1ccc(N=Cc2ccc(O)cc2)cc1 (protonated)
[NH-]S(=O)(=O)c1ccc(N=Cc2ccc(O)cc2)cc1 (3D coordinates assigned)
[NH-]S(=O)(=O)c1ccc(N=Cc2ccc(O)cc2)cc1 (optimized conformer: 41.09573147649921 kcal/mol)

>  <smiles>  (51) 
NS(=O)(=O)c1ccc(N=Cc2ccc(O)cc2)cc1

>  <score_type>  (51) 
oracle

>  <origin>  (51) 
adg

>  <m_score__min__energy>  (51) 
-10.130000000000001

>  <m_primary>  (51) 
energy

$$$$
51:0
     RDKit          3D

 29 30  0  0  0  0  0  0  0  0999 V2000
   58.2020   32.6370   48.7410 O   0  0  0  0  0  0  0  0  0  0  0  0
   58.1930   32.5280   47.4730 C   0  0  0  0  0  0  0  0  0  0  0  0
   57.7680   33.7110   46.7160 C   0  0  0  0  0  0  0  0  0  0  0  0
   58.1300   33.6580   44.9660 S   0  0  0  0  0  0  0  0  0  0  0  0
   57.3960   32.2320   44.2090 C   0  0  0  0  0  0  0  0  0  0  0  0
   56.7010   31.2880   44.8240 N   0  0  0  0  0  0  0  0  0  0  0  0
   56.1370   30.2120   44.2790 C   0  0  0  0  0  0  0  0  0  0  0  0
   55.4890   29.3500   44.9120 O   0  0  0  0  0  0  0  0  0  0  0  0
   56.2970   30.0630   42.8980 C   0  0  0  0  0  0  0  0  0  0  0  0
   57.0190   31.0410   42.2480 C   0  0  0  0  0  0  0  0  0  0  0  0
   57.5620   32.1030   42.8600 N   0  0  0  0  0  0  0  0  0  0  0  0
   58.5880   31.2920   46.9360 N   0  0  0  0  0  0  0  0  0  0  0  0
   59.0070   30.1340   47.6820 C   0  0  0  0  0  0  0  0  0  0  0  0
   59.1730   28.9590   46.7920 C   0  0  0  0  0  0  0  0  0  0  0  0
   59.5460   27.6780   47.1380 C   0  0  0  0  0  0  0  0  0  0  0  0
   59.5630   26.9320   45.9790 C   0  0  0  0  0  0  0  0  0  0  0  0
   59.1890   27.8350   44.9790 C   0  0  0  0  0  0  0  0  0  0  0  0
   58.9690   29.0150   45.5000 O   0  0  0  0  0  0  0  0  0  0  0  0
   56.6801   33.8205   46.8363 H   0  0  0  0  0  0  0  0  0  0  0  0
   58.3397   34.5582   47.1228 H   0  0  0  0  0  0  0  0  0  0  0  0
   55.8677   29.2071   42.3566 H   0  0  0  0  0  0  0  0  0  0  0  0
   57.1580   30.9441   41.1611 H   0  0  0  0  0  0  0  0  0  0  0  0
   58.1040   32.8190   42.3120 H   0  0  0  0  0  0  0  0  0  0  0  0
   58.5670   31.1950   45.8910 H   0  0  0  0  0  0  0  0  0  0  0  0
   59.9667   30.3510   48.1739 H   0  0  0  0  0  0  0  0  0  0  0  0
   58.2345   29.9007   48.4296 H   0  0  0  0  0  0  0  0  0  0  0  0
   59.7853   27.3183   48.1496 H   0  0  0  0  0  0  0  0  0  0  0  0
   59.8140   25.8670   45.8662 H   0  0  0  0  0  0  0  0  0  0  0  0
   59.0937   27.5894   43.9110 H   0  0  0  0  0  0  0  0  0  0  0  0
  1  2  2  0
  2  3  1  0
  3  4  1  0
  4  5  1  0
  5  6  2  0
  6  7  1  0
  7  8  2  0
  7  9  1  0
  9 10  2  0
 10 11  1  0
  2 12  1  0
 12 13  1  0
 13 14  1  0
 14 15  2  0
 15 16  1  0
 16 17  2  0
 17 18  1  0
 11  5  1  0
 18 14  1  0
  3 19  1  0
  3 20  1  0
  9 21  1  0
 10 22  1  0
 11 23  1  0
 12 24  1  0
 13 25  1  0
 13 26  1  0
 15 27  1  0
 16 28  1  0
 17 29  1  0
M  END
>  <smiles>  (52) 
O=C(CSc1nc(=O)cc[nH]1)NCc1ccco1

>  <score_type>  (52) 
oracle

>  <origin>  (52) 
adg

>  <m_score__min__energy>  (52) 
-6.5499999999999998

>  <m_primary>  (52) 
energy

$$$$
52:0
     RDKit          3D

 48 51  0  0  0  0  0  0  0  0999 V2000
   57.3800   33.1630   43.6320 O   0  0  0  0  0  0  0  0  0  0  0  0
   57.6330   32.5230   44.6860 C   0  0  0  0  0  0  0  0  0  0  0  0
   56.7240   31.4990   45.1020 N   0  0  0  0  0  0  0  0  0  0  0  0
   56.5210   29.9640   44.3170 S   0  0  0  0  0  0  0  0  0  0  0  0
   55.0730   29.5650   44.3820 O   0  0  0  0  0  0  0  0  0  0  0  0
   56.9620   30.0580   42.8830 O   0  0  0  0  0  0  0  0  0  0  0  0
   57.5080   28.7450   45.1250 C   0  0  0  0  0  0  0  0  0  0  0  0
   58.9020   28.8980   45.1890 C   0  0  0  0  0  0  0  0  0  0  0  0
   59.6880   27.9320   45.8250 C   0  0  0  0  0  0  0  0  0  0  0  0
   59.0890   26.8080   46.3960 C   0  0  0  0  0  0  0  0  0  0  0  0
   57.7040   26.6430   46.3280 C   0  0  0  0  0  0  0  0  0  0  0  0
   56.9110   27.6050   45.6930 C   0  0  0  0  0  0  0  0  0  0  0  0
   55.5340   27.4190   45.6290 O   0  0  0  0  0  0  0  0  0  0  0  0
   58.8530   32.8560   45.4510 C   0  0  0  0  0  0  0  0  0  0  0  0
   59.6130   31.8330   46.0360 C   0  0  0  0  0  0  0  0  0  0  0  0
   60.7660   32.1400   46.7660 C   0  0  0  0  0  0  0  0  0  0  0  0
   61.1650   33.4700   46.9390 C   0  0  0  0  0  0  0  0  0  0  0  0
   62.3520   33.7380   47.6970 N   0  0  0  0  0  0  0  0  0  0  0  0
   62.5620   33.3800   49.3810 S   0  0  0  0  0  0  0  0  0  0  0  0
   63.8110   32.5610   49.5540 O   0  0  0  0  0  0  0  0  0  0  0  0
   62.6730   34.6570   50.1670 O   0  0  0  0  0  0  0  0  0  0  0  0
   61.1720   32.4720   49.9620 C   0  0  0  0  0  0  0  0  0  0  0  0
   61.0480   31.1090   49.6580 C   0  0  0  0  0  0  0  0  0  0  0  0
   59.9350   30.3850   50.0950 C   0  0  0  0  0  0  0  0  0  0  0  0
   58.9290   31.0190   50.8400 C   0  0  0  0  0  0  0  0  0  0  0  0
   57.8050   30.3030   51.2800 C   0  0  0  0  0  0  0  0  0  0  0  0
   56.8120   30.9480   52.0240 C   0  0  0  0  0  0  0  0  0  0  0  0
   56.9300   32.3060   52.3310 C   0  0  0  0  0  0  0  0  0  0  0  0
   58.0430   33.0310   51.8940 C   0  0  0  0  0  0  0  0  0  0  0  0
   59.0480   32.3970   51.1470 C   0  0  0  0  0  0  0  0  0  0  0  0
   60.1700   33.1140   50.7030 C   0  0  0  0  0  0  0  0  0  0  0  0
   60.3910   34.4980   46.3730 C   0  0  0  0  0  0  0  0  0  0  0  0
   59.2400   34.1920   45.6410 C   0  0  0  0  0  0  0  0  0  0  0  0
   59.3777   29.7809   44.7372 H   0  0  0  0  0  0  0  0  0  0  0  0
   60.7796   28.0581   45.8754 H   0  0  0  0  0  0  0  0  0  0  0  0
   59.7084   26.0515   46.9000 H   0  0  0  0  0  0  0  0  0  0  0  0
   57.2351   25.7540   46.7750 H   0  0  0  0  0  0  0  0  0  0  0  0
   59.3011   30.7845   45.9203 H   0  0  0  0  0  0  0  0  0  0  0  0
   61.3640   31.3292   47.2077 H   0  0  0  0  0  0  0  0  0  0  0  0
   61.8314   30.6062   49.0720 H   0  0  0  0  0  0  0  0  0  0  0  0
   59.8475   29.3153   49.8542 H   0  0  0  0  0  0  0  0  0  0  0  0
   57.7051   29.2343   51.0396 H   0  0  0  0  0  0  0  0  0  0  0  0
   55.9334   30.3833   52.3693 H   0  0  0  0  0  0  0  0  0  0  0  0
   56.1454   32.8060   52.9179 H   0  0  0  0  0  0  0  0  0  0  0  0
   58.1311   34.1004   52.1362 H   0  0  0  0  0  0  0  0  0  0  0  0
   60.2635   34.1846   50.9376 H   0  0  0  0  0  0  0  0  0  0  0  0
   60.6923   35.5475   46.5067 H   0  0  0  0  0  0  0  0  0  0  0  0
   58.6338   35.0031   45.2112 H   0  0  0  0  0  0  0  0  0  0  0  0
  1  2  2  0
  2  3  1  0
  3  4  1  0
  4  5  2  0
  4  6  2  0
  4  7  1  0
  7  8  2  0
  8  9  1  0
  9 10  2  0
 10 11  1  0
 11 12  2  0
 12 13  1  0
  2 14  1  0
 14 15  2  0
 15 16  1  0
 16 17  2  0
 17 18  1  0
 18 19  1  0
 19 20  2  0
 19 21  2  0
 19 22  1  0
 22 23  2  0
 23 24  1  0
 24 25  2  0
 25 26  1  0
 26 27  2  0
 27 28  1  0
 28 29  2  0
 29 30  1  0
 30 31  2  0
 17 32  1  0
 32 33  2  0
 12  7  1  0
 33 14  1  0
 31 22  1  0
 30 25  1  0
  8 34  1  0
  9 35  1  0
 10 36  1  0
 11 37  1  0
 15 38  1  0
 16 39  1  0
 23 40  1  0
 24 41  1  0
 26 42  1  0
 27 43  1  0
 28 44  1  0
 29 45  1  0
 31 46  1  0
 32 47  1  0
 33 48  1  0
M  CHG  3   3  -1  13  -1  18  -1
M  END
>  <UniqueID>  (53) 
48

>  <SMILES>  (53) 
O=C([N-]S(=O)(=O)c1ccccc1[O-])c1ccc([N-]S(=O)(=O)c2ccc3ccccc3c2)cc1

>  <Energy>  (53) 
69.6915748431517

>  <Genealogy>  (53) 
O=C([N-]S(=O)(=O)c1ccccc1[O-])c1ccc([N-]S(=O)(=O)c2ccc3ccccc3c2)cc1 (protonated)
O=C([N-]S(=O)(=O)c1ccccc1[O-])c1ccc([N-]S(=O)(=O)c2ccc3ccccc3c2)cc1 (3D coordinates assigned)
O=C([N-]S(=O)(=O)c1ccccc1[O-])c1ccc([N-]S(=O)(=O)c2ccc3ccccc3c2)cc1 (optimized conformer: 69.6915748431517 kcal/mol)

>  <smiles>  (53) 
O=C(NS(=O)(=O)c1ccccc1O)c1ccc(NS(=O)(=O)c2ccc3ccccc3c2)cc1

>  <score_type>  (53) 
oracle

>  <origin>  (53) 
adg

>  <m_score__min__energy>  (53) 
-16.890000000000001

>  <m_primary>  (53) 
energy

$$$$
53:0
     RDKit          3D

 54 57  0  0  0  0  0  0  0  0999 V2000
   57.0390   29.6560   51.8190 O   0  0  0  0  0  0  0  0  0  0  0  0
   57.9120   30.5380   51.5900 C   0  0  0  0  0  0  0  0  0  0  0  0
   57.8810   31.7720   52.3180 N   0  0  0  0  0  0  0  0  0  0  0  0
   58.1090   33.0770   51.7070 C   0  0  0  0  0  0  0  0  0  0  0  0
   59.5510   33.5320   51.9430 C   0  0  0  0  0  0  0  0  0  0  0  0
   60.3280   33.5170   50.6550 C   0  0  0  0  0  0  0  0  0  0  0  0
   61.6810   33.1380   50.6490 C   0  0  0  0  0  0  0  0  0  0  0  0
   62.4120   33.1510   49.4570 C   0  0  0  0  0  0  0  0  0  0  0  0
   61.8000   33.5520   48.2640 C   0  0  0  0  0  0  0  0  0  0  0  0
   62.7180   33.5680   46.7700 Cl  0  0  0  0  0  0  0  0  0  0  0  0
   60.4570   33.9440   48.2660 C   0  0  0  0  0  0  0  0  0  0  0  0
   59.7240   33.9320   49.4560 C   0  0  0  0  0  0  0  0  0  0  0  0
   58.9590   30.2990   50.5680 C   0  0  0  0  0  0  0  0  0  0  0  0
   60.2000   29.7510   50.9360 C   0  0  0  0  0  0  0  0  0  0  0  0
   61.1900   29.5340   49.9780 C   0  0  0  0  0  0  0  0  0  0  0  0
   60.9570   29.8560   48.6410 C   0  0  0  0  0  0  0  0  0  0  0  0
   59.7190   30.3900   48.2450 C   0  0  0  0  0  0  0  0  0  0  0  0
   59.4630   30.7350   46.8260 C   0  0  0  0  0  0  0  0  0  0  0  0
   60.1730   31.6120   46.2670 O   0  0  0  0  0  0  0  0  0  0  0  0
   58.4620   30.0640   46.0490 N   0  0  0  0  0  0  0  0  0  0  0  0
   58.3740   28.6490   45.8190 C   0  0  0  0  0  0  0  0  0  0  0  0
   59.4840   27.8090   46.0250 C   0  0  0  0  0  0  0  0  0  0  0  0
   59.3760   26.4330   45.8090 C   0  0  0  0  0  0  0  0  0  0  0  0
   58.1620   25.8840   45.3950 C   0  0  0  0  0  0  0  0  0  0  0  0
   57.0490   26.7050   45.2100 C   0  0  0  0  0  0  0  0  0  0  0  0
   57.1410   28.0900   45.4470 C   0  0  0  0  0  0  0  0  0  0  0  0
   56.0100   28.9520   45.2460 N   0  0  0  0  0  0  0  0  0  0  0  0
   55.8080   29.8290   44.1310 C   0  0  0  0  0  0  0  0  0  0  0  0
   54.8510   29.6000   43.3450 O   0  0  0  0  0  0  0  0  0  0  0  0
   56.7190   30.9530   43.8450 C   0  0  0  0  0  0  0  0  0  0  0  0
   57.4200   31.1740   42.6640 C   0  0  0  0  0  0  0  0  0  0  0  0
   58.1760   32.3520   42.6810 C   0  0  0  0  0  0  0  0  0  0  0  0
   58.0660   33.0690   43.8650 C   0  0  0  0  0  0  0  0  0  0  0  0
   57.0250   32.2370   44.8890 S   0  0  0  0  0  0  0  0  0  0  0  0
   58.7300   30.6210   49.2170 C   0  0  0  0  0  0  0  0  0  0  0  0
   57.9232   33.0080   50.6250 H   0  0  0  0  0  0  0  0  0  0  0  0
   57.4250   33.8085   52.1621 H   0  0  0  0  0  0  0  0  0  0  0  0
   59.5457   34.5538   52.3502 H   0  0  0  0  0  0  0  0  0  0  0  0
   60.0290   32.8419   52.6538 H   0  0  0  0  0  0  0  0  0  0  0  0
   62.1674   32.8297   51.5862 H   0  0  0  0  0  0  0  0  0  0  0  0
   63.4688   32.8458   49.4570 H   0  0  0  0  0  0  0  0  0  0  0  0
   59.9769   34.2624   47.3289 H   0  0  0  0  0  0  0  0  0  0  0  0
   58.6705   34.2486   49.4540 H   0  0  0  0  0  0  0  0  0  0  0  0
   60.3918   29.4913   51.9876 H   0  0  0  0  0  0  0  0  0  0  0  0
   62.1584   29.1072   50.2780 H   0  0  0  0  0  0  0  0  0  0  0  0
   61.7463   29.6911   47.8928 H   0  0  0  0  0  0  0  0  0  0  0  0
   60.4409   28.2377   46.3576 H   0  0  0  0  0  0  0  0  0  0  0  0
   60.2487   25.7819   45.9654 H   0  0  0  0  0  0  0  0  0  0  0  0
   58.0821   24.8019   45.2141 H   0  0  0  0  0  0  0  0  0  0  0  0
   56.0956   26.2684   44.8776 H   0  0  0  0  0  0  0  0  0  0  0  0
   57.3839   30.4910   41.8025 H   0  0  0  0  0  0  0  0  0  0  0  0
   58.7990   32.6791   41.8355 H   0  0  0  0  0  0  0  0  0  0  0  0
   58.5729   34.0181   44.0934 H   0  0  0  0  0  0  0  0  0  0  0  0
   57.7659   31.0585   48.9183 H   0  0  0  0  0  0  0  0  0  0  0  0
  1  2  2  0
  2  3  1  0
  3  4  1  0
  4  5  1  0
  5  6  1  0
  6  7  2  0
  7  8  1  0
  8  9  2  0
  9 10  1  0
  9 11  1  0
 11 12  2  0
  2 13  1  0
 13 14  2  0
 14 15  1  0
 15 16  2  0
 16 17  1  0
 17 18  1  0
 18 19  2  0
 18 20  1  0
 20 21  1  0
 21 22  2  0
 22 23  1  0
 23 24  2  0
 24 25  1  0
 25 26  2  0
 26 27  1  0
 27 28  1  0
 28 29  2  0
 28 30  1  0
 30 31  2  0
 31 32  1  0
 32 33  2  0
 33 34  1  0
 17 35  2  0
 12  6  1  0
 35 13  1  0
 26 21  1  0
 34 30  1  0
  4 36  1  0
  4 37  1  0
  5 38  1  0
  5 39  1  0
  7 40  1  0
  8 41  1  0
 11 42  1  0
 12 43  1  0
 14 44  1  0
 15 45  1  0
 16 46  1  0
 22 47  1  0
 23 48  1  0
 24 49  1  0
 25 50  1  0
 31 51  1  0
 32 52  1  0
 33 53  1  0
 35 54  1  0
M  CHG  3   3  -1  20  -1  27  -1
M  END
>  <UniqueID>  (54) 
49

>  <SMILES>  (54) 
O=C([N-]CCc1ccc(Cl)cc1)c1cccc(C(=O)[N-]c2ccccc2[N-]C(=O)c2cccs2)c1

>  <Energy>  (54) 
93.4241351154698

>  <Genealogy>  (54) 
O=C([N-]CCc1ccc(Cl)cc1)c1cccc(C(=O)[N-]c2ccccc2[N-]C(=O)c2cccs2)c1 (protonated)
O=C([N-]CCc1ccc(Cl)cc1)c1cccc(C(=O)[N-]c2ccccc2[N-]C(=O)c2cccs2)c1 (3D coordinates assigned)
O=C([N-]CCc1ccc(Cl)cc1)c1cccc(C(=O)[N-]c2ccccc2[N-]C(=O)c2cccs2)c1 (optimized conformer: 93.4241351154698 kcal/mol)

>  <smiles>  (54) 
O=C(NCCc1ccc(Cl)cc1)c1cccc(C(=O)Nc2ccccc2NC(=O)c2cccs2)c1

>  <score_type>  (54) 
oracle

>  <origin>  (54) 
adg

>  <m_score__min__energy>  (54) 
-16.210000000000001

>  <m_primary>  (54) 
energy

$$$$
54:0
     RDKit          3D

 36 37  0  0  0  0  0  0  0  0999 V2000
   57.1540   34.1890   45.5230 C   0  0  0  0  0  0  0  0  0  0  0  0
   58.4760   33.8570   46.1280 C   0  0  0  0  0  0  0  0  0  0  0  0
   59.7090   34.2450   45.6390 C   0  0  0  0  0  0  0  0  0  0  0  0
   60.6140   33.6350   46.4820 C   0  0  0  0  0  0  0  0  0  0  0  0
   62.1040   33.7560   46.3990 C   0  0  0  0  0  0  0  0  0  0  0  0
   59.9340   32.9300   47.4150 N   0  0  0  0  0  0  0  0  0  0  0  0
   60.4910   32.0920   48.4770 C   0  0  0  0  0  0  0  0  0  0  0  0
   59.7660   30.7410   48.5320 C   0  0  1  0  0  0  0  0  0  0  0  0
   58.5140   30.9000   49.1470 O   0  0  0  0  0  0  0  0  0  0  0  0
   59.5990   30.1850   47.1350 C   0  0  0  0  0  0  0  0  0  0  0  0
   60.6520   29.4960   46.5070 C   0  0  0  0  0  0  0  0  0  0  0  0
   60.4820   28.9640   45.2260 C   0  0  0  0  0  0  0  0  0  0  0  0
   59.2600   29.1050   44.5640 C   0  0  0  0  0  0  0  0  0  0  0  0
   58.1950   29.7700   45.1850 C   0  0  0  0  0  0  0  0  0  0  0  0
   56.6590   29.9520   44.3460 S   0  0  0  0  0  0  0  0  0  0  0  0
   55.5200   28.8150   44.9740 N   0  0  0  0  0  0  0  0  0  0  0  0
   56.1350   31.3480   44.5410 O   0  0  0  0  0  0  0  0  0  0  0  0
   56.8470   29.7090   42.8750 O   0  0  0  0  0  0  0  0  0  0  0  0
   58.3680   30.3110   46.4670 C   0  0  0  0  0  0  0  0  0  0  0  0
   58.6340   33.0470   47.1940 N   0  0  0  0  0  0  0  0  0  0  0  0
   56.4209   34.3731   46.3222 H   0  0  0  0  0  0  0  0  0  0  0  0
   57.2517   35.0905   44.9003 H   0  0  0  0  0  0  0  0  0  0  0  0
   56.8142   33.3483   44.9003 H   0  0  0  0  0  0  0  0  0  0  0  0
   59.9202   34.8923   44.7750 H   0  0  0  0  0  0  0  0  0  0  0  0
   62.5262   33.7903   47.4142 H   0  0  0  0  0  0  0  0  0  0  0  0
   62.5130   32.8881   45.8609 H   0  0  0  0  0  0  0  0  0  0  0  0
   62.3676   34.6785   45.8609 H   0  0  0  0  0  0  0  0  0  0  0  0
   61.5598   31.9214   48.2804 H   0  0  0  0  0  0  0  0  0  0  0  0
   60.3597   32.6055   49.4409 H   0  0  0  0  0  0  0  0  0  0  0  0
   60.3655   30.0321   49.1220 H   0  0  0  0  0  0  0  0  0  0  0  0
   58.1620   31.7810   48.8540 H   0  0  0  0  0  0  0  0  0  0  0  0
   61.6140   29.3753   47.0266 H   0  0  0  0  0  0  0  0  0  0  0  0
   61.3124   28.4329   44.7378 H   0  0  0  0  0  0  0  0  0  0  0  0
   59.1337   28.6926   43.5521 H   0  0  0  0  0  0  0  0  0  0  0  0
   54.6540   29.3480   45.2080 H   0  0  0  0  0  0  0  0  0  0  0  0
   57.5343   30.8381   46.9540 H   0  0  0  0  0  0  0  0  0  0  0  0
  1  2  1  0
  2  3  1  0
  3  4  2  0
  4  5  1  0
  4  6  1  0
  6  7  1  0
  7  8  1  0
  8  9  1  0
  8 10  1  0
 10 11  2  0
 11 12  1  0
 12 13  2  0
 13 14  1  0
 14 15  1  0
 15 16  1  0
 15 17  2  0
 15 18  2  0
 14 19  2  0
  6 20  1  0
 20  2  2  0
 19 10  1  0
  1 21  1  0
  1 22  1  0
  1 23  1  0
  3 24  1  0
  5 25  1  0
  5 26  1  0
  5 27  1  0
  7 28  1  0
  7 29  1  0
  8 30  1  1
  9 31  1  0
 11 32  1  0
 12 33  1  0
 13 34  1  0
 16 35  1  0
 19 36  1  0
M  CHG  1  16  -1
M  END
>  <UniqueID>  (55) 
50

>  <SMILES>  (55) 
Cc1cc(C)n(C[C@@H](O)c2cccc(S([NH-])(=O)=O)c2)n1

>  <Energy>  (55) 
60.699489494612145

>  <Genealogy>  (55) 
Cc1cc(C)n(CC(O)c2cccc(S([NH-])(=O)=O)c2)n1 (protonated)
Cc1cc(C)n(C[C@@H](O)c2cccc(S([NH-])(=O)=O)c2)n1 (chirality)
Cc1cc(C)n(C[C@@H](O)c2cccc(S([NH-])(=O)=O)c2)n1 (3D coordinates assigned)
Cc1cc(C)n(C[C@@H](O)c2cccc(S([NH-])(=O)=O)c2)n1 (optimized conformer: 60.699489494612145 kcal/mol)

>  <smiles>  (55) 
Cc1cc(C)n(CC(O)c2cccc(S(N)(=O)=O)c2)n1

>  <score_type>  (55) 
oracle

>  <origin>  (55) 
adg

>  <m_score__min__energy>  (55) 
-10.09

>  <m_primary>  (55) 
energy

$$$$
55:0
     RDKit          3D

 46 48  0  0  0  0  0  0  0  0999 V2000
   61.4087   32.4906   48.3142 H   0  0  0  0  0  0  0  0  0  0  0  0
   60.9060   31.5130   48.2750 C   0  0  0  0  0  0  0  0  0  0  0  0
   60.0450   31.1290   49.3050 C   0  0  0  0  0  0  0  0  0  0  0  0
   59.8698   31.8043   50.1555 H   0  0  0  0  0  0  0  0  0  0  0  0
   59.4050   29.8860   49.2560 C   0  0  0  0  0  0  0  0  0  0  0  0
   58.7252   29.5899   50.0685 H   0  0  0  0  0  0  0  0  0  0  0  0
   59.6230   29.0150   48.1800 C   0  0  0  0  0  0  0  0  0  0  0  0
   58.9530   27.7810   48.1820 O   0  0  0  0  0  0  0  0  0  0  0  0
   59.4790   26.5470   47.6910 C   0  0  0  0  0  0  0  0  0  0  0  0
   60.2267   26.1647   48.4015 H   0  0  0  0  0  0  0  0  0  0  0  0
   59.9425   26.7250   46.7094 H   0  0  0  0  0  0  0  0  0  0  0  0
   58.3630   25.5110   47.5290 C   0  0  0  0  0  0  0  0  0  0  0  0
   57.7209   25.5292   48.4220 H   0  0  0  0  0  0  0  0  0  0  0  0
   58.8180   24.5171   47.4065 H   0  0  0  0  0  0  0  0  0  0  0  0
   57.5510   25.8060   46.3470 N   0  0  0  0  0  0  0  0  0  0  0  0
   57.4080   26.9580   45.7530 C   0  0  0  0  0  0  0  0  0  0  0  0
   58.5130   27.5700   45.2570 N   0  0  0  0  0  0  0  0  0  0  0  0
   58.4430   28.7700   44.6270 C   0  0  0  0  0  0  0  0  0  0  0  0
   59.4990   29.2940   44.1830 O   0  0  0  0  0  0  0  0  0  0  0  0
   57.2030   29.4120   44.4770 C   0  0  0  0  0  0  0  0  0  0  0  0
   57.0840   30.7320   43.7480 C   0  0  0  0  0  0  0  0  0  0  0  0
   56.0299   30.9075   43.4870 H   0  0  0  0  0  0  0  0  0  0  0  0
   57.6990   30.6915   42.8369 H   0  0  0  0  0  0  0  0  0  0  0  0
   57.5740   31.8610   44.6160 C   0  0  0  0  0  0  0  0  0  0  0  0
   57.8780   33.1100   44.0520 C   0  0  0  0  0  0  0  0  0  0  0  0
   57.7342   33.2719   42.9735 H   0  0  0  0  0  0  0  0  0  0  0  0
   58.3620   34.1490   44.8510 C   0  0  0  0  0  0  0  0  0  0  0  0
   58.5933   35.1250   44.3994 H   0  0  0  0  0  0  0  0  0  0  0  0
   58.5550   33.9520   46.2320 C   0  0  0  0  0  0  0  0  0  0  0  0
   59.0390   34.9630   47.0770 O   0  0  0  0  0  0  0  0  0  0  0  0
   59.6550   34.7300   48.3380 C   0  0  0  0  0  0  0  0  0  0  0  0
   58.9539   34.9952   49.1431 H   0  0  0  0  0  0  0  0  0  0  0  0
   59.9259   33.6673   48.4230 H   0  0  0  0  0  0  0  0  0  0  0  0
   60.5614   35.3474   48.4230 H   0  0  0  0  0  0  0  0  0  0  0  0
   58.2550   32.7050   46.7920 C   0  0  0  0  0  0  0  0  0  0  0  0
   58.4012   32.5413   47.8699 H   0  0  0  0  0  0  0  0  0  0  0  0
   57.7710   31.6660   45.9920 C   0  0  0  0  0  0  0  0  0  0  0  0
   57.5430   30.6893   46.4437 H   0  0  0  0  0  0  0  0  0  0  0  0
   56.0670   28.7610   44.9890 C   0  0  0  0  0  0  0  0  0  0  0  0
   54.8070   29.3390   44.8650 O   0  0  0  0  0  0  0  0  0  0  0  0
   56.1880   27.5580   45.6120 N   0  0  0  0  0  0  0  0  0  0  0  0
   55.3150   27.1130   45.9690 H   0  0  0  0  0  0  0  0  0  0  0  0
   60.4910   29.4120   47.1410 C   0  0  0  0  0  0  0  0  0  0  0  0
   60.6665   28.7419   46.2865 H   0  0  0  0  0  0  0  0  0  0  0  0
   61.1290   30.6560   47.1950 C   0  0  0  0  0  0  0  0  0  0  0  0
   61.8080   30.9599   46.3847 H   0  0  0  0  0  0  0  0  0  0  0  0
  1  2  1  0
  2  3  2  0
  3  4  1  0
  3  5  1  0
  5  6  1  0
  5  7  2  0
  7  8  1  0
  8  9  1  0
  9 10  1  0
  9 11  1  0
  9 12  1  0
 12 13  1  0
 12 14  1  0
 12 15  1  0
 15 16  2  0
 16 17  1  0
 17 18  1  0
 18 19  2  0
 18 20  1  0
 20 21  1  0
 21 22  1  0
 21 23  1  0
 21 24  1  0
 24 25  2  0
 25 26  1  0
 25 27  1  0
 27 28  1  0
 27 29  2  0
 29 30  1  0
 30 31  1  0
 31 32  1  0
 31 33  1  0
 31 34  1  0
 29 35  1  0
 35 36  1  0
 35 37  2  0
 37 38  1  0
 20 39  2  0
 39 40  1  0
 39 41  1  0
 41 42  1  0
  7 43  1  0
 43 44  1  0
 43 45  2  0
 45 46  1  0
 45  2  1  0
 41 16  1  0
 37 24  1  0
M  CHG  2  17  -1  40  -1
M  END
>  <UniqueID>  (56) 
51

>  <SMILES>  (56) 
COc1ccc(Cc2c([O-])[nH]/c(=N\CCOc3ccccc3)[n-]c2=O)cc1

>  <Energy>  (56) 
49.749354610443966

>  <Genealogy>  (56) 
COc1ccc(Cc2c([O-])[nH]c(=NCCOc3ccccc3)[n-]c2=O)cc1 (protonated)
COc1ccc(Cc2c([O-])[nH]/c(=N\CCOc3ccccc3)[n-]c2=O)cc1 (cis-trans isomerization)
COc1ccc(Cc2c([O-])[nH]/c(=N\CCOc3ccccc3)[n-]c2=O)cc1 (3D coordinates assigned)
COc1ccc(Cc2c([O-])[nH]/c(=N\CCOc3ccccc3)[n-]c2=O)cc1 (optimized conformer: 49.749354610443966 kcal/mol)

>  <smiles>  (56) 
COc1ccc(Cc2c(O)[nH]c(=NCCOc3ccccc3)[nH]c2=O)cc1

>  <score_type>  (56) 
oracle

>  <origin>  (56) 
adg

>  <m_score__min__energy>  (56) 
-13.4

>  <m_primary>  (56) 
energy

$$$$
56:0
     RDKit          3D

 47 49  0  0  0  0  0  0  0  0999 V2000
   57.0656   31.0921   42.3759 H   0  0  0  0  0  0  0  0  0  0  0  0
   57.2870   31.5100   43.3690 C   0  0  0  0  0  0  0  0  0  0  0  0
   57.5230   32.8400   43.5150 N   0  0  0  0  0  0  0  0  0  0  0  0
   57.7970   33.3860   44.7320 C   0  0  0  0  0  0  0  0  0  0  0  0
   58.0010   34.6640   44.8670 N   0  0  0  0  0  0  0  0  0  0  0  0
   59.2970   35.2890   45.1440 C   0  0  0  0  0  0  0  0  0  0  0  0
   60.0914   34.6922   44.6721 H   0  0  0  0  0  0  0  0  0  0  0  0
   59.2855   36.3106   44.7362 H   0  0  0  0  0  0  0  0  0  0  0  0
   59.5620   35.3710   46.6540 C   0  0  0  0  0  0  0  0  0  0  0  0
   60.1323   36.2877   46.8645 H   0  0  0  0  0  0  0  0  0  0  0  0
   58.5895   35.3782   47.1680 H   0  0  0  0  0  0  0  0  0  0  0  0
   60.3440   34.1860   47.1590 C   0  0  0  0  0  0  0  0  0  0  0  0
   61.5750   33.8500   46.5710 C   0  0  0  0  0  0  0  0  0  0  0  0
   61.9469   34.4248   45.7100 H   0  0  0  0  0  0  0  0  0  0  0  0
   62.3290   32.7860   47.0780 C   0  0  0  0  0  0  0  0  0  0  0  0
   63.2915   32.5251   46.6137 H   0  0  0  0  0  0  0  0  0  0  0  0
   61.8620   32.0540   48.1730 C   0  0  0  0  0  0  0  0  0  0  0  0
   62.4578   31.2191   48.5705 H   0  0  0  0  0  0  0  0  0  0  0  0
   60.6390   32.3820   48.7630 C   0  0  0  0  0  0  0  0  0  0  0  0
   60.2723   31.8044   49.6243 H   0  0  0  0  0  0  0  0  0  0  0  0
   59.8800   33.4440   48.2600 C   0  0  0  0  0  0  0  0  0  0  0  0
   58.9174   33.6995   48.7270 H   0  0  0  0  0  0  0  0  0  0  0  0
   57.8510   32.5530   45.8520 C   0  0  0  0  0  0  0  0  0  0  0  0
   58.0835   32.9706   46.8427 H   0  0  0  0  0  0  0  0  0  0  0  0
   57.6140   31.2220   45.7080 N   0  0  0  0  0  0  0  0  0  0  0  0
   57.3280   30.6730   44.4960 C   0  0  0  0  0  0  0  0  0  0  0  0
   57.0730   29.2210   44.3840 C   0  0  0  0  0  0  0  0  0  0  0  0
   56.0160   28.7310   44.8680 O   0  0  0  0  0  0  0  0  0  0  0  0
   58.0170   28.3620   43.7280 N   0  0  0  0  0  0  0  0  0  0  0  0
   58.9030   28.7720   43.3540 H   0  0  0  0  0  0  0  0  0  0  0  0
   57.7680   26.9270   43.5830 C   0  0  0  0  0  0  0  0  0  0  0  0
   56.6819   26.7554   43.5510 H   0  0  0  0  0  0  0  0  0  0  0  0
   58.2490   26.5885   42.6535 H   0  0  0  0  0  0  0  0  0  0  0  0
   58.3630   26.1260   44.7470 C   0  0  0  0  0  0  0  0  0  0  0  0
   57.5906   25.4541   45.1494 H   0  0  0  0  0  0  0  0  0  0  0  0
   59.2224   25.5543   44.3669 H   0  0  0  0  0  0  0  0  0  0  0  0
   58.8500   27.0300   45.8530 C   0  0  0  0  0  0  0  0  0  0  0  0
   60.0750   27.7090   45.7340 C   0  0  0  0  0  0  0  0  0  0  0  0
   60.6773   27.5967   44.8204 H   0  0  0  0  0  0  0  0  0  0  0  0
   60.5310   28.5270   46.7730 C   0  0  0  0  0  0  0  0  0  0  0  0
   61.4899   29.0569   46.6744 H   0  0  0  0  0  0  0  0  0  0  0  0
   59.7700   28.6720   47.9360 C   0  0  0  0  0  0  0  0  0  0  0  0
   60.1291   29.3166   48.7518 H   0  0  0  0  0  0  0  0  0  0  0  0
   58.5530   27.9980   48.0620 C   0  0  0  0  0  0  0  0  0  0  0  0
   57.9548   28.1126   48.9780 H   0  0  0  0  0  0  0  0  0  0  0  0
   58.0930   27.1780   47.0270 C   0  0  0  0  0  0  0  0  0  0  0  0
   57.1353   26.6472   47.1325 H   0  0  0  0  0  0  0  0  0  0  0  0
  1  2  1  0
  2  3  1  0
  3  4  1  0
  4  5  2  0
  5  6  1  0
  6  7  1  0
  6  8  1  0
  6  9  1  0
  9 10  1  0
  9 11  1  0
  9 12  1  0
 12 13  2  0
 13 14  1  0
 13 15  1  0
 15 16  1  0
 15 17  2  0
 17 18  1  0
 17 19  1  0
 19 20  1  0
 19 21  2  0
 21 22  1  0
  4 23  1  0
 23 24  1  0
 23 25  2  0
 25 26  1  0
 26 27  1  0
 27 28  2  0
 27 29  1  0
 29 30  1  0
 29 31  1  0
 31 32  1  0
 31 33  1  0
 31 34  1  0
 34 35  1  0
 34 36  1  0
 34 37  1  0
 37 38  2  0
 38 39  1  0
 38 40  1  0
 40 41  1  0
 40 42  2  0
 42 43  1  0
 42 44  1  0
 44 45  1  0
 44 46  2  0
 46 47  1  0
 26  2  2  0
 46 37  1  0
 21 12  1  0
M  CHG  1   3  -1
M  END
>  <UniqueID>  (57) 
52

>  <SMILES>  (57) 
O=C(NCCc1ccccc1)c1c[n-]/c(=N\CCc2ccccc2)cn1

>  <Energy>  (57) 
43.567152506713725

>  <Genealogy>  (57) 
O=C(NCCc1ccccc1)c1c[n-]c(=NCCc2ccccc2)cn1 (protonated)
O=C(NCCc1ccccc1)c1c[n-]/c(=N\CCc2ccccc2)cn1 (cis-trans isomerization)
O=C(NCCc1ccccc1)c1c[n-]/c(=N\CCc2ccccc2)cn1 (3D coordinates assigned)
O=C(NCCc1ccccc1)c1c[n-]/c(=N\CCc2ccccc2)cn1 (optimized conformer: 43.567152506713725 kcal/mol)

>  <smiles>  (57) 
O=C(NCCc1ccccc1)c1c[nH]c(=NCCc2ccccc2)cn1

>  <score_type>  (57) 
oracle

>  <origin>  (57) 
adg

>  <m_score__min__energy>  (57) 
-10.07

>  <m_primary>  (57) 
energy

$$$$
57:0
     RDKit          3D

 33 34  0  0  0  0  0  0  0  0999 V2000
   58.2060   19.9580   45.2170 H   0  0  0  0  0  0  0  0  0  0  0  0
   57.9280   20.8670   45.6510 N   0  0  0  0  0  0  0  0  0  0  0  0
   58.6200   21.9500   45.4730 C   0  0  0  0  0  0  0  0  0  0  0  0
   57.9510   23.2710   45.5680 C   0  0  0  0  0  0  0  0  0  0  0  0
   57.5010   23.7530   46.8130 C   0  0  0  0  0  0  0  0  0  0  0  0
   57.6461   23.1444   47.7178 H   0  0  0  0  0  0  0  0  0  0  0  0
   56.8720   24.9970   46.9090 C   0  0  0  0  0  0  0  0  0  0  0  0
   56.5376   25.3674   47.8893 H   0  0  0  0  0  0  0  0  0  0  0  0
   56.6650   25.7760   45.7600 C   0  0  0  0  0  0  0  0  0  0  0  0
   56.0740   27.0830   45.8420 N   0  0  0  0  0  0  0  0  0  0  0  0
   56.4810   28.1780   45.2620 C   0  0  0  0  0  0  0  0  0  0  0  0
   55.5460   29.0630   44.8250 N   0  0  0  0  0  0  0  0  0  0  0  0
   55.8750   30.2360   44.2220 C   0  0  0  0  0  0  0  0  0  0  0  0
   55.0814   30.9163   43.8794 H   0  0  0  0  0  0  0  0  0  0  0  0
   57.2220   30.5840   44.0340 C   0  0  0  0  0  0  0  0  0  0  0  0
   57.5960   31.8570   43.3770 C   0  0  0  0  0  0  0  0  0  0  0  0
   57.5900   31.9450   42.1180 O   0  0  0  0  0  0  0  0  0  0  0  0
   57.9660   32.9950   44.1640 N   0  0  0  0  0  0  0  0  0  0  0  0
   57.4400   33.2340   45.5000 C   0  0  0  0  0  0  0  0  0  0  0  0
   58.1741   32.9004   46.2482 H   0  0  0  0  0  0  0  0  0  0  0  0
   57.2457   34.3088   45.6307 H   0  0  0  0  0  0  0  0  0  0  0  0
   56.5026   32.6734   45.6307 H   0  0  0  0  0  0  0  0  0  0  0  0
   58.2070   29.6960   44.4940 C   0  0  0  0  0  0  0  0  0  0  0  0
   59.2708   29.9455   44.3668 H   0  0  0  0  0  0  0  0  0  0  0  0
   57.8440   28.4980   45.1120 C   0  0  0  0  0  0  0  0  0  0  0  0
   58.6180   27.8082   45.4795 H   0  0  0  0  0  0  0  0  0  0  0  0
   57.1510   25.3250   44.5300 C   0  0  0  0  0  0  0  0  0  0  0  0
   57.0380   25.9538   43.6346 H   0  0  0  0  0  0  0  0  0  0  0  0
   57.7800   24.0800   44.4290 C   0  0  0  0  0  0  0  0  0  0  0  0
   58.1440   23.7302   43.4517 H   0  0  0  0  0  0  0  0  0  0  0  0
   60.0170   21.8520   45.1720 N   0  0  0  0  0  0  0  0  0  0  0  0
   60.4970   20.9240   45.1700 H   0  0  0  0  0  0  0  0  0  0  0  0
   60.5710   22.6850   44.8720 H   0  0  0  0  0  0  0  0  0  0  0  0
  1  2  1  0
  2  3  2  0
  3  4  1  0
  4  5  2  0
  5  6  1  0
  5  7  1  0
  7  8  1  0
  7  9  2  0
  9 10  1  0
 10 11  2  3
 11 12  1  0
 12 13  1  0
 13 14  1  0
 13 15  2  0
 15 16  1  0
 16 17  2  0
 16 18  1  0
 18 19  1  0
 19 20  1  0
 19 21  1  0
 19 22  1  0
 15 23  1  0
 23 24  1  0
 23 25  2  0
 25 26  1  0
  9 27  1  0
 27 28  1  0
 27 29  2  0
 29 30  1  0
  3 31  1  0
 31 32  1  0
 31 33  1  0
 29  4  1  0
 25 11  1  0
M  CHG  2  12  -1  18  -1
M  END
>  <UniqueID>  (58) 
53

>  <SMILES>  (58) 
[H]/N=C(\N)c1ccc(N=c2ccc(C(=O)[N-]C)c[n-]2)cc1

>  <Energy>  (58) 
43.40348081868799

>  <Genealogy>  (58) 
C[N-]C(=O)c1ccc(=Nc2ccc(C(=N)N)cc2)[n-]c1 (protonated)
[H]/N=C(\N)c1ccc(N=c2ccc(C(=O)[N-]C)c[n-]2)cc1 (cis-trans isomerization)
[H]/N=C(\N)c1ccc(N=c2ccc(C(=O)[N-]C)c[n-]2)cc1 (3D coordinates assigned)
[H]/N=C(\N)c1ccc(N=c2ccc(C(=O)[N-]C)c[n-]2)cc1 (optimized conformer: 43.40348081868799 kcal/mol)

>  <smiles>  (58) 
CNC(=O)c1ccc(=Nc2ccc(C(=N)N)cc2)[nH]c1

>  <score_type>  (58) 
oracle

>  <origin>  (58) 
adg

>  <m_score__min__energy>  (58) 
-9.9800000000000004

>  <m_primary>  (58) 
energy

$$$$
58:0
     RDKit          3D

 47 49  0  0  0  0  0  0  0  0999 V2000
   57.9150   32.6490   43.8780 O   0  0  0  0  0  0  0  0  0  0  0  0
   57.2490   32.2810   44.8820 C   0  0  0  0  0  0  0  0  0  0  0  0
   57.2850   33.0890   46.1380 C   0  0  0  0  0  0  0  0  0  0  0  0
   58.6020   32.9780   46.7660 N   0  0  0  0  0  0  0  0  0  0  0  0
   58.9690   31.7890   47.4770 C   0  0  0  0  0  0  0  0  0  0  0  0
   58.8940   31.7580   48.8770 C   0  0  0  0  0  0  0  0  0  0  0  0
   59.2510   30.6030   49.5770 C   0  0  0  0  0  0  0  0  0  0  0  0
   59.6820   29.4700   48.8820 C   0  0  0  0  0  0  0  0  0  0  0  0
   59.7550   29.4900   47.4870 C   0  0  0  0  0  0  0  0  0  0  0  0
   59.3970   30.6460   46.7790 C   0  0  0  0  0  0  0  0  0  0  0  0
   59.4550   30.6620   45.3860 O   0  0  0  0  0  0  0  0  0  0  0  0
   59.6850   34.3360   46.7410 S   0  0  0  0  0  0  0  0  0  0  0  0
   59.0540   35.4870   47.4720 O   0  0  0  0  0  0  0  0  0  0  0  0
   59.9580   34.7580   45.3240 O   0  0  0  0  0  0  0  0  0  0  0  0
   61.2020   33.8680   47.4980 C   0  0  0  0  0  0  0  0  0  0  0  0
   61.4410   34.1410   48.8540 C   0  0  0  0  0  0  0  0  0  0  0  0
   62.6430   33.7420   49.4480 C   0  0  0  0  0  0  0  0  0  0  0  0
   63.6070   33.0690   48.6940 C   0  0  0  0  0  0  0  0  0  0  0  0
   63.3710   32.7920   47.3430 C   0  0  0  0  0  0  0  0  0  0  0  0
   62.1710   33.1890   46.7470 C   0  0  0  0  0  0  0  0  0  0  0  0
   56.4350   31.1060   44.8240 N   0  0  0  0  0  0  0  0  0  0  0  0
   56.5150   30.1200   43.7510 C   0  0  0  0  0  0  0  0  0  0  0  0
   57.1330   28.8460   44.2610 C   0  0  0  0  0  0  0  0  0  0  0  0
   57.0410   28.4990   45.6190 C   0  0  0  0  0  0  0  0  0  0  0  0
   57.6030   27.3040   46.0800 C   0  0  0  0  0  0  0  0  0  0  0  0
   58.2550   26.4460   45.1890 C   0  0  0  0  0  0  0  0  0  0  0  0
   58.3460   26.7830   43.8350 C   0  0  0  0  0  0  0  0  0  0  0  0
   57.7850   27.9770   43.3700 C   0  0  0  0  0  0  0  0  0  0  0  0
   57.0830   34.1435   45.8988 H   0  0  0  0  0  0  0  0  0  0  0  0
   56.5203   32.7113   46.8327 H   0  0  0  0  0  0  0  0  0  0  0  0
   58.5524   32.6475   49.4266 H   0  0  0  0  0  0  0  0  0  0  0  0
   59.1928   30.5854   50.6753 H   0  0  0  0  0  0  0  0  0  0  0  0
   59.9641   28.5613   49.4339 H   0  0  0  0  0  0  0  0  0  0  0  0
   60.0943   28.5964   46.9426 H   0  0  0  0  0  0  0  0  0  0  0  0
   58.6270   30.8080   44.8220 H   0  0  0  0  0  0  0  0  0  0  0  0
   60.6823   34.6692   49.4501 H   0  0  0  0  0  0  0  0  0  0  0  0
   62.8292   33.9586   50.5103 H   0  0  0  0  0  0  0  0  0  0  0  0
   64.5520   32.7567   49.1624 H   0  0  0  0  0  0  0  0  0  0  0  0
   64.1304   32.2615   46.7498 H   0  0  0  0  0  0  0  0  0  0  0  0
   61.9865   32.9679   45.6854 H   0  0  0  0  0  0  0  0  0  0  0  0
   55.5028   29.9082   43.3760 H   0  0  0  0  0  0  0  0  0  0  0  0
   57.1395   30.5222   42.9397 H   0  0  0  0  0  0  0  0  0  0  0  0
   56.5252   29.1693   46.3223 H   0  0  0  0  0  0  0  0  0  0  0  0
   57.5319   27.0388   47.1452 H   0  0  0  0  0  0  0  0  0  0  0  0
   58.6961   25.5064   45.5530 H   0  0  0  0  0  0  0  0  0  0  0  0
   58.8595   26.1081   43.1344 H   0  0  0  0  0  0  0  0  0  0  0  0
   57.8545   28.2365   42.3033 H   0  0  0  0  0  0  0  0  0  0  0  0
  1  2  2  0
  2  3  1  0
  3  4  1  0
  4  5  1  0
  5  6  2  0
  6  7  1  0
  7  8  2  0
  8  9  1  0
  9 10  2  0
 10 11  1  0
  4 12  1  0
 12 13  2  0
 12 14  2  0
 12 15  1  0
 15 16  2  0
 16 17  1  0
 17 18  2  0
 18 19  1  0
 19 20  2  0
  2 21  1  0
 21 22  1  0
 22 23  1  0
 23 24  2  0
 24 25  1  0
 25 26  2  0
 26 27  1  0
 27 28  2  0
 10  5  1  0
 20 15  1  0
 28 23  1  0
  3 29  1  0
  3 30  1  0
  6 31  1  0
  7 32  1  0
  8 33  1  0
  9 34  1  0
 11 35  1  0
 16 36  1  0
 17 37  1  0
 18 38  1  0
 19 39  1  0
 20 40  1  0
 22 41  1  0
 22 42  1  0
 24 43  1  0
 25 44  1  0
 26 45  1  0
 27 46  1  0
 28 47  1  0
M  CHG  1  21  -1
M  END
>  <UniqueID>  (59) 
54

>  <SMILES>  (59) 
O=C(CN(c1ccccc1O)S(=O)(=O)c1ccccc1)[N-]Cc1ccccc1

>  <Energy>  (59) 
50.79596148901481

>  <Genealogy>  (59) 
O=C(CN(c1ccccc1O)S(=O)(=O)c1ccccc1)[N-]Cc1ccccc1 (protonated)
O=C(CN(c1ccccc1O)S(=O)(=O)c1ccccc1)[N-]Cc1ccccc1 (3D coordinates assigned)
O=C(CN(c1ccccc1O)S(=O)(=O)c1ccccc1)[N-]Cc1ccccc1 (optimized conformer: 50.79596148901481 kcal/mol)

>  <smiles>  (59) 
O=C(CN(c1ccccc1O)S(=O)(=O)c1ccccc1)NCc1ccccc1

>  <score_type>  (59) 
oracle

>  <origin>  (59) 
adg

>  <m_score__min__energy>  (59) 
-10.51

>  <m_primary>  (59) 
energy

$$$$
59:0
     RDKit          3D

 43 45  0  0  0  0  0  0  0  0999 V2000
   57.9810   26.0620   47.0790 O   0  0  0  0  0  0  0  0  0  0  0  0
   57.8630   27.1150   46.3930 C   0  0  0  0  0  0  0  0  0  0  0  0
   56.6260   27.4910   45.9740 N   0  0  0  0  0  0  0  0  0  0  0  0
   56.4410   28.6120   45.2340 C   0  0  0  0  0  0  0  0  0  0  0  0
   55.1540   28.9790   44.8540 O   0  0  0  0  0  0  0  0  0  0  0  0
   57.5420   29.3950   44.8680 C   0  0  0  0  0  0  0  0  0  0  0  0
   57.3720   30.6330   44.0770 C   0  0  0  0  0  0  0  0  0  0  0  0
   57.3700   31.8750   44.5880 C   0  0  0  0  0  0  0  0  0  0  0  0
   58.5160   32.5300   45.2500 C   0  0  0  0  0  0  0  0  0  0  0  0
   59.1530   33.6680   44.7680 C   0  0  0  0  0  0  0  0  0  0  0  0
   60.1660   34.1420   45.6110 C   0  0  0  0  0  0  0  0  0  0  0  0
   60.3030   33.3980   46.7760 C   0  0  0  0  0  0  0  0  0  0  0  0
   61.3320   33.6160   47.8420 C   0  0  0  0  0  0  0  0  0  0  0  0
   62.5120   32.6590   47.6700 C   0  0  0  0  0  0  0  0  0  0  0  0
   63.5960   33.3310   47.0910 O   0  0  0  0  0  0  0  0  0  0  0  0
   59.1850   32.1440   46.7510 S   0  0  0  0  0  0  0  0  0  0  0  0
   58.8120   29.0120   45.3270 C   0  0  0  0  0  0  0  0  0  0  0  0
   59.8130   29.7230   45.0340 O   0  0  0  0  0  0  0  0  0  0  0  0
   58.9650   27.8710   46.0770 N   0  0  0  0  0  0  0  0  0  0  0  0
   60.3010   27.4820   46.5760 C   0  0  0  0  0  0  0  0  0  0  0  0
   60.5120   27.9990   47.9770 C   0  0  0  0  0  0  0  0  0  0  0  0
   60.6410   29.3780   48.2140 C   0  0  0  0  0  0  0  0  0  0  0  0
   60.8680   29.8530   49.5090 C   0  0  0  0  0  0  0  0  0  0  0  0
   60.9730   28.9560   50.5760 C   0  0  0  0  0  0  0  0  0  0  0  0
   60.8510   27.5830   50.3480 C   0  0  0  0  0  0  0  0  0  0  0  0
   60.6230   27.1040   49.0550 C   0  0  0  0  0  0  0  0  0  0  0  0
   55.7950   26.9100   46.2300 H   0  0  0  0  0  0  0  0  0  0  0  0
   57.2373   30.5289   42.9903 H   0  0  0  0  0  0  0  0  0  0  0  0
   56.4372   32.4523   44.5066 H   0  0  0  0  0  0  0  0  0  0  0  0
   58.8868   34.1499   43.8157 H   0  0  0  0  0  0  0  0  0  0  0  0
   60.7906   35.0160   45.3742 H   0  0  0  0  0  0  0  0  0  0  0  0
   61.6975   34.6518   47.7824 H   0  0  0  0  0  0  0  0  0  0  0  0
   60.8674   33.4264   48.8209 H   0  0  0  0  0  0  0  0  0  0  0  0
   62.8098   32.2680   48.6541 H   0  0  0  0  0  0  0  0  0  0  0  0
   62.2102   31.8295   47.0136 H   0  0  0  0  0  0  0  0  0  0  0  0
   64.3670   32.7100   47.1500 H   0  0  0  0  0  0  0  0  0  0  0  0
   60.3811   26.3849   46.5790 H   0  0  0  0  0  0  0  0  0  0  0  0
   61.0674   27.9161   45.9171 H   0  0  0  0  0  0  0  0  0  0  0  0
   60.5630   30.0870   47.3766 H   0  0  0  0  0  0  0  0  0  0  0  0
   60.9641   30.9340   49.6886 H   0  0  0  0  0  0  0  0  0  0  0  0
   61.1516   29.3310   51.5946 H   0  0  0  0  0  0  0  0  0  0  0  0
   60.9346   26.8776   51.1879 H   0  0  0  0  0  0  0  0  0  0  0  0
   60.5300   26.0220   48.8803 H   0  0  0  0  0  0  0  0  0  0  0  0
  1  2  2  0
  2  3  1  0
  3  4  1  0
  4  5  1  0
  4  6  2  0
  6  7  1  0
  7  8  2  3
  8  9  1  0
  9 10  2  0
 10 11  1  0
 11 12  2  0
 12 13  1  0
 13 14  1  0
 14 15  1  0
 12 16  1  0
  6 17  1  0
 17 18  2  0
 17 19  1  0
 19 20  1  0
 20 21  1  0
 21 22  2  0
 22 23  1  0
 23 24  2  0
 24 25  1  0
 25 26  2  0
 19  2  1  0
 26 21  1  0
 16  9  1  0
  3 27  1  0
  7 28  1  0
  8 29  1  0
 10 30  1  0
 11 31  1  0
 13 32  1  0
 13 33  1  0
 14 34  1  0
 14 35  1  0
 15 36  1  0
 20 37  1  0
 20 38  1  0
 22 39  1  0
 23 40  1  0
 24 41  1  0
 25 42  1  0
 26 43  1  0
M  CHG  1   5  -1
M  END
>  <UniqueID>  (60) 
55

>  <SMILES>  (60) 
O=c1[nH]c([O-])c(C=Cc2ccc(CCO)s2)c(=O)n1Cc1ccccc1

>  <Energy>  (60) 
81.09785761879597

>  <Genealogy>  (60) 
O=c1[nH]c([O-])c(C=Cc2ccc(CCO)s2)c(=O)n1Cc1ccccc1 (protonated)
O=c1[nH]c([O-])c(C=Cc2ccc(CCO)s2)c(=O)n1Cc1ccccc1 (3D coordinates assigned)
O=c1[nH]c([O-])c(C=Cc2ccc(CCO)s2)c(=O)n1Cc1ccccc1 (optimized conformer: 81.09785761879597 kcal/mol)

>  <smiles>  (60) 
O=c1[nH]c(O)c(C=Cc2ccc(CCO)s2)c(=O)n1Cc1ccccc1

>  <score_type>  (60) 
oracle

>  <origin>  (60) 
adg

>  <m_score__min__energy>  (60) 
-11.300000000000001

>  <m_primary>  (60) 
energy

$$$$
60:0
     RDKit          3D

 43 46  0  0  0  0  0  0  0  0999 V2000
   59.3250   28.9420   51.2780 C   0  0  0  0  0  0  0  0  0  0  0  0
   58.8390   30.2940   51.5860 N   0  0  0  0  0  0  0  0  0  0  0  0
   59.6670   31.3920   51.4800 C   0  0  0  0  0  0  0  0  0  0  0  0
   60.8720   31.2280   51.1360 O   0  0  0  0  0  0  0  0  0  0  0  0
   59.1920   32.6680   51.7460 N   0  0  0  0  0  0  0  0  0  0  0  0
   60.0880   33.8330   51.6060 C   0  0  0  0  0  0  0  0  0  0  0  0
   60.7210   33.8520   50.2380 C   0  0  0  0  0  0  0  0  0  0  0  0
   62.1200   33.8210   50.0990 C   0  0  0  0  0  0  0  0  0  0  0  0
   62.7010   33.8070   48.8290 C   0  0  0  0  0  0  0  0  0  0  0  0
   61.8950   33.8200   47.6880 C   0  0  0  0  0  0  0  0  0  0  0  0
   62.4610   33.8070   46.4560 F   0  0  0  0  0  0  0  0  0  0  0  0
   60.5040   33.8480   47.8160 C   0  0  0  0  0  0  0  0  0  0  0  0
   59.9170   33.8620   49.0860 C   0  0  0  0  0  0  0  0  0  0  0  0
   57.8720   32.8500   52.0960 C   0  0  0  0  0  0  0  0  0  0  0  0
   57.4060   33.9970   52.3430 O   0  0  0  0  0  0  0  0  0  0  0  0
   57.0520   31.7390   52.1730 C   0  0  0  0  0  0  0  0  0  0  0  0
   55.7490   31.6770   52.4830 N   0  0  0  0  0  0  0  0  0  0  0  0
   55.4950   30.3450   52.3830 C   0  0  0  0  0  0  0  0  0  0  0  0
   54.1590   29.7530   52.7000 C   0  0  0  0  0  0  0  0  0  0  0  0
   53.1020   30.3850   51.8390 C   0  0  0  0  0  0  0  0  0  0  0  0
   52.8010   29.8480   50.5760 C   0  0  0  0  0  0  0  0  0  0  0  0
   51.7930   30.4140   49.7910 C   0  0  0  0  0  0  0  0  0  0  0  0
   51.0690   31.5120   50.2660 C   0  0  0  0  0  0  0  0  0  0  0  0
   51.3510   32.0430   51.5270 C   0  0  0  0  0  0  0  0  0  0  0  0
   50.6270   33.1300   52.0010 O   0  0  0  0  0  0  0  0  0  0  0  0
   52.3610   31.4800   52.3150 C   0  0  0  0  0  0  0  0  0  0  0  0
   56.5710   29.5870   52.0470 N   0  0  0  0  0  0  0  0  0  0  0  0
   57.5370   30.5100   51.9170 C   0  0  0  0  0  0  0  0  0  0  0  0
   59.5198   28.4000   52.2152 H   0  0  0  0  0  0  0  0  0  0  0  0
   58.5643   28.4031   50.6941 H   0  0  0  0  0  0  0  0  0  0  0  0
   60.2547   29.0107   50.6941 H   0  0  0  0  0  0  0  0  0  0  0  0
   59.5066   34.7558   51.7485 H   0  0  0  0  0  0  0  0  0  0  0  0
   60.8821   33.7637   52.3641 H   0  0  0  0  0  0  0  0  0  0  0  0
   62.7593   33.8077   50.9941 H   0  0  0  0  0  0  0  0  0  0  0  0
   63.7960   33.7857   48.7269 H   0  0  0  0  0  0  0  0  0  0  0  0
   59.8697   33.8590   46.9174 H   0  0  0  0  0  0  0  0  0  0  0  0
   58.8214   33.8809   49.1828 H   0  0  0  0  0  0  0  0  0  0  0  0
   54.1854   28.6700   52.5091 H   0  0  0  0  0  0  0  0  0  0  0  0
   53.9227   29.9385   53.7582 H   0  0  0  0  0  0  0  0  0  0  0  0
   53.3615   28.9779   50.2034 H   0  0  0  0  0  0  0  0  0  0  0  0
   51.5689   29.9955   48.7987 H   0  0  0  0  0  0  0  0  0  0  0  0
   50.2770   31.9579   49.6464 H   0  0  0  0  0  0  0  0  0  0  0  0
   52.5757   31.8960   53.3104 H   0  0  0  0  0  0  0  0  0  0  0  0
  1  2  1  0
  2  3  1  0
  3  4  2  0
  3  5  1  0
  5  6  1  0
  6  7  1  0
  7  8  2  0
  8  9  1  0
  9 10  2  0
 10 11  1  0
 10 12  1  0
 12 13  2  0
  5 14  1  0
 14 15  2  0
 14 16  1  0
 16 17  1  0
 17 18  1  0
 18 19  1  0
 19 20  1  0
 20 21  2  0
 21 22  1  0
 22 23  2  0
 23 24  1  0
 24 25  1  0
 24 26  2  0
 18 27  2  0
 27 28  1  0
 28  2  1  0
 13  7  1  0
 28 16  2  0
 26 20  1  0
  1 29  1  0
  1 30  1  0
  1 31  1  0
  6 32  1  0
  6 33  1  0
  8 34  1  0
  9 35  1  0
 12 36  1  0
 13 37  1  0
 19 38  1  0
 19 39  1  0
 21 40  1  0
 22 41  1  0
 23 42  1  0
 26 43  1  0
M  CHG  2  17  -1  25  -1
M  END
>  <UniqueID>  (61) 
56

>  <SMILES>  (61) 
Cn1c(=O)n(Cc2ccc(F)cc2)c(=O)c2[n-]c(Cc3cccc([O-])c3)nc21

>  <Energy>  (61) 
87.49681153078076

>  <Genealogy>  (61) 
Cn1c(=O)n(Cc2ccc(F)cc2)c(=O)c2[n-]c(Cc3cccc([O-])c3)nc21 (protonated)
Cn1c(=O)n(Cc2ccc(F)cc2)c(=O)c2[n-]c(Cc3cccc([O-])c3)nc21 (3D coordinates assigned)
Cn1c(=O)n(Cc2ccc(F)cc2)c(=O)c2[n-]c(Cc3cccc([O-])c3)nc21 (optimized conformer: 87.49681153078076 kcal/mol)

>  <smiles>  (61) 
Cn1c(=O)n(Cc2ccc(F)cc2)c(=O)c2[nH]c(Cc3cccc(O)c3)nc21

>  <score_type>  (61) 
oracle

>  <origin>  (61) 
adg

>  <m_score__min__energy>  (61) 
-13.33

>  <m_primary>  (61) 
energy

$$$$
61:0
     RDKit          3D

 51 54  0  0  0  0  0  0  0  0999 V2000
   57.0230   34.5860   44.8710 C   0  0  0  0  0  0  0  0  0  0  0  0
   58.0470   33.8080   45.6540 C   0  0  0  0  0  0  0  0  0  0  0  0
   58.4090   34.3010   46.8640 N   0  0  0  0  0  0  0  0  0  0  0  0
   59.3030   33.6550   47.6680 C   0  0  0  0  0  0  0  0  0  0  0  0
   59.5290   34.1210   48.9600 C   0  0  0  0  0  0  0  0  0  0  0  0
   60.3460   33.3890   49.8310 C   0  0  0  0  0  0  0  0  0  0  0  0
   60.9610   32.2080   49.3920 C   0  0  0  0  0  0  0  0  0  0  0  0
   60.7660   31.7580   48.0910 C   0  0  0  0  0  0  0  0  0  0  0  0
   59.8730   32.4410   47.2290 C   0  0  0  0  0  0  0  0  0  0  0  0
   59.4980   31.9280   45.9760 C   0  0  0  0  0  0  0  0  0  0  0  0
   59.9860   30.8130   45.5900 O   0  0  0  0  0  0  0  0  0  0  0  0
   58.5590   32.5810   45.2220 N   0  0  0  0  0  0  0  0  0  0  0  0
   57.9410   31.8730   44.0680 C   0  0  0  0  0  0  0  0  0  0  0  0
   57.5660   30.4550   44.4280 C   0  0  0  0  0  0  0  0  0  0  0  0
   56.3890   30.2300   44.8350 O   0  0  0  0  0  0  0  0  0  0  0  0
   58.4730   29.3560   44.2110 N   0  0  0  0  0  0  0  0  0  0  0  0
   58.1200   28.0080   44.5160 C   0  0  0  0  0  0  0  0  0  0  0  0
   58.3350   27.5290   45.8130 C   0  0  0  0  0  0  0  0  0  0  0  0
   58.2250   26.1660   46.0650 C   0  0  0  0  0  0  0  0  0  0  0  0
   57.9000   25.2750   45.0220 C   0  0  0  0  0  0  0  0  0  0  0  0
   57.6650   23.8510   45.3330 C   0  0  0  0  0  0  0  0  0  0  0  0
   58.7290   22.9450   45.1520 C   0  0  0  0  0  0  0  0  0  0  0  0
   58.5380   21.5750   45.3720 C   0  0  0  0  0  0  0  0  0  0  0  0
   57.2870   21.0840   45.7690 C   0  0  0  0  0  0  0  0  0  0  0  0
   56.2180   21.9700   45.9570 C   0  0  0  0  0  0  0  0  0  0  0  0
   56.3900   23.3560   45.7420 C   0  0  0  0  0  0  0  0  0  0  0  0
   54.8780   24.3650   45.7880 S   0  0  0  0  0  0  0  0  0  0  0  0
   55.1380   26.0730   46.0770 N   0  0  0  0  0  0  0  0  0  0  0  0
   54.0700   24.2730   44.5210 O   0  0  0  0  0  0  0  0  0  0  0  0
   54.0210   23.7560   46.8880 O   0  0  0  0  0  0  0  0  0  0  0  0
   57.6810   25.7570   43.7130 C   0  0  0  0  0  0  0  0  0  0  0  0
   57.8080   27.1300   43.4680 C   0  0  0  0  0  0  0  0  0  0  0  0
   57.6450   27.5990   42.2050 F   0  0  0  0  0  0  0  0  0  0  0  0
   56.3442   35.1017   45.5661 H   0  0  0  0  0  0  0  0  0  0  0  0
   57.5317   35.3275   44.2374 H   0  0  0  0  0  0  0  0  0  0  0  0
   56.4450   33.8972   44.2374 H   0  0  0  0  0  0  0  0  0  0  0  0
   59.0674   35.0612   49.2960 H   0  0  0  0  0  0  0  0  0  0  0  0
   60.5053   33.7412   50.8608 H   0  0  0  0  0  0  0  0  0  0  0  0
   61.6004   31.6351   50.0797 H   0  0  0  0  0  0  0  0  0  0  0  0
   61.3060   30.8701   47.7304 H   0  0  0  0  0  0  0  0  0  0  0  0
   57.0352   32.4152   43.7589 H   0  0  0  0  0  0  0  0  0  0  0  0
   58.6747   31.8397   43.2491 H   0  0  0  0  0  0  0  0  0  0  0  0
   59.4730   29.5020   43.9320 H   0  0  0  0  0  0  0  0  0  0  0  0
   58.5889   28.2248   46.6263 H   0  0  0  0  0  0  0  0  0  0  0  0
   58.3922   25.7815   47.0820 H   0  0  0  0  0  0  0  0  0  0  0  0
   59.7153   23.3158   44.8361 H   0  0  0  0  0  0  0  0  0  0  0  0
   59.3776   20.8782   45.2319 H   0  0  0  0  0  0  0  0  0  0  0  0
   57.1446   20.0056   45.9326 H   0  0  0  0  0  0  0  0  0  0  0  0
   55.2380   21.5840   46.2742 H   0  0  0  0  0  0  0  0  0  0  0  0
   54.7720   26.5510   45.2090 H   0  0  0  0  0  0  0  0  0  0  0  0
   57.4152   25.0659   42.8996 H   0  0  0  0  0  0  0  0  0  0  0  0
  1  2  1  0
  2  3  2  0
  3  4  1  0
  4  5  2  0
  5  6  1  0
  6  7  2  0
  7  8  1  0
  8  9  2  0
  9 10  1  0
 10 11  2  0
 10 12  1  0
 12 13  1  0
 13 14  1  0
 14 15  2  0
 14 16  1  0
 16 17  1  0
 17 18  2  0
 18 19  1  0
 19 20  2  0
 20 21  1  0
 21 22  2  0
 22 23  1  0
 23 24  2  0
 24 25  1  0
 25 26  2  0
 26 27  1  0
 27 28  1  0
 27 29  2  0
 27 30  2  0
 20 31  1  0
 31 32  2  0
 32 33  1  0
 12  2  1  0
 32 17  1  0
  9  4  1  0
 26 21  1  0
  1 34  1  0
  1 35  1  0
  1 36  1  0
  5 37  1  0
  6 38  1  0
  7 39  1  0
  8 40  1  0
 13 41  1  0
 13 42  1  0
 16 43  1  0
 18 44  1  0
 19 45  1  0
 22 46  1  0
 23 47  1  0
 24 48  1  0
 25 49  1  0
 28 50  1  0
 31 51  1  0
M  CHG  1  28  -1
M  END
>  <UniqueID>  (62) 
57

>  <SMILES>  (62) 
Cc1nc2ccccc2c(=O)n1CC(=O)Nc1ccc(-c2ccccc2S([NH-])(=O)=O)cc1F

>  <Energy>  (62) 
90.36510082243227

>  <Genealogy>  (62) 
Cc1nc2ccccc2c(=O)n1CC(=O)Nc1ccc(-c2ccccc2S([NH-])(=O)=O)cc1F (protonated)
Cc1nc2ccccc2c(=O)n1CC(=O)Nc1ccc(-c2ccccc2S([NH-])(=O)=O)cc1F (3D coordinates assigned)
Cc1nc2ccccc2c(=O)n1CC(=O)Nc1ccc(-c2ccccc2S([NH-])(=O)=O)cc1F (optimized conformer: 90.36510082243227 kcal/mol)

>  <smiles>  (62) 
Cc1nc2ccccc2c(=O)n1CC(=O)Nc1ccc(-c2ccccc2S(N)(=O)=O)cc1F

>  <score_type>  (62) 
oracle

>  <origin>  (62) 
adg

>  <m_score__min__energy>  (62) 
-12.49

>  <m_primary>  (62) 
energy

$$$$
62:0
     RDKit          3D

 51 54  0  0  1  0  0  0  0  0999 V2000
   58.2370   27.0230   42.5410 C   0  0  0  0  0  0  0  0  0  0  0  0
   57.6800   27.6670   43.7840 C   0  0  2  0  0  0  0  0  0  0  0  0
   57.7760   29.1080   43.6240 N   0  0  0  0  0  0  0  0  0  0  0  0
   56.8350   30.0120   44.2020 C   0  0  0  0  0  0  0  0  0  0  0  0
   55.8670   29.5860   44.8850 O   0  0  0  0  0  0  0  0  0  0  0  0
   57.0620   31.4000   43.9570 N   0  0  0  0  0  0  0  0  0  0  0  0
   57.5550   32.2100   44.8050 C   0  0  0  0  0  0  0  0  0  0  0  0
   58.1610   33.3860   44.4100 C   0  0  0  0  0  0  0  0  0  0  0  0
   58.6880   34.2470   45.3330 C   0  0  0  0  0  0  0  0  0  0  0  0
   59.3110   35.4150   45.2520 N   0  0  0  0  0  0  0  0  0  0  0  0
   59.6240   35.8420   46.4530 N   0  0  0  0  0  0  0  0  0  0  0  0
   59.2150   34.9640   47.3860 C   0  0  0  0  0  0  0  0  0  0  0  0
   59.3100   34.9770   48.6550 N   0  0  0  0  0  0  0  0  0  0  0  0
   60.1090   33.6880   49.4610 S   0  0  0  0  0  0  0  0  0  0  0  0
   60.4950   34.1230   50.8440 O   0  0  0  0  0  0  0  0  0  0  0  0
   59.0670   32.5970   49.6500 O   0  0  0  0  0  0  0  0  0  0  0  0
   61.4690   33.0590   48.5610 C   0  0  0  0  0  0  0  0  0  0  0  0
   62.6320   33.8120   48.4430 C   0  0  0  0  0  0  0  0  0  0  0  0
   63.7200   33.3440   47.7390 C   0  0  0  0  0  0  0  0  0  0  0  0
   63.6990   32.0990   47.1190 C   0  0  0  0  0  0  0  0  0  0  0  0
   62.5580   31.3590   47.2350 C   0  0  0  0  0  0  0  0  0  0  0  0
   61.4610   31.8270   47.9420 C   0  0  0  0  0  0  0  0  0  0  0  0
   58.6120   33.9330   46.6790 C   0  0  0  0  0  0  0  0  0  0  0  0
   57.9960   32.7410   47.0450 C   0  0  0  0  0  0  0  0  0  0  0  0
   57.4880   31.9180   46.1000 N   0  0  0  0  0  0  0  0  0  0  0  0
   58.5010   27.2190   44.9670 C   0  0  0  0  0  0  0  0  0  0  0  0
   58.1430   26.0750   45.6510 C   0  0  0  0  0  0  0  0  0  0  0  0
   58.9120   25.6720   46.7430 C   0  0  0  0  0  0  0  0  0  0  0  0
   60.0210   26.4160   47.1330 C   0  0  0  0  0  0  0  0  0  0  0  0
   60.3640   27.5580   46.4380 C   0  0  0  0  0  0  0  0  0  0  0  0
   59.6040   27.9460   45.3670 C   0  0  0  0  0  0  0  0  0  0  0  0
   58.9323   26.2191   42.8246 H   0  0  0  0  0  0  0  0  0  0  0  0
   57.4134   26.6023   41.9455 H   0  0  0  0  0  0  0  0  0  0  0  0
   58.7720   27.7774   41.9455 H   0  0  0  0  0  0  0  0  0  0  0  0
   56.6302   27.3808   43.9454 H   0  0  0  0  0  0  0  0  0  0  0  0
   58.5850   29.4500   43.0540 H   0  0  0  0  0  0  0  0  0  0  0  0
   58.2207   33.6336   43.3399 H   0  0  0  0  0  0  0  0  0  0  0  0
   59.5340   35.9430   44.3760 H   0  0  0  0  0  0  0  0  0  0  0  0
   60.1120   36.7200   46.6860 H   0  0  0  0  0  0  0  0  0  0  0  0
   62.6845   34.8012   48.9213 H   0  0  0  0  0  0  0  0  0  0  0  0
   64.6233   33.9674   47.6658 H   0  0  0  0  0  0  0  0  0  0  0  0
   64.5679   31.7255   46.5573 H   0  0  0  0  0  0  0  0  0  0  0  0
   62.5077   30.3695   46.7570 H   0  0  0  0  0  0  0  0  0  0  0  0
   60.5606   31.1989   48.0109 H   0  0  0  0  0  0  0  0  0  0  0  0
   57.9217   32.4666   48.1076 H   0  0  0  0  0  0  0  0  0  0  0  0
   57.0430   31.0530   46.4200 H   0  0  0  0  0  0  0  0  0  0  0  0
   57.2649   25.4900   45.3400 H   0  0  0  0  0  0  0  0  0  0  0  0
   58.6403   24.7620   47.2981 H   0  0  0  0  0  0  0  0  0  0  0  0
   60.6241   26.0943   47.9948 H   0  0  0  0  0  0  0  0  0  0  0  0
   61.2395   28.1508   46.7415 H   0  0  0  0  0  0  0  0  0  0  0  0
   59.8783   28.8563   44.8138 H   0  0  0  0  0  0  0  0  0  0  0  0
  1  2  1  0
  2  3  1  0
  3  4  1  0
  4  5  2  0
  4  6  1  0
  6  7  2  0
  7  8  1  0
  8  9  2  0
  9 10  1  0
 10 11  1  0
 11 12  1  0
 12 13  2  0
 13 14  1  0
 14 15  2  0
 14 16  2  0
 14 17  1  0
 17 18  2  0
 18 19  1  0
 19 20  2  0
 20 21  1  0
 21 22  2  0
 12 23  1  0
 23 24  2  0
 24 25  1  0
  2 26  1  0
 26 27  2  0
 27 28  1  0
 28 29  2  0
 29 30  1  0
 30 31  2  0
 25  7  1  0
 31 26  1  0
 23  9  1  0
 22 17  1  0
  1 32  1  0
  1 33  1  0
  1 34  1  0
  2 35  1  1
  3 36  1  0
  8 37  1  0
 10 38  1  0
 11 39  1  0
 18 40  1  0
 19 41  1  0
 20 42  1  0
 21 43  1  0
 22 44  1  0
 24 45  1  0
 25 46  1  0
 27 47  1  0
 28 48  1  0
 29 49  1  0
 30 50  1  0
 31 51  1  0
M  END
>  <smiles>  (63) 
CC(NC(=O)N=c1cc2[nH][nH]c(=NS(=O)(=O)c3ccccc3)c2c[nH]1)c1ccccc1

>  <score_type>  (63) 
oracle

>  <origin>  (63) 
adg

>  <m_score__min__energy>  (63) 
-10.48

>  <m_primary>  (63) 
energy

$$$$
63:0
     RDKit          3D

 45 46  0  0  0  0  0  0  0  0999 V2000
   56.9000   34.4630   45.2360 C   0  0  0  0  0  0  0  0  0  0  0  0
   58.0940   33.4880   45.2000 C   0  0  0  0  0  0  0  0  0  0  0  0
   59.3010   34.1560   44.5130 C   0  0  0  0  0  0  0  0  0  0  0  0
   57.7070   32.2230   44.4010 C   0  0  0  0  0  0  0  0  0  0  0  0
   57.4090   31.1520   45.2570 O   0  0  0  0  0  0  0  0  0  0  0  0
   58.4580   33.0740   46.5610 N   0  0  0  0  0  0  0  0  0  0  0  0
   59.3700   33.7330   47.4510 C   0  0  0  0  0  0  0  0  0  0  0  0
   58.9690   34.6700   48.1920 O   0  0  0  0  0  0  0  0  0  0  0  0
   60.7740   33.2690   47.5090 C   0  0  0  0  0  0  0  0  0  0  0  0
   61.7350   34.1810   47.8290 N   0  0  0  0  0  0  0  0  0  0  0  0
   63.0540   33.8670   47.8750 C   0  0  0  0  0  0  0  0  0  0  0  0
   63.4720   32.5690   47.5900 C   0  0  0  0  0  0  0  0  0  0  0  0
   62.5210   31.6030   47.2670 C   0  0  0  0  0  0  0  0  0  0  0  0
   61.1580   31.9360   47.2180 C   0  0  0  0  0  0  0  0  0  0  0  0
   60.1810   30.9130   46.9720 N   0  0  0  0  0  0  0  0  0  0  0  0
   60.2470   29.6080   47.5750 C   0  0  0  0  0  0  0  0  0  0  0  0
   61.1780   29.3360   48.3820 O   0  0  0  0  0  0  0  0  0  0  0  0
   59.2400   28.5670   47.2600 C   0  0  0  0  0  0  0  0  0  0  0  0
   59.3490   27.2900   47.8370 C   0  0  0  0  0  0  0  0  0  0  0  0
   58.4090   26.2960   47.5470 C   0  0  0  0  0  0  0  0  0  0  0  0
   57.3550   26.5590   46.6640 C   0  0  0  0  0  0  0  0  0  0  0  0
   56.1640   25.3110   46.3090 S   0  0  0  0  0  0  0  0  0  0  0  0
   54.6340   26.0470   45.9960 N   0  0  0  0  0  0  0  0  0  0  0  0
   56.5960   24.5230   45.1040 O   0  0  0  0  0  0  0  0  0  0  0  0
   56.0420   24.3750   47.4790 O   0  0  0  0  0  0  0  0  0  0  0  0
   57.2440   27.8260   46.0790 C   0  0  0  0  0  0  0  0  0  0  0  0
   58.1810   28.8220   46.3690 C   0  0  0  0  0  0  0  0  0  0  0  0
   56.6348   34.6795   46.2814 H   0  0  0  0  0  0  0  0  0  0  0  0
   57.1748   35.3982   44.7262 H   0  0  0  0  0  0  0  0  0  0  0  0
   56.0386   34.0068   44.7262 H   0  0  0  0  0  0  0  0  0  0  0  0
   59.9927   34.5388   45.2779 H   0  0  0  0  0  0  0  0  0  0  0  0
   59.8208   33.4172   43.8854 H   0  0  0  0  0  0  0  0  0  0  0  0
   58.9510   34.9888   43.8854 H   0  0  0  0  0  0  0  0  0  0  0  0
   56.8240   32.4450   43.7837 H   0  0  0  0  0  0  0  0  0  0  0  0
   58.5606   31.9361   43.7693 H   0  0  0  0  0  0  0  0  0  0  0  0
   57.6380   31.4460   46.1770 H   0  0  0  0  0  0  0  0  0  0  0  0
   63.7938   34.6376   48.1375 H   0  0  0  0  0  0  0  0  0  0  0  0
   64.5406   32.3096   47.6196 H   0  0  0  0  0  0  0  0  0  0  0  0
   62.8402   30.5731   47.0491 H   0  0  0  0  0  0  0  0  0  0  0  0
   59.3820   31.1520   46.3450 H   0  0  0  0  0  0  0  0  0  0  0  0
   60.1808   27.0706   48.5225 H   0  0  0  0  0  0  0  0  0  0  0  0
   58.4981   25.3042   48.0143 H   0  0  0  0  0  0  0  0  0  0  0  0
   54.7750   26.7180   45.2060 H   0  0  0  0  0  0  0  0  0  0  0  0
   56.4153   28.0389   45.3877 H   0  0  0  0  0  0  0  0  0  0  0  0
   58.0899   29.8117   45.8976 H   0  0  0  0  0  0  0  0  0  0  0  0
  1  2  1  0
  2  3  1  0
  2  4  1  0
  4  5  1  0
  2  6  1  0
  6  7  1  0
  7  8  2  0
  7  9  1  0
  9 10  2  0
 10 11  1  0
 11 12  2  0
 12 13  1  0
 13 14  2  0
 14 15  1  0
 15 16  1  0
 16 17  2  0
 16 18  1  0
 18 19  2  0
 19 20  1  0
 20 21  2  0
 21 22  1  0
 22 23  1  0
 22 24  2  0
 22 25  2  0
 21 26  1  0
 26 27  2  0
 14  9  1  0
 27 18  1  0
  1 28  1  0
  1 29  1  0
  1 30  1  0
  3 31  1  0
  3 32  1  0
  3 33  1  0
  4 34  1  0
  4 35  1  0
  5 36  1  0
 11 37  1  0
 12 38  1  0
 13 39  1  0
 15 40  1  0
 19 41  1  0
 20 42  1  0
 23 43  1  0
 26 44  1  0
 27 45  1  0
M  CHG  2   6  -1  23  -1
M  END
>  <UniqueID>  (64) 
58

>  <SMILES>  (64) 
CC(C)(CO)[N-]C(=O)c1ncccc1NC(=O)c1ccc(S([NH-])(=O)=O)cc1

>  <Energy>  (64) 
50.89683155445784

>  <Genealogy>  (64) 
CC(C)(CO)[N-]C(=O)c1ncccc1NC(=O)c1ccc(S([NH-])(=O)=O)cc1 (protonated)
CC(C)(CO)[N-]C(=O)c1ncccc1NC(=O)c1ccc(S([NH-])(=O)=O)cc1 (3D coordinates assigned)
CC(C)(CO)[N-]C(=O)c1ncccc1NC(=O)c1ccc(S([NH-])(=O)=O)cc1 (optimized conformer: 50.89683155445784 kcal/mol)

>  <smiles>  (64) 
CC(C)(CO)NC(=O)c1ncccc1NC(=O)c1ccc(S(N)(=O)=O)cc1

>  <score_type>  (64) 
oracle

>  <origin>  (64) 
adg

>  <m_score__min__energy>  (64) 
-11.949999999999999

>  <m_primary>  (64) 
energy

$$$$
64:0
     RDKit          3D

 58 61  0  0  0  0  0  0  0  0999 V2000
   56.9500   29.4280   42.4270 O   0  0  0  0  0  0  0  0  0  0  0  0
   57.0320   29.0390   43.6210 C   0  0  0  0  0  0  0  0  0  0  0  0
   56.3460   29.8180   44.7010 C   0  0  0  0  0  0  0  0  0  0  0  0
   57.1950   30.9860   45.1230 C   0  0  0  0  0  0  0  0  0  0  0  0
   57.0380   32.2340   44.4970 C   0  0  0  0  0  0  0  0  0  0  0  0
   57.8700   33.3050   44.8370 C   0  0  0  0  0  0  0  0  0  0  0  0
   58.8740   33.1380   45.8050 C   0  0  0  0  0  0  0  0  0  0  0  0
   59.9600   34.4610   46.2190 S   0  0  0  0  0  0  0  0  0  0  0  0
   61.3870   34.0400   46.0030 O   0  0  0  0  0  0  0  0  0  0  0  0
   59.6580   35.6350   45.3300 O   0  0  0  0  0  0  0  0  0  0  0  0
   59.7410   34.9490   47.8690 N   0  0  0  0  0  0  0  0  0  0  0  0
   60.0160   34.0910   48.9780 C   0  0  0  0  0  0  0  0  0  0  0  0
   61.0370   34.3170   49.6810 O   0  0  0  0  0  0  0  0  0  0  0  0
   59.0780   33.0590   49.3400 N   0  0  0  0  0  0  0  0  0  0  0  0
   59.3120   31.8100   49.6390 C   0  0  0  0  0  0  0  0  0  0  0  0
   60.4860   31.1290   49.2450 C   0  0  0  0  0  0  0  0  0  0  0  0
   60.6520   29.7870   49.5930 C   0  0  0  0  0  0  0  0  0  0  0  0
   59.6600   29.1280   50.3140 C   0  0  0  0  0  0  0  0  0  0  0  0
   58.5040   29.8220   50.6750 C   0  0  0  0  0  0  0  0  0  0  0  0
   58.3580   31.1280   50.3290 N   0  0  0  0  0  0  0  0  0  0  0  0
   59.0310   31.8940   46.4310 C   0  0  0  0  0  0  0  0  0  0  0  0
   58.2080   30.8190   46.0820 C   0  0  0  0  0  0  0  0  0  0  0  0
   57.7140   27.8200   43.9460 N   0  0  0  0  0  0  0  0  0  0  0  0
   58.4410   27.5680   45.1580 C   0  0  0  0  0  0  0  0  0  0  0  0
   59.7480   28.0610   45.3290 C   0  0  0  0  0  0  0  0  0  0  0  0
   60.4370   27.8430   46.5240 C   0  0  0  0  0  0  0  0  0  0  0  0
   59.8320   27.1360   47.5610 C   0  0  0  0  0  0  0  0  0  0  0  0
   58.5290   26.6560   47.4150 C   0  0  0  0  0  0  0  0  0  0  0  0
   57.8100   26.8840   46.2280 C   0  0  0  0  0  0  0  0  0  0  0  0
   56.4320   26.3510   46.0860 C   0  0  0  0  0  0  0  0  0  0  0  0
   55.5270   27.0980   45.6300 O   0  0  0  0  0  0  0  0  0  0  0  0
   56.1010   24.9920   46.4000 N   0  0  0  0  0  0  0  0  0  0  0  0
   56.3270   23.8500   45.5630 C   0  0  0  0  0  0  0  0  0  0  0  0
   56.1710   22.5740   46.1230 C   0  0  0  0  0  0  0  0  0  0  0  0
   56.3280   21.4280   45.3400 C   0  0  0  0  0  0  0  0  0  0  0  0
   56.6590   21.5470   43.9870 C   0  0  0  0  0  0  0  0  0  0  0  0
   56.8530   22.8130   43.4240 C   0  0  0  0  0  0  0  0  0  0  0  0
   56.7120   23.9690   44.2050 C   0  0  0  0  0  0  0  0  0  0  0  0
   56.9890   25.2050   43.6150 O   0  0  0  0  0  0  0  0  0  0  0  0
   55.3812   30.1883   44.3242 H   0  0  0  0  0  0  0  0  0  0  0  0
   56.1851   29.1611   45.5685 H   0  0  0  0  0  0  0  0  0  0  0  0
   56.2561   32.3692   43.7352 H   0  0  0  0  0  0  0  0  0  0  0  0
   57.7381   34.2802   44.3455 H   0  0  0  0  0  0  0  0  0  0  0  0
   61.2631   31.6522   48.6685 H   0  0  0  0  0  0  0  0  0  0  0  0
   61.5660   29.2508   49.2977 H   0  0  0  0  0  0  0  0  0  0  0  0
   59.7858   28.0722   50.5960 H   0  0  0  0  0  0  0  0  0  0  0  0
   57.7104   29.3113   51.2401 H   0  0  0  0  0  0  0  0  0  0  0  0
   59.8057   31.7627   47.2008 H   0  0  0  0  0  0  0  0  0  0  0  0
   58.3541   29.8391   46.5599 H   0  0  0  0  0  0  0  0  0  0  0  0
   60.2305   28.6223   44.5153 H   0  0  0  0  0  0  0  0  0  0  0  0
   61.4593   28.2302   46.6468 H   0  0  0  0  0  0  0  0  0  0  0  0
   60.3819   26.9556   48.4965 H   0  0  0  0  0  0  0  0  0  0  0  0
   58.0603   26.0941   48.2363 H   0  0  0  0  0  0  0  0  0  0  0  0
   55.9224   22.4745   47.1899 H   0  0  0  0  0  0  0  0  0  0  0  0
   56.1913   20.4326   45.7877 H   0  0  0  0  0  0  0  0  0  0  0  0
   56.7668   20.6459   43.3655 H   0  0  0  0  0  0  0  0  0  0  0  0
   57.1183   22.9022   42.3602 H   0  0  0  0  0  0  0  0  0  0  0  0
   56.6510   26.0800   43.9940 H   0  0  0  0  0  0  0  0  0  0  0  0
  1  2  2  0
  2  3  1  0
  3  4  1  0
  4  5  2  0
  5  6  1  0
  6  7  2  0
  7  8  1  0
  8  9  2  0
  8 10  2  0
  8 11  1  0
 11 12  1  0
 12 13  2  0
 12 14  1  0
 14 15  2  3
 15 16  1  0
 16 17  2  0
 17 18  1  0
 18 19  2  0
 19 20  1  0
  7 21  1  0
 21 22  2  0
  2 23  1  0
 23 24  1  0
 24 25  2  0
 25 26  1  0
 26 27  2  0
 27 28  1  0
 28 29  2  0
 29 30  1  0
 30 31  2  0
 30 32  1  0
 32 33  1  0
 33 34  2  0
 34 35  1  0
 35 36  2  0
 36 37  1  0
 37 38  2  0
 38 39  1  0
 22  4  1  0
 29 24  1  0
 38 33  1  0
 20 15  1  0
  3 40  1  0
  3 41  1  0
  5 42  1  0
  6 43  1  0
 16 44  1  0
 17 45  1  0
 18 46  1  0
 19 47  1  0
 21 48  1  0
 22 49  1  0
 25 50  1  0
 26 51  1  0
 27 52  1  0
 28 53  1  0
 34 54  1  0
 35 55  1  0
 36 56  1  0
 37 57  1  0
 39 58  1  0
M  CHG  4  11  -1  20  -1  23  -1  32  -1
M  END
>  <UniqueID>  (65) 
59

>  <SMILES>  (65) 
O=C(Cc1ccc(S(=O)(=O)[N-]C(=O)N=c2cccc[n-]2)cc1)[N-]c1ccccc1C(=O)[N-]c1ccccc1O

>  <Energy>  (65) 
86.70675724317579

>  <Genealogy>  (65) 
O=C(Cc1ccc(S(=O)(=O)[N-]C(=O)N=c2cccc[n-]2)cc1)[N-]c1ccccc1C(=O)[N-]c1ccccc1O (protonated)
O=C(Cc1ccc(S(=O)(=O)[N-]C(=O)N=c2cccc[n-]2)cc1)[N-]c1ccccc1C(=O)[N-]c1ccccc1O (3D coordinates assigned)
O=C(Cc1ccc(S(=O)(=O)[N-]C(=O)N=c2cccc[n-]2)cc1)[N-]c1ccccc1C(=O)[N-]c1ccccc1O (optimized conformer: 86.70675724317579 kcal/mol)

>  <smiles>  (65) 
O=C(Cc1ccc(S(=O)(=O)NC(=O)N=c2cccc[nH]2)cc1)Nc1ccccc1C(=O)Nc1ccccc1O

>  <score_type>  (65) 
oracle

>  <origin>  (65) 
adg

>  <m_score__min__energy>  (65) 
-14.19

>  <m_primary>  (65) 
energy

$$$$
65:0
     RDKit          3D

 55 57  0  0  0  0  0  0  0  0999 V2000
   68.1330   33.6430   50.4970 C   0  0  0  0  0  0  0  0  0  0  0  0
   67.1080   32.5200   50.5020 C   0  0  0  0  0  0  0  0  0  0  0  0
   65.9120   32.9690   49.8730 O   0  0  0  0  0  0  0  0  0  0  0  0
   64.6880   32.3020   50.0050 C   0  0  0  0  0  0  0  0  0  0  0  0
   64.5450   31.4030   50.8810 O   0  0  0  0  0  0  0  0  0  0  0  0
   63.5860   32.6680   49.1500 N   0  0  0  0  0  0  0  0  0  0  0  0
   64.0830   33.0360   47.8000 C   0  0  0  0  0  0  0  0  0  0  0  0
   63.0690   33.8760   46.9950 C   0  0  0  0  0  0  0  0  0  0  0  0
   61.7130   33.7120   47.5360 N   0  0  0  0  0  0  0  0  0  0  0  0
   60.6160   33.3300   46.6850 C   0  0  0  0  0  0  0  0  0  0  0  0
   60.0250   34.2680   45.8230 C   0  0  0  0  0  0  0  0  0  0  0  0
   58.9530   33.8980   45.0050 C   0  0  0  0  0  0  0  0  0  0  0  0
   58.4510   32.5900   45.0420 C   0  0  0  0  0  0  0  0  0  0  0  0
   57.2900   32.2050   44.1640 C   0  0  0  0  0  0  0  0  0  0  0  0
   56.4150   31.2580   44.8490 N   0  0  0  0  0  0  0  0  0  0  0  0
   56.2140   29.8810   44.5060 C   0  0  0  0  0  0  0  0  0  0  0  0
   55.1390   29.3270   44.8590 O   0  0  0  0  0  0  0  0  0  0  0  0
   57.2640   29.0530   43.8110 C   0  0  0  0  0  0  0  0  0  0  0  0
   58.2010   28.4270   44.8100 C   0  0  0  0  0  0  0  0  0  0  0  0
   59.5910   28.5760   44.6720 C   0  0  0  0  0  0  0  0  0  0  0  0
   60.4590   27.9900   45.5980 C   0  0  0  0  0  0  0  0  0  0  0  0
   59.9470   27.2410   46.6610 C   0  0  0  0  0  0  0  0  0  0  0  0
   60.7910   26.6720   47.5560 F   0  0  0  0  0  0  0  0  0  0  0  0
   58.5660   27.0680   46.7920 C   0  0  0  0  0  0  0  0  0  0  0  0
   57.6950   27.6560   45.8710 C   0  0  0  0  0  0  0  0  0  0  0  0
   59.0240   31.6570   45.9220 C   0  0  0  0  0  0  0  0  0  0  0  0
   60.1010   32.0240   46.7330 C   0  0  0  0  0  0  0  0  0  0  0  0
   61.4880   33.9600   48.9660 C   0  0  0  0  0  0  0  0  0  0  0  0
   62.7880   33.7530   49.7600 C   0  0  0  0  0  0  0  0  0  0  0  0
   68.3825   33.9163   51.5329 H   0  0  0  0  0  0  0  0  0  0  0  0
   69.0424   33.3071   49.9773 H   0  0  0  0  0  0  0  0  0  0  0  0
   67.7157   34.5180   49.9773 H   0  0  0  0  0  0  0  0  0  0  0  0
   67.5087   31.6548   49.9535 H   0  0  0  0  0  0  0  0  0  0  0  0
   66.8898   32.2261   51.5393 H   0  0  0  0  0  0  0  0  0  0  0  0
   62.9700   31.8230   49.0550 H   0  0  0  0  0  0  0  0  0  0  0  0
   65.0093   33.6183   47.9137 H   0  0  0  0  0  0  0  0  0  0  0  0
   64.2523   32.1017   47.2446 H   0  0  0  0  0  0  0  0  0  0  0  0
   63.3541   34.9369   47.0508 H   0  0  0  0  0  0  0  0  0  0  0  0
   63.0765   33.5331   45.9498 H   0  0  0  0  0  0  0  0  0  0  0  0
   60.4073   35.2989   45.7912 H   0  0  0  0  0  0  0  0  0  0  0  0
   58.5009   34.6381   44.3283 H   0  0  0  0  0  0  0  0  0  0  0  0
   56.7155   33.1077   43.9091 H   0  0  0  0  0  0  0  0  0  0  0  0
   57.6796   31.7295   43.2518 H   0  0  0  0  0  0  0  0  0  0  0  0
   56.7712   28.2582   43.2319 H   0  0  0  0  0  0  0  0  0  0  0  0
   57.8454   29.7081   43.1456 H   0  0  0  0  0  0  0  0  0  0  0  0
   59.9984   29.1566   43.8312 H   0  0  0  0  0  0  0  0  0  0  0  0
   61.5461   28.1186   45.4898 H   0  0  0  0  0  0  0  0  0  0  0  0
   58.1642   26.4678   47.6217 H   0  0  0  0  0  0  0  0  0  0  0  0
   56.6092   27.5150   45.9766 H   0  0  0  0  0  0  0  0  0  0  0  0
   58.6234   30.6338   45.9728 H   0  0  0  0  0  0  0  0  0  0  0  0
   60.5487   31.2850   47.4138 H   0  0  0  0  0  0  0  0  0  0  0  0
   61.1408   34.9946   49.1036 H   0  0  0  0  0  0  0  0  0  0  0  0
   60.7300   33.2531   49.3345 H   0  0  0  0  0  0  0  0  0  0  0  0
   63.3727   34.6847   49.7507 H   0  0  0  0  0  0  0  0  0  0  0  0
   62.5387   33.4792   50.7958 H   0  0  0  0  0  0  0  0  0  0  0  0
  1  2  1  0
  2  3  1  0
  3  4  1  0
  4  5  2  0
  4  6  1  0
  6  7  1  0
  7  8  1  0
  8  9  1  0
  9 10  1  0
 10 11  2  0
 11 12  1  0
 12 13  2  0
 13 14  1  0
 14 15  1  0
 15 16  1  0
 16 17  2  0
 16 18  1  0
 18 19  1  0
 19 20  2  0
 20 21  1  0
 21 22  2  0
 22 23  1  0
 22 24  1  0
 24 25  2  0
 13 26  1  0
 26 27  2  0
  9 28  1  0
 28 29  1  0
 29  6  1  0
 27 10  1  0
 25 19  1  0
  1 30  1  0
  1 31  1  0
  1 32  1  0
  2 33  1  0
  2 34  1  0
  6 35  1  0
  7 36  1  0
  7 37  1  0
  8 38  1  0
  8 39  1  0
 11 40  1  0
 12 41  1  0
 14 42  1  0
 14 43  1  0
 18 44  1  0
 18 45  1  0
 20 46  1  0
 21 47  1  0
 24 48  1  0
 25 49  1  0
 26 50  1  0
 27 51  1  0
 28 52  1  0
 28 53  1  0
 29 54  1  0
 29 55  1  0
M  CHG  2   6   1  15  -1
M  END
>  <UniqueID>  (66) 
60

>  <SMILES>  (66) 
CCOC(=O)[NH+]1CCN(c2ccc(C[N-]C(=O)Cc3ccc(F)cc3)cc2)CC1

>  <Energy>  (66) 
58.66712905203172

>  <Genealogy>  (66) 
CCOC(=O)[NH+]1CCN(c2ccc(C[N-]C(=O)Cc3ccc(F)cc3)cc2)CC1 (protonated)
CCOC(=O)[NH+]1CCN(c2ccc(C[N-]C(=O)Cc3ccc(F)cc3)cc2)CC1 (3D coordinates assigned)
CCOC(=O)[NH+]1CCN(c2ccc(C[N-]C(=O)Cc3ccc(F)cc3)cc2)CC1 (nonaromatic ring conformer: 58.66712905203172 kcal/mol)

>  <smiles>  (66) 
CCOC(=O)N1CCN(c2ccc(CNC(=O)Cc3ccc(F)cc3)cc2)CC1

>  <score_type>  (66) 
oracle

>  <origin>  (66) 
adg

>  <m_score__min__energy>  (66) 
-8.9199999999999999

>  <m_primary>  (66) 
energy

$$$$
66:0
     RDKit          3D

 52 55  0  0  0  0  0  0  0  0999 V2000
   58.0150   29.3990   44.3640 O   0  0  0  0  0  0  0  0  0  0  0  0
   56.8100   29.6290   44.6690 C   0  0  0  0  0  0  0  0  0  0  0  0
   56.2630   30.9550   44.5180 N   0  0  0  0  0  0  0  0  0  0  0  0
   57.0040   32.1740   44.6780 C   0  0  0  0  0  0  0  0  0  0  0  0
   58.0590   32.4570   43.7890 C   0  0  0  0  0  0  0  0  0  0  0  0
   58.7880   33.6480   43.9090 C   0  0  0  0  0  0  0  0  0  0  0  0
   58.4800   34.5500   44.9350 C   0  0  0  0  0  0  0  0  0  0  0  0
   57.4550   34.2570   45.8480 C   0  0  0  0  0  0  0  0  0  0  0  0
   56.7170   33.0730   45.7220 C   0  0  0  0  0  0  0  0  0  0  0  0
   56.0000   28.6060   45.2720 N   0  0  0  0  0  0  0  0  0  0  0  0
   56.4540   27.2830   45.6120 C   0  0  0  0  0  0  0  0  0  0  0  0
   55.5050   26.2620   45.7780 C   0  0  0  0  0  0  0  0  0  0  0  0
   55.9070   24.9660   46.1120 C   0  0  0  0  0  0  0  0  0  0  0  0
   57.2630   24.6760   46.2850 C   0  0  0  0  0  0  0  0  0  0  0  0
   58.2220   25.6780   46.1020 C   0  0  0  0  0  0  0  0  0  0  0  0
   59.9600   25.3100   46.3500 S   0  0  0  0  0  0  0  0  0  0  0  0
   60.3720   27.0430   46.5740 C   0  0  0  0  0  0  0  0  0  0  0  0
   60.6460   27.8500   45.4640 C   0  0  0  0  0  0  0  0  0  0  0  0
   60.9170   29.2120   45.6380 C   0  0  0  0  0  0  0  0  0  0  0  0
   60.9220   29.7850   46.9250 C   0  0  0  0  0  0  0  0  0  0  0  0
   61.1730   31.1990   47.1010 N   0  0  0  0  0  0  0  0  0  0  0  0
   60.0820   32.1670   46.9130 C   0  0  0  0  0  0  0  0  0  0  0  0
   60.3920   33.4780   47.6430 C   0  0  0  0  0  0  0  0  0  0  0  0
   61.6770   34.0530   47.2070 N   0  0  0  0  0  0  0  0  0  0  0  0
   62.7740   33.0690   47.0340 C   0  0  0  0  0  0  0  0  0  0  0  0
   62.4640   31.6780   47.6110 C   0  0  0  0  0  0  0  0  0  0  0  0
   60.6600   28.9590   48.0360 C   0  0  0  0  0  0  0  0  0  0  0  0
   60.3890   27.5980   47.8590 C   0  0  0  0  0  0  0  0  0  0  0  0
   57.8210   26.9720   45.7470 C   0  0  0  0  0  0  0  0  0  0  0  0
   58.3125   31.7387   42.9954 H   0  0  0  0  0  0  0  0  0  0  0  0
   59.5986   33.8733   43.2003 H   0  0  0  0  0  0  0  0  0  0  0  0
   59.0429   35.4907   45.0256 H   0  0  0  0  0  0  0  0  0  0  0  0
   57.2306   34.9590   46.6646 H   0  0  0  0  0  0  0  0  0  0  0  0
   55.9138   32.8462   46.4385 H   0  0  0  0  0  0  0  0  0  0  0  0
   55.0630   28.9030   45.6250 H   0  0  0  0  0  0  0  0  0  0  0  0
   54.4360   26.4840   45.6440 H   0  0  0  0  0  0  0  0  0  0  0  0
   55.1551   24.1732   46.2389 H   0  0  0  0  0  0  0  0  0  0  0  0
   57.5765   23.6595   46.5652 H   0  0  0  0  0  0  0  0  0  0  0  0
   60.6484   27.4136   44.4543 H   0  0  0  0  0  0  0  0  0  0  0  0
   61.1282   29.8415   44.7610 H   0  0  0  0  0  0  0  0  0  0  0  0
   59.9611   32.3712   45.8389 H   0  0  0  0  0  0  0  0  0  0  0  0
   59.1556   31.7416   47.3263 H   0  0  0  0  0  0  0  0  0  0  0  0
   59.5891   34.2005   47.4350 H   0  0  0  0  0  0  0  0  0  0  0  0
   60.4596   33.2636   48.7198 H   0  0  0  0  0  0  0  0  0  0  0  0
   61.9640   34.7600   47.9270 H   0  0  0  0  0  0  0  0  0  0  0  0
   62.9743   32.9602   45.9579 H   0  0  0  0  0  0  0  0  0  0  0  0
   63.6403   33.4577   47.5893 H   0  0  0  0  0  0  0  0  0  0  0  0
   63.2565   30.9754   47.3137 H   0  0  0  0  0  0  0  0  0  0  0  0
   62.4167   31.7445   48.7080 H   0  0  0  0  0  0  0  0  0  0  0  0
   60.6686   29.3871   49.0492 H   0  0  0  0  0  0  0  0  0  0  0  0
   60.1884   26.9613   48.7333 H   0  0  0  0  0  0  0  0  0  0  0  0
   58.5784   27.7504   45.5725 H   0  0  0  0  0  0  0  0  0  0  0  0
  1  2  2  0
  2  3  1  0
  3  4  1  0
  4  5  2  0
  5  6  1  0
  6  7  2  0
  7  8  1  0
  8  9  2  0
  2 10  1  0
 10 11  1  0
 11 12  2  0
 12 13  1  0
 13 14  2  0
 14 15  1  0
 15 16  1  0
 16 17  1  0
 17 18  2  0
 18 19  1  0
 19 20  2  0
 20 21  1  0
 21 22  1  0
 22 23  1  0
 23 24  1  0
 24 25  1  0
 25 26  1  0
 20 27  1  0
 27 28  2  0
 15 29  2  0
  9  4  1  0
 29 11  1  0
 28 17  1  0
 26 21  1  0
  5 30  1  0
  6 31  1  0
  7 32  1  0
  8 33  1  0
  9 34  1  0
 10 35  1  0
 12 36  1  0
 13 37  1  0
 14 38  1  0
 18 39  1  0
 19 40  1  0
 22 41  1  0
 22 42  1  0
 23 43  1  0
 23 44  1  0
 24 45  1  0
 25 46  1  0
 25 47  1  0
 26 48  1  0
 26 49  1  0
 27 50  1  0
 28 51  1  0
 29 52  1  0
M  CHG  1   3  -1
M  END
>  <UniqueID>  (67) 
61

>  <SMILES>  (67) 
O=C([N-]c1ccccc1)Nc1cccc(Sc2ccc(N3CCNCC3)cc2)c1

>  <Energy>  (67) 
66.05581534229164

>  <Genealogy>  (67) 
O=C([N-]c1ccccc1)Nc1cccc(Sc2ccc(N3CCNCC3)cc2)c1 (protonated)
O=C([N-]c1ccccc1)Nc1cccc(Sc2ccc(N3CCNCC3)cc2)c1 (3D coordinates assigned)
O=C([N-]c1ccccc1)Nc1cccc(Sc2ccc(N3CCNCC3)cc2)c1 (nonaromatic ring conformer: 66.05581534229164 kcal/mol)

>  <smiles>  (67) 
O=C(Nc1ccccc1)Nc1cccc(Sc2ccc(N3CCNCC3)cc2)c1

>  <score_type>  (67) 
oracle

>  <origin>  (67) 
adg

>  <m_score__min__energy>  (67) 
-10.23

>  <m_primary>  (67) 
energy

$$$$
67:0
     RDKit          3D

 49 51  0  0  0  0  0  0  0  0999 V2000
   55.4160   29.1770   44.8660 O   0  0  0  0  0  0  0  0  0  0  0  0
   56.6230   29.0450   45.2020 C   0  0  0  0  0  0  0  0  0  0  0  0
   57.3240   27.7580   44.9250 C   0  0  0  0  0  0  0  0  0  0  0  0
   56.7200   26.4900   46.0160 Cl  0  0  0  0  0  0  0  0  0  0  0  0
   57.3160   30.0940   45.8860 N   0  0  0  0  0  0  0  0  0  0  0  0
   57.8250   31.3070   45.3130 C   0  0  0  0  0  0  0  0  0  0  0  0
   57.6160   31.5400   43.9530 C   0  0  0  0  0  0  0  0  0  0  0  0
   58.0800   32.7150   43.3550 C   0  0  0  0  0  0  0  0  0  0  0  0
   58.7440   33.6760   44.1200 C   0  0  0  0  0  0  0  0  0  0  0  0
   58.9340   33.4700   45.4940 C   0  0  0  0  0  0  0  0  0  0  0  0
   59.7320   34.6890   46.4840 S   0  0  0  0  0  0  0  0  0  0  0  0
   59.6550   36.0110   45.7730 O   0  0  0  0  0  0  0  0  0  0  0  0
   59.0580   34.8240   47.8210 O   0  0  0  0  0  0  0  0  0  0  0  0
   61.3990   34.2600   46.7170 N   0  0  0  0  0  0  0  0  0  0  0  0
   61.8430   33.2470   47.6360 C   0  0  0  0  0  0  0  0  0  0  0  0
   63.1080   33.3030   48.2470 C   0  0  0  0  0  0  0  0  0  0  0  0
   63.5080   32.3030   49.1360 C   0  0  0  0  0  0  0  0  0  0  0  0
   62.6540   31.2380   49.4250 C   0  0  0  0  0  0  0  0  0  0  0  0
   61.3920   31.1670   48.8250 C   0  0  0  0  0  0  0  0  0  0  0  0
   60.3220   29.8170   49.1960 S   0  0  0  0  0  0  0  0  0  0  0  0
   59.1870   30.2820   50.0670 O   0  0  0  0  0  0  0  0  0  0  0  0
   61.1030   28.7770   49.9480 O   0  0  0  0  0  0  0  0  0  0  0  0
   59.6970   29.1330   47.7120 N   0  0  0  0  0  0  0  0  0  0  0  0
   59.3660   27.7010   47.8790 C   0  0  0  0  0  0  0  0  0  0  0  0
   60.4240   26.7830   47.2420 C   0  0  0  0  0  0  0  0  0  0  0  0
   60.6160   27.0170   45.8530 O   0  0  0  0  0  0  0  0  0  0  0  0
   60.4270   28.3720   45.4700 C   0  0  0  0  0  0  0  0  0  0  0  0
   60.6450   29.3800   46.6100 C   0  0  0  0  0  0  0  0  0  0  0  0
   60.9940   32.1670   47.9270 C   0  0  0  0  0  0  0  0  0  0  0  0
   58.4740   32.2880   46.0880 C   0  0  0  0  0  0  0  0  0  0  0  0
   57.1397   27.4598   43.8824 H   0  0  0  0  0  0  0  0  0  0  0  0
   58.4034   27.8919   45.0892 H   0  0  0  0  0  0  0  0  0  0  0  0
   57.0820   30.7932   43.3470 H   0  0  0  0  0  0  0  0  0  0  0  0
   57.9218   32.8830   42.2795 H   0  0  0  0  0  0  0  0  0  0  0  0
   59.1181   34.5948   43.6448 H   0  0  0  0  0  0  0  0  0  0  0  0
   62.0910   34.6930   46.0640 H   0  0  0  0  0  0  0  0  0  0  0  0
   63.7866   34.1394   48.0235 H   0  0  0  0  0  0  0  0  0  0  0  0
   64.4993   32.3551   49.6099 H   0  0  0  0  0  0  0  0  0  0  0  0
   62.9736   30.4527   50.1259 H   0  0  0  0  0  0  0  0  0  0  0  0
   59.3014   27.4751   48.9536 H   0  0  0  0  0  0  0  0  0  0  0  0
   58.4073   27.5142   47.3730 H   0  0  0  0  0  0  0  0  0  0  0  0
   61.3818   26.9453   47.7580 H   0  0  0  0  0  0  0  0  0  0  0  0
   60.0622   25.7497   47.3489 H   0  0  0  0  0  0  0  0  0  0  0  0
   61.1359   28.6051   44.6618 H   0  0  0  0  0  0  0  0  0  0  0  0
   59.3778   28.4703   45.1545 H   0  0  0  0  0  0  0  0  0  0  0  0
   61.6729   29.2802   46.9887 H   0  0  0  0  0  0  0  0  0  0  0  0
   60.4786   30.3954   46.2211 H   0  0  0  0  0  0  0  0  0  0  0  0
   60.0069   32.1051   47.4455 H   0  0  0  0  0  0  0  0  0  0  0  0
   58.6204   32.1248   47.1659 H   0  0  0  0  0  0  0  0  0  0  0  0
  1  2  2  0
  2  3  1  0
  3  4  1  0
  2  5  1  0
  5  6  1  0
  6  7  2  0
  7  8  1  0
  8  9  2  0
  9 10  1  0
 10 11  1  0
 11 12  2  0
 11 13  2  0
 11 14  1  0
 14 15  1  0
 15 16  2  0
 16 17  1  0
 17 18  2  0
 18 19  1  0
 19 20  1  0
 20 21  2  0
 20 22  2  0
 20 23  1  0
 23 24  1  0
 24 25  1  0
 25 26  1  0
 26 27  1  0
 27 28  1  0
 19 29  2  0
 10 30  2  0
 30  6  1  0
 29 15  1  0
 28 23  1  0
  3 31  1  0
  3 32  1  0
  7 33  1  0
  8 34  1  0
  9 35  1  0
 14 36  1  0
 16 37  1  0
 17 38  1  0
 18 39  1  0
 24 40  1  0
 24 41  1  0
 25 42  1  0
 25 43  1  0
 27 44  1  0
 27 45  1  0
 28 46  1  0
 28 47  1  0
 29 48  1  0
 30 49  1  0
M  CHG  1   5  -1
M  END
>  <UniqueID>  (68) 
62

>  <SMILES>  (68) 
O=C(CCl)[N-]c1cccc(S(=O)(=O)Nc2cccc(S(=O)(=O)N3CCOCC3)c2)c1

>  <Energy>  (68) 
66.79672355101007

>  <Genealogy>  (68) 
O=C(CCl)[N-]c1cccc(S(=O)(=O)Nc2cccc(S(=O)(=O)N3CCOCC3)c2)c1 (protonated)
O=C(CCl)[N-]c1cccc(S(=O)(=O)Nc2cccc(S(=O)(=O)N3CCOCC3)c2)c1 (3D coordinates assigned)
O=C(CCl)[N-]c1cccc(S(=O)(=O)Nc2cccc(S(=O)(=O)N3CCOCC3)c2)c1 (nonaromatic ring conformer: 66.79672355101007 kcal/mol)

>  <smiles>  (68) 
O=C(CCl)Nc1cccc(S(=O)(=O)Nc2cccc(S(=O)(=O)N3CCOCC3)c2)c1

>  <score_type>  (68) 
oracle

>  <origin>  (68) 
adg

>  <m_score__min__energy>  (68) 
-11.93

>  <m_primary>  (68) 
energy

$$$$
68:0
     RDKit          3D

 53 56  0  0  0  0  0  0  0  0999 V2000
   61.5190   28.4420   50.4800 O   0  0  0  0  0  0  0  0  0  0  0  0
   60.7260   29.4210   50.3950 C   0  0  0  0  0  0  0  0  0  0  0  0
   59.5220   29.3190   49.5150 C   0  0  0  0  0  0  0  0  0  0  0  0
   59.9060   28.6990   48.2020 C   0  0  0  0  0  0  0  0  0  0  0  0
   60.0380   27.3050   48.0890 C   0  0  0  0  0  0  0  0  0  0  0  0
   60.3500   26.7240   46.8560 C   0  0  0  0  0  0  0  0  0  0  0  0
   60.5240   27.5290   45.7260 C   0  0  0  0  0  0  0  0  0  0  0  0
   60.3830   28.9160   45.8270 C   0  0  0  0  0  0  0  0  0  0  0  0
   60.0710   29.5010   47.0590 C   0  0  0  0  0  0  0  0  0  0  0  0
   60.9870   30.6460   51.0960 N   0  0  0  0  0  0  0  0  0  0  0  0
   61.3340   31.8000   50.5940 C   0  0  0  0  0  0  0  0  0  0  0  0
   60.7890   32.3060   49.3950 C   0  0  0  0  0  0  0  0  0  0  0  0
   61.1970   33.5650   48.9220 C   0  0  0  0  0  0  0  0  0  0  0  0
   60.6900   34.1140   47.7330 O   0  0  0  0  0  0  0  0  0  0  0  0
   59.6410   33.5780   46.9710 C   0  0  0  0  0  0  0  0  0  0  0  0
   58.3300   34.0810   47.0520 C   0  0  0  0  0  0  0  0  0  0  0  0
   57.3080   33.5140   46.2860 C   0  0  0  0  0  0  0  0  0  0  0  0
   57.5830   32.4400   45.4230 C   0  0  0  0  0  0  0  0  0  0  0  0
   56.5600   31.8470   44.6120 N   0  0  0  0  0  0  0  0  0  0  0  0
   56.3470   30.4410   44.4440 C   0  0  0  0  0  0  0  0  0  0  0  0
   55.2060   29.9650   44.6840 O   0  0  0  0  0  0  0  0  0  0  0  0
   57.3830   29.6010   43.9100 N   0  0  0  0  0  0  0  0  0  0  0  0
   57.4260   28.1720   44.0690 C   0  0  0  0  0  0  0  0  0  0  0  0
   57.7630   27.3680   42.9690 C   0  0  0  0  0  0  0  0  0  0  0  0
   57.8430   25.9790   43.1040 C   0  0  0  0  0  0  0  0  0  0  0  0
   57.6000   25.3760   44.3430 C   0  0  0  0  0  0  0  0  0  0  0  0
   57.7160   23.6270   44.4760 Cl  0  0  0  0  0  0  0  0  0  0  0  0
   57.2810   26.1730   45.4560 C   0  0  0  0  0  0  0  0  0  0  0  0
   56.9970   25.4560   47.0360 Cl  0  0  0  0  0  0  0  0  0  0  0  0
   57.2030   27.5630   45.3180 C   0  0  0  0  0  0  0  0  0  0  0  0
   58.9000   31.9820   45.2980 C   0  0  0  0  0  0  0  0  0  0  0  0
   59.9210   32.5430   46.0700 C   0  0  0  0  0  0  0  0  0  0  0  0
   62.1740   34.2720   49.6230 C   0  0  0  0  0  0  0  0  0  0  0  0
   62.7160   33.7300   50.7880 C   0  0  0  0  0  0  0  0  0  0  0  0
   62.2890   32.5210   51.2400 N   0  0  0  0  0  0  0  0  0  0  0  0
   58.7619   28.6938   50.0063 H   0  0  0  0  0  0  0  0  0  0  0  0
   59.1141   30.3250   49.3375 H   0  0  0  0  0  0  0  0  0  0  0  0
   59.8953   26.6678   48.9742 H   0  0  0  0  0  0  0  0  0  0  0  0
   60.4587   25.6324   46.7749 H   0  0  0  0  0  0  0  0  0  0  0  0
   60.7719   27.0706   44.7573 H   0  0  0  0  0  0  0  0  0  0  0  0
   60.5175   29.5482   44.9369 H   0  0  0  0  0  0  0  0  0  0  0  0
   59.9544   30.5922   47.1337 H   0  0  0  0  0  0  0  0  0  0  0  0
   60.0484   31.7180   48.8331 H   0  0  0  0  0  0  0  0  0  0  0  0
   58.1081   34.9250   47.7217 H   0  0  0  0  0  0  0  0  0  0  0  0
   56.2844   33.9100   46.3590 H   0  0  0  0  0  0  0  0  0  0  0  0
   58.1140   30.0540   43.3170 H   0  0  0  0  0  0  0  0  0  0  0  0
   57.9656   27.8343   41.9936 H   0  0  0  0  0  0  0  0  0  0  0  0
   58.0980   25.3576   42.2329 H   0  0  0  0  0  0  0  0  0  0  0  0
   56.9653   28.1853   46.1933 H   0  0  0  0  0  0  0  0  0  0  0  0
   59.1327   31.1752   44.5874 H   0  0  0  0  0  0  0  0  0  0  0  0
   60.9507   32.1694   45.9694 H   0  0  0  0  0  0  0  0  0  0  0  0
   62.5152   35.2522   49.2587 H   0  0  0  0  0  0  0  0  0  0  0  0
   63.4900   34.2814   51.3419 H   0  0  0  0  0  0  0  0  0  0  0  0
  1  2  2  0
  2  3  1  0
  3  4  1  0
  4  5  2  0
  5  6  1  0
  6  7  2  0
  7  8  1  0
  8  9  2  0
  2 10  1  0
 10 11  2  3
 11 12  1  0
 12 13  2  0
 13 14  1  0
 14 15  1  0
 15 16  2  0
 16 17  1  0
 17 18  2  0
 18 19  1  0
 19 20  1  0
 20 21  2  0
 20 22  1  0
 22 23  1  0
 23 24  2  0
 24 25  1  0
 25 26  2  0
 26 27  1  0
 26 28  1  0
 28 29  1  0
 28 30  2  0
 18 31  1  0
 31 32  2  0
 13 33  1  0
 33 34  2  0
 34 35  1  0
  9  4  1  0
 35 11  1  0
 32 15  1  0
 30 23  1  0
  3 36  1  0
  3 37  1  0
  5 38  1  0
  6 39  1  0
  7 40  1  0
  8 41  1  0
  9 42  1  0
 12 43  1  0
 16 44  1  0
 17 45  1  0
 22 46  1  0
 24 47  1  0
 25 48  1  0
 30 49  1  0
 31 50  1  0
 32 51  1  0
 33 52  1  0
 34 53  1  0
M  CHG  2  19  -1  35  -1
M  END
>  <UniqueID>  (69) 
63

>  <SMILES>  (69) 
O=C(Cc1ccccc1)N=c1cc(Oc2ccc([N-]C(=O)Nc3ccc(Cl)c(Cl)c3)cc2)cc[n-]1

>  <Energy>  (69) 
77.3683695885922

>  <Genealogy>  (69) 
O=C(Cc1ccccc1)N=c1cc(Oc2ccc([N-]C(=O)Nc3ccc(Cl)c(Cl)c3)cc2)cc[n-]1 (protonated)
O=C(Cc1ccccc1)N=c1cc(Oc2ccc([N-]C(=O)Nc3ccc(Cl)c(Cl)c3)cc2)cc[n-]1 (3D coordinates assigned)
O=C(Cc1ccccc1)N=c1cc(Oc2ccc([N-]C(=O)Nc3ccc(Cl)c(Cl)c3)cc2)cc[n-]1 (optimized conformer: 77.3683695885922 kcal/mol)

>  <smiles>  (69) 
O=C(Cc1ccccc1)N=c1cc(Oc2ccc(NC(=O)Nc3ccc(Cl)c(Cl)c3)cc2)cc[nH]1

>  <score_type>  (69) 
oracle

>  <origin>  (69) 
adg

>  <m_score__min__energy>  (69) 
-11.609999999999999

>  <m_primary>  (69) 
energy

$$$$
69:0
     RDKit          3D

 41 44  0  0  0  0  0  0  0  0999 V2000
   54.6430   25.0050   45.6200 C   0  0  0  0  0  0  0  0  0  0  0  0
   55.9520   24.8030   46.2660 N   0  0  0  0  0  0  0  0  0  0  0  0
   56.9050   24.0770   45.4020 C   0  0  0  0  0  0  0  0  0  0  0  0
   57.2910   24.8760   44.1460 C   0  0  0  0  0  0  0  0  0  0  0  0
   57.5520   26.3310   44.4480 C   0  0  0  0  0  0  0  0  0  0  0  0
   57.1270   26.9080   45.6570 C   0  0  0  0  0  0  0  0  0  0  0  0
   57.3370   28.2330   45.8800 N   0  0  0  0  0  0  0  0  0  0  0  0
   57.9230   29.0310   44.9460 C   0  0  0  0  0  0  0  0  0  0  0  0
   58.1230   30.4370   45.2040 N   0  0  0  0  0  0  0  0  0  0  0  0
   57.4580   31.4410   44.3590 C   0  0  0  0  0  0  0  0  0  0  0  0
   57.1090   32.6860   45.1710 C   0  0  0  0  0  0  0  0  0  0  0  0
   58.3360   33.2190   45.8470 C   0  0  0  0  0  0  0  0  0  0  0  0
   58.4960   34.6000   46.0420 C   0  0  0  0  0  0  0  0  0  0  0  0
   59.6240   35.0910   46.7010 C   0  0  0  0  0  0  0  0  0  0  0  0
   60.5930   34.2080   47.1840 C   0  0  0  0  0  0  0  0  0  0  0  0
   60.4330   32.8310   47.0100 C   0  0  0  0  0  0  0  0  0  0  0  0
   59.3090   32.3260   46.3370 C   0  0  0  0  0  0  0  0  0  0  0  0
   59.1330   30.8310   46.2060 C   0  0  0  0  0  0  0  0  0  0  0  0
   58.3150   28.4890   43.7600 N   0  0  0  0  0  0  0  0  0  0  0  0
   58.1410   27.1710   43.4910 C   0  0  0  0  0  0  0  0  0  0  0  0
   58.5100   26.7150   42.3750 O   0  0  0  0  0  0  0  0  0  0  0  0
   56.5290   26.0700   46.7570 C   0  0  0  0  0  0  0  0  0  0  0  0
   53.8680   25.1246   46.3914 H   0  0  0  0  0  0  0  0  0  0  0  0
   54.6789   25.9082   44.9932 H   0  0  0  0  0  0  0  0  0  0  0  0
   54.4050   24.1330   44.9932 H   0  0  0  0  0  0  0  0  0  0  0  0
   57.8168   23.8682   45.9808 H   0  0  0  0  0  0  0  0  0  0  0  0
   56.4144   23.1502   45.0698 H   0  0  0  0  0  0  0  0  0  0  0  0
   58.2017   24.4361   43.7134 H   0  0  0  0  0  0  0  0  0  0  0  0
   56.4462   24.8255   43.4434 H   0  0  0  0  0  0  0  0  0  0  0  0
   58.1316   31.7237   43.5366 H   0  0  0  0  0  0  0  0  0  0  0  0
   56.5289   31.0075   43.9604 H   0  0  0  0  0  0  0  0  0  0  0  0
   56.6997   33.4555   44.4999 H   0  0  0  0  0  0  0  0  0  0  0  0
   56.3629   32.4211   45.9346 H   0  0  0  0  0  0  0  0  0  0  0  0
   57.7294   35.2978   45.6740 H   0  0  0  0  0  0  0  0  0  0  0  0
   59.7503   36.1748   46.8403 H   0  0  0  0  0  0  0  0  0  0  0  0
   61.4823   34.5971   47.7015 H   0  0  0  0  0  0  0  0  0  0  0  0
   61.1921   32.1384   47.4026 H   0  0  0  0  0  0  0  0  0  0  0  0
   60.0990   30.3918   45.9163 H   0  0  0  0  0  0  0  0  0  0  0  0
   58.7793   30.4628   47.1803 H   0  0  0  0  0  0  0  0  0  0  0  0
   57.3170   25.8366   47.4881 H   0  0  0  0  0  0  0  0  0  0  0  0
   55.7114   26.6519   47.2075 H   0  0  0  0  0  0  0  0  0  0  0  0
  1  2  1  0
  2  3  1  0
  3  4  1  0
  4  5  1  0
  5  6  2  0
  6  7  1  0
  7  8  2  0
  8  9  1  0
  9 10  1  0
 10 11  1  0
 11 12  1  0
 12 13  2  0
 13 14  1  0
 14 15  2  0
 15 16  1  0
 16 17  2  0
 17 18  1  0
  8 19  1  0
 19 20  1  0
 20 21  2  0
  6 22  1  0
 22  2  1  0
 20  5  1  0
 18  9  1  0
 17 12  1  0
  1 23  1  0
  1 24  1  0
  1 25  1  0
  3 26  1  0
  3 27  1  0
  4 28  1  0
  4 29  1  0
 10 30  1  0
 10 31  1  0
 11 32  1  0
 11 33  1  0
 13 34  1  0
 14 35  1  0
 15 36  1  0
 16 37  1  0
 18 38  1  0
 18 39  1  0
 22 40  1  0
 22 41  1  0
M  CHG  1  19  -1
M  END
>  <UniqueID>  (70) 
64

>  <SMILES>  (70) 
CN1CCc2c(nc(N3CCc4ccccc4C3)[n-]c2=O)C1

>  <Energy>  (70) 
52.8908391996311

>  <Genealogy>  (70) 
CN1CCc2c(nc(N3CCc4ccccc4C3)[n-]c2=O)C1 (protonated)
CN1CCc2c(nc(N3CCc4ccccc4C3)[n-]c2=O)C1 (3D coordinates assigned)
CN1CCc2c(nc(N3CCc4ccccc4C3)[n-]c2=O)C1 (nonaromatic ring conformer: 52.8908391996311 kcal/mol)

>  <smiles>  (70) 
CN1CCc2c(nc(N3CCc4ccccc4C3)[nH]c2=O)C1

>  <score_type>  (70) 
oracle

>  <origin>  (70) 
adg

>  <m_score__min__energy>  (70) 
-8.6699999999999999

>  <m_primary>  (70) 
energy

$$$$
70:0
     RDKit          3D

 61 65  0  0  0  0  0  0  0  0999 V2000
   62.1620   33.8940   49.4820 H   0  0  0  0  0  0  0  0  0  0  0  0
   61.6820   34.4470   48.7370 N   0  0  0  0  0  0  0  0  0  0  0  0
   60.2600   34.4890   48.6600 C   0  0  0  0  0  0  0  0  0  0  0  0
   59.5790   34.6210   49.7110 O   0  0  0  0  0  0  0  0  0  0  0  0
   59.5890   34.3770   47.3580 C   0  0  0  0  0  0  0  0  0  0  0  0
   59.9590   34.9770   46.1690 C   0  0  0  0  0  0  0  0  0  0  0  0
   60.8335   35.6294   46.0290 H   0  0  0  0  0  0  0  0  0  0  0  0
   59.0770   34.6350   45.2080 N   0  0  0  0  0  0  0  0  0  0  0  0
   58.1760   33.8340   45.7570 N   0  0  0  0  0  0  0  0  0  0  0  0
   57.0230   33.2920   45.0410 C   0  0  0  0  0  0  0  0  0  0  0  0
   56.7621   33.9708   44.2157 H   0  0  0  0  0  0  0  0  0  0  0  0
   56.1859   33.2007   45.7488 H   0  0  0  0  0  0  0  0  0  0  0  0
   57.3220   31.9240   44.4770 C   0  0  0  0  0  0  0  0  0  0  0  0
   58.3270   31.7730   43.7310 O   0  0  0  0  0  0  0  0  0  0  0  0
   56.5090   30.7690   44.7540 N   0  0  0  0  0  0  0  0  0  0  0  0
   56.8550   29.6130   45.2480 C   0  0  0  0  0  0  0  0  0  0  0  0
   56.0620   28.5130   45.1240 N   0  0  0  0  0  0  0  0  0  0  0  0
   56.4170   27.3040   45.6330 C   0  0  0  0  0  0  0  0  0  0  0  0
   55.7500   26.4382   45.5089 H   0  0  0  0  0  0  0  0  0  0  0  0
   57.6270   27.1600   46.3130 C   0  0  0  0  0  0  0  0  0  0  0  0
   57.9215   26.1814   46.7200 H   0  0  0  0  0  0  0  0  0  0  0  0
   58.4640   28.2730   46.4730 C   0  0  0  0  0  0  0  0  0  0  0  0
   59.7930   28.1340   47.1750 C   0  0  0  0  0  0  0  0  0  0  0  0
   60.5220   27.7143   46.4662 H   0  0  0  0  0  0  0  0  0  0  0  0
   59.6403   27.4760   48.0432 H   0  0  0  0  0  0  0  0  0  0  0  0
   60.3270   29.4530   47.6930 C   0  0  0  0  0  0  0  0  0  0  0  0
   61.2630   30.1260   46.9690 N   0  0  0  0  0  0  0  0  0  0  0  0
   61.7760   31.3100   47.3820 C   0  0  0  0  0  0  0  0  0  0  0  0
   62.5304   31.8246   46.7687 H   0  0  0  0  0  0  0  0  0  0  0  0
   61.3620   31.8630   48.5500 N   0  0  0  0  0  0  0  0  0  0  0  0
   61.7750   32.7790   48.8430 H   0  0  0  0  0  0  0  0  0  0  0  0
   60.4280   31.2440   49.3250 C   0  0  0  0  0  0  0  0  0  0  0  0
   60.0120   31.8300   50.5280 C   0  0  0  0  0  0  0  0  0  0  0  0
   60.4437   32.7913   50.8434 H   0  0  0  0  0  0  0  0  0  0  0  0
   59.0480   31.2010   51.3360 C   0  0  0  0  0  0  0  0  0  0  0  0
   58.6060   31.7650   52.5440 O   0  0  0  0  0  0  0  0  0  0  0  0
   58.4310   33.1600   52.7680 C   0  0  0  0  0  0  0  0  0  0  0  0
   58.4062   33.3574   53.8499 H   0  0  0  0  0  0  0  0  0  0  0  0
   59.2669   33.7120   52.3136 H   0  0  0  0  0  0  0  0  0  0  0  0
   57.4846   33.4884   52.3136 H   0  0  0  0  0  0  0  0  0  0  0  0
   58.5000   29.9740   50.9370 C   0  0  0  0  0  0  0  0  0  0  0  0
   57.5380   29.3800   51.7720 O   0  0  0  0  0  0  0  0  0  0  0  0
   56.5350   30.0770   52.5140 C   0  0  1  0  0  0  0  0  0  0  0  0
   57.0663   30.5183   53.3701 H   0  0  0  0  0  0  0  0  0  0  0  0
   55.8310   31.0850   51.6330 C   0  0  0  0  0  0  0  0  0  0  0  0
   55.8399   30.7358   50.5899 H   0  0  0  0  0  0  0  0  0  0  0  0
   56.3449   32.0561   51.6877 H   0  0  0  0  0  0  0  0  0  0  0  0
   54.5030   31.2180   52.0770 O   0  0  0  0  0  0  0  0  0  0  0  0
   54.1750   30.0410   52.7820 C   0  0  0  0  0  0  0  0  0  0  0  0
   53.4027   29.4869   52.2284 H   0  0  0  0  0  0  0  0  0  0  0  0
   53.7958   30.3085   53.7793 H   0  0  0  0  0  0  0  0  0  0  0  0
   55.4110   29.1700   52.9320 C   0  0  0  0  0  0  0  0  0  0  0  0
   55.3526   28.2889   52.2761 H   0  0  0  0  0  0  0  0  0  0  0  0
   55.5357   28.7766   53.9516 H   0  0  0  0  0  0  0  0  0  0  0  0
   58.9200   29.3790   49.7320 C   0  0  0  0  0  0  0  0  0  0  0  0
   58.4933   28.4128   49.4248 H   0  0  0  0  0  0  0  0  0  0  0  0
   59.8800   30.0070   48.9160 C   0  0  0  0  0  0  0  0  0  0  0  0
   58.0780   29.5050   45.9250 C   0  0  0  0  0  0  0  0  0  0  0  0
   58.7324   30.3834   46.0260 H   0  0  0  0  0  0  0  0  0  0  0  0
   58.4470   33.6610   47.0650 C   0  0  0  0  0  0  0  0  0  0  0  0
   57.8618   33.0563   47.7735 H   0  0  0  0  0  0  0  0  0  0  0  0
  1  2  1  0
  2  3  1  0
  3  4  2  0
  3  5  1  0
  5  6  1  0
  6  7  1  0
  6  8  2  0
  8  9  1  0
  9 10  1  0
 10 11  1  0
 10 12  1  0
 10 13  1  0
 13 14  2  0
 13 15  1  0
 15 16  2  0
 16 17  1  0
 17 18  1  0
 18 19  1  0
 18 20  2  0
 20 21  1  0
 20 22  1  0
 22 23  1  0
 23 24  1  0
 23 25  1  0
 23 26  1  0
 26 27  2  0
 27 28  1  0
 28 29  1  0
 28 30  2  0
 30 31  1  0
 30 32  1  0
 32 33  2  0
 33 34  1  0
 33 35  1  0
 35 36  1  0
 36 37  1  0
 37 38  1  0
 37 39  1  0
 37 40  1  0
 35 41  2  0
 41 42  1  0
 42 43  1  0
 43 44  1  1
 43 45  1  0
 45 46  1  0
 45 47  1  0
 45 48  1  0
 48 49  1  0
 49 50  1  0
 49 51  1  0
 49 52  1  0
 52 53  1  0
 52 54  1  0
 41 55  1  0
 55 56  1  0
 55 57  2  0
 22 58  2  0
 58 59  1  0
  9 60  1  0
 60 61  1  0
 60  5  2  0
 58 16  1  0
 57 26  1  0
 57 32  1  0
 52 43  1  0
M  CHG  3   2  -1  17  -1  30   1
M  END
>  <UniqueID>  (71) 
65

>  <SMILES>  (71) 
COc1cc2[nH+]cnc(Cc3cc[n-]/c(=N\C(=O)Cn4cc(C([NH-])=O)cn4)c3)c2cc1O[C@@H]1CCOC1

>  <Energy>  (71) 
104.71761472575157

>  <Genealogy>  (71) 
COc1cc2[nH+]cnc(Cc3cc[n-]c(=NC(=O)Cn4cc(C([NH-])=O)cn4)c3)c2cc1OC1CCOC1 (protonated)
COc1cc2[nH+]cnc(Cc3cc[n-]c(=NC(=O)Cn4cc(C([NH-])=O)cn4)c3)c2cc1O[C@@H]1CCOC1 (chirality)
COc1cc2[nH+]cnc(Cc3cc[n-]/c(=N\C(=O)Cn4cc(C([NH-])=O)cn4)c3)c2cc1O[C@@H]1CCOC1 (cis-trans isomerization)
COc1cc2[nH+]cnc(Cc3cc[n-]/c(=N\C(=O)Cn4cc(C([NH-])=O)cn4)c3)c2cc1O[C@@H]1CCOC1 (3D coordinates assigned)
COc1cc2[nH+]cnc(Cc3cc[n-]/c(=N\C(=O)Cn4cc(C([NH-])=O)cn4)c3)c2cc1O[C@@H]1CCOC1 (nonaromatic ring conformer: 104.71761472575157 kcal/mol)

>  <smiles>  (71) 
COc1cc2ncnc(Cc3cc[nH]c(=NC(=O)Cn4cc(C(N)=O)cn4)c3)c2cc1OC1CCOC1

>  <score_type>  (71) 
oracle

>  <origin>  (71) 
adg

>  <m_score__min__energy>  (71) 
-12.869999999999999

>  <m_primary>  (71) 
energy

$$$$
71:0
     RDKit          3D

 45 47  0  0  0  0  0  0  0  0999 V2000
   54.7490   27.0820   46.5180 H   0  0  0  0  0  0  0  0  0  0  0  0
   54.8680   26.1910   45.9820 N   0  0  0  0  0  0  0  0  0  0  0  0
   56.5380   25.7570   46.1010 S   0  0  0  0  0  0  0  0  0  0  0  0
   56.8560   25.3920   47.5240 O   0  0  0  0  0  0  0  0  0  0  0  0
   56.8100   24.5640   45.2190 O   0  0  0  0  0  0  0  0  0  0  0  0
   57.5330   27.1280   45.6250 C   0  0  0  0  0  0  0  0  0  0  0  0
   58.9060   27.1520   45.9030 C   0  0  0  0  0  0  0  0  0  0  0  0
   59.3772   26.3056   46.4241 H   0  0  0  0  0  0  0  0  0  0  0  0
   59.6770   28.2540   45.5170 C   0  0  0  0  0  0  0  0  0  0  0  0
   60.7564   28.2696   45.7282 H   0  0  0  0  0  0  0  0  0  0  0  0
   59.0780   29.3360   44.8630 C   0  0  0  0  0  0  0  0  0  0  0  0
   59.6879   30.2016   44.5651 H   0  0  0  0  0  0  0  0  0  0  0  0
   57.7060   29.3220   44.5860 C   0  0  0  0  0  0  0  0  0  0  0  0
   56.9490   30.7040   43.7930 S   0  0  0  0  0  0  0  0  0  0  0  0
   55.6850   31.0950   44.5050 O   0  0  0  0  0  0  0  0  0  0  0  0
   56.5990   30.3160   42.3870 O   0  0  0  0  0  0  0  0  0  0  0  0
   58.0170   32.0750   43.7480 N   0  0  0  0  0  0  0  0  0  0  0  0
   58.4560   32.8250   44.8900 C   0  0  0  0  0  0  0  0  0  0  0  0
   58.7590   34.1890   44.7310 C   0  0  0  0  0  0  0  0  0  0  0  0
   58.6374   34.6616   43.7452 H   0  0  0  0  0  0  0  0  0  0  0  0
   59.2140   34.9530   45.8140 C   0  0  0  0  0  0  0  0  0  0  0  0
   59.4268   36.0244   45.6846 H   0  0  0  0  0  0  0  0  0  0  0  0
   59.3960   34.3450   47.0610 C   0  0  0  0  0  0  0  0  0  0  0  0
   59.7559   34.9401   47.9132 H   0  0  0  0  0  0  0  0  0  0  0  0
   59.1210   32.9780   47.2290 C   0  0  0  0  0  0  0  0  0  0  0  0
   59.4890   32.1930   48.7660 S   0  0  0  0  0  0  0  0  0  0  0  0
   58.5010   31.0980   49.0600 O   0  0  0  0  0  0  0  0  0  0  0  0
   59.4240   33.2090   49.8730 O   0  0  0  0  0  0  0  0  0  0  0  0
   61.0860   31.5140   48.7030 N   0  0  0  0  0  0  0  0  0  0  0  0
   62.1780   32.1990   48.8750 C   0  0  0  0  0  0  0  0  0  0  0  0
   62.2640   33.2290   49.8340 N   0  0  0  0  0  0  0  0  0  0  0  0
   61.4930   33.5160   50.4740 H   0  0  0  0  0  0  0  0  0  0  0  0
   63.5310   33.9160   49.7060 C   0  0  0  0  0  0  0  0  0  0  0  0
   64.0274   33.9905   50.6848 H   0  0  0  0  0  0  0  0  0  0  0  0
   63.4002   34.9419   49.3312 H   0  0  0  0  0  0  0  0  0  0  0  0
   64.3730   33.0620   48.7410 C   0  0  0  0  0  0  0  0  0  0  0  0
   65.1439   32.5104   49.2991 H   0  0  0  0  0  0  0  0  0  0  0  0
   64.8817   33.6945   47.9986 H   0  0  0  0  0  0  0  0  0  0  0  0
   63.4130   32.0800   48.0580 C   0  0  0  0  0  0  0  0  0  0  0  0
   63.8094   31.0543   48.0873 H   0  0  0  0  0  0  0  0  0  0  0  0
   63.2515   32.3011   46.9926 H   0  0  0  0  0  0  0  0  0  0  0  0
   58.6210   32.2280   46.1540 C   0  0  0  0  0  0  0  0  0  0  0  0
   58.3571   31.1701   46.2993 H   0  0  0  0  0  0  0  0  0  0  0  0
   56.9400   28.2070   44.9550 C   0  0  0  0  0  0  0  0  0  0  0  0
   55.8664   28.1789   44.7171 H   0  0  0  0  0  0  0  0  0  0  0  0
  1  2  1  0
  2  3  1  0
  3  4  2  0
  3  5  2  0
  3  6  1  0
  6  7  2  0
  7  8  1  0
  7  9  1  0
  9 10  1  0
  9 11  2  0
 11 12  1  0
 11 13  1  0
 13 14  1  0
 14 15  2  0
 14 16  2  0
 14 17  1  0
 17 18  1  0
 18 19  2  0
 19 20  1  0
 19 21  1  0
 21 22  1  0
 21 23  2  0
 23 24  1  0
 23 25  1  0
 25 26  1  0
 26 27  2  0
 26 28  2  0
 26 29  1  0
 29 30  2  0
 30 31  1  0
 31 32  1  0
 31 33  1  0
 33 34  1  0
 33 35  1  0
 33 36  1  0
 36 37  1  0
 36 38  1  0
 36 39  1  0
 39 40  1  0
 39 41  1  0
 25 42  2  0
 42 43  1  0
 13 44  2  0
 44 45  1  0
 44  6  1  0
 42 18  1  0
 39 30  1  0
M  CHG  2   2  -1  17  -1
M  END
>  <UniqueID>  (72) 
66

>  <SMILES>  (72) 
[NH-]S(=O)(=O)c1cccc(S(=O)(=O)[N-]c2cccc(S(=O)(=O)/N=C3\CCCN3)c2)c1

>  <Energy>  (72) 
57.355016317688914

>  <Genealogy>  (72) 
[NH-]S(=O)(=O)c1cccc(S(=O)(=O)[N-]c2cccc(S(=O)(=O)N=C3CCCN3)c2)c1 (protonated)
[NH-]S(=O)(=O)c1cccc(S(=O)(=O)[N-]c2cccc(S(=O)(=O)/N=C3\CCCN3)c2)c1 (cis-trans isomerization)
[NH-]S(=O)(=O)c1cccc(S(=O)(=O)[N-]c2cccc(S(=O)(=O)/N=C3\CCCN3)c2)c1 (3D coordinates assigned)
[NH-]S(=O)(=O)c1cccc(S(=O)(=O)[N-]c2cccc(S(=O)(=O)/N=C3\CCCN3)c2)c1 (nonaromatic ring conformer: 57.355016317688914 kcal/mol)

>  <smiles>  (72) 
NS(=O)(=O)c1cccc(S(=O)(=O)Nc2cccc(S(=O)(=O)N=C3CCCN3)c2)c1

>  <score_type>  (72) 
oracle

>  <origin>  (72) 
adg

>  <m_score__min__energy>  (72) 
-13.83

>  <m_primary>  (72) 
energy

$$$$
72:0
     RDKit          3D

 58 61  0  0  0  0  0  0  0  0999 V2000
   65.0250   33.0500   49.7400 C   0  0  0  0  0  0  0  0  0  0  0  0
   63.9220   32.8420   48.7940 N   0  0  0  0  0  0  0  0  0  0  0  0
   63.6890   33.7750   47.8220 C   0  0  0  0  0  0  0  0  0  0  0  0
   62.6510   33.6070   46.9120 C   0  0  0  0  0  0  0  0  0  0  0  0
   61.8410   32.4800   46.9950 C   0  0  0  0  0  0  0  0  0  0  0  0
   62.0620   31.5160   47.9920 C   0  0  0  0  0  0  0  0  0  0  0  0
   61.1780   30.3180   48.0570 C   0  0  0  0  0  0  0  0  0  0  0  0
   60.7850   29.8940   49.1790 O   0  0  0  0  0  0  0  0  0  0  0  0
   60.8150   29.6080   46.8650 N   0  0  0  0  0  0  0  0  0  0  0  0
   59.4840   29.3030   46.4230 C   0  0  0  0  0  0  0  0  0  0  0  0
   58.7770   30.2740   45.7100 C   0  0  0  0  0  0  0  0  0  0  0  0
   57.4660   30.0330   45.2650 C   0  0  0  0  0  0  0  0  0  0  0  0
   56.7250   31.1090   44.4900 C   0  0  0  0  0  0  0  0  0  0  0  0
   57.1220   32.4990   44.8120 N   0  0  0  0  0  0  0  0  0  0  0  0
   58.2990   33.0050   44.1090 C   0  0  0  0  0  0  0  0  0  0  0  0
   58.7490   34.2320   44.8860 C   0  0  0  0  0  0  0  0  0  0  0  0
   58.1520   34.0700   46.2790 C   0  0  0  0  0  0  0  0  0  0  0  0
   57.3510   32.7750   46.2300 C   0  0  0  0  0  0  0  0  0  0  0  0
   56.8400   28.8160   45.6020 C   0  0  0  0  0  0  0  0  0  0  0  0
   55.5200   28.5820   45.2230 O   0  0  0  0  0  0  0  0  0  0  0  0
   57.5390   27.8370   46.3310 C   0  0  0  0  0  0  0  0  0  0  0  0
   56.8630   26.5460   46.7260 C   0  0  0  0  0  0  0  0  0  0  0  0
   57.2350   25.4660   45.7940 N   0  0  0  0  0  0  0  0  0  0  0  0
   56.0920   24.6050   45.4840 C   0  0  0  0  0  0  0  0  0  0  0  0
   56.3660   23.9890   44.1210 C   0  0  0  0  0  0  0  0  0  0  0  0
   57.4060   24.8880   43.4720 C   0  0  0  0  0  0  0  0  0  0  0  0
   57.6970   25.9740   44.4970 C   0  0  0  0  0  0  0  0  0  0  0  0
   58.8540   28.0910   46.7480 C   0  0  0  0  0  0  0  0  0  0  0  0
   63.1320   31.7240   48.8970 C   0  0  0  0  0  0  0  0  0  0  0  0
   63.3670   30.8780   49.8040 O   0  0  0  0  0  0  0  0  0  0  0  0
   64.6437   32.9781   50.7693 H   0  0  0  0  0  0  0  0  0  0  0  0
   65.7953   32.2813   49.5798 H   0  0  0  0  0  0  0  0  0  0  0  0
   65.4625   34.0465   49.5798 H   0  0  0  0  0  0  0  0  0  0  0  0
   64.3290   34.6674   47.7592 H   0  0  0  0  0  0  0  0  0  0  0  0
   62.4719   34.3610   46.1314 H   0  0  0  0  0  0  0  0  0  0  0  0
   61.0212   32.3425   46.2746 H   0  0  0  0  0  0  0  0  0  0  0  0
   59.2534   31.2416   45.4936 H   0  0  0  0  0  0  0  0  0  0  0  0
   56.9054   30.9425   43.4178 H   0  0  0  0  0  0  0  0  0  0  0  0
   55.6663   31.0183   44.7745 H   0  0  0  0  0  0  0  0  0  0  0  0
   59.0946   32.2455   44.0978 H   0  0  0  0  0  0  0  0  0  0  0  0
   58.0708   33.2501   43.0612 H   0  0  0  0  0  0  0  0  0  0  0  0
   59.8469   34.2721   44.9401 H   0  0  0  0  0  0  0  0  0  0  0  0
   58.4188   35.1646   44.4052 H   0  0  0  0  0  0  0  0  0  0  0  0
   58.9495   34.0005   47.0334 H   0  0  0  0  0  0  0  0  0  0  0  0
   57.5230   34.9289   46.5560 H   0  0  0  0  0  0  0  0  0  0  0  0
   57.9203   31.9552   46.6923 H   0  0  0  0  0  0  0  0  0  0  0  0
   56.4039   32.8647   46.7822 H   0  0  0  0  0  0  0  0  0  0  0  0
   57.1751   26.2700   47.7440 H   0  0  0  0  0  0  0  0  0  0  0  0
   55.7728   26.6884   46.6909 H   0  0  0  0  0  0  0  0  0  0  0  0
   55.9947   23.8158   46.2441 H   0  0  0  0  0  0  0  0  0  0  0  0
   55.1541   25.1797   45.4772 H   0  0  0  0  0  0  0  0  0  0  0  0
   56.7569   22.9668   44.2324 H   0  0  0  0  0  0  0  0  0  0  0  0
   55.4516   23.9175   43.5137 H   0  0  0  0  0  0  0  0  0  0  0  0
   58.3192   24.3184   43.2449 H   0  0  0  0  0  0  0  0  0  0  0  0
   57.0472   25.3085   42.5210 H   0  0  0  0  0  0  0  0  0  0  0  0
   58.7768   26.1807   44.5339 H   0  0  0  0  0  0  0  0  0  0  0  0
   57.1855   26.9120   44.2350 H   0  0  0  0  0  0  0  0  0  0  0  0
   59.3961   27.3345   47.3344 H   0  0  0  0  0  0  0  0  0  0  0  0
  1  2  1  0
  2  3  1  0
  3  4  2  0
  4  5  1  0
  5  6  2  0
  6  7  1  0
  7  8  2  0
  7  9  1  0
  9 10  1  0
 10 11  2  0
 11 12  1  0
 12 13  1  0
 13 14  1  0
 14 15  1  0
 15 16  1  0
 16 17  1  0
 17 18  1  0
 12 19  2  0
 19 20  1  0
 19 21  1  0
 21 22  1  0
 22 23  1  0
 23 24  1  0
 24 25  1  0
 25 26  1  0
 26 27  1  0
 21 28  2  0
  6 29  1  0
 29 30  2  0
 29  2  1  0
 28 10  1  0
 18 14  1  0
 27 23  1  0
  1 31  1  0
  1 32  1  0
  1 33  1  0
  3 34  1  0
  4 35  1  0
  5 36  1  0
 11 37  1  0
 13 38  1  0
 13 39  1  0
 15 40  1  0
 15 41  1  0
 16 42  1  0
 16 43  1  0
 17 44  1  0
 17 45  1  0
 18 46  1  0
 18 47  1  0
 22 48  1  0
 22 49  1  0
 24 50  1  0
 24 51  1  0
 25 52  1  0
 25 53  1  0
 26 54  1  0
 26 55  1  0
 27 56  1  0
 27 57  1  0
 28 58  1  0
M  CHG  2   9  -1  20  -1
M  END
>  <UniqueID>  (73) 
67

>  <SMILES>  (73) 
Cn1cccc(C(=O)[N-]c2cc(CN3CCCC3)c([O-])c(CN3CCCC3)c2)c1=O

>  <Energy>  (73) 
77.94466513311085

>  <Genealogy>  (73) 
Cn1cccc(C(=O)[N-]c2cc(CN3CCCC3)c([O-])c(CN3CCCC3)c2)c1=O (protonated)
Cn1cccc(C(=O)[N-]c2cc(CN3CCCC3)c([O-])c(CN3CCCC3)c2)c1=O (3D coordinates assigned)
Cn1cccc(C(=O)[N-]c2cc(CN3CCCC3)c([O-])c(CN3CCCC3)c2)c1=O (nonaromatic ring conformer: 77.94466513311085 kcal/mol)

>  <smiles>  (73) 
Cn1cccc(C(=O)Nc2cc(CN3CCCC3)c(O)c(CN3CCCC3)c2)c1=O

>  <score_type>  (73) 
oracle

>  <origin>  (73) 
adg

>  <m_score__min__energy>  (73) 
-12.51

>  <m_primary>  (73) 
energy

$$$$
73:0
     RDKit          3D

 68 72  0  0  0  0  0  0  0  0999 V2000
   60.0310   34.0970   45.9860 O   0  0  0  0  0  0  0  0  0  0  0  0
   59.6650   33.1120   46.6840 C   0  0  0  0  0  0  0  0  0  0  0  0
   58.2060   32.8920   46.9330 C   0  0  0  0  0  0  0  0  0  0  0  0
   57.7900   31.6280   46.3300 N   0  0  0  0  0  0  0  0  0  0  0  0
   57.5510   31.4840   44.9220 C   0  0  0  0  0  0  0  0  0  0  0  0
   58.1120   32.3990   44.0140 C   0  0  0  0  0  0  0  0  0  0  0  0
   57.8580   32.2820   42.6450 C   0  0  0  0  0  0  0  0  0  0  0  0
   57.0440   31.2520   42.1680 C   0  0  0  0  0  0  0  0  0  0  0  0
   56.4840   30.3350   43.0600 C   0  0  0  0  0  0  0  0  0  0  0  0
   56.7350   30.4390   44.4340 C   0  0  0  0  0  0  0  0  0  0  0  0
   56.1890   29.4790   45.2860 O   0  0  0  0  0  0  0  0  0  0  0  0
   60.6180   32.1550   47.1650 N   0  0  0  0  0  0  0  0  0  0  0  0
   60.4950   30.7260   47.0980 C   0  0  0  0  0  0  0  0  0  0  0  0
   60.2510   30.0530   45.8860 C   0  0  0  0  0  0  0  0  0  0  0  0
   60.1390   28.6600   45.8630 C   0  0  0  0  0  0  0  0  0  0  0  0
   60.3000   27.9150   47.0420 C   0  0  0  0  0  0  0  0  0  0  0  0
   60.1450   26.4180   47.0200 C   0  0  0  0  0  0  0  0  0  0  0  0
   58.7590   26.0410   46.5740 C   0  0  0  0  0  0  0  0  0  0  0  0
   58.5240   25.6640   45.2410 C   0  0  0  0  0  0  0  0  0  0  0  0
   57.2320   25.3320   44.8200 C   0  0  0  0  0  0  0  0  0  0  0  0
   56.1560   25.3880   45.7220 C   0  0  0  0  0  0  0  0  0  0  0  0
   54.8310   25.0120   45.3270 N   0  0  0  0  0  0  0  0  0  0  0  0
   54.1110   23.8630   45.7940 C   0  0  0  0  0  0  0  0  0  0  0  0
   52.8650   23.9500   45.9600 O   0  0  0  0  0  0  0  0  0  0  0  0
   54.7950   22.5450   46.0330 C   0  0  0  0  0  0  0  0  0  0  0  0
   54.9550   22.3070   47.4690 N   0  0  0  0  0  0  0  0  0  0  0  0
   53.9650   22.1980   48.3850 C   0  0  0  0  0  0  0  0  0  0  0  0
   52.6100   22.2740   48.0850 O   0  0  0  0  0  0  0  0  0  0  0  0
   54.4940   21.9990   49.6450 C   0  0  0  0  0  0  0  0  0  0  0  0
   55.8620   21.9430   49.4870 C   0  0  0  0  0  0  0  0  0  0  0  0
   56.1140   22.1610   48.1470 C   0  0  0  0  0  0  0  0  0  0  0  0
   57.3790   22.2210   47.5670 O   0  0  0  0  0  0  0  0  0  0  0  0
   56.8280   21.7770   50.6200 C   0  0  0  0  0  0  0  0  0  0  0  0
   56.1150   21.1610   51.8410 C   0  0  0  0  0  0  0  0  0  0  0  0
   54.7610   21.8520   52.1240 C   0  0  0  0  0  0  0  0  0  0  0  0
   53.7860   21.7240   50.9360 C   0  0  0  0  0  0  0  0  0  0  0  0
   56.3950   25.7510   47.0520 C   0  0  0  0  0  0  0  0  0  0  0  0
   57.6840   26.0920   47.4740 C   0  0  0  0  0  0  0  0  0  0  0  0
   60.5620   28.5840   48.2480 C   0  0  0  0  0  0  0  0  0  0  0  0
   60.6700   29.9780   48.2720 C   0  0  0  0  0  0  0  0  0  0  0  0
   58.0207   32.8589   48.0168 H   0  0  0  0  0  0  0  0  0  0  0  0
   57.6312   33.7163   46.4857 H   0  0  0  0  0  0  0  0  0  0  0  0
   57.6300   30.8050   46.9580 H   0  0  0  0  0  0  0  0  0  0  0  0
   58.7546   33.2117   44.3834 H   0  0  0  0  0  0  0  0  0  0  0  0
   58.3001   33.0027   41.9413 H   0  0  0  0  0  0  0  0  0  0  0  0
   56.8441   31.1632   41.0900 H   0  0  0  0  0  0  0  0  0  0  0  0
   55.8419   29.5261   42.6812 H   0  0  0  0  0  0  0  0  0  0  0  0
   56.6660   29.1450   46.1130 H   0  0  0  0  0  0  0  0  0  0  0  0
   60.1480   30.6260   44.9527 H   0  0  0  0  0  0  0  0  0  0  0  0
   59.9234   28.1444   44.9155 H   0  0  0  0  0  0  0  0  0  0  0  0
   60.8795   25.9877   46.3233 H   0  0  0  0  0  0  0  0  0  0  0  0
   60.3122   26.0270   48.0345 H   0  0  0  0  0  0  0  0  0  0  0  0
   59.3591   25.6298   44.5259 H   0  0  0  0  0  0  0  0  0  0  0  0
   57.0575   25.0257   43.7780 H   0  0  0  0  0  0  0  0  0  0  0  0
   54.1886   21.7374   45.5969 H   0  0  0  0  0  0  0  0  0  0  0  0
   55.7887   22.5676   45.5617 H   0  0  0  0  0  0  0  0  0  0  0  0
   57.6473   21.1141   50.3049 H   0  0  0  0  0  0  0  0  0  0  0  0
   57.2288   22.7630   50.8977 H   0  0  0  0  0  0  0  0  0  0  0  0
   55.9362   20.0930   51.6476 H   0  0  0  0  0  0  0  0  0  0  0  0
   56.7607   21.3007   52.7205 H   0  0  0  0  0  0  0  0  0  0  0  0
   54.3038   21.3873   53.0100 H   0  0  0  0  0  0  0  0  0  0  0  0
   54.9545   22.9220   52.2902 H   0  0  0  0  0  0  0  0  0  0  0  0
   53.3748   20.7040   50.9133 H   0  0  0  0  0  0  0  0  0  0  0  0
   52.9751   22.4568   51.0604 H   0  0  0  0  0  0  0  0  0  0  0  0
   55.5628   25.7683   47.7711 H   0  0  0  0  0  0  0  0  0  0  0  0
   57.8556   26.4014   48.5156 H   0  0  0  0  0  0  0  0  0  0  0  0
   60.6829   28.0092   49.1781 H   0  0  0  0  0  0  0  0  0  0  0  0
   60.8938   30.4920   49.2184 H   0  0  0  0  0  0  0  0  0  0  0  0
  1  2  2  0
  2  3  1  0
  3  4  1  0
  4  5  1  0
  5  6  2  0
  6  7  1  0
  7  8  2  0
  8  9  1  0
  9 10  2  0
 10 11  1  0
  2 12  1  0
 12 13  1  0
 13 14  2  0
 14 15  1  0
 15 16  2  0
 16 17  1  0
 17 18  1  0
 18 19  2  0
 19 20  1  0
 20 21  2  0
 21 22  1  0
 22 23  1  0
 23 24  2  0
 23 25  1  0
 25 26  1  0
 26 27  1  0
 27 28  1  0
 27 29  2  0
 29 30  1  0
 30 31  2  0
 31 32  1  0
 30 33  1  0
 33 34  1  0
 34 35  1  0
 35 36  1  0
 21 37  1  0
 37 38  2  0
 16 39  1  0
 39 40  2  0
 10  5  1  0
 40 13  1  0
 38 18  1  0
 31 26  1  0
 36 29  1  0
  3 41  1  0
  3 42  1  0
  4 43  1  0
  6 44  1  0
  7 45  1  0
  8 46  1  0
  9 47  1  0
 11 48  1  0
 14 49  1  0
 15 50  1  0
 17 51  1  0
 17 52  1  0
 19 53  1  0
 20 54  1  0
 25 55  1  0
 25 56  1  0
 33 57  1  0
 33 58  1  0
 34 59  1  0
 34 60  1  0
 35 61  1  0
 35 62  1  0
 36 63  1  0
 36 64  1  0
 37 65  1  0
 38 66  1  0
 39 67  1  0
 40 68  1  0
M  CHG  4  12  -1  22  -1  28  -1  32  -1
M  END
>  <UniqueID>  (74) 
68

>  <SMILES>  (74) 
O=C(CNc1ccccc1O)[N-]c1ccc(Cc2ccc([N-]C(=O)Cn3c([O-])c4c(c3[O-])CCCC4)cc2)cc1

>  <Energy>  (74) 
110.68168305185195

>  <Genealogy>  (74) 
O=C(CNc1ccccc1O)[N-]c1ccc(Cc2ccc([N-]C(=O)Cn3c([O-])c4c(c3[O-])CCCC4)cc2)cc1 (protonated)
O=C(CNc1ccccc1O)[N-]c1ccc(Cc2ccc([N-]C(=O)Cn3c([O-])c4c(c3[O-])CCCC4)cc2)cc1 (3D coordinates assigned)
O=C(CNc1ccccc1O)[N-]c1ccc(Cc2ccc([N-]C(=O)Cn3c([O-])c4c(c3[O-])CCCC4)cc2)cc1 (nonaromatic ring conformer: 110.68168305185195 kcal/mol)

>  <smiles>  (74) 
O=C(CNc1ccccc1O)Nc1ccc(Cc2ccc(NC(=O)Cn3c(O)c4c(c3O)CCCC4)cc2)cc1

>  <score_type>  (74) 
oracle

>  <origin>  (74) 
adg

>  <m_score__min__energy>  (74) 
-14.720000000000001

>  <m_primary>  (74) 
energy

$$$$
74:0
     RDKit          3D

 55 58  0  0  0  0  0  0  0  0999 V2000
   60.9659   26.3819   46.5497 H   0  0  0  0  0  0  0  0  0  0  0  0
   60.2360   27.1980   46.6560 C   0  0  0  0  0  0  0  0  0  0  0  0
   59.3100   27.4420   45.6380 C   0  0  0  0  0  0  0  0  0  0  0  0
   59.3210   26.8253   44.7272 H   0  0  0  0  0  0  0  0  0  0  0  0
   58.3640   28.4740   45.7750 C   0  0  0  0  0  0  0  0  0  0  0  0
   57.4120   28.7750   44.7440 N   0  0  0  0  0  0  0  0  0  0  0  0
   56.6430   29.9790   44.6150 C   0  0  0  0  0  0  0  0  0  0  0  0
   55.3880   29.9180   44.4950 O   0  0  0  0  0  0  0  0  0  0  0  0
   57.3140   31.2980   44.6810 C   0  0  0  0  0  0  0  0  0  0  0  0
   57.8590   31.8830   43.5230 C   0  0  0  0  0  0  0  0  0  0  0  0
   57.7880   31.3556   42.5603 H   0  0  0  0  0  0  0  0  0  0  0  0
   58.4900   33.1290   43.5860 C   0  0  0  0  0  0  0  0  0  0  0  0
   58.9007   33.5812   42.6712 H   0  0  0  0  0  0  0  0  0  0  0  0
   58.6020   33.8050   44.8090 C   0  0  0  0  0  0  0  0  0  0  0  0
   59.2460   35.1590   44.8740 C   0  0  0  0  0  0  0  0  0  0  0  0
   60.1202   35.1834   44.2067 H   0  0  0  0  0  0  0  0  0  0  0  0
   58.5258   35.9273   44.5561 H   0  0  0  0  0  0  0  0  0  0  0  0
   59.6610   35.4150   46.2140 O   0  0  0  0  0  0  0  0  0  0  0  0
   60.4530   34.5460   46.9790 C   0  0  0  0  0  0  0  0  0  0  0  0
   61.5390   33.8330   46.4320 C   0  0  0  0  0  0  0  0  0  0  0  0
   61.7895   33.9466   45.3670 H   0  0  0  0  0  0  0  0  0  0  0  0
   62.2990   32.9810   47.2410 C   0  0  0  0  0  0  0  0  0  0  0  0
   63.1467   32.4277   46.8105 H   0  0  0  0  0  0  0  0  0  0  0  0
   61.9840   32.8310   48.5950 C   0  0  0  0  0  0  0  0  0  0  0  0
   62.7410   31.9860   49.3960 O   0  0  0  0  0  0  0  0  0  0  0  0
   60.9060   33.5330   49.1410 C   0  0  0  0  0  0  0  0  0  0  0  0
   60.6553   33.4133   50.2053 H   0  0  0  0  0  0  0  0  0  0  0  0
   60.1450   34.3880   48.3360 C   0  0  0  0  0  0  0  0  0  0  0  0
   59.2991   34.9397   48.7720 H   0  0  0  0  0  0  0  0  0  0  0  0
   58.0470   33.2340   45.9630 C   0  0  0  0  0  0  0  0  0  0  0  0
   58.1110   33.7684   46.9223 H   0  0  0  0  0  0  0  0  0  0  0  0
   57.4130   31.9900   45.9020 C   0  0  0  0  0  0  0  0  0  0  0  0
   56.9882   31.5485   46.8156 H   0  0  0  0  0  0  0  0  0  0  0  0
   58.3870   29.2770   46.9220 C   0  0  0  0  0  0  0  0  0  0  0  0
   57.6742   30.1091   47.0197 H   0  0  0  0  0  0  0  0  0  0  0  0
   59.3120   29.0290   47.9480 C   0  0  0  0  0  0  0  0  0  0  0  0
   59.3360   30.0280   49.3980 S   0  0  0  0  0  0  0  0  0  0  0  0
   58.8040   31.3910   49.0550 O   0  0  0  0  0  0  0  0  0  0  0  0
   58.4790   29.4020   50.4640 O   0  0  0  0  0  0  0  0  0  0  0  0
   60.9670   30.1540   49.9810 N   0  0  0  0  0  0  0  0  0  0  0  0
   61.5380   30.9620   49.6460 H   0  0  0  0  0  0  0  0  0  0  0  0
   61.5020   29.3000   50.8040 C   0  0  0  0  0  0  0  0  0  0  0  0
   60.8340   28.1610   51.3180 N   0  0  0  0  0  0  0  0  0  0  0  0
   59.8550   27.8700   51.1050 H   0  0  0  0  0  0  0  0  0  0  0  0
   61.7150   27.4220   52.1990 C   0  0  0  0  0  0  0  0  0  0  0  0
   61.8574   26.3977   51.8240 H   0  0  0  0  0  0  0  0  0  0  0  0
   61.2953   27.3459   53.2129 H   0  0  0  0  0  0  0  0  0  0  0  0
   63.0560   28.1800   52.2030 C   0  0  0  0  0  0  0  0  0  0  0  0
   63.8539   27.5338   51.8083 H   0  0  0  0  0  0  0  0  0  0  0  0
   63.3300   28.4775   53.2259 H   0  0  0  0  0  0  0  0  0  0  0  0
   62.8900   29.4160   51.3060 C   0  0  0  0  0  0  0  0  0  0  0  0
   63.6107   29.3976   50.4751 H   0  0  0  0  0  0  0  0  0  0  0  0
   63.0728   30.3594   51.8413 H   0  0  0  0  0  0  0  0  0  0  0  0
   60.2370   27.9870   47.8070 C   0  0  0  0  0  0  0  0  0  0  0  0
   60.9667   27.7898   48.6062 H   0  0  0  0  0  0  0  0  0  0  0  0
  1  2  1  0
  2  3  2  0
  3  4  1  0
  3  5  1  0
  5  6  1  0
  6  7  1  0
  7  8  2  0
  7  9  1  0
  9 10  2  0
 10 11  1  0
 10 12  1  0
 12 13  1  0
 12 14  2  0
 14 15  1  0
 15 16  1  0
 15 17  1  0
 15 18  1  0
 18 19  1  0
 19 20  2  0
 20 21  1  0
 20 22  1  0
 22 23  1  0
 22 24  2  0
 24 25  1  0
 24 26  1  0
 26 27  1  0
 26 28  2  0
 28 29  1  0
 14 30  1  0
 30 31  1  0
 30 32  2  0
 32 33  1  0
  5 34  2  0
 34 35  1  0
 34 36  1  0
 36 37  1  0
 37 38  2  0
 37 39  2  0
 37 40  1  0
 40 41  1  0
 40 42  2  0
 42 43  1  0
 43 44  1  0
 43 45  1  0
 45 46  1  0
 45 47  1  0
 45 48  1  0
 48 49  1  0
 48 50  1  0
 48 51  1  0
 51 52  1  0
 51 53  1  0
 36 54  2  0
 54 55  1  0
 54  2  1  0
 32  9  1  0
 51 42  1  0
 28 19  1  0
M  CHG  3   6  -1  25  -1  40   1
M  END
>  <UniqueID>  (75) 
69

>  <SMILES>  (75) 
O=C([N-]c1cccc(S(=O)(=O)/[NH+]=C2/CCCN2)c1)c1ccc(COc2ccc([O-])cc2)cc1

>  <Energy>  (75) 
70.89115402697654

>  <Genealogy>  (75) 
O=C([N-]c1cccc(S(=O)(=O)[NH+]=C2CCCN2)c1)c1ccc(COc2ccc([O-])cc2)cc1 (protonated)
O=C([N-]c1cccc(S(=O)(=O)/[NH+]=C2/CCCN2)c1)c1ccc(COc2ccc([O-])cc2)cc1 (cis-trans isomerization)
O=C([N-]c1cccc(S(=O)(=O)/[NH+]=C2/CCCN2)c1)c1ccc(COc2ccc([O-])cc2)cc1 (3D coordinates assigned)
O=C([N-]c1cccc(S(=O)(=O)/[NH+]=C2/CCCN2)c1)c1ccc(COc2ccc([O-])cc2)cc1 (nonaromatic ring conformer: 70.89115402697654 kcal/mol)

>  <smiles>  (75) 
O=C(Nc1cccc(S(=O)(=O)N=C2CCCN2)c1)c1ccc(COc2ccc(O)cc2)cc1

>  <score_type>  (75) 
oracle

>  <origin>  (75) 
adg

>  <m_score__min__energy>  (75) 
-13.48

>  <m_primary>  (75) 
energy

$$$$
75:0
     RDKit          3D

 31 33  0  0  0  0  0  0  0  0999 V2000
   57.2390   25.5840   44.0970 N   0  0  0  0  0  0  0  0  0  0  0  0
   56.9610   26.3130   45.6400 S   0  0  0  0  0  0  0  0  0  0  0  0
   57.7790   25.6040   46.6830 O   0  0  0  0  0  0  0  0  0  0  0  0
   55.5070   26.1860   46.0000 O   0  0  0  0  0  0  0  0  0  0  0  0
   57.4140   28.0130   45.5800 C   0  0  0  0  0  0  0  0  0  0  0  0
   56.5740   28.9450   44.9560 C   0  0  0  0  0  0  0  0  0  0  0  0
   56.9400   30.2930   44.8960 C   0  0  0  0  0  0  0  0  0  0  0  0
   58.1520   30.7200   45.4570 C   0  0  0  0  0  0  0  0  0  0  0  0
   58.5340   32.1080   45.3880 N   0  0  0  0  0  0  0  0  0  0  0  0
   58.5300   32.7840   44.1900 C   0  0  0  0  0  0  0  0  0  0  0  0
   58.0650   32.0640   42.7870 S   0  0  0  0  0  0  0  0  0  0  0  0
   58.8970   34.0910   44.1430 N   0  0  0  0  0  0  0  0  0  0  0  0
   59.2750   34.7690   45.2530 C   0  0  0  0  0  0  0  0  0  0  0  0
   59.6060   35.9810   45.1530 O   0  0  0  0  0  0  0  0  0  0  0  0
   59.2900   34.1160   46.4910 C   0  0  0  0  0  0  0  0  0  0  0  0
   59.6720   34.7610   47.6790 C   0  0  0  0  0  0  0  0  0  0  0  0
   59.6710   34.0560   48.8820 C   0  0  0  0  0  0  0  0  0  0  0  0
   59.2910   32.7130   48.8900 C   0  0  0  0  0  0  0  0  0  0  0  0
   58.9230   32.1020   47.7330 N   0  0  0  0  0  0  0  0  0  0  0  0
   58.9080   32.7580   46.5360 C   0  0  0  0  0  0  0  0  0  0  0  0
   58.9980   29.7850   46.0710 C   0  0  0  0  0  0  0  0  0  0  0  0
   58.6320   28.4380   46.1310 C   0  0  0  0  0  0  0  0  0  0  0  0
   56.3970   25.0060   43.8760 H   0  0  0  0  0  0  0  0  0  0  0  0
   57.2650   26.3570   43.3950 H   0  0  0  0  0  0  0  0  0  0  0  0
   55.6234   28.6149   44.5118 H   0  0  0  0  0  0  0  0  0  0  0  0
   56.2753   31.0206   44.4073 H   0  0  0  0  0  0  0  0  0  0  0  0
   59.9711   35.8194   47.6603 H   0  0  0  0  0  0  0  0  0  0  0  0
   59.9672   34.5541   49.8170 H   0  0  0  0  0  0  0  0  0  0  0  0
   59.2893   32.1483   49.8340 H   0  0  0  0  0  0  0  0  0  0  0  0
   59.9531   30.1133   46.5069 H   0  0  0  0  0  0  0  0  0  0  0  0
   59.3008   27.7088   46.6116 H   0  0  0  0  0  0  0  0  0  0  0  0
  1  2  1  0
  2  3  2  0
  2  4  2  0
  2  5  1  0
  5  6  2  0
  6  7  1  0
  7  8  2  0
  8  9  1  0
  9 10  1  0
 10 11  2  0
 10 12  1  0
 12 13  1  0
 13 14  2  0
 13 15  1  0
 15 16  2  0
 16 17  1  0
 17 18  2  0
 18 19  1  0
 19 20  2  0
  8 21  1  0
 21 22  2  0
 22  5  1  0
 20  9  1  0
 20 15  1  0
  1 23  1  0
  1 24  1  0
  6 25  1  0
  7 26  1  0
 16 27  1  0
 17 28  1  0
 18 29  1  0
 21 30  1  0
 22 31  1  0
M  CHG  1  12  -1
M  END
>  <UniqueID>  (76) 
70

>  <SMILES>  (76) 
NS(=O)(=O)c1ccc(-n2c(=S)[n-]c(=O)c3cccnc32)cc1

>  <Energy>  (76) 
49.10339906885304

>  <Genealogy>  (76) 
NS(=O)(=O)c1ccc(-n2c(=S)[n-]c(=O)c3cccnc32)cc1 (protonated)
NS(=O)(=O)c1ccc(-n2c(=S)[n-]c(=O)c3cccnc32)cc1 (3D coordinates assigned)
NS(=O)(=O)c1ccc(-n2c(=S)[n-]c(=O)c3cccnc32)cc1 (optimized conformer: 49.10339906885304 kcal/mol)

>  <smiles>  (76) 
NS(=O)(=O)c1ccc(-n2c(=S)[nH]c(=O)c3cccnc32)cc1

>  <score_type>  (76) 
oracle

>  <origin>  (76) 
adg

>  <m_score__min__energy>  (76) 
-9.1500000000000004

>  <m_primary>  (76) 
energy

$$$$
76:0
     RDKit          3D

 39 41  0  0  0  0  0  0  0  0999 V2000
   62.3700   30.1620   50.1400 H   0  0  0  0  0  0  0  0  0  0  0  0
   61.5360   29.6190   50.3270 O   0  0  0  0  0  0  0  0  0  0  0  0
   60.6150   29.3280   49.3230 C   0  0  0  0  0  0  0  0  0  0  0  0
   60.5150   28.0330   48.7990 C   0  0  0  0  0  0  0  0  0  0  0  0
   61.1685   27.2348   49.1809 H   0  0  0  0  0  0  0  0  0  0  0  0
   59.5870   27.7520   47.7920 C   0  0  0  0  0  0  0  0  0  0  0  0
   59.5171   26.7332   47.3831 H   0  0  0  0  0  0  0  0  0  0  0  0
   58.7410   28.7630   47.2970 C   0  0  0  0  0  0  0  0  0  0  0  0
   57.7610   28.4780   46.2130 C   0  0  0  0  0  0  0  0  0  0  0  0
   57.0590   27.3230   46.2270 C   0  0  0  0  0  0  0  0  0  0  0  0
   56.3254   27.1843   47.0348 H   0  0  0  0  0  0  0  0  0  0  0  0
   57.2020   26.2300   45.2380 C   0  0  0  0  0  0  0  0  0  0  0  0
   58.0900   26.3400   44.3510 O   0  0  0  0  0  0  0  0  0  0  0  0
   56.3310   25.0320   45.2330 C   0  0  0  0  0  0  0  0  0  0  0  0
   56.8650   23.7920   44.8420 C   0  0  0  0  0  0  0  0  0  0  0  0
   57.9118   23.7285   44.5100 H   0  0  0  0  0  0  0  0  0  0  0  0
   56.0760   22.6400   44.8720 C   0  0  0  0  0  0  0  0  0  0  0  0
   56.5061   21.6717   44.5764 H   0  0  0  0  0  0  0  0  0  0  0  0
   54.7410   22.7160   45.2770 C   0  0  0  0  0  0  0  0  0  0  0  0
   54.1234   21.8063   45.3076 H   0  0  0  0  0  0  0  0  0  0  0  0
   54.1900   23.9460   45.6430 C   0  0  0  0  0  0  0  0  0  0  0  0
   53.1363   24.0040   45.9535 H   0  0  0  0  0  0  0  0  0  0  0  0
   54.9740   25.1050   45.6160 C   0  0  0  0  0  0  0  0  0  0  0  0
   54.3930   26.3220   45.9590 O   0  0  0  0  0  0  0  0  0  0  0  0
   57.5630   29.5040   45.1580 C   0  0  0  0  0  0  0  0  0  0  0  0
   58.6470   30.3020   44.7590 C   0  0  0  0  0  0  0  0  0  0  0  0
   59.6264   30.1766   45.2437 H   0  0  0  0  0  0  0  0  0  0  0  0
   58.4880   31.2550   43.7490 C   0  0  0  0  0  0  0  0  0  0  0  0
   59.3450   31.8672   43.4316 H   0  0  0  0  0  0  0  0  0  0  0  0
   57.2420   31.4310   43.1420 C   0  0  0  0  0  0  0  0  0  0  0  0
   57.1210   32.1749   42.3407 H   0  0  0  0  0  0  0  0  0  0  0  0
   56.1500   30.6630   43.5520 C   0  0  0  0  0  0  0  0  0  0  0  0
   55.1678   30.8103   43.0791 H   0  0  0  0  0  0  0  0  0  0  0  0
   56.3010   29.7070   44.5620 C   0  0  0  0  0  0  0  0  0  0  0  0
   55.1960   28.9690   44.9720 O   0  0  0  0  0  0  0  0  0  0  0  0
   58.8560   30.0610   47.8250 C   0  0  0  0  0  0  0  0  0  0  0  0
   58.2099   30.8647   47.4421 H   0  0  0  0  0  0  0  0  0  0  0  0
   59.7850   30.3390   48.8330 C   0  0  0  0  0  0  0  0  0  0  0  0
   59.8623   31.3575   49.2413 H   0  0  0  0  0  0  0  0  0  0  0  0
  1  2  1  0
  2  3  1  0
  3  4  2  0
  4  5  1  0
  4  6  1  0
  6  7  1  0
  6  8  2  0
  8  9  1  0
  9 10  2  0
 10 11  1  0
 10 12  1  0
 12 13  2  0
 12 14  1  0
 14 15  2  0
 15 16  1  0
 15 17  1  0
 17 18  1  0
 17 19  2  0
 19 20  1  0
 19 21  1  0
 21 22  1  0
 21 23  2  0
 23 24  1  0
  9 25  1  0
 25 26  2  0
 26 27  1  0
 26 28  1  0
 28 29  1  0
 28 30  2  0
 30 31  1  0
 30 32  1  0
 32 33  1  0
 32 34  2  0
 34 35  1  0
  8 36  1  0
 36 37  1  0
 36 38  2  0
 38 39  1  0
 38  3  1  0
 23 14  1  0
 34 25  1  0
M  CHG  2  24  -1  35  -1
M  END
>  <UniqueID>  (77) 
71

>  <SMILES>  (77) 
O=C(/C=C(/c1ccc(O)cc1)c1ccccc1[O-])c1ccccc1[O-]

>  <Energy>  (77) 
59.2490499135909

>  <Genealogy>  (77) 
O=C(C=C(c1ccc(O)cc1)c1ccccc1[O-])c1ccccc1[O-] (protonated)
O=C(/C=C(/c1ccc(O)cc1)c1ccccc1[O-])c1ccccc1[O-] (cis-trans isomerization)
O=C(/C=C(/c1ccc(O)cc1)c1ccccc1[O-])c1ccccc1[O-] (3D coordinates assigned)
O=C(/C=C(/c1ccc(O)cc1)c1ccccc1[O-])c1ccccc1[O-] (optimized conformer: 59.2490499135909 kcal/mol)

>  <smiles>  (77) 
O=C(C=C(c1ccc(O)cc1)c1ccccc1O)c1ccccc1O

>  <score_type>  (77) 
oracle

>  <origin>  (77) 
adg

>  <m_score__min__energy>  (77) 
-14.51

>  <m_primary>  (77) 
energy

$$$$
77:0
     RDKit          3D

 36 37  0  0  0  0  0  0  0  0999 V2000
   56.1680   24.3130   44.7940 C   0  0  0  0  0  0  0  0  0  0  0  0
   54.9360   24.7300   45.5830 C   0  0  0  0  0  0  0  0  0  0  0  0
   55.0820   26.0740   45.9920 O   0  0  0  0  0  0  0  0  0  0  0  0
   56.4410   26.3640   46.2570 C   0  0  0  0  0  0  0  0  0  0  0  0
   56.8350   27.6820   45.6410 C   0  0  0  0  0  0  0  0  0  0  0  0
   55.8530   28.5260   45.2320 N   0  0  0  0  0  0  0  0  0  0  0  0
   56.1120   29.7220   44.6480 C   0  0  0  0  0  0  0  0  0  0  0  0
   55.1450   30.4480   44.2930 O   0  0  0  0  0  0  0  0  0  0  0  0
   57.4440   30.1400   44.4420 C   0  0  0  0  0  0  0  0  0  0  0  0
   57.7300   31.4660   43.7590 C   0  0  0  0  0  0  0  0  0  0  0  0
   58.0950   32.5340   44.7590 C   0  0  0  0  0  0  0  0  0  0  0  0
   58.7920   33.6860   44.3500 C   0  0  0  0  0  0  0  0  0  0  0  0
   59.1420   34.6670   45.2840 C   0  0  0  0  0  0  0  0  0  0  0  0
   58.8110   34.5040   46.6310 C   0  0  0  0  0  0  0  0  0  0  0  0
   58.1340   33.3550   47.0490 C   0  0  0  0  0  0  0  0  0  0  0  0
   57.7820   32.3710   46.1210 C   0  0  0  0  0  0  0  0  0  0  0  0
   58.4890   29.2770   44.8510 C   0  0  0  0  0  0  0  0  0  0  0  0
   59.8370   29.6110   44.6750 O   0  0  0  0  0  0  0  0  0  0  0  0
   58.1820   28.0440   45.4520 C   0  0  0  0  0  0  0  0  0  0  0  0
   59.2520   27.1640   45.8650 C   0  0  0  0  0  0  0  0  0  0  0  0
   60.1090   26.4590   46.1940 N   0  0  0  0  0  0  0  0  0  0  0  0
   56.9744   24.0400   45.4905 H   0  0  0  0  0  0  0  0  0  0  0  0
   55.9222   23.4480   44.1605 H   0  0  0  0  0  0  0  0  0  0  0  0
   56.4982   25.1494   44.1605 H   0  0  0  0  0  0  0  0  0  0  0  0
   54.0423   24.6329   44.9490 H   0  0  0  0  0  0  0  0  0  0  0  0
   54.8255   24.0838   46.4663 H   0  0  0  0  0  0  0  0  0  0  0  0
   56.5939   26.4141   47.3452 H   0  0  0  0  0  0  0  0  0  0  0  0
   57.0637   25.5694   45.8200 H   0  0  0  0  0  0  0  0  0  0  0  0
   58.5658   31.3334   43.0562 H   0  0  0  0  0  0  0  0  0  0  0  0
   56.8204   31.7851   43.2290 H   0  0  0  0  0  0  0  0  0  0  0  0
   59.0627   33.8157   43.2917 H   0  0  0  0  0  0  0  0  0  0  0  0
   59.6794   35.5692   44.9566 H   0  0  0  0  0  0  0  0  0  0  0  0
   59.0829   35.2794   47.3624 H   0  0  0  0  0  0  0  0  0  0  0  0
   57.8776   33.2248   48.1108 H   0  0  0  0  0  0  0  0  0  0  0  0
   57.2575   31.4644   46.4572 H   0  0  0  0  0  0  0  0  0  0  0  0
   60.6000   28.9700   44.8350 H   0  0  0  0  0  0  0  0  0  0  0  0
  1  2  1  0
  2  3  1  0
  3  4  1  0
  4  5  1  0
  5  6  1  0
  6  7  1  0
  7  8  2  0
  7  9  1  0
  9 10  1  0
 10 11  1  0
 11 12  2  0
 12 13  1  0
 13 14  2  0
 14 15  1  0
 15 16  2  0
  9 17  2  0
 17 18  1  0
 17 19  1  0
 19 20  1  0
 20 21  3  0
 19  5  2  0
 16 11  1  0
  1 22  1  0
  1 23  1  0
  1 24  1  0
  2 25  1  0
  2 26  1  0
  4 27  1  0
  4 28  1  0
 10 29  1  0
 10 30  1  0
 12 31  1  0
 13 32  1  0
 14 33  1  0
 15 34  1  0
 16 35  1  0
 18 36  1  0
M  CHG  1   6  -1
M  END
>  <UniqueID>  (78) 
72

>  <SMILES>  (78) 
CCOCc1[n-]c(=O)c(Cc2ccccc2)c(O)c1C#N

>  <Energy>  (78) 
38.70316575304291

>  <Genealogy>  (78) 
CCOCc1[n-]c(=O)c(Cc2ccccc2)c(O)c1C#N (protonated)
CCOCc1[n-]c(=O)c(Cc2ccccc2)c(O)c1C#N (3D coordinates assigned)
CCOCc1[n-]c(=O)c(Cc2ccccc2)c(O)c1C#N (optimized conformer: 38.70316575304291 kcal/mol)

>  <smiles>  (78) 
CCOCc1[nH]c(=O)c(Cc2ccccc2)c(O)c1C#N

>  <score_type>  (78) 
oracle

>  <origin>  (78) 
adg

>  <m_score__min__energy>  (78) 
-9.6400000000000006

>  <m_primary>  (78) 
energy

$$$$
78:0
     RDKit          3D

 38 39  0  0  0  0  0  0  0  0999 V2000
   57.1310   34.0870   45.5800 O   0  0  0  0  0  0  0  0  0  0  0  0
   58.3070   33.7770   45.2490 C   0  0  0  0  0  0  0  0  0  0  0  0
   58.5260   32.7950   44.1390 C   0  0  0  0  0  0  0  0  0  0  0  0
   57.7550   31.5320   44.4080 C   0  0  0  0  0  0  0  0  0  0  0  0
   58.1130   30.6960   45.4810 C   0  0  0  0  0  0  0  0  0  0  0  0
   57.3730   29.5420   45.7510 C   0  0  0  0  0  0  0  0  0  0  0  0
   56.2660   29.2170   44.9610 C   0  0  0  0  0  0  0  0  0  0  0  0
   55.5320   28.0680   45.2320 O   0  0  0  0  0  0  0  0  0  0  0  0
   55.8980   30.0490   43.8980 C   0  0  0  0  0  0  0  0  0  0  0  0
   56.6350   31.2050   43.6250 C   0  0  0  0  0  0  0  0  0  0  0  0
   59.4290   34.3200   45.9590 N   0  0  0  0  0  0  0  0  0  0  0  0
   59.2780   35.2600   47.0690 C   0  0  0  0  0  0  0  0  0  0  0  0
   59.5850   34.5700   48.4020 C   0  0  0  0  0  0  0  0  0  0  0  0
   61.0910   34.3370   48.5920 C   0  0  0  0  0  0  0  0  0  0  0  0
   61.6770   33.6380   47.4300 N   0  0  0  0  0  0  0  0  0  0  0  0
   63.1310   33.8710   47.2940 C   0  0  0  0  0  0  0  0  0  0  0  0
   63.7390   32.5360   47.0800 C   0  0  0  0  0  0  0  0  0  0  0  0
   62.8350   31.5900   47.2100 C   0  0  0  0  0  0  0  0  0  0  0  0
   61.5090   32.1740   47.5280 C   0  0  0  0  0  0  0  0  0  0  0  0
   58.1840   33.2353   43.1907 H   0  0  0  0  0  0  0  0  0  0  0  0
   59.5979   32.5563   44.0752 H   0  0  0  0  0  0  0  0  0  0  0  0
   58.9786   30.9516   46.1098 H   0  0  0  0  0  0  0  0  0  0  0  0
   57.6619   28.8878   46.5868 H   0  0  0  0  0  0  0  0  0  0  0  0
   55.0275   29.7931   43.2762 H   0  0  0  0  0  0  0  0  0  0  0  0
   56.3370   31.8612   42.7940 H   0  0  0  0  0  0  0  0  0  0  0  0
   60.3900   33.9920   45.7150 H   0  0  0  0  0  0  0  0  0  0  0  0
   59.9729   36.1010   46.9282 H   0  0  0  0  0  0  0  0  0  0  0  0
   58.2403   35.6246   47.0878 H   0  0  0  0  0  0  0  0  0  0  0  0
   59.2165   35.2024   49.2231 H   0  0  0  0  0  0  0  0  0  0  0  0
   59.0855   33.5900   48.4019 H   0  0  0  0  0  0  0  0  0  0  0  0
   61.5912   35.3089   48.7151 H   0  0  0  0  0  0  0  0  0  0  0  0
   61.2353   33.7092   49.4837 H   0  0  0  0  0  0  0  0  0  0  0  0
   63.3346   34.5262   46.4342 H   0  0  0  0  0  0  0  0  0  0  0  0
   63.5456   34.3651   48.1851 H   0  0  0  0  0  0  0  0  0  0  0  0
   64.7993   32.3611   46.8451 H   0  0  0  0  0  0  0  0  0  0  0  0
   63.0345   30.5140   47.0983 H   0  0  0  0  0  0  0  0  0  0  0  0
   60.7549   31.8263   46.8066 H   0  0  0  0  0  0  0  0  0  0  0  0
   61.1649   31.8732   48.5286 H   0  0  0  0  0  0  0  0  0  0  0  0
  1  2  2  0
  2  3  1  0
  3  4  1  0
  4  5  2  0
  5  6  1  0
  6  7  2  0
  7  8  1  0
  7  9  1  0
  9 10  2  0
  2 11  1  0
 11 12  1  0
 12 13  1  0
 13 14  1  0
 14 15  1  0
 15 16  1  0
 16 17  1  0
 17 18  2  0
 18 19  1  0
 10  4  1  0
 19 15  1  0
  3 20  1  0
  3 21  1  0
  5 22  1  0
  6 23  1  0
  9 24  1  0
 10 25  1  0
 11 26  1  0
 12 27  1  0
 12 28  1  0
 13 29  1  0
 13 30  1  0
 14 31  1  0
 14 32  1  0
 16 33  1  0
 16 34  1  0
 17 35  1  0
 18 36  1  0
 19 37  1  0
 19 38  1  0
M  CHG  1   8  -1
M  END
>  <UniqueID>  (79) 
73

>  <SMILES>  (79) 
O=C(Cc1ccc([O-])cc1)NCCCN1CC=CC1

>  <Energy>  (79) 
36.57182222257997

>  <Genealogy>  (79) 
O=C(Cc1ccc([O-])cc1)NCCCN1CC=CC1 (protonated)
O=C(Cc1ccc([O-])cc1)NCCCN1CC=CC1 (3D coordinates assigned)
O=C(Cc1ccc([O-])cc1)NCCCN1CC=CC1 (nonaromatic ring conformer: 36.57182222257997 kcal/mol)

>  <smiles>  (79) 
O=C(Cc1ccc(O)cc1)NCCCN1CC=CC1

>  <score_type>  (79) 
oracle

>  <origin>  (79) 
adg

>  <m_score__min__energy>  (79) 
-10.73

>  <m_primary>  (79) 
energy

$$$$
79:0
     RDKit          3D

 49 52  0  0  0  0  0  0  0  0999 V2000
   59.0160   36.1160   47.4620 H   0  0  0  0  0  0  0  0  0  0  0  0
   59.5840   35.3000   47.2690 O   0  0  0  0  0  0  0  0  0  0  0  0
   59.1200   34.2650   46.4600 C   0  0  0  0  0  0  0  0  0  0  0  0
   59.3890   32.9390   46.8140 C   0  0  0  0  0  0  0  0  0  0  0  0
   59.9622   32.7204   47.7270 H   0  0  0  0  0  0  0  0  0  0  0  0
   58.9310   31.8900   46.0100 C   0  0  0  0  0  0  0  0  0  0  0  0
   59.1479   30.8492   46.2922 H   0  0  0  0  0  0  0  0  0  0  0  0
   58.1960   32.1590   44.8450 C   0  0  0  0  0  0  0  0  0  0  0  0
   57.7280   31.0270   43.9700 C   0  0  0  0  0  0  0  0  0  0  0  0
   57.3488   31.4359   43.0218 H   0  0  0  0  0  0  0  0  0  0  0  0
   58.5751   30.3511   43.7812 H   0  0  0  0  0  0  0  0  0  0  0  0
   56.6620   30.2740   44.6290 N   0  0  0  0  0  0  0  0  0  0  0  0
   56.8310   29.1660   45.2880 C   0  0  0  0  0  0  0  0  0  0  0  0
   55.8660   28.2140   45.2520 N   0  0  0  0  0  0  0  0  0  0  0  0
   56.0210   27.0510   45.9400 C   0  0  0  0  0  0  0  0  0  0  0  0
   55.1050   26.1310   45.9130 N   0  0  0  0  0  0  0  0  0  0  0  0
   55.3780   24.6990   46.0200 C   0  0  0  0  0  0  0  0  0  0  0  0
   56.4061   24.5510   46.3822 H   0  0  0  0  0  0  0  0  0  0  0  0
   54.6635   24.2487   46.7248 H   0  0  0  0  0  0  0  0  0  0  0  0
   55.2220   24.0290   44.6540 C   0  0  0  0  0  0  0  0  0  0  0  0
   54.3001   23.4289   44.6528 H   0  0  0  0  0  0  0  0  0  0  0  0
   55.1768   24.8150   43.8857 H   0  0  0  0  0  0  0  0  0  0  0  0
   56.3920   23.1310   44.3460 C   0  0  0  0  0  0  0  0  0  0  0  0
   56.3050   22.1830   43.3130 C   0  0  0  0  0  0  0  0  0  0  0  0
   55.3699   22.0782   42.7432 H   0  0  0  0  0  0  0  0  0  0  0  0
   57.4020   21.3720   43.0060 C   0  0  0  0  0  0  0  0  0  0  0  0
   57.3257   20.6267   42.2005 H   0  0  0  0  0  0  0  0  0  0  0  0
   58.5950   21.5070   43.7210 C   0  0  0  0  0  0  0  0  0  0  0  0
   59.4564   20.8669   43.4793 H   0  0  0  0  0  0  0  0  0  0  0  0
   58.6940   22.4550   44.7430 C   0  0  0  0  0  0  0  0  0  0  0  0
   59.6344   22.5625   45.3034 H   0  0  0  0  0  0  0  0  0  0  0  0
   57.5990   23.2670   45.0540 C   0  0  0  0  0  0  0  0  0  0  0  0
   57.6823   24.0153   45.8559 H   0  0  0  0  0  0  0  0  0  0  0  0
   57.1490   26.8450   46.6640 N   0  0  0  0  0  0  0  0  0  0  0  0
   58.1230   27.7940   46.7050 C   0  0  0  0  0  0  0  0  0  0  0  0
   59.2050   27.6110   47.3980 N   0  0  0  0  0  0  0  0  0  0  0  0
   59.9630   26.3640   47.3950 C   0  0  0  0  0  0  0  0  0  0  0  0
   59.8703   26.1310   48.4660 H   0  0  0  0  0  0  0  0  0  0  0  0
   59.8120   25.5870   46.1010 C   0  0  0  0  0  0  0  0  0  0  0  0
   59.8044   24.4871   46.1171 H   0  0  0  0  0  0  0  0  0  0  0  0
   59.0823   25.5794   45.2779 H   0  0  0  0  0  0  0  0  0  0  0  0
   61.1000   26.3440   46.3920 C   0  0  0  0  0  0  0  0  0  0  0  0
   62.0238   25.7915   46.6184 H   0  0  0  0  0  0  0  0  0  0  0  0
   61.6879   27.1109   45.8664 H   0  0  0  0  0  0  0  0  0  0  0  0
   57.9610   28.9500   46.0150 N   0  0  0  0  0  0  0  0  0  0  0  0
   57.9300   33.4930   44.4910 C   0  0  0  0  0  0  0  0  0  0  0  0
   57.3581   33.7142   43.5778 H   0  0  0  0  0  0  0  0  0  0  0  0
   58.3900   34.5400   45.2960 C   0  0  0  0  0  0  0  0  0  0  0  0
   58.1782   35.5821   45.0147 H   0  0  0  0  0  0  0  0  0  0  0  0
  1  2  1  0
  2  3  1  0
  3  4  2  0
  4  5  1  0
  4  6  1  0
  6  7  1  0
  6  8  2  0
  8  9  1  0
  9 10  1  0
  9 11  1  0
  9 12  1  0
 12 13  2  0
 13 14  1  0
 14 15  1  0
 15 16  2  3
 16 17  1  0
 17 18  1  0
 17 19  1  0
 17 20  1  0
 20 21  1  0
 20 22  1  0
 20 23  1  0
 23 24  2  0
 24 25  1  0
 24 26  1  0
 26 27  1  0
 26 28  2  0
 28 29  1  0
 28 30  1  0
 30 31  1  0
 30 32  2  0
 32 33  1  0
 15 34  1  0
 34 35  1  0
 35 36  2  0
 36 37  1  0
 37 38  1  0
 37 39  1  0
 39 40  1  0
 39 41  1  0
 39 42  1  0
 42 43  1  0
 42 44  1  0
 35 45  1  0
  8 46  1  0
 46 47  1  0
 46 48  2  0
 48 49  1  0
 48  3  1  0
 45 13  1  0
 32 23  1  0
 42 37  1  0
M  CHG  3  14  -1  34  -1  45  -1
M  END
>  <UniqueID>  (80) 
74

>  <SMILES>  (80) 
Oc1ccc(C/N=c2/[n-]c(=NCCc3ccccc3)[n-]/c(=N\C3CC3)[n-]2)cc1

>  <Energy>  (80) 
311.75191239770277

>  <Genealogy>  (80) 
Oc1ccc(CN=c2[n-]c(=NCCc3ccccc3)[n-]c(=NC3CC3)[n-]2)cc1 (protonated)
Oc1ccc(C/N=c2/[n-]c(=NCCc3ccccc3)[n-]/c(=N\C3CC3)[n-]2)cc1 (cis-trans isomerization)
Oc1ccc(C/N=c2/[n-]c(=NCCc3ccccc3)[n-]/c(=N\C3CC3)[n-]2)cc1 (3D coordinates assigned)
Oc1ccc(C/N=c2/[n-]c(=NCCc3ccccc3)[n-]/c(=N\C3CC3)[n-]2)cc1 (nonaromatic ring conformer: 311.75191239770277 kcal/mol)

>  <smiles>  (80) 
Oc1ccc(CN=c2[nH]c(=NCCc3ccccc3)[nH]c(=NC3CC3)[nH]2)cc1

>  <score_type>  (80) 
oracle

>  <origin>  (80) 
adg

>  <m_score__min__energy>  (80) 
-13.43

>  <m_primary>  (80) 
energy

$$$$
80:0
     RDKit          3D

 64 67  0  0  0  0  0  0  0  0999 V2000
   60.9120   31.1360   51.1060 C   0  0  0  0  0  0  0  0  0  0  0  0
   60.8050   30.0670   50.0580 C   0  0  0  0  0  0  0  0  0  0  0  0
   60.5460   28.7410   50.4260 C   0  0  0  0  0  0  0  0  0  0  0  0
   60.4000   27.7550   49.4490 C   0  0  0  0  0  0  0  0  0  0  0  0
   60.5040   28.0690   48.0830 C   0  0  0  0  0  0  0  0  0  0  0  0
   60.3080   26.9550   47.0760 C   0  0  0  0  0  0  0  0  0  0  0  0
   58.8720   26.8570   46.6360 C   0  0  0  0  0  0  0  0  0  0  0  0
   58.1580   25.6630   46.8240 C   0  0  0  0  0  0  0  0  0  0  0  0
   56.8190   25.5730   46.4310 C   0  0  0  0  0  0  0  0  0  0  0  0
   56.1870   26.6710   45.8430 C   0  0  0  0  0  0  0  0  0  0  0  0
   56.8890   27.8610   45.6270 C   0  0  0  0  0  0  0  0  0  0  0  0
   56.1960   28.9790   45.0510 N   0  0  0  0  0  0  0  0  0  0  0  0
   56.7920   30.0840   44.3590 C   0  0  0  0  0  0  0  0  0  0  0  0
   56.8590   30.0430   43.1020 O   0  0  0  0  0  0  0  0  0  0  0  0
   57.3740   31.2400   45.0790 C   0  0  0  0  0  0  0  0  0  0  0  0
   57.3670   32.5210   44.5040 C   0  0  0  0  0  0  0  0  0  0  0  0
   57.9000   33.6110   45.1980 C   0  0  0  0  0  0  0  0  0  0  0  0
   58.4740   33.4360   46.4680 C   0  0  0  0  0  0  0  0  0  0  0  0
   59.0270   34.6200   47.2370 C   0  0  0  0  0  0  0  0  0  0  0  0
   60.5060   34.6840   47.2650 N   0  0  0  0  0  0  0  0  0  0  0  0
   61.1140   34.5840   48.6140 C   0  0  0  0  0  0  0  0  0  0  0  0
   61.9660   33.3160   48.7670 C   0  0  0  0  0  0  0  0  0  0  0  0
   63.0570   33.2800   47.7660 N   0  0  0  0  0  0  0  0  0  0  0  0
   63.5900   31.9140   47.6410 C   0  0  0  0  0  0  0  0  0  0  0  0
   62.6750   33.8310   46.4380 C   0  0  0  0  0  0  0  0  0  0  0  0
   61.1560   33.8500   46.2320 C   0  0  0  0  0  0  0  0  0  0  0  0
   58.4520   32.1610   47.0530 C   0  0  0  0  0  0  0  0  0  0  0  0
   57.9060   31.0730   46.3670 C   0  0  0  0  0  0  0  0  0  0  0  0
   58.2320   27.9550   46.0410 C   0  0  0  0  0  0  0  0  0  0  0  0
   60.7550   29.4160   47.7030 C   0  0  0  0  0  0  0  0  0  0  0  0
   60.8140   29.8490   46.2600 C   0  0  0  0  0  0  0  0  0  0  0  0
   60.8850   30.4010   48.7000 C   0  0  0  0  0  0  0  0  0  0  0  0
   60.8660   30.6766   52.1044 H   0  0  0  0  0  0  0  0  0  0  0  0
   61.8679   31.6680   50.9908 H   0  0  0  0  0  0  0  0  0  0  0  0
   60.0805   31.8469   50.9908 H   0  0  0  0  0  0  0  0  0  0  0  0
   60.4572   28.4753   51.4897 H   0  0  0  0  0  0  0  0  0  0  0  0
   60.2006   26.7167   49.7526 H   0  0  0  0  0  0  0  0  0  0  0  0
   60.9388   27.1526   46.1968 H   0  0  0  0  0  0  0  0  0  0  0  0
   60.5889   26.0045   47.5531 H   0  0  0  0  0  0  0  0  0  0  0  0
   58.6539   24.7946   47.2823 H   0  0  0  0  0  0  0  0  0  0  0  0
   56.2629   24.6365   46.5851 H   0  0  0  0  0  0  0  0  0  0  0  0
   55.1298   26.5992   45.5478 H   0  0  0  0  0  0  0  0  0  0  0  0
   56.9394   32.6677   43.5012 H   0  0  0  0  0  0  0  0  0  0  0  0
   57.8697   34.6135   44.7461 H   0  0  0  0  0  0  0  0  0  0  0  0
   58.6499   35.5419   46.7702 H   0  0  0  0  0  0  0  0  0  0  0  0
   58.6943   34.5053   48.2792 H   0  0  0  0  0  0  0  0  0  0  0  0
   61.7527   35.4637   48.7820 H   0  0  0  0  0  0  0  0  0  0  0  0
   60.2994   34.5377   49.3518 H   0  0  0  0  0  0  0  0  0  0  0  0
   62.4039   33.2975   49.7759 H   0  0  0  0  0  0  0  0  0  0  0  0
   61.3191   32.4405   48.6089 H   0  0  0  0  0  0  0  0  0  0  0  0
   63.7548   31.4916   48.6432 H   0  0  0  0  0  0  0  0  0  0  0  0
   62.8701   31.2882   47.0932 H   0  0  0  0  0  0  0  0  0  0  0  0
   64.5435   31.9412   47.0932 H   0  0  0  0  0  0  0  0  0  0  0  0
   63.0557   34.8600   46.3590 H   0  0  0  0  0  0  0  0  0  0  0  0
   63.1116   33.1811   45.6654 H   0  0  0  0  0  0  0  0  0  0  0  0
   60.9303   34.2631   45.2378 H   0  0  0  0  0  0  0  0  0  0  0  0
   60.7725   32.8220   46.3103 H   0  0  0  0  0  0  0  0  0  0  0  0
   58.8684   32.0165   48.0609 H   0  0  0  0  0  0  0  0  0  0  0  0
   57.8930   30.0796   46.8393 H   0  0  0  0  0  0  0  0  0  0  0  0
   58.7832   28.8960   45.8969 H   0  0  0  0  0  0  0  0  0  0  0  0
   60.9624   30.9378   46.2097 H   0  0  0  0  0  0  0  0  0  0  0  0
   61.6513   29.3413   45.7588 H   0  0  0  0  0  0  0  0  0  0  0  0
   59.8714   29.5838   45.7588 H   0  0  0  0  0  0  0  0  0  0  0  0
   61.0519   31.4485   48.4085 H   0  0  0  0  0  0  0  0  0  0  0  0
  1  2  1  0
  2  3  2  0
  3  4  1  0
  4  5  2  0
  5  6  1  0
  6  7  1  0
  7  8  2  0
  8  9  1  0
  9 10  2  0
 10 11  1  0
 11 12  1  0
 12 13  1  0
 13 14  2  0
 13 15  1  0
 15 16  2  0
 16 17  1  0
 17 18  2  0
 18 19  1  0
 19 20  1  0
 20 21  1  0
 21 22  1  0
 22 23  1  0
 23 24  1  0
 23 25  1  0
 25 26  1  0
 18 27  1  0
 27 28  2  0
 11 29  2  0
  5 30  1  0
 30 31  1  0
 30 32  2  0
 32  2  1  0
 29  7  1  0
 28 15  1  0
 26 20  1  0
  1 33  1  0
  1 34  1  0
  1 35  1  0
  3 36  1  0
  4 37  1  0
  6 38  1  0
  6 39  1  0
  8 40  1  0
  9 41  1  0
 10 42  1  0
 16 43  1  0
 17 44  1  0
 19 45  1  0
 19 46  1  0
 21 47  1  0
 21 48  1  0
 22 49  1  0
 22 50  1  0
 24 51  1  0
 24 52  1  0
 24 53  1  0
 25 54  1  0
 25 55  1  0
 26 56  1  0
 26 57  1  0
 27 58  1  0
 28 59  1  0
 29 60  1  0
 31 61  1  0
 31 62  1  0
 31 63  1  0
 32 64  1  0
M  CHG  1  12  -1
M  END
>  <UniqueID>  (81) 
75

>  <SMILES>  (81) 
Cc1ccc(Cc2cccc([N-]C(=O)c3ccc(CN4CCN(C)CC4)cc3)c2)c(C)c1

>  <Energy>  (81) 
85.07665152805068

>  <Genealogy>  (81) 
Cc1ccc(Cc2cccc([N-]C(=O)c3ccc(CN4CCN(C)CC4)cc3)c2)c(C)c1 (protonated)
Cc1ccc(Cc2cccc([N-]C(=O)c3ccc(CN4CCN(C)CC4)cc3)c2)c(C)c1 (3D coordinates assigned)
Cc1ccc(Cc2cccc([N-]C(=O)c3ccc(CN4CCN(C)CC4)cc3)c2)c(C)c1 (nonaromatic ring conformer: 85.07665152805068 kcal/mol)

>  <smiles>  (81) 
Cc1ccc(Cc2cccc(NC(=O)c3ccc(CN4CCN(C)CC4)cc3)c2)c(C)c1

>  <score_type>  (81) 
oracle

>  <origin>  (81) 
adg

>  <m_score__min__energy>  (81) 
-11.09

>  <m_primary>  (81) 
energy

$$$$
81:0
     RDKit          3D

 42 44  0  0  0  0  0  0  0  0999 V2000
   61.8991   30.0378   46.8612 H   0  0  0  0  0  0  0  0  0  0  0  0
   60.9060   29.7000   46.5300 C   0  0  0  0  0  0  0  0  0  0  0  0
   59.7960   29.8770   47.3600 C   0  0  0  0  0  0  0  0  0  0  0  0
   59.9161   30.3551   48.3434 H   0  0  0  0  0  0  0  0  0  0  0  0
   58.5320   29.4470   46.9420 C   0  0  0  0  0  0  0  0  0  0  0  0
   57.6609   29.5845   47.5994 H   0  0  0  0  0  0  0  0  0  0  0  0
   58.3720   28.8400   45.6850 C   0  0  0  0  0  0  0  0  0  0  0  0
   57.0140   28.3540   45.2500 C   0  0  0  0  0  0  0  0  0  0  0  0
   56.4407   28.0442   46.1362 H   0  0  0  0  0  0  0  0  0  0  0  0
   57.1461   27.5044   44.5639 H   0  0  0  0  0  0  0  0  0  0  0  0
   56.2840   29.4120   44.5520 N   0  0  0  0  0  0  0  0  0  0  0  0
   56.7870   30.5630   44.2130 C   0  0  0  0  0  0  0  0  0  0  0  0
   56.8710   31.5780   45.1180 N   0  0  0  0  0  0  0  0  0  0  0  0
   57.4010   32.7830   44.7870 C   0  0  0  0  0  0  0  0  0  0  0  0
   57.4440   33.8770   45.8130 C   0  0  0  0  0  0  0  0  0  0  0  0
   56.6603   33.7025   46.5648 H   0  0  0  0  0  0  0  0  0  0  0  0
   57.2760   34.8444   45.3170 H   0  0  0  0  0  0  0  0  0  0  0  0
   58.7860   33.8950   46.4880 C   0  0  0  0  0  0  0  0  0  0  0  0
   58.8940   33.6070   47.8570 C   0  0  0  0  0  0  0  0  0  0  0  0
   57.9883   33.3966   48.4448 H   0  0  0  0  0  0  0  0  0  0  0  0
   60.1460   33.5860   48.4780 C   0  0  0  0  0  0  0  0  0  0  0  0
   60.2201   33.3677   49.5536 H   0  0  0  0  0  0  0  0  0  0  0  0
   61.3130   33.8430   47.7330 C   0  0  0  0  0  0  0  0  0  0  0  0
   62.5930   33.8330   48.3090 O   0  0  0  0  0  0  0  0  0  0  0  0
   63.7250   33.1870   47.7360 C   0  0  0  0  0  0  0  0  0  0  0  0
   64.3790   32.8138   48.5378 H   0  0  0  0  0  0  0  0  0  0  0  0
   63.3901   32.3440   47.1137 H   0  0  0  0  0  0  0  0  0  0  0  0
   64.2804   33.9041   47.1137 H   0  0  0  0  0  0  0  0  0  0  0  0
   61.2020   34.1160   46.3650 C   0  0  0  0  0  0  0  0  0  0  0  0
   62.1079   34.3159   45.7739 H   0  0  0  0  0  0  0  0  0  0  0  0
   59.9510   34.1370   45.7430 C   0  0  0  0  0  0  0  0  0  0  0  0
   59.8787   34.3440   44.6651 H   0  0  0  0  0  0  0  0  0  0  0  0
   57.8500   33.0020   43.4800 C   0  0  0  0  0  0  0  0  0  0  0  0
   58.2644   33.9768   43.1834 H   0  0  0  0  0  0  0  0  0  0  0  0
   57.7600   31.9550   42.5610 C   0  0  0  0  0  0  0  0  0  0  0  0
   58.1620   32.1200   41.3800 O   0  0  0  0  0  0  0  0  0  0  0  0
   57.2360   30.7570   42.9420 N   0  0  0  0  0  0  0  0  0  0  0  0
   57.1730   29.9790   42.2450 H   0  0  0  0  0  0  0  0  0  0  0  0
   59.4940   28.6640   44.8570 C   0  0  0  0  0  0  0  0  0  0  0  0
   59.3790   28.1860   43.8730 H   0  0  0  0  0  0  0  0  0  0  0  0
   60.7560   29.0940   45.2790 C   0  0  0  0  0  0  0  0  0  0  0  0
   61.6308   28.9554   44.6266 H   0  0  0  0  0  0  0  0  0  0  0  0
  1  2  1  0
  2  3  2  0
  3  4  1  0
  3  5  1  0
  5  6  1  0
  5  7  2  0
  7  8  1  0
  8  9  1  0
  8 10  1  0
  8 11  1  0
 11 12  2  0
 12 13  1  0
 13 14  1  0
 14 15  1  0
 15 16  1  0
 15 17  1  0
 15 18  1  0
 18 19  2  0
 19 20  1  0
 19 21  1  0
 21 22  1  0
 21 23  2  0
 23 24  1  0
 24 25  1  0
 25 26  1  0
 25 27  1  0
 25 28  1  0
 23 29  1  0
 29 30  1  0
 29 31  2  0
 31 32  1  0
 14 33  2  0
 33 34  1  0
 33 35  1  0
 35 36  2  0
 35 37  1  0
 37 38  1  0
  7 39  1  0
 39 40  1  0
 39 41  2  0
 41 42  1  0
 41  2  1  0
 37 12  1  0
 31 18  1  0
M  CHG  1  13  -1
M  END
>  <UniqueID>  (82) 
76

>  <SMILES>  (82) 
COc1ccc(Cc2cc(=O)[nH]/c(=N/Cc3ccccc3)[n-]2)cc1

>  <Energy>  (82) 
41.12791231102847

>  <Genealogy>  (82) 
COc1ccc(Cc2cc(=O)[nH]c(=NCc3ccccc3)[n-]2)cc1 (protonated)
COc1ccc(Cc2cc(=O)[nH]/c(=N/Cc3ccccc3)[n-]2)cc1 (cis-trans isomerization)
COc1ccc(Cc2cc(=O)[nH]/c(=N/Cc3ccccc3)[n-]2)cc1 (3D coordinates assigned)
COc1ccc(Cc2cc(=O)[nH]/c(=N/Cc3ccccc3)[n-]2)cc1 (optimized conformer: 41.12791231102847 kcal/mol)

>  <smiles>  (82) 
COc1ccc(Cc2cc(=O)[nH]c(=NCc3ccccc3)[nH]2)cc1

>  <score_type>  (82) 
oracle

>  <origin>  (82) 
adg

>  <m_score__min__energy>  (82) 
-9.5199999999999996

>  <m_primary>  (82) 
energy

$$$$
82:0
     RDKit          3D

 35 36  0  0  0  0  0  0  0  0999 V2000
   56.6486   32.7164   51.1614 H   0  0  0  0  0  0  0  0  0  0  0  0
   57.4190   32.3910   51.8760 C   0  0  0  0  0  0  0  0  0  0  0  0
   57.3100   31.0240   52.4170 C   0  0  0  0  0  0  0  0  0  0  0  0
   58.1800   30.6200   53.2330 O   0  0  0  0  0  0  0  0  0  0  0  0
   56.2950   30.1620   51.9810 O   0  0  0  0  0  0  0  0  0  0  0  0
   55.1960   29.7630   52.7970 C   0  0  0  0  0  0  0  0  0  0  0  0
   55.4921   28.8949   53.4042 H   0  0  0  0  0  0  0  0  0  0  0  0
   54.9132   30.6024   53.4492 H   0  0  0  0  0  0  0  0  0  0  0  0
   53.9950   29.3840   51.9280 C   0  0  0  0  0  0  0  0  0  0  0  0
   54.3201   29.2955   50.8809 H   0  0  0  0  0  0  0  0  0  0  0  0
   53.5891   28.4252   52.2828 H   0  0  0  0  0  0  0  0  0  0  0  0
   52.9190   30.4320   52.0250 C   0  0  0  0  0  0  0  0  0  0  0  0
   52.4070   30.8080   53.2770 C   0  0  0  0  0  0  0  0  0  0  0  0
   52.7763   30.3176   54.1897 H   0  0  0  0  0  0  0  0  0  0  0  0
   51.4300   31.8030   53.3680 C   0  0  0  0  0  0  0  0  0  0  0  0
   51.0273   32.0883   54.3511 H   0  0  0  0  0  0  0  0  0  0  0  0
   50.9630   32.4370   52.2120 C   0  0  0  0  0  0  0  0  0  0  0  0
   49.9910   33.4260   52.3110 O   0  0  0  0  0  0  0  0  0  0  0  0
   51.4780   32.0770   50.9610 C   0  0  0  0  0  0  0  0  0  0  0  0
   51.0220   32.7080   49.8100 O   0  0  0  0  0  0  0  0  0  0  0  0
   52.4560   31.0810   50.8680 C   0  0  0  0  0  0  0  0  0  0  0  0
   52.8643   30.8047   49.8847 H   0  0  0  0  0  0  0  0  0  0  0  0
   58.3840   33.2690   52.1870 C   0  0  0  0  0  0  0  0  0  0  0  0
   58.2628   33.8478   53.1145 H   0  0  0  0  0  0  0  0  0  0  0  0
   59.5980   33.5200   51.3810 C   0  0  0  0  0  0  0  0  0  0  0  0
   60.8820   33.3490   51.9280 C   0  0  0  0  0  0  0  0  0  0  0  0
   60.9935   33.0463   52.9796 H   0  0  0  0  0  0  0  0  0  0  0  0
   62.0170   33.5620   51.1410 C   0  0  0  0  0  0  0  0  0  0  0  0
   63.0192   33.4463   51.5794 H   0  0  0  0  0  0  0  0  0  0  0  0
   61.8800   33.9220   49.7970 C   0  0  0  0  0  0  0  0  0  0  0  0
   63.0130   34.1350   49.0190 O   0  0  0  0  0  0  0  0  0  0  0  0
   60.6040   34.0600   49.2360 C   0  0  0  0  0  0  0  0  0  0  0  0
   60.4620   34.4070   47.8980 O   0  0  0  0  0  0  0  0  0  0  0  0
   59.4670   33.8500   50.0250 C   0  0  0  0  0  0  0  0  0  0  0  0
   58.4660   33.9444   49.5788 H   0  0  0  0  0  0  0  0  0  0  0  0
  1  2  1  0
  2  3  1  0
  3  4  2  0
  3  5  1  0
  5  6  1  0
  6  7  1  0
  6  8  1  0
  6  9  1  0
  9 10  1  0
  9 11  1  0
  9 12  1  0
 12 13  2  0
 13 14  1  0
 13 15  1  0
 15 16  1  0
 15 17  2  0
 17 18  1  0
 17 19  1  0
 19 20  1  0
 19 21  2  0
 21 22  1  0
  2 23  2  0
 23 24  1  0
 23 25  1  0
 25 26  2  0
 26 27  1  0
 26 28  1  0
 28 29  1  0
 28 30  2  0
 30 31  1  0
 30 32  1  0
 32 33  1  0
 32 34  2  0
 34 35  1  0
 21 12  1  0
 34 25  1  0
M  CHG  4  18  -1  20  -1  31  -1  33  -1
M  END
>  <UniqueID>  (83) 
77

>  <SMILES>  (83) 
O=C(/C=C\c1ccc([O-])c([O-])c1)OCCc1ccc([O-])c([O-])c1

>  <Energy>  (83) 
38.082385931285096

>  <Genealogy>  (83) 
O=C(C=Cc1ccc([O-])c([O-])c1)OCCc1ccc([O-])c([O-])c1 (protonated)
O=C(/C=C\c1ccc([O-])c([O-])c1)OCCc1ccc([O-])c([O-])c1 (cis-trans isomerization)
O=C(/C=C\c1ccc([O-])c([O-])c1)OCCc1ccc([O-])c([O-])c1 (3D coordinates assigned)
O=C(/C=C\c1ccc([O-])c([O-])c1)OCCc1ccc([O-])c([O-])c1 (optimized conformer: 38.082385931285096 kcal/mol)

>  <smiles>  (83) 
O=C(C=Cc1ccc(O)c(O)c1)OCCc1ccc(O)c(O)c1

>  <score_type>  (83) 
oracle

>  <origin>  (83) 
adg

>  <m_score__min__energy>  (83) 
-17.039999999999999

>  <m_primary>  (83) 
energy

$$$$
83:0
     RDKit          3D

 43 45  0  0  0  0  0  0  0  0999 V2000
   55.6529   24.4291   47.0884 H   0  0  0  0  0  0  0  0  0  0  0  0
   56.2860   25.2670   46.7610 C   0  0  0  0  0  0  0  0  0  0  0  0
   55.7220   26.3640   46.1960 N   0  0  0  0  0  0  0  0  0  0  0  0
   56.4840   27.4140   45.7810 C   0  0  0  0  0  0  0  0  0  0  0  0
   55.9420   28.4550   45.2260 N   0  0  0  0  0  0  0  0  0  0  0  0
   56.7070   29.3970   43.9850 S   0  0  0  0  0  0  0  0  0  0  0  0
   57.8130   28.5970   43.3560 O   0  0  0  0  0  0  0  0  0  0  0  0
   55.6970   29.7360   42.9250 O   0  0  0  0  0  0  0  0  0  0  0  0
   57.3340   30.8880   44.6800 C   0  0  0  0  0  0  0  0  0  0  0  0
   57.8100   30.8970   45.9980 C   0  0  0  0  0  0  0  0  0  0  0  0
   57.7128   29.9965   46.6222 H   0  0  0  0  0  0  0  0  0  0  0  0
   58.4080   32.0470   46.5220 C   0  0  0  0  0  0  0  0  0  0  0  0
   58.7587   32.0557   47.5646 H   0  0  0  0  0  0  0  0  0  0  0  0
   58.5620   33.1860   45.7260 C   0  0  0  0  0  0  0  0  0  0  0  0
   59.2490   34.3270   46.2600 N   0  0  0  0  0  0  0  0  0  0  0  0
   60.0400   34.3240   47.4570 C   0  0  0  0  0  0  0  0  0  0  0  0
   59.6250   34.9650   48.4580 O   0  0  0  0  0  0  0  0  0  0  0  0
   61.2860   33.5220   47.5610 C   0  0  0  0  0  0  0  0  0  0  0  0
   62.3720   33.8490   46.7290 C   0  0  0  0  0  0  0  0  0  0  0  0
   62.2803   34.6830   46.0176 H   0  0  0  0  0  0  0  0  0  0  0  0
   63.5650   33.1270   46.7960 C   0  0  0  0  0  0  0  0  0  0  0  0
   64.4086   33.3968   46.1436 H   0  0  0  0  0  0  0  0  0  0  0  0
   63.6870   32.0650   47.6890 C   0  0  0  0  0  0  0  0  0  0  0  0
   64.6273   31.4964   47.7395 H   0  0  0  0  0  0  0  0  0  0  0  0
   62.6200   31.7200   48.5200 C   0  0  0  0  0  0  0  0  0  0  0  0
   62.7211   30.8732   49.2147 H   0  0  0  0  0  0  0  0  0  0  0  0
   61.4160   32.4470   48.4760 C   0  0  0  0  0  0  0  0  0  0  0  0
   60.2980   32.0610   49.4100 C   0  0  0  0  0  0  0  0  0  0  0  0
   60.6335   32.1768   50.4512 H   0  0  0  0  0  0  0  0  0  0  0  0
   59.4291   32.7112   49.2303 H   0  0  0  0  0  0  0  0  0  0  0  0
   60.0153   31.0132   49.2303 H   0  0  0  0  0  0  0  0  0  0  0  0
   58.0430   33.1930   44.4200 C   0  0  0  0  0  0  0  0  0  0  0  0
   58.1151   34.1027   43.8059 H   0  0  0  0  0  0  0  0  0  0  0  0
   57.4360   32.0480   43.9000 C   0  0  0  0  0  0  0  0  0  0  0  0
   57.0367   32.0565   42.8751 H   0  0  0  0  0  0  0  0  0  0  0  0
   57.8320   27.3690   45.9420 N   0  0  0  0  0  0  0  0  0  0  0  0
   58.4400   26.2910   46.5070 C   0  0  0  0  0  0  0  0  0  0  0  0
   59.9280   26.2650   46.6530 C   0  0  0  0  0  0  0  0  0  0  0  0
   60.1916   26.2604   47.7209 H   0  0  0  0  0  0  0  0  0  0  0  0
   60.3278   25.3597   46.1727 H   0  0  0  0  0  0  0  0  0  0  0  0
   60.3592   27.1557   46.1727 H   0  0  0  0  0  0  0  0  0  0  0  0
   57.6680   25.2030   46.9260 C   0  0  0  0  0  0  0  0  0  0  0  0
   58.1408   24.3173   47.3754 H   0  0  0  0  0  0  0  0  0  0  0  0
  1  2  1  0
  2  3  1  0
  3  4  1  0
  4  5  2  0
  5  6  1  0
  6  7  2  0
  6  8  2  0
  6  9  1  0
  9 10  2  0
 10 11  1  0
 10 12  1  0
 12 13  1  0
 12 14  2  0
 14 15  1  0
 15 16  1  0
 16 17  2  0
 16 18  1  0
 18 19  2  0
 19 20  1  0
 19 21  1  0
 21 22  1  0
 21 23  2  0
 23 24  1  0
 23 25  1  0
 25 26  1  0
 25 27  2  0
 27 28  1  0
 28 29  1  0
 28 30  1  0
 28 31  1  0
 14 32  1  0
 32 33  1  0
 32 34  2  0
 34 35  1  0
  4 36  1  0
 36 37  2  0
 37 38  1  0
 38 39  1  0
 38 40  1  0
 38 41  1  0
 37 42  1  0
 42 43  1  0
 42  2  2  0
 34  9  1  0
 27 18  1  0
M  CHG  2   3  -1  15  -1
M  END
>  <UniqueID>  (84) 
78

>  <SMILES>  (84) 
Cc1cc[n-]/c(=N\S(=O)(=O)c2ccc([N-]C(=O)c3ccccc3C)cc2)n1

>  <Energy>  (84) 
55.726666760536254

>  <Genealogy>  (84) 
Cc1cc[n-]c(=NS(=O)(=O)c2ccc([N-]C(=O)c3ccccc3C)cc2)n1 (protonated)
Cc1cc[n-]/c(=N\S(=O)(=O)c2ccc([N-]C(=O)c3ccccc3C)cc2)n1 (cis-trans isomerization)
Cc1cc[n-]/c(=N\S(=O)(=O)c2ccc([N-]C(=O)c3ccccc3C)cc2)n1 (3D coordinates assigned)
Cc1cc[n-]/c(=N\S(=O)(=O)c2ccc([N-]C(=O)c3ccccc3C)cc2)n1 (optimized conformer: 55.726666760536254 kcal/mol)

>  <smiles>  (84) 
Cc1cc[nH]c(=NS(=O)(=O)c2ccc(NC(=O)c3ccccc3C)cc2)n1

>  <score_type>  (84) 
oracle

>  <origin>  (84) 
adg

>  <m_score__min__energy>  (84) 
-11.5

>  <m_primary>  (84) 
energy

$$$$
84:0
     RDKit          3D

 36 37  0  0  0  0  0  0  0  0999 V2000
   59.1640   30.3560   47.5280 C   0  0  0  0  0  0  0  0  0  0  0  0
   58.4580   31.1810   46.6070 O   0  0  0  0  0  0  0  0  0  0  0  0
   57.8940   30.7310   45.4020 C   0  0  0  0  0  0  0  0  0  0  0  0
   57.5950   29.3710   45.1880 C   0  0  0  0  0  0  0  0  0  0  0  0
   57.0170   28.9530   43.9880 C   0  0  0  0  0  0  0  0  0  0  0  0
   56.7270   29.8830   42.9890 C   0  0  0  0  0  0  0  0  0  0  0  0
   57.0210   31.2340   43.1860 C   0  0  0  0  0  0  0  0  0  0  0  0
   57.6170   31.6670   44.3820 C   0  0  0  0  0  0  0  0  0  0  0  0
   57.8630   33.1420   44.5850 C   0  0  0  0  0  0  0  0  0  0  0  0
   57.8180   33.4560   46.0110 N   0  0  0  0  0  0  0  0  0  0  0  0
   58.9040   34.1030   46.6950 C   0  0  0  0  0  0  0  0  0  0  0  0
   59.6940   35.3660   46.0000 S   0  0  0  0  0  0  0  0  0  0  0  0
   59.3230   33.6140   47.9800 N   0  0  0  0  0  0  0  0  0  0  0  0
   60.7620   33.5680   48.0180 C   0  0  0  0  0  0  0  0  0  0  0  0
   61.4710   34.2020   49.0560 C   0  0  0  0  0  0  0  0  0  0  0  0
   62.8640   34.1130   49.1160 C   0  0  0  0  0  0  0  0  0  0  0  0
   63.5630   33.3880   48.1470 C   0  0  0  0  0  0  0  0  0  0  0  0
   62.8690   32.7470   47.1180 C   0  0  0  0  0  0  0  0  0  0  0  0
   61.4760   32.8330   47.0520 C   0  0  0  0  0  0  0  0  0  0  0  0
   58.9096   30.6532   48.5561 H   0  0  0  0  0  0  0  0  0  0  0  0
   58.8815   29.3047   47.3697 H   0  0  0  0  0  0  0  0  0  0  0  0
   60.2463   30.4727   47.3697 H   0  0  0  0  0  0  0  0  0  0  0  0
   57.8187   28.6329   45.9724 H   0  0  0  0  0  0  0  0  0  0  0  0
   56.7897   27.8884   43.8297 H   0  0  0  0  0  0  0  0  0  0  0  0
   56.2668   29.5521   42.0463 H   0  0  0  0  0  0  0  0  0  0  0  0
   56.7840   31.9646   42.3986 H   0  0  0  0  0  0  0  0  0  0  0  0
   58.8522   33.4066   44.1832 H   0  0  0  0  0  0  0  0  0  0  0  0
   57.0858   33.7170   44.0602 H   0  0  0  0  0  0  0  0  0  0  0  0
   57.1410   32.9110   46.5900 H   0  0  0  0  0  0  0  0  0  0  0  0
   58.9650   34.2330   48.7470 H   0  0  0  0  0  0  0  0  0  0  0  0
   58.9210   32.6610   48.1340 H   0  0  0  0  0  0  0  0  0  0  0  0
   60.9254   34.7703   49.8237 H   0  0  0  0  0  0  0  0  0  0  0  0
   63.4116   34.6145   49.9275 H   0  0  0  0  0  0  0  0  0  0  0  0
   64.6600   33.3221   48.1946 H   0  0  0  0  0  0  0  0  0  0  0  0
   63.4202   32.1735   46.3583 H   0  0  0  0  0  0  0  0  0  0  0  0
   60.9342   32.3239   46.2413 H   0  0  0  0  0  0  0  0  0  0  0  0
  1  2  1  0
  2  3  1  0
  3  4  2  0
  4  5  1  0
  5  6  2  0
  6  7  1  0
  7  8  2  0
  8  9  1  0
  9 10  1  0
 10 11  1  0
 11 12  2  0
 11 13  1  0
 13 14  1  0
 14 15  2  0
 15 16  1  0
 16 17  2  0
 17 18  1  0
 18 19  2  0
  8  3  1  0
 19 14  1  0
  1 20  1  0
  1 21  1  0
  1 22  1  0
  4 23  1  0
  5 24  1  0
  6 25  1  0
  7 26  1  0
  9 27  1  0
  9 28  1  0
 10 29  1  0
 13 30  1  0
 13 31  1  0
 15 32  1  0
 16 33  1  0
 17 34  1  0
 18 35  1  0
 19 36  1  0
M  CHG  1  13   1
M  END
>  <UniqueID>  (85) 
79

>  <SMILES>  (85) 
COc1ccccc1CNC(=S)[NH2+]c1ccccc1

>  <Energy>  (85) 
32.11346768086406

>  <Genealogy>  (85) 
COc1ccccc1CNC(=S)[NH2+]c1ccccc1 (protonated)
COc1ccccc1CNC(=S)[NH2+]c1ccccc1 (3D coordinates assigned)
COc1ccccc1CNC(=S)[NH2+]c1ccccc1 (optimized conformer: 32.11346768086406 kcal/mol)

>  <smiles>  (85) 
COc1ccccc1CNC(=S)Nc1ccccc1

>  <score_type>  (85) 
oracle

>  <origin>  (85) 
adg

>  <m_score__min__energy>  (85) 
-5.0099999999999998

>  <m_primary>  (85) 
energy

$$$$
85:0
     RDKit          3D

 37 39  0  0  0  0  0  0  0  0999 V2000
   60.3810   28.9910   44.8110 C   0  0  0  0  0  0  0  0  0  0  0  0
   60.0150   29.1390   46.2580 C   0  0  0  0  0  0  0  0  0  0  0  0
   59.2990   28.1260   46.9060 C   0  0  0  0  0  0  0  0  0  0  0  0
   58.9440   28.2880   48.2430 C   0  0  0  0  0  0  0  0  0  0  0  0
   59.2840   29.4580   48.9190 C   0  0  0  0  0  0  0  0  0  0  0  0
   59.9750   30.4820   48.2350 C   0  0  0  0  0  0  0  0  0  0  0  0
   60.3320   31.5940   48.8180 N   0  0  0  0  0  0  0  0  0  0  0  0
   60.5640   32.8710   48.2040 C   0  0  0  0  0  0  0  0  0  0  0  0
   61.4140   32.9990   47.2830 O   0  0  0  0  0  0  0  0  0  0  0  0
   59.8340   34.0760   48.7090 C   0  0  0  0  0  0  0  0  0  0  0  0
   58.9230   34.5570   47.7200 O   0  0  0  0  0  0  0  0  0  0  0  0
   58.6010   33.8940   46.5240 C   0  0  0  0  0  0  0  0  0  0  0  0
   59.1390   34.3900   45.3290 C   0  0  0  0  0  0  0  0  0  0  0  0
   58.8720   33.7590   44.1090 C   0  0  0  0  0  0  0  0  0  0  0  0
   58.0570   32.6210   44.0750 C   0  0  0  0  0  0  0  0  0  0  0  0
   57.7720   31.9580   42.8770 C   0  0  0  0  0  0  0  0  0  0  0  0
   56.9550   30.8290   42.8980 C   0  0  0  0  0  0  0  0  0  0  0  0
   56.4380   30.3870   44.1210 C   0  0  0  0  0  0  0  0  0  0  0  0
   55.7000   29.3700   44.1600 O   0  0  0  0  0  0  0  0  0  0  0  0
   56.7250   31.0380   45.2460 O   0  0  0  0  0  0  0  0  0  0  0  0
   57.5010   32.1180   45.2710 C   0  0  0  0  0  0  0  0  0  0  0  0
   57.7690   32.7580   46.4850 C   0  0  0  0  0  0  0  0  0  0  0  0
   60.3250   30.2870   46.9300 N   0  0  0  0  0  0  0  0  0  0  0  0
   61.3980   28.5797   44.7302 H   0  0  0  0  0  0  0  0  0  0  0  0
   59.6700   28.3097   44.3208 H   0  0  0  0  0  0  0  0  0  0  0  0
   60.3434   29.9750   44.3208 H   0  0  0  0  0  0  0  0  0  0  0  0
   59.0192   27.2104   46.3644 H   0  0  0  0  0  0  0  0  0  0  0  0
   58.3946   27.4913   48.7659 H   0  0  0  0  0  0  0  0  0  0  0  0
   59.0159   29.5831   49.9785 H   0  0  0  0  0  0  0  0  0  0  0  0
   59.2743   33.8066   49.6169 H   0  0  0  0  0  0  0  0  0  0  0  0
   60.5644   34.8666   48.9358 H   0  0  0  0  0  0  0  0  0  0  0  0
   59.7781   35.2850   45.3502 H   0  0  0  0  0  0  0  0  0  0  0  0
   59.3019   34.1565   43.1778 H   0  0  0  0  0  0  0  0  0  0  0  0
   58.1887   32.3241   41.9271 H   0  0  0  0  0  0  0  0  0  0  0  0
   56.7200   30.2931   41.9666 H   0  0  0  0  0  0  0  0  0  0  0  0
   57.3273   32.3719   47.4155 H   0  0  0  0  0  0  0  0  0  0  0  0
   60.8430   31.0440   46.4280 H   0  0  0  0  0  0  0  0  0  0  0  0
  1  2  1  0
  2  3  2  0
  3  4  1  0
  4  5  2  0
  5  6  1  0
  6  7  2  3
  7  8  1  0
  8  9  2  0
  8 10  1  0
 10 11  1  0
 11 12  1  0
 12 13  2  0
 13 14  1  0
 14 15  2  0
 15 16  1  0
 16 17  2  0
 17 18  1  0
 18 19  2  0
 18 20  1  0
 20 21  1  0
 21 22  2  0
  6 23  1  0
 23  2  1  0
 22 12  1  0
 21 15  1  0
  1 24  1  0
  1 25  1  0
  1 26  1  0
  3 27  1  0
  4 28  1  0
  5 29  1  0
 10 30  1  0
 10 31  1  0
 13 32  1  0
 14 33  1  0
 16 34  1  0
 17 35  1  0
 22 36  1  0
 23 37  1  0
M  END
>  <UniqueID>  (86) 
80

>  <SMILES>  (86) 
Cc1cccc(=NC(=O)COc2ccc3ccc(=O)oc3c2)[nH]1

>  <Energy>  (86) 
49.09952225064233

>  <Genealogy>  (86) 
Cc1cccc(=NC(=O)COc2ccc3ccc(=O)oc3c2)[nH]1 (3D coordinates assigned)
Cc1cccc(=NC(=O)COc2ccc3ccc(=O)oc3c2)[nH]1 (optimized conformer: 49.09952225064233 kcal/mol)

>  <smiles>  (86) 
Cc1cccc(=NC(=O)COc2ccc3ccc(=O)oc3c2)[nH]1

>  <score_type>  (86) 
oracle

>  <origin>  (86) 
adg

>  <m_score__min__energy>  (86) 
-7.4000000000000004

>  <m_primary>  (86) 
energy

$$$$
86:0
     RDKit          3D

 51 53  0  0  0  0  0  0  0  0999 V2000
   63.5470   32.5070   47.1240 C   0  0  0  0  0  0  0  0  0  0  0  0
   62.1340   32.9900   47.0190 C   0  0  0  0  0  0  0  0  0  0  0  0
   61.7930   34.1630   46.4530 N   0  0  0  0  0  0  0  0  0  0  0  0
   60.4470   34.2370   46.4730 C   0  0  0  0  0  0  0  0  0  0  0  0
   59.6700   35.3800   45.8960 C   0  0  0  0  0  0  0  0  0  0  0  0
   59.9180   33.1040   47.0750 C   0  0  0  0  0  0  0  0  0  0  0  0
   58.2040   32.6940   47.2130 S   0  0  0  0  0  0  0  0  0  0  0  0
   57.4000   33.9020   46.7990 O   0  0  0  0  0  0  0  0  0  0  0  0
   57.8650   32.3540   48.6410 O   0  0  0  0  0  0  0  0  0  0  0  0
   57.7680   31.3520   46.1880 N   0  0  0  0  0  0  0  0  0  0  0  0
   57.5920   31.4280   44.7710 C   0  0  0  0  0  0  0  0  0  0  0  0
   58.1930   32.4820   44.0740 C   0  0  0  0  0  0  0  0  0  0  0  0
   58.0870   32.5580   42.6830 C   0  0  0  0  0  0  0  0  0  0  0  0
   57.3580   31.5910   41.9820 C   0  0  0  0  0  0  0  0  0  0  0  0
   56.7170   30.5600   42.6750 C   0  0  0  0  0  0  0  0  0  0  0  0
   56.8230   30.4870   44.0660 C   0  0  0  0  0  0  0  0  0  0  0  0
   60.9990   32.3200   47.4530 C   0  0  0  0  0  0  0  0  0  0  0  0
   60.9390   30.9690   48.0460 C   0  0  0  0  0  0  0  0  0  0  0  0
   61.8630   30.6310   48.8360 O   0  0  0  0  0  0  0  0  0  0  0  0
   59.8490   30.0420   47.8000 N   0  0  2  0  0  0  0  0  0  0  0  0
   59.6860   28.9870   48.8460 C   0  0  0  0  0  0  0  0  0  0  0  0
   60.3470   27.6580   48.4520 C   0  0  0  0  0  0  0  0  0  0  0  0
   59.7310   27.0890   47.1480 C   0  0  2  0  0  0  0  0  0  0  0  0
   60.7510   26.2070   46.4120 C   0  0  0  0  0  0  0  0  0  0  0  0
   59.1800   28.2090   46.2270 C   0  0  0  0  0  0  0  0  0  0  0  0
   59.9600   29.5140   46.4130 C   0  0  0  0  0  0  0  0  0  0  0  0
   63.8243   32.4122   48.1843 H   0  0  0  0  0  0  0  0  0  0  0  0
   63.6370   31.5271   46.6325 H   0  0  0  0  0  0  0  0  0  0  0  0
   64.2180   33.2268   46.6325 H   0  0  0  0  0  0  0  0  0  0  0  0
   62.4470   34.8650   46.0330 H   0  0  0  0  0  0  0  0  0  0  0  0
   59.2552   35.9903   46.7118 H   0  0  0  0  0  0  0  0  0  0  0  0
   60.3349   35.9995   45.2762 H   0  0  0  0  0  0  0  0  0  0  0  0
   58.8493   34.9897   45.2762 H   0  0  0  0  0  0  0  0  0  0  0  0
   58.7513   33.2541   44.6237 H   0  0  0  0  0  0  0  0  0  0  0  0
   58.5770   33.3786   42.1385 H   0  0  0  0  0  0  0  0  0  0  0  0
   57.2893   31.6421   40.8853 H   0  0  0  0  0  0  0  0  0  0  0  0
   56.1307   29.8082   42.1264 H   0  0  0  0  0  0  0  0  0  0  0  0
   56.3011   29.6878   44.6127 H   0  0  0  0  0  0  0  0  0  0  0  0
   58.9730   30.6190   47.8370 H   0  0  0  0  0  0  0  0  0  0  0  0
   60.1427   29.3441   49.7808 H   0  0  0  0  0  0  0  0  0  0  0  0
   58.6086   28.8006   48.9663 H   0  0  0  0  0  0  0  0  0  0  0  0
   61.4232   27.8248   48.2972 H   0  0  0  0  0  0  0  0  0  0  0  0
   60.1789   26.9325   49.2615 H   0  0  0  0  0  0  0  0  0  0  0  0
   58.8719   26.4625   47.4299 H   0  0  0  0  0  0  0  0  0  0  0  0
   61.3703   25.6715   47.1467 H   0  0  0  0  0  0  0  0  0  0  0  0
   60.2191   25.4796   45.7812 H   0  0  0  0  0  0  0  0  0  0  0  0
   61.3940   26.8384   45.7812 H   0  0  0  0  0  0  0  0  0  0  0  0
   59.2658   27.8861   45.1790 H   0  0  0  0  0  0  0  0  0  0  0  0
   58.1282   28.3915   46.4922 H   0  0  0  0  0  0  0  0  0  0  0  0
   61.0207   29.3279   46.1885 H   0  0  0  0  0  0  0  0  0  0  0  0
   59.5322   30.2635   45.7309 H   0  0  0  0  0  0  0  0  0  0  0  0
  1  2  1  0
  2  3  1  0
  3  4  1  0
  4  5  1  0
  4  6  2  0
  6  7  1  0
  7  8  2  0
  7  9  2  0
  7 10  1  0
 10 11  1  0
 11 12  2  0
 12 13  1  0
 13 14  2  0
 14 15  1  0
 15 16  2  0
  6 17  1  0
 17 18  1  0
 18 19  2  0
 18 20  1  0
 20 21  1  0
 21 22  1  0
 22 23  1  0
 23 24  1  0
 23 25  1  0
 25 26  1  0
 17  2  2  0
 26 20  1  0
 16 11  1  0
  1 27  1  0
  1 28  1  0
  1 29  1  0
  3 30  1  0
  5 31  1  0
  5 32  1  0
  5 33  1  0
 12 34  1  0
 13 35  1  0
 14 36  1  0
 15 37  1  0
 16 38  1  0
 20 39  1  6
 21 40  1  0
 21 41  1  0
 22 42  1  0
 22 43  1  0
 23 44  1  1
 24 45  1  0
 24 46  1  0
 24 47  1  0
 25 48  1  0
 25 49  1  0
 26 50  1  0
 26 51  1  0
M  CHG  2  10  -1  20   1
M  END
>  <UniqueID>  (87) 
81

>  <SMILES>  (87) 
Cc1[nH]c(C)c(S(=O)(=O)[N-]c2ccccc2)c1C(=O)[NH+]1CCC(C)CC1

>  <Energy>  (87) 
98.20140640121733

>  <Genealogy>  (87) 
Cc1[nH]c(C)c(S(=O)(=O)[N-]c2ccccc2)c1C(=O)[NH+]1CCC(C)CC1 (protonated)
Cc1[nH]c(C)c(S(=O)(=O)[N-]c2ccccc2)c1C(=O)[NH+]1CCC(C)CC1 (3D coordinates assigned)
Cc1[nH]c(C)c(S(=O)(=O)[N-]c2ccccc2)c1C(=O)[NH+]1CCC(C)CC1 (nonaromatic ring conformer: 98.20140640121733 kcal/mol)

>  <smiles>  (87) 
Cc1[nH]c(C)c(S(=O)(=O)Nc2ccccc2)c1C(=O)N1CCC(C)CC1

>  <score_type>  (87) 
oracle

>  <origin>  (87) 
adg

>  <m_score__min__energy>  (87) 
-7.7199999999999998

>  <m_primary>  (87) 
energy

$$$$
87:0
     RDKit          3D

 55 57  0  0  0  0  0  0  0  0999 V2000
   60.1400   23.6180   45.6560 N   0  0  0  0  0  0  0  0  0  0  0  0
   59.8680   21.9850   45.1640 S   0  0  0  0  0  0  0  0  0  0  0  0
   60.2370   21.8290   43.7150 O   0  0  0  0  0  0  0  0  0  0  0  0
   60.7320   21.0680   45.9820 O   0  0  0  0  0  0  0  0  0  0  0  0
   58.1750   21.5710   45.4030 C   0  0  0  0  0  0  0  0  0  0  0  0
   57.7400   21.0850   46.6430 C   0  0  0  0  0  0  0  0  0  0  0  0
   56.3970   20.7610   46.8420 C   0  0  0  0  0  0  0  0  0  0  0  0
   55.4660   20.9370   45.8040 C   0  0  0  0  0  0  0  0  0  0  0  0
   54.0260   20.5500   46.0010 C   0  0  0  0  0  0  0  0  0  0  0  0
   53.1470   21.7960   46.1140 C   0  0  0  0  0  0  0  0  0  0  0  0
   53.7010   22.8860   45.3210 N   0  0  0  0  0  0  0  0  0  0  0  0
   54.3200   24.0450   45.8870 C   0  0  0  0  0  0  0  0  0  0  0  0
   53.8820   25.1960   45.6230 O   0  0  0  0  0  0  0  0  0  0  0  0
   55.4720   23.8840   46.8180 C   0  0  0  0  0  0  0  0  0  0  0  0
   56.0290   25.1940   47.1340 N   0  0  0  0  0  0  0  0  0  0  0  0
   57.3110   25.6700   46.7020 C   0  0  0  0  0  0  0  0  0  0  0  0
   58.3360   25.3120   47.3410 O   0  0  0  0  0  0  0  0  0  0  0  0
   57.4740   26.5090   45.4990 C   0  0  0  0  0  0  0  0  0  0  0  0
   57.9970   25.9470   44.3250 C   0  0  0  0  0  0  0  0  0  0  0  0
   58.1280   26.7230   43.1720 C   0  0  0  0  0  0  0  0  0  0  0  0
   57.7550   28.0670   43.1850 C   0  0  0  0  0  0  0  0  0  0  0  0
   57.2650   28.6490   44.3610 C   0  0  0  0  0  0  0  0  0  0  0  0
   56.8140   30.3520   44.3990 S   0  0  0  0  0  0  0  0  0  0  0  0
   57.2970   31.0650   43.1670 O   0  0  0  0  0  0  0  0  0  0  0  0
   55.3180   30.4590   44.4500 O   0  0  0  0  0  0  0  0  0  0  0  0
   57.4820   31.1100   45.8050 N   0  0  0  0  0  0  0  0  0  0  0  0
   58.0840   32.4110   45.8410 C   0  0  0  0  0  0  0  0  0  0  0  0
   57.9280   33.3380   44.7930 C   0  0  0  0  0  0  0  0  0  0  0  0
   58.5290   34.5980   44.8720 C   0  0  0  0  0  0  0  0  0  0  0  0
   59.2820   34.9460   45.9960 C   0  0  0  0  0  0  0  0  0  0  0  0
   59.4350   34.0350   47.0430 C   0  0  0  0  0  0  0  0  0  0  0  0
   58.8430   32.7690   46.9640 C   0  0  0  0  0  0  0  0  0  0  0  0
   58.9940   31.8980   47.9920 F   0  0  0  0  0  0  0  0  0  0  0  0
   57.1350   27.8710   45.5180 C   0  0  0  0  0  0  0  0  0  0  0  0
   55.9060   21.4190   44.5600 C   0  0  0  0  0  0  0  0  0  0  0  0
   57.2510   21.7410   44.3640 C   0  0  0  0  0  0  0  0  0  0  0  0
   59.5870   23.7720   46.5310 H   0  0  0  0  0  0  0  0  0  0  0  0
   58.4608   20.9581   47.4642 H   0  0  0  0  0  0  0  0  0  0  0  0
   56.0663   20.3667   47.8142 H   0  0  0  0  0  0  0  0  0  0  0  0
   53.6923   19.9482   45.1428 H   0  0  0  0  0  0  0  0  0  0  0  0
   53.9382   19.9674   46.9299 H   0  0  0  0  0  0  0  0  0  0  0  0
   52.1365   21.5603   45.7490 H   0  0  0  0  0  0  0  0  0  0  0  0
   53.1067   22.1081   47.1680 H   0  0  0  0  0  0  0  0  0  0  0  0
   55.1301   23.3981   47.7437 H   0  0  0  0  0  0  0  0  0  0  0  0
   56.2444   23.2627   46.3412 H   0  0  0  0  0  0  0  0  0  0  0  0
   58.3050   24.8911   44.3129 H   0  0  0  0  0  0  0  0  0  0  0  0
   58.5265   26.2733   42.2506 H   0  0  0  0  0  0  0  0  0  0  0  0
   57.8458   28.6709   42.2701 H   0  0  0  0  0  0  0  0  0  0  0  0
   57.3311   33.0701   43.9087 H   0  0  0  0  0  0  0  0  0  0  0  0
   58.4087   35.3164   44.0477 H   0  0  0  0  0  0  0  0  0  0  0  0
   59.7543   35.9376   46.0562 H   0  0  0  0  0  0  0  0  0  0  0  0
   60.0216   34.3125   47.9312 H   0  0  0  0  0  0  0  0  0  0  0  0
   56.7652   28.3297   46.4469 H   0  0  0  0  0  0  0  0  0  0  0  0
   55.1878   21.5435   43.7362 H   0  0  0  0  0  0  0  0  0  0  0  0
   57.5856   22.1293   43.3907 H   0  0  0  0  0  0  0  0  0  0  0  0
  1  2  1  0
  2  3  2  0
  2  4  2  0
  2  5  1  0
  5  6  2  0
  6  7  1  0
  7  8  2  0
  8  9  1  0
  9 10  1  0
 10 11  1  0
 11 12  1  0
 12 13  2  0
 12 14  1  0
 14 15  1  0
 15 16  1  0
 16 17  2  0
 16 18  1  0
 18 19  2  0
 19 20  1  0
 20 21  2  0
 21 22  1  0
 22 23  1  0
 23 24  2  0
 23 25  2  0
 23 26  1  0
 26 27  1  0
 27 28  2  0
 28 29  1  0
 29 30  2  0
 30 31  1  0
 31 32  2  0
 32 33  1  0
 22 34  2  0
  8 35  1  0
 35 36  2  0
 36  5  1  0
 34 18  1  0
 32 27  1  0
  1 37  1  0
  6 38  1  0
  7 39  1  0
  9 40  1  0
  9 41  1  0
 10 42  1  0
 10 43  1  0
 14 44  1  0
 14 45  1  0
 19 46  1  0
 20 47  1  0
 21 48  1  0
 28 49  1  0
 29 50  1  0
 30 51  1  0
 31 52  1  0
 34 53  1  0
 35 54  1  0
 36 55  1  0
M  CHG  4   1  -1  11  -1  15  -1  26  -1
M  END
>  <UniqueID>  (88) 
82

>  <SMILES>  (88) 
[NH-]S(=O)(=O)c1ccc(CC[N-]C(=O)C[N-]C(=O)c2cccc(S(=O)(=O)[N-]c3ccccc3F)c2)cc1

>  <Energy>  (88) 
58.69898312020218

>  <Genealogy>  (88) 
[NH-]S(=O)(=O)c1ccc(CC[N-]C(=O)C[N-]C(=O)c2cccc(S(=O)(=O)[N-]c3ccccc3F)c2)cc1 (protonated)
[NH-]S(=O)(=O)c1ccc(CC[N-]C(=O)C[N-]C(=O)c2cccc(S(=O)(=O)[N-]c3ccccc3F)c2)cc1 (3D coordinates assigned)
[NH-]S(=O)(=O)c1ccc(CC[N-]C(=O)C[N-]C(=O)c2cccc(S(=O)(=O)[N-]c3ccccc3F)c2)cc1 (optimized conformer: 58.69898312020218 kcal/mol)

>  <smiles>  (88) 
NS(=O)(=O)c1ccc(CCNC(=O)CNC(=O)c2cccc(S(=O)(=O)Nc3ccccc3F)c2)cc1

>  <score_type>  (88) 
oracle

>  <origin>  (88) 
adg

>  <m_score__min__energy>  (88) 
-15.94

>  <m_primary>  (88) 
energy

$$$$
88:0
     RDKit          3D

 33 34  0  0  0  0  0  0  0  0999 V2000
   50.6340   32.4200   49.3780 O   0  0  0  0  0  0  0  0  0  0  0  0
   51.1400   31.3330   49.7640 C   0  0  0  0  0  0  0  0  0  0  0  0
   51.2420   30.2850   48.8550 O   0  0  0  0  0  0  0  0  0  0  0  0
   51.6210   31.1650   51.1590 C   0  0  0  0  0  0  0  0  0  0  0  0
   52.6560   30.2630   51.4400 C   0  0  0  0  0  0  0  0  0  0  0  0
   53.1490   30.0900   52.7110 N   0  0  0  0  0  0  0  0  0  0  0  0
   54.2630   29.0960   52.8280 C   0  0  1  0  0  0  0  0  0  0  0  0
   55.3560   29.4740   52.0000 O   0  0  0  0  0  0  0  0  0  0  0  0
   56.0090   30.6270   52.5050 C   0  0  2  0  0  0  0  0  0  0  0  0
   56.9790   31.1460   51.4320 C   0  0  0  0  0  0  0  0  0  0  0  0
   57.7740   30.1070   50.9240 O   0  0  0  0  0  0  0  0  0  0  0  0
   56.7320   30.2980   53.8310 C   0  0  2  0  0  0  0  0  0  0  0  0
   57.7360   29.3350   53.6270 O   0  0  0  0  0  0  0  0  0  0  0  0
   55.7080   29.7780   54.8490 C   0  0  2  0  0  0  0  0  0  0  0  0
   56.3610   29.2800   55.9650 F   0  0  0  0  0  0  0  0  0  0  0  0
   54.7830   28.6940   54.2480 C   0  0  2  0  0  0  0  0  0  0  0  0
   55.4630   27.4590   54.1940 O   0  0  0  0  0  0  0  0  0  0  0  0
   52.5580   30.7950   53.7400 C   0  0  0  0  0  0  0  0  0  0  0  0
   52.9140   30.6540   54.9360 O   0  0  0  0  0  0  0  0  0  0  0  0
   51.5540   31.6710   53.4830 N   0  0  0  0  0  0  0  0  0  0  0  0
   51.0780   31.8800   52.2350 C   0  0  0  0  0  0  0  0  0  0  0  0
   50.1490   32.7130   52.0650 O   0  0  0  0  0  0  0  0  0  0  0  0
   53.0876   29.6746   50.6169 H   0  0  0  0  0  0  0  0  0  0  0  0
   53.7726   28.1718   52.4883 H   0  0  0  0  0  0  0  0  0  0  0  0
   55.2768   31.4163   52.7304 H   0  0  0  0  0  0  0  0  0  0  0  0
   56.4000   31.5905   50.6091 H   0  0  0  0  0  0  0  0  0  0  0  0
   57.6381   31.8975   51.8912 H   0  0  0  0  0  0  0  0  0  0  0  0
   57.5130   29.2830   51.4150 H   0  0  0  0  0  0  0  0  0  0  0  0
   57.2070   31.2131   54.2143 H   0  0  0  0  0  0  0  0  0  0  0  0
   57.5470   28.8940   52.7580 H   0  0  0  0  0  0  0  0  0  0  0  0
   55.0719   30.6272   55.1391 H   0  0  0  0  0  0  0  0  0  0  0  0
   53.9044   28.5971   54.9027 H   0  0  0  0  0  0  0  0  0  0  0  0
   56.3860   27.6170   53.8670 H   0  0  0  0  0  0  0  0  0  0  0  0
  1  2  2  0
  2  3  1  0
  2  4  1  0
  4  5  2  0
  5  6  1  0
  6  7  1  0
  7  8  1  0
  8  9  1  0
  9 10  1  0
 10 11  1  0
  9 12  1  0
 12 13  1  0
 12 14  1  0
 14 15  1  0
 14 16  1  0
 16 17  1  0
  6 18  1  0
 18 19  2  0
 18 20  1  0
 20 21  1  0
 21 22  2  0
 21  4  1  0
 16  7  1  0
  5 23  1  0
  7 24  1  6
  9 25  1  1
 10 26  1  0
 10 27  1  0
 11 28  1  0
 12 29  1  1
 13 30  1  0
 14 31  1  1
 16 32  1  1
 17 33  1  0
M  CHG  2   3  -1  20  -1
M  END
>  <UniqueID>  (89) 
83

>  <SMILES>  (89) 
O=C([O-])c1cn([C@H]2O[C@H](CO)C(O)C(F)C2O)c(=O)[n-]c1=O

>  <Energy>  (89) 
54.284645393534156

>  <Genealogy>  (89) 
O=C([O-])c1cn(C2OC(CO)C(O)C(F)C2O)c(=O)[n-]c1=O (protonated)
O=C([O-])c1cn([C@H]2O[C@H](CO)C(O)C(F)C2O)c(=O)[n-]c1=O (chirality)
O=C([O-])c1cn([C@H]2O[C@H](CO)C(O)C(F)C2O)c(=O)[n-]c1=O (3D coordinates assigned)
O=C([O-])c1cn([C@H]2O[C@H](CO)C(O)C(F)C2O)c(=O)[n-]c1=O (nonaromatic ring conformer: 54.284645393534156 kcal/mol)

>  <smiles>  (89) 
O=C(O)c1cn(C2OC(CO)C(O)C(F)C2O)c(=O)[nH]c1=O

>  <score_type>  (89) 
oracle

>  <origin>  (89) 
adg

>  <m_score__min__energy>  (89) 
-9.8100000000000005

>  <m_primary>  (89) 
energy

$$$$
89:0
     RDKit          3D

 26 26  0  0  0  0  0  0  0  0999 V2000
   57.9990   28.1470   44.1200 C   0  0  0  0  0  0  0  0  0  0  0  0
   56.8460   28.9760   44.5940 C   0  0  0  0  0  0  0  0  0  0  0  0
   55.9200   28.4240   45.2480 O   0  0  0  0  0  0  0  0  0  0  0  0
   56.7970   30.4250   44.3150 C   0  0  0  0  0  0  0  0  0  0  0  0
   55.7240   31.0600   44.5000 O   0  0  0  0  0  0  0  0  0  0  0  0
   57.9910   31.1590   43.7660 C   0  0  0  0  0  0  0  0  0  0  0  0
   57.7770   32.6780   43.7760 C   0  0  0  0  0  0  0  0  0  0  0  0
   58.2390   33.3000   45.0700 C   0  0  0  0  0  0  0  0  0  0  0  0
   57.7900   32.7890   46.2990 C   0  0  0  0  0  0  0  0  0  0  0  0
   58.2500   33.3350   47.5000 C   0  0  0  0  0  0  0  0  0  0  0  0
   59.1660   34.3930   47.4870 C   0  0  0  0  0  0  0  0  0  0  0  0
   59.6170   34.9270   48.6920 O   0  0  0  0  0  0  0  0  0  0  0  0
   59.6220   34.9020   46.2640 C   0  0  0  0  0  0  0  0  0  0  0  0
   59.1620   34.3590   45.0610 C   0  0  0  0  0  0  0  0  0  0  0  0
   58.5480   27.7523   44.9876 H   0  0  0  0  0  0  0  0  0  0  0  0
   57.6238   27.3106   43.5120 H   0  0  0  0  0  0  0  0  0  0  0  0
   58.6724   28.7690   43.5120 H   0  0  0  0  0  0  0  0  0  0  0  0
   58.8708   30.9189   44.3810 H   0  0  0  0  0  0  0  0  0  0  0  0
   58.1399   30.8405   42.7237 H   0  0  0  0  0  0  0  0  0  0  0  0
   58.3437   33.1229   42.9448 H   0  0  0  0  0  0  0  0  0  0  0  0
   56.6996   32.8723   43.6686 H   0  0  0  0  0  0  0  0  0  0  0  0
   57.0729   31.9551   46.3159 H   0  0  0  0  0  0  0  0  0  0  0  0
   57.8911   32.9321   48.4586 H   0  0  0  0  0  0  0  0  0  0  0  0
   59.1580   35.7190   49.1250 H   0  0  0  0  0  0  0  0  0  0  0  0
   60.3443   35.7315   46.2504 H   0  0  0  0  0  0  0  0  0  0  0  0
   59.5240   34.7623   44.1038 H   0  0  0  0  0  0  0  0  0  0  0  0
  1  2  1  0
  2  3  2  0
  2  4  1  0
  4  5  2  0
  4  6  1  0
  6  7  1  0
  7  8  1  0
  8  9  2  0
  9 10  1  0
 10 11  2  0
 11 12  1  0
 11 13  1  0
 13 14  2  0
 14  8  1  0
  1 15  1  0
  1 16  1  0
  1 17  1  0
  6 18  1  0
  6 19  1  0
  7 20  1  0
  7 21  1  0
  9 22  1  0
 10 23  1  0
 12 24  1  0
 13 25  1  0
 14 26  1  0
M  END
>  <UniqueID>  (90) 
84

>  <SMILES>  (90) 
CC(=O)C(=O)CCc1ccc(O)cc1

>  <Energy>  (90) 
17.72296136370415

>  <Genealogy>  (90) 
CC(=O)C(=O)CCc1ccc(O)cc1 (3D coordinates assigned)
CC(=O)C(=O)CCc1ccc(O)cc1 (optimized conformer: 17.72296136370415 kcal/mol)

>  <smiles>  (90) 
CC(=O)C(=O)CCc1ccc(O)cc1

>  <score_type>  (90) 
oracle

>  <origin>  (90) 
adg

>  <m_score__min__energy>  (90) 
-6.1500000000000004

>  <m_primary>  (90) 
energy

$$$$
90:0
     RDKit          3D

 36 38  0  0  0  0  0  0  0  0999 V2000
   59.7198   35.2470   44.1225 H   0  0  0  0  0  0  0  0  0  0  0  0
   59.1750   34.6580   44.8750 C   0  0  0  0  0  0  0  0  0  0  0  0
   58.3600   33.6430   44.4830 N   0  0  0  0  0  0  0  0  0  0  0  0
   57.6570   32.8860   45.3700 C   0  0  0  0  0  0  0  0  0  0  0  0
   56.9070   31.9280   44.9010 N   0  0  0  0  0  0  0  0  0  0  0  0
   57.2320   30.9080   43.9400 C   0  0  0  0  0  0  0  0  0  0  0  0
   57.0060   31.0960   42.7140 O   0  0  0  0  0  0  0  0  0  0  0  0
   57.9210   29.6680   44.3860 C   0  0  0  0  0  0  0  0  0  0  0  0
   57.4270   28.4090   43.9920 C   0  0  0  0  0  0  0  0  0  0  0  0
   56.5307   28.3526   43.3568 H   0  0  0  0  0  0  0  0  0  0  0  0
   58.0630   27.2250   44.3990 C   0  0  0  0  0  0  0  0  0  0  0  0
   57.5000   25.8870   44.0000 C   0  0  0  0  0  0  0  0  0  0  0  0
   56.5357   26.0363   43.4922 H   0  0  0  0  0  0  0  0  0  0  0  0
   58.2100   25.3884   43.3237 H   0  0  0  0  0  0  0  0  0  0  0  0
   57.2920   25.0200   45.2170 C   0  0  0  0  0  0  0  0  0  0  0  0
   58.1030   23.8980   45.4300 C   0  0  0  0  0  0  0  0  0  0  0  0
   58.9112   23.6643   44.7213 H   0  0  0  0  0  0  0  0  0  0  0  0
   57.8960   23.0960   46.5090 N   0  0  0  0  0  0  0  0  0  0  0  0
   58.5130   22.2660   46.6540 H   0  0  0  0  0  0  0  0  0  0  0  0
   56.8980   23.3640   47.3920 C   0  0  0  0  0  0  0  0  0  0  0  0
   56.7150   22.6150   48.3880 O   0  0  0  0  0  0  0  0  0  0  0  0
   56.0910   24.4400   47.2010 N   0  0  0  0  0  0  0  0  0  0  0  0
   56.2610   25.2680   46.1380 C   0  0  0  0  0  0  0  0  0  0  0  0
   55.4880   26.2510   45.9930 O   0  0  0  0  0  0  0  0  0  0  0  0
   59.1960   27.2990   45.2200 C   0  0  0  0  0  0  0  0  0  0  0  0
   59.6921   26.3759   45.5542 H   0  0  0  0  0  0  0  0  0  0  0  0
   59.6970   28.5400   45.6150 C   0  0  0  0  0  0  0  0  0  0  0  0
   60.5904   28.5901   46.2548 H   0  0  0  0  0  0  0  0  0  0  0  0
   59.0710   29.7200   45.2030 C   0  0  0  0  0  0  0  0  0  0  0  0
   59.5930   30.9040   45.6100 F   0  0  0  0  0  0  0  0  0  0  0  0
   57.8000   33.1490   46.7510 C   0  0  0  0  0  0  0  0  0  0  0  0
   57.2604   32.5387   47.4902 H   0  0  0  0  0  0  0  0  0  0  0  0
   58.6310   34.1890   47.1700 C   0  0  0  0  0  0  0  0  0  0  0  0
   58.7418   34.4062   48.2426 H   0  0  0  0  0  0  0  0  0  0  0  0
   59.3210   34.9530   46.2290 C   0  0  0  0  0  0  0  0  0  0  0  0
   59.9725   35.7784   46.5518 H   0  0  0  0  0  0  0  0  0  0  0  0
  1  2  1  0
  2  3  1  0
  3  4  1  0
  4  5  2  0
  5  6  1  0
  6  7  2  0
  6  8  1  0
  8  9  2  0
  9 10  1  0
  9 11  1  0
 11 12  1  0
 12 13  1  0
 12 14  1  0
 12 15  1  0
 15 16  2  0
 16 17  1  0
 16 18  1  0
 18 19  1  0
 18 20  1  0
 20 21  2  0
 20 22  1  0
 22 23  1  0
 23 24  2  0
 11 25  2  0
 25 26  1  0
 25 27  1  0
 27 28  1  0
 27 29  2  0
 29 30  1  0
  4 31  1  0
 31 32  1  0
 31 33  2  0
 33 34  1  0
 33 35  1  0
 35 36  1  0
 35  2  2  0
 29  8  1  0
 23 15  1  0
M  CHG  2   3  -1  22  -1
M  END
>  <UniqueID>  (91) 
85

>  <SMILES>  (91) 
O=C(/N=c1\cccc[n-]1)c1cc(Cc2c[nH]c(=O)[n-]c2=O)ccc1F

>  <Energy>  (91) 
49.509051044531475

>  <Genealogy>  (91) 
O=C(N=c1cccc[n-]1)c1cc(Cc2c[nH]c(=O)[n-]c2=O)ccc1F (protonated)
O=C(/N=c1\cccc[n-]1)c1cc(Cc2c[nH]c(=O)[n-]c2=O)ccc1F (cis-trans isomerization)
O=C(/N=c1\cccc[n-]1)c1cc(Cc2c[nH]c(=O)[n-]c2=O)ccc1F (3D coordinates assigned)
O=C(/N=c1\cccc[n-]1)c1cc(Cc2c[nH]c(=O)[n-]c2=O)ccc1F (optimized conformer: 49.509051044531475 kcal/mol)

>  <smiles>  (91) 
O=C(N=c1cccc[nH]1)c1cc(Cc2c[nH]c(=O)[nH]c2=O)ccc1F

>  <score_type>  (91) 
oracle

>  <origin>  (91) 
adg

>  <m_score__min__energy>  (91) 
-11.710000000000001

>  <m_primary>  (91) 
energy

$$$$
91:0
     RDKit          3D

 38 40  0  0  0  0  0  0  0  0999 V2000
   56.5770   31.0760   42.6830 O   0  0  0  0  0  0  0  0  0  0  0  0
   56.3460   30.8460   43.9010 C   0  0  0  0  0  0  0  0  0  0  0  0
   55.7440   29.5220   44.2900 C   0  0  0  0  0  0  0  0  0  0  0  0
   56.7660   28.6470   44.8660 N   0  0  0  0  0  0  0  0  0  0  0  0
   56.5540   27.5620   45.6430 C   0  0  0  0  0  0  0  0  0  0  0  0
   55.2980   27.0720   45.9780 O   0  0  0  0  0  0  0  0  0  0  0  0
   57.7570   27.0270   46.0570 C   0  0  0  0  0  0  0  0  0  0  0  0
   58.7430   27.8200   45.5280 C   0  0  0  0  0  0  0  0  0  0  0  0
   58.1040   28.8140   44.8070 C   0  0  0  0  0  0  0  0  0  0  0  0
   58.7300   29.8540   44.1220 O   0  0  0  0  0  0  0  0  0  0  0  0
   60.2040   27.6110   45.7660 C   0  0  0  0  0  0  0  0  0  0  0  0
   60.4650   26.3720   46.5980 C   0  0  0  0  0  0  0  0  0  0  0  0
   59.4920   25.5900   47.1200 C   0  0  0  0  0  0  0  0  0  0  0  0
   58.0090   25.8490   46.9420 C   0  0  0  0  0  0  0  0  0  0  0  0
   56.6050   31.8850   44.8550 N   0  0  0  0  0  0  0  0  0  0  0  0
   57.4450   33.0600   44.6410 C   0  0  0  0  0  0  0  0  0  0  0  0
   58.1840   33.4270   45.9010 C   0  0  0  0  0  0  0  0  0  0  0  0
   58.1530   32.5720   47.0160 C   0  0  0  0  0  0  0  0  0  0  0  0
   58.8550   32.9020   48.1790 C   0  0  0  0  0  0  0  0  0  0  0  0
   59.6040   34.0810   48.2330 C   0  0  0  0  0  0  0  0  0  0  0  0
   59.6560   34.9280   47.1240 C   0  0  0  0  0  0  0  0  0  0  0  0
   58.9550   34.6020   45.9590 C   0  0  0  0  0  0  0  0  0  0  0  0
   54.9495   29.6890   45.0322 H   0  0  0  0  0  0  0  0  0  0  0  0
   55.3274   29.0417   43.3924 H   0  0  0  0  0  0  0  0  0  0  0  0
   58.4500   30.1050   43.1810 H   0  0  0  0  0  0  0  0  0  0  0  0
   60.7112   27.5023   44.7960 H   0  0  0  0  0  0  0  0  0  0  0  0
   60.5894   28.4814   46.3172 H   0  0  0  0  0  0  0  0  0  0  0  0
   61.5110   26.0906   46.7897 H   0  0  0  0  0  0  0  0  0  0  0  0
   59.7957   24.7125   47.7097 H   0  0  0  0  0  0  0  0  0  0  0  0
   57.5429   24.9595   46.4932 H   0  0  0  0  0  0  0  0  0  0  0  0
   57.5768   26.0634   47.9305 H   0  0  0  0  0  0  0  0  0  0  0  0
   58.1736   32.8423   43.8462 H   0  0  0  0  0  0  0  0  0  0  0  0
   56.8023   33.9043   44.3511 H   0  0  0  0  0  0  0  0  0  0  0  0
   57.5733   31.6381   46.9733 H   0  0  0  0  0  0  0  0  0  0  0  0
   58.8180   32.2337   49.0519 H   0  0  0  0  0  0  0  0  0  0  0  0
   60.1529   34.3418   49.1499 H   0  0  0  0  0  0  0  0  0  0  0  0
   60.2494   35.8532   47.1670 H   0  0  0  0  0  0  0  0  0  0  0  0
   59.0067   35.2671   45.0843 H   0  0  0  0  0  0  0  0  0  0  0  0
  1  2  2  0
  2  3  1  0
  3  4  1  0
  4  5  1  0
  5  6  1  0
  5  7  2  0
  7  8  1  0
  8  9  2  0
  9 10  1  0
  8 11  1  0
 11 12  1  0
 12 13  2  0
 13 14  1  0
  2 15  1  0
 15 16  1  0
 16 17  1  0
 17 18  2  0
 18 19  1  0
 19 20  2  0
 20 21  1  0
 21 22  2  0
  9  4  1  0
 22 17  1  0
 14  7  1  0
  3 23  1  0
  3 24  1  0
 10 25  1  0
 11 26  1  0
 11 27  1  0
 12 28  1  0
 13 29  1  0
 14 30  1  0
 14 31  1  0
 16 32  1  0
 16 33  1  0
 18 34  1  0
 19 35  1  0
 20 36  1  0
 21 37  1  0
 22 38  1  0
M  CHG  2   6  -1  15  -1
M  END
>  <UniqueID>  (92) 
86

>  <SMILES>  (92) 
O=C(Cn1c([O-])c2c(c1O)CC=CC2)[N-]Cc1ccccc1

>  <Energy>  (92) 
68.22892869357693

>  <Genealogy>  (92) 
O=C(Cn1c([O-])c2c(c1O)CC=CC2)[N-]Cc1ccccc1 (protonated)
O=C(Cn1c([O-])c2c(c1O)CC=CC2)[N-]Cc1ccccc1 (3D coordinates assigned)
O=C(Cn1c([O-])c2c(c1O)CC=CC2)[N-]Cc1ccccc1 (nonaromatic ring conformer: 68.22892869357693 kcal/mol)

>  <smiles>  (92) 
O=C(Cn1c(O)c2c(c1O)CC=CC2)NCc1ccccc1

>  <score_type>  (92) 
oracle

>  <origin>  (92) 
adg

>  <m_score__min__energy>  (92) 
-11.65

>  <m_primary>  (92) 
energy

$$$$
92:0
     RDKit          3D

 43 45  0  0  0  0  0  0  0  0999 V2000
   62.6620   33.8480   46.3720 C   0  0  0  0  0  0  0  0  0  0  0  0
   62.8510   33.2020   47.7120 C   0  0  0  0  0  0  0  0  0  0  0  0
   63.7950   32.2040   47.9350 C   0  0  0  0  0  0  0  0  0  0  0  0
   63.7170   31.7470   49.5470 S   0  0  0  0  0  0  0  0  0  0  0  0
   62.4950   32.8050   49.9860 C   0  0  0  0  0  0  0  0  0  0  0  0
   61.8300   32.9210   51.6170 Cl  0  0  0  0  0  0  0  0  0  0  0  0
   62.1150   33.5490   48.8660 C   0  0  0  0  0  0  0  0  0  0  0  0
   61.0310   34.5980   48.8990 C   0  0  0  0  0  0  0  0  0  0  0  0
   59.3730   33.8610   49.1120 S   0  0  0  0  0  0  0  0  0  0  0  0
   59.0060   33.7300   47.3620 C   0  0  0  0  0  0  0  0  0  0  0  0
   59.3600   34.7660   46.4930 C   0  0  0  0  0  0  0  0  0  0  0  0
   59.0570   34.6710   45.1360 C   0  0  0  0  0  0  0  0  0  0  0  0
   58.4160   33.5330   44.6380 C   0  0  0  0  0  0  0  0  0  0  0  0
   58.0880   32.4760   45.5010 C   0  0  0  0  0  0  0  0  0  0  0  0
   57.4390   31.2590   44.9830 C   0  0  0  0  0  0  0  0  0  0  0  0
   56.2790   31.3600   44.5180 O   0  0  0  0  0  0  0  0  0  0  0  0
   58.0860   29.9650   45.0330 N   0  0  0  0  0  0  0  0  0  0  0  0
   57.4230   28.7960   44.4360 C   0  0  0  0  0  0  0  0  0  0  0  0
   58.4470   27.7710   43.9270 C   0  0  0  0  0  0  0  0  0  0  0  0
   59.6080   27.4960   44.9030 C   0  0  0  0  0  0  0  0  0  0  0  0
   59.5060   28.2900   46.2110 C   0  0  0  0  0  0  0  0  0  0  0  0
   59.2480   29.7730   45.9240 C   0  0  0  0  0  0  0  0  0  0  0  0
   58.3820   32.5830   46.8660 C   0  0  0  0  0  0  0  0  0  0  0  0
   62.3556   34.8954   46.5099 H   0  0  0  0  0  0  0  0  0  0  0  0
   63.6079   33.8134   45.8116 H   0  0  0  0  0  0  0  0  0  0  0  0
   61.8839   33.3090   45.8116 H   0  0  0  0  0  0  0  0  0  0  0  0
   64.4776   31.7853   47.1808 H   0  0  0  0  0  0  0  0  0  0  0  0
   61.2254   35.2835   49.7370 H   0  0  0  0  0  0  0  0  0  0  0  0
   61.0449   35.1318   47.9373 H   0  0  0  0  0  0  0  0  0  0  0  0
   59.8776   35.6561   46.8801 H   0  0  0  0  0  0  0  0  0  0  0  0
   59.3228   35.4933   44.4554 H   0  0  0  0  0  0  0  0  0  0  0  0
   58.1684   33.4659   43.5683 H   0  0  0  0  0  0  0  0  0  0  0  0
   56.7862   28.3190   45.1955 H   0  0  0  0  0  0  0  0  0  0  0  0
   56.8211   29.1381   43.5812 H   0  0  0  0  0  0  0  0  0  0  0  0
   57.9217   26.8227   43.7405 H   0  0  0  0  0  0  0  0  0  0  0  0
   58.8945   28.1978   43.0173 H   0  0  0  0  0  0  0  0  0  0  0  0
   59.6124   26.4232   45.1459 H   0  0  0  0  0  0  0  0  0  0  0  0
   60.5347   27.8131   44.4024 H   0  0  0  0  0  0  0  0  0  0  0  0
   58.6775   27.8891   46.8134 H   0  0  0  0  0  0  0  0  0  0  0  0
   60.4556   28.1950   46.7581 H   0  0  0  0  0  0  0  0  0  0  0  0
   59.0570   30.2918   46.8750 H   0  0  0  0  0  0  0  0  0  0  0  0
   60.1360   30.1835   45.4211 H   0  0  0  0  0  0  0  0  0  0  0  0
   58.1208   31.7616   47.5494 H   0  0  0  0  0  0  0  0  0  0  0  0
  1  2  1  0
  2  3  2  0
  3  4  1  0
  4  5  1  0
  5  6  1  0
  5  7  2  0
  7  8  1  0
  8  9  1  0
  9 10  1  0
 10 11  2  0
 11 12  1  0
 12 13  2  0
 13 14  1  0
 14 15  1  0
 15 16  2  0
 15 17  1  0
 17 18  1  0
 18 19  1  0
 19 20  1  0
 20 21  1  0
 21 22  1  0
 14 23  2  0
  7  2  1  0
 23 10  1  0
 22 17  1  0
  1 24  1  0
  1 25  1  0
  1 26  1  0
  3 27  1  0
  8 28  1  0
  8 29  1  0
 11 30  1  0
 12 31  1  0
 13 32  1  0
 18 33  1  0
 18 34  1  0
 19 35  1  0
 19 36  1  0
 20 37  1  0
 20 38  1  0
 21 39  1  0
 21 40  1  0
 22 41  1  0
 22 42  1  0
 23 43  1  0
M  END
>  <UniqueID>  (93) 
87

>  <SMILES>  (93) 
Cc1csc(Cl)c1CSc1cccc(C(=O)N2CCCCC2)c1

>  <Energy>  (93) 
70.00583754811935

>  <Genealogy>  (93) 
Cc1csc(Cl)c1CSc1cccc(C(=O)N2CCCCC2)c1 (3D coordinates assigned)
Cc1csc(Cl)c1CSc1cccc(C(=O)N2CCCCC2)c1 (nonaromatic ring conformer: 70.00583754811935 kcal/mol)

>  <smiles>  (93) 
Cc1csc(Cl)c1CSc1cccc(C(=O)N2CCCCC2)c1

>  <score_type>  (93) 
oracle

>  <origin>  (93) 
adg

>  <m_score__min__energy>  (93) 
-8.9399999999999995

>  <m_primary>  (93) 
energy

$$$$
