0:0
     RDKit          3D

 65 68  0  0  0  0  0  0  0  0999 V2000
   56.3860   32.2390   44.9650 O   0  0  0  0  0  0  0  0  0  0  0  0
   57.6180   32.2560   44.6920 C   0  0  0  0  0  0  0  0  0  0  0  0
   58.0840   31.6520   43.4730 N   0  0  0  0  0  0  0  0  0  0  0  0
   57.1940   30.9280   42.5680 C   0  0  0  0  0  0  0  0  0  0  0  0
   56.2700   29.9970   43.3580 C   0  0  0  0  0  0  0  0  0  0  0  0
   57.0770   29.0000   44.1470 C   0  0  0  0  0  0  0  0  0  0  0  0
   57.7370   27.9480   43.4910 C   0  0  0  0  0  0  0  0  0  0  0  0
   58.4430   26.9920   44.2270 C   0  0  0  0  0  0  0  0  0  0  0  0
   58.4930   27.0740   45.6250 C   0  0  0  0  0  0  0  0  0  0  0  0
   59.3260   25.8340   46.5580 S   0  0  0  0  0  0  0  0  0  0  0  0
   59.4680   26.2840   47.9850 O   0  0  0  0  0  0  0  0  0  0  0  0
   60.6990   25.6270   45.9840 O   0  0  0  0  0  0  0  0  0  0  0  0
   58.4650   24.3300   46.5160 N   0  0  0  0  0  0  0  0  0  0  0  0
   57.6650   23.9290   45.4000 C   0  0  0  0  0  0  0  0  0  0  0  0
   58.1550   22.9520   44.5190 C   0  0  0  0  0  0  0  0  0  0  0  0
   57.3970   22.5420   43.4230 C   0  0  0  0  0  0  0  0  0  0  0  0
   56.1330   23.0860   43.2060 C   0  0  0  0  0  0  0  0  0  0  0  0
   55.6190   24.0360   44.0900 C   0  0  0  0  0  0  0  0  0  0  0  0
   56.3680   24.4680   45.2020 C   0  0  0  0  0  0  0  0  0  0  0  0
   55.7780   25.4820   46.1160 C   0  0  0  0  0  0  0  0  0  0  0  0
   56.1820   25.6050   47.3030 O   0  0  0  0  0  0  0  0  0  0  0  0
   54.7620   26.3200   45.6700 O   0  0  0  0  0  0  0  0  0  0  0  0
   57.8270   28.1180   46.2820 C   0  0  0  0  0  0  0  0  0  0  0  0
   57.1190   29.0730   45.5480 C   0  0  0  0  0  0  0  0  0  0  0  0
   58.5580   32.9180   45.6270 C   0  0  0  0  0  0  0  0  0  0  0  0
   58.5100   34.3120   45.8000 C   0  0  0  0  0  0  0  0  0  0  0  0
   59.3970   34.9480   46.6720 C   0  0  0  0  0  0  0  0  0  0  0  0
   60.3410   34.2030   47.3810 C   0  0  0  0  0  0  0  0  0  0  0  0
   60.4060   32.8090   47.2240 C   0  0  0  0  0  0  0  0  0  0  0  0
   61.4360   32.0000   47.9780 C   0  0  0  0  0  0  0  0  0  0  0  0
   60.9360   31.4440   49.2560 N   0  0  0  0  0  0  0  0  0  0  0  0
   61.6890   30.2850   49.7880 C   0  0  0  0  0  0  0  0  0  0  0  0
   60.9110   28.9620   49.6920 C   0  0  0  0  0  0  0  0  0  0  0  0
   59.9520   29.0170   48.5890 N   0  0  0  0  0  0  0  0  0  0  0  0
   58.8970   29.9930   48.8870 C   0  0  0  0  0  0  0  0  0  0  0  0
   59.4650   31.3450   49.3760 C   0  0  0  0  0  0  0  0  0  0  0  0
   59.4970   32.1720   46.3630 C   0  0  0  0  0  0  0  0  0  0  0  0
   59.0860   31.7420   43.1950 H   0  0  0  0  0  0  0  0  0  0  0  0
   56.5849   31.6501   42.0044 H   0  0  0  0  0  0  0  0  0  0  0  0
   57.8017   30.3250   41.8773 H   0  0  0  0  0  0  0  0  0  0  0  0
   55.6577   30.5952   44.0488 H   0  0  0  0  0  0  0  0  0  0  0  0
   55.6238   29.4539   42.6527 H   0  0  0  0  0  0  0  0  0  0  0  0
   57.6982   27.8761   42.3940 H   0  0  0  0  0  0  0  0  0  0  0  0
   58.9610   26.1727   43.7070 H   0  0  0  0  0  0  0  0  0  0  0  0
   59.1451   22.5063   44.6948 H   0  0  0  0  0  0  0  0  0  0  0  0
   57.7974   21.7883   42.7290 H   0  0  0  0  0  0  0  0  0  0  0  0
   55.5393   22.7664   42.3369 H   0  0  0  0  0  0  0  0  0  0  0  0
   54.6160   24.4528   43.9160 H   0  0  0  0  0  0  0  0  0  0  0  0
   57.8619   28.1856   47.3794 H   0  0  0  0  0  0  0  0  0  0  0  0
   56.5924   29.8854   46.0702 H   0  0  0  0  0  0  0  0  0  0  0  0
   57.7691   34.9062   45.2451 H   0  0  0  0  0  0  0  0  0  0  0  0
   59.3514   36.0395   46.8004 H   0  0  0  0  0  0  0  0  0  0  0  0
   61.0369   34.7101   48.0656 H   0  0  0  0  0  0  0  0  0  0  0  0
   61.7583   31.1651   47.3384 H   0  0  0  0  0  0  0  0  0  0  0  0
   62.2628   32.6821   48.2254 H   0  0  0  0  0  0  0  0  0  0  0  0
   62.6236   30.1833   49.2170 H   0  0  0  0  0  0  0  0  0  0  0  0
   61.8757   30.4780   50.8547 H   0  0  0  0  0  0  0  0  0  0  0  0
   61.6176   28.1371   49.5179 H   0  0  0  0  0  0  0  0  0  0  0  0
   60.3656   28.7981   50.6331 H   0  0  0  0  0  0  0  0  0  0  0  0
   59.5060   28.0750   48.4980 H   0  0  0  0  0  0  0  0  0  0  0  0
   58.3085   30.1667   47.9740 H   0  0  0  0  0  0  0  0  0  0  0  0
   58.2757   29.5787   49.6947 H   0  0  0  0  0  0  0  0  0  0  0  0
   59.0118   32.1498   48.7786 H   0  0  0  0  0  0  0  0  0  0  0  0
   59.2206   31.4314   50.4450 H   0  0  0  0  0  0  0  0  0  0  0  0
   59.5195   31.0768   46.2630 H   0  0  0  0  0  0  0  0  0  0  0  0
  1  2  2  0
  2  3  1  0
  3  4  1  0
  4  5  1  0
  5  6  1  0
  6  7  2  0
  7  8  1  0
  8  9  2  0
  9 10  1  0
 10 11  2  0
 10 12  2  0
 10 13  1  0
 13 14  1  0
 14 15  2  0
 15 16  1  0
 16 17  2  0
 17 18  1  0
 18 19  2  0
 19 20  1  0
 20 21  2  0
 20 22  1  0
  9 23  1  0
 23 24  2  0
  2 25  1  0
 25 26  2  0
 26 27  1  0
 27 28  2  0
 28 29  1  0
 29 30  1  0
 30 31  1  0
 31 32  1  0
 32 33  1  0
 33 34  1  0
 34 35  1  0
 35 36  1  0
 29 37  2  0
 24  6  1  0
 37 25  1  0
 19 14  1  0
 36 31  1  0
  3 38  1  0
  4 39  1  0
  4 40  1  0
  5 41  1  0
  5 42  1  0
  7 43  1  0
  8 44  1  0
 15 45  1  0
 16 46  1  0
 17 47  1  0
 18 48  1  0
 23 49  1  0
 24 50  1  0
 26 51  1  0
 27 52  1  0
 28 53  1  0
 30 54  1  0
 30 55  1  0
 32 56  1  0
 32 57  1  0
 33 58  1  0
 33 59  1  0
 34 60  1  0
 35 61  1  0
 35 62  1  0
 36 63  1  0
 36 64  1  0
 37 65  1  0
M  CHG  2  13  -1  22  -1
M  END
>  <UniqueID>  (1) 
1

>  <SMILES>  (1) 
O=C(NCCc1ccc(S(=O)(=O)[N-]c2ccccc2C(=O)[O-])cc1)c1cccc(CN2CCNCC2)c1

>  <Energy>  (1) 
89.53323437294478

>  <Genealogy>  (1) 
O=C(NCCc1ccc(S(=O)(=O)[N-]c2ccccc2C(=O)[O-])cc1)c1cccc(CN2CCNCC2)c1 (protonated)
O=C(NCCc1ccc(S(=O)(=O)[N-]c2ccccc2C(=O)[O-])cc1)c1cccc(CN2CCNCC2)c1 (3D coordinates assigned)
O=C(NCCc1ccc(S(=O)(=O)[N-]c2ccccc2C(=O)[O-])cc1)c1cccc(CN2CCNCC2)c1 (nonaromatic ring conformer: 89.53323437294478 kcal/mol)

>  <smiles>  (1) 
O=C(NCCc1ccc(S(=O)(=O)Nc2ccccc2C(=O)O)cc1)c1cccc(CN2CCNCC2)c1

>  <score_type>  (1) 
oracle

>  <origin>  (1) 
adg

>  <m_score__min__energy>  (1) 
-14.91

>  <m_primary>  (1) 
energy

$$$$
1:0
     RDKit          3D

 47 49  0  0  0  0  0  0  0  0999 V2000
   59.6389   33.8400   44.4403 H   0  0  0  0  0  0  0  0  0  0  0  0
   58.9780   33.5320   45.2640 C   0  0  0  0  0  0  0  0  0  0  0  0
   57.7300   32.8490   44.8930 C   0  0  0  0  0  0  0  0  0  0  0  0
   56.6360   33.2360   45.3810 O   0  0  0  0  0  0  0  0  0  0  0  0
   57.7300   31.7840   43.8380 C   0  0  0  0  0  0  0  0  0  0  0  0
   57.3077   32.1935   42.9085 H   0  0  0  0  0  0  0  0  0  0  0  0
   58.7637   31.4496   43.6659 H   0  0  0  0  0  0  0  0  0  0  0  0
   56.9070   30.6160   44.2820 C   0  0  0  0  0  0  0  0  0  0  0  0
   57.3900   29.5760   44.9820 N   0  0  0  0  0  0  0  0  0  0  0  0
   56.2980   28.8180   45.2200 C   0  0  0  0  0  0  0  0  0  0  0  0
   56.3346   27.8678   45.7730 H   0  0  0  0  0  0  0  0  0  0  0  0
   55.1570   29.3350   44.7160 N   0  0  0  0  0  0  0  0  0  0  0  0
   55.5470   30.4780   44.1260 C   0  0  0  0  0  0  0  0  0  0  0  0
   54.8872   31.1867   43.6041 H   0  0  0  0  0  0  0  0  0  0  0  0
   59.3920   33.8180   46.5160 C   0  0  0  0  0  0  0  0  0  0  0  0
   59.0000   34.9620   47.1760 C   0  0  0  0  0  0  0  0  0  0  0  0
   58.3385   35.7417   46.7705 H   0  0  0  0  0  0  0  0  0  0  0  0
   59.5580   34.9670   48.3930 N   0  0  0  0  0  0  0  0  0  0  0  0
   59.4280   35.7040   49.1230 H   0  0  0  0  0  0  0  0  0  0  0  0
   60.3090   33.8490   48.4760 C   0  0  0  0  0  0  0  0  0  0  0  0
   60.9980   33.5800   49.6100 C   0  0  0  0  0  0  0  0  0  0  0  0
   60.4056   33.5388   50.5359 H   0  0  0  0  0  0  0  0  0  0  0  0
   62.4770   33.3300   49.7600 C   0  0  0  0  0  0  0  0  0  0  0  0
   62.6661   32.2504   49.6661 H   0  0  0  0  0  0  0  0  0  0  0  0
   62.7865   33.7036   50.7472 H   0  0  0  0  0  0  0  0  0  0  0  0
   63.2970   34.0720   48.6930 C   0  0  0  0  0  0  0  0  0  0  0  0
   64.0868   34.6518   49.1931 H   0  0  0  0  0  0  0  0  0  0  0  0
   62.6114   34.7270   48.1354 H   0  0  0  0  0  0  0  0  0  0  0  0
   63.9470   33.1140   47.6940 C   0  0  0  0  0  0  0  0  0  0  0  0
   64.4833   32.3236   48.2396 H   0  0  0  0  0  0  0  0  0  0  0  0
   63.1694   32.6603   47.0619 H   0  0  0  0  0  0  0  0  0  0  0  0
   64.6559   33.6689   47.0619 H   0  0  0  0  0  0  0  0  0  0  0  0
   60.2460   33.1100   47.3190 N   0  0  0  0  0  0  0  0  0  0  0  0
   61.1010   31.9800   46.9100 C   0  0  0  0  0  0  0  0  0  0  0  0
   61.4093   32.1372   45.8658 H   0  0  0  0  0  0  0  0  0  0  0  0
   61.9574   31.9570   47.5999 H   0  0  0  0  0  0  0  0  0  0  0  0
   60.4150   30.6350   47.0090 C   0  0  0  0  0  0  0  0  0  0  0  0
   59.5080   30.3180   48.0410 C   0  0  0  0  0  0  0  0  0  0  0  0
   59.2753   31.0651   48.8141 H   0  0  0  0  0  0  0  0  0  0  0  0
   58.9030   29.0580   48.0860 C   0  0  0  0  0  0  0  0  0  0  0  0
   58.1961   28.8168   48.8935 H   0  0  0  0  0  0  0  0  0  0  0  0
   59.1950   28.1050   47.1070 C   0  0  0  0  0  0  0  0  0  0  0  0
   58.7155   27.1156   47.1424 H   0  0  0  0  0  0  0  0  0  0  0  0
   60.0950   28.4080   46.0840 C   0  0  0  0  0  0  0  0  0  0  0  0
   60.3243   27.6569   45.3138 H   0  0  0  0  0  0  0  0  0  0  0  0
   60.7050   29.6640   46.0370 C   0  0  0  0  0  0  0  0  0  0  0  0
   61.4184   29.8942   45.2319 H   0  0  0  0  0  0  0  0  0  0  0  0
  1  2  1  0
  2  3  1  0
  3  4  2  0
  3  5  1  0
  5  6  1  0
  5  7  1  0
  5  8  1  0
  8  9  1  0
  9 10  2  0
 10 11  1  0
 10 12  1  0
 12 13  1  0
 13 14  1  0
  2 15  2  3
 15 16  1  0
 16 17  1  0
 16 18  2  0
 18 19  1  0
 18 20  1  0
 20 21  2  0
 21 22  1  0
 21 23  1  0
 23 24  1  0
 23 25  1  0
 23 26  1  0
 26 27  1  0
 26 28  1  0
 26 29  1  0
 29 30  1  0
 29 31  1  0
 29 32  1  0
 20 33  1  0
 33 34  1  0
 34 35  1  0
 34 36  1  0
 34 37  1  0
 37 38  2  0
 38 39  1  0
 38 40  1  0
 40 41  1  0
 40 42  2  0
 42 43  1  0
 42 44  1  0
 44 45  1  0
 44 46  2  0
 46 47  1  0
 13  8  2  0
 33 15  1  0
 46 37  1  0
M  CHG  2  12  -1  18   1
M  END
>  <UniqueID>  (2) 
2

>  <SMILES>  (2) 
CCC/C=c1/[nH+]cc(=CC(=O)Cc2c[n-]cn2)n1Cc1ccccc1

>  <Energy>  (2) 
119.08930665707605

>  <Genealogy>  (2) 
CCCC=c1[nH+]cc(=CC(=O)Cc2c[n-]cn2)n1Cc1ccccc1 (protonated)
CCC/C=c1/[nH+]cc(=CC(=O)Cc2c[n-]cn2)n1Cc1ccccc1 (cis-trans isomerization)
CCC/C=c1/[nH+]cc(=CC(=O)Cc2c[n-]cn2)n1Cc1ccccc1 (3D coordinates assigned)
CCC/C=c1/[nH+]cc(=CC(=O)Cc2c[n-]cn2)n1Cc1ccccc1 (optimized conformer: 119.08930665707605 kcal/mol)

>  <smiles>  (2) 
CCCC=c1ncc(=CC(=O)Cc2c[nH]cn2)n1Cc1ccccc1

>  <score_type>  (2) 
oracle

>  <origin>  (2) 
adg

>  <m_score__min__energy>  (2) 
-7.9900000000000002

>  <m_primary>  (2) 
energy

$$$$
2:0
     RDKit          3D

 44 46  0  0  0  0  0  0  0  0999 V2000
   60.7883   32.1787   50.8582 H   0  0  0  0  0  0  0  0  0  0  0  0
   59.7120   32.0850   51.0650 C   0  0  0  0  0  0  0  0  0  0  0  0
   59.0230   31.5140   52.4930 S   0  0  0  0  0  0  0  0  0  0  0  0
   57.4520   31.7020   51.9320 C   0  0  0  0  0  0  0  0  0  0  0  0
   56.3950   31.4060   52.6300 N   0  0  0  0  0  0  0  0  0  0  0  0
   55.2260   30.6940   52.1830 C   0  0  0  0  0  0  0  0  0  0  0  0
   55.3290   29.4570   51.9650 O   0  0  0  0  0  0  0  0  0  0  0  0
   53.8970   31.3830   51.9680 C   0  0  0  0  0  0  0  0  0  0  0  0
   53.7091   32.0518   52.8209 H   0  0  0  0  0  0  0  0  0  0  0  0
   53.9658   31.9311   51.0167 H   0  0  0  0  0  0  0  0  0  0  0  0
   52.7190   30.4100   51.8450 C   0  0  0  0  0  0  0  0  0  0  0  0
   53.0895   29.3777   51.9293 H   0  0  0  0  0  0  0  0  0  0  0  0
   51.9969   30.6154   52.6490 H   0  0  0  0  0  0  0  0  0  0  0  0
   52.0360   30.5880   50.5100 C   0  0  0  0  0  0  0  0  0  0  0  0
   52.1580   29.5900   49.5280 C   0  0  0  0  0  0  0  0  0  0  0  0
   52.7832   28.7058   49.7212 H   0  0  0  0  0  0  0  0  0  0  0  0
   51.4890   29.7150   48.3070 C   0  0  0  0  0  0  0  0  0  0  0  0
   51.5914   28.9310   47.5423 H   0  0  0  0  0  0  0  0  0  0  0  0
   50.6910   30.8330   48.0560 C   0  0  0  0  0  0  0  0  0  0  0  0
   50.1710   30.9323   47.0918 H   0  0  0  0  0  0  0  0  0  0  0  0
   50.5530   31.8260   49.0300 C   0  0  0  0  0  0  0  0  0  0  0  0
   49.9238   32.7060   48.8307 H   0  0  0  0  0  0  0  0  0  0  0  0
   51.2130   31.7040   50.2580 C   0  0  0  0  0  0  0  0  0  0  0  0
   51.0400   32.6920   51.2220 O   0  0  0  0  0  0  0  0  0  0  0  0
   57.4260   32.2050   50.6810 N   0  0  0  0  0  0  0  0  0  0  0  0
   58.6760   32.4180   50.1910 C   0  0  0  0  0  0  0  0  0  0  0  0
   58.8860   32.9360   48.8290 C   0  0  0  0  0  0  0  0  0  0  0  0
   60.0240   33.3570   48.4860 O   0  0  0  0  0  0  0  0  0  0  0  0
   57.7980   32.9520   47.8900 N   0  0  0  0  0  0  0  0  0  0  0  0
   56.8300   32.7420   48.2220 H   0  0  0  0  0  0  0  0  0  0  0  0
   58.0070   33.1010   46.4540 C   0  0  0  0  0  0  0  0  0  0  0  0
   57.2801   33.8218   46.0514 H   0  0  0  0  0  0  0  0  0  0  0  0
   59.0285   33.4653   46.2701 H   0  0  0  0  0  0  0  0  0  0  0  0
   57.8220   31.7720   45.7750 C   0  0  0  0  0  0  0  0  0  0  0  0
   57.1080   31.6940   44.5670 C   0  0  0  0  0  0  0  0  0  0  0  0
   56.7114   32.6100   44.1047 H   0  0  0  0  0  0  0  0  0  0  0  0
   56.9000   30.4570   43.9510 C   0  0  0  0  0  0  0  0  0  0  0  0
   56.3470   30.4021   43.0017 H   0  0  0  0  0  0  0  0  0  0  0  0
   57.3940   29.2890   44.5400 C   0  0  0  0  0  0  0  0  0  0  0  0
   57.2309   28.3161   44.0534 H   0  0  0  0  0  0  0  0  0  0  0  0
   58.0950   29.3580   45.7470 C   0  0  0  0  0  0  0  0  0  0  0  0
   58.4817   28.4384   46.2105 H   0  0  0  0  0  0  0  0  0  0  0  0
   58.3060   30.5940   46.3670 C   0  0  0  0  0  0  0  0  0  0  0  0
   58.8523   30.6434   47.3205 H   0  0  0  0  0  0  0  0  0  0  0  0
  1  2  1  0
  2  3  1  0
  3  4  1  0
  4  5  2  0
  5  6  1  0
  6  7  2  0
  6  8  1  0
  8  9  1  0
  8 10  1  0
  8 11  1  0
 11 12  1  0
 11 13  1  0
 11 14  1  0
 14 15  2  0
 15 16  1  0
 15 17  1  0
 17 18  1  0
 17 19  2  0
 19 20  1  0
 19 21  1  0
 21 22  1  0
 21 23  2  0
 23 24  1  0
  4 25  1  0
 25 26  1  0
 26 27  1  0
 27 28  2  0
 27 29  1  0
 29 30  1  0
 29 31  1  0
 31 32  1  0
 31 33  1  0
 31 34  1  0
 34 35  2  0
 35 36  1  0
 35 37  1  0
 37 38  1  0
 37 39  2  0
 39 40  1  0
 39 41  1  0
 41 42  1  0
 41 43  2  0
 43 44  1  0
 26  2  2  0
 43 34  1  0
 23 14  1  0
M  CHG  2  24  -1  25  -1
M  END
>  <UniqueID>  (3) 
3

>  <SMILES>  (3) 
O=C(CCc1ccccc1[O-])/N=c1\[n-]c(C(=O)NCc2ccccc2)cs1

>  <Energy>  (3) 
72.86811795183257

>  <Genealogy>  (3) 
O=C(CCc1ccccc1[O-])N=c1[n-]c(C(=O)NCc2ccccc2)cs1 (protonated)
O=C(CCc1ccccc1[O-])/N=c1\[n-]c(C(=O)NCc2ccccc2)cs1 (cis-trans isomerization)
O=C(CCc1ccccc1[O-])/N=c1\[n-]c(C(=O)NCc2ccccc2)cs1 (3D coordinates assigned)
O=C(CCc1ccccc1[O-])/N=c1\[n-]c(C(=O)NCc2ccccc2)cs1 (optimized conformer: 72.86811795183257 kcal/mol)

>  <smiles>  (3) 
O=C(CCc1ccccc1O)N=c1[nH]c(C(=O)NCc2ccccc2)cs1

>  <score_type>  (3) 
oracle

>  <origin>  (3) 
adg

>  <m_score__min__energy>  (3) 
-14.52

>  <m_primary>  (3) 
energy

$$$$
3:0
     RDKit          3D

 50 52  0  0  0  0  0  0  0  0999 V2000
   56.6560   26.4480   45.9880 C   0  0  0  0  0  0  0  0  0  0  0  0
   55.8890   27.5880   45.6140 O   0  0  0  0  0  0  0  0  0  0  0  0
   56.4380   28.8030   45.1790 C   0  0  0  0  0  0  0  0  0  0  0  0
   57.7010   29.1710   45.6580 C   0  0  0  0  0  0  0  0  0  0  0  0
   58.2840   30.3790   45.2650 C   0  0  0  0  0  0  0  0  0  0  0  0
   57.6070   31.2440   44.3900 C   0  0  0  0  0  0  0  0  0  0  0  0
   58.2090   32.5780   44.0190 C   0  0  0  0  0  0  0  0  0  0  0  0
   57.8100   33.6840   44.9200 N   0  0  0  0  0  0  0  0  0  0  0  0
   58.6900   34.8730   44.9020 C   0  0  0  0  0  0  0  0  0  0  0  0
   59.8060   34.8320   45.9680 C   0  0  0  0  0  0  0  0  0  0  0  0
   59.7300   33.6070   46.7810 N   0  0  0  0  0  0  0  0  0  0  0  0
   60.8230   33.4960   47.7700 C   0  0  0  0  0  0  0  0  0  0  0  0
   60.9860   32.1090   48.3380 C   0  0  0  0  0  0  0  0  0  0  0  0
   61.8760   31.8990   49.2060 O   0  0  0  0  0  0  0  0  0  0  0  0
   60.1060   31.0510   47.9220 N   0  0  0  0  0  0  0  0  0  0  0  0
   60.2420   29.6810   48.3350 C   0  0  0  0  0  0  0  0  0  0  0  0
   60.4230   29.3370   49.6870 C   0  0  0  0  0  0  0  0  0  0  0  0
   60.5770   27.9970   50.0580 C   0  0  0  0  0  0  0  0  0  0  0  0
   60.5640   26.9940   49.0850 C   0  0  0  0  0  0  0  0  0  0  0  0
   60.4060   27.3290   47.7370 C   0  0  0  0  0  0  0  0  0  0  0  0
   60.4040   26.3570   46.7920 F   0  0  0  0  0  0  0  0  0  0  0  0
   60.2530   28.6690   47.3630 C   0  0  0  0  0  0  0  0  0  0  0  0
   58.3920   33.4530   47.3680 C   0  0  0  0  0  0  0  0  0  0  0  0
   57.3350   33.2770   46.2610 C   0  0  0  0  0  0  0  0  0  0  0  0
   56.3510   30.8660   43.8920 C   0  0  0  0  0  0  0  0  0  0  0  0
   55.7670   29.6570   44.2850 C   0  0  0  0  0  0  0  0  0  0  0  0
   56.7014   26.3805   47.0850 H   0  0  0  0  0  0  0  0  0  0  0  0
   56.1843   25.5401   45.5840 H   0  0  0  0  0  0  0  0  0  0  0  0
   57.6747   26.5428   45.5840 H   0  0  0  0  0  0  0  0  0  0  0  0
   58.2384   28.5046   46.3487 H   0  0  0  0  0  0  0  0  0  0  0  0
   59.2796   30.6539   45.6435 H   0  0  0  0  0  0  0  0  0  0  0  0
   59.3046   32.4845   44.0484 H   0  0  0  0  0  0  0  0  0  0  0  0
   57.8354   32.8308   43.0157 H   0  0  0  0  0  0  0  0  0  0  0  0
   59.1594   34.9433   43.9097 H   0  0  0  0  0  0  0  0  0  0  0  0
   58.0589   35.7449   45.1290 H   0  0  0  0  0  0  0  0  0  0  0  0
   60.7832   34.8667   45.4641 H   0  0  0  0  0  0  0  0  0  0  0  0
   59.6787   35.6975   46.6348 H   0  0  0  0  0  0  0  0  0  0  0  0
   61.7651   33.7841   47.2806 H   0  0  0  0  0  0  0  0  0  0  0  0
   60.5667   34.1596   48.6091 H   0  0  0  0  0  0  0  0  0  0  0  0
   59.2610   31.3100   47.3640 H   0  0  0  0  0  0  0  0  0  0  0  0
   60.4435   30.1243   50.4550 H   0  0  0  0  0  0  0  0  0  0  0  0
   60.7086   27.7323   51.1175 H   0  0  0  0  0  0  0  0  0  0  0  0
   60.6781   25.9404   49.3799 H   0  0  0  0  0  0  0  0  0  0  0  0
   60.1407   28.9305   46.3005 H   0  0  0  0  0  0  0  0  0  0  0  0
   58.3829   32.5681   48.0214 H   0  0  0  0  0  0  0  0  0  0  0  0
   58.1521   34.3556   47.9492 H   0  0  0  0  0  0  0  0  0  0  0  0
   57.0464   32.2163   46.2208 H   0  0  0  0  0  0  0  0  0  0  0  0
   56.4880   33.9309   46.5160 H   0  0  0  0  0  0  0  0  0  0  0  0
   55.8218   31.5248   43.1877 H   0  0  0  0  0  0  0  0  0  0  0  0
   54.7791   29.3730   43.8933 H   0  0  0  0  0  0  0  0  0  0  0  0
  1  2  1  0
  2  3  1  0
  3  4  2  0
  4  5  1  0
  5  6  2  0
  6  7  1  0
  7  8  1  0
  8  9  1  0
  9 10  1  0
 10 11  1  0
 11 12  1  0
 12 13  1  0
 13 14  2  0
 13 15  1  0
 15 16  1  0
 16 17  2  0
 17 18  1  0
 18 19  2  0
 19 20  1  0
 20 21  1  0
 20 22  2  0
 11 23  1  0
 23 24  1  0
  6 25  1  0
 25 26  2  0
 26  3  1  0
 24  8  1  0
 22 16  1  0
  1 27  1  0
  1 28  1  0
  1 29  1  0
  4 30  1  0
  5 31  1  0
  7 32  1  0
  7 33  1  0
  9 34  1  0
  9 35  1  0
 10 36  1  0
 10 37  1  0
 12 38  1  0
 12 39  1  0
 15 40  1  0
 17 41  1  0
 18 42  1  0
 19 43  1  0
 22 44  1  0
 23 45  1  0
 23 46  1  0
 24 47  1  0
 24 48  1  0
 25 49  1  0
 26 50  1  0
M  END
>  <UniqueID>  (4) 
4

>  <SMILES>  (4) 
COc1ccc(CN2CCN(CC(=O)Nc3cccc(F)c3)CC2)cc1

>  <Energy>  (4) 
68.59097514787074

>  <Genealogy>  (4) 
COc1ccc(CN2CCN(CC(=O)Nc3cccc(F)c3)CC2)cc1 (3D coordinates assigned)
COc1ccc(CN2CCN(CC(=O)Nc3cccc(F)c3)CC2)cc1 (nonaromatic ring conformer: 68.59097514787074 kcal/mol)

>  <smiles>  (4) 
COc1ccc(CN2CCN(CC(=O)Nc3cccc(F)c3)CC2)cc1

>  <score_type>  (4) 
oracle

>  <origin>  (4) 
adg

>  <m_score__min__energy>  (4) 
-8.4399999999999995

>  <m_primary>  (4) 
energy

$$$$
4:0
     RDKit          3D

 61 63  0  0  0  0  0  0  0  0999 V2000
   62.6530   33.8270   46.3960 C   0  0  0  0  0  0  0  0  0  0  0  0
   63.3950   32.8710   46.9670 C   0  0  0  0  0  0  0  0  0  0  0  0
   64.1650   33.1200   48.2300 C   0  0  0  0  0  0  0  0  0  0  0  0
   63.3610   32.7530   49.4060 N   0  0  0  0  0  0  0  0  0  0  0  0
   62.0160   33.0190   49.4010 C   0  0  0  0  0  0  0  0  0  0  0  0
   61.2050   32.6550   50.4870 C   0  0  0  0  0  0  0  0  0  0  0  0
   59.7480   32.9080   50.4760 C   0  0  0  0  0  0  0  0  0  0  0  0
   59.3210   34.0430   50.8020 O   0  0  0  0  0  0  0  0  0  0  0  0
   58.7940   31.9110   50.0770 N   0  0  0  0  0  0  0  0  0  0  0  0
   58.9840   30.8870   49.0880 C   0  0  0  0  0  0  0  0  0  0  0  0
   59.4310   31.1840   47.7840 C   0  0  0  0  0  0  0  0  0  0  0  0
   59.6040   30.1560   46.8510 C   0  0  0  0  0  0  0  0  0  0  0  0
   59.3660   28.8160   47.2150 C   0  0  0  0  0  0  0  0  0  0  0  0
   59.5620   27.7090   46.2100 C   0  0  0  0  0  0  0  0  0  0  0  0
   58.2250   27.0770   45.8110 C   0  0  0  0  0  0  0  0  0  0  0  0
   57.9190   27.3920   44.4080 N   0  0  0  0  0  0  0  0  0  0  0  0
   58.0840   28.8290   44.1240 C   0  0  0  0  0  0  0  0  0  0  0  0
   56.9720   29.6540   44.8010 C   0  0  2  0  0  0  0  0  0  0  0  0
   55.7890   28.9020   44.8630 O   0  0  0  0  0  0  0  0  0  0  0  0
   56.6870   30.9670   44.0660 C   0  0  0  0  0  0  0  0  0  0  0  0
   56.4620   32.0170   45.0050 O   0  0  0  0  0  0  0  0  0  0  0  0
   57.4360   32.9350   45.4210 C   0  0  0  0  0  0  0  0  0  0  0  0
   57.5090   33.4120   46.7480 C   0  0  0  0  0  0  0  0  0  0  0  0
   58.4910   34.3440   47.1080 C   0  0  0  0  0  0  0  0  0  0  0  0
   59.4050   34.8000   46.1540 C   0  0  0  0  0  0  0  0  0  0  0  0
   59.3430   34.3250   44.8380 C   0  0  0  0  0  0  0  0  0  0  0  0
   58.3620   33.3970   44.4750 C   0  0  0  0  0  0  0  0  0  0  0  0
   58.9540   28.5220   48.5290 C   0  0  0  0  0  0  0  0  0  0  0  0
   58.7670   29.5500   49.4560 C   0  0  0  0  0  0  0  0  0  0  0  0
   61.8010   32.0410   51.5930 C   0  0  0  0  0  0  0  0  0  0  0  0
   63.1640   31.7630   51.5850 C   0  0  0  0  0  0  0  0  0  0  0  0
   63.9350   32.1150   50.4750 C   0  0  0  0  0  0  0  0  0  0  0  0
   65.1670   31.8380   50.4740 O   0  0  0  0  0  0  0  0  0  0  0  0
   62.0995   33.6139   45.4696 H   0  0  0  0  0  0  0  0  0  0  0  0
   62.5966   34.8260   46.8530 H   0  0  0  0  0  0  0  0  0  0  0  0
   63.4415   31.8770   46.4982 H   0  0  0  0  0  0  0  0  0  0  0  0
   65.0846   32.5166   48.2179 H   0  0  0  0  0  0  0  0  0  0  0  0
   64.4134   34.1899   48.2894 H   0  0  0  0  0  0  0  0  0  0  0  0
   61.5663   33.5247   48.5338 H   0  0  0  0  0  0  0  0  0  0  0  0
   59.6439   32.2252   47.5000 H   0  0  0  0  0  0  0  0  0  0  0  0
   59.9277   30.3954   45.8273 H   0  0  0  0  0  0  0  0  0  0  0  0
   60.0456   28.1215   45.3122 H   0  0  0  0  0  0  0  0  0  0  0  0
   60.1909   26.9314   46.6680 H   0  0  0  0  0  0  0  0  0  0  0  0
   58.2867   25.9857   45.9343 H   0  0  0  0  0  0  0  0  0  0  0  0
   57.4287   27.4805   46.4537 H   0  0  0  0  0  0  0  0  0  0  0  0
   56.9220   27.1270   44.2310 H   0  0  0  0  0  0  0  0  0  0  0  0
   59.0613   29.1614   44.5040 H   0  0  0  0  0  0  0  0  0  0  0  0
   58.0228   28.9819   43.0364 H   0  0  0  0  0  0  0  0  0  0  0  0
   57.3276   29.9012   45.8122 H   0  0  0  0  0  0  0  0  0  0  0  0
   55.8950   28.1450   44.2340 H   0  0  0  0  0  0  0  0  0  0  0  0
   57.5492   31.2239   43.4330 H   0  0  0  0  0  0  0  0  0  0  0  0
   55.7886   30.8428   43.4435 H   0  0  0  0  0  0  0  0  0  0  0  0
   56.7930   33.0509   47.5010 H   0  0  0  0  0  0  0  0  0  0  0  0
   58.5427   34.7169   48.1416 H   0  0  0  0  0  0  0  0  0  0  0  0
   60.1744   35.5333   46.4373 H   0  0  0  0  0  0  0  0  0  0  0  0
   60.0661   34.6820   44.0898 H   0  0  0  0  0  0  0  0  0  0  0  0
   58.3165   33.0269   43.4401 H   0  0  0  0  0  0  0  0  0  0  0  0
   58.7786   27.4777   48.8269 H   0  0  0  0  0  0  0  0  0  0  0  0
   58.4476   29.3102   50.4809 H   0  0  0  0  0  0  0  0  0  0  0  0
   61.1915   31.7776   52.4700 H   0  0  0  0  0  0  0  0  0  0  0  0
   63.6322   31.2683   52.4487 H   0  0  0  0  0  0  0  0  0  0  0  0
  1  2  2  0
  2  3  1  0
  3  4  1  0
  4  5  1  0
  5  6  2  0
  6  7  1  0
  7  8  2  0
  7  9  1  0
  9 10  1  0
 10 11  2  0
 11 12  1  0
 12 13  2  0
 13 14  1  0
 14 15  1  0
 15 16  1  0
 16 17  1  0
 17 18  1  0
 18 19  1  0
 18 20  1  0
 20 21  1  0
 21 22  1  0
 22 23  2  0
 23 24  1  0
 24 25  2  0
 25 26  1  0
 26 27  2  0
 13 28  1  0
 28 29  2  0
  6 30  1  0
 30 31  2  0
 31 32  1  0
 32 33  2  0
 32  4  1  0
 29 10  1  0
 27 22  1  0
  1 34  1  0
  1 35  1  0
  2 36  1  0
  3 37  1  0
  3 38  1  0
  5 39  1  0
 11 40  1  0
 12 41  1  0
 14 42  1  0
 14 43  1  0
 15 44  1  0
 15 45  1  0
 16 46  1  0
 17 47  1  0
 17 48  1  0
 18 49  1  1
 19 50  1  0
 20 51  1  0
 20 52  1  0
 23 53  1  0
 24 54  1  0
 25 55  1  0
 26 56  1  0
 27 57  1  0
 28 58  1  0
 29 59  1  0
 30 60  1  0
 31 61  1  0
M  CHG  1   9  -1
M  END
>  <UniqueID>  (5) 
5

>  <SMILES>  (5) 
C=CCn1cc(C(=O)[N-]c2ccc(CCNC[C@H](O)COc3ccccc3)cc2)ccc1=O

>  <Energy>  (5) 
61.53917617370671

>  <Genealogy>  (5) 
C=CCn1cc(C(=O)[N-]c2ccc(CCNCC(O)COc3ccccc3)cc2)ccc1=O (protonated)
C=CCn1cc(C(=O)[N-]c2ccc(CCNC[C@H](O)COc3ccccc3)cc2)ccc1=O (chirality)
C=CCn1cc(C(=O)[N-]c2ccc(CCNC[C@H](O)COc3ccccc3)cc2)ccc1=O (3D coordinates assigned)
C=CCn1cc(C(=O)[N-]c2ccc(CCNC[C@H](O)COc3ccccc3)cc2)ccc1=O (optimized conformer: 61.53917617370671 kcal/mol)

>  <smiles>  (5) 
C=CCn1cc(C(=O)Nc2ccc(CCNCC(O)COc3ccccc3)cc2)ccc1=O

>  <score_type>  (5) 
oracle

>  <origin>  (5) 
adg

>  <m_score__min__energy>  (5) 
-9.8200000000000003

>  <m_primary>  (5) 
energy

$$$$
5:0
     RDKit          3D

 52 54  0  0  0  0  0  0  0  0999 V2000
   58.1850   27.1370   42.5860 N   0  0  0  0  0  0  0  0  0  0  0  0
   57.8890   26.4740   43.4880 C   0  0  0  0  0  0  0  0  0  0  0  0
   57.5200   25.6510   44.6130 C   0  0  0  0  0  0  0  0  0  0  0  0
   57.9880   24.3290   44.6600 C   0  0  0  0  0  0  0  0  0  0  0  0
   57.5800   23.4720   45.6850 C   0  0  0  0  0  0  0  0  0  0  0  0
   56.6920   23.9250   46.6630 C   0  0  0  0  0  0  0  0  0  0  0  0
   56.2200   25.2400   46.6260 C   0  0  0  0  0  0  0  0  0  0  0  0
   56.6480   26.1210   45.6230 C   0  0  0  0  0  0  0  0  0  0  0  0
   56.1300   27.4580   45.6250 N   0  0  0  0  0  0  0  0  0  0  0  0
   56.9270   28.6440   45.5180 C   0  0  0  0  0  0  0  0  0  0  0  0
   57.9090   28.8210   46.2890 O   0  0  0  0  0  0  0  0  0  0  0  0
   56.5700   29.6740   44.5310 C   0  0  0  0  0  0  0  0  0  0  0  0
   55.5550   30.3950   44.7310 O   0  0  0  0  0  0  0  0  0  0  0  0
   57.3600   29.8610   43.3480 N   0  0  0  0  0  0  0  0  0  0  0  0
   57.0190   30.8840   42.3600 C   0  0  0  0  0  0  0  0  0  0  0  0
   57.7170   32.1810   42.6660 C   0  0  0  0  0  0  0  0  0  0  0  0
   58.5230   32.6510   41.8200 O   0  0  0  0  0  0  0  0  0  0  0  0
   57.4440   32.9360   43.8540 N   0  0  0  0  0  0  0  0  0  0  0  0
   58.3550   33.2120   44.9260 C   0  0  0  0  0  0  0  0  0  0  0  0
   58.7560   34.5220   45.2350 C   0  0  0  0  0  0  0  0  0  0  0  0
   59.6200   34.7600   46.3080 C   0  0  0  0  0  0  0  0  0  0  0  0
   60.0720   33.6960   47.0930 C   0  0  0  0  0  0  0  0  0  0  0  0
   59.6510   32.3890   46.8150 C   0  0  0  0  0  0  0  0  0  0  0  0
   60.1810   31.0390   47.8150 S   0  0  0  0  0  0  0  0  0  0  0  0
   61.5200   31.3450   48.4290 O   0  0  0  0  0  0  0  0  0  0  0  0
   60.3110   29.8200   46.9460 O   0  0  0  0  0  0  0  0  0  0  0  0
   59.0070   30.7430   49.0720 N   0  0  0  0  0  0  0  0  0  0  0  0
   58.4990   32.0220   49.6000 C   0  0  0  0  0  0  0  0  0  0  0  0
   57.6640   31.7960   50.8770 C   0  0  0  0  0  0  0  0  0  0  0  0
   57.3840   30.4240   51.0670 O   0  0  0  0  0  0  0  0  0  0  0  0
   58.5920   29.7160   51.2820 C   0  0  0  0  0  0  0  0  0  0  0  0
   59.6180   29.9560   50.1530 C   0  0  0  0  0  0  0  0  0  0  0  0
   58.7880   32.1540   45.7370 C   0  0  0  0  0  0  0  0  0  0  0  0
   58.6797   23.9656   43.8857 H   0  0  0  0  0  0  0  0  0  0  0  0
   57.9584   22.4398   45.7218 H   0  0  0  0  0  0  0  0  0  0  0  0
   56.3636   23.2459   47.4636 H   0  0  0  0  0  0  0  0  0  0  0  0
   55.5076   25.5862   47.3893 H   0  0  0  0  0  0  0  0  0  0  0  0
   58.1990   29.2550   43.1950 H   0  0  0  0  0  0  0  0  0  0  0  0
   57.3254   30.5370   41.3621 H   0  0  0  0  0  0  0  0  0  0  0  0
   55.9327   31.0541   42.3914 H   0  0  0  0  0  0  0  0  0  0  0  0
   58.3887   35.3643   44.6303 H   0  0  0  0  0  0  0  0  0  0  0  0
   59.9445   35.7863   46.5346 H   0  0  0  0  0  0  0  0  0  0  0  0
   60.7595   33.8849   47.9306 H   0  0  0  0  0  0  0  0  0  0  0  0
   59.3500   32.6774   49.8372 H   0  0  0  0  0  0  0  0  0  0  0  0
   57.8572   32.4875   48.8375 H   0  0  0  0  0  0  0  0  0  0  0  0
   58.2264   32.1712   51.7447 H   0  0  0  0  0  0  0  0  0  0  0  0
   56.7110   32.3350   50.7706 H   0  0  0  0  0  0  0  0  0  0  0  0
   59.0308   30.0455   52.2353 H   0  0  0  0  0  0  0  0  0  0  0  0
   58.3551   28.6420   51.3002 H   0  0  0  0  0  0  0  0  0  0  0  0
   60.4822   30.5033   50.5574 H   0  0  0  0  0  0  0  0  0  0  0  0
   59.9436   28.9853   49.7510 H   0  0  0  0  0  0  0  0  0  0  0  0
   58.4470   31.1299   45.5250 H   0  0  0  0  0  0  0  0  0  0  0  0
  1  2  3  0
  2  3  1  0
  3  4  2  0
  4  5  1  0
  5  6  2  0
  6  7  1  0
  7  8  2  0
  8  9  1  0
  9 10  1  0
 10 11  2  0
 10 12  1  0
 12 13  2  0
 12 14  1  0
 14 15  1  0
 15 16  1  0
 16 17  2  0
 16 18  1  0
 18 19  1  0
 19 20  2  0
 20 21  1  0
 21 22  2  0
 22 23  1  0
 23 24  1  0
 24 25  2  0
 24 26  2  0
 24 27  1  0
 27 28  1  0
 28 29  1  0
 29 30  1  0
 30 31  1  0
 31 32  1  0
 23 33  2  0
  8  3  1  0
 33 19  1  0
 32 27  1  0
  4 34  1  0
  5 35  1  0
  6 36  1  0
  7 37  1  0
 14 38  1  0
 15 39  1  0
 15 40  1  0
 20 41  1  0
 21 42  1  0
 22 43  1  0
 28 44  1  0
 28 45  1  0
 29 46  1  0
 29 47  1  0
 31 48  1  0
 31 49  1  0
 32 50  1  0
 32 51  1  0
 33 52  1  0
M  CHG  2   9  -1  18  -1
M  END
>  <UniqueID>  (6) 
6

>  <SMILES>  (6) 
N#Cc1ccccc1[N-]C(=O)C(=O)NCC(=O)[N-]c1cccc(S(=O)(=O)N2CCOCC2)c1

>  <Energy>  (6) 
67.5592218326387

>  <Genealogy>  (6) 
N#Cc1ccccc1[N-]C(=O)C(=O)NCC(=O)[N-]c1cccc(S(=O)(=O)N2CCOCC2)c1 (protonated)
N#Cc1ccccc1[N-]C(=O)C(=O)NCC(=O)[N-]c1cccc(S(=O)(=O)N2CCOCC2)c1 (3D coordinates assigned)
N#Cc1ccccc1[N-]C(=O)C(=O)NCC(=O)[N-]c1cccc(S(=O)(=O)N2CCOCC2)c1 (nonaromatic ring conformer: 67.5592218326387 kcal/mol)

>  <smiles>  (6) 
N#Cc1ccccc1NC(=O)C(=O)NCC(=O)Nc1cccc(S(=O)(=O)N2CCOCC2)c1

>  <score_type>  (6) 
oracle

>  <origin>  (6) 
adg

>  <m_score__min__energy>  (6) 
-12.9

>  <m_primary>  (6) 
energy

$$$$
6:0
     RDKit          3D

 42 44  0  0  0  0  0  0  0  0999 V2000
   55.3190   29.7650   44.8950 O   0  0  0  0  0  0  0  0  0  0  0  0
   56.4460   29.2940   45.1960 C   0  0  0  0  0  0  0  0  0  0  0  0
   56.7250   27.9160   44.9130 N   0  0  0  0  0  0  0  0  0  0  0  0
   56.9340   26.9390   45.7530 C   0  0  0  0  0  0  0  0  0  0  0  0
   58.2140   26.7260   46.1670 N   0  0  0  0  0  0  0  0  0  0  0  0
   58.5520   25.7180   47.0140 C   0  0  0  0  0  0  0  0  0  0  0  0
   57.5720   24.8550   47.4980 C   0  0  0  0  0  0  0  0  0  0  0  0
   56.2440   25.0570   47.1240 C   0  0  0  0  0  0  0  0  0  0  0  0
   55.9060   26.1090   46.2670 C   0  0  0  0  0  0  0  0  0  0  0  0
   54.5620   26.3290   45.9880 O   0  0  0  0  0  0  0  0  0  0  0  0
   57.3990   30.1400   45.8570 N   0  0  0  0  0  0  0  0  0  0  0  0
   57.8320   31.4360   45.4200 C   0  0  0  0  0  0  0  0  0  0  0  0
   57.5030   31.8570   44.1260 C   0  0  0  0  0  0  0  0  0  0  0  0
   57.9130   33.1100   43.6640 C   0  0  0  0  0  0  0  0  0  0  0  0
   58.6480   33.9570   44.4970 C   0  0  0  0  0  0  0  0  0  0  0  0
   58.9680   33.5580   45.8000 C   0  0  0  0  0  0  0  0  0  0  0  0
   59.8690   34.6450   46.8540 S   0  0  0  0  0  0  0  0  0  0  0  0
   61.3390   34.3330   46.7850 O   0  0  0  0  0  0  0  0  0  0  0  0
   59.6600   36.0600   46.3940 O   0  0  0  0  0  0  0  0  0  0  0  0
   59.3110   34.4910   48.4920 N   0  0  0  0  0  0  0  0  0  0  0  0
   60.2900   33.7530   49.2840 C   0  0  0  0  0  0  0  0  0  0  0  0
   60.1540   32.2860   48.9920 C   0  0  0  0  0  0  0  0  0  0  0  0
   59.0290   31.5750   49.4390 C   0  0  0  0  0  0  0  0  0  0  0  0
   58.8850   30.2180   49.1340 C   0  0  0  0  0  0  0  0  0  0  0  0
   59.8590   29.5660   48.3730 C   0  0  0  0  0  0  0  0  0  0  0  0
   60.9730   30.2710   47.9100 C   0  0  0  0  0  0  0  0  0  0  0  0
   61.1200   31.6280   48.2130 C   0  0  0  0  0  0  0  0  0  0  0  0
   58.5420   32.3070   46.2670 C   0  0  0  0  0  0  0  0  0  0  0  0
   59.6008   25.5838   47.3175 H   0  0  0  0  0  0  0  0  0  0  0  0
   57.8421   24.0245   48.1668 H   0  0  0  0  0  0  0  0  0  0  0  0
   55.4594   24.3864   47.5045 H   0  0  0  0  0  0  0  0  0  0  0  0
   56.9179   31.1969   43.4688 H   0  0  0  0  0  0  0  0  0  0  0  0
   57.6568   33.4300   42.6432 H   0  0  0  0  0  0  0  0  0  0  0  0
   58.9761   34.9400   44.1281 H   0  0  0  0  0  0  0  0  0  0  0  0
   61.3042   34.0883   49.0213 H   0  0  0  0  0  0  0  0  0  0  0  0
   60.1137   33.9354   50.3543 H   0  0  0  0  0  0  0  0  0  0  0  0
   58.2573   32.0878   50.0319 H   0  0  0  0  0  0  0  0  0  0  0  0
   58.0052   29.6638   49.4930 H   0  0  0  0  0  0  0  0  0  0  0  0
   59.7486   28.4970   48.1383 H   0  0  0  0  0  0  0  0  0  0  0  0
   61.7356   29.7575   47.3061 H   0  0  0  0  0  0  0  0  0  0  0  0
   61.9944   32.1817   47.8404 H   0  0  0  0  0  0  0  0  0  0  0  0
   58.7639   32.0045   47.3011 H   0  0  0  0  0  0  0  0  0  0  0  0
  1  2  2  0
  2  3  1  0
  3  4  2  3
  4  5  1  0
  5  6  1  0
  6  7  2  0
  7  8  1  0
  8  9  2  0
  9 10  1  0
  2 11  1  0
 11 12  1  0
 12 13  2  0
 13 14  1  0
 14 15  2  0
 15 16  1  0
 16 17  1  0
 17 18  2  0
 17 19  2  0
 17 20  1  0
 20 21  1  0
 21 22  1  0
 22 23  2  0
 23 24  1  0
 24 25  2  0
 25 26  1  0
 26 27  2  0
 16 28  2  0
  9  4  1  0
 28 12  1  0
 27 22  1  0
  6 29  1  0
  7 30  1  0
  8 31  1  0
 13 32  1  0
 14 33  1  0
 15 34  1  0
 21 35  1  0
 21 36  1  0
 23 37  1  0
 24 38  1  0
 25 39  1  0
 26 40  1  0
 27 41  1  0
 28 42  1  0
M  CHG  4   5  -1  10  -1  11  -1  20  -1
M  END
>  <UniqueID>  (7) 
7

>  <SMILES>  (7) 
O=C(N=c1[n-]cccc1[O-])[N-]c1cccc(S(=O)(=O)[N-]Cc2ccccc2)c1

>  <Energy>  (7) 
57.519754019109875

>  <Genealogy>  (7) 
O=C(N=c1[n-]cccc1[O-])[N-]c1cccc(S(=O)(=O)[N-]Cc2ccccc2)c1 (protonated)
O=C(N=c1[n-]cccc1[O-])[N-]c1cccc(S(=O)(=O)[N-]Cc2ccccc2)c1 (3D coordinates assigned)
O=C(N=c1[n-]cccc1[O-])[N-]c1cccc(S(=O)(=O)[N-]Cc2ccccc2)c1 (optimized conformer: 57.519754019109875 kcal/mol)

>  <smiles>  (7) 
O=C(N=c1[nH]cccc1O)Nc1cccc(S(=O)(=O)NCc2ccccc2)c1

>  <score_type>  (7) 
oracle

>  <origin>  (7) 
adg

>  <m_score__min__energy>  (7) 
-15.460000000000001

>  <m_primary>  (7) 
energy

$$$$
7:0
     RDKit          3D

 51 54  0  0  0  0  0  0  0  0999 V2000
   59.8180   26.9040   46.0980 O   0  0  0  0  0  0  0  0  0  0  0  0
   58.9070   27.5520   46.6790 C   0  0  0  0  0  0  0  0  0  0  0  0
   57.7590   26.8210   47.3010 C   0  0  0  0  0  0  0  0  0  0  0  0
   57.3150   25.7440   46.4180 N   0  0  0  0  0  0  0  0  0  0  0  0
   56.1220   25.6500   45.7970 C   0  0  0  0  0  0  0  0  0  0  0  0
   55.0660   26.5310   45.9970 O   0  0  0  0  0  0  0  0  0  0  0  0
   56.1110   24.5730   44.9360 C   0  0  0  0  0  0  0  0  0  0  0  0
   57.3390   23.9630   45.0530 C   0  0  0  0  0  0  0  0  0  0  0  0
   58.0680   24.7260   45.9460 C   0  0  0  0  0  0  0  0  0  0  0  0
   59.3930   24.5090   46.3070 O   0  0  0  0  0  0  0  0  0  0  0  0
   57.7730   22.7930   44.2180 C   0  0  0  0  0  0  0  0  0  0  0  0
   56.5440   22.0850   43.6140 C   0  0  0  0  0  0  0  0  0  0  0  0
   55.5440   23.0960   43.0110 C   0  0  0  0  0  0  0  0  0  0  0  0
   54.9900   24.0470   44.0920 C   0  0  0  0  0  0  0  0  0  0  0  0
   58.9940   28.9770   46.8270 N   0  0  0  0  0  0  0  0  0  0  0  0
   58.5550   29.9770   45.8950 C   0  0  0  0  0  0  0  0  0  0  0  0
   58.0490   29.5610   44.6590 C   0  0  0  0  0  0  0  0  0  0  0  0
   57.6390   30.4980   43.7080 C   0  0  0  0  0  0  0  0  0  0  0  0
   57.7310   31.8630   43.9850 C   0  0  0  0  0  0  0  0  0  0  0  0
   58.2510   32.2980   45.2130 C   0  0  0  0  0  0  0  0  0  0  0  0
   58.3550   34.0180   45.5760 S   0  0  0  0  0  0  0  0  0  0  0  0
   56.9690   34.5960   45.5870 O   0  0  0  0  0  0  0  0  0  0  0  0
   59.1530   34.7290   44.5170 O   0  0  0  0  0  0  0  0  0  0  0  0
   59.0900   34.3030   47.1220 N   0  0  0  0  0  0  0  0  0  0  0  0
   60.4460   33.9650   47.4220 C   0  0  0  0  0  0  0  0  0  0  0  0
   61.4120   33.8770   46.3980 C   0  0  0  0  0  0  0  0  0  0  0  0
   62.7370   33.5670   46.7110 C   0  0  0  0  0  0  0  0  0  0  0  0
   63.1150   33.3510   48.0380 C   0  0  0  0  0  0  0  0  0  0  0  0
   62.1620   33.4300   49.0580 C   0  0  0  0  0  0  0  0  0  0  0  0
   60.8280   33.7230   48.7520 C   0  0  0  0  0  0  0  0  0  0  0  0
   59.6610   33.8370   50.0540 Cl  0  0  0  0  0  0  0  0  0  0  0  0
   58.6720   31.3540   46.1620 C   0  0  0  0  0  0  0  0  0  0  0  0
   58.0772   26.3948   48.2639 H   0  0  0  0  0  0  0  0  0  0  0  0
   56.9275   27.5232   47.4605 H   0  0  0  0  0  0  0  0  0  0  0  0
   60.0600   25.2630   46.3150 H   0  0  0  0  0  0  0  0  0  0  0  0
   58.4236   23.1481   43.4052 H   0  0  0  0  0  0  0  0  0  0  0  0
   58.3205   22.0817   44.8538 H   0  0  0  0  0  0  0  0  0  0  0  0
   56.8803   21.4000   42.8218 H   0  0  0  0  0  0  0  0  0  0  0  0
   56.0340   21.5352   44.4187 H   0  0  0  0  0  0  0  0  0  0  0  0
   56.0558   23.6897   42.2392 H   0  0  0  0  0  0  0  0  0  0  0  0
   54.7029   22.5361   42.5762 H   0  0  0  0  0  0  0  0  0  0  0  0
   54.4737   24.8884   43.6068 H   0  0  0  0  0  0  0  0  0  0  0  0
   54.2853   23.4951   44.7313 H   0  0  0  0  0  0  0  0  0  0  0  0
   57.9734   28.4869   44.4342 H   0  0  0  0  0  0  0  0  0  0  0  0
   57.2429   30.1598   42.7391 H   0  0  0  0  0  0  0  0  0  0  0  0
   57.3952   32.5986   43.2392 H   0  0  0  0  0  0  0  0  0  0  0  0
   61.1212   34.0528   45.3518 H   0  0  0  0  0  0  0  0  0  0  0  0
   63.4862   33.4926   45.9090 H   0  0  0  0  0  0  0  0  0  0  0  0
   64.1625   33.1187   48.2807 H   0  0  0  0  0  0  0  0  0  0  0  0
   62.4612   33.2615   50.1030 H   0  0  0  0  0  0  0  0  0  0  0  0
   59.0956   31.6918   47.1193 H   0  0  0  0  0  0  0  0  0  0  0  0
  1  2  2  0
  2  3  1  0
  3  4  1  0
  4  5  1  0
  5  6  1  0
  5  7  2  0
  7  8  1  0
  8  9  2  0
  9 10  1  0
  8 11  1  0
 11 12  1  0
 12 13  1  0
 13 14  1  0
  2 15  1  0
 15 16  1  0
 16 17  2  0
 17 18  1  0
 18 19  2  0
 19 20  1  0
 20 21  1  0
 21 22  2  0
 21 23  2  0
 21 24  1  0
 24 25  1  0
 25 26  2  0
 26 27  1  0
 27 28  2  0
 28 29  1  0
 29 30  2  0
 30 31  1  0
 20 32  2  0
  9  4  1  0
 32 16  1  0
 14  7  1  0
 30 25  1  0
  3 33  1  0
  3 34  1  0
 10 35  1  0
 11 36  1  0
 11 37  1  0
 12 38  1  0
 12 39  1  0
 13 40  1  0
 13 41  1  0
 14 42  1  0
 14 43  1  0
 17 44  1  0
 18 45  1  0
 19 46  1  0
 26 47  1  0
 27 48  1  0
 28 49  1  0
 29 50  1  0
 32 51  1  0
M  CHG  3   6  -1  15  -1  24  -1
M  END
>  <UniqueID>  (8) 
8

>  <SMILES>  (8) 
O=C(Cn1c([O-])c2c(c1O)CCCC2)[N-]c1cccc(S(=O)(=O)[N-]c2ccccc2Cl)c1

>  <Energy>  (8) 
91.24119235386665

>  <Genealogy>  (8) 
O=C(Cn1c([O-])c2c(c1O)CCCC2)[N-]c1cccc(S(=O)(=O)[N-]c2ccccc2Cl)c1 (protonated)
O=C(Cn1c([O-])c2c(c1O)CCCC2)[N-]c1cccc(S(=O)(=O)[N-]c2ccccc2Cl)c1 (3D coordinates assigned)
O=C(Cn1c([O-])c2c(c1O)CCCC2)[N-]c1cccc(S(=O)(=O)[N-]c2ccccc2Cl)c1 (nonaromatic ring conformer: 91.24119235386665 kcal/mol)

>  <smiles>  (8) 
O=C(Cn1c(O)c2c(c1O)CCCC2)Nc1cccc(S(=O)(=O)Nc2ccccc2Cl)c1

>  <score_type>  (8) 
oracle

>  <origin>  (8) 
adg

>  <m_score__min__energy>  (8) 
-15.24

>  <m_primary>  (8) 
energy

$$$$
8:0
     RDKit          3D

 38 40  0  0  0  0  0  0  0  0999 V2000
   54.9690   23.7260   46.7910 N   0  0  0  0  0  0  0  0  0  0  0  0
   56.6650   23.7820   46.4640 S   0  0  0  0  0  0  0  0  0  0  0  0
   56.8720   23.7450   44.9760 O   0  0  0  0  0  0  0  0  0  0  0  0
   57.3540   22.5960   47.0800 O   0  0  0  0  0  0  0  0  0  0  0  0
   57.3450   25.2520   47.0850 N   0  0  0  0  0  0  0  0  0  0  0  0
   57.3940   26.5410   46.4490 C   0  0  0  0  0  0  0  0  0  0  0  0
   58.6410   27.1710   46.3700 C   0  0  0  0  0  0  0  0  0  0  0  0
   58.7770   28.4220   45.7650 C   0  0  0  0  0  0  0  0  0  0  0  0
   57.6580   29.0790   45.2260 C   0  0  0  0  0  0  0  0  0  0  0  0
   57.8020   30.4100   44.5800 C   0  0  0  0  0  0  0  0  0  0  0  0
   57.4840   30.6550   43.2440 C   0  0  0  0  0  0  0  0  0  0  0  0
   57.7830   32.2750   42.9100 S   0  0  0  0  0  0  0  0  0  0  0  0
   58.3240   32.6860   44.4470 C   0  0  0  0  0  0  0  0  0  0  0  0
   58.7780   34.0200   44.8590 C   0  0  0  0  0  0  0  0  0  0  0  0
   57.9600   34.9780   44.8920 O   0  0  0  0  0  0  0  0  0  0  0  0
   60.1620   34.2300   45.1710 N   0  0  0  0  0  0  0  0  0  0  0  0
   60.7740   34.1140   46.4640 C   0  0  0  0  0  0  0  0  0  0  0  0
   60.0460   34.2900   47.6550 C   0  0  0  0  0  0  0  0  0  0  0  0
   60.6790   34.1460   48.8940 C   0  0  0  0  0  0  0  0  0  0  0  0
   62.0340   33.8120   48.9550 C   0  0  0  0  0  0  0  0  0  0  0  0
   62.7610   33.6100   47.7740 C   0  0  0  0  0  0  0  0  0  0  0  0
   64.1090   33.2650   47.8210 O   0  0  0  0  0  0  0  0  0  0  0  0
   62.1270   33.7550   46.5350 C   0  0  0  0  0  0  0  0  0  0  0  0
   58.2750   31.5530   45.2510 C   0  0  0  0  0  0  0  0  0  0  0  0
   56.4020   28.4540   45.3110 C   0  0  0  0  0  0  0  0  0  0  0  0
   56.2620   27.1990   45.9180 C   0  0  0  0  0  0  0  0  0  0  0  0
   54.9920   26.6440   45.9850 O   0  0  0  0  0  0  0  0  0  0  0  0
   54.5460   24.5710   46.3500 H   0  0  0  0  0  0  0  0  0  0  0  0
   59.5272   26.6733   46.7907 H   0  0  0  0  0  0  0  0  0  0  0  0
   59.7677   28.8968   45.7099 H   0  0  0  0  0  0  0  0  0  0  0  0
   57.1015   29.9121   42.5286 H   0  0  0  0  0  0  0  0  0  0  0  0
   58.9760   34.5416   47.6117 H   0  0  0  0  0  0  0  0  0  0  0  0
   60.1085   34.2961   49.8224 H   0  0  0  0  0  0  0  0  0  0  0  0
   62.5308   33.7074   49.9308 H   0  0  0  0  0  0  0  0  0  0  0  0
   64.5330   32.6870   47.1050 H   0  0  0  0  0  0  0  0  0  0  0  0
   62.6955   33.5858   45.6086 H   0  0  0  0  0  0  0  0  0  0  0  0
   58.5766   31.5502   46.3088 H   0  0  0  0  0  0  0  0  0  0  0  0
   55.5166   28.9571   44.8952 H   0  0  0  0  0  0  0  0  0  0  0  0
  1  2  1  0
  2  3  2  0
  2  4  2  0
  2  5  1  0
  5  6  1  0
  6  7  2  0
  7  8  1  0
  8  9  2  0
  9 10  1  0
 10 11  2  0
 11 12  1  0
 12 13  1  0
 13 14  1  0
 14 15  2  0
 14 16  1  0
 16 17  1  0
 17 18  2  0
 18 19  1  0
 19 20  2  0
 20 21  1  0
 21 22  1  0
 21 23  2  0
 13 24  2  0
  9 25  1  0
 25 26  2  0
 26 27  1  0
 26  6  1  0
 24 10  1  0
 23 17  1  0
  1 28  1  0
  7 29  1  0
  8 30  1  0
 11 31  1  0
 18 32  1  0
 19 33  1  0
 20 34  1  0
 22 35  1  0
 23 36  1  0
 24 37  1  0
 25 38  1  0
M  CHG  4   1  -1   5  -1  16  -1  27  -1
M  END
>  <UniqueID>  (9) 
9

>  <SMILES>  (9) 
[NH-]S(=O)(=O)[N-]c1ccc(-c2csc(C(=O)[N-]c3cccc(O)c3)c2)cc1[O-]

>  <Energy>  (9) 
77.30861237481729

>  <Genealogy>  (9) 
[NH-]S(=O)(=O)[N-]c1ccc(-c2csc(C(=O)[N-]c3cccc(O)c3)c2)cc1[O-] (protonated)
[NH-]S(=O)(=O)[N-]c1ccc(-c2csc(C(=O)[N-]c3cccc(O)c3)c2)cc1[O-] (3D coordinates assigned)
[NH-]S(=O)(=O)[N-]c1ccc(-c2csc(C(=O)[N-]c3cccc(O)c3)c2)cc1[O-] (optimized conformer: 77.30861237481729 kcal/mol)

>  <smiles>  (9) 
NS(=O)(=O)Nc1ccc(-c2csc(C(=O)Nc3cccc(O)c3)c2)cc1O

>  <score_type>  (9) 
oracle

>  <origin>  (9) 
adg

>  <m_score__min__energy>  (9) 
-16.09

>  <m_primary>  (9) 
energy

$$$$
9:0
     RDKit          3D

 48 51  0  0  0  0  0  0  0  0999 V2000
   57.5890   25.9770   44.7830 O   0  0  0  0  0  0  0  0  0  0  0  0
   57.4890   27.4160   45.2080 S   0  0  0  0  0  0  0  0  0  0  0  0
   56.0530   27.7190   45.5370 O   0  0  0  0  0  0  0  0  0  0  0  0
   58.4920   27.6470   46.6380 C   0  0  0  0  0  0  0  0  0  0  0  0
   59.1890   26.5600   47.1750 C   0  0  0  0  0  0  0  0  0  0  0  0
   59.9990   26.7320   48.2980 C   0  0  0  0  0  0  0  0  0  0  0  0
   60.1210   27.9910   48.8900 C   0  0  0  0  0  0  0  0  0  0  0  0
   59.4330   29.0970   48.3610 C   0  0  0  0  0  0  0  0  0  0  0  0
   59.5850   30.4250   49.0000 C   0  0  0  0  0  0  0  0  0  0  0  0
   59.7290   30.6930   50.3530 C   0  0  0  0  0  0  0  0  0  0  0  0
   59.8280   32.0640   50.4620 C   0  0  0  0  0  0  0  0  0  0  0  0
   59.7420   32.5470   49.1730 C   0  0  0  0  0  0  0  0  0  0  0  0
   59.7630   33.9870   48.7750 C   0  0  0  0  0  0  0  0  0  0  0  0
   59.1710   34.1480   47.4020 C   0  0  0  0  0  0  0  0  0  0  0  0
   59.8470   34.8910   46.4210 C   0  0  0  0  0  0  0  0  0  0  0  0
   59.2760   35.0700   45.1560 C   0  0  0  0  0  0  0  0  0  0  0  0
   58.0250   34.5190   44.8680 C   0  0  0  0  0  0  0  0  0  0  0  0
   57.3390   33.7910   45.8440 C   0  0  0  0  0  0  0  0  0  0  0  0
   57.9060   33.6090   47.1090 C   0  0  0  0  0  0  0  0  0  0  0  0
   59.5950   31.5550   48.3270 O   0  0  0  0  0  0  0  0  0  0  0  0
   58.6160   28.9140   47.2280 C   0  0  0  0  0  0  0  0  0  0  0  0
   58.0640   28.4660   43.9290 N   0  0  0  0  0  0  0  0  0  0  0  0
   58.9140   29.5600   44.4520 C   0  0  0  0  0  0  0  0  0  0  0  0
   58.1510   30.8890   44.5970 C   0  0  0  0  0  0  0  0  0  0  0  0
   56.8010   30.6460   44.9200 O   0  0  0  0  0  0  0  0  0  0  0  0
   56.1310   30.0620   43.8170 C   0  0  0  0  0  0  0  0  0  0  0  0
   56.9560   28.9680   43.0970 C   0  0  0  0  0  0  0  0  0  0  0  0
   59.0984   25.5668   46.7109 H   0  0  0  0  0  0  0  0  0  0  0  0
   60.5431   25.8734   48.7183 H   0  0  0  0  0  0  0  0  0  0  0  0
   60.7599   28.1181   49.7764 H   0  0  0  0  0  0  0  0  0  0  0  0
   59.7583   29.9604   51.1730 H   0  0  0  0  0  0  0  0  0  0  0  0
   59.9501   32.6503   51.3847 H   0  0  0  0  0  0  0  0  0  0  0  0
   59.1751   34.5733   49.4966 H   0  0  0  0  0  0  0  0  0  0  0  0
   60.8033   34.3444   48.7647 H   0  0  0  0  0  0  0  0  0  0  0  0
   60.8282   35.3336   46.6474 H   0  0  0  0  0  0  0  0  0  0  0  0
   59.8129   35.6453   44.3874 H   0  0  0  0  0  0  0  0  0  0  0  0
   57.5794   34.6583   43.8720 H   0  0  0  0  0  0  0  0  0  0  0  0
   56.3524   33.3609   45.6168 H   0  0  0  0  0  0  0  0  0  0  0  0
   57.3604   33.0421   47.8777 H   0  0  0  0  0  0  0  0  0  0  0  0
   58.0716   29.7702   46.8030 H   0  0  0  0  0  0  0  0  0  0  0  0
   59.2982   29.2654   45.4397 H   0  0  0  0  0  0  0  0  0  0  0  0
   59.7280   29.7218   43.7301 H   0  0  0  0  0  0  0  0  0  0  0  0
   58.6131   31.4873   45.3961 H   0  0  0  0  0  0  0  0  0  0  0  0
   58.1977   31.4340   43.6426 H   0  0  0  0  0  0  0  0  0  0  0  0
   55.1954   29.6102   44.1783 H   0  0  0  0  0  0  0  0  0  0  0  0
   55.9540   30.8648   43.0862 H   0  0  0  0  0  0  0  0  0  0  0  0
   56.2903   28.1279   42.8498 H   0  0  0  0  0  0  0  0  0  0  0  0
   57.3908   29.4154   42.1911 H   0  0  0  0  0  0  0  0  0  0  0  0
  1  2  2  0
  2  3  2  0
  2  4  1  0
  4  5  2  0
  5  6  1  0
  6  7  2  0
  7  8  1  0
  8  9  1  0
  9 10  2  0
 10 11  1  0
 11 12  2  0
 12 13  1  0
 13 14  1  0
 14 15  2  0
 15 16  1  0
 16 17  2  0
 17 18  1  0
 18 19  2  0
 12 20  1  0
  8 21  2  0
  2 22  1  0
 22 23  1  0
 23 24  1  0
 24 25  1  0
 25 26  1  0
 26 27  1  0
 21  4  1  0
 27 22  1  0
 20  9  1  0
 19 14  1  0
  5 28  1  0
  6 29  1  0
  7 30  1  0
 10 31  1  0
 11 32  1  0
 13 33  1  0
 13 34  1  0
 15 35  1  0
 16 36  1  0
 17 37  1  0
 18 38  1  0
 19 39  1  0
 21 40  1  0
 23 41  1  0
 23 42  1  0
 24 43  1  0
 24 44  1  0
 26 45  1  0
 26 46  1  0
 27 47  1  0
 27 48  1  0
M  END
>  <UniqueID>  (10) 
10

>  <SMILES>  (10) 
O=S(=O)(c1cccc(-c2ccc(Cc3ccccc3)o2)c1)N1CCOCC1

>  <Energy>  (10) 
87.17404143324869

>  <Genealogy>  (10) 
O=S(=O)(c1cccc(-c2ccc(Cc3ccccc3)o2)c1)N1CCOCC1 (3D coordinates assigned)
O=S(=O)(c1cccc(-c2ccc(Cc3ccccc3)o2)c1)N1CCOCC1 (nonaromatic ring conformer: 87.17404143324869 kcal/mol)

>  <smiles>  (10) 
O=S(=O)(c1cccc(-c2ccc(Cc3ccccc3)o2)c1)N1CCOCC1

>  <score_type>  (10) 
oracle

>  <origin>  (10) 
adg

>  <m_score__min__energy>  (10) 
-9.7799999999999994

>  <m_primary>  (10) 
energy

$$$$
10:0
     RDKit          3D

 24 25  0  0  0  0  0  0  0  0999 V2000
   54.4240   26.3400   45.9930 O   0  0  0  0  0  0  0  0  0  0  0  0
   55.5530   25.5280   45.9750 C   0  0  0  0  0  0  0  0  0  0  0  0
   55.4000   24.1410   46.0900 C   0  0  0  0  0  0  0  0  0  0  0  0
   56.5230   23.3100   46.1250 C   0  0  0  0  0  0  0  0  0  0  0  0
   57.8040   23.8640   46.0520 C   0  0  0  0  0  0  0  0  0  0  0  0
   57.9640   25.2470   45.9320 C   0  0  0  0  0  0  0  0  0  0  0  0
   56.8430   26.0870   45.8680 C   0  0  0  0  0  0  0  0  0  0  0  0
   57.0330   27.5060   45.7580 N   0  0  0  0  0  0  0  0  0  0  0  0
   57.5780   28.1570   44.5960 C   0  0  0  0  0  0  0  0  0  0  0  0
   58.5660   27.3340   43.5700 S   0  0  0  0  0  0  0  0  0  0  0  0
   57.3650   29.6080   44.4120 C   0  0  0  0  0  0  0  0  0  0  0  0
   57.3650   30.2900   43.2030 C   0  0  0  0  0  0  0  0  0  0  0  0
   57.1180   31.6100   43.5020 C   0  0  0  0  0  0  0  0  0  0  0  0
   56.9780   31.6620   44.8700 C   0  0  0  0  0  0  0  0  0  0  0  0
   56.7160   32.8210   45.5910 O   0  0  0  0  0  0  0  0  0  0  0  0
   57.1260   30.4500   45.4390 N   0  0  0  0  0  0  0  0  0  0  0  0
   54.3925   23.7040   46.1530 H   0  0  0  0  0  0  0  0  0  0  0  0
   56.3988   22.2203   46.2100 H   0  0  0  0  0  0  0  0  0  0  0  0
   58.6879   23.2102   46.0891 H   0  0  0  0  0  0  0  0  0  0  0  0
   58.9746   25.6790   45.8875 H   0  0  0  0  0  0  0  0  0  0  0  0
   56.8560   28.0860   46.6090 H   0  0  0  0  0  0  0  0  0  0  0  0
   57.5298   29.8603   42.2039 H   0  0  0  0  0  0  0  0  0  0  0  0
   57.0471   32.4494   42.7946 H   0  0  0  0  0  0  0  0  0  0  0  0
   56.3540   33.6450   45.1290 H   0  0  0  0  0  0  0  0  0  0  0  0
  1  2  1  0
  2  3  2  0
  3  4  1  0
  4  5  2  0
  5  6  1  0
  6  7  2  0
  7  8  1  0
  8  9  1  0
  9 10  2  0
  9 11  1  0
 11 12  2  0
 12 13  1  0
 13 14  2  0
 14 15  1  0
 14 16  1  0
  7  2  1  0
 16 11  1  0
  3 17  1  0
  4 18  1  0
  5 19  1  0
  6 20  1  0
  8 21  1  0
 12 22  1  0
 13 23  1  0
 15 24  1  0
M  CHG  2   1  -1  16  -1
M  END
>  <UniqueID>  (11) 
11

>  <SMILES>  (11) 
[O-]c1ccccc1NC(=S)c1ccc(O)[n-]1

>  <Energy>  (11) 
55.77486347927535

>  <Genealogy>  (11) 
[O-]c1ccccc1NC(=S)c1ccc(O)[n-]1 (protonated)
[O-]c1ccccc1NC(=S)c1ccc(O)[n-]1 (3D coordinates assigned)
[O-]c1ccccc1NC(=S)c1ccc(O)[n-]1 (optimized conformer: 55.77486347927535 kcal/mol)

>  <smiles>  (11) 
Oc1ccc(C(=S)Nc2ccccc2O)[nH]1

>  <score_type>  (11) 
oracle

>  <origin>  (11) 
adg

>  <m_score__min__energy>  (11) 
-11.33

>  <m_primary>  (11) 
energy

$$$$
11:0
     RDKit          3D

 49 51  0  0  0  0  0  0  0  0999 V2000
   60.8170   28.8560   44.8730 C   0  0  0  0  0  0  0  0  0  0  0  0
   59.7610   27.8830   45.3890 C   0  0  0  0  0  0  0  0  0  0  0  0
   58.7950   28.5770   46.2550 N   0  0  0  0  0  0  0  0  0  0  0  0
   57.3810   28.4540   45.9880 C   0  0  0  0  0  0  0  0  0  0  0  0
   56.8000   27.3450   46.1320 O   0  0  0  0  0  0  0  0  0  0  0  0
   56.6270   29.5960   45.5600 N   0  0  0  0  0  0  0  0  0  0  0  0
   57.1300   30.6210   44.6950 C   0  0  0  0  0  0  0  0  0  0  0  0
   57.8180   31.6970   45.2720 C   0  0  0  0  0  0  0  0  0  0  0  0
   58.3160   32.7300   44.4760 C   0  0  0  0  0  0  0  0  0  0  0  0
   58.1410   32.6920   43.0930 C   0  0  0  0  0  0  0  0  0  0  0  0
   57.4870   31.6100   42.4990 C   0  0  0  0  0  0  0  0  0  0  0  0
   56.9980   30.5530   43.2850 C   0  0  0  0  0  0  0  0  0  0  0  0
   56.3510   29.3800   42.5970 C   0  0  0  0  0  0  0  0  0  0  0  0
   59.2710   29.2990   47.4100 C   0  0  0  0  0  0  0  0  0  0  0  0
   59.2950   28.8520   48.7220 C   0  0  0  0  0  0  0  0  0  0  0  0
   59.8290   29.8210   49.4860 N   0  0  0  0  0  0  0  0  0  0  0  0
   60.1540   30.8470   48.7120 N   0  0  0  0  0  0  0  0  0  0  0  0
   60.7190   32.1020   49.1990 C   0  0  0  0  0  0  0  0  0  0  0  0
   61.1600   32.9500   48.0410 C   0  0  0  0  0  0  0  0  0  0  0  0
   62.4010   32.9780   47.4290 C   0  0  0  0  0  0  0  0  0  0  0  0
   63.5940   32.1520   47.7820 C   0  0  0  0  0  0  0  0  0  0  0  0
   62.3570   33.8140   46.3730 N   0  0  0  0  0  0  0  0  0  0  0  0
   61.1520   34.3040   46.3210 O   0  0  0  0  0  0  0  0  0  0  0  0
   60.4010   33.8220   47.2860 C   0  0  0  0  0  0  0  0  0  0  0  0
   58.9650   34.1770   47.4890 C   0  0  0  0  0  0  0  0  0  0  0  0
   59.8300   30.5650   47.4350 C   0  0  0  0  0  0  0  0  0  0  0  0
   61.3287   29.3275   45.7250 H   0  0  0  0  0  0  0  0  0  0  0  0
   61.5504   28.3105   44.2610 H   0  0  0  0  0  0  0  0  0  0  0  0
   60.3332   29.6315   44.2610 H   0  0  0  0  0  0  0  0  0  0  0  0
   59.2278   27.4417   44.5340 H   0  0  0  0  0  0  0  0  0  0  0  0
   60.2599   27.0964   45.9741 H   0  0  0  0  0  0  0  0  0  0  0  0
   57.9669   31.7278   46.3614 H   0  0  0  0  0  0  0  0  0  0  0  0
   58.8468   33.5744   44.9399 H   0  0  0  0  0  0  0  0  0  0  0  0
   58.5186   33.5154   42.4689 H   0  0  0  0  0  0  0  0  0  0  0  0
   57.3538   31.5853   41.4074 H   0  0  0  0  0  0  0  0  0  0  0  0
   55.9646   28.6795   43.3520 H   0  0  0  0  0  0  0  0  0  0  0  0
   55.5214   29.7356   41.9682 H   0  0  0  0  0  0  0  0  0  0  0  0
   57.0943   28.8680   41.9682 H   0  0  0  0  0  0  0  0  0  0  0  0
   58.9387   27.8736   49.0767 H   0  0  0  0  0  0  0  0  0  0  0  0
   59.9660   29.7850   50.5200 H   0  0  0  0  0  0  0  0  0  0  0  0
   59.9570   32.6441   49.7782 H   0  0  0  0  0  0  0  0  0  0  0  0
   61.5874   31.8833   49.8378 H   0  0  0  0  0  0  0  0  0  0  0  0
   63.6854   32.0887   48.8764 H   0  0  0  0  0  0  0  0  0  0  0  0
   63.4764   31.1410   47.3648 H   0  0  0  0  0  0  0  0  0  0  0  0
   64.4990   32.6178   47.3648 H   0  0  0  0  0  0  0  0  0  0  0  0
   58.7492   34.2303   48.5663 H   0  0  0  0  0  0  0  0  0  0  0  0
   58.7595   35.1530   47.0251 H   0  0  0  0  0  0  0  0  0  0  0  0
   58.3284   33.4092   47.0251 H   0  0  0  0  0  0  0  0  0  0  0  0
   59.9825   31.2234   46.5671 H   0  0  0  0  0  0  0  0  0  0  0  0
  1  2  1  0
  2  3  1  0
  3  4  1  0
  4  5  2  0
  4  6  1  0
  6  7  1  0
  7  8  2  0
  8  9  1  0
  9 10  2  0
 10 11  1  0
 11 12  2  0
 12 13  1  0
  3 14  1  0
 14 15  1  0
 15 16  2  0
 16 17  1  0
 17 18  1  0
 18 19  1  0
 19 20  1  0
 20 21  1  0
 20 22  2  0
 22 23  1  0
 23 24  1  0
 24 25  1  0
 17 26  1  0
 12  7  1  0
 26 14  2  0
 24 19  2  0
  1 27  1  0
  1 28  1  0
  1 29  1  0
  2 30  1  0
  2 31  1  0
  8 32  1  0
  9 33  1  0
 10 34  1  0
 11 35  1  0
 13 36  1  0
 13 37  1  0
 13 38  1  0
 15 39  1  0
 16 40  1  0
 18 41  1  0
 18 42  1  0
 21 43  1  0
 21 44  1  0
 21 45  1  0
 25 46  1  0
 25 47  1  0
 25 48  1  0
 26 49  1  0
M  CHG  2   6  -1  16   1
M  END
>  <UniqueID>  (12) 
12

>  <SMILES>  (12) 
CCN(C(=O)[N-]c1ccccc1C)c1c[nH+]n(Cc2c(C)noc2C)c1

>  <Energy>  (12) 
114.23314367181861

>  <Genealogy>  (12) 
CCN(C(=O)[N-]c1ccccc1C)c1c[nH+]n(Cc2c(C)noc2C)c1 (protonated)
CCN(C(=O)[N-]c1ccccc1C)c1c[nH+]n(Cc2c(C)noc2C)c1 (3D coordinates assigned)
CCN(C(=O)[N-]c1ccccc1C)c1c[nH+]n(Cc2c(C)noc2C)c1 (optimized conformer: 114.23314367181861 kcal/mol)

>  <smiles>  (12) 
CCN(C(=O)Nc1ccccc1C)c1cnn(Cc2c(C)noc2C)c1

>  <score_type>  (12) 
oracle

>  <origin>  (12) 
adg

>  <m_score__min__energy>  (12) 
-8.2100000000000009

>  <m_primary>  (12) 
energy

$$$$
12:0
     RDKit          3D

 34 36  0  0  0  0  0  0  0  0999 V2000
   59.8650   27.9430   45.7270 O   0  0  0  0  0  0  0  0  0  0  0  0
   58.9610   28.8130   45.5940 C   0  0  0  0  0  0  0  0  0  0  0  0
   59.2870   30.1600   45.7660 C   0  0  0  0  0  0  0  0  0  0  0  0
   58.2820   31.1260   45.6370 C   0  0  0  0  0  0  0  0  0  0  0  0
   58.5580   32.5340   45.8070 N   0  0  0  0  0  0  0  0  0  0  0  0
   58.3300   33.4890   44.7140 C   0  0  0  0  0  0  0  0  0  0  0  0
   59.2380   34.7120   44.8760 C   0  0  0  0  0  0  0  0  0  0  0  0
   59.1260   35.2530   46.1780 O   0  0  0  0  0  0  0  0  0  0  0  0
   59.6240   34.3240   47.1200 C   0  0  0  0  0  0  0  0  0  0  0  0
   58.7470   33.0700   47.1620 C   0  0  0  0  0  0  0  0  0  0  0  0
   57.0210   30.7200   45.3360 N   0  0  0  0  0  0  0  0  0  0  0  0
   56.7070   29.4100   45.1660 C   0  0  0  0  0  0  0  0  0  0  0  0
   55.5210   29.0990   44.8750 O   0  0  0  0  0  0  0  0  0  0  0  0
   57.6740   28.4460   45.2970 N   0  0  0  0  0  0  0  0  0  0  0  0
   57.3380   27.0540   45.1180 C   0  0  0  0  0  0  0  0  0  0  0  0
   56.5770   26.3790   46.0870 C   0  0  0  0  0  0  0  0  0  0  0  0
   56.2520   25.0300   45.9120 C   0  0  0  0  0  0  0  0  0  0  0  0
   56.6850   24.3470   44.7720 C   0  0  0  0  0  0  0  0  0  0  0  0
   57.4420   25.0130   43.8030 C   0  0  0  0  0  0  0  0  0  0  0  0
   57.7680   26.3620   43.9750 C   0  0  0  0  0  0  0  0  0  0  0  0
   60.3197   30.4580   45.9997 H   0  0  0  0  0  0  0  0  0  0  0  0
   58.5489   32.9997   43.7535 H   0  0  0  0  0  0  0  0  0  0  0  0
   57.2805   33.8175   44.7401 H   0  0  0  0  0  0  0  0  0  0  0  0
   60.2814   34.4122   44.6988 H   0  0  0  0  0  0  0  0  0  0  0  0
   58.9303   35.4778   44.1488 H   0  0  0  0  0  0  0  0  0  0  0  0
   60.6483   34.0386   46.8383 H   0  0  0  0  0  0  0  0  0  0  0  0
   59.6173   34.7927   48.1151 H   0  0  0  0  0  0  0  0  0  0  0  0
   59.2331   32.3081   47.7890 H   0  0  0  0  0  0  0  0  0  0  0  0
   57.7654   33.3339   47.5824 H   0  0  0  0  0  0  0  0  0  0  0  0
   56.2357   26.9131   46.9861 H   0  0  0  0  0  0  0  0  0  0  0  0
   55.6548   24.5058   46.6726 H   0  0  0  0  0  0  0  0  0  0  0  0
   56.4303   23.2854   44.6370 H   0  0  0  0  0  0  0  0  0  0  0  0
   57.7812   24.4756   42.9051 H   0  0  0  0  0  0  0  0  0  0  0  0
   58.3640   26.8831   43.2112 H   0  0  0  0  0  0  0  0  0  0  0  0
  1  2  2  0
  2  3  1  0
  3  4  2  0
  4  5  1  0
  5  6  1  0
  6  7  1  0
  7  8  1  0
  8  9  1  0
  9 10  1  0
  4 11  1  0
 11 12  1  0
 12 13  2  0
 12 14  1  0
 14 15  1  0
 15 16  2  0
 16 17  1  0
 17 18  2  0
 18 19  1  0
 19 20  2  0
 14  2  1  0
 20 15  1  0
 10  5  1  0
  3 21  1  0
  6 22  1  0
  6 23  1  0
  7 24  1  0
  7 25  1  0
  9 26  1  0
  9 27  1  0
 10 28  1  0
 10 29  1  0
 16 30  1  0
 17 31  1  0
 18 32  1  0
 19 33  1  0
 20 34  1  0
M  CHG  1  11  -1
M  END
>  <UniqueID>  (13) 
13

>  <SMILES>  (13) 
O=c1cc(N2CCOCC2)[n-]c(=O)n1-c1ccccc1

>  <Energy>  (13) 
50.60440466672527

>  <Genealogy>  (13) 
O=c1cc(N2CCOCC2)[n-]c(=O)n1-c1ccccc1 (protonated)
O=c1cc(N2CCOCC2)[n-]c(=O)n1-c1ccccc1 (3D coordinates assigned)
O=c1cc(N2CCOCC2)[n-]c(=O)n1-c1ccccc1 (nonaromatic ring conformer: 50.60440466672527 kcal/mol)

>  <smiles>  (13) 
O=c1cc(N2CCOCC2)[nH]c(=O)n1-c1ccccc1

>  <score_type>  (13) 
oracle

>  <origin>  (13) 
adg

>  <m_score__min__energy>  (13) 
-8.3499999999999996

>  <m_primary>  (13) 
energy

$$$$
13:0
     RDKit          3D

 50 52  0  0  0  0  0  0  0  0999 V2000
   60.8620   30.3910   46.3840 C   0  0  0  0  0  0  0  0  0  0  0  0
   60.3480   29.4230   45.4750 O   0  0  0  0  0  0  0  0  0  0  0  0
   59.3640   28.4720   45.7930 C   0  0  0  0  0  0  0  0  0  0  0  0
   59.4910   27.6240   46.9120 C   0  0  0  0  0  0  0  0  0  0  0  0
   58.4950   26.6930   47.2080 C   0  0  0  0  0  0  0  0  0  0  0  0
   57.3670   26.5930   46.3970 C   0  0  0  0  0  0  0  0  0  0  0  0
   57.2250   27.4290   45.2880 C   0  0  0  0  0  0  0  0  0  0  0  0
   58.2190   28.3760   44.9720 C   0  0  0  0  0  0  0  0  0  0  0  0
   58.0890   29.2350   43.8230 N   0  0  0  0  0  0  0  0  0  0  0  0
   57.0110   30.5940   43.7600 S   0  0  0  0  0  0  0  0  0  0  0  0
   56.8690   31.0500   42.3350 O   0  0  0  0  0  0  0  0  0  0  0  0
   55.6640   30.1770   44.2800 O   0  0  0  0  0  0  0  0  0  0  0  0
   57.6590   31.9220   44.7170 C   0  0  0  0  0  0  0  0  0  0  0  0
   58.0390   33.1200   44.1010 C   0  0  0  0  0  0  0  0  0  0  0  0
   58.4980   34.1890   44.8740 C   0  0  0  0  0  0  0  0  0  0  0  0
   58.5810   34.0680   46.2640 C   0  0  0  0  0  0  0  0  0  0  0  0
   58.2260   32.8590   46.8900 C   0  0  0  0  0  0  0  0  0  0  0  0
   58.2110   32.7150   48.3190 N   0  0  0  0  0  0  0  0  0  0  0  0
   58.9000   31.7130   49.0730 C   0  0  0  0  0  0  0  0  0  0  0  0
   58.9110   30.5140   48.6850 O   0  0  0  0  0  0  0  0  0  0  0  0
   59.5790   32.0870   50.3520 C   0  0  0  0  0  0  0  0  0  0  0  0
   60.5800   33.5560   50.1350 S   0  0  0  0  0  0  0  0  0  0  0  0
   61.3180   33.8560   51.4090 O   0  0  0  0  0  0  0  0  0  0  0  0
   59.6810   34.7160   49.8130 O   0  0  0  0  0  0  0  0  0  0  0  0
   61.7440   33.3160   48.8290 C   0  0  0  0  0  0  0  0  0  0  0  0
   62.8870   32.5260   49.0260 C   0  0  0  0  0  0  0  0  0  0  0  0
   63.8390   32.4060   48.0090 C   0  0  0  0  0  0  0  0  0  0  0  0
   63.6520   33.0680   46.7930 C   0  0  0  0  0  0  0  0  0  0  0  0
   62.5110   33.8510   46.5910 C   0  0  0  0  0  0  0  0  0  0  0  0
   61.5600   33.9760   47.6070 C   0  0  0  0  0  0  0  0  0  0  0  0
   57.7650   31.7940   46.1090 C   0  0  0  0  0  0  0  0  0  0  0  0
   60.6839   30.0555   47.4163 H   0  0  0  0  0  0  0  0  0  0  0  0
   61.9429   30.5114   46.2189 H   0  0  0  0  0  0  0  0  0  0  0  0
   60.3564   31.3539   46.2189 H   0  0  0  0  0  0  0  0  0  0  0  0
   60.3803   27.6968   47.5553 H   0  0  0  0  0  0  0  0  0  0  0  0
   58.6008   26.0363   48.0841 H   0  0  0  0  0  0  0  0  0  0  0  0
   56.5866   25.8539   46.6308 H   0  0  0  0  0  0  0  0  0  0  0  0
   56.3289   27.3476   44.6552 H   0  0  0  0  0  0  0  0  0  0  0  0
   58.7370   29.1170   43.0140 H   0  0  0  0  0  0  0  0  0  0  0  0
   57.9761   33.2197   43.0073 H   0  0  0  0  0  0  0  0  0  0  0  0
   58.7952   35.1295   44.3871 H   0  0  0  0  0  0  0  0  0  0  0  0
   58.9245   34.9196   46.8696 H   0  0  0  0  0  0  0  0  0  0  0  0
   58.8172   32.2802   51.1216 H   0  0  0  0  0  0  0  0  0  0  0  0
   60.2325   31.2574   50.6598 H   0  0  0  0  0  0  0  0  0  0  0  0
   63.0341   32.0008   49.9812 H   0  0  0  0  0  0  0  0  0  0  0  0
   64.7363   31.7896   48.1665 H   0  0  0  0  0  0  0  0  0  0  0  0
   64.4024   32.9733   45.9943 H   0  0  0  0  0  0  0  0  0  0  0  0
   62.3622   34.3687   45.6319 H   0  0  0  0  0  0  0  0  0  0  0  0
   60.6644   34.5943   47.4470 H   0  0  0  0  0  0  0  0  0  0  0  0
   57.4829   30.8468   46.5918 H   0  0  0  0  0  0  0  0  0  0  0  0
  1  2  1  0
  2  3  1  0
  3  4  2  0
  4  5  1  0
  5  6  2  0
  6  7  1  0
  7  8  2  0
  8  9  1  0
  9 10  1  0
 10 11  2  0
 10 12  2  0
 10 13  1  0
 13 14  2  0
 14 15  1  0
 15 16  2  0
 16 17  1  0
 17 18  1  0
 18 19  1  0
 19 20  2  0
 19 21  1  0
 21 22  1  0
 22 23  2  0
 22 24  2  0
 22 25  1  0
 25 26  2  0
 26 27  1  0
 27 28  2  0
 28 29  1  0
 29 30  2  0
 17 31  2  0
  8  3  1  0
 31 13  1  0
 30 25  1  0
  1 32  1  0
  1 33  1  0
  1 34  1  0
  4 35  1  0
  5 36  1  0
  6 37  1  0
  7 38  1  0
  9 39  1  0
 14 40  1  0
 15 41  1  0
 16 42  1  0
 21 43  1  0
 21 44  1  0
 26 45  1  0
 27 46  1  0
 28 47  1  0
 29 48  1  0
 30 49  1  0
 31 50  1  0
M  CHG  1  18  -1
M  END
>  <UniqueID>  (14) 
14

>  <SMILES>  (14) 
COc1ccccc1NS(=O)(=O)c1cccc([N-]C(=O)CS(=O)(=O)c2ccccc2)c1

>  <Energy>  (14) 
51.35430712156902

>  <Genealogy>  (14) 
COc1ccccc1NS(=O)(=O)c1cccc([N-]C(=O)CS(=O)(=O)c2ccccc2)c1 (protonated)
COc1ccccc1NS(=O)(=O)c1cccc([N-]C(=O)CS(=O)(=O)c2ccccc2)c1 (3D coordinates assigned)
COc1ccccc1NS(=O)(=O)c1cccc([N-]C(=O)CS(=O)(=O)c2ccccc2)c1 (optimized conformer: 51.35430712156902 kcal/mol)

>  <smiles>  (14) 
COc1ccccc1NS(=O)(=O)c1cccc(NC(=O)CS(=O)(=O)c2ccccc2)c1

>  <score_type>  (14) 
oracle

>  <origin>  (14) 
adg

>  <m_score__min__energy>  (14) 
-11.449999999999999

>  <m_primary>  (14) 
energy

$$$$
14:0
     RDKit          3D

 21 21  0  0  0  0  0  0  0  0999 V2000
   60.9360   28.2810   44.9330 C   0  0  0  0  0  0  0  0  0  0  0  0
   59.4710   28.6030   44.9070 C   0  0  0  0  0  0  0  0  0  0  0  0
   59.0340   29.8810   44.5490 C   0  0  0  0  0  0  0  0  0  0  0  0
   57.6640   30.1810   44.5560 C   0  0  0  0  0  0  0  0  0  0  0  0
   57.2330   31.4790   44.1240 N   0  0  0  0  0  0  0  0  0  0  0  0
   57.7660   32.0680   42.9000 C   0  0  0  0  0  0  0  0  0  0  0  0
   56.5250   32.1760   44.8810 O   0  0  0  0  0  0  0  0  0  0  0  0
   56.7570   29.2250   44.9440 N   0  0  0  0  0  0  0  0  0  0  0  0
   55.4060   29.5100   45.0240 O   0  0  0  0  0  0  0  0  0  0  0  0
   57.1720   27.9740   45.3050 C   0  0  0  0  0  0  0  0  0  0  0  0
   56.3290   27.1060   45.6600 O   0  0  0  0  0  0  0  0  0  0  0  0
   58.5300   27.6460   45.2970 C   0  0  0  0  0  0  0  0  0  0  0  0
   61.2765   28.2062   45.9763 H   0  0  0  0  0  0  0  0  0  0  0  0
   61.1100   27.3232   44.4209 H   0  0  0  0  0  0  0  0  0  0  0  0
   61.4956   29.0776   44.4209 H   0  0  0  0  0  0  0  0  0  0  0  0
   59.7644   30.6517   44.2617 H   0  0  0  0  0  0  0  0  0  0  0  0
   58.4836   32.8611   43.1570 H   0  0  0  0  0  0  0  0  0  0  0  0
   58.2740   31.2909   42.3101 H   0  0  0  0  0  0  0  0  0  0  0  0
   56.9421   32.4961   42.3101 H   0  0  0  0  0  0  0  0  0  0  0  0
   54.7620   28.9560   45.5750 H   0  0  0  0  0  0  0  0  0  0  0  0
   58.8571   26.6393   45.5962 H   0  0  0  0  0  0  0  0  0  0  0  0
  1  2  1  0
  2  3  1  0
  3  4  2  0
  4  5  1  0
  5  6  1  0
  5  7  2  0
  4  8  1  0
  8  9  1  0
  8 10  1  0
 10 11  2  0
 10 12  1  0
 12  2  2  0
  1 13  1  0
  1 14  1  0
  1 15  1  0
  3 16  1  0
  6 17  1  0
  6 18  1  0
  6 19  1  0
  9 20  1  0
 12 21  1  0
M  CHG  1   5   1
M  END
>  <UniqueID>  (15) 
15

>  <SMILES>  (15) 
Cc1cc([N+](C)=O)n(O)c(=O)c1

>  <Energy>  (15) 
25.907473046363872

>  <Genealogy>  (15) 
Cc1cc([N+](C)=O)n(O)c(=O)c1 (3D coordinates assigned)
Cc1cc([N+](C)=O)n(O)c(=O)c1 (optimized conformer: 25.907473046363872 kcal/mol)

>  <smiles>  (15) 
Cc1cc([N+](C)=O)n(O)c(=O)c1

>  <score_type>  (15) 
oracle

>  <origin>  (15) 
adg

>  <m_score__min__energy>  (15) 
-4.7699999999999996

>  <m_primary>  (15) 
energy

$$$$
15:0
     RDKit          3D

 33 35  0  0  1  0  0  0  0  0999 V2000
   59.8270   29.3630   50.0110 O   0  0  0  0  0  0  0  0  0  0  0  0
   59.2630   30.3780   49.5380 C   0  0  0  0  0  0  0  0  0  0  0  0
   58.2930   31.1040   50.1000 N   0  0  0  0  0  0  0  0  0  0  0  0
   57.9410   32.0980   49.3180 N   0  0  0  0  0  0  0  0  0  0  0  0
   58.6760   32.0830   48.1690 C   0  0  0  0  0  0  0  0  0  0  0  0
   58.5700   33.0460   47.0860 C   0  0  0  0  0  0  0  0  0  0  0  0
   57.4270   33.3250   46.3870 C   0  0  0  0  0  0  0  0  0  0  0  0
   57.4220   34.2330   45.3450 C   0  0  0  0  0  0  0  0  0  0  0  0
   58.5390   34.9000   44.9520 C   0  0  0  0  0  0  0  0  0  0  0  0
   59.7170   34.6370   45.6450 C   0  0  0  0  0  0  0  0  0  0  0  0
   59.7210   33.7310   46.6850 C   0  0  0  0  0  0  0  0  0  0  0  0
   59.5080   30.9940   48.3150 C   0  0  0  0  0  0  0  0  0  0  0  0
   60.5260   30.5180   47.3930 C   0  0  0  0  0  0  0  0  0  0  0  0
   60.3570   30.4160   46.1190 N   0  0  0  0  0  0  0  0  0  0  0  0
   59.0600   30.2260   45.6300 C   0  0  0  0  0  0  0  0  0  0  0  0
   58.4640   30.9030   44.6190 C   0  0  0  0  0  0  0  0  0  0  0  0
   57.1530   30.6430   44.2040 C   0  0  0  0  0  0  0  0  0  0  0  0
   56.4580   29.6510   44.8670 C   0  0  0  0  0  0  0  0  0  0  0  0
   55.1440   29.3380   44.5070 O   0  0  0  0  0  0  0  0  0  0  0  0
   57.0380   28.9540   45.8900 N   0  0  0  0  0  0  0  0  0  0  0  0
   58.2980   29.2330   46.2580 C   0  0  0  0  0  0  0  0  0  0  0  0
   57.8790   30.8860   51.0470 H   0  0  0  0  0  0  0  0  0  0  0  0
   57.1970   32.7820   49.5800 H   0  0  0  0  0  0  0  0  0  0  0  0
   56.4914   32.8152   46.6606 H   0  0  0  0  0  0  0  0  0  0  0  0
   56.4779   34.4231   44.8135 H   0  0  0  0  0  0  0  0  0  0  0  0
   58.5131   35.6188   44.1197 H   0  0  0  0  0  0  0  0  0  0  0  0
   60.6467   35.1527   45.3627 H   0  0  0  0  0  0  0  0  0  0  0  0
   60.6640   33.5405   47.2183 H   0  0  0  0  0  0  0  0  0  0  0  0
   61.5019   30.2265   47.8084 H   0  0  0  0  0  0  0  0  0  0  0  0
   59.0342   31.6896   44.1030 H   0  0  0  0  0  0  0  0  0  0  0  0
   56.6931   31.2081   43.3799 H   0  0  0  0  0  0  0  0  0  0  0  0
   54.7670   28.4250   44.4980 H   0  0  0  0  0  0  0  0  0  0  0  0
   58.7485   28.6611   47.0826 H   0  0  0  0  0  0  0  0  0  0  0  0
  1  2  2  0
  2  3  1  0
  3  4  1  0
  4  5  1  0
  5  6  1  0
  6  7  2  0
  7  8  1  0
  8  9  2  0
  9 10  1  0
 10 11  2  0
  5 12  2  0
 12 13  1  0
 13 14  2  0
 14 15  1  0
 15 16  2  0
 16 17  1  0
 17 18  2  0
 18 19  1  0
 18 20  1  0
 20 21  2  0
 12  2  1  0
 21 15  1  0
 11  6  1  0
  3 22  1  0
  4 23  1  0
  7 24  1  0
  8 25  1  0
  9 26  1  0
 10 27  1  0
 11 28  1  0
 13 29  1  0
 16 30  1  0
 17 31  1  0
 19 32  1  0
 21 33  1  0
M  END
>  <smiles>  (16) 
O=c1[nH][nH]c(-c2ccccc2)c1C=Nc1ccc(O)nc1

>  <score_type>  (16) 
oracle

>  <origin>  (16) 
adg

>  <m_score__min__energy>  (16) 
-7.5899999999999999

>  <m_primary>  (16) 
energy

$$$$
16:0
     RDKit          3D

 44 46  0  0  0  0  0  0  0  0999 V2000
   58.0180   32.7050   47.2780 N   0  0  0  0  0  0  0  0  0  0  0  0
   58.9870   33.7550   47.2570 C   0  0  0  0  0  0  0  0  0  0  0  0
   58.5970   34.9490   47.1530 O   0  0  0  0  0  0  0  0  0  0  0  0
   60.4360   33.4550   47.3730 C   0  0  0  0  0  0  0  0  0  0  0  0
   61.3350   34.1120   46.5120 C   0  0  0  0  0  0  0  0  0  0  0  0
   62.6970   33.8090   46.5380 C   0  0  0  0  0  0  0  0  0  0  0  0
   63.1830   32.8440   47.4180 C   0  0  0  0  0  0  0  0  0  0  0  0
   62.3100   32.1840   48.2840 C   0  0  0  0  0  0  0  0  0  0  0  0
   60.9360   32.4830   48.2810 C   0  0  0  0  0  0  0  0  0  0  0  0
   60.0670   31.8070   49.2740 C   0  0  0  0  0  0  0  0  0  0  0  0
   59.8830   30.4170   49.2200 C   0  0  0  0  0  0  0  0  0  0  0  0
   59.0940   29.7730   50.1780 C   0  0  0  0  0  0  0  0  0  0  0  0
   58.4770   30.5090   51.1990 C   0  0  0  0  0  0  0  0  0  0  0  0
   57.6720   29.8020   52.2550 C   0  0  0  0  0  0  0  0  0  0  0  0
   56.4920   30.5890   52.5900 N   0  0  0  0  0  0  0  0  0  0  0  0
   55.1890   30.0240   52.7650 C   0  0  0  0  0  0  0  0  0  0  0  0
   54.8640   29.4900   53.8610 O   0  0  0  0  0  0  0  0  0  0  0  0
   54.2150   30.0410   51.6270 C   0  0  0  0  0  0  0  0  0  0  0  0
   52.8760   30.6630   52.0410 C   0  0  0  0  0  0  0  0  0  0  0  0
   52.0150   30.9740   50.8510 C   0  0  0  0  0  0  0  0  0  0  0  0
   51.9020   30.1810   49.7710 N   0  0  0  0  0  0  0  0  0  0  0  0
   51.0190   30.8420   48.9910 C   0  0  0  0  0  0  0  0  0  0  0  0
   50.6480   30.4080   47.8700 O   0  0  0  0  0  0  0  0  0  0  0  0
   50.5620   32.0030   49.5090 N   0  0  0  0  0  0  0  0  0  0  0  0
   51.1990   32.0690   50.6890 C   0  0  0  0  0  0  0  0  0  0  0  0
   51.0350   33.1060   51.5980 O   0  0  0  0  0  0  0  0  0  0  0  0
   58.6700   31.8980   51.2600 C   0  0  0  0  0  0  0  0  0  0  0  0
   59.4610   32.5420   50.3060 C   0  0  0  0  0  0  0  0  0  0  0  0
   57.0000   32.9330   47.2360 H   0  0  0  0  0  0  0  0  0  0  0  0
   58.3070   31.7020   47.2760 H   0  0  0  0  0  0  0  0  0  0  0  0
   60.9600   34.8724   45.8112 H   0  0  0  0  0  0  0  0  0  0  0  0
   63.3887   34.3332   45.8621 H   0  0  0  0  0  0  0  0  0  0  0  0
   64.2560   32.6022   47.4301 H   0  0  0  0  0  0  0  0  0  0  0  0
   62.7004   31.4227   48.9754 H   0  0  0  0  0  0  0  0  0  0  0  0
   60.3613   29.8317   48.4209 H   0  0  0  0  0  0  0  0  0  0  0  0
   58.9567   28.6827   50.1302 H   0  0  0  0  0  0  0  0  0  0  0  0
   57.3585   28.8179   51.8765 H   0  0  0  0  0  0  0  0  0  0  0  0
   58.2898   29.6747   53.1562 H   0  0  0  0  0  0  0  0  0  0  0  0
   54.6414   30.6285   50.8006 H   0  0  0  0  0  0  0  0  0  0  0  0
   54.0308   29.0022   51.3155 H   0  0  0  0  0  0  0  0  0  0  0  0
   52.3413   29.9563   52.6926 H   0  0  0  0  0  0  0  0  0  0  0  0
   53.0849   31.6056   52.5681 H   0  0  0  0  0  0  0  0  0  0  0  0
   58.1961   32.4819   52.0628 H   0  0  0  0  0  0  0  0  0  0  0  0
   59.6101   33.6303   50.3632 H   0  0  0  0  0  0  0  0  0  0  0  0
  1  2  1  0
  2  3  2  0
  2  4  1  0
  4  5  2  0
  5  6  1  0
  6  7  2  0
  7  8  1  0
  8  9  2  0
  9 10  1  0
 10 11  2  0
 11 12  1  0
 12 13  2  0
 13 14  1  0
 14 15  1  0
 15 16  1  0
 16 17  2  0
 16 18  1  0
 18 19  1  0
 19 20  1  0
 20 21  1  0
 21 22  1  0
 22 23  2  0
 22 24  1  0
 24 25  1  0
 25 26  1  0
 13 27  1  0
 27 28  2  0
  9  4  1  0
 28 10  1  0
 25 20  2  0
  1 29  1  0
  1 30  1  0
  5 31  1  0
  6 32  1  0
  7 33  1  0
  8 34  1  0
 11 35  1  0
 12 36  1  0
 14 37  1  0
 14 38  1  0
 18 39  1  0
 18 40  1  0
 19 41  1  0
 19 42  1  0
 27 43  1  0
 28 44  1  0
M  CHG  4  15  -1  21  -1  24  -1  26  -1
M  END
>  <UniqueID>  (17) 
16

>  <SMILES>  (17) 
NC(=O)c1ccccc1-c1ccc(C[N-]C(=O)CCc2[n-]c(=O)[n-]c2[O-])cc1

>  <Energy>  (17) 
76.12594110669266

>  <Genealogy>  (17) 
NC(=O)c1ccccc1-c1ccc(C[N-]C(=O)CCc2[n-]c(=O)[n-]c2[O-])cc1 (protonated)
NC(=O)c1ccccc1-c1ccc(C[N-]C(=O)CCc2[n-]c(=O)[n-]c2[O-])cc1 (3D coordinates assigned)
NC(=O)c1ccccc1-c1ccc(C[N-]C(=O)CCc2[n-]c(=O)[n-]c2[O-])cc1 (optimized conformer: 76.12594110669266 kcal/mol)

>  <smiles>  (17) 
NC(=O)c1ccccc1-c1ccc(CNC(=O)CCc2[nH]c(=O)[nH]c2O)cc1

>  <score_type>  (17) 
oracle

>  <origin>  (17) 
adg

>  <m_score__min__energy>  (17) 
-18.579999999999998

>  <m_primary>  (17) 
energy

$$$$
17:0
     RDKit          3D

 46 48  0  0  0  0  0  0  0  0999 V2000
   57.4420   28.0290   43.2350 O   0  0  0  0  0  0  0  0  0  0  0  0
   57.0470   28.7440   44.1970 C   0  0  0  0  0  0  0  0  0  0  0  0
   56.2600   28.1590   45.2420 N   0  0  0  0  0  0  0  0  0  0  0  0
   56.7970   27.2520   46.2550 C   0  0  2  0  0  0  0  0  0  0  0  0
   58.2450   26.8700   45.9040 C   0  0  0  0  0  0  0  0  0  0  0  0
   59.2390   27.9610   46.2240 C   0  0  0  0  0  0  0  0  0  0  0  0
   60.1950   28.3540   45.2720 C   0  0  0  0  0  0  0  0  0  0  0  0
   61.1210   29.3570   45.5750 C   0  0  0  0  0  0  0  0  0  0  0  0
   61.0930   29.9820   46.8240 C   0  0  0  0  0  0  0  0  0  0  0  0
   60.1420   29.6020   47.7740 C   0  0  0  0  0  0  0  0  0  0  0  0
   59.2260   28.5870   47.4830 C   0  0  0  0  0  0  0  0  0  0  0  0
   55.9250   26.0310   46.3990 C   0  0  0  0  0  0  0  0  0  0  0  0
   56.3380   25.0520   47.0770 O   0  0  0  0  0  0  0  0  0  0  0  0
   54.6470   25.9750   45.7520 N   0  0  0  0  0  0  0  0  0  0  0  0
   54.0280   24.7420   45.2840 C   0  0  0  0  0  0  0  0  0  0  0  0
   55.0850   23.7610   44.8580 C   0  0  0  0  0  0  0  0  0  0  0  0
   55.9010   24.0280   43.7460 C   0  0  0  0  0  0  0  0  0  0  0  0
   56.8750   23.1060   43.3490 C   0  0  0  0  0  0  0  0  0  0  0  0
   57.0380   21.9130   44.0580 C   0  0  0  0  0  0  0  0  0  0  0  0
   56.2220   21.6340   45.1570 C   0  0  0  0  0  0  0  0  0  0  0  0
   55.2420   22.5500   45.5520 C   0  0  0  0  0  0  0  0  0  0  0  0
   57.3970   30.1820   44.2460 C   0  0  0  0  0  0  0  0  0  0  0  0
   57.4100   30.9580   43.0730 C   0  0  0  0  0  0  0  0  0  0  0  0
   57.7390   32.3130   43.1440 C   0  0  0  0  0  0  0  0  0  0  0  0
   58.0460   32.8800   44.3400 N   0  0  0  0  0  0  0  0  0  0  0  0
   58.0430   32.1590   45.4910 C   0  0  0  0  0  0  0  0  0  0  0  0
   57.7190   30.8000   45.4670 C   0  0  0  0  0  0  0  0  0  0  0  0
   56.8022   27.7675   47.2267 H   0  0  0  0  0  0  0  0  0  0  0  0
   58.5177   25.9696   46.4741 H   0  0  0  0  0  0  0  0  0  0  0  0
   58.2850   26.6975   44.8183 H   0  0  0  0  0  0  0  0  0  0  0  0
   60.2150   27.8705   44.2841 H   0  0  0  0  0  0  0  0  0  0  0  0
   61.8725   29.6543   44.8288 H   0  0  0  0  0  0  0  0  0  0  0  0
   61.8198   30.7734   47.0594 H   0  0  0  0  0  0  0  0  0  0  0  0
   60.1139   30.1025   48.7531 H   0  0  0  0  0  0  0  0  0  0  0  0
   58.4924   28.2769   48.2417 H   0  0  0  0  0  0  0  0  0  0  0  0
   53.4313   24.3032   46.0973 H   0  0  0  0  0  0  0  0  0  0  0  0
   53.3805   24.9687   44.4242 H   0  0  0  0  0  0  0  0  0  0  0  0
   55.7734   24.9658   43.1854 H   0  0  0  0  0  0  0  0  0  0  0  0
   57.5127   23.3201   42.4786 H   0  0  0  0  0  0  0  0  0  0  0  0
   57.8101   21.1924   43.7503 H   0  0  0  0  0  0  0  0  0  0  0  0
   56.3505   20.6931   45.7121 H   0  0  0  0  0  0  0  0  0  0  0  0
   54.5918   22.3213   46.4093 H   0  0  0  0  0  0  0  0  0  0  0  0
   57.1621   30.4995   42.1043 H   0  0  0  0  0  0  0  0  0  0  0  0
   57.7497   32.9234   42.2289 H   0  0  0  0  0  0  0  0  0  0  0  0
   58.2962   32.6460   46.4443 H   0  0  0  0  0  0  0  0  0  0  0  0
   57.7159   30.2163   46.3993 H   0  0  0  0  0  0  0  0  0  0  0  0
  1  2  2  0
  2  3  1  0
  3  4  1  0
  4  5  1  0
  5  6  1  0
  6  7  2  0
  7  8  1  0
  8  9  2  0
  9 10  1  0
 10 11  2  0
  4 12  1  0
 12 13  2  0
 12 14  1  0
 14 15  1  0
 15 16  1  0
 16 17  2  0
 17 18  1  0
 18 19  2  0
 19 20  1  0
 20 21  2  0
  2 22  1  0
 22 23  2  0
 23 24  1  0
 24 25  2  0
 25 26  1  0
 26 27  2  0
 11  6  1  0
 21 16  1  0
 27 22  1  0
  4 28  1  1
  5 29  1  0
  5 30  1  0
  7 31  1  0
  8 32  1  0
  9 33  1  0
 10 34  1  0
 11 35  1  0
 15 36  1  0
 15 37  1  0
 17 38  1  0
 18 39  1  0
 19 40  1  0
 20 41  1  0
 21 42  1  0
 23 43  1  0
 24 44  1  0
 26 45  1  0
 27 46  1  0
M  CHG  2   3  -1  14  -1
M  END
>  <UniqueID>  (18) 
17

>  <SMILES>  (18) 
O=C([N-][C@H](Cc1ccccc1)C(=O)[N-]Cc1ccccc1)c1ccncc1

>  <Energy>  (18) 
40.366254914043736

>  <Genealogy>  (18) 
O=C([N-]C(Cc1ccccc1)C(=O)[N-]Cc1ccccc1)c1ccncc1 (protonated)
O=C([N-][C@H](Cc1ccccc1)C(=O)[N-]Cc1ccccc1)c1ccncc1 (chirality)
O=C([N-][C@H](Cc1ccccc1)C(=O)[N-]Cc1ccccc1)c1ccncc1 (3D coordinates assigned)
O=C([N-][C@H](Cc1ccccc1)C(=O)[N-]Cc1ccccc1)c1ccncc1 (optimized conformer: 40.366254914043736 kcal/mol)

>  <smiles>  (18) 
O=C(NC(Cc1ccccc1)C(=O)NCc1ccccc1)c1ccncc1

>  <score_type>  (18) 
oracle

>  <origin>  (18) 
adg

>  <m_score__min__energy>  (18) 
-12.56

>  <m_primary>  (18) 
energy

$$$$
18:0
     RDKit          3D

 24 25  0  0  0  0  0  0  0  0999 V2000
   56.3113   30.7794   41.1615 H   0  0  0  0  0  0  0  0  0  0  0  0
   56.6530   30.6990   42.2040 C   0  0  0  0  0  0  0  0  0  0  0  0
   56.0710   29.7590   43.0590 C   0  0  0  0  0  0  0  0  0  0  0  0
   55.2619   29.1121   42.6890 H   0  0  0  0  0  0  0  0  0  0  0  0
   56.5100   29.6340   44.3840 C   0  0  0  0  0  0  0  0  0  0  0  0
   55.8610   28.6780   45.2390 N   0  0  0  0  0  0  0  0  0  0  0  0
   56.3460   27.5430   45.6520 C   0  0  0  0  0  0  0  0  0  0  0  0
   57.6890   27.3350   45.7340 N   0  0  0  0  0  0  0  0  0  0  0  0
   58.1970   26.1420   46.1460 C   0  0  0  0  0  0  0  0  0  0  0  0
   59.6780   25.9480   46.2170 C   0  0  0  0  0  0  0  0  0  0  0  0
   59.9923   25.9068   47.2703 H   0  0  0  0  0  0  0  0  0  0  0  0
   59.9489   25.0067   45.7164 H   0  0  0  0  0  0  0  0  0  0  0  0
   60.1822   26.7878   45.7164 H   0  0  0  0  0  0  0  0  0  0  0  0
   57.3270   25.0990   46.4740 C   0  0  0  0  0  0  0  0  0  0  0  0
   57.7158   24.1241   46.8033 H   0  0  0  0  0  0  0  0  0  0  0  0
   55.9540   25.3230   46.3740 C   0  0  0  0  0  0  0  0  0  0  0  0
   55.1400   24.4060   46.6600 O   0  0  0  0  0  0  0  0  0  0  0  0
   55.4920   26.5330   45.9640 N   0  0  0  0  0  0  0  0  0  0  0  0
   57.5110   30.5040   44.8590 C   0  0  0  0  0  0  0  0  0  0  0  0
   57.8365   30.4442   45.9080 H   0  0  0  0  0  0  0  0  0  0  0  0
   58.0920   31.4430   44.0020 C   0  0  0  0  0  0  0  0  0  0  0  0
   58.8839   32.1093   44.3747 H   0  0  0  0  0  0  0  0  0  0  0  0
   57.6700   31.5380   42.6730 C   0  0  0  0  0  0  0  0  0  0  0  0
   58.3970   32.7190   41.6000 Cl  0  0  0  0  0  0  0  0  0  0  0  0
  1  2  1  0
  2  3  2  0
  3  4  1  0
  3  5  1  0
  5  6  1  0
  6  7  2  0
  7  8  1  0
  8  9  1  0
  9 10  1  0
 10 11  1  0
 10 12  1  0
 10 13  1  0
  9 14  2  0
 14 15  1  0
 14 16  1  0
 16 17  2  0
 16 18  1  0
  5 19  2  0
 19 20  1  0
 19 21  1  0
 21 22  1  0
 21 23  2  0
 23 24  1  0
 23  2  1  0
 18  7  1  0
M  CHG  2   8  -1  18  -1
M  END
>  <UniqueID>  (19) 
18

>  <SMILES>  (19) 
Cc1cc(=O)[n-]/c(=N/c2ccc(Cl)cc2)[n-]1

>  <Energy>  (19) 
30.581959589950277

>  <Genealogy>  (19) 
Cc1cc(=O)[n-]c(=Nc2ccc(Cl)cc2)[n-]1 (protonated)
Cc1cc(=O)[n-]/c(=N/c2ccc(Cl)cc2)[n-]1 (cis-trans isomerization)
Cc1cc(=O)[n-]/c(=N/c2ccc(Cl)cc2)[n-]1 (3D coordinates assigned)
Cc1cc(=O)[n-]/c(=N/c2ccc(Cl)cc2)[n-]1 (optimized conformer: 30.581959589950277 kcal/mol)

>  <smiles>  (19) 
Cc1cc(=O)[nH]c(=Nc2ccc(Cl)cc2)[nH]1

>  <score_type>  (19) 
oracle

>  <origin>  (19) 
adg

>  <m_score__min__energy>  (19) 
-9.9199999999999999

>  <m_primary>  (19) 
energy

$$$$
19:0
     RDKit          3D

 28 30  0  0  0  0  0  0  0  0999 V2000
   56.6460   34.9650   44.8660 O   0  0  0  0  0  0  0  0  0  0  0  0
   57.3400   33.9230   44.9960 C   0  0  0  0  0  0  0  0  0  0  0  0
   58.8330   34.0290   45.0640 C   0  0  0  0  0  0  0  0  0  0  0  0
   59.5090   32.8320   45.7780 C   0  0  1  0  0  0  0  0  0  0  0  0
   59.9160   33.1700   47.2130 C   0  0  0  0  0  0  0  0  0  0  0  0
   58.9530   33.0040   48.2300 C   0  0  0  0  0  0  0  0  0  0  0  0
   59.2590   33.2810   49.5630 C   0  0  0  0  0  0  0  0  0  0  0  0
   60.5330   33.7210   49.9100 C   0  0  0  0  0  0  0  0  0  0  0  0
   61.5070   33.8820   48.9250 C   0  0  0  0  0  0  0  0  0  0  0  0
   61.2160   33.6080   47.5820 C   0  0  0  0  0  0  0  0  0  0  0  0
   62.5250   33.8360   46.4320 Cl  0  0  0  0  0  0  0  0  0  0  0  0
   58.7440   31.5230   45.6780 C   0  0  0  0  0  0  0  0  0  0  0  0
   57.3980   31.4980   45.2750 C   0  0  0  0  0  0  0  0  0  0  0  0
   56.7390   30.3150   45.1860 N   0  0  0  0  0  0  0  0  0  0  0  0
   57.3530   29.1410   45.4770 C   0  0  0  0  0  0  0  0  0  0  0  0
   56.7140   28.0610   45.3840 O   0  0  0  0  0  0  0  0  0  0  0  0
   58.6540   29.1330   45.8720 N   0  0  0  0  0  0  0  0  0  0  0  0
   59.3600   30.2920   45.9780 C   0  0  0  0  0  0  0  0  0  0  0  0
   60.5670   30.2550   46.3420 O   0  0  0  0  0  0  0  0  0  0  0  0
   56.7130   32.6790   44.9880 O   0  0  0  0  0  0  0  0  0  0  0  0
   59.2244   34.0875   44.0376 H   0  0  0  0  0  0  0  0  0  0  0  0
   59.0655   34.9284   45.6530 H   0  0  0  0  0  0  0  0  0  0  0  0
   60.4348   32.6503   45.2125 H   0  0  0  0  0  0  0  0  0  0  0  0
   57.9447   32.6506   47.9683 H   0  0  0  0  0  0  0  0  0  0  0  0
   58.4920   33.1514   50.3408 H   0  0  0  0  0  0  0  0  0  0  0  0
   60.7716   33.9417   50.9609 H   0  0  0  0  0  0  0  0  0  0  0  0
   62.5132   34.2273   49.2050 H   0  0  0  0  0  0  0  0  0  0  0  0
   59.1200   28.2240   46.0960 H   0  0  0  0  0  0  0  0  0  0  0  0
  1  2  2  0
  2  3  1  0
  3  4  1  0
  4  5  1  0
  5  6  2  0
  6  7  1  0
  7  8  2  0
  8  9  1  0
  9 10  2  0
 10 11  1  0
  4 12  1  0
 12 13  2  0
 13 14  1  0
 14 15  1  0
 15 16  2  0
 15 17  1  0
 17 18  1  0
 18 19  2  0
 13 20  1  0
 20  2  1  0
 10  5  1  0
 18 12  1  0
  3 21  1  0
  3 22  1  0
  4 23  1  6
  6 24  1  0
  7 25  1  0
  8 26  1  0
  9 27  1  0
 17 28  1  0
M  CHG  1  14  -1
M  END
>  <UniqueID>  (20) 
19

>  <SMILES>  (20) 
O=C1C[C@@H](c2ccccc2Cl)c2c([n-]c(=O)[nH]c2=O)O1

>  <Energy>  (20) 
40.46581180361883

>  <Genealogy>  (20) 
O=C1CC(c2ccccc2Cl)c2c([n-]c(=O)[nH]c2=O)O1 (protonated)
O=C1C[C@@H](c2ccccc2Cl)c2c([n-]c(=O)[nH]c2=O)O1 (chirality)
O=C1C[C@@H](c2ccccc2Cl)c2c([n-]c(=O)[nH]c2=O)O1 (3D coordinates assigned)
O=C1C[C@@H](c2ccccc2Cl)c2c([n-]c(=O)[nH]c2=O)O1 (nonaromatic ring conformer: 40.46581180361883 kcal/mol)

>  <smiles>  (20) 
O=C1CC(c2ccccc2Cl)c2c([nH]c(=O)[nH]c2=O)O1

>  <score_type>  (20) 
oracle

>  <origin>  (20) 
adg

>  <m_score__min__energy>  (20) 
-8.4299999999999997

>  <m_primary>  (20) 
energy

$$$$
20:0
     RDKit          3D

 38 40  0  0  0  0  0  0  0  0999 V2000
   55.9740   29.3390   45.1570 O   0  0  0  0  0  0  0  0  0  0  0  0
   56.7920   30.2220   44.7840 C   0  0  0  0  0  0  0  0  0  0  0  0
   58.1410   29.8180   44.2810 C   0  0  0  0  0  0  0  0  0  0  0  0
   58.8770   29.0680   45.3030 N   0  0  0  0  0  0  0  0  0  0  0  0
   59.1840   27.6820   45.0980 C   0  0  0  0  0  0  0  0  0  0  0  0
   58.4150   26.9740   44.3930 O   0  0  0  0  0  0  0  0  0  0  0  0
   60.3760   27.0520   45.7590 C   0  0  0  0  0  0  0  0  0  0  0  0
   60.0670   26.5340   47.1670 C   0  0  0  0  0  0  0  0  0  0  0  0
   58.6480   27.4330   47.8850 S   0  0  0  0  0  0  0  0  0  0  0  0
   59.4040   29.0520   47.7090 C   0  0  0  0  0  0  0  0  0  0  0  0
   60.0010   29.6540   48.8240 C   0  0  0  0  0  0  0  0  0  0  0  0
   60.5610   30.9300   48.7190 C   0  0  0  0  0  0  0  0  0  0  0  0
   60.5360   31.6050   47.4960 C   0  0  0  0  0  0  0  0  0  0  0  0
   59.9570   31.0030   46.3760 C   0  0  0  0  0  0  0  0  0  0  0  0
   59.3860   29.7240   46.4750 C   0  0  0  0  0  0  0  0  0  0  0  0
   56.4570   31.6130   44.8680 N   0  0  0  0  0  0  0  0  0  0  0  0
   57.3320   32.6700   45.2860 C   0  0  0  0  0  0  0  0  0  0  0  0
   58.2140   33.3050   44.3920 C   0  0  0  0  0  0  0  0  0  0  0  0
   59.0730   34.3120   44.8460 C   0  0  0  0  0  0  0  0  0  0  0  0
   59.0690   34.6850   46.1960 C   0  0  0  0  0  0  0  0  0  0  0  0
   59.9180   35.6870   46.6590 O   0  0  0  0  0  0  0  0  0  0  0  0
   58.2080   34.0400   47.0910 C   0  0  0  0  0  0  0  0  0  0  0  0
   57.3510   33.0330   46.6400 C   0  0  0  0  0  0  0  0  0  0  0  0
   58.0184   29.1861   43.3890 H   0  0  0  0  0  0  0  0  0  0  0  0
   58.7102   30.7261   44.0332 H   0  0  0  0  0  0  0  0  0  0  0  0
   60.7162   26.2083   45.1406 H   0  0  0  0  0  0  0  0  0  0  0  0
   61.1514   27.8266   45.8530 H   0  0  0  0  0  0  0  0  0  0  0  0
   59.8262   25.4620   47.1132 H   0  0  0  0  0  0  0  0  0  0  0  0
   60.9484   26.6941   47.8054 H   0  0  0  0  0  0  0  0  0  0  0  0
   60.0291   29.1205   49.7856 H   0  0  0  0  0  0  0  0  0  0  0  0
   61.0214   31.4029   49.5990 H   0  0  0  0  0  0  0  0  0  0  0  0
   60.9726   32.6114   47.4148 H   0  0  0  0  0  0  0  0  0  0  0  0
   59.9484   31.5334   45.4123 H   0  0  0  0  0  0  0  0  0  0  0  0
   58.2282   33.0088   43.3327 H   0  0  0  0  0  0  0  0  0  0  0  0
   59.7532   34.8120   44.1408 H   0  0  0  0  0  0  0  0  0  0  0  0
   59.5570   36.5190   47.1110 H   0  0  0  0  0  0  0  0  0  0  0  0
   58.2060   34.3268   48.1530 H   0  0  0  0  0  0  0  0  0  0  0  0
   56.6867   32.5215   47.3521 H   0  0  0  0  0  0  0  0  0  0  0  0
  1  2  2  0
  2  3  1  0
  3  4  1  0
  4  5  1  0
  5  6  2  0
  5  7  1  0
  7  8  1  0
  8  9  1  0
  9 10  1  0
 10 11  2  0
 11 12  1  0
 12 13  2  0
 13 14  1  0
 14 15  2  0
  2 16  1  0
 16 17  1  0
 17 18  2  0
 18 19  1  0
 19 20  2  0
 20 21  1  0
 20 22  1  0
 22 23  2  0
 15  4  1  0
 23 17  1  0
 15 10  1  0
  3 24  1  0
  3 25  1  0
  7 26  1  0
  7 27  1  0
  8 28  1  0
  8 29  1  0
 11 30  1  0
 12 31  1  0
 13 32  1  0
 14 33  1  0
 18 34  1  0
 19 35  1  0
 21 36  1  0
 22 37  1  0
 23 38  1  0
M  CHG  1  16  -1
M  END
>  <UniqueID>  (21) 
20

>  <SMILES>  (21) 
O=C(CN1C(=O)CCSc2ccccc21)[N-]c1ccc(O)cc1

>  <Energy>  (21) 
53.52757776901048

>  <Genealogy>  (21) 
O=C(CN1C(=O)CCSc2ccccc21)[N-]c1ccc(O)cc1 (protonated)
O=C(CN1C(=O)CCSc2ccccc21)[N-]c1ccc(O)cc1 (3D coordinates assigned)
O=C(CN1C(=O)CCSc2ccccc21)[N-]c1ccc(O)cc1 (nonaromatic ring conformer: 53.52757776901048 kcal/mol)

>  <smiles>  (21) 
O=C(CN1C(=O)CCSc2ccccc21)Nc1ccc(O)cc1

>  <score_type>  (21) 
oracle

>  <origin>  (21) 
adg

>  <m_score__min__energy>  (21) 
-7.2999999999999998

>  <m_primary>  (21) 
energy

$$$$
21:0
     RDKit          3D

 46 49  0  0  0  0  0  0  0  0999 V2000
   59.3340   34.5130   48.5250 C   0  0  0  0  0  0  0  0  0  0  0  0
   59.4230   33.1760   47.8490 C   0  0  0  0  0  0  0  0  0  0  0  0
   59.9470   32.1940   48.5250 N   0  0  0  0  0  0  0  0  0  0  0  0
   59.9810   30.8760   47.9870 C   0  0  0  0  0  0  0  0  0  0  0  0
   60.4300   29.7870   48.6350 N   0  0  0  0  0  0  0  0  0  0  0  0
   60.3010   28.8470   47.6670 C   0  0  0  0  0  0  0  0  0  0  0  0
   60.7010   27.1210   47.9180 S   0  0  0  0  0  0  0  0  0  0  0  0
   60.3160   26.6260   46.2010 C   0  0  0  0  0  0  0  0  0  0  0  0
   58.8980   26.1370   46.0790 C   0  0  0  0  0  0  0  0  0  0  0  0
   57.8250   27.0440   46.1330 C   0  0  0  0  0  0  0  0  0  0  0  0
   56.5080   26.5830   46.0540 C   0  0  0  0  0  0  0  0  0  0  0  0
   56.2530   25.2150   45.9170 C   0  0  0  0  0  0  0  0  0  0  0  0
   57.3140   24.3070   45.8640 C   0  0  0  0  0  0  0  0  0  0  0  0
   58.6330   24.7640   45.9480 C   0  0  0  0  0  0  0  0  0  0  0  0
   59.8220   29.3360   46.5020 N   0  0  0  0  0  0  0  0  0  0  0  0
   59.5970   30.6130   46.7420 N   0  0  0  0  0  0  0  0  0  0  0  0
   59.2240   31.6400   45.7730 C   0  0  1  0  0  0  0  0  0  0  0  0
   58.1740   31.1150   44.8140 C   0  0  0  0  0  0  0  0  0  0  0  0
   58.1800   31.5200   43.4680 C   0  0  0  0  0  0  0  0  0  0  0  0
   57.1950   31.0620   42.5880 C   0  0  0  0  0  0  0  0  0  0  0  0
   56.1930   30.2010   43.0430 C   0  0  0  0  0  0  0  0  0  0  0  0
   56.1680   29.8030   44.3830 C   0  0  0  0  0  0  0  0  0  0  0  0
   55.1680   28.9520   44.8360 O   0  0  0  0  0  0  0  0  0  0  0  0
   57.1510   30.2600   45.2670 C   0  0  0  0  0  0  0  0  0  0  0  0
   58.7130   32.9210   46.5090 C   0  0  2  0  0  0  0  0  0  0  0  0
   58.8290   34.1080   45.5800 C   0  0  0  0  0  0  0  0  0  0  0  0
   57.6830   34.5900   44.8790 N   0  0  0  0  0  0  0  0  0  0  0  0
   59.9490   34.6540   45.3910 O   0  0  0  0  0  0  0  0  0  0  0  0
   59.3433   34.3735   49.6161 H   0  0  0  0  0  0  0  0  0  0  0  0
   60.1929   35.1323   48.2272 H   0  0  0  0  0  0  0  0  0  0  0  0
   58.4006   35.0130   48.2272 H   0  0  0  0  0  0  0  0  0  0  0  0
   60.4545   27.4930   45.5383 H   0  0  0  0  0  0  0  0  0  0  0  0
   60.9921   25.8066   45.9155 H   0  0  0  0  0  0  0  0  0  0  0  0
   58.0229   28.1210   46.2379 H   0  0  0  0  0  0  0  0  0  0  0  0
   55.6719   27.2964   46.0996 H   0  0  0  0  0  0  0  0  0  0  0  0
   55.2163   24.8532   45.8509 H   0  0  0  0  0  0  0  0  0  0  0  0
   57.1113   23.2312   45.7560 H   0  0  0  0  0  0  0  0  0  0  0  0
   59.4655   24.0459   45.9114 H   0  0  0  0  0  0  0  0  0  0  0  0
   60.1157   31.9085   45.1876 H   0  0  0  0  0  0  0  0  0  0  0  0
   58.9640   32.2010   43.1051 H   0  0  0  0  0  0  0  0  0  0  0  0
   57.2088   31.3801   41.5351 H   0  0  0  0  0  0  0  0  0  0  0  0
   55.4236   29.8362   42.3467 H   0  0  0  0  0  0  0  0  0  0  0  0
   57.1247   29.9497   46.3220 H   0  0  0  0  0  0  0  0  0  0  0  0
   57.6566   32.7604   46.7702 H   0  0  0  0  0  0  0  0  0  0  0  0
   56.7510   34.1340   44.9990 H   0  0  0  0  0  0  0  0  0  0  0  0
   57.7680   35.4020   44.2290 H   0  0  0  0  0  0  0  0  0  0  0  0
  1  2  1  0
  2  3  2  0
  3  4  1  0
  4  5  2  0
  5  6  1  0
  6  7  1  0
  7  8  1  0
  8  9  1  0
  9 10  2  0
 10 11  1  0
 11 12  2  0
 12 13  1  0
 13 14  2  0
  6 15  2  0
 15 16  1  0
 16 17  1  0
 17 18  1  0
 18 19  2  0
 19 20  1  0
 20 21  2  0
 21 22  1  0
 22 23  1  0
 22 24  2  0
 17 25  1  0
 25 26  1  0
 26 27  1  0
 26 28  2  0
 25  2  1  0
 16  4  1  0
 24 18  1  0
 14  9  1  0
  1 29  1  0
  1 30  1  0
  1 31  1  0
  8 32  1  0
  8 33  1  0
 10 34  1  0
 11 35  1  0
 12 36  1  0
 13 37  1  0
 14 38  1  0
 17 39  1  6
 19 40  1  0
 20 41  1  0
 21 42  1  0
 24 43  1  0
 25 44  1  1
 27 45  1  0
 27 46  1  0
M  CHG  1  23  -1
M  END
>  <UniqueID>  (22) 
21

>  <SMILES>  (22) 
CC1=Nc2nc(SCc3ccccc3)nn2[C@@H](c2cccc([O-])c2)[C@@H]1C(N)=O

>  <Energy>  (22) 
80.47054347265355

>  <Genealogy>  (22) 
CC1=Nc2nc(SCc3ccccc3)nn2C(c2cccc([O-])c2)C1C(N)=O (protonated)
CC1=Nc2nc(SCc3ccccc3)nn2[C@@H](c2cccc([O-])c2)[C@@H]1C(N)=O (chirality)
CC1=Nc2nc(SCc3ccccc3)nn2[C@@H](c2cccc([O-])c2)[C@@H]1C(N)=O (3D coordinates assigned)
CC1=Nc2nc(SCc3ccccc3)nn2[C@@H](c2cccc([O-])c2)[C@@H]1C(N)=O (nonaromatic ring conformer: 80.47054347265355 kcal/mol)

>  <smiles>  (22) 
CC1=Nc2nc(SCc3ccccc3)nn2C(c2cccc(O)c2)C1C(N)=O

>  <score_type>  (22) 
oracle

>  <origin>  (22) 
adg

>  <m_score__min__energy>  (22) 
-12.130000000000001

>  <m_primary>  (22) 
energy

$$$$
22:0
     RDKit          3D

 74 77  0  0  0  0  0  0  0  0999 V2000
   57.4176   29.0329   42.9048 H   0  0  0  0  0  0  0  0  0  0  0  0
   57.3900   29.5390   43.8810 C   0  0  0  0  0  0  0  0  0  0  0  0
   56.3590   29.0850   44.8350 C   0  0  0  0  0  0  0  0  0  0  0  0
   55.1530   29.3790   44.6070 O   0  0  0  0  0  0  0  0  0  0  0  0
   56.6650   28.2780   45.9730 N   0  0  0  0  0  0  0  0  0  0  0  0
   57.0610   26.5950   45.8700 S   0  0  0  0  0  0  0  0  0  0  0  0
   55.9110   25.7660   46.3720 O   0  0  0  0  0  0  0  0  0  0  0  0
   57.3690   26.2190   44.4490 O   0  0  0  0  0  0  0  0  0  0  0  0
   58.4920   26.2940   46.8940 C   0  0  0  0  0  0  0  0  0  0  0  0
   59.1254   25.5303   46.4191 H   0  0  0  0  0  0  0  0  0  0  0  0
   58.1607   25.9427   47.8824 H   0  0  0  0  0  0  0  0  0  0  0  0
   59.2820   27.5620   47.0610 C   0  0  0  0  0  0  0  0  0  0  0  0
   60.0410   28.0660   45.9900 C   0  0  0  0  0  0  0  0  0  0  0  0
   60.0882   27.5100   45.0420 H   0  0  0  0  0  0  0  0  0  0  0  0
   60.7350   29.2700   46.1260 C   0  0  0  0  0  0  0  0  0  0  0  0
   61.3364   29.6546   45.2891 H   0  0  0  0  0  0  0  0  0  0  0  0
   60.6670   29.9870   47.3230 C   0  0  0  0  0  0  0  0  0  0  0  0
   61.2270   30.9280   47.4276 H   0  0  0  0  0  0  0  0  0  0  0  0
   59.8920   29.5180   48.3910 C   0  0  0  0  0  0  0  0  0  0  0  0
   59.8510   30.2840   49.5660 O   0  0  0  0  0  0  0  0  0  0  0  0
   58.7550   30.4110   50.4300 C   0  0  0  0  0  0  0  0  0  0  0  0
   58.1670   29.3940   50.8860 O   0  0  0  0  0  0  0  0  0  0  0  0
   58.2700   31.7180   50.7430 N   0  0  0  0  0  0  0  0  0  0  0  0
   58.7550   32.5490   50.3340 H   0  0  0  0  0  0  0  0  0  0  0  0
   57.1240   31.9310   51.6170 C   0  0  0  0  0  0  0  0  0  0  0  0
   57.4473   31.8709   52.6667 H   0  0  0  0  0  0  0  0  0  0  0  0
   56.6939   32.9245   51.4221 H   0  0  0  0  0  0  0  0  0  0  0  0
   56.3656   31.1584   51.4221 H   0  0  0  0  0  0  0  0  0  0  0  0
   59.2080   28.2930   48.2590 C   0  0  0  0  0  0  0  0  0  0  0  0
   58.6123   27.9065   49.0991 H   0  0  0  0  0  0  0  0  0  0  0  0
   58.2990   30.5090   44.0850 C   0  0  0  0  0  0  0  0  0  0  0  0
   59.2870   30.3594   43.6252 H   0  0  0  0  0  0  0  0  0  0  0  0
   58.1140   31.7610   44.8640 C   0  0  0  0  0  0  0  0  0  0  0  0
   57.5980   32.8880   44.2050 C   0  0  0  0  0  0  0  0  0  0  0  0
   57.3229   32.8202   43.1421 H   0  0  0  0  0  0  0  0  0  0  0  0
   57.4310   34.0960   44.8890 C   0  0  0  0  0  0  0  0  0  0  0  0
   57.0154   34.9696   44.3654 H   0  0  0  0  0  0  0  0  0  0  0  0
   57.7900   34.1970   46.2340 C   0  0  0  0  0  0  0  0  0  0  0  0
   57.6676   35.1529   46.7643 H   0  0  0  0  0  0  0  0  0  0  0  0
   58.3080   33.0790   46.9130 C   0  0  0  0  0  0  0  0  0  0  0  0
   58.7690   33.1430   48.2350 O   0  0  0  0  0  0  0  0  0  0  0  0
   59.6680   34.1280   48.7430 C   0  0  0  0  0  0  0  0  0  0  0  0
   59.3565   35.1257   48.4000 H   0  0  0  0  0  0  0  0  0  0  0  0
   59.6613   34.1103   49.8428 H   0  0  0  0  0  0  0  0  0  0  0  0
   61.0520   33.8260   48.2330 C   0  0  0  0  0  0  0  0  0  0  0  0
   61.3510   33.9380   46.8650 C   0  0  0  0  0  0  0  0  0  0  0  0
   60.5827   34.2952   46.1635 H   0  0  0  0  0  0  0  0  0  0  0  0
   62.6220   33.5970   46.3920 C   0  0  0  0  0  0  0  0  0  0  0  0
   62.8558   33.7015   45.3222 H   0  0  0  0  0  0  0  0  0  0  0  0
   63.5950   33.1240   47.2750 C   0  0  0  0  0  0  0  0  0  0  0  0
   64.5917   32.8521   46.8973 H   0  0  0  0  0  0  0  0  0  0  0  0
   63.3060   32.9940   48.6440 C   0  0  0  0  0  0  0  0  0  0  0  0
   64.3220   32.4490   49.5690 C   0  0  0  0  0  0  0  0  0  0  0  0
   65.5390   32.7250   49.3730 O   0  0  0  0  0  0  0  0  0  0  0  0
   63.9510   31.5840   50.6650 N   0  0  0  0  0  0  0  0  0  0  0  0
   62.8450   30.6210   50.5000 C   0  0  0  0  0  0  0  0  0  0  0  0
   61.8891   31.1499   50.6287 H   0  0  0  0  0  0  0  0  0  0  0  0
   62.9190   30.1816   49.4943 H   0  0  0  0  0  0  0  0  0  0  0  0
   62.9270   29.4830   51.5280 C   0  0  0  0  0  0  0  0  0  0  0  0
   62.6043   29.8580   52.5105 H   0  0  0  0  0  0  0  0  0  0  0  0
   62.2719   28.6610   51.2035 H   0  0  0  0  0  0  0  0  0  0  0  0
   64.3680   28.9600   51.6340 C   0  0  0  0  0  0  0  0  0  0  0  0
   64.4057   28.1948   52.4234 H   0  0  0  0  0  0  0  0  0  0  0  0
   64.6418   28.5505   50.6505 H   0  0  0  0  0  0  0  0  0  0  0  0
   65.3930   30.0700   51.9740 C   0  0  0  0  0  0  0  0  0  0  0  0
   65.7396   29.9218   53.0074 H   0  0  0  0  0  0  0  0  0  0  0  0
   66.2156   29.9902   51.2481 H   0  0  0  0  0  0  0  0  0  0  0  0
   64.8100   31.4880   51.8520 C   0  0  0  0  0  0  0  0  0  0  0  0
   64.2158   31.7148   52.7495 H   0  0  0  0  0  0  0  0  0  0  0  0
   65.6360   32.2081   51.7558 H   0  0  0  0  0  0  0  0  0  0  0  0
   62.0460   33.3880   49.1230 C   0  0  0  0  0  0  0  0  0  0  0  0
   61.8364   33.3533   50.2023 H   0  0  0  0  0  0  0  0  0  0  0  0
   58.3940   31.8510   46.2410 C   0  0  0  0  0  0  0  0  0  0  0  0
   58.6838   30.9469   46.7966 H   0  0  0  0  0  0  0  0  0  0  0  0
  1  2  1  0
  2  3  1  0
  3  4  2  0
  3  5  1  0
  5  6  1  0
  6  7  2  0
  6  8  2  0
  6  9  1  0
  9 10  1  0
  9 11  1  0
  9 12  1  0
 12 13  2  0
 13 14  1  0
 13 15  1  0
 15 16  1  0
 15 17  2  0
 17 18  1  0
 17 19  1  0
 19 20  1  0
 20 21  1  0
 21 22  2  0
 21 23  1  0
 23 24  1  0
 23 25  1  0
 25 26  1  0
 25 27  1  0
 25 28  1  0
 19 29  2  0
 29 30  1  0
  2 31  2  0
 31 32  1  0
 31 33  1  0
 33 34  2  0
 34 35  1  0
 34 36  1  0
 36 37  1  0
 36 38  2  0
 38 39  1  0
 38 40  1  0
 40 41  1  0
 41 42  1  0
 42 43  1  0
 42 44  1  0
 42 45  1  0
 45 46  2  0
 46 47  1  0
 46 48  1  0
 48 49  1  0
 48 50  2  0
 50 51  1  0
 50 52  1  0
 52 53  1  0
 53 54  2  0
 53 55  1  0
 55 56  1  0
 56 57  1  0
 56 58  1  0
 56 59  1  0
 59 60  1  0
 59 61  1  0
 59 62  1  0
 62 63  1  0
 62 64  1  0
 62 65  1  0
 65 66  1  0
 65 67  1  0
 65 68  1  0
 68 69  1  0
 68 70  1  0
 52 71  2  0
 71 72  1  0
 40 73  2  0
 73 74  1  0
 29 12  1  0
 73 33  1  0
 71 45  1  0
 68 55  1  0
M  CHG  1   5  -1
M  END
>  <UniqueID>  (23) 
22

>  <SMILES>  (23) 
CNC(=O)Oc1cccc(CS(=O)(=O)[N-]C(=O)/C=C\c2cccc(OCc3cccc(C(=O)N4CCCCC4)c3)c2)c1

>  <Energy>  (23) 
94.48371468924364

>  <Genealogy>  (23) 
CNC(=O)Oc1cccc(CS(=O)(=O)[N-]C(=O)C=Cc2cccc(OCc3cccc(C(=O)N4CCCCC4)c3)c2)c1 (protonated)
CNC(=O)Oc1cccc(CS(=O)(=O)[N-]C(=O)/C=C\c2cccc(OCc3cccc(C(=O)N4CCCCC4)c3)c2)c1 (cis-trans isomerization)
CNC(=O)Oc1cccc(CS(=O)(=O)[N-]C(=O)/C=C\c2cccc(OCc3cccc(C(=O)N4CCCCC4)c3)c2)c1 (3D coordinates assigned)
CNC(=O)Oc1cccc(CS(=O)(=O)[N-]C(=O)/C=C\c2cccc(OCc3cccc(C(=O)N4CCCCC4)c3)c2)c1 (nonaromatic ring conformer: 94.48371468924364 kcal/mol)

>  <smiles>  (23) 
CNC(=O)Oc1cccc(CS(=O)(=O)NC(=O)C=Cc2cccc(OCc3cccc(C(=O)N4CCCCC4)c3)c2)c1

>  <score_type>  (23) 
oracle

>  <origin>  (23) 
adg

>  <m_score__min__energy>  (23) 
-12.69

>  <m_primary>  (23) 
energy

$$$$
23:0
     RDKit          3D

 57 60  0  0  0  0  0  0  0  0999 V2000
   60.7890   27.8000   50.1890 C   0  0  0  0  0  0  0  0  0  0  0  0
   60.8410   28.8850   49.2120 N   0  0  0  0  0  0  0  0  0  0  0  0
   61.4090   30.1100   49.3470 C   0  0  0  0  0  0  0  0  0  0  0  0
   62.0420   30.4760   50.3750 O   0  0  0  0  0  0  0  0  0  0  0  0
   61.2060   30.9070   48.2680 N   0  0  0  0  0  0  0  0  0  0  0  0
   61.6140   32.3000   48.0860 C   0  0  0  0  0  0  0  0  0  0  0  0
   60.4610   30.1500   47.4360 C   0  0  0  0  0  0  0  0  0  0  0  0
   59.9080   30.4990   46.2060 C   0  0  0  0  0  0  0  0  0  0  0  0
   59.0910   29.5490   45.5420 C   0  0  0  0  0  0  0  0  0  0  0  0
   58.4780   29.8610   44.2740 N   0  0  0  0  0  0  0  0  0  0  0  0
   57.4130   31.2100   44.0280 S   0  0  0  0  0  0  0  0  0  0  0  0
   57.3450   31.5220   42.5610 O   0  0  0  0  0  0  0  0  0  0  0  0
   56.0370   30.8510   44.5110 O   0  0  0  0  0  0  0  0  0  0  0  0
   57.9910   32.6020   44.9440 C   0  0  0  0  0  0  0  0  0  0  0  0
   58.7550   33.5880   44.3020 C   0  0  0  0  0  0  0  0  0  0  0  0
   59.2180   34.6950   45.0190 C   0  0  0  0  0  0  0  0  0  0  0  0
   58.9200   34.8160   46.3810 C   0  0  0  0  0  0  0  0  0  0  0  0
   58.1560   33.8380   47.0240 C   0  0  0  0  0  0  0  0  0  0  0  0
   57.6920   32.7320   46.3090 C   0  0  0  0  0  0  0  0  0  0  0  0
   58.8840   28.2640   46.1310 C   0  0  0  0  0  0  0  0  0  0  0  0
   58.0140   27.3240   45.4850 N   0  0  0  0  0  0  0  0  0  0  0  0
   56.5870   27.2940   45.6010 C   0  0  0  0  0  0  0  0  0  0  0  0
   55.8980   28.2870   45.2400 O   0  0  0  0  0  0  0  0  0  0  0  0
   55.9300   26.1200   46.2510 C   0  0  0  0  0  0  0  0  0  0  0  0
   54.6120   25.9000   45.6590 N   0  0  0  0  0  0  0  0  0  0  0  0
   54.2350   24.2060   45.6450 S   0  0  0  0  0  0  0  0  0  0  0  0
   54.1210   23.6940   47.0500 O   0  0  0  0  0  0  0  0  0  0  0  0
   52.9230   23.9930   44.9470 O   0  0  0  0  0  0  0  0  0  0  0  0
   55.4980   23.3460   44.7740 C   0  0  0  0  0  0  0  0  0  0  0  0
   55.4900   23.3370   43.3750 C   0  0  0  0  0  0  0  0  0  0  0  0
   56.5040   22.6840   42.6710 C   0  0  0  0  0  0  0  0  0  0  0  0
   57.5320   22.0400   43.3610 C   0  0  0  0  0  0  0  0  0  0  0  0
   57.5490   22.0520   44.7560 C   0  0  0  0  0  0  0  0  0  0  0  0
   56.5360   22.7050   45.4630 C   0  0  0  0  0  0  0  0  0  0  0  0
   59.4580   27.9590   47.3870 C   0  0  0  0  0  0  0  0  0  0  0  0
   60.2410   28.9290   48.0050 C   0  0  0  0  0  0  0  0  0  0  0  0
   60.8092   28.2204   51.2053 H   0  0  0  0  0  0  0  0  0  0  0  0
   59.8622   27.2243   50.0487 H   0  0  0  0  0  0  0  0  0  0  0  0
   61.6565   27.1383   50.0487 H   0  0  0  0  0  0  0  0  0  0  0  0
   61.7525   32.7730   49.0694 H   0  0  0  0  0  0  0  0  0  0  0  0
   62.5601   32.3348   47.5259 H   0  0  0  0  0  0  0  0  0  0  0  0
   60.8362   32.8397   47.5259 H   0  0  0  0  0  0  0  0  0  0  0  0
   60.1002   31.4865   45.7611 H   0  0  0  0  0  0  0  0  0  0  0  0
   58.6090   29.2190   43.4610 H   0  0  0  0  0  0  0  0  0  0  0  0
   58.9902   33.4898   43.2319 H   0  0  0  0  0  0  0  0  0  0  0  0
   59.8149   35.4688   44.5141 H   0  0  0  0  0  0  0  0  0  0  0  0
   59.2884   35.6839   46.9476 H   0  0  0  0  0  0  0  0  0  0  0  0
   57.9202   33.9396   48.0936 H   0  0  0  0  0  0  0  0  0  0  0  0
   57.0917   31.9621   46.8160 H   0  0  0  0  0  0  0  0  0  0  0  0
   56.5515   25.2247   46.1017 H   0  0  0  0  0  0  0  0  0  0  0  0
   55.8165   26.3170   47.3272 H   0  0  0  0  0  0  0  0  0  0  0  0
   54.6826   23.8458   42.8279 H   0  0  0  0  0  0  0  0  0  0  0  0
   56.4924   22.6772   41.5711 H   0  0  0  0  0  0  0  0  0  0  0  0
   58.3284   21.5233   42.8053 H   0  0  0  0  0  0  0  0  0  0  0  0
   58.3608   21.5468   45.2999 H   0  0  0  0  0  0  0  0  0  0  0  0
   56.5535   22.7158   46.5628 H   0  0  0  0  0  0  0  0  0  0  0  0
   59.2900   26.9814   47.8625 H   0  0  0  0  0  0  0  0  0  0  0  0
  1  2  1  0
  2  3  1  0
  3  4  2  0
  3  5  1  0
  5  6  1  0
  5  7  1  0
  7  8  2  0
  8  9  1  0
  9 10  1  0
 10 11  1  0
 11 12  2  0
 11 13  2  0
 11 14  1  0
 14 15  2  0
 15 16  1  0
 16 17  2  0
 17 18  1  0
 18 19  2  0
  9 20  2  0
 20 21  1  0
 21 22  1  0
 22 23  2  0
 22 24  1  0
 24 25  1  0
 25 26  1  0
 26 27  2  0
 26 28  2  0
 26 29  1  0
 29 30  2  0
 30 31  1  0
 31 32  2  0
 32 33  1  0
 33 34  2  0
 20 35  1  0
 35 36  2  0
 36  2  1  0
 36  7  1  0
 19 14  1  0
 34 29  1  0
  1 37  1  0
  1 38  1  0
  1 39  1  0
  6 40  1  0
  6 41  1  0
  6 42  1  0
  8 43  1  0
 10 44  1  0
 15 45  1  0
 16 46  1  0
 17 47  1  0
 18 48  1  0
 19 49  1  0
 24 50  1  0
 24 51  1  0
 30 52  1  0
 31 53  1  0
 32 54  1  0
 33 55  1  0
 34 56  1  0
 35 57  1  0
M  CHG  2  21  -1  25  -1
M  END
>  <UniqueID>  (24) 
23

>  <SMILES>  (24) 
Cn1c(=O)n(C)c2cc(NS(=O)(=O)c3ccccc3)c([N-]C(=O)C[N-]S(=O)(=O)c3ccccc3)cc21

>  <Energy>  (24) 
106.40334108962426

>  <Genealogy>  (24) 
Cn1c(=O)n(C)c2cc(NS(=O)(=O)c3ccccc3)c([N-]C(=O)C[N-]S(=O)(=O)c3ccccc3)cc21 (protonated)
Cn1c(=O)n(C)c2cc(NS(=O)(=O)c3ccccc3)c([N-]C(=O)C[N-]S(=O)(=O)c3ccccc3)cc21 (3D coordinates assigned)
Cn1c(=O)n(C)c2cc(NS(=O)(=O)c3ccccc3)c([N-]C(=O)C[N-]S(=O)(=O)c3ccccc3)cc21 (optimized conformer: 106.40334108962426 kcal/mol)

>  <smiles>  (24) 
Cn1c(=O)n(C)c2cc(NS(=O)(=O)c3ccccc3)c(NC(=O)CNS(=O)(=O)c3ccccc3)cc21

>  <score_type>  (24) 
oracle

>  <origin>  (24) 
adg

>  <m_score__min__energy>  (24) 
-14.42

>  <m_primary>  (24) 
energy

$$$$
24:0
     RDKit          3D

 50 53  0  0  0  0  0  0  0  0999 V2000
   57.2930   27.6210   47.1030 O   0  0  0  0  0  0  0  0  0  0  0  0
   57.9640   28.5200   46.1030 S   0  0  0  0  0  0  0  0  0  0  0  0
   58.4810   27.6700   44.9770 O   0  0  0  0  0  0  0  0  0  0  0  0
   56.8090   29.6670   45.5010 N   0  0  0  0  0  0  0  0  0  0  0  0
   57.1370   30.6750   44.5270 C   0  0  0  0  0  0  0  0  0  0  0  0
   57.0570   30.4010   43.1480 C   0  0  0  0  0  0  0  0  0  0  0  0
   57.3500   31.3900   42.2090 C   0  0  0  0  0  0  0  0  0  0  0  0
   57.7270   32.6640   42.6300 C   0  0  0  0  0  0  0  0  0  0  0  0
   57.8100   32.9530   43.9930 C   0  0  0  0  0  0  0  0  0  0  0  0
   57.5050   31.9680   44.9520 C   0  0  0  0  0  0  0  0  0  0  0  0
   57.6210   32.2330   46.3270 O   0  0  0  0  0  0  0  0  0  0  0  0
   58.6930   32.8990   46.9360 C   0  0  0  0  0  0  0  0  0  0  0  0
   59.7500   33.3480   46.1340 C   0  0  0  0  0  0  0  0  0  0  0  0
   60.8400   34.0080   46.7090 C   0  0  0  0  0  0  0  0  0  0  0  0
   60.8900   34.2090   48.0910 C   0  0  0  0  0  0  0  0  0  0  0  0
   59.8500   33.7470   48.9010 C   0  0  0  0  0  0  0  0  0  0  0  0
   58.7570   33.0890   48.3290 C   0  0  0  0  0  0  0  0  0  0  0  0
   59.2780   29.3760   46.9040 C   0  0  0  0  0  0  0  0  0  0  0  0
   59.3260   29.4870   48.2960 C   0  0  0  0  0  0  0  0  0  0  0  0
   60.4000   30.1370   48.9090 C   0  0  0  0  0  0  0  0  0  0  0  0
   61.4290   30.6850   48.1180 C   0  0  0  0  0  0  0  0  0  0  0  0
   62.5690   31.3600   48.7050 N   0  0  0  0  0  0  0  0  0  0  0  0
   62.9660   31.0910   50.0980 C   0  0  0  0  0  0  0  0  0  0  0  0
   63.8870   32.1850   50.6450 C   0  0  0  0  0  0  0  0  0  0  0  0
   64.9230   32.4790   49.7330 O   0  0  0  0  0  0  0  0  0  0  0  0
   64.3660   33.0670   48.5770 C   0  0  0  0  0  0  0  0  0  0  0  0
   63.5120   32.0540   47.8110 C   0  0  0  0  0  0  0  0  0  0  0  0
   61.3510   30.5530   46.7640 N   0  0  0  0  0  0  0  0  0  0  0  0
   60.3180   29.9210   46.1470 C   0  0  0  0  0  0  0  0  0  0  0  0
   55.8930   29.7170   45.9990 H   0  0  0  0  0  0  0  0  0  0  0  0
   56.7607   29.3977   42.8081 H   0  0  0  0  0  0  0  0  0  0  0  0
   57.2834   31.1641   41.1345 H   0  0  0  0  0  0  0  0  0  0  0  0
   57.9592   33.4420   41.8879 H   0  0  0  0  0  0  0  0  0  0  0  0
   58.1159   33.9576   44.3205 H   0  0  0  0  0  0  0  0  0  0  0  0
   59.7223   33.1806   45.0472 H   0  0  0  0  0  0  0  0  0  0  0  0
   61.6604   34.3700   46.0720 H   0  0  0  0  0  0  0  0  0  0  0  0
   61.7477   34.7307   48.5406 H   0  0  0  0  0  0  0  0  0  0  0  0
   59.8909   33.9009   49.9894 H   0  0  0  0  0  0  0  0  0  0  0  0
   57.9438   32.7183   48.9703 H   0  0  0  0  0  0  0  0  0  0  0  0
   58.5177   29.0624   48.9095 H   0  0  0  0  0  0  0  0  0  0  0  0
   60.4421   30.2206   50.0050 H   0  0  0  0  0  0  0  0  0  0  0  0
   62.0622   31.0403   50.7229 H   0  0  0  0  0  0  0  0  0  0  0  0
   63.5144   30.1377   50.1206 H   0  0  0  0  0  0  0  0  0  0  0  0
   63.2965   33.0957   50.8239 H   0  0  0  0  0  0  0  0  0  0  0  0
   64.3375   31.8265   51.5823 H   0  0  0  0  0  0  0  0  0  0  0  0
   63.7364   33.9190   48.8731 H   0  0  0  0  0  0  0  0  0  0  0  0
   65.1839   33.4049   47.9237 H   0  0  0  0  0  0  0  0  0  0  0  0
   62.9432   32.5823   47.0316 H   0  0  0  0  0  0  0  0  0  0  0  0
   64.1818   31.3039   47.3652 H   0  0  0  0  0  0  0  0  0  0  0  0
   60.3008   29.8385   45.0502 H   0  0  0  0  0  0  0  0  0  0  0  0
  1  2  2  0
  2  3  2  0
  2  4  1  0
  4  5  1  0
  5  6  2  0
  6  7  1  0
  7  8  2  0
  8  9  1  0
  9 10  2  0
 10 11  1  0
 11 12  1  0
 12 13  2  0
 13 14  1  0
 14 15  2  0
 15 16  1  0
 16 17  2  0
  2 18  1  0
 18 19  2  0
 19 20  1  0
 20 21  2  0
 21 22  1  0
 22 23  1  0
 23 24  1  0
 24 25  1  0
 25 26  1  0
 26 27  1  0
 21 28  1  0
 28 29  2  0
 10  5  1  0
 17 12  1  0
 29 18  1  0
 27 22  1  0
  4 30  1  0
  6 31  1  0
  7 32  1  0
  8 33  1  0
  9 34  1  0
 13 35  1  0
 14 36  1  0
 15 37  1  0
 16 38  1  0
 17 39  1  0
 19 40  1  0
 20 41  1  0
 23 42  1  0
 23 43  1  0
 24 44  1  0
 24 45  1  0
 26 46  1  0
 26 47  1  0
 27 48  1  0
 27 49  1  0
 29 50  1  0
M  END
>  <UniqueID>  (25) 
24

>  <SMILES>  (25) 
O=S(=O)(Nc1ccccc1Oc1ccccc1)c1ccc(N2CCOCC2)nc1

>  <Energy>  (25) 
69.15572005328505

>  <Genealogy>  (25) 
O=S(=O)(Nc1ccccc1Oc1ccccc1)c1ccc(N2CCOCC2)nc1 (3D coordinates assigned)
O=S(=O)(Nc1ccccc1Oc1ccccc1)c1ccc(N2CCOCC2)nc1 (nonaromatic ring conformer: 69.15572005328505 kcal/mol)

>  <smiles>  (25) 
O=S(=O)(Nc1ccccc1Oc1ccccc1)c1ccc(N2CCOCC2)nc1

>  <score_type>  (25) 
oracle

>  <origin>  (25) 
adg

>  <m_score__min__energy>  (25) 
-8.4600000000000009

>  <m_primary>  (25) 
energy

$$$$
25:0
     RDKit          3D

 47 49  0  0  0  0  0  0  0  0999 V2000
   55.1870   26.7110   45.8870 N   0  0  0  0  0  0  0  0  0  0  0  0
   56.8520   27.1690   45.8740 S   0  0  0  0  0  0  0  0  0  0  0  0
   57.6450   26.1700   45.0790 O   0  0  0  0  0  0  0  0  0  0  0  0
   57.3740   27.1880   47.2830 O   0  0  0  0  0  0  0  0  0  0  0  0
   57.0150   28.7660   45.1480 C   0  0  0  0  0  0  0  0  0  0  0  0
   56.6980   28.9670   43.7990 C   0  0  0  0  0  0  0  0  0  0  0  0
   56.8200   30.2380   43.2330 C   0  0  0  0  0  0  0  0  0  0  0  0
   57.2770   31.3080   44.0050 C   0  0  0  0  0  0  0  0  0  0  0  0
   57.6380   31.1150   45.3470 C   0  0  0  0  0  0  0  0  0  0  0  0
   58.1080   32.2360   46.1170 N   0  0  0  0  0  0  0  0  0  0  0  0
   58.2770   33.5640   45.5940 C   0  0  0  0  0  0  0  0  0  0  0  0
   57.9340   33.8410   44.4120 O   0  0  0  0  0  0  0  0  0  0  0  0
   58.8220   34.6540   46.4670 C   0  0  0  0  0  0  0  0  0  0  0  0
   58.8560   34.2240   47.8620 N   0  0  0  0  0  0  0  0  0  0  0  0
   59.6160   33.1160   48.3570 C   0  0  0  0  0  0  0  0  0  0  0  0
   59.0650   32.2950   49.1350 O   0  0  0  0  0  0  0  0  0  0  0  0
   61.0330   32.9320   48.0020 C   0  0  0  0  0  0  0  0  0  0  0  0
   61.6900   33.9510   47.2960 C   0  0  0  0  0  0  0  0  0  0  0  0
   63.0200   33.7920   46.9000 C   0  0  0  0  0  0  0  0  0  0  0  0
   63.7020   32.6130   47.2000 C   0  0  0  0  0  0  0  0  0  0  0  0
   63.0580   31.5910   47.9010 C   0  0  0  0  0  0  0  0  0  0  0  0
   61.7290   31.7440   48.3180 C   0  0  0  0  0  0  0  0  0  0  0  0
   60.9270   30.3710   49.1650 S   0  0  0  0  0  0  0  0  0  0  0  0
   60.7050   29.4060   47.6670 C   0  0  0  0  0  0  0  0  0  0  0  0
   60.7670   30.0330   46.4150 C   0  0  0  0  0  0  0  0  0  0  0  0
   60.5910   29.2840   45.2470 C   0  0  0  0  0  0  0  0  0  0  0  0
   60.3400   27.9110   45.3260 C   0  0  0  0  0  0  0  0  0  0  0  0
   60.2560   27.2870   46.5750 C   0  0  0  0  0  0  0  0  0  0  0  0
   60.4330   28.0340   47.7440 C   0  0  0  0  0  0  0  0  0  0  0  0
   57.4800   29.8390   45.9200 C   0  0  0  0  0  0  0  0  0  0  0  0
   54.7710   27.0940   46.7660 H   0  0  0  0  0  0  0  0  0  0  0  0
   56.3525   28.1228   43.1842 H   0  0  0  0  0  0  0  0  0  0  0  0
   56.5556   30.3964   42.1771 H   0  0  0  0  0  0  0  0  0  0  0  0
   57.3546   32.3099   43.5576 H   0  0  0  0  0  0  0  0  0  0  0  0
   58.2110   32.1050   47.1490 H   0  0  0  0  0  0  0  0  0  0  0  0
   59.8423   34.9032   46.1402 H   0  0  0  0  0  0  0  0  0  0  0  0
   58.1703   35.5362   46.3828 H   0  0  0  0  0  0  0  0  0  0  0  0
   61.1545   34.8806   47.0529 H   0  0  0  0  0  0  0  0  0  0  0  0
   63.5300   34.5974   46.3511 H   0  0  0  0  0  0  0  0  0  0  0  0
   64.7482   32.4879   46.8842 H   0  0  0  0  0  0  0  0  0  0  0  0
   63.5977   30.6596   48.1273 H   0  0  0  0  0  0  0  0  0  0  0  0
   60.9542   31.1151   46.3510 H   0  0  0  0  0  0  0  0  0  0  0  0
   60.6502   29.7759   44.2649 H   0  0  0  0  0  0  0  0  0  0  0  0
   60.2086   27.3218   44.4065 H   0  0  0  0  0  0  0  0  0  0  0  0
   60.0506   26.2082   46.6378 H   0  0  0  0  0  0  0  0  0  0  0  0
   60.3585   27.5433   48.7257 H   0  0  0  0  0  0  0  0  0  0  0  0
   57.7233   29.6831   46.9814 H   0  0  0  0  0  0  0  0  0  0  0  0
  1  2  1  0
  2  3  2  0
  2  4  2  0
  2  5  1  0
  5  6  2  0
  6  7  1  0
  7  8  2  0
  8  9  1  0
  9 10  1  0
 10 11  1  0
 11 12  2  0
 11 13  1  0
 13 14  1  0
 14 15  1  0
 15 16  2  0
 15 17  1  0
 17 18  2  0
 18 19  1  0
 19 20  2  0
 20 21  1  0
 21 22  2  0
 22 23  1  0
 23 24  1  0
 24 25  2  0
 25 26  1  0
 26 27  2  0
 27 28  1  0
 28 29  2  0
  9 30  2  0
 30  5  1  0
 22 17  1  0
 29 24  1  0
  1 31  1  0
  6 32  1  0
  7 33  1  0
  8 34  1  0
 10 35  1  0
 13 36  1  0
 13 37  1  0
 18 38  1  0
 19 39  1  0
 20 40  1  0
 21 41  1  0
 25 42  1  0
 26 43  1  0
 27 44  1  0
 28 45  1  0
 29 46  1  0
 30 47  1  0
M  CHG  2   1  -1  14  -1
M  END
>  <UniqueID>  (26) 
25

>  <SMILES>  (26) 
[NH-]S(=O)(=O)c1cccc(NC(=O)C[N-]C(=O)c2ccccc2Sc2ccccc2)c1

>  <Energy>  (26) 
50.47173934808133

>  <Genealogy>  (26) 
[NH-]S(=O)(=O)c1cccc(NC(=O)C[N-]C(=O)c2ccccc2Sc2ccccc2)c1 (protonated)
[NH-]S(=O)(=O)c1cccc(NC(=O)C[N-]C(=O)c2ccccc2Sc2ccccc2)c1 (3D coordinates assigned)
[NH-]S(=O)(=O)c1cccc(NC(=O)C[N-]C(=O)c2ccccc2Sc2ccccc2)c1 (optimized conformer: 50.47173934808133 kcal/mol)

>  <smiles>  (26) 
NS(=O)(=O)c1cccc(NC(=O)CNC(=O)c2ccccc2Sc2ccccc2)c1

>  <score_type>  (26) 
oracle

>  <origin>  (26) 
adg

>  <m_score__min__energy>  (26) 
-13.09

>  <m_primary>  (26) 
energy

$$$$
26:0
     RDKit          3D

 54 57  0  0  0  0  0  0  0  0999 V2000
   60.9070   31.8300   50.4470 C   0  0  0  0  0  0  0  0  0  0  0  0
   59.8910   32.0270   49.3710 C   0  0  0  0  0  0  0  0  0  0  0  0
   60.0590   31.7280   48.0350 C   0  0  0  0  0  0  0  0  0  0  0  0
   58.8810   32.1640   47.4540 C   0  0  0  0  0  0  0  0  0  0  0  0
   58.4980   32.1010   46.0250 C   0  0  0  0  0  0  0  0  0  0  0  0
   58.8460   33.1260   45.1250 C   0  0  0  0  0  0  0  0  0  0  0  0
   58.4520   33.0520   43.7850 C   0  0  0  0  0  0  0  0  0  0  0  0
   57.7080   31.9620   43.3280 C   0  0  0  0  0  0  0  0  0  0  0  0
   57.3590   30.9310   44.2090 C   0  0  0  0  0  0  0  0  0  0  0  0
   56.4010   29.5700   43.6290 S   0  0  0  0  0  0  0  0  0  0  0  0
   55.2010   29.4010   44.5160 O   0  0  0  0  0  0  0  0  0  0  0  0
   55.9200   29.8240   42.2270 O   0  0  0  0  0  0  0  0  0  0  0  0
   57.3420   28.1130   43.6560 N   0  0  0  0  0  0  0  0  0  0  0  0
   58.2330   27.8120   44.7410 C   0  0  0  0  0  0  0  0  0  0  0  0
   59.4580   28.4920   44.8440 C   0  0  0  0  0  0  0  0  0  0  0  0
   60.3180   28.2480   45.9130 C   0  0  0  0  0  0  0  0  0  0  0  0
   59.9730   27.3150   46.8900 C   0  0  0  0  0  0  0  0  0  0  0  0
   58.7620   26.6080   46.8080 C   0  0  0  0  0  0  0  0  0  0  0  0
   58.4470   25.5770   47.8650 C   0  0  0  0  0  0  0  0  0  0  0  0
   57.8670   26.8770   45.7390 C   0  0  0  0  0  0  0  0  0  0  0  0
   56.5840   26.1430   45.6260 C   0  0  0  0  0  0  0  0  0  0  0  0
   55.5420   26.6650   46.1070 O   0  0  0  0  0  0  0  0  0  0  0  0
   56.5070   24.8630   44.9660 N   0  0  0  0  0  0  0  0  0  0  0  0
   55.2060   24.3780   44.4960 C   0  0  0  0  0  0  0  0  0  0  0  0
   55.4010   23.3480   43.3800 C   0  0  0  0  0  0  0  0  0  0  0  0
   56.2920   22.3270   43.7870 O   0  0  0  0  0  0  0  0  0  0  0  0
   57.5820   22.8760   43.9840 C   0  0  0  0  0  0  0  0  0  0  0  0
   57.5840   23.8790   45.1440 C   0  0  0  0  0  0  0  0  0  0  0  0
   57.7580   31.0020   45.5530 C   0  0  0  0  0  0  0  0  0  0  0  0
   58.1180   32.6780   48.3970 O   0  0  0  0  0  0  0  0  0  0  0  0
   58.6970   32.6190   49.5610 N   0  0  0  0  0  0  0  0  0  0  0  0
   60.4227   31.9239   51.4302 H   0  0  0  0  0  0  0  0  0  0  0  0
   61.3525   30.8288   50.3518 H   0  0  0  0  0  0  0  0  0  0  0  0
   61.6944   32.5922   50.3518 H   0  0  0  0  0  0  0  0  0  0  0  0
   60.9241   31.2552   47.5471 H   0  0  0  0  0  0  0  0  0  0  0  0
   59.4303   33.9889   45.4771 H   0  0  0  0  0  0  0  0  0  0  0  0
   58.7295   33.8562   43.0877 H   0  0  0  0  0  0  0  0  0  0  0  0
   57.3957   31.9133   42.2744 H   0  0  0  0  0  0  0  0  0  0  0  0
   57.4120   27.5720   42.7660 H   0  0  0  0  0  0  0  0  0  0  0  0
   59.7410   29.2241   44.0734 H   0  0  0  0  0  0  0  0  0  0  0  0
   61.2709   28.7926   45.9862 H   0  0  0  0  0  0  0  0  0  0  0  0
   60.6555   27.1309   47.7328 H   0  0  0  0  0  0  0  0  0  0  0  0
   58.5827   26.0210   48.8622 H   0  0  0  0  0  0  0  0  0  0  0  0
   57.4055   25.2419   47.7514 H   0  0  0  0  0  0  0  0  0  0  0  0
   59.1234   24.7170   47.7514 H   0  0  0  0  0  0  0  0  0  0  0  0
   54.6680   23.9098   45.3334 H   0  0  0  0  0  0  0  0  0  0  0  0
   54.6248   25.2264   44.1057 H   0  0  0  0  0  0  0  0  0  0  0  0
   54.4284   22.8990   43.1300 H   0  0  0  0  0  0  0  0  0  0  0  0
   55.8258   23.8565   42.5019 H   0  0  0  0  0  0  0  0  0  0  0  0
   58.2876   22.0631   44.2107 H   0  0  0  0  0  0  0  0  0  0  0  0
   57.8813   23.4030   43.0660 H   0  0  0  0  0  0  0  0  0  0  0  0
   57.4309   23.3400   46.0906 H   0  0  0  0  0  0  0  0  0  0  0  0
   58.5504   24.4041   45.1628 H   0  0  0  0  0  0  0  0  0  0  0  0
   57.4891   30.1897   46.2442 H   0  0  0  0  0  0  0  0  0  0  0  0
  1  2  1  0
  2  3  1  0
  3  4  2  0
  4  5  1  0
  5  6  2  0
  6  7  1  0
  7  8  2  0
  8  9  1  0
  9 10  1  0
 10 11  2  0
 10 12  2  0
 10 13  1  0
 13 14  1  0
 14 15  2  0
 15 16  1  0
 16 17  2  0
 17 18  1  0
 18 19  1  0
 18 20  2  0
 20 21  1  0
 21 22  2  0
 21 23  1  0
 23 24  1  0
 24 25  1  0
 25 26  1  0
 26 27  1  0
 27 28  1  0
  9 29  2  0
  4 30  1  0
 30 31  1  0
 31  2  2  0
 29  5  1  0
 20 14  1  0
 28 23  1  0
  1 32  1  0
  1 33  1  0
  1 34  1  0
  3 35  1  0
  6 36  1  0
  7 37  1  0
  8 38  1  0
 13 39  1  0
 15 40  1  0
 16 41  1  0
 17 42  1  0
 19 43  1  0
 19 44  1  0
 19 45  1  0
 24 46  1  0
 24 47  1  0
 25 48  1  0
 25 49  1  0
 27 50  1  0
 27 51  1  0
 28 52  1  0
 28 53  1  0
 29 54  1  0
M  END
>  <UniqueID>  (27) 
26

>  <SMILES>  (27) 
Cc1cc(-c2cccc(S(=O)(=O)Nc3cccc(C)c3C(=O)N3CCOCC3)c2)on1

>  <Energy>  (27) 
100.72091527790927

>  <Genealogy>  (27) 
Cc1cc(-c2cccc(S(=O)(=O)Nc3cccc(C)c3C(=O)N3CCOCC3)c2)on1 (3D coordinates assigned)
Cc1cc(-c2cccc(S(=O)(=O)Nc3cccc(C)c3C(=O)N3CCOCC3)c2)on1 (nonaromatic ring conformer: 100.72091527790927 kcal/mol)

>  <smiles>  (27) 
Cc1cc(-c2cccc(S(=O)(=O)Nc3cccc(C)c3C(=O)N3CCOCC3)c2)on1

>  <score_type>  (27) 
oracle

>  <origin>  (27) 
adg

>  <m_score__min__energy>  (27) 
-10.6

>  <m_primary>  (27) 
energy

$$$$
27:0
     RDKit          3D

 65 66  0  0  0  0  0  0  0  0999 V2000
   59.6240   33.5060   50.7490 C   0  0  0  0  0  0  0  0  0  0  0  0
   61.1320   33.3400   50.5860 C   0  0  0  0  0  0  0  0  0  0  0  0
   61.6600   34.2110   49.4390 C   0  0  0  0  0  0  0  0  0  0  0  0
   63.1080   33.8720   49.0480 C   0  0  0  0  0  0  0  0  0  0  0  0
   63.2550   33.3620   47.6000 C   0  0  0  0  0  0  0  0  0  0  0  0
   61.9690   32.6880   47.0900 C   0  0  0  0  0  0  0  0  0  0  0  0
   62.0390   31.1530   47.1690 C   0  0  0  0  0  0  0  0  0  0  0  0
   61.0940   30.5940   48.1930 C   0  0  0  0  0  0  0  0  0  0  0  0
   61.5100   30.2980   49.3440 O   0  0  0  0  0  0  0  0  0  0  0  0
   59.7100   30.4380   47.8580 N   0  0  0  0  0  0  0  0  0  0  0  0
   58.8760   29.3370   48.3240 C   0  0  0  0  0  0  0  0  0  0  0  0
   59.2470   28.0790   47.5840 C   0  0  0  0  0  0  0  0  0  0  0  0
   60.5260   27.5280   47.7540 C   0  0  0  0  0  0  0  0  0  0  0  0
   60.8830   26.3570   47.0890 C   0  0  0  0  0  0  0  0  0  0  0  0
   59.9620   25.7040   46.2710 C   0  0  0  0  0  0  0  0  0  0  0  0
   58.6610   26.2160   46.1040 C   0  0  0  0  0  0  0  0  0  0  0  0
   57.6570   25.4750   45.2310 C   0  0  0  0  0  0  0  0  0  0  0  0
   56.2680   25.4210   45.8820 C   0  0  0  0  0  0  0  0  0  0  0  0
   58.1600   24.0690   44.8900 C   0  0  0  0  0  0  0  0  0  0  0  0
   58.3140   27.4270   46.7510 C   0  0  0  0  0  0  0  0  0  0  0  0
   57.0470   27.9880   46.5690 O   0  0  0  0  0  0  0  0  0  0  0  0
   56.7930   28.9190   45.5590 C   0  0  0  0  0  0  0  0  0  0  0  0
   55.6930   28.9060   44.9410 O   0  0  0  0  0  0  0  0  0  0  0  0
   57.7810   29.9050   45.2550 N   0  0  0  0  0  0  0  0  0  0  0  0
   57.3590   31.4200   44.5320 S   0  0  0  0  0  0  0  0  0  0  0  0
   55.8600   31.5540   44.4910 O   0  0  0  0  0  0  0  0  0  0  0  0
   57.8910   31.4710   43.1280 O   0  0  0  0  0  0  0  0  0  0  0  0
   58.0860   32.7200   45.4710 C   0  0  0  0  0  0  0  0  0  0  0  0
   58.7930   33.7370   44.8150 C   0  0  0  0  0  0  0  0  0  0  0  0
   59.4300   34.7380   45.5540 C   0  0  0  0  0  0  0  0  0  0  0  0
   59.3700   34.7260   46.9490 C   0  0  0  0  0  0  0  0  0  0  0  0
   58.6640   33.7170   47.6090 C   0  0  0  0  0  0  0  0  0  0  0  0
   58.0190   32.7150   46.8730 C   0  0  0  0  0  0  0  0  0  0  0  0
   59.3717   33.5338   51.8193 H   0  0  0  0  0  0  0  0  0  0  0  0
   59.3048   34.4447   50.2726 H   0  0  0  0  0  0  0  0  0  0  0  0
   59.1083   32.6592   50.2726 H   0  0  0  0  0  0  0  0  0  0  0  0
   61.6297   33.6362   51.5212 H   0  0  0  0  0  0  0  0  0  0  0  0
   61.3455   32.2864   50.3529 H   0  0  0  0  0  0  0  0  0  0  0  0
   61.0152   34.0627   48.5602 H   0  0  0  0  0  0  0  0  0  0  0  0
   61.6472   35.2552   49.7846 H   0  0  0  0  0  0  0  0  0  0  0  0
   63.7198   34.7792   49.1606 H   0  0  0  0  0  0  0  0  0  0  0  0
   63.4383   33.0586   49.7108 H   0  0  0  0  0  0  0  0  0  0  0  0
   63.4920   34.2143   46.9462 H   0  0  0  0  0  0  0  0  0  0  0  0
   64.0593   32.6117   47.5853 H   0  0  0  0  0  0  0  0  0  0  0  0
   61.1225   33.0347   47.7009 H   0  0  0  0  0  0  0  0  0  0  0  0
   61.8432   32.9635   46.0325 H   0  0  0  0  0  0  0  0  0  0  0  0
   61.7817   30.7355   46.1843 H   0  0  0  0  0  0  0  0  0  0  0  0
   63.0613   30.8765   47.4665 H   0  0  0  0  0  0  0  0  0  0  0  0
   59.0338   29.1883   49.4024 H   0  0  0  0  0  0  0  0  0  0  0  0
   57.8180   29.5738   48.1378 H   0  0  0  0  0  0  0  0  0  0  0  0
   61.2512   28.0235   48.4163 H   0  0  0  0  0  0  0  0  0  0  0  0
   61.8961   25.9458   47.2099 H   0  0  0  0  0  0  0  0  0  0  0  0
   60.2545   24.7799   45.7510 H   0  0  0  0  0  0  0  0  0  0  0  0
   57.5568   26.0401   44.2926 H   0  0  0  0  0  0  0  0  0  0  0  0
   56.3757   25.4252   46.9767 H   0  0  0  0  0  0  0  0  0  0  0  0
   55.6815   26.2970   45.5679 H   0  0  0  0  0  0  0  0  0  0  0  0
   55.7513   24.5021   45.5679 H   0  0  0  0  0  0  0  0  0  0  0  0
   58.3582   23.5150   45.8194 H   0  0  0  0  0  0  0  0  0  0  0  0
   57.3959   23.5386   44.3028 H   0  0  0  0  0  0  0  0  0  0  0  0
   59.0872   24.1437   44.3028 H   0  0  0  0  0  0  0  0  0  0  0  0
   58.8467   33.7475   43.7164 H   0  0  0  0  0  0  0  0  0  0  0  0
   59.9799   35.5371   45.0353 H   0  0  0  0  0  0  0  0  0  0  0  0
   59.8785   35.5108   47.5282 H   0  0  0  0  0  0  0  0  0  0  0  0
   58.6147   33.7095   48.7079 H   0  0  0  0  0  0  0  0  0  0  0  0
   57.4597   31.9239   47.3939 H   0  0  0  0  0  0  0  0  0  0  0  0
  1  2  1  0
  2  3  1  0
  3  4  1  0
  4  5  1  0
  5  6  1  0
  6  7  1  0
  7  8  1  0
  8  9  2  0
  8 10  1  0
 10 11  1  0
 11 12  1  0
 12 13  2  0
 13 14  1  0
 14 15  2  0
 15 16  1  0
 16 17  1  0
 17 18  1  0
 17 19  1  0
 16 20  2  0
 20 21  1  0
 21 22  1  0
 22 23  2  0
 22 24  1  0
 24 25  1  0
 25 26  2  0
 25 27  2  0
 25 28  1  0
 28 29  2  0
 29 30  1  0
 30 31  2  0
 31 32  1  0
 32 33  2  0
 20 12  1  0
 33 28  1  0
  1 34  1  0
  1 35  1  0
  1 36  1  0
  2 37  1  0
  2 38  1  0
  3 39  1  0
  3 40  1  0
  4 41  1  0
  4 42  1  0
  5 43  1  0
  5 44  1  0
  6 45  1  0
  6 46  1  0
  7 47  1  0
  7 48  1  0
 11 49  1  0
 11 50  1  0
 13 51  1  0
 14 52  1  0
 15 53  1  0
 17 54  1  0
 18 55  1  0
 18 56  1  0
 18 57  1  0
 19 58  1  0
 19 59  1  0
 19 60  1  0
 29 61  1  0
 30 62  1  0
 31 63  1  0
 32 64  1  0
 33 65  1  0
M  CHG  2  10  -1  24  -1
M  END
>  <UniqueID>  (28) 
27

>  <SMILES>  (28) 
CCCCCCCC(=O)[N-]Cc1cccc(C(C)C)c1OC(=O)[N-]S(=O)(=O)c1ccccc1

>  <Energy>  (28) 
55.256928661115545

>  <Genealogy>  (28) 
CCCCCCCC(=O)[N-]Cc1cccc(C(C)C)c1OC(=O)[N-]S(=O)(=O)c1ccccc1 (protonated)
CCCCCCCC(=O)[N-]Cc1cccc(C(C)C)c1OC(=O)[N-]S(=O)(=O)c1ccccc1 (3D coordinates assigned)
CCCCCCCC(=O)[N-]Cc1cccc(C(C)C)c1OC(=O)[N-]S(=O)(=O)c1ccccc1 (optimized conformer: 55.256928661115545 kcal/mol)

>  <smiles>  (28) 
CCCCCCCC(=O)NCc1cccc(C(C)C)c1OC(=O)NS(=O)(=O)c1ccccc1

>  <score_type>  (28) 
oracle

>  <origin>  (28) 
adg

>  <m_score__min__energy>  (28) 
-12.49

>  <m_primary>  (28) 
energy

$$$$
28:0
     RDKit          3D

 28 29  0  0  0  0  0  0  0  0999 V2000
   58.2030   25.9520   47.7080 O   0  0  0  0  0  0  0  0  0  0  0  0
   58.7130   26.1540   46.5670 C   0  0  0  0  0  0  0  0  0  0  0  0
   59.8410   25.3450   46.0870 C   0  0  0  0  0  0  0  0  0  0  0  0
   59.3180   23.6770   45.6200 S   0  0  0  0  0  0  0  0  0  0  0  0
   57.6160   23.6100   45.0950 C   0  0  0  0  0  0  0  0  0  0  0  0
   57.3670   22.9000   43.9560 N   0  0  0  0  0  0  0  0  0  0  0  0
   56.1460   22.7470   43.4350 C   0  0  0  0  0  0  0  0  0  0  0  0
   55.9140   22.0960   42.3880 O   0  0  0  0  0  0  0  0  0  0  0  0
   55.0990   23.3560   44.1120 C   0  0  0  0  0  0  0  0  0  0  0  0
   55.3440   24.0750   45.2630 C   0  0  0  0  0  0  0  0  0  0  0  0
   56.6110   24.2020   45.7560 N   0  0  0  0  0  0  0  0  0  0  0  0
   58.1290   27.2170   45.7770 C   0  0  0  0  0  0  0  0  0  0  0  0
   56.7510   27.4320   45.8570 C   0  0  0  0  0  0  0  0  0  0  0  0
   55.9430   26.6360   46.6820 O   0  0  0  0  0  0  0  0  0  0  0  0
   56.1760   28.4190   45.1300 N   0  0  0  0  0  0  0  0  0  0  0  0
   56.9380   29.1890   44.3340 C   0  0  0  0  0  0  0  0  0  0  0  0
   56.2410   30.3790   43.4580 S   0  0  0  0  0  0  0  0  0  0  0  0
   58.2840   29.0120   44.2280 N   0  0  0  0  0  0  0  0  0  0  0  0
   58.8770   28.0300   44.9460 C   0  0  0  0  0  0  0  0  0  0  0  0
   60.1420   27.8620   44.8480 O   0  0  0  0  0  0  0  0  0  0  0  0
   60.2853   25.8379   45.2097 H   0  0  0  0  0  0  0  0  0  0  0  0
   60.5729   25.2587   46.9037 H   0  0  0  0  0  0  0  0  0  0  0  0
   54.0715   23.2651   43.7298 H   0  0  0  0  0  0  0  0  0  0  0  0
   54.5063   24.5533   45.7918 H   0  0  0  0  0  0  0  0  0  0  0  0
   56.7700   24.7470   46.6130 H   0  0  0  0  0  0  0  0  0  0  0  0
   56.4160   26.2160   47.4970 H   0  0  0  0  0  0  0  0  0  0  0  0
   55.1480   28.5270   45.2350 H   0  0  0  0  0  0  0  0  0  0  0  0
   58.8180   29.6440   43.5920 H   0  0  0  0  0  0  0  0  0  0  0  0
  1  2  2  0
  2  3  1  0
  3  4  1  0
  4  5  1  0
  5  6  2  0
  6  7  1  0
  7  8  2  0
  7  9  1  0
  9 10  2  0
 10 11  1  0
  2 12  1  0
 12 13  2  0
 13 14  1  0
 13 15  1  0
 15 16  1  0
 16 17  2  0
 16 18  1  0
 18 19  1  0
 19 20  2  0
 11  5  1  0
 19 12  1  0
  3 21  1  0
  3 22  1  0
  9 23  1  0
 10 24  1  0
 11 25  1  0
 14 26  1  0
 15 27  1  0
 18 28  1  0
M  END
>  <smiles>  (29) 
O=C(CSc1nc(=O)cc[nH]1)c1c(O)[nH]c(=S)[nH]c1=O

>  <score_type>  (29) 
oracle

>  <origin>  (29) 
adg

>  <m_score__min__energy>  (29) 
-7.4199999999999999

>  <m_primary>  (29) 
energy

$$$$
29:0
     RDKit          3D

 33 34  0  0  0  0  0  0  0  0999 V2000
   56.5350   24.1730   44.0340 C   0  0  0  0  0  0  0  0  0  0  0  0
   57.0350   25.2240   44.9710 C   0  0  0  0  0  0  0  0  0  0  0  0
   57.0360   26.5440   44.7070 N   0  0  0  0  0  0  0  0  0  0  0  0
   57.6350   27.1810   45.7040 N   0  0  0  0  0  0  0  0  0  0  0  0
   57.8690   28.6250   45.7130 C   0  0  0  0  0  0  0  0  0  0  0  0
   56.6760   29.3390   45.1640 C   0  0  0  0  0  0  0  0  0  0  0  0
   56.7230   30.5770   44.9410 O   0  0  0  0  0  0  0  0  0  0  0  0
   55.5170   28.6310   44.8730 O   0  0  0  0  0  0  0  0  0  0  0  0
   58.0600   26.2740   46.6170 C   0  0  0  0  0  0  0  0  0  0  0  0
   58.8840   26.5940   47.8310 C   0  0  0  0  0  0  0  0  0  0  0  0
   57.6580   25.0170   46.1850 C   0  0  0  0  0  0  0  0  0  0  0  0
   57.9500   23.7410   46.7660 N   0  0  0  0  0  0  0  0  0  0  0  0
   57.0060   22.9460   47.4900 C   0  0  0  0  0  0  0  0  0  0  0  0
   57.2760   21.7530   47.7980 O   0  0  0  0  0  0  0  0  0  0  0  0
   55.6840   23.5310   47.8660 C   0  0  0  0  0  0  0  0  0  0  0  0
   54.7010   23.2950   46.7650 C   0  0  0  0  0  0  0  0  0  0  0  0
   54.1730   22.0770   46.4000 C   0  0  0  0  0  0  0  0  0  0  0  0
   53.2630   22.2690   45.4270 N   0  0  0  0  0  0  0  0  0  0  0  0
   53.2720   23.6050   45.2480 C   0  0  0  0  0  0  0  0  0  0  0  0
   52.5350   24.1820   44.4060 O   0  0  0  0  0  0  0  0  0  0  0  0
   54.1250   24.2750   46.0480 N   0  0  0  0  0  0  0  0  0  0  0  0
   56.1329   23.3278   44.6119 H   0  0  0  0  0  0  0  0  0  0  0  0
   55.7410   24.5946   43.4001 H   0  0  0  0  0  0  0  0  0  0  0  0
   57.3630   23.8229   43.4001 H   0  0  0  0  0  0  0  0  0  0  0  0
   56.6600   27.0020   43.8470 H   0  0  0  0  0  0  0  0  0  0  0  0
   58.0500   28.9584   46.7455 H   0  0  0  0  0  0  0  0  0  0  0  0
   58.7455   28.8529   45.0887 H   0  0  0  0  0  0  0  0  0  0  0  0
   58.3037   26.3686   48.7379 H   0  0  0  0  0  0  0  0  0  0  0  0
   59.8011   25.9867   47.8222 H   0  0  0  0  0  0  0  0  0  0  0  0
   59.1508   27.6611   47.8222 H   0  0  0  0  0  0  0  0  0  0  0  0
   55.3217   23.0544   48.7888 H   0  0  0  0  0  0  0  0  0  0  0  0
   55.7962   24.6128   48.0304 H   0  0  0  0  0  0  0  0  0  0  0  0
   54.4499   21.1046   46.8333 H   0  0  0  0  0  0  0  0  0  0  0  0
  1  2  1  0
  2  3  2  0
  3  4  1  0
  4  5  1  0
  5  6  1  0
  6  7  2  0
  6  8  1  0
  4  9  1  0
  9 10  1  0
  9 11  2  0
 11 12  1  0
 12 13  1  0
 13 14  2  0
 13 15  1  0
 15 16  1  0
 16 17  2  0
 17 18  1  0
 18 19  1  0
 19 20  2  0
 19 21  1  0
 11  2  1  0
 21 16  1  0
  1 22  1  0
  1 23  1  0
  1 24  1  0
  3 25  1  0
  5 26  1  0
  5 27  1  0
 10 28  1  0
 10 29  1  0
 10 30  1  0
 15 31  1  0
 15 32  1  0
 17 33  1  0
M  CHG  5   3   1   8  -1  12  -1  18  -1  21  -1
M  END
>  <UniqueID>  (30) 
28

>  <SMILES>  (30) 
Cc1[nH+]n(CC(=O)[O-])c(C)c1[N-]C(=O)Cc1c[n-]c(=O)[n-]1

>  <Energy>  (30) 
90.99135811830912

>  <Genealogy>  (30) 
Cc1[nH+]n(CC(=O)[O-])c(C)c1[N-]C(=O)Cc1c[n-]c(=O)[n-]1 (protonated)
Cc1[nH+]n(CC(=O)[O-])c(C)c1[N-]C(=O)Cc1c[n-]c(=O)[n-]1 (3D coordinates assigned)
Cc1[nH+]n(CC(=O)[O-])c(C)c1[N-]C(=O)Cc1c[n-]c(=O)[n-]1 (optimized conformer: 90.99135811830912 kcal/mol)

>  <smiles>  (30) 
Cc1nn(CC(=O)O)c(C)c1NC(=O)Cc1c[nH]c(=O)[nH]1

>  <score_type>  (30) 
oracle

>  <origin>  (30) 
adg

>  <m_score__min__energy>  (30) 
-12.35

>  <m_primary>  (30) 
energy

$$$$
30:0
     RDKit          3D

 27 28  0  0  0  0  0  0  0  0999 V2000
   60.2810   25.9250   46.2790 N   0  0  0  0  0  0  0  0  0  0  0  0
   59.1930   26.0590   45.9120 C   0  0  0  0  0  0  0  0  0  0  0  0
   57.8080   26.2300   45.4460 C   0  0  1  0  0  0  0  0  0  0  0  0
   57.7540   27.3440   44.3740 C   0  0  0  0  0  0  0  0  0  0  0  0
   57.2200   28.6330   44.9310 C   0  0  0  0  0  0  0  0  0  0  0  0
   55.8190   28.8020   45.1450 N   0  0  0  0  0  0  0  0  0  0  0  0
   58.0100   29.5780   45.1970 O   0  0  0  0  0  0  0  0  0  0  0  0
   57.2510   24.8710   45.0080 C   0  0  0  0  0  0  0  0  0  0  0  0
   58.1540   23.8820   44.5600 C   0  0  0  0  0  0  0  0  0  0  0  0
   57.7040   22.6760   44.0300 C   0  0  0  0  0  0  0  0  0  0  0  0
   56.3440   22.4040   43.9590 C   0  0  0  0  0  0  0  0  0  0  0  0
   55.9130   21.2090   43.3940 O   0  0  0  0  0  0  0  0  0  0  0  0
   55.4190   23.3170   44.4710 C   0  0  0  0  0  0  0  0  0  0  0  0
   54.0970   23.0080   44.4270 N   0  0  0  0  0  0  0  0  0  0  0  0
   53.1630   23.8290   44.9580 C   0  0  0  0  0  0  0  0  0  0  0  0
   51.9450   23.5240   44.8900 O   0  0  0  0  0  0  0  0  0  0  0  0
   53.5410   24.9690   45.5820 N   0  0  0  0  0  0  0  0  0  0  0  0
   54.8450   25.3390   45.6650 C   0  0  0  0  0  0  0  0  0  0  0  0
   55.1220   26.3690   46.3310 O   0  0  0  0  0  0  0  0  0  0  0  0
   55.8540   24.5420   45.0530 C   0  0  0  0  0  0  0  0  0  0  0  0
   57.1456   26.5750   46.2536 H   0  0  0  0  0  0  0  0  0  0  0  0
   58.7700   27.5168   43.9894 H   0  0  0  0  0  0  0  0  0  0  0  0
   57.0772   27.0130   43.5726 H   0  0  0  0  0  0  0  0  0  0  0  0
   55.4480   29.7030   45.5190 H   0  0  0  0  0  0  0  0  0  0  0  0
   55.1500   28.0290   44.9340 H   0  0  0  0  0  0  0  0  0  0  0  0
   59.2357   24.0685   44.6313 H   0  0  0  0  0  0  0  0  0  0  0  0
   58.4298   21.9342   43.6653 H   0  0  0  0  0  0  0  0  0  0  0  0
  1  2  3  0
  2  3  1  0
  3  4  1  0
  4  5  1  0
  5  6  1  0
  5  7  2  0
  3  8  1  0
  8  9  2  0
  9 10  1  0
 10 11  2  0
 11 12  1  0
 11 13  1  0
 13 14  1  0
 14 15  1  0
 15 16  2  0
 15 17  1  0
 17 18  1  0
 18 19  2  0
 18 20  1  0
 20  8  1  0
 20 13  2  0
  3 21  1  1
  4 22  1  0
  4 23  1  0
  6 24  1  0
  6 25  1  0
  9 26  1  0
 10 27  1  0
M  CHG  3  12  -1  14  -1  17  -1
M  END
>  <UniqueID>  (31) 
29

>  <SMILES>  (31) 
N#C[C@@H](CC(N)=O)c1ccc([O-])c2[n-]c(=O)[n-]c(=O)c12

>  <Energy>  (31) 
38.53628967729337

>  <Genealogy>  (31) 
N#CC(CC(N)=O)c1ccc([O-])c2[n-]c(=O)[n-]c(=O)c12 (protonated)
N#C[C@@H](CC(N)=O)c1ccc([O-])c2[n-]c(=O)[n-]c(=O)c12 (chirality)
N#C[C@@H](CC(N)=O)c1ccc([O-])c2[n-]c(=O)[n-]c(=O)c12 (3D coordinates assigned)
N#C[C@@H](CC(N)=O)c1ccc([O-])c2[n-]c(=O)[n-]c(=O)c12 (optimized conformer: 38.53628967729337 kcal/mol)

>  <smiles>  (31) 
N#CC(CC(N)=O)c1ccc(O)c2[nH]c(=O)[nH]c(=O)c12

>  <score_type>  (31) 
oracle

>  <origin>  (31) 
adg

>  <m_score__min__energy>  (31) 
-14.470000000000001

>  <m_primary>  (31) 
energy

$$$$
31:0
     RDKit          3D

 42 45  0  0  0  0  0  0  0  0999 V2000
   55.1510   28.6160   45.6490 H   0  0  0  0  0  0  0  0  0  0  0  0
   55.3320   29.2520   44.8400 N   0  0  0  0  0  0  0  0  0  0  0  0
   56.6420   29.3970   44.3020 C   0  0  0  0  0  0  0  0  0  0  0  0
   57.3750   28.3790   44.1760 O   0  0  0  0  0  0  0  0  0  0  0  0
   57.1510   30.7180   43.8900 C   0  0  0  0  0  0  0  0  0  0  0  0
   57.1170   31.2330   42.5930 C   0  0  0  0  0  0  0  0  0  0  0  0
   56.7027   30.7053   41.7213 H   0  0  0  0  0  0  0  0  0  0  0  0
   57.6630   32.4690   42.5550 N   0  0  0  0  0  0  0  0  0  0  0  0
   57.7690   33.0850   41.7190 H   0  0  0  0  0  0  0  0  0  0  0  0
   58.0400   32.7350   43.8150 C   0  0  0  0  0  0  0  0  0  0  0  0
   58.6390   33.8740   44.2380 N   0  0  0  0  0  0  0  0  0  0  0  0
   58.9710   34.0060   45.5550 C   0  0  0  0  0  0  0  0  0  0  0  0
   59.4579   34.9289   45.9030 H   0  0  0  0  0  0  0  0  0  0  0  0
   58.6950   32.9650   46.4820 C   0  0  0  0  0  0  0  0  0  0  0  0
   59.0590   33.1130   47.9140 C   0  0  0  0  0  0  0  0  0  0  0  0
   60.0670   34.0130   48.3050 C   0  0  0  0  0  0  0  0  0  0  0  0
   60.5985   34.6029   47.5438 H   0  0  0  0  0  0  0  0  0  0  0  0
   60.3970   34.1620   49.6540 C   0  0  0  0  0  0  0  0  0  0  0  0
   61.1813   34.8736   49.9515 H   0  0  0  0  0  0  0  0  0  0  0  0
   59.7340   33.4100   50.6260 C   0  0  0  0  0  0  0  0  0  0  0  0
   59.9909   33.5410   51.6875 H   0  0  0  0  0  0  0  0  0  0  0  0
   58.7440   32.4900   50.2580 C   0  0  0  0  0  0  0  0  0  0  0  0
   58.0610   31.7450   51.2820 N   0  0  0  0  0  0  0  0  0  0  0  0
   57.8700   32.2190   52.1940 H   0  0  0  0  0  0  0  0  0  0  0  0
   57.7260   30.3540   51.1800 C   0  0  0  0  0  0  0  0  0  0  0  0
   58.2100   29.6500   50.2510 O   0  0  0  0  0  0  0  0  0  0  0  0
   56.8710   29.7720   52.1770 N   0  0  0  0  0  0  0  0  0  0  0  0
   55.5740   29.8700   52.2510 C   0  0  0  0  0  0  0  0  0  0  0  0
   54.8160   28.8760   52.7980 N   0  0  0  0  0  0  0  0  0  0  0  0
   53.4620   28.9660   52.8800 C   0  0  0  0  0  0  0  0  0  0  0  0
   52.8827   28.1451   53.3279 H   0  0  0  0  0  0  0  0  0  0  0  0
   52.8060   30.1000   52.3960 C   0  0  0  0  0  0  0  0  0  0  0  0
   51.7107   30.1792   52.4595 H   0  0  0  0  0  0  0  0  0  0  0  0
   53.5570   31.1310   51.8310 C   0  0  0  0  0  0  0  0  0  0  0  0
   53.0548   32.0304   51.4451 H   0  0  0  0  0  0  0  0  0  0  0  0
   54.9460   31.0200   51.7560 C   0  0  0  0  0  0  0  0  0  0  0  0
   55.5433   31.8297   51.3114 H   0  0  0  0  0  0  0  0  0  0  0  0
   58.3960   32.3600   48.9020 C   0  0  0  0  0  0  0  0  0  0  0  0
   57.5972   31.6625   48.6098 H   0  0  0  0  0  0  0  0  0  0  0  0
   58.0680   31.7860   46.0180 C   0  0  0  0  0  0  0  0  0  0  0  0
   57.8377   30.9587   46.7055 H   0  0  0  0  0  0  0  0  0  0  0  0
   57.7500   31.7030   44.6620 C   0  0  0  0  0  0  0  0  0  0  0  0
  1  2  1  0
  2  3  1  0
  3  4  2  0
  3  5  1  0
  5  6  2  0
  6  7  1  0
  6  8  1  0
  8  9  1  0
  8 10  1  0
 10 11  2  0
 11 12  1  0
 12 13  1  0
 12 14  2  0
 14 15  1  0
 15 16  2  0
 16 17  1  0
 16 18  1  0
 18 19  1  0
 18 20  2  0
 20 21  1  0
 20 22  1  0
 22 23  1  0
 23 24  1  0
 23 25  1  0
 25 26  2  0
 25 27  1  0
 27 28  2  0
 28 29  1  0
 29 30  1  0
 30 31  1  0
 30 32  2  0
 32 33  1  0
 32 34  1  0
 34 35  1  0
 34 36  2  0
 36 37  1  0
 22 38  2  0
 38 39  1  0
 14 40  1  0
 40 41  1  0
 40 42  2  0
 42  5  1  0
 42 10  1  0
 38 15  1  0
 36 28  1  0
M  CHG  2   2  -1  29  -1
M  END
>  <UniqueID>  (32) 
30

>  <SMILES>  (32) 
[NH-]C(=O)c1c[nH]c2ncc(-c3cccc(NC(=O)/N=c4/cccc[n-]4)c3)cc12

>  <Energy>  (32) 
93.44542424868399

>  <Genealogy>  (32) 
[NH-]C(=O)c1c[nH]c2ncc(-c3cccc(NC(=O)N=c4cccc[n-]4)c3)cc12 (protonated)
[NH-]C(=O)c1c[nH]c2ncc(-c3cccc(NC(=O)/N=c4/cccc[n-]4)c3)cc12 (cis-trans isomerization)
[NH-]C(=O)c1c[nH]c2ncc(-c3cccc(NC(=O)/N=c4/cccc[n-]4)c3)cc12 (3D coordinates assigned)
[NH-]C(=O)c1c[nH]c2ncc(-c3cccc(NC(=O)/N=c4/cccc[n-]4)c3)cc12 (optimized conformer: 93.44542424868399 kcal/mol)

>  <smiles>  (32) 
NC(=O)c1c[nH]c2ncc(-c3cccc(NC(=O)N=c4cccc[nH]4)c3)cc12

>  <score_type>  (32) 
oracle

>  <origin>  (32) 
adg

>  <m_score__min__energy>  (32) 
-12.91

>  <m_primary>  (32) 
energy

$$$$
32:0
     RDKit          3D

 31 32  0  0  0  0  0  0  0  0999 V2000
   60.5830   26.7970   46.1620 C   0  0  0  0  0  0  0  0  0  0  0  0
   59.5990   27.8810   46.0810 N   0  0  0  0  0  0  0  0  0  0  0  0
   59.7690   28.9610   45.0960 C   0  0  0  0  0  0  0  0  0  0  0  0
   58.4310   29.5030   44.6730 C   0  0  0  0  0  0  0  0  0  0  0  0
   57.8460   30.6630   45.1360 C   0  0  0  0  0  0  0  0  0  0  0  0
   56.6440   30.8240   44.5460 N   0  0  0  0  0  0  0  0  0  0  0  0
   56.5180   29.7490   43.7390 C   0  0  0  0  0  0  0  0  0  0  0  0
   57.5810   28.9240   43.8030 N   0  0  0  0  0  0  0  0  0  0  0  0
   57.7670   27.6870   43.0510 C   0  0  0  0  0  0  0  0  0  0  0  0
   58.4090   27.8010   46.8970 C   0  0  0  0  0  0  0  0  0  0  0  0
   58.1380   28.7370   47.6980 O   0  0  0  0  0  0  0  0  0  0  0  0
   57.4980   26.6390   46.8260 C   0  0  0  0  0  0  0  0  0  0  0  0
   57.8720   25.4160   47.4030 C   0  0  0  0  0  0  0  0  0  0  0  0
   57.0210   24.3140   47.3200 C   0  0  0  0  0  0  0  0  0  0  0  0
   55.8020   24.4410   46.6540 C   0  0  0  0  0  0  0  0  0  0  0  0
   55.4540   25.6280   46.0910 N   0  0  0  0  0  0  0  0  0  0  0  0
   56.2630   26.7190   46.1550 C   0  0  0  0  0  0  0  0  0  0  0  0
   55.8900   27.7970   45.6220 O   0  0  0  0  0  0  0  0  0  0  0  0
   60.7906   26.5683   47.2178 H   0  0  0  0  0  0  0  0  0  0  0  0
   60.1833   25.9010   45.6645 H   0  0  0  0  0  0  0  0  0  0  0  0
   61.5133   27.1084   45.6645 H   0  0  0  0  0  0  0  0  0  0  0  0
   60.3621   29.7710   45.5456 H   0  0  0  0  0  0  0  0  0  0  0  0
   60.2856   28.5586   44.2122 H   0  0  0  0  0  0  0  0  0  0  0  0
   58.2904   31.3496   45.8716 H   0  0  0  0  0  0  0  0  0  0  0  0
   55.6424   29.5666   43.0987 H   0  0  0  0  0  0  0  0  0  0  0  0
   57.8932   26.8478   43.7509 H   0  0  0  0  0  0  0  0  0  0  0  0
   56.8858   27.5069   42.4177 H   0  0  0  0  0  0  0  0  0  0  0  0
   58.6622   27.7740   42.4177 H   0  0  0  0  0  0  0  0  0  0  0  0
   58.8379   25.3261   47.9216 H   0  0  0  0  0  0  0  0  0  0  0  0
   57.3082   23.3546   47.7751 H   0  0  0  0  0  0  0  0  0  0  0  0
   55.1216   23.5795   46.5844 H   0  0  0  0  0  0  0  0  0  0  0  0
  1  2  1  0
  2  3  1  0
  3  4  1  0
  4  5  2  0
  5  6  1  0
  6  7  2  0
  7  8  1  0
  8  9  1  0
  2 10  1  0
 10 11  2  0
 10 12  1  0
 12 13  2  0
 13 14  1  0
 14 15  2  0
 15 16  1  0
 16 17  1  0
 17 18  2  0
  8  4  1  0
 17 12  1  0
  1 19  1  0
  1 20  1  0
  1 21  1  0
  3 22  1  0
  3 23  1  0
  5 24  1  0
  7 25  1  0
  9 26  1  0
  9 27  1  0
  9 28  1  0
 13 29  1  0
 14 30  1  0
 15 31  1  0
M  CHG  1  16  -1
M  END
>  <UniqueID>  (33) 
31

>  <SMILES>  (33) 
CN(Cc1cncn1C)C(=O)c1ccc[n-]c1=O

>  <Energy>  (33) 
63.5561624832246

>  <Genealogy>  (33) 
CN(Cc1cncn1C)C(=O)c1ccc[n-]c1=O (protonated)
CN(Cc1cncn1C)C(=O)c1ccc[n-]c1=O (3D coordinates assigned)
CN(Cc1cncn1C)C(=O)c1ccc[n-]c1=O (optimized conformer: 63.5561624832246 kcal/mol)

>  <smiles>  (33) 
CN(Cc1cncn1C)C(=O)c1ccc[nH]c1=O

>  <score_type>  (33) 
oracle

>  <origin>  (33) 
adg

>  <m_score__min__energy>  (33) 
-8.0600000000000005

>  <m_primary>  (33) 
energy

$$$$
33:0
     RDKit          3D

 44 46  0  0  0  0  0  0  0  0999 V2000
   61.5540   29.5320   50.8230 C   0  0  0  0  0  0  0  0  0  0  0  0
   61.5900   30.4360   49.7240 O   0  0  0  0  0  0  0  0  0  0  0  0
   60.7490   30.3570   48.6040 C   0  0  0  0  0  0  0  0  0  0  0  0
   61.1880   30.6800   47.3060 C   0  0  0  0  0  0  0  0  0  0  0  0
   60.3100   30.5850   46.2230 C   0  0  0  0  0  0  0  0  0  0  0  0
   58.9820   30.1710   46.4170 C   0  0  0  0  0  0  0  0  0  0  0  0
   58.0800   30.0680   45.2960 N   0  0  0  0  0  0  0  0  0  0  0  0
   57.1960   31.2010   44.9850 C   0  0  0  0  0  0  0  0  0  0  0  0
   57.8730   32.5020   45.3300 C   0  0  0  0  0  0  0  0  0  0  0  0
   57.8200   33.0080   46.6400 C   0  0  0  0  0  0  0  0  0  0  0  0
   58.4830   34.1980   46.9620 C   0  0  0  0  0  0  0  0  0  0  0  0
   59.2040   34.8850   45.9820 C   0  0  0  0  0  0  0  0  0  0  0  0
   59.8470   36.0370   46.2980 F   0  0  0  0  0  0  0  0  0  0  0  0
   59.2660   34.3840   44.6790 C   0  0  0  0  0  0  0  0  0  0  0  0
   58.6050   33.1970   44.3530 C   0  0  0  0  0  0  0  0  0  0  0  0
   57.8810   28.7970   44.6390 C   0  0  0  0  0  0  0  0  0  0  0  0
   57.6330   28.7600   43.4030 O   0  0  0  0  0  0  0  0  0  0  0  0
   57.9610   27.5220   45.3900 C   0  0  0  0  0  0  0  0  0  0  0  0
   56.7870   26.8800   45.8360 C   0  0  0  0  0  0  0  0  0  0  0  0
   55.5370   27.4520   45.6210 O   0  0  0  0  0  0  0  0  0  0  0  0
   56.8700   25.6650   46.5240 C   0  0  0  0  0  0  0  0  0  0  0  0
   58.1140   25.0900   46.7870 C   0  0  0  0  0  0  0  0  0  0  0  0
   59.2820   25.7270   46.3650 C   0  0  0  0  0  0  0  0  0  0  0  0
   59.2140   26.9400   45.6670 C   0  0  0  0  0  0  0  0  0  0  0  0
   60.3870   27.5600   45.2350 O   0  0  0  0  0  0  0  0  0  0  0  0
   58.5480   29.8460   47.7120 C   0  0  0  0  0  0  0  0  0  0  0  0
   59.4260   29.9410   48.7950 C   0  0  0  0  0  0  0  0  0  0  0  0
   61.5766   30.0992   51.7652 H   0  0  0  0  0  0  0  0  0  0  0  0
   60.6314   28.9349   50.7765 H   0  0  0  0  0  0  0  0  0  0  0  0
   62.4262   28.8634   50.7765 H   0  0  0  0  0  0  0  0  0  0  0  0
   62.2253   31.0082   47.1438 H   0  0  0  0  0  0  0  0  0  0  0  0
   60.6615   30.8362   45.2114 H   0  0  0  0  0  0  0  0  0  0  0  0
   56.9561   31.1902   43.9115 H   0  0  0  0  0  0  0  0  0  0  0  0
   56.2740   31.1090   45.5779 H   0  0  0  0  0  0  0  0  0  0  0  0
   57.2560   32.4675   47.4144 H   0  0  0  0  0  0  0  0  0  0  0  0
   58.4363   34.5927   47.9877 H   0  0  0  0  0  0  0  0  0  0  0  0
   59.8359   34.9248   43.9090 H   0  0  0  0  0  0  0  0  0  0  0  0
   58.6580   32.8049   43.3266 H   0  0  0  0  0  0  0  0  0  0  0  0
   55.9514   25.1610   46.8589 H   0  0  0  0  0  0  0  0  0  0  0  0
   58.1741   24.1338   47.3274 H   0  0  0  0  0  0  0  0  0  0  0  0
   60.2609   25.2744   46.5815 H   0  0  0  0  0  0  0  0  0  0  0  0
   60.4120   28.1210   44.3920 H   0  0  0  0  0  0  0  0  0  0  0  0
   57.5117   29.5150   47.8750 H   0  0  0  0  0  0  0  0  0  0  0  0
   59.0747   29.6868   49.8059 H   0  0  0  0  0  0  0  0  0  0  0  0
  1  2  1  0
  2  3  1  0
  3  4  2  0
  4  5  1  0
  5  6  2  0
  6  7  1  0
  7  8  1  0
  8  9  1  0
  9 10  2  0
 10 11  1  0
 11 12  2  0
 12 13  1  0
 12 14  1  0
 14 15  2  0
  7 16  1  0
 16 17  2  0
 16 18  1  0
 18 19  2  0
 19 20  1  0
 19 21  1  0
 21 22  2  0
 22 23  1  0
 23 24  2  0
 24 25  1  0
  6 26  1  0
 26 27  2  0
 27  3  1  0
 15  9  1  0
 24 18  1  0
  1 28  1  0
  1 29  1  0
  1 30  1  0
  4 31  1  0
  5 32  1  0
  8 33  1  0
  8 34  1  0
 10 35  1  0
 11 36  1  0
 14 37  1  0
 15 38  1  0
 21 39  1  0
 22 40  1  0
 23 41  1  0
 25 42  1  0
 26 43  1  0
 27 44  1  0
M  CHG  1  20  -1
M  END
>  <UniqueID>  (34) 
32

>  <SMILES>  (34) 
COc1ccc(N(Cc2ccc(F)cc2)C(=O)c2c([O-])cccc2O)cc1

>  <Energy>  (34) 
55.52719886455323

>  <Genealogy>  (34) 
COc1ccc(N(Cc2ccc(F)cc2)C(=O)c2c([O-])cccc2O)cc1 (protonated)
COc1ccc(N(Cc2ccc(F)cc2)C(=O)c2c([O-])cccc2O)cc1 (3D coordinates assigned)
COc1ccc(N(Cc2ccc(F)cc2)C(=O)c2c([O-])cccc2O)cc1 (optimized conformer: 55.52719886455323 kcal/mol)

>  <smiles>  (34) 
COc1ccc(N(Cc2ccc(F)cc2)C(=O)c2c(O)cccc2O)cc1

>  <score_type>  (34) 
oracle

>  <origin>  (34) 
adg

>  <m_score__min__energy>  (34) 
-10.44

>  <m_primary>  (34) 
energy

$$$$
34:0
     RDKit          3D

 43 45  0  0  0  0  0  0  0  0999 V2000
   56.7510   20.0460   43.3610 H   0  0  0  0  0  0  0  0  0  0  0  0
   56.2590   20.9300   43.3890 O   0  0  0  0  0  0  0  0  0  0  0  0
   56.6890   21.9620   44.2150 C   0  0  0  0  0  0  0  0  0  0  0  0
   55.8550   22.7620   44.9040 N   0  0  0  0  0  0  0  0  0  0  0  0
   56.6870   23.6020   45.5560 C   0  0  0  0  0  0  0  0  0  0  0  0
   56.2120   24.5420   46.3280 N   0  0  0  0  0  0  0  0  0  0  0  0
   55.9560   25.9170   46.0260 C   0  0  0  0  0  0  0  0  0  0  0  0
   54.7730   26.3440   45.9550 O   0  0  0  0  0  0  0  0  0  0  0  0
   57.0910   26.7890   45.5770 C   0  0  0  0  0  0  0  0  0  0  0  0
   57.9259   26.6758   46.2842 H   0  0  0  0  0  0  0  0  0  0  0  0
   57.3792   26.4731   44.5635 H   0  0  0  0  0  0  0  0  0  0  0  0
   56.7010   28.2440   45.5150 C   0  0  0  0  0  0  0  0  0  0  0  0
   55.5370   28.5600   45.1540 O   0  0  0  0  0  0  0  0  0  0  0  0
   57.6280   29.2870   45.8440 N   0  0  0  0  0  0  0  0  0  0  0  0
   57.7770   30.5390   45.1590 C   0  0  0  0  0  0  0  0  0  0  0  0
   57.4530   30.6770   43.8000 C   0  0  0  0  0  0  0  0  0  0  0  0
   57.0769   29.8114   43.2350 H   0  0  0  0  0  0  0  0  0  0  0  0
   57.6070   31.9100   43.1640 C   0  0  0  0  0  0  0  0  0  0  0  0
   57.3321   32.0187   42.1045 H   0  0  0  0  0  0  0  0  0  0  0  0
   58.1090   33.0060   43.8690 C   0  0  0  0  0  0  0  0  0  0  0  0
   58.2067   33.9807   43.3686 H   0  0  0  0  0  0  0  0  0  0  0  0
   58.4880   32.8700   45.2080 C   0  0  0  0  0  0  0  0  0  0  0  0
   58.9900   33.9940   45.8830 O   0  0  0  0  0  0  0  0  0  0  0  0
   60.0630   33.9840   46.7860 C   0  0  0  0  0  0  0  0  0  0  0  0
   61.3940   33.8150   46.3610 C   0  0  0  0  0  0  0  0  0  0  0  0
   61.6152   33.6685   45.2935 H   0  0  0  0  0  0  0  0  0  0  0  0
   62.4360   33.8330   47.2940 C   0  0  0  0  0  0  0  0  0  0  0  0
   63.4743   33.6910   46.9597 H   0  0  0  0  0  0  0  0  0  0  0  0
   62.1610   34.0310   48.6500 C   0  0  0  0  0  0  0  0  0  0  0  0
   62.9817   34.0397   49.3824 H   0  0  0  0  0  0  0  0  0  0  0  0
   60.8420   34.2180   49.0750 C   0  0  0  0  0  0  0  0  0  0  0  0
   60.6259   34.3794   50.1414 H   0  0  0  0  0  0  0  0  0  0  0  0
   59.7980   34.2000   48.1460 C   0  0  0  0  0  0  0  0  0  0  0  0
   58.7628   34.3561   48.4835 H   0  0  0  0  0  0  0  0  0  0  0  0
   58.3150   31.6330   45.8520 C   0  0  0  0  0  0  0  0  0  0  0  0
   58.6038   31.5220   46.9076 H   0  0  0  0  0  0  0  0  0  0  0  0
   58.0000   23.3720   45.2750 N   0  0  0  0  0  0  0  0  0  0  0  0
   59.2010   24.1300   45.6290 C   0  0  0  0  0  0  0  0  0  0  0  0
   59.2897   24.1860   46.7240 H   0  0  0  0  0  0  0  0  0  0  0  0
   60.0873   23.6273   45.2145 H   0  0  0  0  0  0  0  0  0  0  0  0
   59.1286   25.1464   45.2145 H   0  0  0  0  0  0  0  0  0  0  0  0
   57.9970   22.3200   44.4360 C   0  0  0  0  0  0  0  0  0  0  0  0
   58.8838   21.8333   44.0040 H   0  0  0  0  0  0  0  0  0  0  0  0
  1  2  1  0
  2  3  1  0
  3  4  1  0
  4  5  1  0
  5  6  2  0
  6  7  1  0
  7  8  2  0
  7  9  1  0
  9 10  1  0
  9 11  1  0
  9 12  1  0
 12 13  2  0
 12 14  1  0
 14 15  1  0
 15 16  2  0
 16 17  1  0
 16 18  1  0
 18 19  1  0
 18 20  2  0
 20 21  1  0
 20 22  1  0
 22 23  1  0
 23 24  1  0
 24 25  2  0
 25 26  1  0
 25 27  1  0
 27 28  1  0
 27 29  2  0
 29 30  1  0
 29 31  1  0
 31 32  1  0
 31 33  2  0
 33 34  1  0
 22 35  2  0
 35 36  1  0
  5 37  1  0
 37 38  1  0
 38 39  1  0
 38 40  1  0
 38 41  1  0
 37 42  1  0
 42 43  1  0
 42  3  2  0
 35 15  1  0
 33 24  1  0
M  CHG  2   4  -1  14  -1
M  END
>  <UniqueID>  (35) 
33

>  <SMILES>  (35) 
Cn1cc(O)[n-]/c1=N/C(=O)CC(=O)[N-]c1cccc(Oc2ccccc2)c1

>  <Energy>  (35) 
96.87352093918696

>  <Genealogy>  (35) 
Cn1cc(O)[n-]c1=NC(=O)CC(=O)[N-]c1cccc(Oc2ccccc2)c1 (protonated)
Cn1cc(O)[n-]/c1=N/C(=O)CC(=O)[N-]c1cccc(Oc2ccccc2)c1 (cis-trans isomerization)
Cn1cc(O)[n-]/c1=N/C(=O)CC(=O)[N-]c1cccc(Oc2ccccc2)c1 (3D coordinates assigned)
Cn1cc(O)[n-]/c1=N/C(=O)CC(=O)[N-]c1cccc(Oc2ccccc2)c1 (optimized conformer: 96.87352093918696 kcal/mol)

>  <smiles>  (35) 
Cn1cc(O)[nH]c1=NC(=O)CC(=O)Nc1cccc(Oc2ccccc2)c1

>  <score_type>  (35) 
oracle

>  <origin>  (35) 
adg

>  <m_score__min__energy>  (35) 
-12.18

>  <m_primary>  (35) 
energy

$$$$
35:0
     RDKit          3D

 41 44  0  0  0  0  0  0  0  0999 V2000
   55.1470   29.0180   44.4950 O   0  0  0  0  0  0  0  0  0  0  0  0
   56.2870   29.2450   44.9750 C   0  0  0  0  0  0  0  0  0  0  0  0
   56.8280   30.4970   44.9140 N   0  0  0  0  0  0  0  0  0  0  0  0
   58.0700   30.7760   45.4230 C   0  0  0  0  0  0  0  0  0  0  0  0
   58.6130   32.1840   45.3660 C   0  0  1  0  0  0  0  0  0  0  0  0
   57.5110   33.1900   44.9970 C   0  0  0  0  0  0  0  0  0  0  0  0
   58.0900   34.6100   44.8730 C   0  0  0  0  0  0  0  0  0  0  0  0
   59.2470   34.8620   45.8580 C   0  0  0  0  0  0  0  0  0  0  0  0
   59.1030   34.0060   47.0520 N   0  0  0  0  0  0  0  0  0  0  0  0
   60.0470   34.4290   48.1080 C   0  0  0  0  0  0  0  0  0  0  0  0
   61.3300   33.6450   48.0230 C   0  0  0  0  0  0  0  0  0  0  0  0
   62.1840   33.8010   46.9220 C   0  0  0  0  0  0  0  0  0  0  0  0
   63.3840   33.0910   46.8640 C   0  0  0  0  0  0  0  0  0  0  0  0
   63.7230   32.2330   47.9120 C   0  0  0  0  0  0  0  0  0  0  0  0
   62.8890   32.0970   48.9780 N   0  0  0  0  0  0  0  0  0  0  0  0
   61.7150   32.7770   49.0570 C   0  0  0  0  0  0  0  0  0  0  0  0
   59.2930   32.5740   46.7050 C   0  0  0  0  0  0  0  0  0  0  0  0
   58.8040   29.7450   46.0440 C   0  0  0  0  0  0  0  0  0  0  0  0
   58.2410   28.5130   46.0890 N   0  0  0  0  0  0  0  0  0  0  0  0
   58.7020   27.3650   46.6040 C   0  0  0  0  0  0  0  0  0  0  0  0
   57.7280   26.4050   46.3860 C   0  0  0  0  0  0  0  0  0  0  0  0
   56.6670   26.9490   45.7410 N   0  0  0  0  0  0  0  0  0  0  0  0
   57.0310   28.2380   45.5820 C   0  0  0  0  0  0  0  0  0  0  0  0
   59.3770   32.2157   44.5752 H   0  0  0  0  0  0  0  0  0  0  0  0
   57.0624   32.8978   44.0361 H   0  0  0  0  0  0  0  0  0  0  0  0
   56.7493   33.1868   45.7906 H   0  0  0  0  0  0  0  0  0  0  0  0
   58.4623   34.7511   43.8476 H   0  0  0  0  0  0  0  0  0  0  0  0
   57.2858   35.3215   45.1121 H   0  0  0  0  0  0  0  0  0  0  0  0
   60.2017   34.6337   45.3616 H   0  0  0  0  0  0  0  0  0  0  0  0
   59.2257   35.9164   46.1706 H   0  0  0  0  0  0  0  0  0  0  0  0
   60.2695   35.4993   47.9854 H   0  0  0  0  0  0  0  0  0  0  0  0
   59.5849   34.2442   49.0890 H   0  0  0  0  0  0  0  0  0  0  0  0
   61.9082   34.4829   46.1041 H   0  0  0  0  0  0  0  0  0  0  0  0
   64.0563   33.2062   46.0010 H   0  0  0  0  0  0  0  0  0  0  0  0
   64.6652   31.6666   47.8756 H   0  0  0  0  0  0  0  0  0  0  0  0
   61.0642   32.6468   49.9342 H   0  0  0  0  0  0  0  0  0  0  0  0
   60.3713   32.3723   46.6233 H   0  0  0  0  0  0  0  0  0  0  0  0
   58.8249   31.9757   47.5006 H   0  0  0  0  0  0  0  0  0  0  0  0
   59.7977   29.9336   46.4764 H   0  0  0  0  0  0  0  0  0  0  0  0
   59.6698   27.2139   47.1046 H   0  0  0  0  0  0  0  0  0  0  0  0
   57.8044   25.3513   46.6925 H   0  0  0  0  0  0  0  0  0  0  0  0
  1  2  2  0
  2  3  1  0
  3  4  1  0
  4  5  1  0
  5  6  1  0
  6  7  1  0
  7  8  1  0
  8  9  1  0
  9 10  1  0
 10 11  1  0
 11 12  2  0
 12 13  1  0
 13 14  2  0
 14 15  1  0
 15 16  2  0
  9 17  1  0
  4 18  2  0
 18 19  1  0
 19 20  1  0
 20 21  2  0
 21 22  1  0
 22 23  2  0
 23  2  1  0
 17  5  1  0
 23 19  1  0
 16 11  1  0
  5 24  1  6
  6 25  1  0
  6 26  1  0
  7 27  1  0
  7 28  1  0
  8 29  1  0
  8 30  1  0
 10 31  1  0
 10 32  1  0
 12 33  1  0
 13 34  1  0
 14 35  1  0
 16 36  1  0
 17 37  1  0
 17 38  1  0
 18 39  1  0
 20 40  1  0
 21 41  1  0
M  CHG  1   3  -1
M  END
>  <UniqueID>  (36) 
34

>  <SMILES>  (36) 
O=c1[n-]c([C@H]2CCCN(Cc3cccnc3)C2)cn2ccnc12

>  <Energy>  (36) 
87.26979822924629

>  <Genealogy>  (36) 
O=c1[n-]c(C2CCCN(Cc3cccnc3)C2)cn2ccnc12 (protonated)
O=c1[n-]c([C@H]2CCCN(Cc3cccnc3)C2)cn2ccnc12 (chirality)
O=c1[n-]c([C@H]2CCCN(Cc3cccnc3)C2)cn2ccnc12 (3D coordinates assigned)
O=c1[n-]c([C@H]2CCCN(Cc3cccnc3)C2)cn2ccnc12 (nonaromatic ring conformer: 87.26979822924629 kcal/mol)

>  <smiles>  (36) 
O=c1[nH]c(C2CCCN(Cc3cccnc3)C2)cn2ccnc12

>  <score_type>  (36) 
oracle

>  <origin>  (36) 
adg

>  <m_score__min__energy>  (36) 
-10.02

>  <m_primary>  (36) 
energy

$$$$
36:0
     RDKit          3D

 41 43  0  0  0  0  0  0  0  0999 V2000
   60.4976   26.8375   47.5589 H   0  0  0  0  0  0  0  0  0  0  0  0
   59.8600   27.2440   46.7600 C   0  0  0  0  0  0  0  0  0  0  0  0
   60.4420   27.8230   45.6290 C   0  0  0  0  0  0  0  0  0  0  0  0
   61.5372   27.8681   45.5364 H   0  0  0  0  0  0  0  0  0  0  0  0
   59.6330   28.3450   44.6150 C   0  0  0  0  0  0  0  0  0  0  0  0
   60.0942   28.7935   43.7227 H   0  0  0  0  0  0  0  0  0  0  0  0
   58.2330   28.2990   44.7310 C   0  0  0  0  0  0  0  0  0  0  0  0
   57.3620   28.8280   43.6250 C   0  0  0  0  0  0  0  0  0  0  0  0
   56.9833   27.9866   43.0261 H   0  0  0  0  0  0  0  0  0  0  0  0
   57.9558   29.5019   42.9901 H   0  0  0  0  0  0  0  0  0  0  0  0
   56.2080   29.5860   44.1980 C   0  0  0  0  0  0  0  0  0  0  0  0
   55.1440   28.9750   44.4880 O   0  0  0  0  0  0  0  0  0  0  0  0
   56.3810   30.9580   44.5730 N   0  0  0  0  0  0  0  0  0  0  0  0
   57.4160   31.5750   45.0800 C   0  0  0  0  0  0  0  0  0  0  0  0
   57.7650   31.2340   46.3460 N   0  0  0  0  0  0  0  0  0  0  0  0
   58.7270   31.8820   47.0440 C   0  0  0  0  0  0  0  0  0  0  0  0
   59.0150   31.4340   48.4270 C   0  0  0  0  0  0  0  0  0  0  0  0
   58.3060   31.9720   49.5160 C   0  0  0  0  0  0  0  0  0  0  0  0
   57.5456   32.7481   49.3444 H   0  0  0  0  0  0  0  0  0  0  0  0
   58.5630   31.5250   50.8160 C   0  0  0  0  0  0  0  0  0  0  0  0
   58.0115   31.9567   51.6642 H   0  0  0  0  0  0  0  0  0  0  0  0
   59.5190   30.5310   51.0390 C   0  0  0  0  0  0  0  0  0  0  0  0
   59.7229   30.1838   52.0626 H   0  0  0  0  0  0  0  0  0  0  0  0
   60.2160   29.9780   49.9620 C   0  0  0  0  0  0  0  0  0  0  0  0
   60.9658   29.1929   50.1390 H   0  0  0  0  0  0  0  0  0  0  0  0
   59.9630   30.4200   48.6590 C   0  0  0  0  0  0  0  0  0  0  0  0
   60.6570   29.8750   47.6270 F   0  0  0  0  0  0  0  0  0  0  0  0
   59.3860   32.9650   46.4440 C   0  0  0  0  0  0  0  0  0  0  0  0
   60.4340   33.6880   47.1330 C   0  0  0  0  0  0  0  0  0  0  0  0
   61.2730   34.2660   47.6840 N   0  0  0  0  0  0  0  0  0  0  0  0
   59.0730   33.2820   45.1130 C   0  0  0  0  0  0  0  0  0  0  0  0
   59.6750   34.2450   44.5560 O   0  0  0  0  0  0  0  0  0  0  0  0
   58.1460   32.5460   44.4130 N   0  0  0  0  0  0  0  0  0  0  0  0
   58.0910   32.7270   42.9500 C   0  0  0  0  0  0  0  0  0  0  0  0
   57.7783   33.7561   42.7194 H   0  0  0  0  0  0  0  0  0  0  0  0
   59.0862   32.5411   42.5199 H   0  0  0  0  0  0  0  0  0  0  0  0
   57.3675   32.0188   42.5199 H   0  0  0  0  0  0  0  0  0  0  0  0
   57.6560   27.7030   45.8650 C   0  0  0  0  0  0  0  0  0  0  0  0
   56.5613   27.6466   45.9575 H   0  0  0  0  0  0  0  0  0  0  0  0
   58.4690   27.1810   46.8770 C   0  0  0  0  0  0  0  0  0  0  0  0
   58.0127   26.7205   47.7657 H   0  0  0  0  0  0  0  0  0  0  0  0
  1  2  1  0
  2  3  2  0
  3  4  1  0
  3  5  1  0
  5  6  1  0
  5  7  2  0
  7  8  1  0
  8  9  1  0
  8 10  1  0
  8 11  1  0
 11 12  2  0
 11 13  1  0
 13 14  2  0
 14 15  1  0
 15 16  1  0
 16 17  1  0
 17 18  2  0
 18 19  1  0
 18 20  1  0
 20 21  1  0
 20 22  2  0
 22 23  1  0
 22 24  1  0
 24 25  1  0
 24 26  2  0
 26 27  1  0
 16 28  2  0
 28 29  1  0
 29 30  3  0
 28 31  1  0
 31 32  2  0
 31 33  1  0
 33 34  1  0
 34 35  1  0
 34 36  1  0
 34 37  1  0
  7 38  1  0
 38 39  1  0
 38 40  2  0
 40 41  1  0
 40  2  1  0
 33 14  1  0
 26 17  1  0
M  CHG  1  15  -1
M  END
>  <UniqueID>  (37) 
35

>  <SMILES>  (37) 
Cn1c(=O)c(C#N)c(-c2ccccc2F)[n-]/c1=N/C(=O)Cc1ccccc1

>  <Energy>  (37) 
71.87764988346099

>  <Genealogy>  (37) 
Cn1c(=NC(=O)Cc2ccccc2)[n-]c(-c2ccccc2F)c(C#N)c1=O (protonated)
Cn1c(=O)c(C#N)c(-c2ccccc2F)[n-]/c1=N/C(=O)Cc1ccccc1 (cis-trans isomerization)
Cn1c(=O)c(C#N)c(-c2ccccc2F)[n-]/c1=N/C(=O)Cc1ccccc1 (3D coordinates assigned)
Cn1c(=O)c(C#N)c(-c2ccccc2F)[n-]/c1=N/C(=O)Cc1ccccc1 (optimized conformer: 71.87764988346099 kcal/mol)

>  <smiles>  (37) 
Cn1c(=NC(=O)Cc2ccccc2)[nH]c(-c2ccccc2F)c(C#N)c1=O

>  <score_type>  (37) 
oracle

>  <origin>  (37) 
adg

>  <m_score__min__energy>  (37) 
-9.0700000000000003

>  <m_primary>  (37) 
energy

$$$$
37:0
     RDKit          3D

 42 44  0  0  0  0  0  0  0  0999 V2000
   59.4080   28.8530   44.9410 H   0  0  0  0  0  0  0  0  0  0  0  0
   58.8690   29.7330   44.8020 N   0  0  0  0  0  0  0  0  0  0  0  0
   57.5740   29.7950   44.7860 C   0  0  0  0  0  0  0  0  0  0  0  0
   56.6580   28.8100   45.1310 C   0  0  0  0  0  0  0  0  0  0  0  0
   56.8750   27.4390   45.6250 C   0  0  0  0  0  0  0  0  0  0  0  0
   58.0520   26.9900   45.6760 O   0  0  0  0  0  0  0  0  0  0  0  0
   55.7700   26.6000   45.9770 N   0  0  0  0  0  0  0  0  0  0  0  0
   55.8030   25.1820   46.1960 C   0  0  0  0  0  0  0  0  0  0  0  0
   56.9620   24.5370   46.6710 C   0  0  0  0  0  0  0  0  0  0  0  0
   57.8768   25.1192   46.8559 H   0  0  0  0  0  0  0  0  0  0  0  0
   56.9530   23.1600   46.9080 C   0  0  0  0  0  0  0  0  0  0  0  0
   57.8634   22.6598   47.2699 H   0  0  0  0  0  0  0  0  0  0  0  0
   55.7930   22.4180   46.6870 C   0  0  0  0  0  0  0  0  0  0  0  0
   55.7919   21.3330   46.8682 H   0  0  0  0  0  0  0  0  0  0  0  0
   54.6330   23.0510   46.2360 C   0  0  0  0  0  0  0  0  0  0  0  0
   53.7193   22.4623   46.0671 H   0  0  0  0  0  0  0  0  0  0  0  0
   54.6260   24.4390   45.9960 C   0  0  0  0  0  0  0  0  0  0  0  0
   53.4760   25.1140   45.5550 O   0  0  0  0  0  0  0  0  0  0  0  0
   52.3410   24.4780   44.9760 C   0  0  0  0  0  0  0  0  0  0  0  0
   51.6809   24.1081   45.7744 H   0  0  0  0  0  0  0  0  0  0  0  0
   51.7936   25.2008   44.3532 H   0  0  0  0  0  0  0  0  0  0  0  0
   52.6717   23.6338   44.3532 H   0  0  0  0  0  0  0  0  0  0  0  0
   55.4290   29.3420   44.9480 N   0  0  0  0  0  0  0  0  0  0  0  0
   55.5900   30.5870   44.5170 N   0  0  0  0  0  0  0  0  0  0  0  0
   56.8760   30.8770   44.4040 N   0  0  0  0  0  0  0  0  0  0  0  0
   57.3940   32.1880   44.0180 C   0  0  0  0  0  0  0  0  0  0  0  0
   58.1270   32.0663   43.2069 H   0  0  0  0  0  0  0  0  0  0  0  0
   56.5616   32.8199   43.6748 H   0  0  0  0  0  0  0  0  0  0  0  0
   58.0590   32.8420   45.1970 C   0  0  0  0  0  0  0  0  0  0  0  0
   57.7970   32.3860   46.4980 C   0  0  0  0  0  0  0  0  0  0  0  0
   57.0735   31.5730   46.6577 H   0  0  0  0  0  0  0  0  0  0  0  0
   58.4510   32.9600   47.5920 C   0  0  0  0  0  0  0  0  0  0  0  0
   58.2418   32.5946   48.6082 H   0  0  0  0  0  0  0  0  0  0  0  0
   59.3730   34.0000   47.4000 C   0  0  0  0  0  0  0  0  0  0  0  0
   60.1050   34.5940   48.5660 C   0  0  0  0  0  0  0  0  0  0  0  0
   59.6578   34.2311   49.5032 H   0  0  0  0  0  0  0  0  0  0  0  0
   61.1631   34.2959   48.5251 H   0  0  0  0  0  0  0  0  0  0  0  0
   60.0312   35.6908   48.5251 H   0  0  0  0  0  0  0  0  0  0  0  0
   59.6570   34.4360   46.0980 C   0  0  0  0  0  0  0  0  0  0  0  0
   60.3972   35.2336   45.9372 H   0  0  0  0  0  0  0  0  0  0  0  0
   59.0040   33.8620   45.0030 C   0  0  0  0  0  0  0  0  0  0  0  0
   59.2317   34.2111   43.9850 H   0  0  0  0  0  0  0  0  0  0  0  0
  1  2  1  0
  2  3  2  0
  3  4  1  0
  4  5  1  0
  5  6  2  0
  5  7  1  0
  7  8  1  0
  8  9  2  0
  9 10  1  0
  9 11  1  0
 11 12  1  0
 11 13  2  0
 13 14  1  0
 13 15  1  0
 15 16  1  0
 15 17  2  0
 17 18  1  0
 18 19  1  0
 19 20  1  0
 19 21  1  0
 19 22  1  0
  4 23  2  0
 23 24  1  0
 24 25  1  0
 25 26  1  0
 26 27  1  0
 26 28  1  0
 26 29  1  0
 29 30  2  0
 30 31  1  0
 30 32  1  0
 32 33  1  0
 32 34  2  0
 34 35  1  0
 35 36  1  0
 35 37  1  0
 35 38  1  0
 34 39  1  0
 39 40  1  0
 39 41  2  0
 41 42  1  0
 25  3  1  0
 41 29  1  0
 17  8  1  0
M  CHG  2   7  -1  24  -1
M  END
>  <UniqueID>  (38) 
36

>  <SMILES>  (38) 
[H]/N=c1\c(C(=O)[N-]c2ccccc2OC)n[n-]n1Cc1ccc(C)cc1

>  <Energy>  (38) 
84.46833114622845

>  <Genealogy>  (38) 
COc1ccccc1[N-]C(=O)c1n[n-]n(Cc2ccc(C)cc2)c1=N (protonated)
[H]/N=c1\c(C(=O)[N-]c2ccccc2OC)n[n-]n1Cc1ccc(C)cc1 (cis-trans isomerization)
[H]/N=c1\c(C(=O)[N-]c2ccccc2OC)n[n-]n1Cc1ccc(C)cc1 (3D coordinates assigned)
[H]/N=c1\c(C(=O)[N-]c2ccccc2OC)n[n-]n1Cc1ccc(C)cc1 (optimized conformer: 84.46833114622845 kcal/mol)

>  <smiles>  (38) 
COc1ccccc1NC(=O)c1n[nH]n(Cc2ccc(C)cc2)c1=N

>  <score_type>  (38) 
oracle

>  <origin>  (38) 
adg

>  <m_score__min__energy>  (38) 
-10.949999999999999

>  <m_primary>  (38) 
energy

$$$$
38:0
     RDKit          3D

 53 55  0  0  0  0  0  0  0  0999 V2000
   61.2820   30.0130   47.9700 N   0  0  0  0  0  0  0  0  0  0  0  0
   60.3360   30.5750   47.0010 C   0  0  1  0  0  0  0  0  0  0  0  0
   60.7630   32.0050   46.6030 C   0  0  0  0  0  0  0  0  0  0  0  0
   61.5400   32.6970   47.7050 C   0  0  0  0  0  0  0  0  0  0  0  0
   62.8650   33.0920   47.4460 C   0  0  0  0  0  0  0  0  0  0  0  0
   63.6280   33.7150   48.4360 C   0  0  0  0  0  0  0  0  0  0  0  0
   63.0810   33.9520   49.6960 C   0  0  0  0  0  0  0  0  0  0  0  0
   61.7680   33.5670   49.9730 C   0  0  0  0  0  0  0  0  0  0  0  0
   61.2510   33.8050   51.2050 F   0  0  0  0  0  0  0  0  0  0  0  0
   60.9900   32.9400   48.9870 C   0  0  0  0  0  0  0  0  0  0  0  0
   59.3400   32.4790   49.3990 Cl  0  0  0  0  0  0  0  0  0  0  0  0
   60.1070   29.6860   45.7820 C   0  0  0  0  0  0  0  0  0  0  0  0
   61.1250   29.3020   45.1440 O   0  0  0  0  0  0  0  0  0  0  0  0
   58.7950   29.3130   45.2940 N   0  0  0  0  0  0  0  0  0  0  0  0
   58.2170   30.0300   44.1440 C   0  0  0  0  0  0  0  0  0  0  0  0
   57.1850   31.0830   44.5760 C   0  0  0  0  0  0  0  0  0  0  0  0
   57.8450   32.3510   45.0480 C   0  0  0  0  0  0  0  0  0  0  0  0
   58.6610   33.0900   44.1760 C   0  0  0  0  0  0  0  0  0  0  0  0
   59.2440   34.2870   44.6020 C   0  0  0  0  0  0  0  0  0  0  0  0
   59.0170   34.7580   45.8990 C   0  0  0  0  0  0  0  0  0  0  0  0
   59.6000   35.9550   46.3080 O   0  0  0  0  0  0  0  0  0  0  0  0
   58.2070   34.0220   46.7740 C   0  0  0  0  0  0  0  0  0  0  0  0
   57.6250   32.8230   46.3520 C   0  0  0  0  0  0  0  0  0  0  0  0
   58.1870   28.0680   45.6760 C   0  0  0  0  0  0  0  0  0  0  0  0
   58.9820   26.9990   46.1040 C   0  0  0  0  0  0  0  0  0  0  0  0
   58.3970   25.7870   46.4780 C   0  0  0  0  0  0  0  0  0  0  0  0
   56.9990   25.6240   46.4420 C   0  0  0  0  0  0  0  0  0  0  0  0
   56.4100   24.3210   46.8420 C   0  0  0  0  0  0  0  0  0  0  0  0
   55.1820   24.0890   46.6830 O   0  0  0  0  0  0  0  0  0  0  0  0
   57.2100   23.3310   47.3990 O   0  0  0  0  0  0  0  0  0  0  0  0
   56.1990   26.7120   46.0270 C   0  0  0  0  0  0  0  0  0  0  0  0
   54.8130   26.6120   45.9840 O   0  0  0  0  0  0  0  0  0  0  0  0
   56.7940   27.9230   45.6550 C   0  0  0  0  0  0  0  0  0  0  0  0
   61.5340   29.0350   47.7050 H   0  0  0  0  0  0  0  0  0  0  0  0
   62.1500   30.5920   48.0180 H   0  0  0  0  0  0  0  0  0  0  0  0
   59.3582   30.6257   47.5023 H   0  0  0  0  0  0  0  0  0  0  0  0
   61.3955   31.9490   45.7048 H   0  0  0  0  0  0  0  0  0  0  0  0
   59.8508   32.5899   46.4138 H   0  0  0  0  0  0  0  0  0  0  0  0
   63.3043   32.9085   46.4544 H   0  0  0  0  0  0  0  0  0  0  0  0
   64.6629   34.0194   48.2210 H   0  0  0  0  0  0  0  0  0  0  0  0
   63.6848   34.4431   50.4733 H   0  0  0  0  0  0  0  0  0  0  0  0
   59.0277   30.5324   43.5959 H   0  0  0  0  0  0  0  0  0  0  0  0
   57.7024   29.2928   43.5103 H   0  0  0  0  0  0  0  0  0  0  0  0
   56.5352   31.3171   43.7199 H   0  0  0  0  0  0  0  0  0  0  0  0
   56.6028   30.6686   45.4122 H   0  0  0  0  0  0  0  0  0  0  0  0
   58.8420   32.7256   43.1540 H   0  0  0  0  0  0  0  0  0  0  0  0
   59.8835   34.8603   43.9147 H   0  0  0  0  0  0  0  0  0  0  0  0
   59.2130   36.4990   47.0710 H   0  0  0  0  0  0  0  0  0  0  0  0
   58.0286   34.3886   47.7956 H   0  0  0  0  0  0  0  0  0  0  0  0
   56.9926   32.2474   47.0439 H   0  0  0  0  0  0  0  0  0  0  0  0
   60.0752   27.1139   46.1462 H   0  0  0  0  0  0  0  0  0  0  0  0
   59.0346   24.9519   46.8038 H   0  0  0  0  0  0  0  0  0  0  0  0
   56.1624   28.7680   45.3435 H   0  0  0  0  0  0  0  0  0  0  0  0
  1  2  1  0
  2  3  1  0
  3  4  1  0
  4  5  2  0
  5  6  1  0
  6  7  2  0
  7  8  1  0
  8  9  1  0
  8 10  2  0
 10 11  1  0
  2 12  1  0
 12 13  2  0
 12 14  1  0
 14 15  1  0
 15 16  1  0
 16 17  1  0
 17 18  2  0
 18 19  1  0
 19 20  2  0
 20 21  1  0
 20 22  1  0
 22 23  2  0
 14 24  1  0
 24 25  2  0
 25 26  1  0
 26 27  2  0
 27 28  1  0
 28 29  2  0
 28 30  1  0
 27 31  1  0
 31 32  1  0
 31 33  2  0
 10  4  1  0
 23 17  1  0
 33 24  1  0
  1 34  1  0
  1 35  1  0
  2 36  1  1
  3 37  1  0
  3 38  1  0
  5 39  1  0
  6 40  1  0
  7 41  1  0
 15 42  1  0
 15 43  1  0
 16 44  1  0
 16 45  1  0
 18 46  1  0
 19 47  1  0
 21 48  1  0
 22 49  1  0
 23 50  1  0
 25 51  1  0
 26 52  1  0
 33 53  1  0
M  CHG  2  30  -1  32  -1
M  END
>  <UniqueID>  (39) 
37

>  <SMILES>  (39) 
N[C@@H](Cc1cccc(F)c1Cl)C(=O)N(CCc1ccc(O)cc1)c1ccc(C(=O)[O-])c([O-])c1

>  <Energy>  (39) 
63.554853500270646

>  <Genealogy>  (39) 
NC(Cc1cccc(F)c1Cl)C(=O)N(CCc1ccc(O)cc1)c1ccc(C(=O)[O-])c([O-])c1 (protonated)
N[C@@H](Cc1cccc(F)c1Cl)C(=O)N(CCc1ccc(O)cc1)c1ccc(C(=O)[O-])c([O-])c1 (chirality)
N[C@@H](Cc1cccc(F)c1Cl)C(=O)N(CCc1ccc(O)cc1)c1ccc(C(=O)[O-])c([O-])c1 (3D coordinates assigned)
N[C@@H](Cc1cccc(F)c1Cl)C(=O)N(CCc1ccc(O)cc1)c1ccc(C(=O)[O-])c([O-])c1 (optimized conformer: 63.554853500270646 kcal/mol)

>  <smiles>  (39) 
NC(Cc1cccc(F)c1Cl)C(=O)N(CCc1ccc(O)cc1)c1ccc(C(=O)O)c(O)c1

>  <score_type>  (39) 
oracle

>  <origin>  (39) 
adg

>  <m_score__min__energy>  (39) 
-14.23

>  <m_primary>  (39) 
energy

$$$$
39:0
     RDKit          3D

 51 53  0  0  0  0  0  0  0  0999 V2000
   55.1530   25.9190   46.3550 O   0  0  0  0  0  0  0  0  0  0  0  0
   56.1850   26.5350   45.9780 C   0  0  0  0  0  0  0  0  0  0  0  0
   57.5200   25.8350   46.0150 C   0  0  0  0  0  0  0  0  0  0  0  0
   57.4840   24.5410   45.2430 C   0  0  0  0  0  0  0  0  0  0  0  0
   58.3610   23.4940   45.5790 C   0  0  0  0  0  0  0  0  0  0  0  0
   58.3500   22.3040   44.8440 C   0  0  0  0  0  0  0  0  0  0  0  0
   57.4800   22.1560   43.7610 C   0  0  0  0  0  0  0  0  0  0  0  0
   56.6100   23.1980   43.4150 C   0  0  0  0  0  0  0  0  0  0  0  0
   56.6170   24.3900   44.1460 C   0  0  0  0  0  0  0  0  0  0  0  0
   56.0570   27.9120   45.5960 N   0  0  0  0  0  0  0  0  0  0  0  0
   56.8520   28.6010   44.5830 C   0  0  0  0  0  0  0  0  0  0  0  0
   56.4950   30.0590   44.5070 C   0  0  0  0  0  0  0  0  0  0  0  0
   55.3330   30.3630   44.1200 O   0  0  0  0  0  0  0  0  0  0  0  0
   57.4320   31.1100   44.8580 N   0  0  0  0  0  0  0  0  0  0  0  0
   58.8900   30.9300   44.7200 C   0  0  0  0  0  0  0  0  0  0  0  0
   59.4030   29.8140   45.5990 C   0  0  0  0  0  0  0  0  0  0  0  0
   59.1830   29.8390   46.9890 C   0  0  0  0  0  0  0  0  0  0  0  0
   59.6810   28.8150   47.8020 C   0  0  0  0  0  0  0  0  0  0  0  0
   60.3700   27.7370   47.2290 C   0  0  0  0  0  0  0  0  0  0  0  0
   60.5520   27.6800   45.8450 C   0  0  0  0  0  0  0  0  0  0  0  0
   60.0740   28.7130   45.0310 C   0  0  0  0  0  0  0  0  0  0  0  0
   56.9060   32.4310   45.2460 C   0  0  0  0  0  0  0  0  0  0  0  0
   57.9820   33.2950   45.8560 C   0  0  0  0  0  0  0  0  0  0  0  0
   58.2900   33.1810   47.2220 C   0  0  0  0  0  0  0  0  0  0  0  0
   59.2690   33.9990   47.7960 C   0  0  0  0  0  0  0  0  0  0  0  0
   59.9490   34.9350   47.0120 C   0  0  0  0  0  0  0  0  0  0  0  0
   59.6550   35.0540   45.6490 C   0  0  0  0  0  0  0  0  0  0  0  0
   58.6760   34.2380   45.0710 C   0  0  0  0  0  0  0  0  0  0  0  0
   58.2820   26.4941   45.5735 H   0  0  0  0  0  0  0  0  0  0  0  0
   57.7619   25.6061   47.0634 H   0  0  0  0  0  0  0  0  0  0  0  0
   59.0576   23.6113   46.4222 H   0  0  0  0  0  0  0  0  0  0  0  0
   59.0280   21.4827   45.1194 H   0  0  0  0  0  0  0  0  0  0  0  0
   57.4781   21.2218   43.1803 H   0  0  0  0  0  0  0  0  0  0  0  0
   55.9201   23.0783   42.5667 H   0  0  0  0  0  0  0  0  0  0  0  0
   55.9428   25.2116   43.8624 H   0  0  0  0  0  0  0  0  0  0  0  0
   57.9178   28.5059   44.8382 H   0  0  0  0  0  0  0  0  0  0  0  0
   56.6432   28.1411   43.6058 H   0  0  0  0  0  0  0  0  0  0  0  0
   59.1218   30.6924   43.6713 H   0  0  0  0  0  0  0  0  0  0  0  0
   59.3808   31.8638   45.0316 H   0  0  0  0  0  0  0  0  0  0  0  0
   58.6166   30.6679   47.4385 H   0  0  0  0  0  0  0  0  0  0  0  0
   59.5318   28.8558   48.8911 H   0  0  0  0  0  0  0  0  0  0  0  0
   60.7675   26.9357   47.8693 H   0  0  0  0  0  0  0  0  0  0  0  0
   61.0719   26.8217   45.3944 H   0  0  0  0  0  0  0  0  0  0  0  0
   60.2229   28.6652   43.9422 H   0  0  0  0  0  0  0  0  0  0  0  0
   56.5071   32.9337   44.3526 H   0  0  0  0  0  0  0  0  0  0  0  0
   56.1153   32.2819   45.9961 H   0  0  0  0  0  0  0  0  0  0  0  0
   57.7587   32.4449   47.8432 H   0  0  0  0  0  0  0  0  0  0  0  0
   59.5040   33.9053   48.8665 H   0  0  0  0  0  0  0  0  0  0  0  0
   60.7162   35.5789   47.4668 H   0  0  0  0  0  0  0  0  0  0  0  0
   60.1933   35.7887   45.0322 H   0  0  0  0  0  0  0  0  0  0  0  0
   58.4470   34.3329   43.9993 H   0  0  0  0  0  0  0  0  0  0  0  0
  1  2  2  0
  2  3  1  0
  3  4  1  0
  4  5  2  0
  5  6  1  0
  6  7  2  0
  7  8  1  0
  8  9  2  0
  2 10  1  0
 10 11  1  0
 11 12  1  0
 12 13  2  0
 12 14  1  0
 14 15  1  0
 15 16  1  0
 16 17  2  0
 17 18  1  0
 18 19  2  0
 19 20  1  0
 20 21  2  0
 14 22  1  0
 22 23  1  0
 23 24  2  0
 24 25  1  0
 25 26  2  0
 26 27  1  0
 27 28  2  0
  9  4  1  0
 21 16  1  0
 28 23  1  0
  3 29  1  0
  3 30  1  0
  5 31  1  0
  6 32  1  0
  7 33  1  0
  8 34  1  0
  9 35  1  0
 11 36  1  0
 11 37  1  0
 15 38  1  0
 15 39  1  0
 17 40  1  0
 18 41  1  0
 19 42  1  0
 20 43  1  0
 21 44  1  0
 22 45  1  0
 22 46  1  0
 24 47  1  0
 25 48  1  0
 26 49  1  0
 27 50  1  0
 28 51  1  0
M  CHG  1  10  -1
M  END
>  <UniqueID>  (40) 
38

>  <SMILES>  (40) 
O=C(Cc1ccccc1)[N-]CC(=O)N(Cc1ccccc1)Cc1ccccc1

>  <Energy>  (40) 
51.979584772046145

>  <Genealogy>  (40) 
O=C(Cc1ccccc1)[N-]CC(=O)N(Cc1ccccc1)Cc1ccccc1 (protonated)
O=C(Cc1ccccc1)[N-]CC(=O)N(Cc1ccccc1)Cc1ccccc1 (3D coordinates assigned)
O=C(Cc1ccccc1)[N-]CC(=O)N(Cc1ccccc1)Cc1ccccc1 (optimized conformer: 51.979584772046145 kcal/mol)

>  <smiles>  (40) 
O=C(Cc1ccccc1)NCC(=O)N(Cc1ccccc1)Cc1ccccc1

>  <score_type>  (40) 
oracle

>  <origin>  (40) 
adg

>  <m_score__min__energy>  (40) 
-11.92

>  <m_primary>  (40) 
energy

$$$$
40:0
     RDKit          3D

 34 35  0  0  0  0  0  0  0  0999 V2000
   59.5910   35.2050   46.7510 C   0  0  0  0  0  0  0  0  0  0  0  0
   59.5350   34.6760   45.4290 O   0  0  0  0  0  0  0  0  0  0  0  0
   58.8060   33.5350   45.0630 C   0  0  0  0  0  0  0  0  0  0  0  0
   58.4810   32.6070   46.0590 C   0  0  0  0  0  0  0  0  0  0  0  0
   57.7580   31.4520   45.7450 C   0  0  0  0  0  0  0  0  0  0  0  0
   57.3570   31.2080   44.4240 C   0  0  0  0  0  0  0  0  0  0  0  0
   56.4540   29.7530   44.0130 S   0  0  0  0  0  0  0  0  0  0  0  0
   55.1820   29.6860   44.8130 O   0  0  0  0  0  0  0  0  0  0  0  0
   56.1010   29.7980   42.5530 O   0  0  0  0  0  0  0  0  0  0  0  0
   57.4210   28.2800   44.3350 C   0  0  0  0  0  0  0  0  0  0  0  0
   57.5990   27.9970   45.8350 C   0  0  0  0  0  0  0  0  0  0  0  0
   57.4260   26.5670   46.1500 N   0  0  0  0  0  0  0  0  0  0  0  0
   58.5310   25.7870   46.3590 C   0  0  0  0  0  0  0  0  0  0  0  0
   58.3950   24.4370   46.6780 C   0  0  0  0  0  0  0  0  0  0  0  0
   57.1150   23.9010   46.7670 C   0  0  0  0  0  0  0  0  0  0  0  0
   56.9540   22.6860   47.0550 O   0  0  0  0  0  0  0  0  0  0  0  0
   56.0360   24.6900   46.5400 N   0  0  0  0  0  0  0  0  0  0  0  0
   56.1770   26.0060   46.2310 C   0  0  0  0  0  0  0  0  0  0  0  0
   55.1440   26.6970   46.0180 O   0  0  0  0  0  0  0  0  0  0  0  0
   57.6730   32.1380   43.4260 C   0  0  0  0  0  0  0  0  0  0  0  0
   58.3940   33.2930   43.7390 C   0  0  0  0  0  0  0  0  0  0  0  0
   59.5041   34.3843   47.4783 H   0  0  0  0  0  0  0  0  0  0  0  0
   60.5492   35.7250   46.8976 H   0  0  0  0  0  0  0  0  0  0  0  0
   58.7629   35.9141   46.8976 H   0  0  0  0  0  0  0  0  0  0  0  0
   58.7968   32.7877   47.0971 H   0  0  0  0  0  0  0  0  0  0  0  0
   57.5031   30.7325   46.5371 H   0  0  0  0  0  0  0  0  0  0  0  0
   56.9143   27.4197   43.8733 H   0  0  0  0  0  0  0  0  0  0  0  0
   58.4220   28.4428   43.9089 H   0  0  0  0  0  0  0  0  0  0  0  0
   58.6097   28.3079   46.1379 H   0  0  0  0  0  0  0  0  0  0  0  0
   56.8294   28.5616   46.3817 H   0  0  0  0  0  0  0  0  0  0  0  0
   59.5347   26.2291   46.2745 H   0  0  0  0  0  0  0  0  0  0  0  0
   59.2808   23.8094   46.8555 H   0  0  0  0  0  0  0  0  0  0  0  0
   57.3517   31.9581   42.3895 H   0  0  0  0  0  0  0  0  0  0  0  0
   58.6407   34.0161   42.9476 H   0  0  0  0  0  0  0  0  0  0  0  0
  1  2  1  0
  2  3  1  0
  3  4  2  0
  4  5  1  0
  5  6  2  0
  6  7  1  0
  7  8  2  0
  7  9  2  0
  7 10  1  0
 10 11  1  0
 11 12  1  0
 12 13  1  0
 13 14  2  0
 14 15  1  0
 15 16  2  0
 15 17  1  0
 17 18  1  0
 18 19  2  0
  6 20  1  0
 20 21  2  0
 21  3  1  0
 18 12  1  0
  1 22  1  0
  1 23  1  0
  1 24  1  0
  4 25  1  0
  5 26  1  0
 10 27  1  0
 10 28  1  0
 11 29  1  0
 11 30  1  0
 13 31  1  0
 14 32  1  0
 20 33  1  0
 21 34  1  0
M  CHG  1  17  -1
M  END
>  <UniqueID>  (41) 
39

>  <SMILES>  (41) 
COc1ccc(S(=O)(=O)CCn2ccc(=O)[n-]c2=O)cc1

>  <Energy>  (41) 
31.20055217891311

>  <Genealogy>  (41) 
COc1ccc(S(=O)(=O)CCn2ccc(=O)[n-]c2=O)cc1 (protonated)
COc1ccc(S(=O)(=O)CCn2ccc(=O)[n-]c2=O)cc1 (3D coordinates assigned)
COc1ccc(S(=O)(=O)CCn2ccc(=O)[n-]c2=O)cc1 (optimized conformer: 31.20055217891311 kcal/mol)

>  <smiles>  (41) 
COc1ccc(S(=O)(=O)CCn2ccc(=O)[nH]c2=O)cc1

>  <score_type>  (41) 
oracle

>  <origin>  (41) 
adg

>  <m_score__min__energy>  (41) 
-9.4600000000000009

>  <m_primary>  (41) 
energy

$$$$
41:0
     RDKit          3D

 44 47  0  0  0  0  0  0  0  0999 V2000
   56.1530   28.8480   44.9170 O   0  0  0  0  0  0  0  0  0  0  0  0
   56.9550   28.1650   45.6080 C   0  0  0  0  0  0  0  0  0  0  0  0
   56.6610   26.7380   45.8310 C   0  0  0  0  0  0  0  0  0  0  0  0
   57.4600   25.6630   45.4870 C   0  0  0  0  0  0  0  0  0  0  0  0
   56.7100   24.5700   45.8650 C   0  0  0  0  0  0  0  0  0  0  0  0
   57.0780   23.1570   45.7190 C   0  0  0  0  0  0  0  0  0  0  0  0
   57.1300   22.4440   44.5370 C   0  0  0  0  0  0  0  0  0  0  0  0
   57.5070   21.1650   44.8910 C   0  0  0  0  0  0  0  0  0  0  0  0
   57.6670   21.1810   46.2610 C   0  0  0  0  0  0  0  0  0  0  0  0
   57.4050   22.3810   46.7270 O   0  0  0  0  0  0  0  0  0  0  0  0
   55.5760   24.9890   46.3770 O   0  0  0  0  0  0  0  0  0  0  0  0
   55.5110   26.2890   46.3670 N   0  0  0  0  0  0  0  0  0  0  0  0
   58.1350   28.7880   46.1490 N   0  0  0  0  0  0  0  0  0  0  0  0
   58.8110   29.8370   45.3750 C   0  0  0  0  0  0  0  0  0  0  0  0
   60.1430   30.2320   46.0310 C   0  0  0  0  0  0  0  0  0  0  0  0
   59.9970   30.5630   47.4680 N   0  0  0  0  0  0  0  0  0  0  0  0
   60.0180   32.0100   47.7850 C   0  0  0  0  0  0  0  0  0  0  0  0
   59.2550   32.8640   46.7890 C   0  0  0  0  0  0  0  0  0  0  0  0
   57.8550   32.7400   46.6570 C   0  0  0  0  0  0  0  0  0  0  0  0
   57.1610   33.5100   45.7180 C   0  0  0  0  0  0  0  0  0  0  0  0
   57.8480   34.4310   44.9230 C   0  0  0  0  0  0  0  0  0  0  0  0
   59.2290   34.5900   45.0710 C   0  0  0  0  0  0  0  0  0  0  0  0
   59.9310   33.8160   46.0020 C   0  0  0  0  0  0  0  0  0  0  0  0
   58.9690   29.7930   48.2130 C   0  0  0  0  0  0  0  0  0  0  0  0
   58.5980   28.4870   47.5080 C   0  0  0  0  0  0  0  0  0  0  0  0
   58.4569   25.6768   45.0223 H   0  0  0  0  0  0  0  0  0  0  0  0
   56.9156   22.8179   43.5250 H   0  0  0  0  0  0  0  0  0  0  0  0
   57.6508   20.3070   44.2178 H   0  0  0  0  0  0  0  0  0  0  0  0
   57.9689   20.3177   46.8722 H   0  0  0  0  0  0  0  0  0  0  0  0
   59.0068   29.4647   44.3586 H   0  0  0  0  0  0  0  0  0  0  0  0
   58.1600   30.7230   45.3415 H   0  0  0  0  0  0  0  0  0  0  0  0
   60.8462   29.3918   45.9331 H   0  0  0  0  0  0  0  0  0  0  0  0
   60.5114   31.1328   45.5184 H   0  0  0  0  0  0  0  0  0  0  0  0
   59.5713   32.1541   48.7799 H   0  0  0  0  0  0  0  0  0  0  0  0
   61.0690   32.3324   47.7461 H   0  0  0  0  0  0  0  0  0  0  0  0
   57.3063   32.0332   47.2968 H   0  0  0  0  0  0  0  0  0  0  0  0
   56.0733   33.3904   45.6053 H   0  0  0  0  0  0  0  0  0  0  0  0
   57.3020   35.0312   44.1803 H   0  0  0  0  0  0  0  0  0  0  0  0
   59.7655   35.3257   44.4538 H   0  0  0  0  0  0  0  0  0  0  0  0
   61.0162   33.9520   46.1195 H   0  0  0  0  0  0  0  0  0  0  0  0
   59.3604   29.5562   49.2134 H   0  0  0  0  0  0  0  0  0  0  0  0
   58.0621   30.4126   48.2728 H   0  0  0  0  0  0  0  0  0  0  0  0
   59.4800   27.8315   47.4596 H   0  0  0  0  0  0  0  0  0  0  0  0
   57.7984   27.9790   48.0672 H   0  0  0  0  0  0  0  0  0  0  0  0
  1  2  2  0
  2  3  1  0
  3  4  1  0
  4  5  2  0
  5  6  1  0
  6  7  2  0
  7  8  1  0
  8  9  2  0
  9 10  1  0
  5 11  1  0
 11 12  1  0
  2 13  1  0
 13 14  1  0
 14 15  1  0
 15 16  1  0
 16 17  1  0
 17 18  1  0
 18 19  2  0
 19 20  1  0
 20 21  2  0
 21 22  1  0
 22 23  2  0
 16 24  1  0
 24 25  1  0
 12  3  2  0
 25 13  1  0
 10  6  1  0
 23 18  1  0
  4 26  1  0
  7 27  1  0
  8 28  1  0
  9 29  1  0
 14 30  1  0
 14 31  1  0
 15 32  1  0
 15 33  1  0
 17 34  1  0
 17 35  1  0
 19 36  1  0
 20 37  1  0
 21 38  1  0
 22 39  1  0
 23 40  1  0
 24 41  1  0
 24 42  1  0
 25 43  1  0
 25 44  1  0
M  END
>  <UniqueID>  (42) 
40

>  <SMILES>  (42) 
O=C(c1cc(-c2ccco2)on1)N1CCN(Cc2ccccc2)CC1

>  <Energy>  (42) 
115.34244124001007

>  <Genealogy>  (42) 
O=C(c1cc(-c2ccco2)on1)N1CCN(Cc2ccccc2)CC1 (3D coordinates assigned)
O=C(c1cc(-c2ccco2)on1)N1CCN(Cc2ccccc2)CC1 (nonaromatic ring conformer: 115.34244124001007 kcal/mol)

>  <smiles>  (42) 
O=C(c1cc(-c2ccco2)on1)N1CCN(Cc2ccccc2)CC1

>  <score_type>  (42) 
oracle

>  <origin>  (42) 
adg

>  <m_score__min__energy>  (42) 
-8.2699999999999996

>  <m_primary>  (42) 
energy

$$$$
42:0
     RDKit          3D

 49 49  0  0  0  0  0  0  0  0999 V2000
   58.9000   34.5450   45.8620 C   0  0  0  0  0  0  0  0  0  0  0  0
   57.8870   33.6080   45.1970 C   0  0  0  0  0  0  0  0  0  0  0  0
   58.3240   32.1290   45.2180 C   0  0  0  0  0  0  0  0  0  0  0  0
   58.1150   31.4110   43.8680 C   0  0  0  0  0  0  0  0  0  0  0  0
   57.7290   29.9320   44.0490 C   0  0  0  0  0  0  0  0  0  0  0  0
   56.3240   29.7820   44.5790 C   0  0  0  0  0  0  0  0  0  0  0  0
   55.5260   30.7540   44.5000 O   0  0  0  0  0  0  0  0  0  0  0  0
   55.8860   28.5870   45.2360 N   0  0  0  0  0  0  0  0  0  0  0  0
   56.7660   27.5090   45.6720 C   0  0  0  0  0  0  0  0  0  0  0  0
   55.9740   26.2510   45.8540 C   0  0  0  0  0  0  0  0  0  0  0  0
   54.7260   26.3300   46.0000 O   0  0  0  0  0  0  0  0  0  0  0  0
   56.5880   24.9550   45.8470 N   0  0  0  0  0  0  0  0  0  0  0  0
   58.0150   24.6870   45.6880 C   0  0  0  0  0  0  0  0  0  0  0  0
   58.8260   25.3790   46.7400 C   0  0  0  0  0  0  0  0  0  0  0  0
   58.3040   25.6300   47.8600 O   0  0  0  0  0  0  0  0  0  0  0  0
   60.1730   25.7770   46.4700 N   0  0  0  0  0  0  0  0  0  0  0  0
   60.5360   27.1400   46.1140 C   0  0  0  0  0  0  0  0  0  0  0  0
   60.0790   28.0740   47.1970 C   0  0  0  0  0  0  0  0  0  0  0  0
   60.3680   27.7960   48.5430 C   0  0  0  0  0  0  0  0  0  0  0  0
   59.9190   28.6530   49.5520 C   0  0  0  0  0  0  0  0  0  0  0  0
   59.1650   29.7900   49.2280 C   0  0  0  0  0  0  0  0  0  0  0  0
   58.5990   30.8650   50.5040 S   0  0  0  0  0  0  0  0  0  0  0  0
   58.0670   32.3570   49.8150 N   0  0  0  0  0  0  0  0  0  0  0  0
   59.7130   31.1330   51.4770 O   0  0  0  0  0  0  0  0  0  0  0  0
   57.4600   30.2180   51.2430 O   0  0  0  0  0  0  0  0  0  0  0  0
   58.8480   30.0530   47.8890 C   0  0  0  0  0  0  0  0  0  0  0  0
   59.2980   29.1970   46.8770 C   0  0  0  0  0  0  0  0  0  0  0  0
   58.8120   34.4636   46.9554 H   0  0  0  0  0  0  0  0  0  0  0  0
   59.9176   34.2628   45.5541 H   0  0  0  0  0  0  0  0  0  0  0  0
   58.6979   35.5815   45.5541 H   0  0  0  0  0  0  0  0  0  0  0  0
   56.9276   33.6968   45.7276 H   0  0  0  0  0  0  0  0  0  0  0  0
   57.8049   33.9101   44.1425 H   0  0  0  0  0  0  0  0  0  0  0  0
   59.3925   32.0844   45.4753 H   0  0  0  0  0  0  0  0  0  0  0  0
   57.6967   31.6146   45.9609 H   0  0  0  0  0  0  0  0  0  0  0  0
   57.3121   31.9215   43.3159 H   0  0  0  0  0  0  0  0  0  0  0  0
   59.0659   31.4465   43.3162 H   0  0  0  0  0  0  0  0  0  0  0  0
   57.7990   29.4238   43.0760 H   0  0  0  0  0  0  0  0  0  0  0  0
   58.4200   29.4844   44.7785 H   0  0  0  0  0  0  0  0  0  0  0  0
   57.5450   27.3437   44.9131 H   0  0  0  0  0  0  0  0  0  0  0  0
   57.2337   27.7858   46.6284 H   0  0  0  0  0  0  0  0  0  0  0  0
   58.1851   23.6027   45.7617 H   0  0  0  0  0  0  0  0  0  0  0  0
   58.3294   25.0677   44.7050 H   0  0  0  0  0  0  0  0  0  0  0  0
   61.6280   27.2124   46.0029 H   0  0  0  0  0  0  0  0  0  0  0  0
   60.0540   27.4135   45.1638 H   0  0  0  0  0  0  0  0  0  0  0  0
   60.9502   26.9000   48.8044 H   0  0  0  0  0  0  0  0  0  0  0  0
   60.1579   28.4348   50.6033 H   0  0  0  0  0  0  0  0  0  0  0  0
   57.0510   32.4560   50.0410 H   0  0  0  0  0  0  0  0  0  0  0  0
   58.2434   30.9352   47.6320 H   0  0  0  0  0  0  0  0  0  0  0  0
   59.0393   29.4043   45.8281 H   0  0  0  0  0  0  0  0  0  0  0  0
  1  2  1  0
  2  3  1  0
  3  4  1  0
  4  5  1  0
  5  6  1  0
  6  7  2  0
  6  8  1  0
  8  9  1  0
  9 10  1  0
 10 11  2  0
 10 12  1  0
 12 13  1  0
 13 14  1  0
 14 15  2  0
 14 16  1  0
 16 17  1  0
 17 18  1  0
 18 19  2  0
 19 20  1  0
 20 21  2  0
 21 22  1  0
 22 23  1  0
 22 24  2  0
 22 25  2  0
 21 26  1  0
 26 27  2  0
 27 18  1  0
  1 28  1  0
  1 29  1  0
  1 30  1  0
  2 31  1  0
  2 32  1  0
  3 33  1  0
  3 34  1  0
  4 35  1  0
  4 36  1  0
  5 37  1  0
  5 38  1  0
  9 39  1  0
  9 40  1  0
 13 41  1  0
 13 42  1  0
 17 43  1  0
 17 44  1  0
 19 45  1  0
 20 46  1  0
 23 47  1  0
 26 48  1  0
 27 49  1  0
M  CHG  4   8  -1  12  -1  16  -1  23  -1
M  END
>  <UniqueID>  (43) 
41

>  <SMILES>  (43) 
CCCCCC(=O)[N-]CC(=O)[N-]CC(=O)[N-]Cc1ccc(S([NH-])(=O)=O)cc1

>  <Energy>  (43) 
31.711649808926165

>  <Genealogy>  (43) 
CCCCCC(=O)[N-]CC(=O)[N-]CC(=O)[N-]Cc1ccc(S([NH-])(=O)=O)cc1 (protonated)
CCCCCC(=O)[N-]CC(=O)[N-]CC(=O)[N-]Cc1ccc(S([NH-])(=O)=O)cc1 (3D coordinates assigned)
CCCCCC(=O)[N-]CC(=O)[N-]CC(=O)[N-]Cc1ccc(S([NH-])(=O)=O)cc1 (optimized conformer: 31.711649808926165 kcal/mol)

>  <smiles>  (43) 
CCCCCC(=O)NCC(=O)NCC(=O)NCc1ccc(S(N)(=O)=O)cc1

>  <score_type>  (43) 
oracle

>  <origin>  (43) 
adg

>  <m_score__min__energy>  (43) 
-13.01

>  <m_primary>  (43) 
energy

$$$$
43:0
     RDKit          3D

 44 46  0  0  0  0  0  0  0  0999 V2000
   64.5970   33.6610   51.2550 N   0  0  0  0  0  0  0  0  0  0  0  0
   65.1920   33.0670   50.0970 C   0  0  0  0  0  0  0  0  0  0  0  0
   66.7770   32.6630   50.1270 S   0  0  0  0  0  0  0  0  0  0  0  0
   64.4580   32.9470   48.8680 N   0  0  0  0  0  0  0  0  0  0  0  0
   63.0240   32.9170   48.7930 C   0  0  0  0  0  0  0  0  0  0  0  0
   62.3850   31.7540   48.3390 C   0  0  0  0  0  0  0  0  0  0  0  0
   60.9900   31.6930   48.2750 C   0  0  0  0  0  0  0  0  0  0  0  0
   60.2200   32.7860   48.6860 C   0  0  0  0  0  0  0  0  0  0  0  0
   58.4300   32.7000   48.6140 S   0  0  0  0  0  0  0  0  0  0  0  0
   58.3930   32.9490   46.8360 C   0  0  0  0  0  0  0  0  0  0  0  0
   58.4700   34.2450   46.3180 C   0  0  0  0  0  0  0  0  0  0  0  0
   58.4520   34.4480   44.9380 C   0  0  0  0  0  0  0  0  0  0  0  0
   58.3520   33.3590   44.0680 C   0  0  0  0  0  0  0  0  0  0  0  0
   58.2600   32.0480   44.5740 C   0  0  0  0  0  0  0  0  0  0  0  0
   58.1480   30.9080   43.6990 N   0  0  0  0  0  0  0  0  0  0  0  0
   57.0260   29.6080   43.9430 S   0  0  0  0  0  0  0  0  0  0  0  0
   56.6250   29.0420   42.6110 O   0  0  0  0  0  0  0  0  0  0  0  0
   55.8020   30.1380   44.6370 O   0  0  0  0  0  0  0  0  0  0  0  0
   57.7780   28.3320   44.8960 C   0  0  0  0  0  0  0  0  0  0  0  0
   59.1760   28.2320   44.9510 C   0  0  0  0  0  0  0  0  0  0  0  0
   59.7780   27.2280   45.7140 C   0  0  0  0  0  0  0  0  0  0  0  0
   58.9890   26.3170   46.4230 C   0  0  0  0  0  0  0  0  0  0  0  0
   57.5960   26.4090   46.3660 C   0  0  0  0  0  0  0  0  0  0  0  0
   56.9890   27.4140   45.6040 C   0  0  0  0  0  0  0  0  0  0  0  0
   58.2860   31.8520   45.9670 C   0  0  0  0  0  0  0  0  0  0  0  0
   58.1950   30.5990   46.4800 F   0  0  0  0  0  0  0  0  0  0  0  0
   60.8490   33.9420   49.1600 C   0  0  0  0  0  0  0  0  0  0  0  0
   62.2440   34.0090   49.2240 C   0  0  0  0  0  0  0  0  0  0  0  0
   62.8280   35.1180   49.7430 F   0  0  0  0  0  0  0  0  0  0  0  0
   65.1370   33.7420   52.1440 H   0  0  0  0  0  0  0  0  0  0  0  0
   63.6380   34.0690   51.2190 H   0  0  0  0  0  0  0  0  0  0  0  0
   64.9960   32.9460   47.9720 H   0  0  0  0  0  0  0  0  0  0  0  0
   62.9851   30.8849   48.0315 H   0  0  0  0  0  0  0  0  0  0  0  0
   60.4968   30.7838   47.9007 H   0  0  0  0  0  0  0  0  0  0  0  0
   58.5449   35.1055   46.9991 H   0  0  0  0  0  0  0  0  0  0  0  0
   58.5167   35.4688   44.5332 H   0  0  0  0  0  0  0  0  0  0  0  0
   58.3451   33.5269   42.9809 H   0  0  0  0  0  0  0  0  0  0  0  0
   58.8240   30.8000   42.9100 H   0  0  0  0  0  0  0  0  0  0  0  0
   59.7997   28.9454   44.3924 H   0  0  0  0  0  0  0  0  0  0  0  0
   60.8747   27.1542   45.7570 H   0  0  0  0  0  0  0  0  0  0  0  0
   59.4645   25.5287   47.0250 H   0  0  0  0  0  0  0  0  0  0  0  0
   56.9752   25.6903   46.9210 H   0  0  0  0  0  0  0  0  0  0  0  0
   55.8921   27.4838   45.5605 H   0  0  0  0  0  0  0  0  0  0  0  0
   60.2438   34.8016   49.4836 H   0  0  0  0  0  0  0  0  0  0  0  0
  1  2  1  0
  2  3  2  0
  2  4  1  0
  4  5  1  0
  5  6  2  0
  6  7  1  0
  7  8  2  0
  8  9  1  0
  9 10  1  0
 10 11  2  0
 11 12  1  0
 12 13  2  0
 13 14  1  0
 14 15  1  0
 15 16  1  0
 16 17  2  0
 16 18  2  0
 16 19  1  0
 19 20  2  0
 20 21  1  0
 21 22  2  0
 22 23  1  0
 23 24  2  0
 14 25  2  0
 25 26  1  0
  8 27  1  0
 27 28  2  0
 28 29  1  0
 28  5  1  0
 25 10  1  0
 24 19  1  0
  1 30  1  0
  1 31  1  0
  4 32  1  0
  6 33  1  0
  7 34  1  0
 11 35  1  0
 12 36  1  0
 13 37  1  0
 15 38  1  0
 20 39  1  0
 21 40  1  0
 22 41  1  0
 23 42  1  0
 24 43  1  0
 27 44  1  0
M  END
>  <UniqueID>  (44) 
42

>  <SMILES>  (44) 
NC(=S)Nc1ccc(Sc2cccc(NS(=O)(=O)c3ccccc3)c2F)cc1F

>  <Energy>  (44) 
48.999450936169154

>  <Genealogy>  (44) 
NC(=S)Nc1ccc(Sc2cccc(NS(=O)(=O)c3ccccc3)c2F)cc1F (3D coordinates assigned)
NC(=S)Nc1ccc(Sc2cccc(NS(=O)(=O)c3ccccc3)c2F)cc1F (optimized conformer: 48.999450936169154 kcal/mol)

>  <smiles>  (44) 
NC(=S)Nc1ccc(Sc2cccc(NS(=O)(=O)c3ccccc3)c2F)cc1F

>  <score_type>  (44) 
oracle

>  <origin>  (44) 
adg

>  <m_score__min__energy>  (44) 
-9.6199999999999992

>  <m_primary>  (44) 
energy

$$$$
44:0
     RDKit          3D

 52 55  0  0  0  0  0  0  0  0999 V2000
   56.9530   32.3630   52.3640 C   0  0  0  0  0  0  0  0  0  0  0  0
   58.2960   32.2530   51.7100 C   0  0  0  0  0  0  0  0  0  0  0  0
   58.8750   33.3080   51.3370 O   0  0  0  0  0  0  0  0  0  0  0  0
   58.9590   30.9510   51.4690 C   0  0  0  0  0  0  0  0  0  0  0  0
   59.2620   30.0990   52.4700 N   0  0  0  0  0  0  0  0  0  0  0  0
   59.9050   29.0500   51.9300 C   0  0  0  0  0  0  0  0  0  0  0  0
   60.0060   29.2120   50.5630 C   0  0  0  0  0  0  0  0  0  0  0  0
   60.6350   28.2390   49.6170 C   0  0  0  0  0  0  0  0  0  0  0  0
   59.4140   30.4310   50.2580 C   0  0  0  0  0  0  0  0  0  0  0  0
   59.1990   30.9770   48.9060 C   0  0  0  0  0  0  0  0  0  0  0  0
   58.8870   30.1920   47.9710 O   0  0  0  0  0  0  0  0  0  0  0  0
   59.3870   32.3790   48.6530 N   0  0  0  0  0  0  0  0  0  0  0  0
   59.1280   33.0080   47.3860 C   0  0  0  0  0  0  0  0  0  0  0  0
   59.4500   34.3570   47.1570 C   0  0  0  0  0  0  0  0  0  0  0  0
   59.2120   34.9340   45.9080 C   0  0  0  0  0  0  0  0  0  0  0  0
   58.6600   34.1740   44.8750 C   0  0  0  0  0  0  0  0  0  0  0  0
   58.3430   32.8220   45.0830 C   0  0  0  0  0  0  0  0  0  0  0  0
   57.7600   31.9910   43.9680 C   0  0  0  0  0  0  0  0  0  0  0  0
   57.2980   30.6470   44.4710 C   0  0  0  0  0  0  0  0  0  0  0  0
   55.9630   30.3900   44.4850 N   0  0  0  0  0  0  0  0  0  0  0  0
   55.4730   29.2130   44.8730 N   0  0  0  0  0  0  0  0  0  0  0  0
   56.2830   28.2030   45.2750 C   0  0  0  0  0  0  0  0  0  0  0  0
   55.7740   27.1030   45.6200 O   0  0  0  0  0  0  0  0  0  0  0  0
   57.6710   28.3930   45.3000 C   0  0  0  0  0  0  0  0  0  0  0  0
   58.1940   29.6310   44.8710 C   0  0  0  0  0  0  0  0  0  0  0  0
   59.6190   29.8390   44.8780 N   0  0  0  0  0  0  0  0  0  0  0  0
   60.5390   28.7210   45.0670 C   0  0  0  0  0  0  0  0  0  0  0  0
   59.9850   27.7700   46.1230 C   0  0  0  0  0  0  0  0  0  0  0  0
   58.5980   27.2640   45.7060 C   0  0  0  0  0  0  0  0  0  0  0  0
   58.5990   32.2420   46.3370 C   0  0  0  0  0  0  0  0  0  0  0  0
   57.0756   32.3530   53.4571 H   0  0  0  0  0  0  0  0  0  0  0  0
   56.4719   33.3036   52.0576 H   0  0  0  0  0  0  0  0  0  0  0  0
   56.3253   31.5133   52.0576 H   0  0  0  0  0  0  0  0  0  0  0  0
   59.0570   30.2320   53.4860 H   0  0  0  0  0  0  0  0  0  0  0  0
   60.2935   28.1892   52.4941 H   0  0  0  0  0  0  0  0  0  0  0  0
   61.1453   27.4496   50.1884 H   0  0  0  0  0  0  0  0  0  0  0  0
   59.8569   27.7883   48.9834 H   0  0  0  0  0  0  0  0  0  0  0  0
   61.3654   28.7635   48.9834 H   0  0  0  0  0  0  0  0  0  0  0  0
   59.7970   32.9680   49.4100 H   0  0  0  0  0  0  0  0  0  0  0  0
   59.8909   34.9600   47.9644 H   0  0  0  0  0  0  0  0  0  0  0  0
   59.4605   35.9919   45.7371 H   0  0  0  0  0  0  0  0  0  0  0  0
   58.4727   34.6361   43.8945 H   0  0  0  0  0  0  0  0  0  0  0  0
   56.9022   32.5253   43.5336 H   0  0  0  0  0  0  0  0  0  0  0  0
   58.5412   31.8287   43.2107 H   0  0  0  0  0  0  0  0  0  0  0  0
   60.0250   30.7970   44.8210 H   0  0  0  0  0  0  0  0  0  0  0  0
   60.6584   28.1813   44.1159 H   0  0  0  0  0  0  0  0  0  0  0  0
   61.5146   29.1052   45.3997 H   0  0  0  0  0  0  0  0  0  0  0  0
   60.6661   26.9133   46.2334 H   0  0  0  0  0  0  0  0  0  0  0  0
   59.8983   28.3070   47.0791 H   0  0  0  0  0  0  0  0  0  0  0  0
   58.7134   26.5775   44.8543 H   0  0  0  0  0  0  0  0  0  0  0  0
   58.1503   26.7568   46.5734 H   0  0  0  0  0  0  0  0  0  0  0  0
   58.3822   31.1756   46.4977 H   0  0  0  0  0  0  0  0  0  0  0  0
  1  2  1  0
  2  3  2  0
  2  4  1  0
  4  5  1  0
  5  6  1  0
  6  7  2  0
  7  8  1  0
  7  9  1  0
  9 10  1  0
 10 11  2  0
 10 12  1  0
 12 13  1  0
 13 14  2  0
 14 15  1  0
 15 16  2  0
 16 17  1  0
 17 18  1  0
 18 19  1  0
 19 20  2  0
 20 21  1  0
 21 22  1  0
 22 23  2  0
 22 24  1  0
 24 25  2  0
 25 26  1  0
 26 27  1  0
 27 28  1  0
 28 29  1  0
 17 30  2  0
  9  4  2  0
 30 13  1  0
 25 19  1  0
 29 24  1  0
  1 31  1  0
  1 32  1  0
  1 33  1  0
  5 34  1  0
  6 35  1  0
  8 36  1  0
  8 37  1  0
  8 38  1  0
 12 39  1  0
 14 40  1  0
 15 41  1  0
 16 42  1  0
 18 43  1  0
 18 44  1  0
 26 45  1  0
 27 46  1  0
 27 47  1  0
 28 48  1  0
 28 49  1  0
 29 50  1  0
 29 51  1  0
 30 52  1  0
M  CHG  1  21  -1
M  END
>  <UniqueID>  (45) 
43

>  <SMILES>  (45) 
CC(=O)c1[nH]cc(C)c1C(=O)Nc1cccc(Cc2n[n-]c(=O)c3c2NCCC3)c1

>  <Energy>  (45) 
90.07272020222123

>  <Genealogy>  (45) 
CC(=O)c1[nH]cc(C)c1C(=O)Nc1cccc(Cc2n[n-]c(=O)c3c2NCCC3)c1 (protonated)
CC(=O)c1[nH]cc(C)c1C(=O)Nc1cccc(Cc2n[n-]c(=O)c3c2NCCC3)c1 (3D coordinates assigned)
CC(=O)c1[nH]cc(C)c1C(=O)Nc1cccc(Cc2n[n-]c(=O)c3c2NCCC3)c1 (nonaromatic ring conformer: 90.07272020222123 kcal/mol)

>  <smiles>  (45) 
CC(=O)c1[nH]cc(C)c1C(=O)Nc1cccc(Cc2n[nH]c(=O)c3c2NCCC3)c1

>  <score_type>  (45) 
oracle

>  <origin>  (45) 
adg

>  <m_score__min__energy>  (45) 
-11.24

>  <m_primary>  (45) 
energy

$$$$
45:0
     RDKit          3D

 49 52  0  0  0  0  0  0  0  0999 V2000
   54.1080   26.7130   53.7760 C   0  0  0  0  0  0  0  0  0  0  0  0
   54.5380   28.0660   53.8790 O   0  0  0  0  0  0  0  0  0  0  0  0
   54.1080   29.1050   53.0350 C   0  0  0  0  0  0  0  0  0  0  0  0
   52.7970   29.1480   52.5190 C   0  0  0  0  0  0  0  0  0  0  0  0
   52.4010   30.1980   51.6860 C   0  0  0  0  0  0  0  0  0  0  0  0
   53.3000   31.2130   51.3610 C   0  0  0  0  0  0  0  0  0  0  0  0
   54.6010   31.1820   51.8650 C   0  0  0  0  0  0  0  0  0  0  0  0
   55.0170   30.1320   52.7000 C   0  0  0  0  0  0  0  0  0  0  0  0
   56.4200   30.1230   53.2520 C   0  0  0  0  0  0  0  0  0  0  0  0
   57.2650   31.0600   52.5150 N   0  0  0  0  0  0  0  0  0  0  0  0
   58.2850   31.8430   53.1460 C   0  0  0  0  0  0  0  0  0  0  0  0
   58.4940   31.7240   54.3830 O   0  0  0  0  0  0  0  0  0  0  0  0
   59.1100   32.6920   52.3320 N   0  0  0  0  0  0  0  0  0  0  0  0
   59.1080   32.8560   51.0370 C   0  0  0  0  0  0  0  0  0  0  0  0
   59.7610   33.9430   50.3940 C   0  0  0  0  0  0  0  0  0  0  0  0
   59.6680   34.0090   49.0080 C   0  0  0  0  0  0  0  0  0  0  0  0
   60.2340   34.9150   48.1910 N   0  0  0  0  0  0  0  0  0  0  0  0
   59.9030   34.5850   46.9460 N   0  0  0  0  0  0  0  0  0  0  0  0
   59.1210   33.4780   46.9700 C   0  0  0  0  0  0  0  0  0  0  0  0
   58.5700   32.8410   45.7560 C   0  0  0  0  0  0  0  0  0  0  0  0
   58.6040   33.4950   44.5130 C   0  0  0  0  0  0  0  0  0  0  0  0
   58.0960   32.8680   43.3720 C   0  0  0  0  0  0  0  0  0  0  0  0
   57.5560   31.5830   43.4590 C   0  0  0  0  0  0  0  0  0  0  0  0
   57.5260   30.9150   44.6890 C   0  0  0  0  0  0  0  0  0  0  0  0
   56.8700   29.2830   44.7940 S   0  0  0  0  0  0  0  0  0  0  0  0
   55.1450   29.3490   44.7100 N   0  0  0  0  0  0  0  0  0  0  0  0
   57.3940   28.4510   43.6580 O   0  0  0  0  0  0  0  0  0  0  0  0
   57.2860   28.6480   46.0910 O   0  0  0  0  0  0  0  0  0  0  0  0
   58.0460   31.5400   45.8310 C   0  0  0  0  0  0  0  0  0  0  0  0
   58.9680   33.0920   48.2870 C   0  0  0  0  0  0  0  0  0  0  0  0
   58.3380   32.0230   48.9170 C   0  0  0  0  0  0  0  0  0  0  0  0
   58.4210   31.9440   50.2770 N   0  0  0  0  0  0  0  0  0  0  0  0
   53.9745   26.2930   54.7838 H   0  0  0  0  0  0  0  0  0  0  0  0
   53.1526   26.6723   53.2323 H   0  0  0  0  0  0  0  0  0  0  0  0
   54.8646   26.1282   53.2323 H   0  0  0  0  0  0  0  0  0  0  0  0
   52.0823   28.3514   52.7731 H   0  0  0  0  0  0  0  0  0  0  0  0
   51.3768   30.2238   51.2855 H   0  0  0  0  0  0  0  0  0  0  0  0
   52.9835   32.0388   50.7069 H   0  0  0  0  0  0  0  0  0  0  0  0
   55.3059   31.9859   51.6064 H   0  0  0  0  0  0  0  0  0  0  0  0
   56.3940   30.4155   54.3121 H   0  0  0  0  0  0  0  0  0  0  0  0
   56.8369   29.1103   53.1486 H   0  0  0  0  0  0  0  0  0  0  0  0
   57.1070   31.1750   51.4880 H   0  0  0  0  0  0  0  0  0  0  0  0
   60.3160   34.6994   50.9682 H   0  0  0  0  0  0  0  0  0  0  0  0
   59.0325   34.5053   44.4375 H   0  0  0  0  0  0  0  0  0  0  0  0
   58.1215   33.3879   42.4030 H   0  0  0  0  0  0  0  0  0  0  0  0
   57.1534   31.0947   42.5593 H   0  0  0  0  0  0  0  0  0  0  0  0
   54.7940   29.3940   45.6930 H   0  0  0  0  0  0  0  0  0  0  0  0
   58.0436   31.0073   46.7934 H   0  0  0  0  0  0  0  0  0  0  0  0
   57.7903   31.2655   48.3371 H   0  0  0  0  0  0  0  0  0  0  0  0
  1  2  1  0
  2  3  1  0
  3  4  2  0
  4  5  1  0
  5  6  2  0
  6  7  1  0
  7  8  2  0
  8  9  1  0
  9 10  1  0
 10 11  1  0
 11 12  2  0
 11 13  1  0
 13 14  2  3
 14 15  1  0
 15 16  2  0
 16 17  1  0
 17 18  1  0
 18 19  2  0
 19 20  1  0
 20 21  2  0
 21 22  1  0
 22 23  2  0
 23 24  1  0
 24 25  1  0
 25 26  1  0
 25 27  2  0
 25 28  2  0
 24 29  2  0
 19 30  1  0
 30 31  2  0
 31 32  1  0
  8  3  1  0
 32 14  1  0
 30 16  1  0
 29 20  1  0
  1 33  1  0
  1 34  1  0
  1 35  1  0
  4 36  1  0
  5 37  1  0
  6 38  1  0
  7 39  1  0
  9 40  1  0
  9 41  1  0
 10 42  1  0
 15 43  1  0
 21 44  1  0
 22 45  1  0
 23 46  1  0
 26 47  1  0
 29 48  1  0
 31 49  1  0
M  CHG  3  17  -1  26  -1  32  -1
M  END
>  <UniqueID>  (46) 
44

>  <SMILES>  (46) 
COc1ccccc1CNC(=O)N=c1cc2[n-]nc(-c3cccc(S([NH-])(=O)=O)c3)c2c[n-]1

>  <Energy>  (46) 
101.60551083298205

>  <Genealogy>  (46) 
COc1ccccc1CNC(=O)N=c1cc2[n-]nc(-c3cccc(S([NH-])(=O)=O)c3)c2c[n-]1 (protonated)
COc1ccccc1CNC(=O)N=c1cc2[n-]nc(-c3cccc(S([NH-])(=O)=O)c3)c2c[n-]1 (3D coordinates assigned)
COc1ccccc1CNC(=O)N=c1cc2[n-]nc(-c3cccc(S([NH-])(=O)=O)c3)c2c[n-]1 (optimized conformer: 101.60551083298205 kcal/mol)

>  <smiles>  (46) 
COc1ccccc1CNC(=O)N=c1cc2[nH]nc(-c3cccc(S(N)(=O)=O)c3)c2c[nH]1

>  <score_type>  (46) 
oracle

>  <origin>  (46) 
adg

>  <m_score__min__energy>  (46) 
-13.44

>  <m_primary>  (46) 
energy

$$$$
46:0
     RDKit          3D

 61 63  0  0  0  0  0  0  0  0999 V2000
   61.2800   34.1790   46.4240 C   0  0  0  0  0  0  0  0  0  0  0  0
   62.7890   33.9570   46.4140 C   0  0  0  0  0  0  0  0  0  0  0  0
   63.3230   33.7140   47.8340 C   0  0  0  0  0  0  0  0  0  0  0  0
   63.7660   32.2570   48.0510 C   0  0  0  0  0  0  0  0  0  0  0  0
   64.1580   31.9540   49.5160 C   0  0  0  0  0  0  0  0  0  0  0  0
   63.0590   32.3220   50.5270 C   0  0  0  0  0  0  0  0  0  0  0  0
   62.0140   31.2420   50.6400 C   0  0  0  0  0  0  0  0  0  0  0  0
   62.2920   30.0050   51.0970 N   0  0  0  0  0  0  0  0  0  0  0  0
   61.1160   29.3580   51.1230 C   0  0  0  0  0  0  0  0  0  0  0  0
   60.9460   27.6440   51.6280 S   0  0  0  0  0  0  0  0  0  0  0  0
   60.0380   28.0670   53.1470 C   0  0  0  0  0  0  0  0  0  0  0  0
   60.1180   30.2080   50.6730 C   0  0  0  0  0  0  0  0  0  0  0  0
   58.6860   29.8570   50.5350 C   0  0  0  0  0  0  0  0  0  0  0  0
   57.8990   29.9380   51.5140 O   0  0  0  0  0  0  0  0  0  0  0  0
   58.1820   29.4540   49.3040 O   0  0  0  0  0  0  0  0  0  0  0  0
   60.6920   31.4030   50.3720 N   0  0  0  0  0  0  0  0  0  0  0  0
   60.0550   32.6160   49.8390 C   0  0  0  0  0  0  0  0  0  0  0  0
   59.5110   32.3830   48.4500 C   0  0  0  0  0  0  0  0  0  0  0  0
   60.1060   31.4210   47.6170 C   0  0  0  0  0  0  0  0  0  0  0  0
   59.6360   31.2200   46.3180 C   0  0  0  0  0  0  0  0  0  0  0  0
   58.5760   31.9930   45.8240 C   0  0  0  0  0  0  0  0  0  0  0  0
   58.0830   31.7920   44.4480 C   0  0  0  0  0  0  0  0  0  0  0  0
   58.3040   32.8080   43.5030 C   0  0  0  0  0  0  0  0  0  0  0  0
   57.8430   32.6710   42.1930 C   0  0  0  0  0  0  0  0  0  0  0  0
   57.1600   31.5150   41.8110 C   0  0  0  0  0  0  0  0  0  0  0  0
   56.9430   30.4910   42.7360 C   0  0  0  0  0  0  0  0  0  0  0  0
   57.4070   30.6100   44.0560 C   0  0  0  0  0  0  0  0  0  0  0  0
   57.1490   29.2630   45.1770 S   0  0  0  0  0  0  0  0  0  0  0  0
   55.5300   28.6790   45.0210 N   0  0  0  0  0  0  0  0  0  0  0  0
   58.1050   28.1450   44.8640 O   0  0  0  0  0  0  0  0  0  0  0  0
   57.3920   29.7150   46.5890 O   0  0  0  0  0  0  0  0  0  0  0  0
   57.9740   32.9510   46.6510 C   0  0  0  0  0  0  0  0  0  0  0  0
   58.4460   33.1530   47.9510 C   0  0  0  0  0  0  0  0  0  0  0  0
   60.9240   34.2314   47.4635 H   0  0  0  0  0  0  0  0  0  0  0  0
   61.0446   35.1214   45.9079 H   0  0  0  0  0  0  0  0  0  0  0  0
   60.7832   33.3443   45.9079 H   0  0  0  0  0  0  0  0  0  0  0  0
   63.0189   33.0813   45.7892 H   0  0  0  0  0  0  0  0  0  0  0  0
   63.2716   34.8589   46.0094 H   0  0  0  0  0  0  0  0  0  0  0  0
   64.1854   34.3750   48.0053 H   0  0  0  0  0  0  0  0  0  0  0  0
   62.5071   33.9259   48.5407 H   0  0  0  0  0  0  0  0  0  0  0  0
   62.9368   31.5928   47.7659 H   0  0  0  0  0  0  0  0  0  0  0  0
   64.6592   32.0899   47.4311 H   0  0  0  0  0  0  0  0  0  0  0  0
   64.3693   30.8782   49.6058 H   0  0  0  0  0  0  0  0  0  0  0  0
   65.0383   32.5698   49.7523 H   0  0  0  0  0  0  0  0  0  0  0  0
   63.5204   32.4748   51.5138 H   0  0  0  0  0  0  0  0  0  0  0  0
   62.5644   33.2389   50.1738 H   0  0  0  0  0  0  0  0  0  0  0  0
   63.2240   29.6230   51.3720 H   0  0  0  0  0  0  0  0  0  0  0  0
   60.6398   27.7866   54.0240 H   0  0  0  0  0  0  0  0  0  0  0  0
   59.8419   29.1492   53.1676 H   0  0  0  0  0  0  0  0  0  0  0  0
   59.0833   27.5209   53.1676 H   0  0  0  0  0  0  0  0  0  0  0  0
   59.2286   32.9086   50.5034 H   0  0  0  0  0  0  0  0  0  0  0  0
   60.8121   33.4123   49.7870 H   0  0  0  0  0  0  0  0  0  0  0  0
   60.9489   30.8214   47.9912 H   0  0  0  0  0  0  0  0  0  0  0  0
   60.0988   30.4527   45.6801 H   0  0  0  0  0  0  0  0  0  0  0  0
   58.8450   33.7191   43.7983 H   0  0  0  0  0  0  0  0  0  0  0  0
   58.0178   33.4738   41.4615 H   0  0  0  0  0  0  0  0  0  0  0  0
   56.7920   31.4103   40.7797 H   0  0  0  0  0  0  0  0  0  0  0  0
   56.4038   29.5832   42.4276 H   0  0  0  0  0  0  0  0  0  0  0  0
   54.9090   29.3690   45.4980 H   0  0  0  0  0  0  0  0  0  0  0  0
   57.1278   33.5455   46.2760 H   0  0  0  0  0  0  0  0  0  0  0  0
   57.9809   33.9198   48.5880 H   0  0  0  0  0  0  0  0  0  0  0  0
  1  2  1  0
  2  3  1  0
  3  4  1  0
  4  5  1  0
  5  6  1  0
  6  7  1  0
  7  8  2  0
  8  9  1  0
  9 10  1  0
 10 11  1  0
  9 12  2  0
 12 13  1  0
 13 14  2  0
 13 15  1  0
 12 16  1  0
 16 17  1  0
 17 18  1  0
 18 19  2  0
 19 20  1  0
 20 21  2  0
 21 22  1  0
 22 23  2  0
 23 24  1  0
 24 25  2  0
 25 26  1  0
 26 27  2  0
 27 28  1  0
 28 29  1  0
 28 30  2  0
 28 31  2  0
 21 32  1  0
 32 33  2  0
 16  7  1  0
 33 18  1  0
 27 22  1  0
  1 34  1  0
  1 35  1  0
  1 36  1  0
  2 37  1  0
  2 38  1  0
  3 39  1  0
  3 40  1  0
  4 41  1  0
  4 42  1  0
  5 43  1  0
  5 44  1  0
  6 45  1  0
  6 46  1  0
  8 47  1  0
 11 48  1  0
 11 49  1  0
 11 50  1  0
 17 51  1  0
 17 52  1  0
 19 53  1  0
 20 54  1  0
 23 55  1  0
 24 56  1  0
 25 57  1  0
 26 58  1  0
 29 59  1  0
 32 60  1  0
 33 61  1  0
M  CHG  3   8   1  15  -1  29  -1
M  END
>  <UniqueID>  (47) 
45

>  <SMILES>  (47) 
CCCCCCc1[nH+]c(SC)c(C(=O)[O-])n1Cc1ccc(-c2ccccc2S([NH-])(=O)=O)cc1

>  <Energy>  (47) 
90.91409357480661

>  <Genealogy>  (47) 
CCCCCCc1[nH+]c(SC)c(C(=O)[O-])n1Cc1ccc(-c2ccccc2S([NH-])(=O)=O)cc1 (protonated)
CCCCCCc1[nH+]c(SC)c(C(=O)[O-])n1Cc1ccc(-c2ccccc2S([NH-])(=O)=O)cc1 (3D coordinates assigned)
CCCCCCc1[nH+]c(SC)c(C(=O)[O-])n1Cc1ccc(-c2ccccc2S([NH-])(=O)=O)cc1 (optimized conformer: 90.91409357480661 kcal/mol)

>  <smiles>  (47) 
CCCCCCc1nc(SC)c(C(=O)O)n1Cc1ccc(-c2ccccc2S(N)(=O)=O)cc1

>  <score_type>  (47) 
oracle

>  <origin>  (47) 
adg

>  <m_score__min__energy>  (47) 
-11.17

>  <m_primary>  (47) 
energy

$$$$
47:0
     RDKit          3D

 57 61  0  0  1  0  0  0  0  0999 V2000
   57.2860   28.2660   43.2160 N   0  0  0  0  0  0  0  0  0  0  0  0
   56.4330   29.5130   44.0510 S   0  0  0  0  0  0  0  0  0  0  0  0
   56.2780   29.1280   45.4950 O   0  0  0  0  0  0  0  0  0  0  0  0
   55.0410   29.5710   43.4620 O   0  0  0  0  0  0  0  0  0  0  0  0
   57.2290   31.0440   43.9920 C   0  0  0  0  0  0  0  0  0  0  0  0
   57.6030   31.5310   42.7480 C   0  0  0  0  0  0  0  0  0  0  0  0
   58.2440   32.7470   42.7340 C   0  0  0  0  0  0  0  0  0  0  0  0
   58.5210   33.4790   43.8630 C   0  0  0  0  0  0  0  0  0  0  0  0
   58.1460   32.9940   45.1060 C   0  0  0  0  0  0  0  0  0  0  0  0
   58.4330   33.7330   46.3790 C   0  0  0  0  0  0  0  0  0  0  0  0
   57.8770   26.7030   45.7340 N   0  0  0  0  0  0  0  0  0  0  0  0
   58.5940   27.3670   46.5550 C   0  0  0  0  0  0  0  0  0  0  0  0
   59.7670   31.3970   47.0500 N   0  0  0  0  0  0  0  0  0  0  0  0
   60.3830   30.3240   47.5950 C   0  0  0  0  0  0  0  0  0  0  0  0
   59.7510   29.0060   47.4310 C   0  0  0  0  0  0  0  0  0  0  0  0
   59.0190   28.6540   46.3220 C   0  0  0  0  0  0  0  0  0  0  0  0
   60.3450   32.5950   47.2180 C   0  0  0  0  0  0  0  0  0  0  0  0
   59.7920   33.6060   46.7140 N   0  0  0  0  0  0  0  0  0  0  0  0
   57.1000   25.5940   46.0190 C   0  0  0  0  0  0  0  0  0  0  0  0
   57.1430   25.0760   47.1570 O   0  0  0  0  0  0  0  0  0  0  0  0
   56.1650   24.9220   45.0410 C   0  0  0  0  0  0  0  0  0  0  0  0
   56.8240   23.6850   44.5030 C   0  0  0  0  0  0  0  0  0  0  0  0
   58.0080   23.1970   45.0030 C   0  0  0  0  0  0  0  0  0  0  0  0
   58.5440   22.0250   44.4270 C   0  0  0  0  0  0  0  0  0  0  0  0
   57.8970   21.3840   43.3850 C   0  0  0  0  0  0  0  0  0  0  0  0
   56.7220   21.9340   42.9450 C   0  0  0  0  0  0  0  0  0  0  0  0
   56.1410   23.0620   43.4510 C   0  0  0  0  0  0  0  0  0  0  0  0
   59.0400   26.9430   47.7480 N   0  0  0  0  0  0  0  0  0  0  0  0
   59.7420   27.9580   48.2630 N   0  0  0  0  0  0  0  0  0  0  0  0
   61.5240   30.3850   48.2870 N   0  0  0  0  0  0  0  0  0  0  0  0
   62.1690   31.5950   48.4960 C   0  0  0  0  0  0  0  0  0  0  0  0
   63.3040   31.8140   49.1600 C   0  0  0  0  0  0  0  0  0  0  0  0
   63.7980   33.0650   49.2700 C   0  0  0  0  0  0  0  0  0  0  0  0
   62.5490   34.1200   48.3390 S   0  0  0  0  0  0  0  0  0  0  0  0
   61.5080   32.6540   47.9240 C   0  0  0  0  0  0  0  0  0  0  0  0
   57.5000   31.7750   45.1630 C   0  0  0  0  0  0  0  0  0  0  0  0
   58.2560   28.5480   42.9790 H   0  0  0  0  0  0  0  0  0  0  0  0
   57.2340   27.3810   43.7650 H   0  0  0  0  0  0  0  0  0  0  0  0
   57.3976   30.9738   41.8221 H   0  0  0  0  0  0  0  0  0  0  0  0
   58.5533   33.1580   41.7617 H   0  0  0  0  0  0  0  0  0  0  0  0
   59.0384   34.4462   43.7808 H   0  0  0  0  0  0  0  0  0  0  0  0
   58.1890   34.7972   46.2451 H   0  0  0  0  0  0  0  0  0  0  0  0
   57.8210   33.3082   47.1883 H   0  0  0  0  0  0  0  0  0  0  0  0
   58.8159   29.2718   45.4348 H   0  0  0  0  0  0  0  0  0  0  0  0
   55.2306   24.6487   45.5530 H   0  0  0  0  0  0  0  0  0  0  0  0
   55.9365   25.6101   44.2138 H   0  0  0  0  0  0  0  0  0  0  0  0
   58.5241   23.7064   45.8301 H   0  0  0  0  0  0  0  0  0  0  0  0
   59.4895   21.6153   44.8119 H   0  0  0  0  0  0  0  0  0  0  0  0
   58.3088   20.4714   42.9293 H   0  0  0  0  0  0  0  0  0  0  0  0
   56.2047   21.4264   42.1175 H   0  0  0  0  0  0  0  0  0  0  0  0
   55.1936   23.4573   43.0559 H   0  0  0  0  0  0  0  0  0  0  0  0
   58.8520   26.0030   48.1400 H   0  0  0  0  0  0  0  0  0  0  0  0
   60.2070   27.9040   49.1950 H   0  0  0  0  0  0  0  0  0  0  0  0
   61.9100   29.4990   48.6620 H   0  0  0  0  0  0  0  0  0  0  0  0
   63.8403   30.9711   49.6203 H   0  0  0  0  0  0  0  0  0  0  0  0
   64.7148   33.3910   49.7830 H   0  0  0  0  0  0  0  0  0  0  0  0
   57.1928   31.3695   46.1383 H   0  0  0  0  0  0  0  0  0  0  0  0
  1  2  1  0
  2  3  2  0
  2  4  2  0
  2  5  1  0
  5  6  2  0
  6  7  1  0
  7  8  2  0
  8  9  1  0
  9 10  1  0
 10 11  1  0
 11 12  2  0
 12 13  1  0
 13 14  2  0
 14 15  1  0
 15 16  2  0
 16 17  1  0
 17 18  2  0
 18 19  1  0
 19 20  2  0
 19 21  1  0
 21 22  1  0
 22 23  2  0
 23 24  1  0
 24 25  2  0
 25 26  1  0
 26 27  2  0
 17 28  1  0
 28 29  1  0
 14 30  1  0
 30 31  1  0
 31 32  1  0
 32 33  2  0
 33 34  1  0
 34 35  1  0
  9 36  2  0
 36  5  1  0
 35 12  1  0
 29 15  1  0
 35 31  2  0
 27 22  1  0
  1 37  1  0
  1 38  1  0
  6 39  1  0
  7 40  1  0
  8 41  1  0
 10 42  1  0
 10 43  1  0
 16 44  1  0
 21 45  1  0
 21 46  1  0
 23 47  1  0
 24 48  1  0
 25 49  1  0
 26 50  1  0
 27 51  1  0
 28 52  1  0
 29 53  1  0
 30 54  1  0
 32 55  1  0
 33 56  1  0
 36 57  1  0
M  END
>  <smiles>  (48) 
NS(=O)(=O)c1cccc(CN=c2nc(-c3cc(=NC(=O)Cc4ccccc4)[nH][nH]3)[nH]c3ccsc23)c1

>  <score_type>  (48) 
oracle

>  <origin>  (48) 
adg

>  <m_score__min__energy>  (48) 
-11.210000000000001

>  <m_primary>  (48) 
energy

$$$$
48:0
     RDKit          3D

 55 57  0  0  0  0  0  0  0  0999 V2000
   58.4060   28.6350   48.8220 O   0  0  0  0  0  0  0  0  0  0  0  0
   59.4830   28.2910   48.3540 C   0  0  0  0  0  0  0  0  0  0  0  0
   60.6830   28.2270   49.2580 C   0  0  0  0  0  0  0  0  0  0  0  0
   60.3950   28.8530   50.6320 C   0  0  0  0  0  0  0  0  0  0  0  0
   60.4400   30.3570   50.5960 C   0  0  0  0  0  0  0  0  0  0  0  0
   59.5540   31.0070   51.2180 O   0  0  0  0  0  0  0  0  0  0  0  0
   61.5170   31.0620   49.9500 N   0  0  0  0  0  0  0  0  0  0  0  0
   61.8570   30.7880   48.5480 C   0  0  0  0  0  0  0  0  0  0  0  0
   61.3230   31.9250   47.6500 C   0  0  0  0  0  0  0  0  0  0  0  0
   61.0830   33.1410   48.4440 N   0  0  0  0  0  0  0  0  0  0  0  0
   59.7650   33.7230   48.4840 C   0  0  0  0  0  0  0  0  0  0  0  0
   59.2490   34.0170   49.5970 O   0  0  0  0  0  0  0  0  0  0  0  0
   59.0060   33.9880   47.2410 C   0  0  0  0  0  0  0  0  0  0  0  0
   59.5820   34.7460   46.2060 C   0  0  0  0  0  0  0  0  0  0  0  0
   58.8830   34.9610   45.0150 C   0  0  0  0  0  0  0  0  0  0  0  0
   57.6150   34.4060   44.8390 C   0  0  0  0  0  0  0  0  0  0  0  0
   57.0370   33.6460   45.8570 C   0  0  0  0  0  0  0  0  0  0  0  0
   57.7240   33.4450   47.0590 C   0  0  0  0  0  0  0  0  0  0  0  0
   62.0460   33.4400   49.5090 C   0  0  0  0  0  0  0  0  0  0  0  0
   62.0410   32.3030   50.5450 C   0  0  0  0  0  0  0  0  0  0  0  0
   59.6230   27.9990   46.8800 C   0  0  0  0  0  0  0  0  0  0  0  0
   59.9340   29.2620   46.0590 C   0  0  0  0  0  0  0  0  0  0  0  0
   58.7370   29.7510   45.2800 C   0  0  0  0  0  0  0  0  0  0  0  0
   57.4790   29.1480   45.4480 C   0  0  0  0  0  0  0  0  0  0  0  0
   56.3880   29.5660   44.6790 C   0  0  0  0  0  0  0  0  0  0  0  0
   55.1450   28.9740   44.8620 O   0  0  0  0  0  0  0  0  0  0  0  0
   56.5480   30.5680   43.7200 C   0  0  0  0  0  0  0  0  0  0  0  0
   57.7990   31.1640   43.5310 C   0  0  0  0  0  0  0  0  0  0  0  0
   57.9490   32.1520   42.5590 O   0  0  0  0  0  0  0  0  0  0  0  0
   58.8880   30.7620   44.3150 C   0  0  0  0  0  0  0  0  0  0  0  0
   60.9672   27.1737   49.3989 H   0  0  0  0  0  0  0  0  0  0  0  0
   61.4978   28.7960   48.7864 H   0  0  0  0  0  0  0  0  0  0  0  0
   59.3943   28.5370   50.9618 H   0  0  0  0  0  0  0  0  0  0  0  0
   61.1747   28.5099   51.3279 H   0  0  0  0  0  0  0  0  0  0  0  0
   62.9500   30.7222   48.4432 H   0  0  0  0  0  0  0  0  0  0  0  0
   61.3981   29.8364   48.2416 H   0  0  0  0  0  0  0  0  0  0  0  0
   62.0629   32.1448   46.8663 H   0  0  0  0  0  0  0  0  0  0  0  0
   60.3737   31.6036   47.1967 H   0  0  0  0  0  0  0  0  0  0  0  0
   60.5880   35.1719   46.3345 H   0  0  0  0  0  0  0  0  0  0  0  0
   59.3329   35.5683   44.2157 H   0  0  0  0  0  0  0  0  0  0  0  0
   57.0704   34.5676   43.8970 H   0  0  0  0  0  0  0  0  0  0  0  0
   56.0397   33.2044   45.7140 H   0  0  0  0  0  0  0  0  0  0  0  0
   57.2579   32.8591   47.8649 H   0  0  0  0  0  0  0  0  0  0  0  0
   63.0526   33.5358   49.0758 H   0  0  0  0  0  0  0  0  0  0  0  0
   61.7649   34.3829   50.0008 H   0  0  0  0  0  0  0  0  0  0  0  0
   63.0688   32.1295   50.8964 H   0  0  0  0  0  0  0  0  0  0  0  0
   61.3950   32.5930   51.3868 H   0  0  0  0  0  0  0  0  0  0  0  0
   60.4400   27.2760   46.7391 H   0  0  0  0  0  0  0  0  0  0  0  0
   58.6628   27.5963   46.5252 H   0  0  0  0  0  0  0  0  0  0  0  0
   60.2584   30.0583   46.7450 H   0  0  0  0  0  0  0  0  0  0  0  0
   60.7230   29.0065   45.3363 H   0  0  0  0  0  0  0  0  0  0  0  0
   57.3516   28.3437   46.1875 H   0  0  0  0  0  0  0  0  0  0  0  0
   55.6891   30.8891   43.1124 H   0  0  0  0  0  0  0  0  0  0  0  0
   57.2480   32.8700   42.4230 H   0  0  0  0  0  0  0  0  0  0  0  0
   59.8683   31.2408   44.1745 H   0  0  0  0  0  0  0  0  0  0  0  0
  1  2  2  0
  2  3  1  0
  3  4  1  0
  4  5  1  0
  5  6  2  0
  5  7  1  0
  7  8  1  0
  8  9  1  0
  9 10  1  0
 10 11  1  0
 11 12  2  0
 11 13  1  0
 13 14  2  0
 14 15  1  0
 15 16  2  0
 16 17  1  0
 17 18  2  0
 10 19  1  0
 19 20  1  0
  2 21  1  0
 21 22  1  0
 22 23  1  0
 23 24  2  0
 24 25  1  0
 25 26  1  0
 25 27  2  0
 27 28  1  0
 28 29  1  0
 28 30  2  0
 20  7  1  0
 30 23  1  0
 18 13  1  0
  3 31  1  0
  3 32  1  0
  4 33  1  0
  4 34  1  0
  8 35  1  0
  8 36  1  0
  9 37  1  0
  9 38  1  0
 14 39  1  0
 15 40  1  0
 16 41  1  0
 17 42  1  0
 18 43  1  0
 19 44  1  0
 19 45  1  0
 20 46  1  0
 20 47  1  0
 21 48  1  0
 21 49  1  0
 22 50  1  0
 22 51  1  0
 24 52  1  0
 27 53  1  0
 29 54  1  0
 30 55  1  0
M  CHG  1  26  -1
M  END
>  <UniqueID>  (49) 
46

>  <SMILES>  (49) 
O=C(CCC(=O)N1CCN(C(=O)c2ccccc2)CC1)CCc1cc([O-])cc(O)c1

>  <Energy>  (49) 
59.340548727784444

>  <Genealogy>  (49) 
O=C(CCC(=O)N1CCN(C(=O)c2ccccc2)CC1)CCc1cc([O-])cc(O)c1 (protonated)
O=C(CCC(=O)N1CCN(C(=O)c2ccccc2)CC1)CCc1cc([O-])cc(O)c1 (3D coordinates assigned)
O=C(CCC(=O)N1CCN(C(=O)c2ccccc2)CC1)CCc1cc([O-])cc(O)c1 (nonaromatic ring conformer: 59.340548727784444 kcal/mol)

>  <smiles>  (49) 
O=C(CCC(=O)N1CCN(C(=O)c2ccccc2)CC1)CCc1cc(O)cc(O)c1

>  <score_type>  (49) 
oracle

>  <origin>  (49) 
adg

>  <m_score__min__energy>  (49) 
-12.56

>  <m_primary>  (49) 
energy

$$$$
49:0
     RDKit          3D

 40 42  0  0  0  0  0  0  0  0999 V2000
   57.4430   33.8470   44.8840 C   0  0  0  0  0  0  0  0  0  0  0  0
   56.9710   32.7650   45.6790 O   0  0  0  0  0  0  0  0  0  0  0  0
   57.7560   31.6730   46.0830 C   0  0  0  0  0  0  0  0  0  0  0  0
   57.7260   30.4380   45.4050 C   0  0  0  0  0  0  0  0  0  0  0  0
   58.5140   29.3650   45.8430 C   0  0  0  0  0  0  0  0  0  0  0  0
   58.5010   28.0580   45.0970 C   0  0  0  0  0  0  0  0  0  0  0  0
   57.4170   27.1730   45.6280 C   0  0  0  0  0  0  0  0  0  0  0  0
   57.6410   25.6060   46.2050 S   0  0  0  0  0  0  0  0  0  0  0  0
   55.9950   25.3790   46.4610 C   0  0  0  0  0  0  0  0  0  0  0  0
   55.4900   24.3240   46.9240 O   0  0  0  0  0  0  0  0  0  0  0  0
   55.2600   26.4540   46.1110 N   0  0  0  0  0  0  0  0  0  0  0  0
   56.0520   27.4520   45.6390 C   0  0  0  0  0  0  0  0  0  0  0  0
   55.5220   28.6590   45.2000 O   0  0  0  0  0  0  0  0  0  0  0  0
   59.3610   29.5380   46.9440 C   0  0  0  0  0  0  0  0  0  0  0  0
   59.4010   30.7600   47.6190 C   0  0  0  0  0  0  0  0  0  0  0  0
   58.5860   31.8300   47.2050 C   0  0  0  0  0  0  0  0  0  0  0  0
   58.5680   33.0700   47.8690 O   0  0  0  0  0  0  0  0  0  0  0  0
   59.3140   34.2330   47.5030 C   0  0  0  0  0  0  0  0  0  0  0  0
   60.3500   34.5870   48.5760 C   0  0  0  0  0  0  0  0  0  0  0  0
   61.6610   34.0150   48.2690 N   0  0  0  0  0  0  0  0  0  0  0  0
   62.6490   33.7380   49.1410 C   0  0  0  0  0  0  0  0  0  0  0  0
   62.5560   33.9410   50.5130 O   0  0  0  0  0  0  0  0  0  0  0  0
   63.7600   33.2370   48.4900 C   0  0  0  0  0  0  0  0  0  0  0  0
   63.4330   33.2070   47.1450 C   0  0  0  0  0  0  0  0  0  0  0  0
   62.1440   33.6890   47.0520 C   0  0  0  0  0  0  0  0  0  0  0  0
   61.4330   33.8350   45.8660 O   0  0  0  0  0  0  0  0  0  0  0  0
   57.7962   34.6567   45.5394 H   0  0  0  0  0  0  0  0  0  0  0  0
   58.2720   33.5011   44.2491 H   0  0  0  0  0  0  0  0  0  0  0  0
   56.6256   34.2194   44.2491 H   0  0  0  0  0  0  0  0  0  0  0  0
   57.0785   30.3151   44.5243 H   0  0  0  0  0  0  0  0  0  0  0  0
   58.3227   28.2506   44.0288 H   0  0  0  0  0  0  0  0  0  0  0  0
   59.4716   27.5578   45.2304 H   0  0  0  0  0  0  0  0  0  0  0  0
   59.9987   28.7068   47.2794 H   0  0  0  0  0  0  0  0  0  0  0  0
   60.0739   30.8870   48.4798 H   0  0  0  0  0  0  0  0  0  0  0  0
   59.8331   34.0419   46.5522 H   0  0  0  0  0  0  0  0  0  0  0  0
   58.6159   35.0769   47.4008 H   0  0  0  0  0  0  0  0  0  0  0  0
   60.4431   35.6815   48.6349 H   0  0  0  0  0  0  0  0  0  0  0  0
   60.0086   34.1693   49.5346 H   0  0  0  0  0  0  0  0  0  0  0  0
   64.7107   32.9254   48.9472 H   0  0  0  0  0  0  0  0  0  0  0  0
   64.0725   32.8671   46.3171 H   0  0  0  0  0  0  0  0  0  0  0  0
  1  2  1  0
  2  3  1  0
  3  4  2  0
  4  5  1  0
  5  6  1  0
  6  7  1  0
  7  8  1  0
  8  9  1  0
  9 10  2  0
  9 11  1  0
 11 12  1  0
 12 13  1  0
  5 14  2  0
 14 15  1  0
 15 16  2  0
 16 17  1  0
 17 18  1  0
 18 19  1  0
 19 20  1  0
 20 21  1  0
 21 22  1  0
 21 23  2  0
 23 24  1  0
 24 25  2  0
 25 26  1  0
 16  3  1  0
 25 20  1  0
 12  7  2  0
  1 27  1  0
  1 28  1  0
  1 29  1  0
  4 30  1  0
  6 31  1  0
  6 32  1  0
 14 33  1  0
 15 34  1  0
 18 35  1  0
 18 36  1  0
 19 37  1  0
 19 38  1  0
 23 39  1  0
 24 40  1  0
M  CHG  4  11  -1  13  -1  22  -1  26  -1
M  END
>  <UniqueID>  (50) 
47

>  <SMILES>  (50) 
COc1cc(Cc2sc(=O)[n-]c2[O-])ccc1OCCn1c([O-])ccc1[O-]

>  <Energy>  (50) 
96.1278831826564

>  <Genealogy>  (50) 
COc1cc(Cc2sc(=O)[n-]c2[O-])ccc1OCCn1c([O-])ccc1[O-] (protonated)
COc1cc(Cc2sc(=O)[n-]c2[O-])ccc1OCCn1c([O-])ccc1[O-] (3D coordinates assigned)
COc1cc(Cc2sc(=O)[n-]c2[O-])ccc1OCCn1c([O-])ccc1[O-] (optimized conformer: 96.1278831826564 kcal/mol)

>  <smiles>  (50) 
COc1cc(Cc2sc(=O)[nH]c2O)ccc1OCCn1c(O)ccc1O

>  <score_type>  (50) 
oracle

>  <origin>  (50) 
adg

>  <m_score__min__energy>  (50) 
-15.07

>  <m_primary>  (50) 
energy

$$$$
50:0
     RDKit          3D

 48 51  0  0  0  0  0  0  0  0999 V2000
   55.1880   31.0420   51.6410 N   0  0  0  0  0  0  0  0  0  0  0  0
   56.7720   30.7070   52.2450 S   0  0  0  0  0  0  0  0  0  0  0  0
   57.2200   29.3560   51.7610 O   0  0  0  0  0  0  0  0  0  0  0  0
   56.7330   30.6990   53.7470 O   0  0  0  0  0  0  0  0  0  0  0  0
   57.8920   31.9350   51.6640 C   0  0  0  0  0  0  0  0  0  0  0  0
   58.3750   32.9320   52.5250 C   0  0  0  0  0  0  0  0  0  0  0  0
   59.2360   33.9200   52.0390 C   0  0  0  0  0  0  0  0  0  0  0  0
   59.6220   33.9160   50.6950 C   0  0  0  0  0  0  0  0  0  0  0  0
   59.1670   32.9130   49.8330 C   0  0  0  0  0  0  0  0  0  0  0  0
   59.5420   32.9610   48.4500 N   0  0  0  0  0  0  0  0  0  0  0  0
   58.6280   33.1240   47.3620 C   0  0  0  0  0  0  0  0  0  0  0  0
   57.4380   33.4820   47.5740 O   0  0  0  0  0  0  0  0  0  0  0  0
   59.1080   32.9270   45.9610 C   0  0  0  0  0  0  0  0  0  0  0  0
   58.9470   31.5190   45.5950 N   0  0  0  0  0  0  0  0  0  0  0  0
   59.3480   30.4700   46.3500 C   0  0  0  0  0  0  0  0  0  0  0  0
   58.8720   29.2760   45.8160 C   0  0  0  0  0  0  0  0  0  0  0  0
   59.0660   27.9230   46.3730 C   0  0  0  0  0  0  0  0  0  0  0  0
   60.0930   27.6880   47.0670 O   0  0  0  0  0  0  0  0  0  0  0  0
   58.0810   26.8370   46.1510 C   0  0  0  0  0  0  0  0  0  0  0  0
   58.5240   25.5310   45.8720 C   0  0  0  0  0  0  0  0  0  0  0  0
   57.6030   24.5040   45.6470 C   0  0  0  0  0  0  0  0  0  0  0  0
   56.2320   24.7690   45.6910 C   0  0  0  0  0  0  0  0  0  0  0  0
   55.7790   26.0650   45.9500 C   0  0  0  0  0  0  0  0  0  0  0  0
   54.4160   26.3310   45.9830 O   0  0  0  0  0  0  0  0  0  0  0  0
   56.6980   27.0970   46.1730 C   0  0  0  0  0  0  0  0  0  0  0  0
   58.1550   29.6320   44.6860 C   0  0  0  0  0  0  0  0  0  0  0  0
   57.4130   28.8610   43.7880 C   0  0  0  0  0  0  0  0  0  0  0  0
   56.7210   29.5290   42.7620 C   0  0  0  0  0  0  0  0  0  0  0  0
   56.7700   30.9340   42.6630 C   0  0  0  0  0  0  0  0  0  0  0  0
   57.5130   31.6890   43.5870 C   0  0  0  0  0  0  0  0  0  0  0  0
   58.2070   31.0030   44.5900 C   0  0  0  0  0  0  0  0  0  0  0  0
   58.2860   31.9300   50.3200 C   0  0  0  0  0  0  0  0  0  0  0  0
   55.3070   31.5680   50.7460 H   0  0  0  0  0  0  0  0  0  0  0  0
   58.0758   32.9361   53.5835 H   0  0  0  0  0  0  0  0  0  0  0  0
   59.6108   34.7024   52.7153 H   0  0  0  0  0  0  0  0  0  0  0  0
   60.2866   34.7054   50.3139 H   0  0  0  0  0  0  0  0  0  0  0  0
   58.5182   33.5554   45.2774 H   0  0  0  0  0  0  0  0  0  0  0  0
   60.1683   33.2107   45.8884 H   0  0  0  0  0  0  0  0  0  0  0  0
   59.9636   30.5497   47.2581 H   0  0  0  0  0  0  0  0  0  0  0  0
   59.6022   25.3168   45.8307 H   0  0  0  0  0  0  0  0  0  0  0  0
   57.9584   23.4849   45.4348 H   0  0  0  0  0  0  0  0  0  0  0  0
   55.5092   23.9573   45.5217 H   0  0  0  0  0  0  0  0  0  0  0  0
   56.3369   28.1178   46.3667 H   0  0  0  0  0  0  0  0  0  0  0  0
   57.3713   27.7657   43.8805 H   0  0  0  0  0  0  0  0  0  0  0  0
   56.1370   28.9504   42.0311 H   0  0  0  0  0  0  0  0  0  0  0  0
   56.2226   31.4437   41.8564 H   0  0  0  0  0  0  0  0  0  0  0  0
   57.5479   32.7866   43.5235 H   0  0  0  0  0  0  0  0  0  0  0  0
   57.9044   31.1530   49.6412 H   0  0  0  0  0  0  0  0  0  0  0  0
  1  2  1  0
  2  3  2  0
  2  4  2  0
  2  5  1  0
  5  6  2  0
  6  7  1  0
  7  8  2  0
  8  9  1  0
  9 10  1  0
 10 11  1  0
 11 12  2  0
 11 13  1  0
 13 14  1  0
 14 15  1  0
 15 16  2  0
 16 17  1  0
 17 18  2  0
 17 19  1  0
 19 20  2  0
 20 21  1  0
 21 22  2  0
 22 23  1  0
 23 24  1  0
 23 25  2  0
 16 26  1  0
 26 27  2  0
 27 28  1  0
 28 29  2  0
 29 30  1  0
 30 31  2  0
  9 32  2  0
 32  5  1  0
 31 14  1  0
 25 19  1  0
 31 26  1  0
  1 33  1  0
  6 34  1  0
  7 35  1  0
  8 36  1  0
 13 37  1  0
 13 38  1  0
 15 39  1  0
 20 40  1  0
 21 41  1  0
 22 42  1  0
 25 43  1  0
 27 44  1  0
 28 45  1  0
 29 46  1  0
 30 47  1  0
 32 48  1  0
M  CHG  3   1  -1  10  -1  24  -1
M  END
>  <UniqueID>  (51) 
48

>  <SMILES>  (51) 
[NH-]S(=O)(=O)c1cccc([N-]C(=O)Cn2cc(C(=O)c3cccc([O-])c3)c3ccccc32)c1

>  <Energy>  (51) 
91.73898037141329

>  <Genealogy>  (51) 
[NH-]S(=O)(=O)c1cccc([N-]C(=O)Cn2cc(C(=O)c3cccc([O-])c3)c3ccccc32)c1 (protonated)
[NH-]S(=O)(=O)c1cccc([N-]C(=O)Cn2cc(C(=O)c3cccc([O-])c3)c3ccccc32)c1 (3D coordinates assigned)
[NH-]S(=O)(=O)c1cccc([N-]C(=O)Cn2cc(C(=O)c3cccc([O-])c3)c3ccccc32)c1 (optimized conformer: 91.73898037141329 kcal/mol)

>  <smiles>  (51) 
NS(=O)(=O)c1cccc(NC(=O)Cn2cc(C(=O)c3cccc(O)c3)c3ccccc32)c1

>  <score_type>  (51) 
oracle

>  <origin>  (51) 
adg

>  <m_score__min__energy>  (51) 
-17.260000000000002

>  <m_primary>  (51) 
energy

$$$$
51:0
     RDKit          3D

 46 48  0  0  0  0  0  0  0  0999 V2000
   59.8890   34.5410   49.3640 O   0  0  0  0  0  0  0  0  0  0  0  0
   59.5130   33.3430   49.2530 C   0  0  0  0  0  0  0  0  0  0  0  0
   60.0690   32.3070   50.1860 C   0  0  0  0  0  0  0  0  0  0  0  0
   60.4090   31.0770   49.4530 N   0  0  0  0  0  0  0  0  0  0  0  0
   61.8240   30.7730   49.1920 C   0  0  0  0  0  0  0  0  0  0  0  0
   62.4540   31.8860   48.4170 C   0  0  0  0  0  0  0  0  0  0  0  0
   62.0670   32.3270   47.1580 C   0  0  0  0  0  0  0  0  0  0  0  0
   62.8090   33.4260   46.7090 C   0  0  0  0  0  0  0  0  0  0  0  0
   63.7720   33.8560   47.6130 C   0  0  0  0  0  0  0  0  0  0  0  0
   63.6980   32.8700   48.9740 S   0  0  0  0  0  0  0  0  0  0  0  0
   59.3850   30.1800   48.9600 C   0  0  0  0  0  0  0  0  0  0  0  0
   58.2350   30.2070   49.4820 O   0  0  0  0  0  0  0  0  0  0  0  0
   59.6770   29.1540   47.8890 C   0  0  0  0  0  0  0  0  0  0  0  0
   58.9550   29.4530   46.6100 C   0  0  0  0  0  0  0  0  0  0  0  0
   59.2760   30.4600   45.7090 C   0  0  0  0  0  0  0  0  0  0  0  0
   58.4670   30.4530   44.5660 C   0  0  0  0  0  0  0  0  0  0  0  0
   57.5210   29.4360   44.5590 C   0  0  0  0  0  0  0  0  0  0  0  0
   57.6910   28.5430   45.9740 S   0  0  0  0  0  0  0  0  0  0  0  0
   58.5470   32.9790   48.2560 N   0  0  0  0  0  0  0  0  0  0  0  0
   58.2040   33.8810   47.1520 C   0  0  0  0  0  0  0  0  0  0  0  0
   57.2960   33.2130   46.1280 C   0  0  0  0  0  0  0  0  0  0  0  0
   57.5550   33.9580   44.8270 C   0  0  0  0  0  0  0  0  0  0  0  0
   58.9580   34.5530   44.9370 C   0  0  0  0  0  0  0  0  0  0  0  0
   59.4420   34.2860   46.3600 C   0  0  0  0  0  0  0  0  0  0  0  0
   60.9755   32.7032   50.6669 H   0  0  0  0  0  0  0  0  0  0  0  0
   59.3084   32.0686   50.9441 H   0  0  0  0  0  0  0  0  0  0  0  0
   62.3525   30.6513   50.1490 H   0  0  0  0  0  0  0  0  0  0  0  0
   61.8908   29.8439   48.6069 H   0  0  0  0  0  0  0  0  0  0  0  0
   61.2602   31.8605   46.5736 H   0  0  0  0  0  0  0  0  0  0  0  0
   62.6448   33.9041   45.7320 H   0  0  0  0  0  0  0  0  0  0  0  0
   64.4647   34.6975   47.4643 H   0  0  0  0  0  0  0  0  0  0  0  0
   60.7591   29.1453   47.6918 H   0  0  0  0  0  0  0  0  0  0  0  0
   59.3298   28.1759   48.2533 H   0  0  0  0  0  0  0  0  0  0  0  0
   60.0831   31.1885   45.8761 H   0  0  0  0  0  0  0  0  0  0  0  0
   58.5709   31.1840   43.7506 H   0  0  0  0  0  0  0  0  0  0  0  0
   56.7856   29.2468   43.7632 H   0  0  0  0  0  0  0  0  0  0  0  0
   58.0890   32.0420   48.3240 H   0  0  0  0  0  0  0  0  0  0  0  0
   57.7132   34.7410   47.6311 H   0  0  0  0  0  0  0  0  0  0  0  0
   57.5511   32.1483   46.0213 H   0  0  0  0  0  0  0  0  0  0  0  0
   56.2376   33.2550   46.4246 H   0  0  0  0  0  0  0  0  0  0  0  0
   57.5027   33.2639   43.9752 H   0  0  0  0  0  0  0  0  0  0  0  0
   56.8026   34.7434   44.6629 H   0  0  0  0  0  0  0  0  0  0  0  0
   59.6309   34.0719   44.2119 H   0  0  0  0  0  0  0  0  0  0  0  0
   58.9466   35.6314   44.7206 H   0  0  0  0  0  0  0  0  0  0  0  0
   60.1832   33.4732   46.3661 H   0  0  0  0  0  0  0  0  0  0  0  0
   59.9282   35.1718   46.7946 H   0  0  0  0  0  0  0  0  0  0  0  0
  1  2  2  0
  2  3  1  0
  3  4  1  0
  4  5  1  0
  5  6  1  0
  6  7  2  0
  7  8  1  0
  8  9  2  0
  9 10  1  0
  4 11  1  0
 11 12  2  0
 11 13  1  0
 13 14  1  0
 14 15  2  0
 15 16  1  0
 16 17  2  0
 17 18  1  0
  2 19  1  0
 19 20  1  0
 20 21  1  0
 21 22  1  0
 22 23  1  0
 23 24  1  0
 10  6  1  0
 18 14  1  0
 24 20  1  0
  3 25  1  0
  3 26  1  0
  5 27  1  0
  5 28  1  0
  7 29  1  0
  8 30  1  0
  9 31  1  0
 13 32  1  0
 13 33  1  0
 15 34  1  0
 16 35  1  0
 17 36  1  0
 19 37  1  0
 20 38  1  0
 21 39  1  0
 21 40  1  0
 22 41  1  0
 22 42  1  0
 23 43  1  0
 23 44  1  0
 24 45  1  0
 24 46  1  0
M  END
>  <UniqueID>  (52) 
49

>  <SMILES>  (52) 
O=C(CN(Cc1cccs1)C(=O)Cc1cccs1)NC1CCCC1

>  <Energy>  (52) 
91.04616352479069

>  <Genealogy>  (52) 
O=C(CN(Cc1cccs1)C(=O)Cc1cccs1)NC1CCCC1 (3D coordinates assigned)
O=C(CN(Cc1cccs1)C(=O)Cc1cccs1)NC1CCCC1 (nonaromatic ring conformer: 91.04616352479069 kcal/mol)

>  <smiles>  (52) 
O=C(CN(Cc1cccs1)C(=O)Cc1cccs1)NC1CCCC1

>  <score_type>  (52) 
oracle

>  <origin>  (52) 
adg

>  <m_score__min__energy>  (52) 
-8.3200000000000003

>  <m_primary>  (52) 
energy

$$$$
52:0
     RDKit          3D

 47 49  0  0  0  0  0  0  0  0999 V2000
   60.7040   28.6620   50.1760 C   0  0  0  0  0  0  0  0  0  0  0  0
   59.5630   28.9680   49.3820 O   0  0  0  0  0  0  0  0  0  0  0  0
   59.4910   28.7800   47.9930 C   0  0  0  0  0  0  0  0  0  0  0  0
   60.5200   29.1800   47.1210 C   0  0  0  0  0  0  0  0  0  0  0  0
   60.3970   28.9690   45.7450 C   0  0  0  0  0  0  0  0  0  0  0  0
   59.2470   28.3690   45.2260 C   0  0  0  0  0  0  0  0  0  0  0  0
   58.2010   27.9890   46.0810 C   0  0  0  0  0  0  0  0  0  0  0  0
   56.9590   27.3390   45.5320 C   0  0  0  0  0  0  0  0  0  0  0  0
   55.9020   28.3080   45.2480 N   0  0  0  0  0  0  0  0  0  0  0  0
   55.9030   29.3420   44.2510 C   0  0  0  0  0  0  0  0  0  0  0  0
   54.8090   29.6450   43.7040 O   0  0  0  0  0  0  0  0  0  0  0  0
   57.1510   30.0580   43.8070 C   0  0  0  0  0  0  0  0  0  0  0  0
   57.0220   31.5790   43.9320 C   0  0  0  0  0  0  0  0  0  0  0  0
   57.3620   32.0240   45.2810 N   0  0  0  0  0  0  0  0  0  0  0  0
   58.1800   33.1630   45.5690 C   0  0  0  0  0  0  0  0  0  0  0  0
   58.7600   33.7850   44.6400 O   0  0  0  0  0  0  0  0  0  0  0  0
   58.3040   33.6430   46.9830 C   0  0  0  0  0  0  0  0  0  0  0  0
   59.4190   32.9830   47.6630 N   0  0  0  0  0  0  0  0  0  0  0  0
   59.3500   32.1640   48.7410 C   0  0  0  0  0  0  0  0  0  0  0  0
   60.5680   31.7460   49.1770 N   0  0  0  0  0  0  0  0  0  0  0  0
   61.4180   32.3460   48.3230 C   0  0  0  0  0  0  0  0  0  0  0  0
   62.8100   32.2770   48.3190 C   0  0  0  0  0  0  0  0  0  0  0  0
   63.5000   33.0180   47.3410 C   0  0  0  0  0  0  0  0  0  0  0  0
   62.7890   33.8000   46.4010 C   0  0  0  0  0  0  0  0  0  0  0  0
   61.3830   33.8450   46.4290 C   0  0  0  0  0  0  0  0  0  0  0  0
   60.7330   33.0950   47.4110 C   0  0  0  0  0  0  0  0  0  0  0  0
   58.3420   28.1770   47.4660 C   0  0  0  0  0  0  0  0  0  0  0  0
   60.4391   28.7330   51.2413 H   0  0  0  0  0  0  0  0  0  0  0  0
   61.0447   27.6408   49.9502 H   0  0  0  0  0  0  0  0  0  0  0  0
   61.5100   29.3757   49.9502 H   0  0  0  0  0  0  0  0  0  0  0  0
   61.4241   29.6603   47.5235 H   0  0  0  0  0  0  0  0  0  0  0  0
   61.2081   29.2763   45.0685 H   0  0  0  0  0  0  0  0  0  0  0  0
   59.1611   28.1938   44.1434 H   0  0  0  0  0  0  0  0  0  0  0  0
   57.2172   26.8146   44.6002 H   0  0  0  0  0  0  0  0  0  0  0  0
   56.5797   26.6428   46.2945 H   0  0  0  0  0  0  0  0  0  0  0  0
   57.9928   29.7217   44.4301 H   0  0  0  0  0  0  0  0  0  0  0  0
   57.3172   29.8197   42.7461 H   0  0  0  0  0  0  0  0  0  0  0  0
   57.7027   32.0581   43.2129 H   0  0  0  0  0  0  0  0  0  0  0  0
   55.9796   31.8607   43.7223 H   0  0  0  0  0  0  0  0  0  0  0  0
   58.4760   34.7295   46.9807 H   0  0  0  0  0  0  0  0  0  0  0  0
   57.3738   33.4022   47.5186 H   0  0  0  0  0  0  0  0  0  0  0  0
   58.4031   31.8672   49.2156 H   0  0  0  0  0  0  0  0  0  0  0  0
   63.3511   31.6643   49.0551 H   0  0  0  0  0  0  0  0  0  0  0  0
   64.5991   32.9887   47.3076 H   0  0  0  0  0  0  0  0  0  0  0  0
   63.3390   34.3769   45.6429 H   0  0  0  0  0  0  0  0  0  0  0  0
   60.8170   34.4486   45.7042 H   0  0  0  0  0  0  0  0  0  0  0  0
   57.5412   27.8470   48.1440 H   0  0  0  0  0  0  0  0  0  0  0  0
  1  2  1  0
  2  3  1  0
  3  4  2  0
  4  5  1  0
  5  6  2  0
  6  7  1  0
  7  8  1  0
  8  9  1  0
  9 10  1  0
 10 11  2  0
 10 12  1  0
 12 13  1  0
 13 14  1  0
 14 15  1  0
 15 16  2  0
 15 17  1  0
 17 18  1  0
 18 19  1  0
 19 20  2  0
 20 21  1  0
 21 22  2  0
 22 23  1  0
 23 24  2  0
 24 25  1  0
 25 26  2  0
  7 27  2  0
 27  3  1  0
 26 18  1  0
 26 21  1  0
  1 28  1  0
  1 29  1  0
  1 30  1  0
  4 31  1  0
  5 32  1  0
  6 33  1  0
  8 34  1  0
  8 35  1  0
 12 36  1  0
 12 37  1  0
 13 38  1  0
 13 39  1  0
 17 40  1  0
 17 41  1  0
 19 42  1  0
 22 43  1  0
 23 44  1  0
 24 45  1  0
 25 46  1  0
 27 47  1  0
M  CHG  2   9  -1  14  -1
M  END
>  <UniqueID>  (53) 
50

>  <SMILES>  (53) 
COc1cccc(C[N-]C(=O)CC[N-]C(=O)Cn2cnc3ccccc32)c1

>  <Energy>  (53) 
76.95486859600202

>  <Genealogy>  (53) 
COc1cccc(C[N-]C(=O)CC[N-]C(=O)Cn2cnc3ccccc32)c1 (protonated)
COc1cccc(C[N-]C(=O)CC[N-]C(=O)Cn2cnc3ccccc32)c1 (3D coordinates assigned)
COc1cccc(C[N-]C(=O)CC[N-]C(=O)Cn2cnc3ccccc32)c1 (optimized conformer: 76.95486859600202 kcal/mol)

>  <smiles>  (53) 
COc1cccc(CNC(=O)CCNC(=O)Cn2cnc3ccccc32)c1

>  <score_type>  (53) 
oracle

>  <origin>  (53) 
adg

>  <m_score__min__energy>  (53) 
-11.9

>  <m_primary>  (53) 
energy

$$$$
53:0
     RDKit          3D

 44 46  0  0  0  0  0  0  0  0999 V2000
   59.6913   29.3717   44.4837 H   0  0  0  0  0  0  0  0  0  0  0  0
   59.2050   29.4000   45.4700 C   0  0  0  0  0  0  0  0  0  0  0  0
   59.3280   30.5250   46.2080 C   0  0  0  0  0  0  0  0  0  0  0  0
   60.1810   30.5750   47.4240 C   0  0  0  0  0  0  0  0  0  0  0  0
   60.0130   29.7040   48.3180 O   0  0  0  0  0  0  0  0  0  0  0  0
   61.2300   31.6070   47.6060 C   0  0  0  0  0  0  0  0  0  0  0  0
   62.5430   31.3870   47.1530 C   0  0  0  0  0  0  0  0  0  0  0  0
   62.8070   30.4276   46.6841 H   0  0  0  0  0  0  0  0  0  0  0  0
   63.5140   32.3820   47.2960 C   0  0  0  0  0  0  0  0  0  0  0  0
   64.5370   32.2071   46.9314 H   0  0  0  0  0  0  0  0  0  0  0  0
   63.1880   33.5980   47.9010 C   0  0  0  0  0  0  0  0  0  0  0  0
   63.9526   34.3815   48.0081 H   0  0  0  0  0  0  0  0  0  0  0  0
   61.8910   33.8190   48.3700 C   0  0  0  0  0  0  0  0  0  0  0  0
   61.6363   34.7753   48.8503 H   0  0  0  0  0  0  0  0  0  0  0  0
   60.9160   32.8270   48.2300 C   0  0  0  0  0  0  0  0  0  0  0  0
   59.8986   33.0018   48.6098 H   0  0  0  0  0  0  0  0  0  0  0  0
   58.5970   31.7570   45.8080 C   0  0  0  0  0  0  0  0  0  0  0  0
   58.0790   32.6410   46.7740 C   0  0  0  0  0  0  0  0  0  0  0  0
   58.2172   32.4240   47.8435 H   0  0  0  0  0  0  0  0  0  0  0  0
   57.3900   33.7930   46.3820 C   0  0  0  0  0  0  0  0  0  0  0  0
   56.9905   34.4793   47.1432 H   0  0  0  0  0  0  0  0  0  0  0  0
   57.2080   34.0740   45.0260 C   0  0  0  0  0  0  0  0  0  0  0  0
   56.6663   34.9811   44.7200 H   0  0  0  0  0  0  0  0  0  0  0  0
   57.7140   33.2030   44.0590 C   0  0  0  0  0  0  0  0  0  0  0  0
   57.5701   33.4254   42.9914 H   0  0  0  0  0  0  0  0  0  0  0  0
   58.4030   32.0490   44.4440 C   0  0  0  0  0  0  0  0  0  0  0  0
   58.7958   31.3652   43.6771 H   0  0  0  0  0  0  0  0  0  0  0  0
   58.4530   28.2020   45.9120 C   0  0  0  0  0  0  0  0  0  0  0  0
   59.1310   27.2290   46.6600 C   0  0  0  0  0  0  0  0  0  0  0  0
   60.2085   27.3432   46.8495 H   0  0  0  0  0  0  0  0  0  0  0  0
   58.4580   26.1200   47.1660 C   0  0  0  0  0  0  0  0  0  0  0  0
   59.0047   25.3718   47.7587 H   0  0  0  0  0  0  0  0  0  0  0  0
   57.0870   25.9520   46.9240 C   0  0  0  0  0  0  0  0  0  0  0  0
   56.3700   24.8540   47.4250 O   0  0  0  0  0  0  0  0  0  0  0  0
   55.7410   23.8650   46.6170 C   0  0  0  0  0  0  0  0  0  0  0  0
   55.2631   23.1136   47.2628 H   0  0  0  0  0  0  0  0  0  0  0  0
   54.9791   24.3406   45.9820 H   0  0  0  0  0  0  0  0  0  0  0  0
   56.4948   23.3766   45.9820 H   0  0  0  0  0  0  0  0  0  0  0  0
   56.4010   26.9050   46.1590 C   0  0  0  0  0  0  0  0  0  0  0  0
   55.0450   26.7080   45.9090 O   0  0  0  0  0  0  0  0  0  0  0  0
   57.0700   28.0370   45.6380 C   0  0  0  0  0  0  0  0  0  0  0  0
   56.3000   29.0500   44.8670 C   0  0  0  0  0  0  0  0  0  0  0  0
   55.1430   29.3860   45.2370 O   0  0  0  0  0  0  0  0  0  0  0  0
   56.8300   29.6320   43.7230 O   0  0  0  0  0  0  0  0  0  0  0  0
  1  2  1  0
  2  3  2  0
  3  4  1  0
  4  5  2  0
  4  6  1  0
  6  7  2  0
  7  8  1  0
  7  9  1  0
  9 10  1  0
  9 11  2  0
 11 12  1  0
 11 13  1  0
 13 14  1  0
 13 15  2  0
 15 16  1  0
  3 17  1  0
 17 18  2  0
 18 19  1  0
 18 20  1  0
 20 21  1  0
 20 22  2  0
 22 23  1  0
 22 24  1  0
 24 25  1  0
 24 26  2  0
 26 27  1  0
  2 28  1  0
 28 29  2  0
 29 30  1  0
 29 31  1  0
 31 32  1  0
 31 33  2  0
 33 34  1  0
 34 35  1  0
 35 36  1  0
 35 37  1  0
 35 38  1  0
 33 39  1  0
 39 40  1  0
 39 41  2  0
 41 42  1  0
 42 43  2  0
 42 44  1  0
 15  6  1  0
 26 17  1  0
 41 28  1  0
M  CHG  2  40  -1  44  -1
M  END
>  <UniqueID>  (54) 
51

>  <SMILES>  (54) 
COc1ccc(/C=C(\C(=O)c2ccccc2)c2ccccc2)c(C(=O)[O-])c1[O-]

>  <Energy>  (54) 
68.74263467624972

>  <Genealogy>  (54) 
COc1ccc(C=C(C(=O)c2ccccc2)c2ccccc2)c(C(=O)[O-])c1[O-] (protonated)
COc1ccc(/C=C(\C(=O)c2ccccc2)c2ccccc2)c(C(=O)[O-])c1[O-] (cis-trans isomerization)
COc1ccc(/C=C(\C(=O)c2ccccc2)c2ccccc2)c(C(=O)[O-])c1[O-] (3D coordinates assigned)
COc1ccc(/C=C(\C(=O)c2ccccc2)c2ccccc2)c(C(=O)[O-])c1[O-] (optimized conformer: 68.74263467624972 kcal/mol)

>  <smiles>  (54) 
COc1ccc(C=C(C(=O)c2ccccc2)c2ccccc2)c(C(=O)O)c1O

>  <score_type>  (54) 
oracle

>  <origin>  (54) 
adg

>  <m_score__min__energy>  (54) 
-15.51

>  <m_primary>  (54) 
energy

$$$$
54:0
     RDKit          3D

 41 43  0  0  0  0  0  0  0  0999 V2000
   57.0820   33.4160   43.2190 H   0  0  0  0  0  0  0  0  0  0  0  0
   57.9900   33.1430   43.5760 O   0  0  0  0  0  0  0  0  0  0  0  0
   58.3760   33.4320   44.8830 C   0  0  0  0  0  0  0  0  0  0  0  0
   57.8430   32.6890   45.9410 C   0  0  0  0  0  0  0  0  0  0  0  0
   57.1255   31.8807   45.7364 H   0  0  0  0  0  0  0  0  0  0  0  0
   58.2190   32.9700   47.2580 C   0  0  0  0  0  0  0  0  0  0  0  0
   57.8065   32.3720   48.0840 H   0  0  0  0  0  0  0  0  0  0  0  0
   59.1200   34.0110   47.5320 C   0  0  0  0  0  0  0  0  0  0  0  0
   59.5190   34.2680   48.9340 C   0  0  0  0  0  0  0  0  0  0  0  0
   59.5367   35.3151   49.2706 H   0  0  0  0  0  0  0  0  0  0  0  0
   59.8610   33.3270   49.8280 C   0  0  0  0  0  0  0  0  0  0  0  0
   60.9343   33.1629   50.0043 H   0  0  0  0  0  0  0  0  0  0  0  0
   58.9090   32.4920   50.5960 C   0  0  0  0  0  0  0  0  0  0  0  0
   58.1730   33.0320   51.6660 C   0  0  0  0  0  0  0  0  0  0  0  0
   58.3191   34.0835   51.9541 H   0  0  0  0  0  0  0  0  0  0  0  0
   57.2580   32.2420   52.3650 C   0  0  0  0  0  0  0  0  0  0  0  0
   56.7125   32.6659   53.2210 H   0  0  0  0  0  0  0  0  0  0  0  0
   57.0300   30.9140   51.9840 C   0  0  0  0  0  0  0  0  0  0  0  0
   56.0700   30.0960   52.7590 C   0  0  0  0  0  0  0  0  0  0  0  0
   56.3660   29.7972   53.7754 H   0  0  0  0  0  0  0  0  0  0  0  0
   54.8670   29.6890   52.3220 C   0  0  0  0  0  0  0  0  0  0  0  0
   54.7677   28.6348   52.0239 H   0  0  0  0  0  0  0  0  0  0  0  0
   53.6640   30.5440   52.2090 C   0  0  0  0  0  0  0  0  0  0  0  0
   52.8570   30.7420   53.3390 C   0  0  0  0  0  0  0  0  0  0  0  0
   53.1133   30.2477   54.2877 H   0  0  0  0  0  0  0  0  0  0  0  0
   51.7290   31.5640   53.2660 C   0  0  0  0  0  0  0  0  0  0  0  0
   51.0919   31.7020   54.1521 H   0  0  0  0  0  0  0  0  0  0  0  0
   51.4090   32.2110   52.0690 C   0  0  0  0  0  0  0  0  0  0  0  0
   50.2860   33.0260   51.9980 O   0  0  0  0  0  0  0  0  0  0  0  0
   52.2230   32.0420   50.9450 C   0  0  0  0  0  0  0  0  0  0  0  0
   51.9743   32.5552   50.0044 H   0  0  0  0  0  0  0  0  0  0  0  0
   53.3520   31.2220   51.0150 C   0  0  0  0  0  0  0  0  0  0  0  0
   53.9999   31.1056   50.1337 H   0  0  0  0  0  0  0  0  0  0  0  0
   57.7670   30.3700   50.9170 C   0  0  0  0  0  0  0  0  0  0  0  0
   57.6193   29.3181   50.6313 H   0  0  0  0  0  0  0  0  0  0  0  0
   58.6860   31.1570   50.2170 C   0  0  0  0  0  0  0  0  0  0  0  0
   59.3880   30.5980   49.1530 O   0  0  0  0  0  0  0  0  0  0  0  0
   59.6760   34.7360   46.4620 C   0  0  0  0  0  0  0  0  0  0  0  0
   60.4116   35.5292   46.6616 H   0  0  0  0  0  0  0  0  0  0  0  0
   59.2980   34.4530   45.1470 C   0  0  0  0  0  0  0  0  0  0  0  0
   59.7257   35.0337   44.3165 H   0  0  0  0  0  0  0  0  0  0  0  0
  1  2  1  0
  2  3  1  0
  3  4  2  0
  4  5  1  0
  4  6  1  0
  6  7  1  0
  6  8  2  0
  8  9  1  0
  9 10  1  0
  9 11  2  0
 11 12  1  0
 11 13  1  0
 13 14  2  0
 14 15  1  0
 14 16  1  0
 16 17  1  0
 16 18  2  0
 18 19  1  0
 19 20  1  0
 19 21  2  0
 21 22  1  0
 21 23  1  0
 23 24  2  0
 24 25  1  0
 24 26  1  0
 26 27  1  0
 26 28  2  0
 28 29  1  0
 28 30  1  0
 30 31  1  0
 30 32  2  0
 32 33  1  0
 18 34  1  0
 34 35  1  0
 34 36  2  0
 36 37  1  0
  8 38  1  0
 38 39  1  0
 38 40  2  0
 40 41  1  0
 40  3  1  0
 36 13  1  0
 32 23  1  0
M  CHG  2  29  -1  37  -1
M  END
>  <UniqueID>  (55) 
52

>  <SMILES>  (55) 
[O-]c1ccc(/C=C\c2ccc(/C=C\c3ccc(O)cc3)c([O-])c2)cc1

>  <Energy>  (55) 
63.21772951900964

>  <Genealogy>  (55) 
[O-]c1ccc(C=Cc2ccc(C=Cc3ccc(O)cc3)c([O-])c2)cc1 (protonated)
[O-]c1ccc(/C=C\c2ccc(/C=C\c3ccc(O)cc3)c([O-])c2)cc1 (cis-trans isomerization)
[O-]c1ccc(/C=C\c2ccc(/C=C\c3ccc(O)cc3)c([O-])c2)cc1 (3D coordinates assigned)
[O-]c1ccc(/C=C\c2ccc(/C=C\c3ccc(O)cc3)c([O-])c2)cc1 (optimized conformer: 63.21772951900964 kcal/mol)

>  <smiles>  (55) 
Oc1ccc(C=Cc2ccc(C=Cc3ccc(O)cc3)c(O)c2)cc1

>  <score_type>  (55) 
oracle

>  <origin>  (55) 
adg

>  <m_score__min__energy>  (55) 
-14.24

>  <m_primary>  (55) 
energy

$$$$
55:0
     RDKit          3D

 55 58  0  0  0  0  0  0  0  0999 V2000
   60.1540   29.8040   50.8560 C   0  0  0  0  0  0  0  0  0  0  0  0
   59.0670   29.9350   49.8710 N   0  0  0  0  0  0  0  0  0  0  0  0
   59.5840   29.8050   48.4750 C   0  0  0  0  0  0  0  0  0  0  0  0
   58.9070   30.7640   47.4850 C   0  0  0  0  0  0  0  0  0  0  0  0
   59.0150   32.1380   47.9870 N   0  0  0  0  0  0  0  0  0  0  0  0
   59.0590   33.2510   47.0690 C   0  0  0  0  0  0  0  0  0  0  0  0
   59.9100   34.3380   47.3320 C   0  0  0  0  0  0  0  0  0  0  0  0
   60.0180   35.3870   46.4180 C   0  0  0  0  0  0  0  0  0  0  0  0
   59.2890   35.3590   45.2260 C   0  0  0  0  0  0  0  0  0  0  0  0
   58.4230   34.2960   44.9590 C   0  0  0  0  0  0  0  0  0  0  0  0
   58.2970   33.2390   45.8790 C   0  0  0  0  0  0  0  0  0  0  0  0
   57.3410   32.1920   45.6720 N   0  0  0  0  0  0  0  0  0  0  0  0
   57.0960   31.4780   44.4620 C   0  0  0  0  0  0  0  0  0  0  0  0
   57.0690   32.0760   43.3560 O   0  0  0  0  0  0  0  0  0  0  0  0
   56.9300   30.0180   44.5210 C   0  0  0  0  0  0  0  0  0  0  0  0
   55.8200   29.5410   44.8800 O   0  0  0  0  0  0  0  0  0  0  0  0
   57.9850   29.1230   44.1620 N   0  0  0  0  0  0  0  0  0  0  0  0
   58.6390   28.1780   45.0270 C   0  0  0  0  0  0  0  0  0  0  0  0
   57.8740   27.1390   45.5710 C   0  0  0  0  0  0  0  0  0  0  0  0
   58.4380   26.2350   46.4860 C   0  0  0  0  0  0  0  0  0  0  0  0
   57.5880   25.1630   47.1140 C   0  0  0  0  0  0  0  0  0  0  0  0
   56.8520   24.3710   46.0750 C   0  0  0  0  0  0  0  0  0  0  0  0
   57.4520   22.9840   45.3320 S   0  0  0  0  0  0  0  0  0  0  0  0
   56.0990   22.8280   44.3440 C   0  0  0  0  0  0  0  0  0  0  0  0
   55.9320   21.8930   43.5150 O   0  0  0  0  0  0  0  0  0  0  0  0
   55.1850   23.8030   44.5550 N   0  0  0  0  0  0  0  0  0  0  0  0
   55.5940   24.6540   45.5290 C   0  0  0  0  0  0  0  0  0  0  0  0
   54.7790   25.7040   45.9460 O   0  0  0  0  0  0  0  0  0  0  0  0
   59.7880   26.3770   46.8500 C   0  0  0  0  0  0  0  0  0  0  0  0
   60.5530   27.4210   46.3270 C   0  0  0  0  0  0  0  0  0  0  0  0
   59.9850   28.3300   45.4280 C   0  0  0  0  0  0  0  0  0  0  0  0
   60.7290   29.3740   45.0030 F   0  0  0  0  0  0  0  0  0  0  0  0
   58.8350   32.3880   49.4270 C   0  0  0  0  0  0  0  0  0  0  0  0
   58.2570   31.1530   50.1280 C   0  0  0  0  0  0  0  0  0  0  0  0
   59.7360   29.8544   51.8722 H   0  0  0  0  0  0  0  0  0  0  0  0
   60.6615   28.8382   50.7157 H   0  0  0  0  0  0  0  0  0  0  0  0
   60.8764   30.6216   50.7157 H   0  0  0  0  0  0  0  0  0  0  0  0
   60.6638   30.0149   48.4816 H   0  0  0  0  0  0  0  0  0  0  0  0
   59.3630   28.7809   48.1397 H   0  0  0  0  0  0  0  0  0  0  0  0
   59.4028   30.6909   46.5058 H   0  0  0  0  0  0  0  0  0  0  0  0
   57.8460   30.4938   47.3787 H   0  0  0  0  0  0  0  0  0  0  0  0
   60.4943   34.3621   48.2637 H   0  0  0  0  0  0  0  0  0  0  0  0
   60.6791   36.2386   46.6365 H   0  0  0  0  0  0  0  0  0  0  0  0
   59.3973   36.1754   44.4968 H   0  0  0  0  0  0  0  0  0  0  0  0
   57.8382   34.2853   44.0274 H   0  0  0  0  0  0  0  0  0  0  0  0
   56.8193   27.0296   45.2784 H   0  0  0  0  0  0  0  0  0  0  0  0
   58.2348   24.4846   47.6897 H   0  0  0  0  0  0  0  0  0  0  0  0
   56.8486   25.6465   47.7694 H   0  0  0  0  0  0  0  0  0  0  0  0
   55.0070   26.2750   46.7520 H   0  0  0  0  0  0  0  0  0  0  0  0
   60.2441   25.6619   47.5505 H   0  0  0  0  0  0  0  0  0  0  0  0
   61.6069   27.5294   46.6230 H   0  0  0  0  0  0  0  0  0  0  0  0
   59.8094   32.6333   49.8746 H   0  0  0  0  0  0  0  0  0  0  0  0
   58.1327   33.2251   49.5536 H   0  0  0  0  0  0  0  0  0  0  0  0
   58.2312   31.3398   51.2117 H   0  0  0  0  0  0  0  0  0  0  0  0
   57.2468   30.9786   49.7291 H   0  0  0  0  0  0  0  0  0  0  0  0
  1  2  1  0
  2  3  1  0
  3  4  1  0
  4  5  1  0
  5  6  1  0
  6  7  2  0
  7  8  1  0
  8  9  2  0
  9 10  1  0
 10 11  2  0
 11 12  1  0
 12 13  1  0
 13 14  2  0
 13 15  1  0
 15 16  2  0
 15 17  1  0
 17 18  1  0
 18 19  2  0
 19 20  1  0
 20 21  1  0
 21 22  1  0
 22 23  1  0
 23 24  1  0
 24 25  2  0
 24 26  1  0
 26 27  1  0
 27 28  1  0
 20 29  2  0
 29 30  1  0
 30 31  2  0
 31 32  1  0
  5 33  1  0
 33 34  1  0
 34  2  1  0
 11  6  1  0
 31 18  1  0
 27 22  2  0
  1 35  1  0
  1 36  1  0
  1 37  1  0
  3 38  1  0
  3 39  1  0
  4 40  1  0
  4 41  1  0
  7 42  1  0
  8 43  1  0
  9 44  1  0
 10 45  1  0
 19 46  1  0
 21 47  1  0
 21 48  1  0
 28 49  1  0
 29 50  1  0
 30 51  1  0
 33 52  1  0
 33 53  1  0
 34 54  1  0
 34 55  1  0
M  CHG  3  12  -1  17  -1  26  -1
M  END
>  <UniqueID>  (56) 
53

>  <SMILES>  (56) 
CN1CCN(c2ccccc2[N-]C(=O)C(=O)[N-]c2cc(Cc3sc(=O)[n-]c3O)ccc2F)CC1

>  <Energy>  (56) 
110.10676379802526

>  <Genealogy>  (56) 
CN1CCN(c2ccccc2[N-]C(=O)C(=O)[N-]c2cc(Cc3sc(=O)[n-]c3O)ccc2F)CC1 (protonated)
CN1CCN(c2ccccc2[N-]C(=O)C(=O)[N-]c2cc(Cc3sc(=O)[n-]c3O)ccc2F)CC1 (3D coordinates assigned)
CN1CCN(c2ccccc2[N-]C(=O)C(=O)[N-]c2cc(Cc3sc(=O)[n-]c3O)ccc2F)CC1 (nonaromatic ring conformer: 110.10676379802526 kcal/mol)

>  <smiles>  (56) 
CN1CCN(c2ccccc2NC(=O)C(=O)Nc2cc(Cc3sc(=O)[nH]c3O)ccc2F)CC1

>  <score_type>  (56) 
oracle

>  <origin>  (56) 
adg

>  <m_score__min__energy>  (56) 
-14.369999999999999

>  <m_primary>  (56) 
energy

$$$$
56:0
     RDKit          3D

 39 41  0  0  0  0  0  0  0  0999 V2000
   51.4100   32.3090   52.6530 N   0  0  0  0  0  0  0  0  0  0  0  0
   51.7200   31.8700   51.3350 C   0  0  0  0  0  0  0  0  0  0  0  0
   51.0370   32.2950   50.3650 O   0  0  0  0  0  0  0  0  0  0  0  0
   52.8620   31.0240   51.1310 N   0  0  0  0  0  0  0  0  0  0  0  0
   53.8290   30.7280   51.9570 C   0  0  0  0  0  0  0  0  0  0  0  0
   55.1740   30.5890   51.5520 C   0  0  0  0  0  0  0  0  0  0  0  0
   56.1630   30.2670   52.5000 C   0  0  0  0  0  0  0  0  0  0  0  0
   57.5860   30.1270   52.0920 C   0  0  0  0  0  0  0  0  0  0  0  0
   58.5930   29.9710   53.0560 C   0  0  0  0  0  0  0  0  0  0  0  0
   59.9190   29.8210   52.6520 C   0  0  0  0  0  0  0  0  0  0  0  0
   60.2360   29.8370   51.3320 N   0  0  0  0  0  0  0  0  0  0  0  0
   59.2990   30.0050   50.3610 C   0  0  0  0  0  0  0  0  0  0  0  0
   59.6890   29.9980   49.1160 N   0  0  0  0  0  0  0  0  0  0  0  0
   59.1590   29.2090   48.0390 C   0  0  0  0  0  0  0  0  0  0  0  0
   59.3370   27.8160   48.0030 C   0  0  0  0  0  0  0  0  0  0  0  0
   58.7750   27.0630   46.9680 C   0  0  0  0  0  0  0  0  0  0  0  0
   58.0130   27.6900   45.9790 C   0  0  0  0  0  0  0  0  0  0  0  0
   57.7940   29.0730   46.0310 C   0  0  0  0  0  0  0  0  0  0  0  0
   56.8330   29.8660   44.7870 S   0  0  0  0  0  0  0  0  0  0  0  0
   55.2020   29.3070   44.8740 N   0  0  0  0  0  0  0  0  0  0  0  0
   57.4010   29.5550   43.4300 O   0  0  0  0  0  0  0  0  0  0  0  0
   56.8620   31.3550   44.9910 O   0  0  0  0  0  0  0  0  0  0  0  0
   58.3640   29.8270   47.0660 C   0  0  0  0  0  0  0  0  0  0  0  0
   57.9450   30.1390   50.7320 C   0  0  0  0  0  0  0  0  0  0  0  0
   55.7840   30.0720   53.8350 C   0  0  0  0  0  0  0  0  0  0  0  0
   54.4430   30.1930   54.1960 C   0  0  0  0  0  0  0  0  0  0  0  0
   53.5110   30.5120   53.2610 N   0  0  0  0  0  0  0  0  0  0  0  0
   52.0040   32.0300   53.4650 H   0  0  0  0  0  0  0  0  0  0  0  0
   55.4488   30.7322   50.4966 H   0  0  0  0  0  0  0  0  0  0  0  0
   58.3377   29.9670   54.1259 H   0  0  0  0  0  0  0  0  0  0  0  0
   60.7103   29.6894   53.4047 H   0  0  0  0  0  0  0  0  0  0  0  0
   59.9199   27.3167   48.7910 H   0  0  0  0  0  0  0  0  0  0  0  0
   58.9330   25.9750   46.9322 H   0  0  0  0  0  0  0  0  0  0  0  0
   57.5841   27.0968   45.1579 H   0  0  0  0  0  0  0  0  0  0  0  0
   55.1540   28.6260   45.6640 H   0  0  0  0  0  0  0  0  0  0  0  0
   58.1856   30.9114   47.1142 H   0  0  0  0  0  0  0  0  0  0  0  0
   57.1708   30.2527   49.9589 H   0  0  0  0  0  0  0  0  0  0  0  0
   56.5407   29.8247   54.5941 H   0  0  0  0  0  0  0  0  0  0  0  0
   54.1390   30.0298   55.2405 H   0  0  0  0  0  0  0  0  0  0  0  0
  1  2  1  0
  2  3  2  0
  2  4  1  0
  4  5  2  3
  5  6  1  0
  6  7  2  0
  7  8  1  0
  8  9  1  0
  9 10  2  0
 10 11  1  0
 11 12  1  0
 12 13  2  3
 13 14  1  0
 14 15  2  0
 15 16  1  0
 16 17  2  0
 17 18  1  0
 18 19  1  0
 19 20  1  0
 19 21  2  0
 19 22  2  0
 18 23  2  0
 12 24  1  0
  7 25  1  0
 25 26  2  0
 26 27  1  0
 27  5  1  0
 24  8  2  0
 23 14  1  0
  1 28  1  0
  6 29  1  0
  9 30  1  0
 10 31  1  0
 15 32  1  0
 16 33  1  0
 17 34  1  0
 20 35  1  0
 23 36  1  0
 24 37  1  0
 25 38  1  0
 26 39  1  0
M  CHG  4   1  -1  11  -1  20  -1  27  -1
M  END
>  <UniqueID>  (57) 
54

>  <SMILES>  (57) 
[NH-]C(=O)N=c1cc(-c2cc[n-]c(=Nc3cccc(S([NH-])(=O)=O)c3)c2)cc[n-]1

>  <Energy>  (57) 
64.2379302266039

>  <Genealogy>  (57) 
[NH-]C(=O)N=c1cc(-c2cc[n-]c(=Nc3cccc(S([NH-])(=O)=O)c3)c2)cc[n-]1 (protonated)
[NH-]C(=O)N=c1cc(-c2cc[n-]c(=Nc3cccc(S([NH-])(=O)=O)c3)c2)cc[n-]1 (3D coordinates assigned)
[NH-]C(=O)N=c1cc(-c2cc[n-]c(=Nc3cccc(S([NH-])(=O)=O)c3)c2)cc[n-]1 (optimized conformer: 64.2379302266039 kcal/mol)

>  <smiles>  (57) 
NC(=O)N=c1cc(-c2cc[nH]c(=Nc3cccc(S(N)(=O)=O)c3)c2)cc[nH]1

>  <score_type>  (57) 
oracle

>  <origin>  (57) 
adg

>  <m_score__min__energy>  (57) 
-14.5

>  <m_primary>  (57) 
energy

$$$$
57:0
     RDKit          3D

 64 66  0  0  0  0  0  0  0  0999 V2000
   57.4050   32.3110   40.7490 C   0  0  0  0  0  0  0  0  0  0  0  0
   57.4800   32.0020   42.0450 C   0  0  0  0  0  0  0  0  0  0  0  0
   56.6950   30.8560   42.6360 C   0  0  0  0  0  0  0  0  0  0  0  0
   57.5460   29.9600   43.4430 N   0  0  0  0  0  0  0  0  0  0  0  0
   56.7940   29.0810   44.3060 C   0  0  0  0  0  0  0  0  0  0  0  0
   55.5760   29.3100   44.5630 O   0  0  0  0  0  0  0  0  0  0  0  0
   57.4730   27.9990   44.9620 N   0  0  0  0  0  0  0  0  0  0  0  0
   56.8570   27.2010   45.9870 C   0  0  0  0  0  0  0  0  0  0  0  0
   55.6150   26.9850   45.9580 O   0  0  0  0  0  0  0  0  0  0  0  0
   57.6720   26.6030   47.1020 C   0  0  0  0  0  0  0  0  0  0  0  0
   59.0400   27.0100   47.0500 O   0  0  0  0  0  0  0  0  0  0  0  0
   59.5460   28.2580   47.4570 C   0  0  0  0  0  0  0  0  0  0  0  0
   59.3150   28.7530   48.7540 C   0  0  0  0  0  0  0  0  0  0  0  0
   59.7700   30.0190   49.1350 C   0  0  0  0  0  0  0  0  0  0  0  0
   59.4300   30.5160   50.4350 N   0  0  0  0  0  0  0  0  0  0  0  0
   59.6920   29.7580   51.6440 C   0  0  0  0  0  0  0  0  0  0  0  0
   58.7230   30.3000   52.6900 C   0  0  0  0  0  0  0  0  0  0  0  0
   58.1770   31.6070   52.1200 C   0  0  0  0  0  0  0  0  0  0  0  0
   58.4050   31.5290   50.6180 C   0  0  0  0  0  0  0  0  0  0  0  0
   60.5170   30.7940   48.2330 C   0  0  0  0  0  0  0  0  0  0  0  0
   61.1220   32.3930   48.6840 S   0  0  0  0  0  0  0  0  0  0  0  0
   61.5170   32.4050   50.1350 O   0  0  0  0  0  0  0  0  0  0  0  0
   62.3320   32.7210   47.8530 O   0  0  0  0  0  0  0  0  0  0  0  0
   59.9010   33.6110   48.4260 N   0  0  0  0  0  0  0  0  0  0  0  0
   59.6420   34.5830   49.4930 C   0  0  0  0  0  0  0  0  0  0  0  0
   59.1830   33.6920   47.1740 C   0  0  0  0  0  0  0  0  0  0  0  0
   59.6270   34.5400   46.1390 C   0  0  0  0  0  0  0  0  0  0  0  0
   58.9180   34.6290   44.9370 C   0  0  0  0  0  0  0  0  0  0  0  0
   57.7570   33.8760   44.7530 C   0  0  0  0  0  0  0  0  0  0  0  0
   57.3020   33.0360   45.7700 C   0  0  0  0  0  0  0  0  0  0  0  0
   58.0090   32.9410   46.9730 C   0  0  0  0  0  0  0  0  0  0  0  0
   60.7830   30.2910   46.9520 C   0  0  0  0  0  0  0  0  0  0  0  0
   60.2880   29.0380   46.5410 C   0  0  0  0  0  0  0  0  0  0  0  0
   60.5380   28.5820   45.1930 N   0  0  0  0  0  0  0  0  0  0  0  0
   61.5160   27.8460   44.9460 O   0  0  0  0  0  0  0  0  0  0  0  0
   59.7570   29.0060   44.1390 O   0  0  0  0  0  0  0  0  0  0  0  0
   57.9901   33.1525   40.3495 H   0  0  0  0  0  0  0  0  0  0  0  0
   56.7581   31.7243   40.0802 H   0  0  0  0  0  0  0  0  0  0  0  0
   58.1315   32.5986   42.7005 H   0  0  0  0  0  0  0  0  0  0  0  0
   55.9001   31.2638   43.2778 H   0  0  0  0  0  0  0  0  0  0  0  0
   56.2749   30.2687   41.8062 H   0  0  0  0  0  0  0  0  0  0  0  0
   58.1060   29.3700   42.7850 H   0  0  0  0  0  0  0  0  0  0  0  0
   58.2160   30.5120   44.0290 H   0  0  0  0  0  0  0  0  0  0  0  0
   58.4970   27.8850   44.7830 H   0  0  0  0  0  0  0  0  0  0  0  0
   57.2440   26.9220   48.0638 H   0  0  0  0  0  0  0  0  0  0  0  0
   57.6413   25.5089   46.9927 H   0  0  0  0  0  0  0  0  0  0  0  0
   58.7675   28.1338   49.4799 H   0  0  0  0  0  0  0  0  0  0  0  0
   59.5106   28.6868   51.4718 H   0  0  0  0  0  0  0  0  0  0  0  0
   60.7381   29.8604   51.9684 H   0  0  0  0  0  0  0  0  0  0  0  0
   57.9042   29.5852   52.8594 H   0  0  0  0  0  0  0  0  0  0  0  0
   59.2218   30.4594   53.6574 H   0  0  0  0  0  0  0  0  0  0  0  0
   57.1035   31.7026   52.3404 H   0  0  0  0  0  0  0  0  0  0  0  0
   58.6766   32.4821   52.5613 H   0  0  0  0  0  0  0  0  0  0  0  0
   57.4783   31.2361   50.1028 H   0  0  0  0  0  0  0  0  0  0  0  0
   58.7101   32.4996   50.1998 H   0  0  0  0  0  0  0  0  0  0  0  0
   59.7715   34.0969   50.4712 H   0  0  0  0  0  0  0  0  0  0  0  0
   60.3479   35.4219   49.4041 H   0  0  0  0  0  0  0  0  0  0  0  0
   58.6122   34.9594   49.4041 H   0  0  0  0  0  0  0  0  0  0  0  0
   60.5400   35.1375   46.2783 H   0  0  0  0  0  0  0  0  0  0  0  0
   59.2753   35.2928   44.1359 H   0  0  0  0  0  0  0  0  0  0  0  0
   57.2009   33.9449   43.8064 H   0  0  0  0  0  0  0  0  0  0  0  0
   56.3845   32.4467   45.6252 H   0  0  0  0  0  0  0  0  0  0  0  0
   57.6450   32.2742   47.7685 H   0  0  0  0  0  0  0  0  0  0  0  0
   61.3901   30.8863   46.2541 H   0  0  0  0  0  0  0  0  0  0  0  0
  1  2  2  0
  2  3  1  0
  3  4  1  0
  4  5  1  0
  5  6  2  0
  5  7  1  0
  7  8  1  0
  8  9  2  0
  8 10  1  0
 10 11  1  0
 11 12  1  0
 12 13  2  0
 13 14  1  0
 14 15  1  0
 15 16  1  0
 16 17  1  0
 17 18  1  0
 18 19  1  0
 14 20  2  0
 20 21  1  0
 21 22  2  0
 21 23  2  0
 21 24  1  0
 24 25  1  0
 24 26  1  0
 26 27  2  0
 27 28  1  0
 28 29  2  0
 29 30  1  0
 30 31  2  0
 20 32  1  0
 32 33  2  0
 33 34  1  0
 34 35  2  0
 34 36  1  0
 33 12  1  0
 19 15  1  0
 31 26  1  0
  1 37  1  0
  1 38  1  0
  2 39  1  0
  3 40  1  0
  3 41  1  0
  4 42  1  0
  4 43  1  0
  7 44  1  0
 10 45  1  0
 10 46  1  0
 13 47  1  0
 16 48  1  0
 16 49  1  0
 17 50  1  0
 17 51  1  0
 18 52  1  0
 18 53  1  0
 19 54  1  0
 19 55  1  0
 25 56  1  0
 25 57  1  0
 25 58  1  0
 27 59  1  0
 28 60  1  0
 29 61  1  0
 30 62  1  0
 31 63  1  0
 32 64  1  0
M  CHG  3   4   1  34   1  36  -1
M  END
>  <UniqueID>  (58) 
55

>  <SMILES>  (58) 
C=CC[NH2+]C(=O)NC(=O)COc1cc(N2CCCC2)c(S(=O)(=O)N(C)c2ccccc2)cc1[N+](=O)[O-]

>  <Energy>  (58) 
75.94573123321904

>  <Genealogy>  (58) 
C=CC[NH2+]C(=O)NC(=O)COc1cc(N2CCCC2)c(S(=O)(=O)N(C)c2ccccc2)cc1[N+](=O)[O-] (protonated)
C=CC[NH2+]C(=O)NC(=O)COc1cc(N2CCCC2)c(S(=O)(=O)N(C)c2ccccc2)cc1[N+](=O)[O-] (3D coordinates assigned)
C=CC[NH2+]C(=O)NC(=O)COc1cc(N2CCCC2)c(S(=O)(=O)N(C)c2ccccc2)cc1[N+](=O)[O-] (nonaromatic ring conformer: 75.94573123321904 kcal/mol)

>  <smiles>  (58) 
C=CCNC(=O)NC(=O)COc1cc(N2CCCC2)c(S(=O)(=O)N(C)c2ccccc2)cc1[N+](=O)[O-]

>  <score_type>  (58) 
oracle

>  <origin>  (58) 
adg

>  <m_score__min__energy>  (58) 
-8.6300000000000008

>  <m_primary>  (58) 
energy

$$$$
58:0
     RDKit          3D

 47 49  0  0  0  0  0  0  0  0999 V2000
   55.9220   23.5540   43.3440 C   0  0  0  0  0  0  0  0  0  0  0  0
   57.1840   23.3530   44.0670 N   0  0  0  0  0  0  0  0  0  0  0  0
   57.7950   22.0170   44.0690 C   0  0  0  0  0  0  0  0  0  0  0  0
   57.8180   24.4550   44.7690 C   0  0  0  0  0  0  0  0  0  0  0  0
   58.8740   24.2230   45.6730 C   0  0  0  0  0  0  0  0  0  0  0  0
   59.4800   25.2820   46.3500 C   0  0  0  0  0  0  0  0  0  0  0  0
   59.0500   26.5920   46.1380 C   0  0  0  0  0  0  0  0  0  0  0  0
   58.0060   26.8590   45.2380 C   0  0  0  0  0  0  0  0  0  0  0  0
   57.5370   28.2480   45.0120 C   0  0  0  0  0  0  0  0  0  0  0  0
   56.4720   28.6410   45.5610 O   0  0  0  0  0  0  0  0  0  0  0  0
   58.2550   29.1340   44.1370 N   0  0  0  0  0  0  0  0  0  0  0  0
   58.1360   30.5670   44.1760 C   0  0  0  0  0  0  0  0  0  0  0  0
   57.8710   31.3130   43.0130 C   0  0  0  0  0  0  0  0  0  0  0  0
   57.7330   32.7030   43.0820 C   0  0  0  0  0  0  0  0  0  0  0  0
   57.8420   33.3580   44.3100 C   0  0  0  0  0  0  0  0  0  0  0  0
   58.0810   32.6230   45.4770 C   0  0  0  0  0  0  0  0  0  0  0  0
   58.1960   33.4610   47.0570 S   0  0  0  0  0  0  0  0  0  0  0  0
   59.9640   33.1890   47.1760 C   0  0  0  0  0  0  0  0  0  0  0  0
   60.4580   32.0860   47.8820 C   0  0  0  0  0  0  0  0  0  0  0  0
   61.8370   31.8770   47.9840 C   0  0  0  0  0  0  0  0  0  0  0  0
   62.7310   32.7700   47.3760 C   0  0  0  0  0  0  0  0  0  0  0  0
   64.1410   32.5590   47.4820 N   0  0  0  0  0  0  0  0  0  0  0  0
   62.2330   33.8710   46.6650 C   0  0  0  0  0  0  0  0  0  0  0  0
   60.8550   34.0790   46.5640 C   0  0  0  0  0  0  0  0  0  0  0  0
   58.2250   31.2320   45.4090 C   0  0  0  0  0  0  0  0  0  0  0  0
   57.3920   25.7860   44.5660 C   0  0  0  0  0  0  0  0  0  0  0  0
   55.1025   23.6845   44.0661 H   0  0  0  0  0  0  0  0  0  0  0  0
   56.0003   24.4510   42.7121 H   0  0  0  0  0  0  0  0  0  0  0  0
   55.7177   22.6771   42.7121 H   0  0  0  0  0  0  0  0  0  0  0  0
   57.9469   21.6848   45.1066 H   0  0  0  0  0  0  0  0  0  0  0  0
   57.1310   21.3094   43.5510 H   0  0  0  0  0  0  0  0  0  0  0  0
   58.7646   22.0564   43.5510 H   0  0  0  0  0  0  0  0  0  0  0  0
   59.2246   23.1950   45.8469 H   0  0  0  0  0  0  0  0  0  0  0  0
   60.3010   25.0828   47.0545 H   0  0  0  0  0  0  0  0  0  0  0  0
   59.5314   27.4201   46.6788 H   0  0  0  0  0  0  0  0  0  0  0  0
   58.8090   28.7110   43.3580 H   0  0  0  0  0  0  0  0  0  0  0  0
   57.7719   30.8005   42.0447 H   0  0  0  0  0  0  0  0  0  0  0  0
   57.5382   33.2813   42.1668 H   0  0  0  0  0  0  0  0  0  0  0  0
   57.7400   34.4521   44.3605 H   0  0  0  0  0  0  0  0  0  0  0  0
   59.7597   31.3817   48.3578 H   0  0  0  0  0  0  0  0  0  0  0  0
   62.2211   31.0105   48.5422 H   0  0  0  0  0  0  0  0  0  0  0  0
   64.7980   32.9720   46.7820 H   0  0  0  0  0  0  0  0  0  0  0  0
   64.5400   31.9850   48.2590 H   0  0  0  0  0  0  0  0  0  0  0  0
   62.9298   34.5738   46.1848 H   0  0  0  0  0  0  0  0  0  0  0  0
   60.4696   34.9431   46.0029 H   0  0  0  0  0  0  0  0  0  0  0  0
   58.4091   30.6563   46.3281 H   0  0  0  0  0  0  0  0  0  0  0  0
   56.5648   25.9877   43.8696 H   0  0  0  0  0  0  0  0  0  0  0  0
  1  2  1  0
  2  3  1  0
  2  4  1  0
  4  5  2  0
  5  6  1  0
  6  7  2  0
  7  8  1  0
  8  9  1  0
  9 10  2  0
  9 11  1  0
 11 12  1  0
 12 13  2  0
 13 14  1  0
 14 15  2  0
 15 16  1  0
 16 17  1  0
 17 18  1  0
 18 19  2  0
 19 20  1  0
 20 21  2  0
 21 22  1  0
 21 23  1  0
 23 24  2  0
 16 25  2  0
  8 26  2  0
 26  4  1  0
 25 12  1  0
 24 18  1  0
  1 27  1  0
  1 28  1  0
  1 29  1  0
  3 30  1  0
  3 31  1  0
  3 32  1  0
  5 33  1  0
  6 34  1  0
  7 35  1  0
 11 36  1  0
 13 37  1  0
 14 38  1  0
 15 39  1  0
 19 40  1  0
 20 41  1  0
 22 42  1  0
 22 43  1  0
 23 44  1  0
 24 45  1  0
 25 46  1  0
 26 47  1  0
M  END
>  <UniqueID>  (59) 
56

>  <SMILES>  (59) 
CN(C)c1cccc(C(=O)Nc2cccc(Sc3ccc(N)cc3)c2)c1

>  <Energy>  (59) 
50.71935020487027

>  <Genealogy>  (59) 
CN(C)c1cccc(C(=O)Nc2cccc(Sc3ccc(N)cc3)c2)c1 (3D coordinates assigned)
CN(C)c1cccc(C(=O)Nc2cccc(Sc3ccc(N)cc3)c2)c1 (optimized conformer: 50.71935020487027 kcal/mol)

>  <smiles>  (59) 
CN(C)c1cccc(C(=O)Nc2cccc(Sc3ccc(N)cc3)c2)c1

>  <score_type>  (59) 
oracle

>  <origin>  (59) 
adg

>  <m_score__min__energy>  (59) 
-8.5800000000000001

>  <m_primary>  (59) 
energy

$$$$
59:0
     RDKit          3D

 42 45  0  0  0  0  0  0  0  0999 V2000
   56.7350   24.6340   47.2490 C   0  0  0  0  0  0  0  0  0  0  0  0
   57.2570   25.0750   45.9970 O   0  0  0  0  0  0  0  0  0  0  0  0
   57.4050   26.4230   45.6330 C   0  0  0  0  0  0  0  0  0  0  0  0
   58.6530   26.9750   45.2880 C   0  0  0  0  0  0  0  0  0  0  0  0
   58.7550   28.3220   44.9320 C   0  0  0  0  0  0  0  0  0  0  0  0
   57.6160   29.1450   44.9230 C   0  0  0  0  0  0  0  0  0  0  0  0
   57.7230   30.5690   44.5340 C   0  0  0  0  0  0  0  0  0  0  0  0
   58.4880   31.0160   43.5170 N   0  0  0  0  0  0  0  0  0  0  0  0
   58.3470   32.3290   43.4840 N   0  0  0  0  0  0  0  0  0  0  0  0
   57.5030   32.6460   44.4820 C   0  0  0  0  0  0  0  0  0  0  0  0
   57.0120   34.3200   44.8740 S   0  0  0  0  0  0  0  0  0  0  0  0
   58.7290   34.9320   44.9180 C   0  0  0  0  0  0  0  0  0  0  0  0
   59.4940   34.2350   46.0000 C   0  0  0  0  0  0  0  0  0  0  0  0
   60.0280   34.9160   46.9180 O   0  0  0  0  0  0  0  0  0  0  0  0
   59.6730   32.8090   45.9490 N   0  0  0  0  0  0  0  0  0  0  0  0
   60.1850   32.0210   47.0380 C   0  0  0  0  0  0  0  0  0  0  0  0
   61.3090   32.4490   47.7980 C   0  0  0  0  0  0  0  0  0  0  0  0
   61.7820   31.6780   48.8740 C   0  0  0  0  0  0  0  0  0  0  0  0
   61.1030   30.4990   49.1760 C   0  0  0  0  0  0  0  0  0  0  0  0
   60.0170   30.0940   48.4710 C   0  0  0  0  0  0  0  0  0  0  0  0
   59.5180   30.8280   47.3980 C   0  0  0  0  0  0  0  0  0  0  0  0
   59.5460   28.9060   48.9920 O   0  0  0  0  0  0  0  0  0  0  0  0
   60.3880   28.5400   50.0950 C   0  0  0  0  0  0  0  0  0  0  0  0
   61.3690   29.5840   50.1770 O   0  0  0  0  0  0  0  0  0  0  0  0
   57.0830   31.5690   45.1720 N   0  0  0  0  0  0  0  0  0  0  0  0
   56.3740   28.5930   45.2770 C   0  0  0  0  0  0  0  0  0  0  0  0
   56.2700   27.2420   45.6210 C   0  0  0  0  0  0  0  0  0  0  0  0
   55.0280   26.7130   45.9570 O   0  0  0  0  0  0  0  0  0  0  0  0
   57.2962   25.1081   48.0677 H   0  0  0  0  0  0  0  0  0  0  0  0
   55.6735   24.9130   47.3224 H   0  0  0  0  0  0  0  0  0  0  0  0
   56.8327   23.5408   47.3224 H   0  0  0  0  0  0  0  0  0  0  0  0
   59.5528   26.3424   45.2988 H   0  0  0  0  0  0  0  0  0  0  0  0
   59.7339   28.7414   44.6567 H   0  0  0  0  0  0  0  0  0  0  0  0
   59.2101   34.7369   43.9482 H   0  0  0  0  0  0  0  0  0  0  0  0
   58.7217   36.0132   45.1203 H   0  0  0  0  0  0  0  0  0  0  0  0
   59.5040   32.3240   45.0360 H   0  0  0  0  0  0  0  0  0  0  0  0
   61.8128   33.3925   47.5411 H   0  0  0  0  0  0  0  0  0  0  0  0
   62.6587   31.9946   49.4581 H   0  0  0  0  0  0  0  0  0  0  0  0
   58.6292   30.4887   46.8458 H   0  0  0  0  0  0  0  0  0  0  0  0
   59.8038   28.4847   51.0254 H   0  0  0  0  0  0  0  0  0  0  0  0
   60.8484   27.5512   49.9525 H   0  0  0  0  0  0  0  0  0  0  0  0
   55.4762   29.2286   45.2836 H   0  0  0  0  0  0  0  0  0  0  0  0
  1  2  1  0
  2  3  1  0
  3  4  2  0
  4  5  1  0
  5  6  2  0
  6  7  1  0
  7  8  2  0
  8  9  1  0
  9 10  1  0
 10 11  1  0
 11 12  1  0
 12 13  1  0
 13 14  2  0
 13 15  1  0
 15 16  1  0
 16 17  2  0
 17 18  1  0
 18 19  2  0
 19 20  1  0
 20 21  2  0
 20 22  1  0
 22 23  1  0
 23 24  1  0
 10 25  2  0
  6 26  1  0
 26 27  2  0
 27 28  1  0
 27  3  1  0
 25  7  1  0
 21 16  1  0
 24 19  1  0
  1 29  1  0
  1 30  1  0
  1 31  1  0
  4 32  1  0
  5 33  1  0
 12 34  1  0
 12 35  1  0
 15 36  1  0
 17 37  1  0
 18 38  1  0
 21 39  1  0
 23 40  1  0
 23 41  1  0
 26 42  1  0
M  CHG  2   9  -1  28  -1
M  END
>  <UniqueID>  (60) 
57

>  <SMILES>  (60) 
COc1ccc(-c2n[n-]c(SCC(=O)Nc3ccc4c(c3)OCO4)n2)cc1[O-]

>  <Energy>  (60) 
104.90267676955852

>  <Genealogy>  (60) 
COc1ccc(-c2n[n-]c(SCC(=O)Nc3ccc4c(c3)OCO4)n2)cc1[O-] (protonated)
COc1ccc(-c2n[n-]c(SCC(=O)Nc3ccc4c(c3)OCO4)n2)cc1[O-] (3D coordinates assigned)
COc1ccc(-c2n[n-]c(SCC(=O)Nc3ccc4c(c3)OCO4)n2)cc1[O-] (nonaromatic ring conformer: 104.90267676955852 kcal/mol)

>  <smiles>  (60) 
COc1ccc(-c2n[nH]c(SCC(=O)Nc3ccc4c(c3)OCO4)n2)cc1O

>  <score_type>  (60) 
oracle

>  <origin>  (60) 
adg

>  <m_score__min__energy>  (60) 
-12.32

>  <m_primary>  (60) 
energy

$$$$
60:0
     RDKit          3D

 52 53  0  0  0  0  0  0  0  0999 V2000
   54.7380   29.4740   44.8540 H   0  0  0  0  0  0  0  0  0  0  0  0
   55.6470   29.4090   44.3390 N   0  0  0  0  0  0  0  0  0  0  0  0
   56.3750   30.4550   44.1230 C   0  0  0  0  0  0  0  0  0  0  0  0
   56.7090   31.2810   45.1570 N   0  0  0  0  0  0  0  0  0  0  0  0
   57.4760   32.3960   44.9870 C   0  0  0  0  0  0  0  0  0  0  0  0
   57.8040   33.1900   46.1910 C   0  0  0  0  0  0  0  0  0  0  0  0
   57.7299   32.6912   47.1686 H   0  0  0  0  0  0  0  0  0  0  0  0
   58.1850   34.4740   46.1740 C   0  0  0  0  0  0  0  0  0  0  0  0
   57.4112   35.2546   46.1292 H   0  0  0  0  0  0  0  0  0  0  0  0
   59.6030   34.8820   46.2130 C   0  0  0  0  0  0  0  0  0  0  0  0
   59.9710   35.8570   45.5020 O   0  0  0  0  0  0  0  0  0  0  0  0
   60.5650   34.2300   47.0600 N   0  0  0  0  0  0  0  0  0  0  0  0
   61.8800   33.8690   46.4980 C   0  0  0  0  0  0  0  0  0  0  0  0
   61.7196   33.3405   45.5467 H   0  0  0  0  0  0  0  0  0  0  0  0
   62.4439   34.8039   46.3639 H   0  0  0  0  0  0  0  0  0  0  0  0
   62.7130   32.9640   47.4250 C   0  0  0  0  0  0  0  0  0  0  0  0
   63.7288   32.8842   47.0106 H   0  0  0  0  0  0  0  0  0  0  0  0
   62.7004   33.4284   48.4221 H   0  0  0  0  0  0  0  0  0  0  0  0
   62.1390   31.5390   47.5850 C   0  0  0  0  0  0  0  0  0  0  0  0
   62.6183   30.8900   46.8373 H   0  0  0  0  0  0  0  0  0  0  0  0
   62.3493   31.2325   48.6203 H   0  0  0  0  0  0  0  0  0  0  0  0
   60.6700   31.4420   47.4080 N   0  0  1  0  0  0  0  0  0  0  0  0
   60.4360   31.7970   46.4480 H   0  0  0  0  0  0  0  0  0  0  0  0
   60.2550   30.0470   47.4290 C   0  0  0  0  0  0  0  0  0  0  0  0
   61.0320   29.1860   47.0240 O   0  0  0  0  0  0  0  0  0  0  0  0
   58.8700   29.6210   47.8870 C   0  0  0  0  0  0  0  0  0  0  0  0
   58.8573   29.5737   48.9859 H   0  0  0  0  0  0  0  0  0  0  0  0
   58.1446   30.3593   47.5146 H   0  0  0  0  0  0  0  0  0  0  0  0
   58.4820   28.2460   47.3260 C   0  0  0  0  0  0  0  0  0  0  0  0
   59.3716   27.5990   47.3176 H   0  0  0  0  0  0  0  0  0  0  0  0
   57.6955   27.8204   47.9666 H   0  0  0  0  0  0  0  0  0  0  0  0
   57.9580   28.3530   45.9630 N   0  0  0  0  0  0  0  0  0  0  0  0
   56.9250   28.4890   45.8530 H   0  0  0  0  0  0  0  0  0  0  0  0
   58.7520   28.2320   44.7670 C   0  0  0  0  0  0  0  0  0  0  0  0
   58.0860   28.0860   43.5020 N   0  0  0  0  0  0  0  0  0  0  0  0
   58.6300   28.0250   42.6130 H   0  0  0  0  0  0  0  0  0  0  0  0
   57.0450   28.0650   43.4470 H   0  0  0  0  0  0  0  0  0  0  0  0
   60.0500   28.2740   44.8060 N   0  0  0  0  0  0  0  0  0  0  0  0
   60.5810   27.6940   45.4970 H   0  0  0  0  0  0  0  0  0  0  0  0
   60.6130   28.8600   44.1530 H   0  0  0  0  0  0  0  0  0  0  0  0
   59.8920   32.2120   48.4130 C   0  0  0  0  0  0  0  0  0  0  0  0
   58.8226   32.0260   48.2349 H   0  0  0  0  0  0  0  0  0  0  0  0
   60.2312   31.8671   49.4009 H   0  0  0  0  0  0  0  0  0  0  0  0
   60.1290   33.7430   48.3770 C   0  0  0  0  0  0  0  0  0  0  0  0
   59.1892   34.2488   48.6434 H   0  0  0  0  0  0  0  0  0  0  0  0
   60.9348   33.9663   49.0917 H   0  0  0  0  0  0  0  0  0  0  0  0
   57.9490   32.7060   43.6930 C   0  0  0  0  0  0  0  0  0  0  0  0
   58.5779   33.5940   43.5319 H   0  0  0  0  0  0  0  0  0  0  0  0
   57.6130   31.8770   42.6170 C   0  0  0  0  0  0  0  0  0  0  0  0
   57.9730   32.1156   41.6053 H   0  0  0  0  0  0  0  0  0  0  0  0
   56.8200   30.7460   42.8280 C   0  0  0  0  0  0  0  0  0  0  0  0
   56.5486   30.0919   41.9863 H   0  0  0  0  0  0  0  0  0  0  0  0
  1  2  1  0
  2  3  2  0
  3  4  1  0
  4  5  1  0
  5  6  1  0
  6  7  1  0
  6  8  2  0
  8  9  1  0
  8 10  1  0
 10 11  2  0
 10 12  1  0
 12 13  1  0
 13 14  1  0
 13 15  1  0
 13 16  1  0
 16 17  1  0
 16 18  1  0
 16 19  1  0
 19 20  1  0
 19 21  1  0
 19 22  1  0
 22 23  1  6
 22 24  1  0
 24 25  2  0
 24 26  1  0
 26 27  1  0
 26 28  1  0
 26 29  1  0
 29 30  1  0
 29 31  1  0
 29 32  1  0
 32 33  1  0
 32 34  1  0
 34 35  1  0
 35 36  1  0
 35 37  1  0
 34 38  2  0
 38 39  1  0
 38 40  1  0
 22 41  1  0
 41 42  1  0
 41 43  1  0
 41 44  1  0
 44 45  1  0
 44 46  1  0
  5 47  2  0
 47 48  1  0
 47 49  1  0
 49 50  1  0
 49 51  2  0
 51 52  1  0
 51  3  1  0
 44 12  1  0
M  CHG  3   4  -1  22   1  38   1
M  END
>  <UniqueID>  (61) 
58

>  <SMILES>  (61) 
[H]/N=c1/cccc(/C=C/C(=O)N2CCC[N@@H+](C(=O)CCNC(N)=[NH2+])CC2)[n-]1

>  <Energy>  (61) 
64.8219471413097

>  <Genealogy>  (61) 
N=c1cccc(C=CC(=O)N2CCC[NH+](C(=O)CCNC(N)=[NH2+])CC2)[n-]1 (protonated)
N=c1cccc(C=CC(=O)N2CCC[N@@H+](C(=O)CCNC(N)=[NH2+])CC2)[n-]1 (chirality)
[H]/N=c1/cccc(/C=C/C(=O)N2CCC[N@@H+](C(=O)CCNC(N)=[NH2+])CC2)[n-]1 (cis-trans isomerization)
[H]/N=c1/cccc(/C=C/C(=O)N2CCC[N@@H+](C(=O)CCNC(N)=[NH2+])CC2)[n-]1 (3D coordinates assigned)
[H]/N=c1/cccc(/C=C/C(=O)N2CCC[N@@H+](C(=O)CCNC(N)=[NH2+])CC2)[n-]1 (nonaromatic ring conformer: 64.8219471413097 kcal/mol)

>  <smiles>  (61) 
N=C(N)NCCC(=O)N1CCCN(C(=O)C=Cc2cccc(=N)[nH]2)CC1

>  <score_type>  (61) 
oracle

>  <origin>  (61) 
adg

>  <m_score__min__energy>  (61) 
-5.54

>  <m_primary>  (61) 
energy

$$$$
61:0
     RDKit          3D

 61 63  0  0  1  0  0  0  0  0999 V2000
   60.6790   29.3610   45.9980 C   0  0  0  0  0  0  0  0  0  0  0  0
   60.4560   30.7940   46.4590 C   0  0  0  0  0  0  0  0  0  0  0  0
   59.1440   31.2370   45.9230 C   0  0  0  0  0  0  0  0  0  0  0  0
   58.3170   30.3290   45.3160 C   0  0  0  0  0  0  0  0  0  0  0  0
   57.0920   30.7100   44.7930 C   0  0  0  0  0  0  0  0  0  0  0  0
   56.1990   29.7220   44.1360 C   0  0  0  0  0  0  0  0  0  0  0  0
   56.6890   31.9840   44.8700 N   0  0  0  0  0  0  0  0  0  0  0  0
   57.4980   32.8760   45.4650 C   0  0  0  0  0  0  0  0  0  0  0  0
   57.0970   34.0760   45.5280 O   0  0  0  0  0  0  0  0  0  0  0  0
   58.7250   32.5610   46.0040 C   0  0  0  0  0  0  0  0  0  0  0  0
   59.5240   33.6010   46.6420 C   0  0  0  0  0  0  0  0  0  0  0  0
   59.3020   33.7470   48.1070 C   0  0  0  0  0  0  0  0  0  0  0  0
   59.8370   34.6490   48.8020 O   0  0  0  0  0  0  0  0  0  0  0  0
   58.4160   32.7690   48.6950 N   0  0  0  0  0  0  0  0  0  0  0  0
   58.9100   31.8380   49.4640 C   0  0  0  0  0  0  0  0  0  0  0  0
   58.8840   30.5510   49.0890 N   0  0  0  0  0  0  0  0  0  0  0  0
   59.3980   29.5960   49.8960 C   0  0  0  0  0  0  0  0  0  0  0  0
   59.9490   29.8950   51.0890 N   0  0  0  0  0  0  0  0  0  0  0  0
   60.0080   31.1500   51.5190 C   0  0  0  0  0  0  0  0  0  0  0  0
   60.5420   31.5760   52.7120 O   0  0  0  0  0  0  0  0  0  0  0  0
   61.9220   31.6270   52.9270 C   0  0  0  0  0  0  0  0  0  0  0  0
   62.6200   32.7540   52.2240 C   0  0  0  0  0  0  0  0  0  0  0  0
   62.0780   33.1440   51.0210 O   0  0  0  0  0  0  0  0  0  0  0  0
   62.5490   33.0850   49.7590 C   0  0  0  0  0  0  0  0  0  0  0  0
   62.8990   34.1410   48.9500 C   0  0  0  0  0  0  0  0  0  0  0  0
   63.3810   33.9680   47.6530 C   0  0  0  0  0  0  0  0  0  0  0  0
   63.5200   32.6970   47.1440 C   0  0  0  0  0  0  0  0  0  0  0  0
   63.1830   31.6290   47.9180 C   0  0  0  0  0  0  0  0  0  0  0  0
   62.7090   31.8170   49.1940 C   0  0  0  0  0  0  0  0  0  0  0  0
   62.3760   30.6550   49.9520 N   0  0  0  0  0  0  0  0  0  0  0  0
   59.4770   32.1270   50.6870 C   0  0  0  0  0  0  0  0  0  0  0  0
   59.5020   33.4950   51.0820 N   0  0  0  0  0  0  0  0  0  0  0  0
   58.5290   33.9440   52.0730 C   0  0  0  0  0  0  0  0  0  0  0  0
   60.7810   28.7053   46.8753 H   0  0  0  0  0  0  0  0  0  0  0  0
   59.8211   29.0328   45.3927 H   0  0  0  0  0  0  0  0  0  0  0  0
   61.5960   29.3090   45.3927 H   0  0  0  0  0  0  0  0  0  0  0  0
   60.4466   30.8377   47.5581 H   0  0  0  0  0  0  0  0  0  0  0  0
   61.2630   31.4474   46.0961 H   0  0  0  0  0  0  0  0  0  0  0  0
   58.6316   29.2775   45.2425 H   0  0  0  0  0  0  0  0  0  0  0  0
   55.6708   29.1377   44.9039 H   0  0  0  0  0  0  0  0  0  0  0  0
   55.4660   30.2505   43.5087 H   0  0  0  0  0  0  0  0  0  0  0  0
   56.7987   29.0460   43.5087 H   0  0  0  0  0  0  0  0  0  0  0  0
   55.7730   32.2910   44.4830 H   0  0  0  0  0  0  0  0  0  0  0  0
   60.5860   33.3656   46.4784 H   0  0  0  0  0  0  0  0  0  0  0  0
   59.2157   34.5530   46.1852 H   0  0  0  0  0  0  0  0  0  0  0  0
   58.4590   30.3110   48.1670 H   0  0  0  0  0  0  0  0  0  0  0  0
   59.3656   28.5459   49.5699 H   0  0  0  0  0  0  0  0  0  0  0  0
   62.0976   31.7348   54.0075 H   0  0  0  0  0  0  0  0  0  0  0  0
   62.3375   30.6958   52.5145 H   0  0  0  0  0  0  0  0  0  0  0  0
   62.6114   33.6256   52.8950 H   0  0  0  0  0  0  0  0  0  0  0  0
   63.6259   32.3772   51.9871 H   0  0  0  0  0  0  0  0  0  0  0  0
   62.7944   35.1634   49.3421 H   0  0  0  0  0  0  0  0  0  0  0  0
   63.6484   34.8418   47.0407 H   0  0  0  0  0  0  0  0  0  0  0  0
   63.8994   32.5456   46.1226 H   0  0  0  0  0  0  0  0  0  0  0  0
   63.2908   30.6094   47.5195 H   0  0  0  0  0  0  0  0  0  0  0  0
   61.9020   30.8270   50.8720 H   0  0  0  0  0  0  0  0  0  0  0  0
   62.5790   29.6830   49.6350 H   0  0  0  0  0  0  0  0  0  0  0  0
   60.1720   34.1970   50.7060 H   0  0  0  0  0  0  0  0  0  0  0  0
   58.9239   33.7618   53.0834 H   0  0  0  0  0  0  0  0  0  0  0  0
   58.3412   35.0198   51.9412 H   0  0  0  0  0  0  0  0  0  0  0  0
   57.5886   33.3888   51.9412 H   0  0  0  0  0  0  0  0  0  0  0  0
  1  2  1  0
  2  3  1  0
  3  4  1  0
  4  5  2  0
  5  6  1  0
  5  7  1  0
  7  8  1  0
  8  9  2  0
  8 10  1  0
 10 11  1  0
 11 12  1  0
 12 13  2  0
 12 14  1  0
 14 15  2  0
 15 16  1  0
 16 17  1  0
 17 18  2  0
 18 19  1  0
 19 20  1  0
 20 21  1  0
 21 22  1  0
 22 23  1  0
 23 24  1  0
 24 25  2  0
 25 26  1  0
 26 27  2  0
 27 28  1  0
 28 29  2  0
 29 30  1  0
 19 31  2  0
 31 32  1  0
 32 33  1  0
 10  3  2  0
 31 15  1  0
 29 24  1  0
  1 34  1  0
  1 35  1  0
  1 36  1  0
  2 37  1  0
  2 38  1  0
  4 39  1  0
  6 40  1  0
  6 41  1  0
  6 42  1  0
  7 43  1  0
 11 44  1  0
 11 45  1  0
 16 46  1  0
 17 47  1  0
 21 48  1  0
 21 49  1  0
 22 50  1  0
 22 51  1  0
 25 52  1  0
 26 53  1  0
 27 54  1  0
 28 55  1  0
 30 56  1  0
 30 57  1  0
 32 58  1  0
 33 59  1  0
 33 60  1  0
 33 61  1  0
M  END
>  <smiles>  (62) 
CCc1cc(C)[nH]c(=O)c1CC(=O)N=c1[nH]cnc(OCCOc2ccccc2N)c1NC

>  <score_type>  (62) 
oracle

>  <origin>  (62) 
adg

>  <m_score__min__energy>  (62) 
-8.0500000000000007

>  <m_primary>  (62) 
energy

$$$$
62:0
     RDKit          3D

 47 49  0  0  0  0  0  0  0  0999 V2000
   57.9310   25.7240   46.9780 N   0  0  0  0  0  0  0  0  0  0  0  0
   58.3200   26.8260   46.1550 C   0  0  0  0  0  0  0  0  0  0  0  0
   59.6690   27.0170   45.8280 C   0  0  0  0  0  0  0  0  0  0  0  0
   60.0490   28.0940   45.0240 C   0  0  0  0  0  0  0  0  0  0  0  0
   59.0850   28.9830   44.5410 C   0  0  0  0  0  0  0  0  0  0  0  0
   57.7350   28.8000   44.8600 C   0  0  0  0  0  0  0  0  0  0  0  0
   56.5390   29.9580   44.2880 S   0  0  0  0  0  0  0  0  0  0  0  0
   55.1490   29.3990   44.4050 O   0  0  0  0  0  0  0  0  0  0  0  0
   56.8090   30.2800   42.8460 O   0  0  0  0  0  0  0  0  0  0  0  0
   56.6650   31.4010   45.2320 N   0  0  0  0  0  0  0  0  0  0  0  0
   57.7660   31.6460   46.1060 C   0  0  0  0  0  0  0  0  0  0  0  0
   58.1510   30.7490   46.9040 O   0  0  0  0  0  0  0  0  0  0  0  0
   58.4510   32.9540   46.0930 C   0  0  0  0  0  0  0  0  0  0  0  0
   58.5620   33.6510   44.8710 C   0  0  0  0  0  0  0  0  0  0  0  0
   58.0590   33.0920   43.6960 O   0  0  0  0  0  0  0  0  0  0  0  0
   59.1870   34.9030   44.8310 C   0  0  0  0  0  0  0  0  0  0  0  0
   59.6960   35.4740   45.9940 C   0  0  0  0  0  0  0  0  0  0  0  0
   59.5830   34.8020   47.2100 C   0  0  0  0  0  0  0  0  0  0  0  0
   58.9630   33.5420   47.2830 C   0  0  0  0  0  0  0  0  0  0  0  0
   58.7700   32.9170   48.6530 C   0  0  0  0  0  0  0  0  0  0  0  0
   59.8730   31.9020   48.9970 C   0  0  0  0  0  0  0  0  0  0  0  0
   61.2370   32.4040   48.6050 C   0  0  0  0  0  0  0  0  0  0  0  0
   61.9110   31.8410   47.5090 C   0  0  0  0  0  0  0  0  0  0  0  0
   63.1560   32.3400   47.1150 C   0  0  0  0  0  0  0  0  0  0  0  0
   63.7320   33.4090   47.8050 C   0  0  0  0  0  0  0  0  0  0  0  0
   63.0630   33.9820   48.8900 C   0  0  0  0  0  0  0  0  0  0  0  0
   61.8200   33.4840   49.2890 C   0  0  0  0  0  0  0  0  0  0  0  0
   57.3560   27.7230   45.6730 C   0  0  0  0  0  0  0  0  0  0  0  0
   57.4120   24.9100   46.5760 H   0  0  0  0  0  0  0  0  0  0  0  0
   58.1440   25.7210   48.0000 H   0  0  0  0  0  0  0  0  0  0  0  0
   60.4299   26.3177   46.2050 H   0  0  0  0  0  0  0  0  0  0  0  0
   61.1090   28.2427   44.7705 H   0  0  0  0  0  0  0  0  0  0  0  0
   59.3886   29.8297   43.9078 H   0  0  0  0  0  0  0  0  0  0  0  0
   57.5890   32.1940   43.6910 H   0  0  0  0  0  0  0  0  0  0  0  0
   59.2764   35.4389   43.8746 H   0  0  0  0  0  0  0  0  0  0  0  0
   60.1881   36.4569   45.9534 H   0  0  0  0  0  0  0  0  0  0  0  0
   59.9841   35.2634   48.1245 H   0  0  0  0  0  0  0  0  0  0  0  0
   58.7769   33.7156   49.4094 H   0  0  0  0  0  0  0  0  0  0  0  0
   57.8109   32.3784   48.6430 H   0  0  0  0  0  0  0  0  0  0  0  0
   59.8601   31.7160   50.0811 H   0  0  0  0  0  0  0  0  0  0  0  0
   59.6744   30.9777   48.4347 H   0  0  0  0  0  0  0  0  0  0  0  0
   61.4573   31.0038   46.9583 H   0  0  0  0  0  0  0  0  0  0  0  0
   63.6827   31.8901   46.2605 H   0  0  0  0  0  0  0  0  0  0  0  0
   64.7122   33.7999   47.4945 H   0  0  0  0  0  0  0  0  0  0  0  0
   63.5157   34.8263   49.4307 H   0  0  0  0  0  0  0  0  0  0  0  0
   61.2957   33.9393   50.1421 H   0  0  0  0  0  0  0  0  0  0  0  0
   56.2970   27.5807   45.9343 H   0  0  0  0  0  0  0  0  0  0  0  0
  1  2  1  0
  2  3  2  0
  3  4  1  0
  4  5  2  0
  5  6  1  0
  6  7  1  0
  7  8  2  0
  7  9  2  0
  7 10  1  0
 10 11  1  0
 11 12  2  0
 11 13  1  0
 13 14  2  0
 14 15  1  0
 14 16  1  0
 16 17  2  0
 17 18  1  0
 18 19  2  0
 19 20  1  0
 20 21  1  0
 21 22  1  0
 22 23  2  0
 23 24  1  0
 24 25  2  0
 25 26  1  0
 26 27  2  0
  6 28  2  0
 28  2  1  0
 19 13  1  0
 27 22  1  0
  1 29  1  0
  1 30  1  0
  3 31  1  0
  4 32  1  0
  5 33  1  0
 15 34  1  0
 16 35  1  0
 17 36  1  0
 18 37  1  0
 20 38  1  0
 20 39  1  0
 21 40  1  0
 21 41  1  0
 23 42  1  0
 24 43  1  0
 25 44  1  0
 26 45  1  0
 27 46  1  0
 28 47  1  0
M  CHG  1  10  -1
M  END
>  <UniqueID>  (63) 
59

>  <SMILES>  (63) 
Nc1cccc(S(=O)(=O)[N-]C(=O)c2c(O)cccc2CCc2ccccc2)c1

>  <Energy>  (63) 
51.990097328146085

>  <Genealogy>  (63) 
Nc1cccc(S(=O)(=O)[N-]C(=O)c2c(O)cccc2CCc2ccccc2)c1 (protonated)
Nc1cccc(S(=O)(=O)[N-]C(=O)c2c(O)cccc2CCc2ccccc2)c1 (3D coordinates assigned)
Nc1cccc(S(=O)(=O)[N-]C(=O)c2c(O)cccc2CCc2ccccc2)c1 (optimized conformer: 51.990097328146085 kcal/mol)

>  <smiles>  (63) 
Nc1cccc(S(=O)(=O)NC(=O)c2c(O)cccc2CCc2ccccc2)c1

>  <score_type>  (63) 
oracle

>  <origin>  (63) 
adg

>  <m_score__min__energy>  (63) 
-11.25

>  <m_primary>  (63) 
energy

$$$$
63:0
     RDKit          3D

 42 43  0  0  0  0  0  0  0  0999 V2000
   58.9310   33.9619   47.9678 H   0  0  0  0  0  0  0  0  0  0  0  0
   59.6860   34.3170   47.2510 C   0  0  0  0  0  0  0  0  0  0  0  0
   59.2660   35.0260   46.1940 C   0  0  0  0  0  0  0  0  0  0  0  0
   59.2724   36.1248   46.2440 H   0  0  0  0  0  0  0  0  0  0  0  0
   58.7870   34.3480   44.9430 C   0  0  0  0  0  0  0  0  0  0  0  0
   59.4485   34.6250   44.1089 H   0  0  0  0  0  0  0  0  0  0  0  0
   57.7551   34.6729   44.7438 H   0  0  0  0  0  0  0  0  0  0  0  0
   58.7940   32.8220   45.1020 C   0  0  0  0  0  0  0  0  0  0  0  0
   58.6388   32.5732   46.1622 H   0  0  0  0  0  0  0  0  0  0  0  0
   59.7642   32.4444   44.7467 H   0  0  0  0  0  0  0  0  0  0  0  0
   57.7100   32.1730   44.2850 C   0  0  0  0  0  0  0  0  0  0  0  0
   57.6520   32.3880   43.0450 O   0  0  0  0  0  0  0  0  0  0  0  0
   56.8680   31.1640   44.8540 N   0  0  0  0  0  0  0  0  0  0  0  0
   57.0740   29.8760   44.8600 C   0  0  0  0  0  0  0  0  0  0  0  0
   55.8940   28.9940   44.9310 C   0  0  0  0  0  0  0  0  0  0  0  0
   54.8000   29.3350   44.4070 O   0  0  0  0  0  0  0  0  0  0  0  0
   55.9770   27.7740   45.5910 O   0  0  0  0  0  0  0  0  0  0  0  0
   58.4630   29.2720   44.9260 C   0  0  0  0  0  0  0  0  0  0  0  0
   58.3786   28.1764   44.9754 H   0  0  0  0  0  0  0  0  0  0  0  0
   59.0223   29.5708   44.0272 H   0  0  0  0  0  0  0  0  0  0  0  0
   59.2000   29.7670   46.1430 C   0  0  0  0  0  0  0  0  0  0  0  0
   58.5210   29.9540   47.3590 C   0  0  0  0  0  0  0  0  0  0  0  0
   57.4402   29.7579   47.4180 H   0  0  0  0  0  0  0  0  0  0  0  0
   59.2120   30.3880   48.4940 C   0  0  0  0  0  0  0  0  0  0  0  0
   58.6739   30.5330   49.4424 H   0  0  0  0  0  0  0  0  0  0  0  0
   60.5850   30.6380   48.4260 C   0  0  0  0  0  0  0  0  0  0  0  0
   61.1267   30.9811   49.3198 H   0  0  0  0  0  0  0  0  0  0  0  0
   61.2700   30.4520   47.2220 C   0  0  0  0  0  0  0  0  0  0  0  0
   62.3511   30.6478   47.1690 H   0  0  0  0  0  0  0  0  0  0  0  0
   60.5820   30.0170   46.0840 C   0  0  0  0  0  0  0  0  0  0  0  0
   61.1251   29.8700   45.1388 H   0  0  0  0  0  0  0  0  0  0  0  0
   61.1070   33.9820   47.5130 C   0  0  0  0  0  0  0  0  0  0  0  0
   61.5400   33.8910   48.8480 C   0  0  0  0  0  0  0  0  0  0  0  0
   60.8245   34.0603   49.6662 H   0  0  0  0  0  0  0  0  0  0  0  0
   62.8730   33.5870   49.1440 C   0  0  0  0  0  0  0  0  0  0  0  0
   63.1992   33.5109   50.1918 H   0  0  0  0  0  0  0  0  0  0  0  0
   63.7900   33.3800   48.1120 C   0  0  0  0  0  0  0  0  0  0  0  0
   64.8369   33.1368   48.3464 H   0  0  0  0  0  0  0  0  0  0  0  0
   63.3770   33.4820   46.7810 C   0  0  0  0  0  0  0  0  0  0  0  0
   64.1013   33.3234   45.9684 H   0  0  0  0  0  0  0  0  0  0  0  0
   62.0460   33.7850   46.4790 C   0  0  0  0  0  0  0  0  0  0  0  0
   61.7292   33.8703   45.4291 H   0  0  0  0  0  0  0  0  0  0  0  0
  1  2  1  0
  2  3  2  0
  3  4  1  0
  3  5  1  0
  5  6  1  0
  5  7  1  0
  5  8  1  0
  8  9  1  0
  8 10  1  0
  8 11  1  0
 11 12  2  0
 11 13  1  0
 13 14  2  0
 14 15  1  0
 15 16  2  0
 15 17  1  0
 14 18  1  0
 18 19  1  0
 18 20  1  0
 18 21  1  0
 21 22  2  0
 22 23  1  0
 22 24  1  0
 24 25  1  0
 24 26  2  0
 26 27  1  0
 26 28  1  0
 28 29  1  0
 28 30  2  0
 30 31  1  0
  2 32  1  0
 32 33  2  0
 33 34  1  0
 33 35  1  0
 35 36  1  0
 35 37  2  0
 37 38  1  0
 37 39  1  0
 39 40  1  0
 39 41  2  0
 41 42  1  0
 30 21  1  0
 41 32  1  0
M  CHG  1  17  -1
M  END
>  <UniqueID>  (64) 
60

>  <SMILES>  (64) 
O=C(CC/C=C/c1ccccc1)/N=C(\Cc1ccccc1)C(=O)[O-]

>  <Energy>  (64) 
46.274513664522885

>  <Genealogy>  (64) 
O=C(CCC=Cc1ccccc1)N=C(Cc1ccccc1)C(=O)[O-] (protonated)
O=C(CC/C=C/c1ccccc1)/N=C(\Cc1ccccc1)C(=O)[O-] (cis-trans isomerization)
O=C(CC/C=C/c1ccccc1)/N=C(\Cc1ccccc1)C(=O)[O-] (3D coordinates assigned)
O=C(CC/C=C/c1ccccc1)/N=C(\Cc1ccccc1)C(=O)[O-] (optimized conformer: 46.274513664522885 kcal/mol)

>  <smiles>  (64) 
O=C(CCC=Cc1ccccc1)N=C(Cc1ccccc1)C(=O)O

>  <score_type>  (64) 
oracle

>  <origin>  (64) 
adg

>  <m_score__min__energy>  (64) 
-11.300000000000001

>  <m_primary>  (64) 
energy

$$$$
64:0
     RDKit          3D

 43 47  0  0  0  0  0  0  0  0999 V2000
   60.3750   31.9330   49.7180 H   0  0  0  0  0  0  0  0  0  0  0  0
   59.8590   32.2920   50.5110 O   0  0  0  0  0  0  0  0  0  0  0  0
   58.7490   31.6230   51.0200 C   0  0  0  0  0  0  0  0  0  0  0  0
   58.1050   32.0060   52.1360 N   0  0  0  0  0  0  0  0  0  0  0  0
   57.1220   31.0900   52.2480 C   0  0  0  0  0  0  0  0  0  0  0  0
   56.2880   31.0980   53.1910 O   0  0  0  0  0  0  0  0  0  0  0  0
   57.1040   30.1600   51.2650 N   0  0  0  0  0  0  0  0  0  0  0  0
   58.1500   30.5000   50.4860 C   0  0  0  0  0  0  0  0  0  0  0  0
   58.5320   29.8100   49.2390 C   0  0  0  0  0  0  0  0  0  0  0  0
   58.1122   28.8111   49.0492 H   0  0  0  0  0  0  0  0  0  0  0  0
   59.3610   30.3310   48.3250 C   0  0  0  0  0  0  0  0  0  0  0  0
   60.7940   30.0470   48.3640 C   0  0  0  0  0  0  0  0  0  0  0  0
   61.2492   29.0852   48.6428 H   0  0  0  0  0  0  0  0  0  0  0  0
   61.4400   31.1150   48.0160 N   0  0  0  0  0  0  0  0  0  0  0  0
   60.5030   32.1130   47.7140 N   0  0  0  0  0  0  0  0  0  0  0  0
   60.5680   32.9720   46.6710 C   0  0  0  0  0  0  0  0  0  0  0  0
   61.5620   33.7610   46.3580 N   0  0  0  0  0  0  0  0  0  0  0  0
   62.9540   33.9470   46.8120 C   0  0  0  0  0  0  0  0  0  0  0  0
   63.0961   34.8573   46.2110 H   0  0  0  0  0  0  0  0  0  0  0  0
   63.7180   32.6640   47.0720 C   0  0  0  0  0  0  0  0  0  0  0  0
   63.2191   31.6915   46.9485 H   0  0  0  0  0  0  0  0  0  0  0  0
   64.6576   32.2282   46.7016 H   0  0  0  0  0  0  0  0  0  0  0  0
   63.3330   33.5800   48.2360 C   0  0  0  0  0  0  0  0  0  0  0  0
   62.5566   33.2674   48.9497 H   0  0  0  0  0  0  0  0  0  0  0  0
   63.8794   34.0777   49.0507 H   0  0  0  0  0  0  0  0  0  0  0  0
   59.4120   32.9850   45.9760 N   0  0  0  0  0  0  0  0  0  0  0  0
   58.6490   32.1000   46.6550 C   0  0  0  0  0  0  0  0  0  0  0  0
   57.5570   31.6210   46.1280 N   0  0  0  0  0  0  0  0  0  0  0  0
   57.3780   30.8160   44.9280 C   0  0  0  0  0  0  0  0  0  0  0  0
   56.3752   30.9934   44.5121 H   0  0  0  0  0  0  0  0  0  0  0  0
   58.1357   31.0935   44.1804 H   0  0  0  0  0  0  0  0  0  0  0  0
   57.5260   29.3600   45.2820 C   0  0  0  0  0  0  0  0  0  0  0  0
   58.7830   28.8520   45.6550 C   0  0  0  0  0  0  0  0  0  0  0  0
   59.6571   29.5192   45.6819 H   0  0  0  0  0  0  0  0  0  0  0  0
   58.9270   27.5020   45.9920 C   0  0  0  0  0  0  0  0  0  0  0  0
   60.5010   26.8760   46.4440 Cl  0  0  0  0  0  0  0  0  0  0  0  0
   57.8160   26.6520   45.9680 C   0  0  0  0  0  0  0  0  0  0  0  0
   57.9312   25.5897   46.2292 H   0  0  0  0  0  0  0  0  0  0  0  0
   56.5580   27.1520   45.6120 C   0  0  0  0  0  0  0  0  0  0  0  0
   55.6854   26.4824   45.5973 H   0  0  0  0  0  0  0  0  0  0  0  0
   56.4080   28.5010   45.2750 C   0  0  0  0  0  0  0  0  0  0  0  0
   55.1450   28.9830   44.9330 O   0  0  0  0  0  0  0  0  0  0  0  0
   59.2760   31.6430   47.7740 N   0  0  0  0  0  0  0  0  0  0  0  0
  1  2  1  0
  2  3  1  0
  3  4  1  0
  4  5  1  0
  5  6  2  0
  5  7  1  0
  7  8  1  0
  8  9  1  0
  9 10  1  0
  9 11  2  0
 11 12  1  0
 12 13  1  0
 12 14  2  0
 14 15  1  0
 15 16  1  0
 16 17  2  3
 17 18  1  0
 18 19  1  0
 18 20  1  0
 20 21  1  0
 20 22  1  0
 20 23  1  0
 23 24  1  0
 23 25  1  0
 16 26  1  0
 26 27  1  0
 27 28  2  0
 28 29  1  0
 29 30  1  0
 29 31  1  0
 29 32  1  0
 32 33  2  0
 33 34  1  0
 33 35  1  0
 35 36  1  0
 35 37  2  0
 37 38  1  0
 37 39  1  0
 39 40  1  0
 39 41  2  0
 41 42  1  0
 27 43  1  0
  8  3  2  0
 43 11  1  0
 43 15  1  0
 23 18  1  0
 41 32  1  0
M  CHG  4   4  -1   7  -1  26  -1  42  -1
M  END
>  <UniqueID>  (65) 
61

>  <SMILES>  (65) 
O=c1[n-]c(O)c(/C=C2/C=Nn3c(=NC4CC4)[n-]/c(=N/Cc4cc(Cl)ccc4[O-])n32)[n-]1

>  <Energy>  (65) 
467.9735852861344

>  <Genealogy>  (65) 
O=c1[n-]c(O)c(C=C2C=Nn3c(=NC4CC4)[n-]c(=NCc4cc(Cl)ccc4[O-])n32)[n-]1 (protonated)
O=c1[n-]c(O)c(/C=C2/C=Nn3c(=NC4CC4)[n-]/c(=N/Cc4cc(Cl)ccc4[O-])n32)[n-]1 (cis-trans isomerization)
O=c1[n-]c(O)c(/C=C2/C=Nn3c(=NC4CC4)[n-]/c(=N/Cc4cc(Cl)ccc4[O-])n32)[n-]1 (3D coordinates assigned)
O=c1[n-]c(O)c(/C=C2/C=Nn3c(=NC4CC4)[n-]/c(=N/Cc4cc(Cl)ccc4[O-])n32)[n-]1 (nonaromatic ring conformer: 467.9735852861344 kcal/mol)

>  <smiles>  (65) 
O=c1[nH]c(O)c(C=C2C=Nn3c(=NC4CC4)[nH]c(=NCc4cc(Cl)ccc4O)n32)[nH]1

>  <score_type>  (65) 
oracle

>  <origin>  (65) 
adg

>  <m_score__min__energy>  (65) 
-15.57

>  <m_primary>  (65) 
energy

$$$$
65:0
     RDKit          3D

 54 55  0  0  0  0  0  0  0  0999 V2000
   54.4650   24.7550   45.6080 C   0  0  0  0  0  0  0  0  0  0  0  0
   55.1230   25.9420   45.9900 O   0  0  0  0  0  0  0  0  0  0  0  0
   56.4820   25.8630   45.6170 C   0  0  0  0  0  0  0  0  0  0  0  0
   57.1980   27.1310   46.0800 C   0  0  0  0  0  0  0  0  0  0  0  0
   58.4950   26.7980   46.8290 C   0  0  0  0  0  0  0  0  0  0  0  0
   59.4530   27.9070   46.7170 N   0  0  0  0  0  0  0  0  0  0  0  0
   60.3350   28.2060   47.8530 C   0  0  0  0  0  0  0  0  0  0  0  0
   59.7220   29.2600   48.7360 C   0  0  0  0  0  0  0  0  0  0  0  0
   58.4720   29.4060   48.7450 O   0  0  0  0  0  0  0  0  0  0  0  0
   60.5250   30.1450   49.5280 N   0  0  0  0  0  0  0  0  0  0  0  0
   61.5750   30.9980   49.0520 C   0  0  0  0  0  0  0  0  0  0  0  0
   61.7100   31.2030   47.6730 C   0  0  0  0  0  0  0  0  0  0  0  0
   62.7060   32.0510   47.1790 C   0  0  0  0  0  0  0  0  0  0  0  0
   63.5630   32.7140   48.0620 C   0  0  0  0  0  0  0  0  0  0  0  0
   64.5260   33.5380   47.5820 F   0  0  0  0  0  0  0  0  0  0  0  0
   63.4180   32.5360   49.4410 C   0  0  0  0  0  0  0  0  0  0  0  0
   62.4220   31.6880   49.9380 C   0  0  0  0  0  0  0  0  0  0  0  0
   59.4480   28.7320   45.5330 C   0  0  0  0  0  0  0  0  0  0  0  0
   59.4850   28.1880   44.3970 O   0  0  0  0  0  0  0  0  0  0  0  0
   59.5110   30.2300   45.6090 C   0  0  0  0  0  0  0  0  0  0  0  0
   57.8590   30.8760   46.0200 S   0  0  0  0  0  0  0  0  0  0  0  0
   58.5110   32.3180   46.8900 C   0  0  0  0  0  0  0  0  0  0  0  0
   58.8350   32.1680   48.2040 N   0  0  0  0  0  0  0  0  0  0  0  0
   59.3790   33.1840   48.9170 C   0  0  0  0  0  0  0  0  0  0  0  0
   59.6620   33.0220   50.1340 O   0  0  0  0  0  0  0  0  0  0  0  0
   59.6370   34.3990   48.2990 C   0  0  0  0  0  0  0  0  0  0  0  0
   59.3180   34.5560   46.9480 C   0  0  0  0  0  0  0  0  0  0  0  0
   59.6670   35.7930   46.3060 N   0  0  0  0  0  0  0  0  0  0  0  0
   58.7040   33.5310   46.2620 N   0  0  0  0  0  0  0  0  0  0  0  0
   58.2910   33.7270   44.8620 C   0  0  0  0  0  0  0  0  0  0  0  0
   54.1576   24.2006   46.5070 H   0  0  0  0  0  0  0  0  0  0  0  0
   53.5765   25.0046   45.0095 H   0  0  0  0  0  0  0  0  0  0  0  0
   55.1475   24.1337   45.0095 H   0  0  0  0  0  0  0  0  0  0  0  0
   56.9442   24.9843   46.0906 H   0  0  0  0  0  0  0  0  0  0  0  0
   56.5631   25.7677   44.5241 H   0  0  0  0  0  0  0  0  0  0  0  0
   57.4399   27.7469   45.2013 H   0  0  0  0  0  0  0  0  0  0  0  0
   56.5315   27.6750   46.7655 H   0  0  0  0  0  0  0  0  0  0  0  0
   58.2655   26.6237   47.8906 H   0  0  0  0  0  0  0  0  0  0  0  0
   58.9411   25.8961   46.3845 H   0  0  0  0  0  0  0  0  0  0  0  0
   60.4920   27.2891   48.4400 H   0  0  0  0  0  0  0  0  0  0  0  0
   61.2951   28.5801   47.4680 H   0  0  0  0  0  0  0  0  0  0  0  0
   61.0289   30.6942   46.9750 H   0  0  0  0  0  0  0  0  0  0  0  0
   62.8152   32.1965   46.0942 H   0  0  0  0  0  0  0  0  0  0  0  0
   64.0877   33.0632   50.1363 H   0  0  0  0  0  0  0  0  0  0  0  0
   62.3012   31.5607   51.0239 H   0  0  0  0  0  0  0  0  0  0  0  0
   60.2278   30.5294   46.3878 H   0  0  0  0  0  0  0  0  0  0  0  0
   59.8374   30.6367   44.6405 H   0  0  0  0  0  0  0  0  0  0  0  0
   58.6670   31.2470   48.6710 H   0  0  0  0  0  0  0  0  0  0  0  0
   60.0868   35.2278   48.8653 H   0  0  0  0  0  0  0  0  0  0  0  0
   59.5540   36.7000   46.8110 H   0  0  0  0  0  0  0  0  0  0  0  0
   60.1430   35.8280   45.3790 H   0  0  0  0  0  0  0  0  0  0  0  0
   57.2975   34.1985   44.8354 H   0  0  0  0  0  0  0  0  0  0  0  0
   59.0186   34.3759   44.3525 H   0  0  0  0  0  0  0  0  0  0  0  0
   58.2484   32.7531   44.3525 H   0  0  0  0  0  0  0  0  0  0  0  0
  1  2  1  0
  2  3  1  0
  3  4  1  0
  4  5  1  0
  5  6  1  0
  6  7  1  0
  7  8  1  0
  8  9  2  0
  8 10  1  0
 10 11  1  0
 11 12  2  0
 12 13  1  0
 13 14  2  0
 14 15  1  0
 14 16  1  0
 16 17  2  0
  6 18  1  0
 18 19  2  0
 18 20  1  0
 20 21  1  0
 21 22  1  0
 22 23  2  0
 23 24  1  0
 24 25  2  0
 24 26  1  0
 26 27  2  0
 27 28  1  0
 27 29  1  0
 29 30  1  0
 17 11  1  0
 29 22  1  0
  1 31  1  0
  1 32  1  0
  1 33  1  0
  3 34  1  0
  3 35  1  0
  4 36  1  0
  4 37  1  0
  5 38  1  0
  5 39  1  0
  7 40  1  0
  7 41  1  0
 12 42  1  0
 13 43  1  0
 16 44  1  0
 17 45  1  0
 20 46  1  0
 20 47  1  0
 23 48  1  0
 26 49  1  0
 28 50  1  0
 28 51  1  0
 30 52  1  0
 30 53  1  0
 30 54  1  0
M  CHG  2  10  -1  23   1
M  END
>  <UniqueID>  (66) 
62

>  <SMILES>  (66) 
COCCCN(CC(=O)[N-]c1ccc(F)cc1)C(=O)CSc1[nH+]c(=O)cc(N)n1C

>  <Energy>  (66) 
54.71482375532542

>  <Genealogy>  (66) 
COCCCN(CC(=O)[N-]c1ccc(F)cc1)C(=O)CSc1[nH+]c(=O)cc(N)n1C (protonated)
COCCCN(CC(=O)[N-]c1ccc(F)cc1)C(=O)CSc1[nH+]c(=O)cc(N)n1C (3D coordinates assigned)
COCCCN(CC(=O)[N-]c1ccc(F)cc1)C(=O)CSc1[nH+]c(=O)cc(N)n1C (optimized conformer: 54.71482375532542 kcal/mol)

>  <smiles>  (66) 
COCCCN(CC(=O)Nc1ccc(F)cc1)C(=O)CSc1nc(=O)cc(N)n1C

>  <score_type>  (66) 
oracle

>  <origin>  (66) 
adg

>  <m_score__min__energy>  (66) 
-8.4000000000000004

>  <m_primary>  (66) 
energy

$$$$
66:0
     RDKit          3D

 48 50  0  0  0  0  0  0  0  0999 V2000
   55.3320   29.9800   44.5880 O   0  0  0  0  0  0  0  0  0  0  0  0
   56.5390   29.7400   44.8680 C   0  0  0  0  0  0  0  0  0  0  0  0
   57.0310   28.3540   44.8150 C   0  0  0  0  0  0  0  0  0  0  0  0
   57.9820   27.8660   43.9390 C   0  0  0  0  0  0  0  0  0  0  0  0
   58.1390   26.5350   44.2640 C   0  0  0  0  0  0  0  0  0  0  0  0
   57.2780   26.2950   45.3160 C   0  0  0  0  0  0  0  0  0  0  0  0
   56.6360   27.3970   45.6230 O   0  0  0  0  0  0  0  0  0  0  0  0
   57.4230   30.8260   45.1950 N   0  0  0  0  0  0  0  0  0  0  0  0
   57.2340   32.1250   44.5490 C   0  0  0  0  0  0  0  0  0  0  0  0
   58.5850   32.8300   44.3840 C   0  0  0  0  0  0  0  0  0  0  0  0
   59.3700   32.8660   45.6320 N   0  0  0  0  0  0  0  0  0  0  0  0
   58.8080   34.0880   46.7540 S   0  0  0  0  0  0  0  0  0  0  0  0
   59.4170   35.4180   46.4080 O   0  0  0  0  0  0  0  0  0  0  0  0
   57.3120   34.2150   46.7050 O   0  0  0  0  0  0  0  0  0  0  0  0
   59.2960   33.6600   48.3890 C   0  0  0  0  0  0  0  0  0  0  0  0
   58.5070   33.0900   49.1260 O   0  0  0  0  0  0  0  0  0  0  0  0
   60.6780   33.9880   48.8790 C   0  0  0  0  0  0  0  0  0  0  0  0
   61.5910   34.2250   47.7550 N   0  0  0  0  0  0  0  0  0  0  0  0
   62.9180   33.0970   47.7700 S   0  0  0  0  0  0  0  0  0  0  0  0
   63.7990   33.3270   46.5740 O   0  0  0  0  0  0  0  0  0  0  0  0
   62.3720   31.6990   47.6890 O   0  0  0  0  0  0  0  0  0  0  0  0
   63.8560   33.2560   49.2540 C   0  0  0  0  0  0  0  0  0  0  0  0
   65.0680   32.5670   49.4090 C   0  0  0  0  0  0  0  0  0  0  0  0
   65.8140   32.7140   50.5820 C   0  0  0  0  0  0  0  0  0  0  0  0
   65.3540   33.5510   51.6040 C   0  0  0  0  0  0  0  0  0  0  0  0
   64.1490   34.2430   51.4510 C   0  0  0  0  0  0  0  0  0  0  0  0
   63.4020   34.0990   50.2780 C   0  0  0  0  0  0  0  0  0  0  0  0
   59.5280   31.5360   46.2530 C   0  0  0  0  0  0  0  0  0  0  0  0
   58.1990   30.7930   46.4370 C   0  0  0  0  0  0  0  0  0  0  0  0
   58.5047   28.4231   43.1475 H   0  0  0  0  0  0  0  0  0  0  0  0
   58.8134   25.8115   43.7827 H   0  0  0  0  0  0  0  0  0  0  0  0
   57.1496   25.3260   45.8206 H   0  0  0  0  0  0  0  0  0  0  0  0
   56.7773   31.9767   43.5594 H   0  0  0  0  0  0  0  0  0  0  0  0
   56.5762   32.7468   45.1741 H   0  0  0  0  0  0  0  0  0  0  0  0
   59.1677   32.2972   43.6181 H   0  0  0  0  0  0  0  0  0  0  0  0
   58.3807   33.8708   44.0925 H   0  0  0  0  0  0  0  0  0  0  0  0
   60.6333   34.8926   49.5032 H   0  0  0  0  0  0  0  0  0  0  0  0
   61.0547   33.1355   49.4632 H   0  0  0  0  0  0  0  0  0  0  0  0
   61.0590   34.0470   46.8720 H   0  0  0  0  0  0  0  0  0  0  0  0
   65.4322   31.9096   48.6058 H   0  0  0  0  0  0  0  0  0  0  0  0
   66.7633   32.1712   50.7014 H   0  0  0  0  0  0  0  0  0  0  0  0
   65.9402   33.6647   52.5278 H   0  0  0  0  0  0  0  0  0  0  0  0
   63.7881   34.9017   52.2546 H   0  0  0  0  0  0  0  0  0  0  0  0
   62.4564   34.6481   50.1584 H   0  0  0  0  0  0  0  0  0  0  0  0
   60.1832   30.9270   45.6129 H   0  0  0  0  0  0  0  0  0  0  0  0
   59.9566   31.6916   47.2540 H   0  0  0  0  0  0  0  0  0  0  0  0
   58.4026   29.7471   46.7102 H   0  0  0  0  0  0  0  0  0  0  0  0
   57.6212   31.2844   47.2336 H   0  0  0  0  0  0  0  0  0  0  0  0
  1  2  2  0
  2  3  1  0
  3  4  2  0
  4  5  1  0
  5  6  2  0
  6  7  1  0
  2  8  1  0
  8  9  1  0
  9 10  1  0
 10 11  1  0
 11 12  1  0
 12 13  2  0
 12 14  2  0
 12 15  1  0
 15 16  2  0
 15 17  1  0
 17 18  1  0
 18 19  1  0
 19 20  2  0
 19 21  2  0
 19 22  1  0
 22 23  2  0
 23 24  1  0
 24 25  2  0
 25 26  1  0
 26 27  2  0
 11 28  1  0
 28 29  1  0
  7  3  1  0
 29  8  1  0
 27 22  1  0
  4 30  1  0
  5 31  1  0
  6 32  1  0
  9 33  1  0
  9 34  1  0
 10 35  1  0
 10 36  1  0
 17 37  1  0
 17 38  1  0
 18 39  1  0
 23 40  1  0
 24 41  1  0
 25 42  1  0
 26 43  1  0
 27 44  1  0
 28 45  1  0
 28 46  1  0
 29 47  1  0
 29 48  1  0
M  END
>  <UniqueID>  (67) 
63

>  <SMILES>  (67) 
O=C(c1ccco1)N1CCN(S(=O)(=O)C(=O)CNS(=O)(=O)c2ccccc2)CC1

>  <Energy>  (67) 
77.19284924671999

>  <Genealogy>  (67) 
O=C(c1ccco1)N1CCN(S(=O)(=O)C(=O)CNS(=O)(=O)c2ccccc2)CC1 (3D coordinates assigned)
O=C(c1ccco1)N1CCN(S(=O)(=O)C(=O)CNS(=O)(=O)c2ccccc2)CC1 (nonaromatic ring conformer: 77.19284924671999 kcal/mol)

>  <smiles>  (67) 
O=C(c1ccco1)N1CCN(S(=O)(=O)C(=O)CNS(=O)(=O)c2ccccc2)CC1

>  <score_type>  (67) 
oracle

>  <origin>  (67) 
adg

>  <m_score__min__energy>  (67) 
-9.5600000000000005

>  <m_primary>  (67) 
energy

$$$$
67:0
     RDKit          3D

 31 32  0  0  1  0  0  0  0  0999 V2000
   56.2710   21.1910   42.6280 O   0  0  0  0  0  0  0  0  0  0  0  0
   56.5750   22.0360   43.4950 C   0  0  0  0  0  0  0  0  0  0  0  0
   56.6470   23.3660   43.2580 N   0  0  0  0  0  0  0  0  0  0  0  0
   56.9820   24.2300   44.2330 C   0  0  0  0  0  0  0  0  0  0  0  0
   57.0300   25.5870   43.8930 O   0  0  0  0  0  0  0  0  0  0  0  0
   57.2670   23.7910   45.5210 C   0  0  0  0  0  0  0  0  0  0  0  0
   57.6370   24.7660   46.5300 C   0  0  0  0  0  0  0  0  0  0  0  0
   57.2250   26.0170   46.5670 C   0  0  0  0  0  0  0  0  0  0  0  0
   55.8720   26.3650   46.7460 O   0  0  0  0  0  0  0  0  0  0  0  0
   58.1250   27.0970   46.4290 N   0  0  0  0  0  0  0  0  0  0  0  0
   57.9110   28.2520   46.8470 N   0  0  0  0  0  0  0  0  0  0  0  0
   57.7570   29.3190   45.9480 C   0  0  0  0  0  0  0  0  0  0  0  0
   58.6260   30.4100   45.8870 C   0  0  0  0  0  0  0  0  0  0  0  0
   58.4500   31.4430   44.9920 C   0  0  0  0  0  0  0  0  0  0  0  0
   57.3950   31.4480   44.1040 C   0  0  0  0  0  0  0  0  0  0  0  0
   56.5170   30.3740   44.1450 C   0  0  0  0  0  0  0  0  0  0  0  0
   56.6930   29.3280   45.0480 C   0  0  0  0  0  0  0  0  0  0  0  0
   55.8230   28.2460   45.1030 O   0  0  0  0  0  0  0  0  0  0  0  0
   57.1870   22.4360   45.7380 C   0  0  0  0  0  0  0  0  0  0  0  0
   57.4300   21.9550   46.8660 O   0  0  0  0  0  0  0  0  0  0  0  0
   56.8470   21.5660   44.7450 N   0  0  0  0  0  0  0  0  0  0  0  0
   56.4310   23.7050   42.2770 H   0  0  0  0  0  0  0  0  0  0  0  0
   56.6140   26.2640   44.5490 H   0  0  0  0  0  0  0  0  0  0  0  0
   58.3165   24.4338   47.3287 H   0  0  0  0  0  0  0  0  0  0  0  0
   55.6820   27.3070   47.0600 H   0  0  0  0  0  0  0  0  0  0  0  0
   59.4813   30.4463   46.5777 H   0  0  0  0  0  0  0  0  0  0  0  0
   59.1645   32.2793   44.9858 H   0  0  0  0  0  0  0  0  0  0  0  0
   57.2546   32.2726   43.3897 H   0  0  0  0  0  0  0  0  0  0  0  0
   55.6646   30.3482   43.4502 H   0  0  0  0  0  0  0  0  0  0  0  0
   56.2480   27.3220   45.1870 H   0  0  0  0  0  0  0  0  0  0  0  0
   56.7980   20.5250   44.9560 H   0  0  0  0  0  0  0  0  0  0  0  0
  1  2  2  0
  2  3  1  0
  3  4  1  0
  4  5  1  0
  4  6  2  0
  6  7  1  0
  7  8  2  0
  8  9  1  0
  8 10  1  0
 10 11  2  0
 11 12  1  0
 12 13  2  0
 13 14  1  0
 14 15  2  0
 15 16  1  0
 16 17  2  0
 17 18  1  0
  6 19  1  0
 19 20  2  0
 19 21  1  0
 21  2  1  0
 17 12  1  0
  3 22  1  0
  5 23  1  0
  7 24  1  0
  9 25  1  0
 13 26  1  0
 14 27  1  0
 15 28  1  0
 16 29  1  0
 18 30  1  0
 21 31  1  0
M  END
>  <smiles>  (68) 
O=c1[nH]c(O)c(C=C(O)N=Nc2ccccc2O)c(=O)[nH]1

>  <score_type>  (68) 
oracle

>  <origin>  (68) 
adg

>  <m_score__min__energy>  (68) 
-8.6799999999999997

>  <m_primary>  (68) 
energy

$$$$
68:0
     RDKit          3D

 49 52  0  0  0  0  0  0  0  0999 V2000
   55.9355   22.1121   42.4705 H   0  0  0  0  0  0  0  0  0  0  0  0
   55.9650   22.8530   43.2830 C   0  0  0  0  0  0  0  0  0  0  0  0
   57.1930   23.3020   43.7750 C   0  0  0  0  0  0  0  0  0  0  0  0
   58.1301   22.9062   43.3564 H   0  0  0  0  0  0  0  0  0  0  0  0
   57.2330   24.2530   44.7980 C   0  0  0  0  0  0  0  0  0  0  0  0
   58.2026   24.5907   45.1927 H   0  0  0  0  0  0  0  0  0  0  0  0
   56.0460   24.7790   45.3240 C   0  0  0  0  0  0  0  0  0  0  0  0
   56.1250   25.7290   46.4010 N   0  0  0  0  0  0  0  0  0  0  0  0
   56.6620   26.9120   46.3520 C   0  0  0  0  0  0  0  0  0  0  0  0
   57.7950   27.1550   47.0540 N   0  0  0  0  0  0  0  0  0  0  0  0
   58.3670   28.3850   47.0280 C   0  0  0  0  0  0  0  0  0  0  0  0
   59.7980   28.7220   48.0500 S   0  0  0  0  0  0  0  0  0  0  0  0
   58.9620   29.9890   49.0720 C   0  0  0  0  0  0  0  0  0  0  0  0
   58.8575   29.6093   50.0991 H   0  0  0  0  0  0  0  0  0  0  0  0
   57.9753   30.1953   48.6316 H   0  0  0  0  0  0  0  0  0  0  0  0
   59.7480   31.2730   49.1010 C   0  0  0  0  0  0  0  0  0  0  0  0
   59.2500   32.3890   49.7920 C   0  0  0  0  0  0  0  0  0  0  0  0
   58.3112   32.3084   50.3595 H   0  0  0  0  0  0  0  0  0  0  0  0
   59.9440   33.6030   49.7610 C   0  0  0  0  0  0  0  0  0  0  0  0
   59.5555   34.4715   50.3131 H   0  0  0  0  0  0  0  0  0  0  0  0
   61.1300   33.7150   49.0300 C   0  0  0  0  0  0  0  0  0  0  0  0
   61.6697   34.6731   49.0021 H   0  0  0  0  0  0  0  0  0  0  0  0
   61.6320   32.6090   48.3330 C   0  0  0  0  0  0  0  0  0  0  0  0
   62.8340   32.7320   47.5500 C   0  0  0  0  0  0  0  0  0  0  0  0
   63.7980   32.8320   46.9200 N   0  0  0  0  0  0  0  0  0  0  0  0
   60.9480   31.3870   48.3780 C   0  0  0  0  0  0  0  0  0  0  0  0
   61.3517   30.5133   47.8454 H   0  0  0  0  0  0  0  0  0  0  0  0
   57.8180   29.3740   46.2780 N   0  0  0  0  0  0  0  0  0  0  0  0
   56.6950   29.1360   45.5550 C   0  0  0  0  0  0  0  0  0  0  0  0
   56.1780   30.0900   44.8430 N   0  0  0  0  0  0  0  0  0  0  0  0
   56.9570   30.9920   44.0000 C   0  0  0  0  0  0  0  0  0  0  0  0
   57.7538   30.4262   43.4951 H   0  0  0  0  0  0  0  0  0  0  0  0
   56.3000   31.4500   43.2460 H   0  0  0  0  0  0  0  0  0  0  0  0
   57.5680   32.0660   44.8520 C   0  0  0  0  0  0  0  0  0  0  0  0
   58.9110   31.9750   45.2540 C   0  0  0  0  0  0  0  0  0  0  0  0
   59.5107   31.0991   44.9659 H   0  0  0  0  0  0  0  0  0  0  0  0
   59.4880   32.9920   46.0180 C   0  0  0  0  0  0  0  0  0  0  0  0
   60.5373   32.9104   46.3379 H   0  0  0  0  0  0  0  0  0  0  0  0
   58.7340   34.1140   46.3770 C   0  0  0  0  0  0  0  0  0  0  0  0
   59.2970   35.1010   47.1180 F   0  0  0  0  0  0  0  0  0  0  0  0
   57.4010   34.2190   45.9680 C   0  0  0  0  0  0  0  0  0  0  0  0
   56.8086   35.1027   46.2476 H   0  0  0  0  0  0  0  0  0  0  0  0
   56.8200   33.2020   45.2040 C   0  0  0  0  0  0  0  0  0  0  0  0
   55.7734   33.2918   44.8774 H   0  0  0  0  0  0  0  0  0  0  0  0
   56.1190   27.9040   45.5960 N   0  0  0  0  0  0  0  0  0  0  0  0
   54.8100   24.2970   44.8470 C   0  0  0  0  0  0  0  0  0  0  0  0
   53.8709   24.6706   45.2812 H   0  0  0  0  0  0  0  0  0  0  0  0
   54.7750   23.3450   43.8230 C   0  0  0  0  0  0  0  0  0  0  0  0
   53.8084   22.9832   43.4424 H   0  0  0  0  0  0  0  0  0  0  0  0
  1  2  1  0
  2  3  2  0
  3  4  1  0
  3  5  1  0
  5  6  1  0
  5  7  2  0
  7  8  1  0
  8  9  2  0
  9 10  1  0
 10 11  1  0
 11 12  1  0
 12 13  1  0
 13 14  1  0
 13 15  1  0
 13 16  1  0
 16 17  2  0
 17 18  1  0
 17 19  1  0
 19 20  1  0
 19 21  2  0
 21 22  1  0
 21 23  1  0
 23 24  1  0
 24 25  3  0
 23 26  2  0
 26 27  1  0
 11 28  2  0
 28 29  1  0
 29 30  2  0
 30 31  1  0
 31 32  1  0
 31 33  1  0
 31 34  1  0
 34 35  2  0
 35 36  1  0
 35 37  1  0
 37 38  1  0
 37 39  2  0
 39 40  1  0
 39 41  1  0
 41 42  1  0
 41 43  2  0
 43 44  1  0
 29 45  1  0
  7 46  1  0
 46 47  1  0
 46 48  2  0
 48 49  1  0
 48  2  1  0
 45  9  1  0
 26 16  1  0
 43 34  1  0
M  CHG  2  10  -1  45  -1
M  END
>  <UniqueID>  (69) 
64

>  <SMILES>  (69) 
N#Cc1cccc(CSc2n/c(=N/Cc3ccc(F)cc3)[n-]/c(=N\c3ccccc3)[n-]2)c1

>  <Energy>  (69) 
52.07655427949263

>  <Genealogy>  (69) 
N#Cc1cccc(CSc2nc(=NCc3ccc(F)cc3)[n-]c(=Nc3ccccc3)[n-]2)c1 (protonated)
N#Cc1cccc(CSc2n/c(=N/Cc3ccc(F)cc3)[n-]/c(=N\c3ccccc3)[n-]2)c1 (cis-trans isomerization)
N#Cc1cccc(CSc2n/c(=N/Cc3ccc(F)cc3)[n-]/c(=N\c3ccccc3)[n-]2)c1 (3D coordinates assigned)
N#Cc1cccc(CSc2n/c(=N/Cc3ccc(F)cc3)[n-]/c(=N\c3ccccc3)[n-]2)c1 (optimized conformer: 52.07655427949263 kcal/mol)

>  <smiles>  (69) 
N#Cc1cccc(CSc2nc(=NCc3ccc(F)cc3)[nH]c(=Nc3ccccc3)[nH]2)c1

>  <score_type>  (69) 
oracle

>  <origin>  (69) 
adg

>  <m_score__min__energy>  (69) 
-12.699999999999999

>  <m_primary>  (69) 
energy

$$$$
69:0
     RDKit          3D

 60 62  0  0  0  0  0  0  0  0999 V2000
   58.3970   31.5420   52.6830 C   0  0  0  0  0  0  0  0  0  0  0  0
   58.7390   32.0650   51.3200 C   0  0  0  0  0  0  0  0  0  0  0  0
   59.4260   33.2810   51.1800 C   0  0  0  0  0  0  0  0  0  0  0  0
   59.7090   33.7880   49.9090 C   0  0  0  0  0  0  0  0  0  0  0  0
   59.3020   33.0890   48.7640 C   0  0  0  0  0  0  0  0  0  0  0  0
   59.6180   33.7360   47.1550 S   0  0  0  0  0  0  0  0  0  0  0  0
   58.5020   34.6680   46.7750 O   0  0  0  0  0  0  0  0  0  0  0  0
   59.6740   32.6220   46.1460 O   0  0  0  0  0  0  0  0  0  0  0  0
   61.1220   34.6070   47.1460 N   0  0  0  0  0  0  0  0  0  0  0  0
   62.1160   33.8660   46.3620 C   0  0  0  0  0  0  0  0  0  0  0  0
   63.3670   33.5790   47.2000 C   0  0  0  0  0  0  0  0  0  0  0  0
   63.0900   32.5710   48.2850 C   0  0  0  0  0  0  0  0  0  0  0  0
   63.8830   32.5460   49.4440 C   0  0  0  0  0  0  0  0  0  0  0  0
   63.6520   31.5910   50.4370 C   0  0  0  0  0  0  0  0  0  0  0  0
   62.6270   30.6480   50.2830 C   0  0  0  0  0  0  0  0  0  0  0  0
   62.2950   29.4690   51.5550 S   0  0  0  0  0  0  0  0  0  0  0  0
   61.4170   30.0870   52.6070 O   0  0  0  0  0  0  0  0  0  0  0  0
   63.5960   29.0840   52.2000 O   0  0  0  0  0  0  0  0  0  0  0  0
   61.5290   28.0290   50.9370 N   0  0  0  0  0  0  0  0  0  0  0  0
   60.4000   28.3320   50.0540 C   0  0  0  0  0  0  0  0  0  0  0  0
   60.4990   27.5650   48.7310 C   0  0  0  0  0  0  0  0  0  0  0  0
   59.5500   28.1450   47.7160 C   0  0  0  0  0  0  0  0  0  0  0  0
   59.8560   29.3560   47.0760 C   0  0  0  0  0  0  0  0  0  0  0  0
   58.9950   29.8790   46.1070 C   0  0  0  0  0  0  0  0  0  0  0  0
   57.8210   29.1940   45.7630 C   0  0  0  0  0  0  0  0  0  0  0  0
   56.7470   29.8470   44.5310 S   0  0  0  0  0  0  0  0  0  0  0  0
   55.1280   29.3330   44.8470 N   0  0  0  0  0  0  0  0  0  0  0  0
   56.8060   31.3480   44.5440 O   0  0  0  0  0  0  0  0  0  0  0  0
   57.1730   29.3600   43.1740 O   0  0  0  0  0  0  0  0  0  0  0  0
   57.5240   27.9740   46.3860 C   0  0  0  0  0  0  0  0  0  0  0  0
   58.3860   27.4500   47.3550 C   0  0  0  0  0  0  0  0  0  0  0  0
   61.8350   30.6680   49.1280 C   0  0  0  0  0  0  0  0  0  0  0  0
   62.0680   31.6200   48.1320 C   0  0  0  0  0  0  0  0  0  0  0  0
   58.5980   31.8870   48.9010 C   0  0  0  0  0  0  0  0  0  0  0  0
   58.3120   31.3790   50.1720 C   0  0  0  0  0  0  0  0  0  0  0  0
   58.8293   32.2031   53.4485 H   0  0  0  0  0  0  0  0  0  0  0  0
   57.3037   31.5111   52.8002 H   0  0  0  0  0  0  0  0  0  0  0  0
   58.8071   30.5281   52.8002 H   0  0  0  0  0  0  0  0  0  0  0  0
   59.7429   33.8372   52.0746 H   0  0  0  0  0  0  0  0  0  0  0  0
   60.2529   34.7386   49.8066 H   0  0  0  0  0  0  0  0  0  0  0  0
   61.4440   34.6400   48.1410 H   0  0  0  0  0  0  0  0  0  0  0  0
   61.6770   32.9131   46.0315 H   0  0  0  0  0  0  0  0  0  0  0  0
   62.4058   34.4759   45.4937 H   0  0  0  0  0  0  0  0  0  0  0  0
   64.1554   33.1863   46.5411 H   0  0  0  0  0  0  0  0  0  0  0  0
   63.6842   34.5183   47.6766 H   0  0  0  0  0  0  0  0  0  0  0  0
   64.6903   33.2824   49.5705 H   0  0  0  0  0  0  0  0  0  0  0  0
   64.2765   31.5792   51.3424 H   0  0  0  0  0  0  0  0  0  0  0  0
   59.4648   28.0513   50.5606 H   0  0  0  0  0  0  0  0  0  0  0  0
   60.4167   29.4089   49.8303 H   0  0  0  0  0  0  0  0  0  0  0  0
   61.5275   27.6353   48.3473 H   0  0  0  0  0  0  0  0  0  0  0  0
   60.2328   26.5124   48.9079 H   0  0  0  0  0  0  0  0  0  0  0  0
   60.7777   29.8961   47.3382 H   0  0  0  0  0  0  0  0  0  0  0  0
   59.2392   30.8309   45.6128 H   0  0  0  0  0  0  0  0  0  0  0  0
   55.1670   28.6830   45.6640 H   0  0  0  0  0  0  0  0  0  0  0  0
   56.6099   27.4268   46.1120 H   0  0  0  0  0  0  0  0  0  0  0  0
   58.1503   26.4892   47.8359 H   0  0  0  0  0  0  0  0  0  0  0  0
   61.0270   29.9319   49.0045 H   0  0  0  0  0  0  0  0  0  0  0  0
   61.4478   31.6246   47.2235 H   0  0  0  0  0  0  0  0  0  0  0  0
   58.2685   31.3399   48.0054 H   0  0  0  0  0  0  0  0  0  0  0  0
   57.7504   30.4385   50.2727 H   0  0  0  0  0  0  0  0  0  0  0  0
  1  2  1  0
  2  3  2  0
  3  4  1  0
  4  5  2  0
  5  6  1  0
  6  7  2  0
  6  8  2  0
  6  9  1  0
  9 10  1  0
 10 11  1  0
 11 12  1  0
 12 13  2  0
 13 14  1  0
 14 15  2  0
 15 16  1  0
 16 17  2  0
 16 18  2  0
 16 19  1  0
 19 20  1  0
 20 21  1  0
 21 22  1  0
 22 23  2  0
 23 24  1  0
 24 25  2  0
 25 26  1  0
 26 27  1  0
 26 28  2  0
 26 29  2  0
 25 30  1  0
 30 31  2  0
 15 32  1  0
 32 33  2  0
  5 34  1  0
 34 35  2  0
 35  2  1  0
 33 12  1  0
 31 22  1  0
  1 36  1  0
  1 37  1  0
  1 38  1  0
  3 39  1  0
  4 40  1  0
  9 41  1  0
 10 42  1  0
 10 43  1  0
 11 44  1  0
 11 45  1  0
 13 46  1  0
 14 47  1  0
 20 48  1  0
 20 49  1  0
 21 50  1  0
 21 51  1  0
 23 52  1  0
 24 53  1  0
 27 54  1  0
 30 55  1  0
 31 56  1  0
 32 57  1  0
 33 58  1  0
 34 59  1  0
 35 60  1  0
M  CHG  2  19  -1  27  -1
M  END
>  <UniqueID>  (70) 
65

>  <SMILES>  (70) 
Cc1ccc(S(=O)(=O)NCCc2ccc(S(=O)(=O)[N-]CCc3ccc(S([NH-])(=O)=O)cc3)cc2)cc1

>  <Energy>  (70) 
52.29723759023286

>  <Genealogy>  (70) 
Cc1ccc(S(=O)(=O)NCCc2ccc(S(=O)(=O)[N-]CCc3ccc(S([NH-])(=O)=O)cc3)cc2)cc1 (protonated)
Cc1ccc(S(=O)(=O)NCCc2ccc(S(=O)(=O)[N-]CCc3ccc(S([NH-])(=O)=O)cc3)cc2)cc1 (3D coordinates assigned)
Cc1ccc(S(=O)(=O)NCCc2ccc(S(=O)(=O)[N-]CCc3ccc(S([NH-])(=O)=O)cc3)cc2)cc1 (optimized conformer: 52.29723759023286 kcal/mol)

>  <smiles>  (70) 
Cc1ccc(S(=O)(=O)NCCc2ccc(S(=O)(=O)NCCc3ccc(S(N)(=O)=O)cc3)cc2)cc1

>  <score_type>  (70) 
oracle

>  <origin>  (70) 
adg

>  <m_score__min__energy>  (70) 
-14.289999999999999

>  <m_primary>  (70) 
energy

$$$$
70:0
     RDKit          3D

 47 49  0  0  0  0  0  0  0  0999 V2000
   59.5250   22.8900   44.8410 H   0  0  0  0  0  0  0  0  0  0  0  0
   59.3650   23.5190   45.6210 O   0  0  0  0  0  0  0  0  0  0  0  0
   58.2240   24.3150   45.6970 C   0  0  0  0  0  0  0  0  0  0  0  0
   56.9490   23.7390   45.6200 C   0  0  0  0  0  0  0  0  0  0  0  0
   56.8434   22.6515   45.4926 H   0  0  0  0  0  0  0  0  0  0  0  0
   55.8120   24.5460   45.7050 C   0  0  0  0  0  0  0  0  0  0  0  0
   54.8121   24.0914   45.6462 H   0  0  0  0  0  0  0  0  0  0  0  0
   55.9400   25.9330   45.8650 C   0  0  0  0  0  0  0  0  0  0  0  0
   54.7880   26.7000   46.0040 O   0  0  0  0  0  0  0  0  0  0  0  0
   57.2230   26.5260   45.9180 C   0  0  0  0  0  0  0  0  0  0  0  0
   57.4230   27.9810   46.1070 C   0  0  0  0  0  0  0  0  0  0  0  0
   56.6138   28.5661   46.5684 H   0  0  0  0  0  0  0  0  0  0  0  0
   58.5440   28.6180   45.7420 C   0  0  0  0  0  0  0  0  0  0  0  0
   59.3408   28.0521   45.2371 H   0  0  0  0  0  0  0  0  0  0  0  0
   58.7380   30.0530   45.9980 C   0  0  0  0  0  0  0  0  0  0  0  0
   59.1630   30.7910   45.0680 O   0  0  0  0  0  0  0  0  0  0  0  0
   58.4500   30.5930   47.2580 O   0  0  0  0  0  0  0  0  0  0  0  0
   58.9010   30.0150   48.4820 C   0  0  0  0  0  0  0  0  0  0  0  0
   59.8365   29.4667   48.2971 H   0  0  0  0  0  0  0  0  0  0  0  0
   58.1212   29.3348   48.8551 H   0  0  0  0  0  0  0  0  0  0  0  0
   59.1480   31.0680   49.5170 C   0  0  0  0  0  0  0  0  0  0  0  0
   58.1970   31.4950   50.2270 O   0  0  0  0  0  0  0  0  0  0  0  0
   60.4910   31.4920   49.7720 N   0  0  0  0  0  0  0  0  0  0  0  0
   61.4060   32.0160   48.7990 C   0  0  0  0  0  0  0  0  0  0  0  0
   62.5290   31.2760   48.3820 C   0  0  0  0  0  0  0  0  0  0  0  0
   62.7028   30.2692   48.7895 H   0  0  0  0  0  0  0  0  0  0  0  0
   63.4240   31.8140   47.4530 C   0  0  0  0  0  0  0  0  0  0  0  0
   64.2983   31.2298   47.1300 H   0  0  0  0  0  0  0  0  0  0  0  0
   63.2090   33.0920   46.9350 C   0  0  0  0  0  0  0  0  0  0  0  0
   63.9091   33.5105   46.1969 H   0  0  0  0  0  0  0  0  0  0  0  0
   62.1050   33.8410   47.3530 C   0  0  0  0  0  0  0  0  0  0  0  0
   61.9378   34.8467   46.9400 H   0  0  0  0  0  0  0  0  0  0  0  0
   61.2110   33.3170   48.2950 C   0  0  0  0  0  0  0  0  0  0  0  0
   59.8030   34.3080   48.8170 S   0  0  0  0  0  0  0  0  0  0  0  0
   58.9790   34.1550   47.2290 C   0  0  0  0  0  0  0  0  0  0  0  0
   59.5230   34.7750   46.0960 C   0  0  0  0  0  0  0  0  0  0  0  0
   60.4530   35.3563   46.1806 H   0  0  0  0  0  0  0  0  0  0  0  0
   58.8840   34.6550   44.8580 C   0  0  0  0  0  0  0  0  0  0  0  0
   59.3098   35.1455   43.9703 H   0  0  0  0  0  0  0  0  0  0  0  0
   57.7040   33.9120   44.7470 C   0  0  0  0  0  0  0  0  0  0  0  0
   57.2023   33.8181   43.7726 H   0  0  0  0  0  0  0  0  0  0  0  0
   57.1620   33.2880   45.8770 C   0  0  0  0  0  0  0  0  0  0  0  0
   56.2344   32.7032   45.7903 H   0  0  0  0  0  0  0  0  0  0  0  0
   57.8000   33.4080   47.1170 C   0  0  0  0  0  0  0  0  0  0  0  0
   57.3750   32.9153   48.0039 H   0  0  0  0  0  0  0  0  0  0  0  0
   58.3580   25.7010   45.8520 C   0  0  0  0  0  0  0  0  0  0  0  0
   59.3610   26.1471   45.9226 H   0  0  0  0  0  0  0  0  0  0  0  0
  1  2  1  0
  2  3  1  0
  3  4  2  0
  4  5  1  0
  4  6  1  0
  6  7  1  0
  6  8  2  0
  8  9  1  0
  8 10  1  0
 10 11  1  0
 11 12  1  0
 11 13  2  0
 13 14  1  0
 13 15  1  0
 15 16  2  0
 15 17  1  0
 17 18  1  0
 18 19  1  0
 18 20  1  0
 18 21  1  0
 21 22  2  0
 21 23  1  0
 23 24  1  0
 24 25  2  0
 25 26  1  0
 25 27  1  0
 27 28  1  0
 27 29  2  0
 29 30  1  0
 29 31  1  0
 31 32  1  0
 31 33  2  0
 33 34  1  0
 34 35  1  0
 35 36  2  0
 36 37  1  0
 36 38  1  0
 38 39  1  0
 38 40  2  0
 40 41  1  0
 40 42  1  0
 42 43  1  0
 42 44  2  0
 44 45  1  0
 10 46  2  0
 46 47  1  0
 46  3  1  0
 33 24  1  0
 44 35  1  0
M  CHG  2   9  -1  23  -1
M  END
>  <UniqueID>  (71) 
66

>  <SMILES>  (71) 
O=C(COC(=O)/C=C/c1cc(O)ccc1[O-])[N-]c1ccccc1Sc1ccccc1

>  <Energy>  (71) 
49.83326103437097

>  <Genealogy>  (71) 
O=C(COC(=O)C=Cc1cc(O)ccc1[O-])[N-]c1ccccc1Sc1ccccc1 (protonated)
O=C(COC(=O)/C=C/c1cc(O)ccc1[O-])[N-]c1ccccc1Sc1ccccc1 (cis-trans isomerization)
O=C(COC(=O)/C=C/c1cc(O)ccc1[O-])[N-]c1ccccc1Sc1ccccc1 (3D coordinates assigned)
O=C(COC(=O)/C=C/c1cc(O)ccc1[O-])[N-]c1ccccc1Sc1ccccc1 (optimized conformer: 49.83326103437097 kcal/mol)

>  <smiles>  (71) 
O=C(COC(=O)C=Cc1cc(O)ccc1O)Nc1ccccc1Sc1ccccc1

>  <score_type>  (71) 
oracle

>  <origin>  (71) 
adg

>  <m_score__min__energy>  (71) 
-13.9

>  <m_primary>  (71) 
energy

$$$$
71:0
     RDKit          3D

 41 43  0  0  0  0  0  0  0  0999 V2000
   63.3440   33.7270   47.9780 C   0  0  0  0  0  0  0  0  0  0  0  0
   61.8570   33.7810   47.7920 C   0  0  0  0  0  0  0  0  0  0  0  0
   61.0260   34.1560   48.8580 C   0  0  0  0  0  0  0  0  0  0  0  0
   59.6450   34.2450   48.6730 C   0  0  0  0  0  0  0  0  0  0  0  0
   59.0830   33.9740   47.4240 C   0  0  0  0  0  0  0  0  0  0  0  0
   59.9060   33.6100   46.3420 C   0  0  0  0  0  0  0  0  0  0  0  0
   59.3760   33.3280   45.0400 N   0  0  0  0  0  0  0  0  0  0  0  0
   57.7660   32.7710   44.7150 S   0  0  0  0  0  0  0  0  0  0  0  0
   56.7950   33.5710   45.5360 O   0  0  0  0  0  0  0  0  0  0  0  0
   57.4590   32.9760   43.2590 O   0  0  0  0  0  0  0  0  0  0  0  0
   57.6390   31.0550   45.0880 C   0  0  0  0  0  0  0  0  0  0  0  0
   58.5420   30.4670   45.9810 C   0  0  0  0  0  0  0  0  0  0  0  0
   58.4500   29.1060   46.2840 C   0  0  0  0  0  0  0  0  0  0  0  0
   57.4570   28.3130   45.6830 C   0  0  0  0  0  0  0  0  0  0  0  0
   57.3150   26.9160   45.9800 N   0  0  0  0  0  0  0  0  0  0  0  0
   56.1310   26.1240   45.8090 C   0  0  0  0  0  0  0  0  0  0  0  0
   55.0490   26.4820   46.3480 O   0  0  0  0  0  0  0  0  0  0  0  0
   56.1900   24.8570   45.0450 C   0  0  0  0  0  0  0  0  0  0  0  0
   57.3970   24.4170   44.4750 C   0  0  0  0  0  0  0  0  0  0  0  0
   57.4410   23.2190   43.7590 C   0  0  0  0  0  0  0  0  0  0  0  0
   56.2740   22.4640   43.6170 C   0  0  0  0  0  0  0  0  0  0  0  0
   56.2950   21.3810   42.9740 O   0  0  0  0  0  0  0  0  0  0  0  0
   55.1140   22.8980   44.1710 N   0  0  0  0  0  0  0  0  0  0  0  0
   55.0430   24.0620   44.8730 C   0  0  0  0  0  0  0  0  0  0  0  0
   56.5380   28.9110   44.8110 C   0  0  0  0  0  0  0  0  0  0  0  0
   56.6340   30.2730   44.5060 C   0  0  0  0  0  0  0  0  0  0  0  0
   61.2920   33.5250   46.5330 C   0  0  0  0  0  0  0  0  0  0  0  0
   63.5790   33.7185   49.0526 H   0  0  0  0  0  0  0  0  0  0  0  0
   63.7393   32.8139   47.5089 H   0  0  0  0  0  0  0  0  0  0  0  0
   63.8045   34.6090   47.5089 H   0  0  0  0  0  0  0  0  0  0  0  0
   61.4634   34.3805   49.8420 H   0  0  0  0  0  0  0  0  0  0  0  0
   58.9969   34.5299   49.5149 H   0  0  0  0  0  0  0  0  0  0  0  0
   57.9941   34.0452   47.2853 H   0  0  0  0  0  0  0  0  0  0  0  0
   59.3282   31.0793   46.4467 H   0  0  0  0  0  0  0  0  0  0  0  0
   59.1569   28.6537   46.9951 H   0  0  0  0  0  0  0  0  0  0  0  0
   58.3103   25.0186   44.5934 H   0  0  0  0  0  0  0  0  0  0  0  0
   58.3845   22.8733   43.3115 H   0  0  0  0  0  0  0  0  0  0  0  0
   54.0845   24.3820   45.3075 H   0  0  0  0  0  0  0  0  0  0  0  0
   55.7359   28.3059   44.3633 H   0  0  0  0  0  0  0  0  0  0  0  0
   55.9182   30.7306   43.8073 H   0  0  0  0  0  0  0  0  0  0  0  0
   61.9429   33.2552   45.6883 H   0  0  0  0  0  0  0  0  0  0  0  0
  1  2  1  0
  2  3  2  0
  3  4  1  0
  4  5  2  0
  5  6  1  0
  6  7  1  0
  7  8  1  0
  8  9  2  0
  8 10  2  0
  8 11  1  0
 11 12  2  0
 12 13  1  0
 13 14  2  0
 14 15  1  0
 15 16  1  0
 16 17  2  0
 16 18  1  0
 18 19  1  0
 19 20  2  0
 20 21  1  0
 21 22  2  0
 21 23  1  0
 23 24  1  0
 14 25  1  0
 25 26  2  0
  6 27  2  0
 27  2  1  0
 26 11  1  0
 24 18  2  0
  1 28  1  0
  1 29  1  0
  1 30  1  0
  3 31  1  0
  4 32  1  0
  5 33  1  0
 12 34  1  0
 13 35  1  0
 19 36  1  0
 20 37  1  0
 24 38  1  0
 25 39  1  0
 26 40  1  0
 27 41  1  0
M  CHG  3   7  -1  15  -1  23  -1
M  END
>  <UniqueID>  (72) 
67

>  <SMILES>  (72) 
Cc1cccc([N-]S(=O)(=O)c2ccc([N-]C(=O)c3ccc(=O)[n-]c3)cc2)c1

>  <Energy>  (72) 
51.3313931807419

>  <Genealogy>  (72) 
Cc1cccc([N-]S(=O)(=O)c2ccc([N-]C(=O)c3ccc(=O)[n-]c3)cc2)c1 (protonated)
Cc1cccc([N-]S(=O)(=O)c2ccc([N-]C(=O)c3ccc(=O)[n-]c3)cc2)c1 (3D coordinates assigned)
Cc1cccc([N-]S(=O)(=O)c2ccc([N-]C(=O)c3ccc(=O)[n-]c3)cc2)c1 (optimized conformer: 51.3313931807419 kcal/mol)

>  <smiles>  (72) 
Cc1cccc(NS(=O)(=O)c2ccc(NC(=O)c3ccc(=O)[nH]c3)cc2)c1

>  <score_type>  (72) 
oracle

>  <origin>  (72) 
adg

>  <m_score__min__energy>  (72) 
-12.92

>  <m_primary>  (72) 
energy

$$$$
72:0
     RDKit          3D

 45 47  0  0  0  0  0  0  0  0999 V2000
   57.3660   22.5970   47.2920 N   0  0  0  0  0  0  0  0  0  0  0  0
   57.9960   23.1940   45.7980 S   0  0  0  0  0  0  0  0  0  0  0  0
   57.0780   22.8080   44.6740 O   0  0  0  0  0  0  0  0  0  0  0  0
   59.3470   22.5860   45.5480 O   0  0  0  0  0  0  0  0  0  0  0  0
   58.1360   24.9480   45.8790 C   0  0  0  0  0  0  0  0  0  0  0  0
   58.5410   25.5710   47.0660 C   0  0  0  0  0  0  0  0  0  0  0  0
   58.6410   26.9640   47.1310 C   0  0  0  0  0  0  0  0  0  0  0  0
   58.3180   27.7530   46.0170 C   0  0  0  0  0  0  0  0  0  0  0  0
   58.4530   29.1820   46.1040 N   0  0  0  0  0  0  0  0  0  0  0  0
   57.5200   30.1120   45.5230 C   0  0  0  0  0  0  0  0  0  0  0  0
   56.4650   29.6870   44.9780 O   0  0  0  0  0  0  0  0  0  0  0  0
   57.7680   31.5740   45.5570 C   0  0  0  0  0  0  0  0  0  0  0  0
   57.5170   32.3870   44.4350 C   0  0  0  0  0  0  0  0  0  0  0  0
   57.7560   33.7620   44.4920 C   0  0  0  0  0  0  0  0  0  0  0  0
   58.2630   34.3400   45.6570 C   0  0  0  0  0  0  0  0  0  0  0  0
   58.5570   33.5390   46.7720 C   0  0  0  0  0  0  0  0  0  0  0  0
   59.0820   34.0970   47.9850 N   0  0  0  0  0  0  0  0  0  0  0  0
   59.8660   33.4060   48.9680 C   0  0  0  0  0  0  0  0  0  0  0  0
   59.3110   33.0410   50.0380 O   0  0  0  0  0  0  0  0  0  0  0  0
   61.3000   33.0960   48.7590 C   0  0  0  0  0  0  0  0  0  0  0  0
   62.2460   34.0360   49.2040 C   0  0  0  0  0  0  0  0  0  0  0  0
   63.6050   33.8560   48.9460 C   0  0  0  0  0  0  0  0  0  0  0  0
   64.0380   32.7350   48.2420 C   0  0  0  0  0  0  0  0  0  0  0  0
   63.1190   31.7760   47.8150 C   0  0  0  0  0  0  0  0  0  0  0  0
   61.7450   31.9260   48.0830 C   0  0  0  0  0  0  0  0  0  0  0  0
   60.8310   30.8260   47.6920 C   0  0  0  0  0  0  0  0  0  0  0  0
   60.0450   30.3120   48.5300 O   0  0  0  0  0  0  0  0  0  0  0  0
   60.8670   30.3160   46.3990 O   0  0  0  0  0  0  0  0  0  0  0  0
   58.2900   32.1650   46.7210 C   0  0  0  0  0  0  0  0  0  0  0  0
   57.9290   27.1230   44.8220 C   0  0  0  0  0  0  0  0  0  0  0  0
   57.8290   25.7300   44.7580 C   0  0  0  0  0  0  0  0  0  0  0  0
   57.7760   23.1840   48.0520 H   0  0  0  0  0  0  0  0  0  0  0  0
   58.7812   24.9623   47.9502 H   0  0  0  0  0  0  0  0  0  0  0  0
   58.9753   27.4447   48.0622 H   0  0  0  0  0  0  0  0  0  0  0  0
   59.2540   29.5460   46.6670 H   0  0  0  0  0  0  0  0  0  0  0  0
   57.1306   31.9368   43.5087 H   0  0  0  0  0  0  0  0  0  0  0  0
   57.5439   34.3918   43.6154 H   0  0  0  0  0  0  0  0  0  0  0  0
   58.4327   35.4259   45.7016 H   0  0  0  0  0  0  0  0  0  0  0  0
   61.9109   34.9230   49.7616 H   0  0  0  0  0  0  0  0  0  0  0  0
   64.3348   34.5996   49.2987 H   0  0  0  0  0  0  0  0  0  0  0  0
   65.1079   32.6053   48.0219 H   0  0  0  0  0  0  0  0  0  0  0  0
   63.4720   30.8926   47.2627 H   0  0  0  0  0  0  0  0  0  0  0  0
   58.4914   31.5399   47.6035 H   0  0  0  0  0  0  0  0  0  0  0  0
   57.7021   27.7292   43.9326 H   0  0  0  0  0  0  0  0  0  0  0  0
   57.5080   25.2461   43.8237 H   0  0  0  0  0  0  0  0  0  0  0  0
  1  2  1  0
  2  3  2  0
  2  4  2  0
  2  5  1  0
  5  6  2  0
  6  7  1  0
  7  8  2  0
  8  9  1  0
  9 10  1  0
 10 11  2  0
 10 12  1  0
 12 13  2  0
 13 14  1  0
 14 15  2  0
 15 16  1  0
 16 17  1  0
 17 18  1  0
 18 19  2  0
 18 20  1  0
 20 21  2  0
 21 22  1  0
 22 23  2  0
 23 24  1  0
 24 25  2  0
 25 26  1  0
 26 27  2  0
 26 28  1  0
 16 29  2  0
  8 30  1  0
 30 31  2  0
 31  5  1  0
 29 12  1  0
 25 20  1  0
  1 32  1  0
  6 33  1  0
  7 34  1  0
  9 35  1  0
 13 36  1  0
 14 37  1  0
 15 38  1  0
 21 39  1  0
 22 40  1  0
 23 41  1  0
 24 42  1  0
 29 43  1  0
 30 44  1  0
 31 45  1  0
M  CHG  3   1  -1  17  -1  28  -1
M  END
>  <UniqueID>  (73) 
68

>  <SMILES>  (73) 
[NH-]S(=O)(=O)c1ccc(NC(=O)c2cccc([N-]C(=O)c3ccccc3C(=O)[O-])c2)cc1

>  <Energy>  (73) 
67.46249222851021

>  <Genealogy>  (73) 
[NH-]S(=O)(=O)c1ccc(NC(=O)c2cccc([N-]C(=O)c3ccccc3C(=O)[O-])c2)cc1 (protonated)
[NH-]S(=O)(=O)c1ccc(NC(=O)c2cccc([N-]C(=O)c3ccccc3C(=O)[O-])c2)cc1 (3D coordinates assigned)
[NH-]S(=O)(=O)c1ccc(NC(=O)c2cccc([N-]C(=O)c3ccccc3C(=O)[O-])c2)cc1 (optimized conformer: 67.46249222851021 kcal/mol)

>  <smiles>  (73) 
NS(=O)(=O)c1ccc(NC(=O)c2cccc(NC(=O)c3ccccc3C(=O)O)c2)cc1

>  <score_type>  (73) 
oracle

>  <origin>  (73) 
adg

>  <m_score__min__energy>  (73) 
-13.25

>  <m_primary>  (73) 
energy

$$$$
73:0
     RDKit          3D

 33 34  0  0  0  0  0  0  0  0999 V2000
   55.5090   26.7160   46.0450 N   0  0  0  0  0  0  0  0  0  0  0  0
   56.8880   26.8540   45.7150 C   0  0  0  0  0  0  0  0  0  0  0  0
   57.4070   26.0950   44.8540 O   0  0  0  0  0  0  0  0  0  0  0  0
   57.7090   27.9250   46.3590 C   0  0  0  0  0  0  0  0  0  0  0  0
   57.5470   29.2210   45.6170 C   0  0  0  0  0  0  0  0  0  0  0  0
   56.4050   29.6740   44.9860 C   0  0  0  0  0  0  0  0  0  0  0  0
   55.1940   28.9950   44.8750 O   0  0  0  0  0  0  0  0  0  0  0  0
   56.6090   30.9030   44.4740 N   0  0  0  0  0  0  0  0  0  0  0  0
   57.8830   31.1890   44.8170 C   0  0  0  0  0  0  0  0  0  0  0  0
   58.4730   30.1970   45.5200 N   0  0  0  0  0  0  0  0  0  0  0  0
   59.8530   30.1960   46.0110 C   0  0  0  0  0  0  0  0  0  0  0  0
   60.0570   31.3000   47.0140 C   0  0  0  0  0  0  0  0  0  0  0  0
   58.9520   31.8850   47.6520 C   0  0  0  0  0  0  0  0  0  0  0  0
   59.1350   32.9210   48.5710 C   0  0  0  0  0  0  0  0  0  0  0  0
   60.4220   33.3800   48.8640 C   0  0  0  0  0  0  0  0  0  0  0  0
   61.5340   32.7960   48.2450 C   0  0  0  0  0  0  0  0  0  0  0  0
   63.1590   33.3780   48.5940 S   0  0  0  0  0  0  0  0  0  0  0  0
   63.9970   33.6700   47.1120 N   0  0  0  0  0  0  0  0  0  0  0  0
   63.9020   32.3500   49.3990 O   0  0  0  0  0  0  0  0  0  0  0  0
   63.0900   34.6540   49.3860 O   0  0  0  0  0  0  0  0  0  0  0  0
   61.3500   31.7580   47.3200 C   0  0  0  0  0  0  0  0  0  0  0  0
   54.7760   26.7340   45.3010 H   0  0  0  0  0  0  0  0  0  0  0  0
   57.3794   28.0588   47.3999 H   0  0  0  0  0  0  0  0  0  0  0  0
   58.7679   27.6282   46.3351 H   0  0  0  0  0  0  0  0  0  0  0  0
   55.1410   27.9870   44.9540 H   0  0  0  0  0  0  0  0  0  0  0  0
   58.3875   32.1300   44.5523 H   0  0  0  0  0  0  0  0  0  0  0  0
   60.0663   29.2286   46.4892 H   0  0  0  0  0  0  0  0  0  0  0  0
   60.5328   30.3574   45.1614 H   0  0  0  0  0  0  0  0  0  0  0  0
   57.9369   31.5258   47.4272 H   0  0  0  0  0  0  0  0  0  0  0  0
   58.2642   33.3765   49.0651 H   0  0  0  0  0  0  0  0  0  0  0  0
   60.5617   34.2015   49.5821 H   0  0  0  0  0  0  0  0  0  0  0  0
   64.8320   33.0420   47.1040 H   0  0  0  0  0  0  0  0  0  0  0  0
   62.2225   31.2998   46.8313 H   0  0  0  0  0  0  0  0  0  0  0  0
  1  2  1  0
  2  3  2  0
  2  4  1  0
  4  5  1  0
  5  6  2  0
  6  7  1  0
  6  8  1  0
  8  9  2  0
  9 10  1  0
 10 11  1  0
 11 12  1  0
 12 13  2  0
 13 14  1  0
 14 15  2  0
 15 16  1  0
 16 17  1  0
 17 18  1  0
 17 19  2  0
 17 20  2  0
 16 21  2  0
 10  5  1  0
 21 12  1  0
  1 22  1  0
  4 23  1  0
  4 24  1  0
  7 25  1  0
  9 26  1  0
 11 27  1  0
 11 28  1  0
 13 29  1  0
 14 30  1  0
 15 31  1  0
 18 32  1  0
 21 33  1  0
M  CHG  2   1  -1  18  -1
M  END
>  <UniqueID>  (74) 
69

>  <SMILES>  (74) 
[NH-]C(=O)Cc1c(O)ncn1Cc1cccc(S([NH-])(=O)=O)c1

>  <Energy>  (74) 
58.782558740479985

>  <Genealogy>  (74) 
[NH-]C(=O)Cc1c(O)ncn1Cc1cccc(S([NH-])(=O)=O)c1 (protonated)
[NH-]C(=O)Cc1c(O)ncn1Cc1cccc(S([NH-])(=O)=O)c1 (3D coordinates assigned)
[NH-]C(=O)Cc1c(O)ncn1Cc1cccc(S([NH-])(=O)=O)c1 (optimized conformer: 58.782558740479985 kcal/mol)

>  <smiles>  (74) 
NC(=O)Cc1c(O)ncn1Cc1cccc(S(N)(=O)=O)c1

>  <score_type>  (74) 
oracle

>  <origin>  (74) 
adg

>  <m_score__min__energy>  (74) 
-11.960000000000001

>  <m_primary>  (74) 
energy

$$$$
74:0
     RDKit          3D

 41 43  0  0  0  0  0  0  0  0999 V2000
   57.6870   31.7420   42.9470 C   0  0  0  0  0  0  0  0  0  0  0  0
   57.0640   30.6730   43.7810 C   0  0  0  0  0  0  0  0  0  0  0  0
   57.5340   29.3860   43.9350 C   0  0  0  0  0  0  0  0  0  0  0  0
   56.6110   28.8260   44.8000 C   0  0  0  0  0  0  0  0  0  0  0  0
   56.6090   27.6090   45.2540 N   0  0  0  0  0  0  0  0  0  0  0  0
   57.9110   26.8950   46.1520 S   0  0  0  0  0  0  0  0  0  0  0  0
   58.7440   26.0530   45.2290 O   0  0  0  0  0  0  0  0  0  0  0  0
   57.3480   26.0100   47.2300 O   0  0  0  0  0  0  0  0  0  0  0  0
   58.9220   28.1630   46.8390 C   0  0  0  0  0  0  0  0  0  0  0  0
   59.8910   28.7810   46.0400 C   0  0  0  0  0  0  0  0  0  0  0  0
   60.6980   29.7910   46.5700 C   0  0  0  0  0  0  0  0  0  0  0  0
   60.5290   30.2000   47.8950 C   0  0  0  0  0  0  0  0  0  0  0  0
   59.5430   29.6120   48.6970 C   0  0  0  0  0  0  0  0  0  0  0  0
   59.4060   30.0590   50.0520 N   0  0  0  0  0  0  0  0  0  0  0  0
   58.3780   30.9120   50.5790 C   0  0  0  0  0  0  0  0  0  0  0  0
   57.4140   30.4250   51.2260 O   0  0  0  0  0  0  0  0  0  0  0  0
   58.4380   32.3740   50.3890 C   0  0  0  0  0  0  0  0  0  0  0  0
   59.2910   33.0240   49.5800 C   0  0  0  0  0  0  0  0  0  0  0  0
   58.9950   33.4600   48.2010 C   0  0  0  0  0  0  0  0  0  0  0  0
   58.0970   32.7230   47.4170 C   0  0  0  0  0  0  0  0  0  0  0  0
   57.8360   33.1110   46.1020 C   0  0  0  0  0  0  0  0  0  0  0  0
   58.4950   34.2220   45.5730 C   0  0  0  0  0  0  0  0  0  0  0  0
   59.3900   34.9080   46.3320 N   0  0  0  0  0  0  0  0  0  0  0  0
   59.6590   34.5520   47.6170 C   0  0  0  0  0  0  0  0  0  0  0  0
   58.7540   28.5720   48.1700 C   0  0  0  0  0  0  0  0  0  0  0  0
   55.6680   29.7280   45.1280 N   0  0  0  0  0  0  0  0  0  0  0  0
   55.9740   30.8260   44.4980 O   0  0  0  0  0  0  0  0  0  0  0  0
   58.1320   32.5055   43.6020 H   0  0  0  0  0  0  0  0  0  0  0  0
   58.4701   31.3020   42.3121 H   0  0  0  0  0  0  0  0  0  0  0  0
   56.9182   32.2065   42.3121 H   0  0  0  0  0  0  0  0  0  0  0  0
   58.4220   28.9203   43.4826 H   0  0  0  0  0  0  0  0  0  0  0  0
   60.0175   28.4708   44.9923 H   0  0  0  0  0  0  0  0  0  0  0  0
   61.4676   30.2648   45.9429 H   0  0  0  0  0  0  0  0  0  0  0  0
   61.1739   30.9882   48.3107 H   0  0  0  0  0  0  0  0  0  0  0  0
   57.7223   32.9845   50.9591 H   0  0  0  0  0  0  0  0  0  0  0  0
   60.2915   33.2498   49.9775 H   0  0  0  0  0  0  0  0  0  0  0  0
   57.5976   31.8381   47.8384 H   0  0  0  0  0  0  0  0  0  0  0  0
   57.1181   32.5469   45.4885 H   0  0  0  0  0  0  0  0  0  0  0  0
   58.2899   34.5427   44.5410 H   0  0  0  0  0  0  0  0  0  0  0  0
   60.3982   35.1204   48.2005 H   0  0  0  0  0  0  0  0  0  0  0  0
   58.0031   28.0784   48.8044 H   0  0  0  0  0  0  0  0  0  0  0  0
  1  2  1  0
  2  3  2  0
  3  4  1  0
  4  5  2  3
  5  6  1  0
  6  7  2  0
  6  8  2  0
  6  9  1  0
  9 10  2  0
 10 11  1  0
 11 12  2  0
 12 13  1  0
 13 14  1  0
 14 15  1  0
 15 16  2  0
 15 17  1  0
 17 18  2  3
 18 19  1  0
 19 20  2  0
 20 21  1  0
 21 22  2  0
 22 23  1  0
 23 24  2  0
 13 25  2  0
  4 26  1  0
 26 27  1  0
 27  2  1  0
 25  9  1  0
 24 19  1  0
  1 28  1  0
  1 29  1  0
  1 30  1  0
  3 31  1  0
 10 32  1  0
 11 33  1  0
 12 34  1  0
 17 35  1  0
 18 36  1  0
 20 37  1  0
 21 38  1  0
 22 39  1  0
 24 40  1  0
 25 41  1  0
M  CHG  2  14  -1  26  -1
M  END
>  <UniqueID>  (75) 
70

>  <SMILES>  (75) 
Cc1cc(=NS(=O)(=O)c2cccc([N-]C(=O)C=Cc3cccnc3)c2)[n-]o1

>  <Energy>  (75) 
87.74257679465181

>  <Genealogy>  (75) 
Cc1cc(=NS(=O)(=O)c2cccc([N-]C(=O)C=Cc3cccnc3)c2)[n-]o1 (protonated)
Cc1cc(=NS(=O)(=O)c2cccc([N-]C(=O)C=Cc3cccnc3)c2)[n-]o1 (3D coordinates assigned)
Cc1cc(=NS(=O)(=O)c2cccc([N-]C(=O)C=Cc3cccnc3)c2)[n-]o1 (optimized conformer: 87.74257679465181 kcal/mol)

>  <smiles>  (75) 
Cc1cc(=NS(=O)(=O)c2cccc(NC(=O)C=Cc3cccnc3)c2)[nH]o1

>  <score_type>  (75) 
oracle

>  <origin>  (75) 
adg

>  <m_score__min__energy>  (75) 
-12.57

>  <m_primary>  (75) 
energy

$$$$
75:0
     RDKit          3D

 51 53  0  0  0  0  0  0  0  0999 V2000
   55.6350   30.8410   44.5440 O   0  0  0  0  0  0  0  0  0  0  0  0
   56.2360   29.7410   44.6650 C   0  0  0  0  0  0  0  0  0  0  0  0
   55.5410   28.6410   45.1550 O   0  0  0  0  0  0  0  0  0  0  0  0
   57.6970   29.6340   44.2870 C   0  0  1  0  0  0  0  0  0  0  0  0
   58.4770   30.8560   44.7730 C   0  0  0  0  0  0  0  0  0  0  0  0
   59.5700   30.6770   45.2980 O   0  0  0  0  0  0  0  0  0  0  0  0
   57.9250   32.2090   44.7540 N   0  0  2  0  0  0  0  0  0  0  0  0
   58.8430   33.2780   44.3280 C   0  0  0  0  0  0  0  0  0  0  0  0
   58.2860   34.5850   44.8730 C   0  0  0  0  0  0  0  0  0  0  0  0
   57.3190   34.1920   45.9800 C   0  0  0  0  0  0  0  0  0  0  0  0
   57.3750   32.6650   46.0520 C   0  0  2  0  0  0  0  0  0  0  0  0
   58.1920   32.2290   47.2530 C   0  0  0  0  0  0  0  0  0  0  0  0
   58.2480   31.0130   47.5840 O   0  0  0  0  0  0  0  0  0  0  0  0
   58.9370   33.2080   47.9820 N   0  0  0  0  0  0  0  0  0  0  0  0
   60.0030   32.8810   48.9210 C   0  0  0  0  0  0  0  0  0  0  0  0
   61.3540   33.0710   48.2840 C   0  0  0  0  0  0  0  0  0  0  0  0
   61.4670   33.7000   47.0320 C   0  0  0  0  0  0  0  0  0  0  0  0
   62.7170   33.8360   46.4210 C   0  0  0  0  0  0  0  0  0  0  0  0
   63.8610   33.3340   47.0470 C   0  0  0  0  0  0  0  0  0  0  0  0
   63.7560   32.6940   48.2840 C   0  0  0  0  0  0  0  0  0  0  0  0
   62.5100   32.5610   48.9030 C   0  0  0  0  0  0  0  0  0  0  0  0
   58.3410   28.2910   44.7520 C   0  0  1  0  0  0  0  0  0  0  0  0
   58.3220   28.0640   46.2950 C   0  0  0  0  0  0  0  0  0  0  0  0
   57.2660   27.0790   46.7200 C   0  0  0  0  0  0  0  0  0  0  0  0
   57.0250   26.0350   46.0050 N   0  0  0  0  0  0  0  0  0  0  0  0
   57.7430   25.7960   44.7730 C   0  0  0  0  0  0  0  0  0  0  0  0
   57.7710   27.0840   43.9430 C   0  0  0  0  0  0  0  0  0  0  0  0
   57.7513   29.6223   43.1884 H   0  0  0  0  0  0  0  0  0  0  0  0
   57.1330   32.1910   44.0680 H   0  0  0  0  0  0  0  0  0  0  0  0
   59.8488   33.0969   44.7350 H   0  0  0  0  0  0  0  0  0  0  0  0
   58.9242   33.3124   43.2315 H   0  0  0  0  0  0  0  0  0  0  0  0
   59.0973   35.2089   45.2763 H   0  0  0  0  0  0  0  0  0  0  0  0
   57.7868   35.1718   44.0878 H   0  0  0  0  0  0  0  0  0  0  0  0
   57.6319   34.6333   46.9378 H   0  0  0  0  0  0  0  0  0  0  0  0
   56.2998   34.5529   45.7774 H   0  0  0  0  0  0  0  0  0  0  0  0
   56.3854   32.2084   46.2007 H   0  0  0  0  0  0  0  0  0  0  0  0
   59.9232   33.5376   49.8000 H   0  0  0  0  0  0  0  0  0  0  0  0
   59.8990   31.8273   49.2193 H   0  0  0  0  0  0  0  0  0  0  0  0
   60.5676   34.0870   46.5307 H   0  0  0  0  0  0  0  0  0  0  0  0
   62.8001   34.3388   45.4462 H   0  0  0  0  0  0  0  0  0  0  0  0
   64.8441   33.4429   46.5656 H   0  0  0  0  0  0  0  0  0  0  0  0
   64.6566   32.2935   48.7724 H   0  0  0  0  0  0  0  0  0  0  0  0
   62.4329   32.0560   49.8772 H   0  0  0  0  0  0  0  0  0  0  0  0
   59.4128   28.3698   44.5174 H   0  0  0  0  0  0  0  0  0  0  0  0
   59.3056   27.6835   46.6077 H   0  0  0  0  0  0  0  0  0  0  0  0
   58.0910   29.0280   46.7717 H   0  0  0  0  0  0  0  0  0  0  0  0
   56.6974   27.2516   47.6457 H   0  0  0  0  0  0  0  0  0  0  0  0
   58.7728   25.4848   45.0026 H   0  0  0  0  0  0  0  0  0  0  0  0
   57.2398   25.0016   44.2023 H   0  0  0  0  0  0  0  0  0  0  0  0
   58.4019   26.9213   43.0567 H   0  0  0  0  0  0  0  0  0  0  0  0
   56.7366   27.3257   43.6573 H   0  0  0  0  0  0  0  0  0  0  0  0
  1  2  2  0
  2  3  1  0
  2  4  1  0
  4  5  1  0
  5  6  2  0
  5  7  1  0
  7  8  1  0
  8  9  1  0
  9 10  1  0
 10 11  1  0
 11 12  1  0
 12 13  2  0
 12 14  1  0
 14 15  1  0
 15 16  1  0
 16 17  2  0
 17 18  1  0
 18 19  2  0
 19 20  1  0
 20 21  2  0
  4 22  1  0
 22 23  1  0
 23 24  1  0
 24 25  2  0
 25 26  1  0
 26 27  1  0
 11  7  1  0
 21 16  1  0
 27 22  1  0
  4 28  1  6
  7 29  1  6
  8 30  1  0
  8 31  1  0
  9 32  1  0
  9 33  1  0
 10 34  1  0
 10 35  1  0
 11 36  1  1
 15 37  1  0
 15 38  1  0
 17 39  1  0
 18 40  1  0
 19 41  1  0
 20 42  1  0
 21 43  1  0
 22 44  1  6
 23 45  1  0
 23 46  1  0
 24 47  1  0
 26 48  1  0
 26 49  1  0
 27 50  1  0
 27 51  1  0
M  CHG  3   3  -1   7   1  14  -1
M  END
>  <UniqueID>  (76) 
71

>  <SMILES>  (76) 
O=C([N-]Cc1ccccc1)C1CCC[N@H+]1C(=O)[C@H](C(=O)[O-])C1CC=NCC1

>  <Energy>  (76) 
63.228468573905836

>  <Genealogy>  (76) 
O=C([O-])C(C(=O)[NH+]1CCCC1C(=O)[N-]Cc1ccccc1)C1CC=NCC1 (protonated)
O=C([N-]Cc1ccccc1)C1CCC[N@H+]1C(=O)[C@H](C(=O)[O-])C1CC=NCC1 (chirality)
O=C([N-]Cc1ccccc1)C1CCC[N@H+]1C(=O)[C@H](C(=O)[O-])C1CC=NCC1 (3D coordinates assigned)
O=C([N-]Cc1ccccc1)C1CCC[N@H+]1C(=O)[C@H](C(=O)[O-])C1CC=NCC1 (nonaromatic ring conformer: 63.228468573905836 kcal/mol)

>  <smiles>  (76) 
O=C(O)C(C(=O)N1CCCC1C(=O)NCc1ccccc1)C1CC=NCC1

>  <score_type>  (76) 
oracle

>  <origin>  (76) 
adg

>  <m_score__min__energy>  (76) 
-12.31

>  <m_primary>  (76) 
energy

$$$$
76:0
     RDKit          3D

 55 58  0  0  0  0  0  0  0  0999 V2000
   59.8130   29.8030   49.6640 N   0  0  0  0  0  0  0  0  0  0  0  0
   59.5580   29.4940   48.5780 C   0  0  0  0  0  0  0  0  0  0  0  0
   59.2350   29.1080   47.2270 C   0  0  0  0  0  0  0  0  0  0  0  0
   60.0140   28.1500   46.5630 C   0  0  0  0  0  0  0  0  0  0  0  0
   59.7040   27.7880   45.2490 C   0  0  0  0  0  0  0  0  0  0  0  0
   58.6150   28.3780   44.5950 C   0  0  0  0  0  0  0  0  0  0  0  0
   57.8230   29.3300   45.2590 C   0  0  0  0  0  0  0  0  0  0  0  0
   56.4160   30.0460   44.4730 S   0  0  0  0  0  0  0  0  0  0  0  0
   56.5630   29.9020   42.9860 O   0  0  0  0  0  0  0  0  0  0  0  0
   55.1520   29.3400   44.8750 O   0  0  0  0  0  0  0  0  0  0  0  0
   56.3190   31.7380   44.8510 N   0  0  0  0  0  0  0  0  0  0  0  0
   57.4000   32.5990   45.2410 C   0  0  0  0  0  0  0  0  0  0  0  0
   58.0960   33.2850   44.2390 C   0  0  0  0  0  0  0  0  0  0  0  0
   59.1510   34.1390   44.5660 C   0  0  0  0  0  0  0  0  0  0  0  0
   59.5290   34.3110   45.9010 C   0  0  0  0  0  0  0  0  0  0  0  0
   58.8530   33.6250   46.9210 C   0  0  0  0  0  0  0  0  0  0  0  0
   59.2400   33.8020   48.3400 C   0  0  0  0  0  0  0  0  0  0  0  0
   59.3250   34.9650   48.8180 O   0  0  0  0  0  0  0  0  0  0  0  0
   59.4760   32.6670   49.1880 N   0  0  0  0  0  0  0  0  0  0  0  0
   60.1170   32.7740   50.4680 C   0  0  0  0  0  0  0  0  0  0  0  0
   59.3430   32.8740   51.6370 C   0  0  0  0  0  0  0  0  0  0  0  0
   59.9580   33.0410   52.8800 C   0  0  0  0  0  0  0  0  0  0  0  0
   61.3480   33.1150   52.9690 C   0  0  0  0  0  0  0  0  0  0  0  0
   62.1280   33.0250   51.8150 C   0  0  0  0  0  0  0  0  0  0  0  0
   61.5230   32.8560   50.5600 C   0  0  0  0  0  0  0  0  0  0  0  0
   62.3490   32.7160   49.3930 N   0  0  0  0  0  0  0  0  0  0  0  0
   63.1310   33.8590   48.9100 C   0  0  0  0  0  0  0  0  0  0  0  0
   63.4880   33.6740   47.4290 C   0  0  0  0  0  0  0  0  0  0  0  0
   62.3300   33.1580   46.6860 N   0  0  0  0  0  0  0  0  0  0  0  0
   61.9190   31.8100   47.1320 C   0  0  0  0  0  0  0  0  0  0  0  0
   62.2970   31.4890   48.5940 C   0  0  0  0  0  0  0  0  0  0  0  0
   57.7800   32.7770   46.5820 C   0  0  0  0  0  0  0  0  0  0  0  0
   58.1400   29.6920   46.5770 C   0  0  0  0  0  0  0  0  0  0  0  0
   60.8683   27.6837   47.0756 H   0  0  0  0  0  0  0  0  0  0  0  0
   60.3167   27.0380   44.7273 H   0  0  0  0  0  0  0  0  0  0  0  0
   58.3790   28.0953   43.5585 H   0  0  0  0  0  0  0  0  0  0  0  0
   57.8095   33.1502   43.1855 H   0  0  0  0  0  0  0  0  0  0  0  0
   59.6865   34.6782   43.7707 H   0  0  0  0  0  0  0  0  0  0  0  0
   60.3597   34.9868   46.1525 H   0  0  0  0  0  0  0  0  0  0  0  0
   59.0680   31.7440   48.9150 H   0  0  0  0  0  0  0  0  0  0  0  0
   58.2462   32.8204   51.5726 H   0  0  0  0  0  0  0  0  0  0  0  0
   59.3449   33.1143   53.7904 H   0  0  0  0  0  0  0  0  0  0  0  0
   61.8298   33.2444   53.9494 H   0  0  0  0  0  0  0  0  0  0  0  0
   63.2237   33.0869   51.8897 H   0  0  0  0  0  0  0  0  0  0  0  0
   62.5396   34.7789   49.0283 H   0  0  0  0  0  0  0  0  0  0  0  0
   64.0597   33.9294   49.4953 H   0  0  0  0  0  0  0  0  0  0  0  0
   63.7891   34.6431   47.0045 H   0  0  0  0  0  0  0  0  0  0  0  0
   64.3153   32.9537   47.3476 H   0  0  0  0  0  0  0  0  0  0  0  0
   61.5260   33.8170   46.8270 H   0  0  0  0  0  0  0  0  0  0  0  0
   60.8264   31.7309   47.0320 H   0  0  0  0  0  0  0  0  0  0  0  0
   62.4560   31.0883   46.4990 H   0  0  0  0  0  0  0  0  0  0  0  0
   61.5442   30.8104   49.0217 H   0  0  0  0  0  0  0  0  0  0  0  0
   63.2888   31.0135   48.6083 H   0  0  0  0  0  0  0  0  0  0  0  0
   57.2333   32.2481   47.3766 H   0  0  0  0  0  0  0  0  0  0  0  0
   57.5257   30.4380   47.1025 H   0  0  0  0  0  0  0  0  0  0  0  0
  1  2  3  0
  2  3  1  0
  3  4  2  0
  4  5  1  0
  5  6  2  0
  6  7  1  0
  7  8  1  0
  8  9  2  0
  8 10  2  0
  8 11  1  0
 11 12  1  0
 12 13  2  0
 13 14  1  0
 14 15  2  0
 15 16  1  0
 16 17  1  0
 17 18  2  0
 17 19  1  0
 19 20  1  0
 20 21  2  0
 21 22  1  0
 22 23  2  0
 23 24  1  0
 24 25  2  0
 25 26  1  0
 26 27  1  0
 27 28  1  0
 28 29  1  0
 29 30  1  0
 30 31  1  0
 16 32  2  0
  7 33  2  0
 33  3  1  0
 32 12  1  0
 25 20  1  0
 31 26  1  0
  4 34  1  0
  5 35  1  0
  6 36  1  0
 13 37  1  0
 14 38  1  0
 15 39  1  0
 19 40  1  0
 21 41  1  0
 22 42  1  0
 23 43  1  0
 24 44  1  0
 27 45  1  0
 27 46  1  0
 28 47  1  0
 28 48  1  0
 29 49  1  0
 30 50  1  0
 30 51  1  0
 31 52  1  0
 31 53  1  0
 32 54  1  0
 33 55  1  0
M  CHG  1  11  -1
M  END
>  <UniqueID>  (77) 
72

>  <SMILES>  (77) 
N#Cc1cccc(S(=O)(=O)[N-]c2cccc(C(=O)Nc3ccccc3N3CCNCC3)c2)c1

>  <Energy>  (77) 
77.89812151334135

>  <Genealogy>  (77) 
N#Cc1cccc(S(=O)(=O)[N-]c2cccc(C(=O)Nc3ccccc3N3CCNCC3)c2)c1 (protonated)
N#Cc1cccc(S(=O)(=O)[N-]c2cccc(C(=O)Nc3ccccc3N3CCNCC3)c2)c1 (3D coordinates assigned)
N#Cc1cccc(S(=O)(=O)[N-]c2cccc(C(=O)Nc3ccccc3N3CCNCC3)c2)c1 (nonaromatic ring conformer: 77.89812151334135 kcal/mol)

>  <smiles>  (77) 
N#Cc1cccc(S(=O)(=O)Nc2cccc(C(=O)Nc3ccccc3N3CCNCC3)c2)c1

>  <score_type>  (77) 
oracle

>  <origin>  (77) 
adg

>  <m_score__min__energy>  (77) 
-10.949999999999999

>  <m_primary>  (77) 
energy

$$$$
77:0
     RDKit          3D

 46 49  0  0  0  0  0  0  0  0999 V2000
   56.7845   21.4366   44.1799 H   0  0  0  0  0  0  0  0  0  0  0  0
   57.0640   22.4940   44.2970 C   0  0  0  0  0  0  0  0  0  0  0  0
   57.8180   22.9000   45.3990 C   0  0  0  0  0  0  0  0  0  0  0  0
   58.1329   22.1609   46.1504 H   0  0  0  0  0  0  0  0  0  0  0  0
   58.1750   24.2460   45.5510 C   0  0  0  0  0  0  0  0  0  0  0  0
   58.7697   24.5576   46.4223 H   0  0  0  0  0  0  0  0  0  0  0  0
   57.7790   25.2030   44.5980 C   0  0  0  0  0  0  0  0  0  0  0  0
   58.1500   26.6340   44.7610 C   0  0  0  0  0  0  0  0  0  0  0  0
   57.9240   27.6510   43.8420 C   0  0  0  0  0  0  0  0  0  0  0  0
   57.4487   27.5745   42.8529 H   0  0  0  0  0  0  0  0  0  0  0  0
   58.4350   28.7860   44.4570 C   0  0  0  0  0  0  0  0  0  0  0  0
   58.3930   30.0120   44.0140 N   0  0  0  0  0  0  0  0  0  0  0  0
   57.3830   31.0040   44.2500 C   0  0  0  0  0  0  0  0  0  0  0  0
   56.2760   30.7000   44.7740 O   0  0  0  0  0  0  0  0  0  0  0  0
   57.6600   32.4280   43.8800 C   0  0  0  0  0  0  0  0  0  0  0  0
   58.3797   32.4551   43.0485 H   0  0  0  0  0  0  0  0  0  0  0  0
   56.7202   32.9117   43.5753 H   0  0  0  0  0  0  0  0  0  0  0  0
   58.2350   33.1640   45.0620 C   0  0  0  0  0  0  0  0  0  0  0  0
   59.1180   34.2430   44.8730 C   0  0  0  0  0  0  0  0  0  0  0  0
   59.4077   34.5415   43.8547 H   0  0  0  0  0  0  0  0  0  0  0  0
   59.6300   34.9390   45.9760 C   0  0  0  0  0  0  0  0  0  0  0  0
   60.3196   35.7820   45.8214 H   0  0  0  0  0  0  0  0  0  0  0  0
   59.2660   34.5640   47.2730 C   0  0  0  0  0  0  0  0  0  0  0  0
   59.6749   35.1076   48.1374 H   0  0  0  0  0  0  0  0  0  0  0  0
   58.3830   33.4990   47.4720 C   0  0  0  0  0  0  0  0  0  0  0  0
   58.0944   33.2077   48.4927 H   0  0  0  0  0  0  0  0  0  0  0  0
   57.8650   32.8020   46.3720 C   0  0  0  0  0  0  0  0  0  0  0  0
   57.1659   31.9680   46.5325 H   0  0  0  0  0  0  0  0  0  0  0  0
   58.9270   28.4530   45.6690 N   0  0  0  0  0  0  0  0  0  0  0  0
   59.4980   29.3390   46.6560 C   0  0  0  0  0  0  0  0  0  0  0  0
   60.6620   30.0790   46.3740 C   0  0  0  0  0  0  0  0  0  0  0  0
   61.1520   29.9762   45.3945 H   0  0  0  0  0  0  0  0  0  0  0  0
   61.1990   30.9450   47.3340 C   0  0  0  0  0  0  0  0  0  0  0  0
   62.1050   31.5255   47.1057 H   0  0  0  0  0  0  0  0  0  0  0  0
   60.5830   31.0720   48.5840 C   0  0  0  0  0  0  0  0  0  0  0  0
   61.0030   31.7553   49.3367 H   0  0  0  0  0  0  0  0  0  0  0  0
   59.4340   30.3310   48.8770 C   0  0  0  0  0  0  0  0  0  0  0  0
   58.9552   30.4278   49.8626 H   0  0  0  0  0  0  0  0  0  0  0  0
   58.8920   29.4670   47.9200 C   0  0  0  0  0  0  0  0  0  0  0  0
   57.9887   28.8853   48.1560 H   0  0  0  0  0  0  0  0  0  0  0  0
   58.7510   27.1530   45.8520 N   0  0  0  0  0  0  0  0  0  0  0  0
   59.0260   26.6370   46.7180 H   0  0  0  0  0  0  0  0  0  0  0  0
   57.0180   24.7800   43.4910 C   0  0  0  0  0  0  0  0  0  0  0  0
   56.6983   25.5138   42.7364 H   0  0  0  0  0  0  0  0  0  0  0  0
   56.6650   23.4330   43.3430 C   0  0  0  0  0  0  0  0  0  0  0  0
   56.0720   23.1136   42.4733 H   0  0  0  0  0  0  0  0  0  0  0  0
  1  2  1  0
  2  3  2  0
  3  4  1  0
  3  5  1  0
  5  6  1  0
  5  7  2  0
  7  8  1  0
  8  9  2  0
  9 10  1  0
  9 11  1  0
 11 12  2  0
 12 13  1  0
 13 14  2  0
 13 15  1  0
 15 16  1  0
 15 17  1  0
 15 18  1  0
 18 19  2  0
 19 20  1  0
 19 21  1  0
 21 22  1  0
 21 23  2  0
 23 24  1  0
 23 25  1  0
 25 26  1  0
 25 27  2  0
 27 28  1  0
 11 29  1  0
 29 30  1  0
 30 31  2  0
 31 32  1  0
 31 33  1  0
 33 34  1  0
 33 35  2  0
 35 36  1  0
 35 37  1  0
 37 38  1  0
 37 39  2  0
 39 40  1  0
 29 41  1  0
 41 42  1  0
  7 43  1  0
 43 44  1  0
 43 45  2  0
 45 46  1  0
 45  2  1  0
 41  8  1  0
 27 18  1  0
 39 30  1  0
M  END
>  <UniqueID>  (78) 
73

>  <SMILES>  (78) 
O=C(Cc1ccccc1)/N=c1/cc(-c2ccccc2)[nH]n1-c1ccccc1

>  <Energy>  (78) 
92.3345942812719

>  <Genealogy>  (78) 
O=C(Cc1ccccc1)/N=c1/cc(-c2ccccc2)[nH]n1-c1ccccc1 (cis-trans isomerization)
O=C(Cc1ccccc1)/N=c1/cc(-c2ccccc2)[nH]n1-c1ccccc1 (3D coordinates assigned)
O=C(Cc1ccccc1)/N=c1/cc(-c2ccccc2)[nH]n1-c1ccccc1 (optimized conformer: 92.3345942812719 kcal/mol)

>  <smiles>  (78) 
O=C(Cc1ccccc1)N=c1cc(-c2ccccc2)[nH]n1-c1ccccc1

>  <score_type>  (78) 
oracle

>  <origin>  (78) 
adg

>  <m_score__min__energy>  (78) 
-8.4199999999999999

>  <m_primary>  (78) 
energy

$$$$
78:0
     RDKit          3D

 55 58  0  0  0  0  0  0  0  0999 V2000
   55.0850   22.2430   43.0960 H   0  0  0  0  0  0  0  0  0  0  0  0
   55.8790   22.2250   43.7270 O   0  0  0  0  0  0  0  0  0  0  0  0
   56.2140   23.3330   44.5050 C   0  0  0  0  0  0  0  0  0  0  0  0
   57.5230   23.5030   44.9790 C   0  0  0  0  0  0  0  0  0  0  0  0
   58.2948   22.7574   44.7375 H   0  0  0  0  0  0  0  0  0  0  0  0
   57.8500   24.6180   45.7580 C   0  0  0  0  0  0  0  0  0  0  0  0
   58.8793   24.7465   46.1240 H   0  0  0  0  0  0  0  0  0  0  0  0
   56.8700   25.5760   46.0760 C   0  0  0  0  0  0  0  0  0  0  0  0
   57.1810   26.7230   46.9620 C   0  0  0  0  0  0  0  0  0  0  0  0
   56.4557   26.9742   47.7500 H   0  0  0  0  0  0  0  0  0  0  0  0
   58.2550   27.4530   46.8700 N   0  0  0  0  0  0  0  0  0  0  0  0
   58.3700   28.7550   46.2710 C   0  0  0  0  0  0  0  0  0  0  0  0
   58.1740   28.8640   44.8890 C   0  0  0  0  0  0  0  0  0  0  0  0
   57.9960   27.9593   44.2891 H   0  0  0  0  0  0  0  0  0  0  0  0
   58.2030   30.1130   44.2680 C   0  0  0  0  0  0  0  0  0  0  0  0
   58.0319   30.1903   43.1841 H   0  0  0  0  0  0  0  0  0  0  0  0
   58.4480   31.2630   45.0160 C   0  0  0  0  0  0  0  0  0  0  0  0
   58.4595   32.2468   44.5240 H   0  0  0  0  0  0  0  0  0  0  0  0
   58.6790   31.1670   46.3900 C   0  0  0  0  0  0  0  0  0  0  0  0
   58.8680   32.0784   46.9762 H   0  0  0  0  0  0  0  0  0  0  0  0
   58.6720   29.9160   47.0300 C   0  0  0  0  0  0  0  0  0  0  0  0
   59.0280   29.8520   48.4700 C   0  0  0  0  0  0  0  0  0  0  0  0
   59.8930   29.0250   48.8560 O   0  0  0  0  0  0  0  0  0  0  0  0
   58.4290   30.7280   49.4350 N   0  0  0  0  0  0  0  0  0  0  0  0
   58.1450   30.3970   50.8010 C   0  0  0  0  0  0  0  0  0  0  0  0
   59.1560   29.8340   51.5870 C   0  0  0  0  0  0  0  0  0  0  0  0
   60.1581   29.6768   51.1614 H   0  0  0  0  0  0  0  0  0  0  0  0
   58.8970   29.4710   52.9100 C   0  0  0  0  0  0  0  0  0  0  0  0
   59.7008   29.0454   53.5286 H   0  0  0  0  0  0  0  0  0  0  0  0
   57.6220   29.6460   53.4510 C   0  0  0  0  0  0  0  0  0  0  0  0
   57.4260   29.3562   54.4939 H   0  0  0  0  0  0  0  0  0  0  0  0
   56.5860   30.1910   52.6700 C   0  0  0  0  0  0  0  0  0  0  0  0
   55.2140   30.3180   53.2180 C   0  0  0  0  0  0  0  0  0  0  0  0
   55.0360   30.6730   54.4150 O   0  0  0  0  0  0  0  0  0  0  0  0
   54.0750   30.0030   52.4110 N   0  0  0  0  0  0  0  0  0  0  0  0
   52.9370   30.9100   52.3020 C   0  0  0  0  0  0  0  0  0  0  0  0
   52.1782   30.6328   53.0486 H   0  0  0  0  0  0  0  0  0  0  0  0
   53.2796   31.9399   52.4805 H   0  0  0  0  0  0  0  0  0  0  0  0
   52.3340   30.8230   50.9220 C   0  0  0  0  0  0  0  0  0  0  0  0
   52.6380   29.7230   50.1000 C   0  0  0  0  0  0  0  0  0  0  0  0
   53.3834   28.9837   50.4283 H   0  0  0  0  0  0  0  0  0  0  0  0
   51.9980   29.5650   48.8690 C   0  0  0  0  0  0  0  0  0  0  0  0
   52.2385   28.7004   48.2328 H   0  0  0  0  0  0  0  0  0  0  0  0
   51.0530   30.5020   48.4430 C   0  0  0  0  0  0  0  0  0  0  0  0
   50.5536   30.3761   47.4710 H   0  0  0  0  0  0  0  0  0  0  0  0
   50.7420   31.5990   49.2510 C   0  0  0  0  0  0  0  0  0  0  0  0
   50.0010   32.3378   48.9117 H   0  0  0  0  0  0  0  0  0  0  0  0
   51.3710   31.7600   50.4910 C   0  0  0  0  0  0  0  0  0  0  0  0
   51.0210   32.8420   51.2950 O   0  0  0  0  0  0  0  0  0  0  0  0
   56.8630   30.5720   51.3460 C   0  0  0  0  0  0  0  0  0  0  0  0
   56.0658   31.0126   50.7292 H   0  0  0  0  0  0  0  0  0  0  0  0
   55.5550   25.3940   45.6070 C   0  0  0  0  0  0  0  0  0  0  0  0
   54.5650   26.3250   45.9040 O   0  0  0  0  0  0  0  0  0  0  0  0
   55.2360   24.2820   44.8180 C   0  0  0  0  0  0  0  0  0  0  0  0
   54.2101   24.1543   44.4423 H   0  0  0  0  0  0  0  0  0  0  0  0
  1  2  1  0
  2  3  1  0
  3  4  2  0
  4  5  1  0
  4  6  1  0
  6  7  1  0
  6  8  2  0
  8  9  1  0
  9 10  1  0
  9 11  2  0
 11 12  1  0
 12 13  2  0
 13 14  1  0
 13 15  1  0
 15 16  1  0
 15 17  2  0
 17 18  1  0
 17 19  1  0
 19 20  1  0
 19 21  2  0
 21 22  1  0
 22 23  2  0
 22 24  1  0
 24 25  1  0
 25 26  2  0
 26 27  1  0
 26 28  1  0
 28 29  1  0
 28 30  2  0
 30 31  1  0
 30 32  1  0
 32 33  1  0
 33 34  2  0
 33 35  1  0
 35 36  1  0
 36 37  1  0
 36 38  1  0
 36 39  1  0
 39 40  2  0
 40 41  1  0
 40 42  1  0
 42 43  1  0
 42 44  2  0
 44 45  1  0
 44 46  1  0
 46 47  1  0
 46 48  2  0
 48 49  1  0
 32 50  2  0
 50 51  1  0
  8 52  1  0
 52 53  1  0
 52 54  2  0
 54 55  1  0
 54  3  1  0
 21 12  1  0
 50 25  1  0
 48 39  1  0
M  CHG  4  24  -1  35  -1  49  -1  53  -1
M  END
>  <UniqueID>  (79) 
74

>  <SMILES>  (79) 
O=C([N-]Cc1ccccc1[O-])c1cccc([N-]C(=O)c2ccccc2/N=C\c2ccc(O)cc2[O-])c1

>  <Energy>  (79) 
83.80043863918695

>  <Genealogy>  (79) 
O=C([N-]Cc1ccccc1[O-])c1cccc([N-]C(=O)c2ccccc2N=Cc2ccc(O)cc2[O-])c1 (protonated)
O=C([N-]Cc1ccccc1[O-])c1cccc([N-]C(=O)c2ccccc2/N=C\c2ccc(O)cc2[O-])c1 (cis-trans isomerization)
O=C([N-]Cc1ccccc1[O-])c1cccc([N-]C(=O)c2ccccc2/N=C\c2ccc(O)cc2[O-])c1 (3D coordinates assigned)
O=C([N-]Cc1ccccc1[O-])c1cccc([N-]C(=O)c2ccccc2/N=C\c2ccc(O)cc2[O-])c1 (optimized conformer: 83.80043863918695 kcal/mol)

>  <smiles>  (79) 
O=C(NCc1ccccc1O)c1cccc(NC(=O)c2ccccc2N=Cc2ccc(O)cc2O)c1

>  <score_type>  (79) 
oracle

>  <origin>  (79) 
adg

>  <m_score__min__energy>  (79) 
-18.969999999999999

>  <m_primary>  (79) 
energy

$$$$
79:0
     RDKit          3D

 39 41  0  0  0  0  0  0  0  0999 V2000
   60.4640   30.4370   49.9600 O   0  0  0  0  0  0  0  0  0  0  0  0
   59.3250   30.8850   49.6670 C   0  0  0  0  0  0  0  0  0  0  0  0
   58.9010   30.8390   48.2980 N   0  0  0  0  0  0  0  0  0  0  0  0
   58.7500   31.9760   47.4360 C   0  0  0  0  0  0  0  0  0  0  0  0
   59.4140   33.1650   47.7650 C   0  0  0  0  0  0  0  0  0  0  0  0
   59.2810   34.2960   46.9530 C   0  0  0  0  0  0  0  0  0  0  0  0
   58.4980   34.2400   45.7980 C   0  0  0  0  0  0  0  0  0  0  0  0
   57.8590   33.0480   45.4440 C   0  0  0  0  0  0  0  0  0  0  0  0
   57.9930   31.9120   46.2490 C   0  0  0  0  0  0  0  0  0  0  0  0
   57.4000   30.7210   45.8470 O   0  0  0  0  0  0  0  0  0  0  0  0
   58.4880   31.5110   50.7220 C   0  0  0  0  0  0  0  0  0  0  0  0
   58.6030   32.8880   50.9780 C   0  0  0  0  0  0  0  0  0  0  0  0
   57.8630   33.4830   51.9990 C   0  0  0  0  0  0  0  0  0  0  0  0
   57.0080   32.7130   52.7860 C   0  0  0  0  0  0  0  0  0  0  0  0
   56.8680   31.3380   52.5490 C   0  0  0  0  0  0  0  0  0  0  0  0
   55.9480   30.5290   53.4310 C   0  0  0  0  0  0  0  0  0  0  0  0
   54.9320   29.3590   52.4600 S   0  0  0  0  0  0  0  0  0  0  0  0
   53.5110   30.4480   52.3200 C   0  0  0  0  0  0  0  0  0  0  0  0
   53.2430   31.0940   51.1070 C   0  0  0  0  0  0  0  0  0  0  0  0
   52.1570   31.9690   51.0050 C   0  0  0  0  0  0  0  0  0  0  0  0
   51.3300   32.1900   52.1100 C   0  0  0  0  0  0  0  0  0  0  0  0
   50.2450   33.0520   52.0040 O   0  0  0  0  0  0  0  0  0  0  0  0
   51.5960   31.5450   53.3240 C   0  0  0  0  0  0  0  0  0  0  0  0
   52.6900   30.6800   53.4300 C   0  0  0  0  0  0  0  0  0  0  0  0
   57.6090   30.7350   51.5090 C   0  0  0  0  0  0  0  0  0  0  0  0
   57.4640   29.3750   51.2510 O   0  0  0  0  0  0  0  0  0  0  0  0
   60.0430   33.2092   48.6663 H   0  0  0  0  0  0  0  0  0  0  0  0
   59.7937   35.2306   47.2244 H   0  0  0  0  0  0  0  0  0  0  0  0
   58.3840   35.1337   45.1668 H   0  0  0  0  0  0  0  0  0  0  0  0
   57.2490   33.0034   44.5297 H   0  0  0  0  0  0  0  0  0  0  0  0
   59.2824   33.5014   50.3679 H   0  0  0  0  0  0  0  0  0  0  0  0
   57.9542   34.5635   52.1841 H   0  0  0  0  0  0  0  0  0  0  0  0
   56.4389   33.1875   53.5990 H   0  0  0  0  0  0  0  0  0  0  0  0
   56.5543   29.9608   54.1518 H   0  0  0  0  0  0  0  0  0  0  0  0
   55.2696   31.2246   53.9467 H   0  0  0  0  0  0  0  0  0  0  0  0
   53.8871   30.9131   50.2338 H   0  0  0  0  0  0  0  0  0  0  0  0
   51.9534   32.4838   50.0545 H   0  0  0  0  0  0  0  0  0  0  0  0
   50.9451   31.7184   54.1936 H   0  0  0  0  0  0  0  0  0  0  0  0
   52.9055   30.1815   54.3866 H   0  0  0  0  0  0  0  0  0  0  0  0
  1  2  2  0
  2  3  1  0
  3  4  1  0
  4  5  2  0
  5  6  1  0
  6  7  2  0
  7  8  1  0
  8  9  2  0
  9 10  1  0
  2 11  1  0
 11 12  2  0
 12 13  1  0
 13 14  2  0
 14 15  1  0
 15 16  1  0
 16 17  1  0
 17 18  1  0
 18 19  2  0
 19 20  1  0
 20 21  2  0
 21 22  1  0
 21 23  1  0
 23 24  2  0
 15 25  2  0
 25 26  1  0
  9  4  1  0
 25 11  1  0
 24 18  1  0
  5 27  1  0
  6 28  1  0
  7 29  1  0
  8 30  1  0
 12 31  1  0
 13 32  1  0
 14 33  1  0
 16 34  1  0
 16 35  1  0
 19 36  1  0
 20 37  1  0
 23 38  1  0
 24 39  1  0
M  CHG  4   3  -1  10  -1  22  -1  26  -1
M  END
>  <UniqueID>  (80) 
75

>  <SMILES>  (80) 
O=C([N-]c1ccccc1[O-])c1cccc(CSc2ccc([O-])cc2)c1[O-]

>  <Energy>  (80) 
46.85561846931372

>  <Genealogy>  (80) 
O=C([N-]c1ccccc1[O-])c1cccc(CSc2ccc([O-])cc2)c1[O-] (protonated)
O=C([N-]c1ccccc1[O-])c1cccc(CSc2ccc([O-])cc2)c1[O-] (3D coordinates assigned)
O=C([N-]c1ccccc1[O-])c1cccc(CSc2ccc([O-])cc2)c1[O-] (optimized conformer: 46.85561846931372 kcal/mol)

>  <smiles>  (80) 
O=C(Nc1ccccc1O)c1cccc(CSc2ccc(O)cc2)c1O

>  <score_type>  (80) 
oracle

>  <origin>  (80) 
adg

>  <m_score__min__energy>  (80) 
-17.27

>  <m_primary>  (80) 
energy

$$$$
80:0
     RDKit          3D

 37 40  0  0  0  0  0  0  0  0999 V2000
   59.6880   27.8910   47.2980 O   0  0  0  0  0  0  0  0  0  0  0  0
   58.7010   28.3600   46.6680 C   0  0  0  0  0  0  0  0  0  0  0  0
   57.5760   27.6590   46.4020 N   0  0  0  0  0  0  0  0  0  0  0  0
   57.2440   26.3020   46.8300 C   0  0  0  0  0  0  0  0  0  0  0  0
   56.8580   25.4680   45.6390 C   0  0  0  0  0  0  0  0  0  0  0  0
   57.6740   25.4450   44.4960 C   0  0  0  0  0  0  0  0  0  0  0  0
   57.3350   24.6380   43.4050 C   0  0  0  0  0  0  0  0  0  0  0  0
   56.1870   23.8430   43.4510 C   0  0  0  0  0  0  0  0  0  0  0  0
   55.3780   23.8500   44.5910 C   0  0  0  0  0  0  0  0  0  0  0  0
   55.7130   24.6560   45.6840 C   0  0  0  0  0  0  0  0  0  0  0  0
   56.7930   28.5210   45.7210 C   0  0  0  0  0  0  0  0  0  0  0  0
   55.5230   28.2260   45.2400 O   0  0  0  0  0  0  0  0  0  0  0  0
   57.4560   29.7230   45.5810 C   0  0  0  0  0  0  0  0  0  0  0  0
   58.6540   29.6180   46.1810 N   0  0  0  0  0  0  0  0  0  0  0  0
   59.6970   30.6390   46.1970 C   0  0  0  0  0  0  0  0  0  0  0  0
   59.1480   31.9930   45.8020 C   0  0  0  0  0  0  0  0  0  0  0  0
   59.9330   33.1330   46.0340 C   0  0  0  0  0  0  0  0  0  0  0  0
   59.4760   34.3970   45.6580 C   0  0  0  0  0  0  0  0  0  0  0  0
   58.2340   34.5360   45.0370 C   0  0  0  0  0  0  0  0  0  0  0  0
   57.4450   33.4110   44.7870 C   0  0  0  0  0  0  0  0  0  0  0  0
   57.8840   32.1320   45.1680 C   0  0  0  0  0  0  0  0  0  0  0  0
   57.0080   30.9430   44.8470 C   0  0  0  0  0  0  0  0  0  0  0  0
   58.1180   25.8512   47.3228 H   0  0  0  0  0  0  0  0  0  0  0  0
   56.3989   26.3412   47.5331 H   0  0  0  0  0  0  0  0  0  0  0  0
   58.5827   26.0637   44.4587 H   0  0  0  0  0  0  0  0  0  0  0  0
   57.9734   24.6293   42.5092 H   0  0  0  0  0  0  0  0  0  0  0  0
   55.9199   23.2119   42.5906 H   0  0  0  0  0  0  0  0  0  0  0  0
   54.4766   23.2207   44.6286 H   0  0  0  0  0  0  0  0  0  0  0  0
   55.0775   24.6539   46.5818 H   0  0  0  0  0  0  0  0  0  0  0  0
   60.1180   30.7051   47.2111 H   0  0  0  0  0  0  0  0  0  0  0  0
   60.4727   30.3539   45.4711 H   0  0  0  0  0  0  0  0  0  0  0  0
   60.9163   33.0295   46.5160 H   0  0  0  0  0  0  0  0  0  0  0  0
   60.0957   35.2850   45.8514 H   0  0  0  0  0  0  0  0  0  0  0  0
   57.8757   35.5338   44.7438 H   0  0  0  0  0  0  0  0  0  0  0  0
   56.4718   33.5273   44.2877 H   0  0  0  0  0  0  0  0  0  0  0  0
   55.9717   31.1737   45.1350 H   0  0  0  0  0  0  0  0  0  0  0  0
   57.0776   30.7429   43.7676 H   0  0  0  0  0  0  0  0  0  0  0  0
  1  2  2  0
  2  3  1  0
  3  4  1  0
  4  5  1  0
  5  6  2  0
  6  7  1  0
  7  8  2  0
  8  9  1  0
  9 10  2  0
  3 11  1  0
 11 12  1  0
 11 13  2  0
 13 14  1  0
 14 15  1  0
 15 16  1  0
 16 17  2  0
 17 18  1  0
 18 19  2  0
 19 20  1  0
 20 21  2  0
 21 22  1  0
 14  2  1  0
 21 16  1  0
 10  5  1  0
 22 13  1  0
  4 23  1  0
  4 24  1  0
  6 25  1  0
  7 26  1  0
  8 27  1  0
  9 28  1  0
 10 29  1  0
 15 30  1  0
 15 31  1  0
 17 32  1  0
 18 33  1  0
 19 34  1  0
 20 35  1  0
 22 36  1  0
 22 37  1  0
M  CHG  1  12  -1
M  END
>  <UniqueID>  (81) 
76

>  <SMILES>  (81) 
O=c1n(Cc2ccccc2)c([O-])c2n1Cc1ccccc1C2

>  <Energy>  (81) 
78.1397107491338

>  <Genealogy>  (81) 
O=c1n(Cc2ccccc2)c([O-])c2n1Cc1ccccc1C2 (protonated)
O=c1n(Cc2ccccc2)c([O-])c2n1Cc1ccccc1C2 (3D coordinates assigned)
O=c1n(Cc2ccccc2)c([O-])c2n1Cc1ccccc1C2 (nonaromatic ring conformer: 78.1397107491338 kcal/mol)

>  <smiles>  (81) 
O=c1n(Cc2ccccc2)c(O)c2n1Cc1ccccc1C2

>  <score_type>  (81) 
oracle

>  <origin>  (81) 
adg

>  <m_score__min__energy>  (81) 
-10.41

>  <m_primary>  (81) 
energy

$$$$
81:0
     RDKit          3D

 41 43  0  0  0  0  0  0  0  0999 V2000
   55.1460   29.3530   44.8830 O   0  0  0  0  0  0  0  0  0  0  0  0
   56.4330   29.9360   44.3680 S   0  0  0  0  0  0  0  0  0  0  0  0
   56.4450   29.8420   42.8680 O   0  0  0  0  0  0  0  0  0  0  0  0
   56.5290   31.6030   44.8350 N   0  0  0  0  0  0  0  0  0  0  0  0
   57.6690   32.2260   45.4420 C   0  0  0  0  0  0  0  0  0  0  0  0
   58.3160   33.3310   44.8630 C   0  0  0  0  0  0  0  0  0  0  0  0
   59.4220   33.9100   45.4900 C   0  0  0  0  0  0  0  0  0  0  0  0
   59.9090   33.3900   46.7030 C   0  0  0  0  0  0  0  0  0  0  0  0
   61.0560   33.9500   47.3670 N   0  0  0  0  0  0  0  0  0  0  0  0
   62.6230   33.2030   47.3810 S   0  0  0  0  0  0  0  0  0  0  0  0
   62.4720   31.7370   47.0840 O   0  0  0  0  0  0  0  0  0  0  0  0
   63.4810   33.8320   46.3200 O   0  0  0  0  0  0  0  0  0  0  0  0
   63.3930   33.4470   48.9450 C   0  0  0  0  0  0  0  0  0  0  0  0
   64.6390   32.8590   49.2110 C   0  0  0  0  0  0  0  0  0  0  0  0
   65.2660   33.0660   50.4420 C   0  0  0  0  0  0  0  0  0  0  0  0
   64.6480   33.8540   51.4190 C   0  0  0  0  0  0  0  0  0  0  0  0
   65.2560   34.0500   52.6150 F   0  0  0  0  0  0  0  0  0  0  0  0
   63.4030   34.4370   51.1610 C   0  0  0  0  0  0  0  0  0  0  0  0
   62.7760   34.2360   49.9270 C   0  0  0  0  0  0  0  0  0  0  0  0
   59.2530   32.2920   47.2810 C   0  0  0  0  0  0  0  0  0  0  0  0
   58.1460   31.7140   46.6530 C   0  0  0  0  0  0  0  0  0  0  0  0
   57.8200   29.0570   45.0040 C   0  0  0  0  0  0  0  0  0  0  0  0
   59.1130   29.3260   44.5330 C   0  0  0  0  0  0  0  0  0  0  0  0
   60.2060   28.6120   45.0340 C   0  0  0  0  0  0  0  0  0  0  0  0
   60.0100   27.6290   46.0100 C   0  0  0  0  0  0  0  0  0  0  0  0
   58.7230   27.3610   46.4850 C   0  0  0  0  0  0  0  0  0  0  0  0
   57.6300   28.0730   45.9830 C   0  0  0  0  0  0  0  0  0  0  0  0
   57.9496   33.7423   43.9109 H   0  0  0  0  0  0  0  0  0  0  0  0
   59.9160   34.7794   45.0316 H   0  0  0  0  0  0  0  0  0  0  0  0
   60.9360   34.8060   47.9510 H   0  0  0  0  0  0  0  0  0  0  0  0
   65.1237   32.2329   48.4475 H   0  0  0  0  0  0  0  0  0  0  0  0
   66.2462   32.6092   50.6433 H   0  0  0  0  0  0  0  0  0  0  0  0
   62.9161   35.0547   51.9300 H   0  0  0  0  0  0  0  0  0  0  0  0
   61.7978   34.6973   49.7263 H   0  0  0  0  0  0  0  0  0  0  0  0
   59.6131   31.8828   48.2364 H   0  0  0  0  0  0  0  0  0  0  0  0
   57.6461   30.8498   47.1148 H   0  0  0  0  0  0  0  0  0  0  0  0
   59.2680   30.1006   43.7675 H   0  0  0  0  0  0  0  0  0  0  0  0
   61.2191   28.8231   44.6610 H   0  0  0  0  0  0  0  0  0  0  0  0
   60.8694   27.0666   46.4039 H   0  0  0  0  0  0  0  0  0  0  0  0
   58.5703   26.5895   47.2541 H   0  0  0  0  0  0  0  0  0  0  0  0
   56.6179   27.8602   46.3576 H   0  0  0  0  0  0  0  0  0  0  0  0
  1  2  2  0
  2  3  2  0
  2  4  1  0
  4  5  1  0
  5  6  2  0
  6  7  1  0
  7  8  2  0
  8  9  1  0
  9 10  1  0
 10 11  2  0
 10 12  2  0
 10 13  1  0
 13 14  2  0
 14 15  1  0
 15 16  2  0
 16 17  1  0
 16 18  1  0
 18 19  2  0
  8 20  1  0
 20 21  2  0
  2 22  1  0
 22 23  2  0
 23 24  1  0
 24 25  2  0
 25 26  1  0
 26 27  2  0
 21  5  1  0
 27 22  1  0
 19 13  1  0
  6 28  1  0
  7 29  1  0
  9 30  1  0
 14 31  1  0
 15 32  1  0
 18 33  1  0
 19 34  1  0
 20 35  1  0
 21 36  1  0
 23 37  1  0
 24 38  1  0
 25 39  1  0
 26 40  1  0
 27 41  1  0
M  CHG  1   4  -1
M  END
>  <UniqueID>  (82) 
77

>  <SMILES>  (82) 
O=S(=O)([N-]c1ccc(NS(=O)(=O)c2ccc(F)cc2)cc1)c1ccccc1

>  <Energy>  (82) 
49.45651225683895

>  <Genealogy>  (82) 
O=S(=O)([N-]c1ccc(NS(=O)(=O)c2ccc(F)cc2)cc1)c1ccccc1 (protonated)
O=S(=O)([N-]c1ccc(NS(=O)(=O)c2ccc(F)cc2)cc1)c1ccccc1 (3D coordinates assigned)
O=S(=O)([N-]c1ccc(NS(=O)(=O)c2ccc(F)cc2)cc1)c1ccccc1 (optimized conformer: 49.45651225683895 kcal/mol)

>  <smiles>  (82) 
O=S(=O)(Nc1ccc(NS(=O)(=O)c2ccc(F)cc2)cc1)c1ccccc1

>  <score_type>  (82) 
oracle

>  <origin>  (82) 
adg

>  <m_score__min__energy>  (82) 
-11.140000000000001

>  <m_primary>  (82) 
energy

$$$$
82:0
     RDKit          3D

 37 39  0  0  0  0  0  0  0  0999 V2000
   56.4600   29.5410   43.1820 O   0  0  0  0  0  0  0  0  0  0  0  0
   56.6250   29.5430   44.4320 C   0  0  0  0  0  0  0  0  0  0  0  0
   55.8850   28.6020   45.2260 N   0  0  0  0  0  0  0  0  0  0  0  0
   56.3140   27.4390   45.6190 C   0  0  0  0  0  0  0  0  0  0  0  0
   55.5160   26.4410   46.0610 N   0  0  0  0  0  0  0  0  0  0  0  0
   56.2390   25.3500   46.4270 C   0  0  0  0  0  0  0  0  0  0  0  0
   57.6160   25.4820   46.2880 C   0  0  0  0  0  0  0  0  0  0  0  0
   57.9370   27.0210   45.6840 S   0  0  0  0  0  0  0  0  0  0  0  0
   57.5390   30.5360   45.0380 C   0  0  0  0  0  0  0  0  0  0  0  0
   57.3460   31.9100   44.8200 C   0  0  0  0  0  0  0  0  0  0  0  0
   58.1800   32.8460   45.4360 C   0  0  0  0  0  0  0  0  0  0  0  0
   59.2160   32.4210   46.2770 C   0  0  0  0  0  0  0  0  0  0  0  0
   60.2020   33.6040   47.1340 S   0  0  0  0  0  0  0  0  0  0  0  0
   61.0580   34.3380   46.1400 O   0  0  0  0  0  0  0  0  0  0  0  0
   59.3030   34.6110   47.7970 O   0  0  0  0  0  0  0  0  0  0  0  0
   61.2310   32.8590   48.3430 N   0  0  0  0  0  0  0  0  0  0  0  0
   61.8140   33.8420   49.2820 C   0  0  0  0  0  0  0  0  0  0  0  0
   63.2830   34.1700   48.9730 C   0  0  0  0  0  0  0  0  0  0  0  0
   63.5400   34.0340   47.5960 O   0  0  0  0  0  0  0  0  0  0  0  0
   63.4920   32.6680   47.2370 C   0  0  0  0  0  0  0  0  0  0  0  0
   62.2260   31.9430   47.7540 C   0  0  0  0  0  0  0  0  0  0  0  0
   59.4420   31.0510   46.4580 C   0  0  0  0  0  0  0  0  0  0  0  0
   58.6120   30.1130   45.8370 C   0  0  0  0  0  0  0  0  0  0  0  0
   55.7692   24.4301   46.8054 H   0  0  0  0  0  0  0  0  0  0  0  0
   58.3657   24.7145   46.5304 H   0  0  0  0  0  0  0  0  0  0  0  0
   56.5340   32.2507   44.1608 H   0  0  0  0  0  0  0  0  0  0  0  0
   58.0225   33.9203   45.2600 H   0  0  0  0  0  0  0  0  0  0  0  0
   61.2280   34.7712   49.2251 H   0  0  0  0  0  0  0  0  0  0  0  0
   61.7810   33.3963   50.2871 H   0  0  0  0  0  0  0  0  0  0  0  0
   63.4951   35.2047   49.2802 H   0  0  0  0  0  0  0  0  0  0  0  0
   63.9273   33.4703   49.5256 H   0  0  0  0  0  0  0  0  0  0  0  0
   63.5128   32.5945   46.1397 H   0  0  0  0  0  0  0  0  0  0  0  0
   64.3604   32.1784   47.7018 H   0  0  0  0  0  0  0  0  0  0  0  0
   61.7578   31.4134   46.9112 H   0  0  0  0  0  0  0  0  0  0  0  0
   62.5461   31.2535   48.5490 H   0  0  0  0  0  0  0  0  0  0  0  0
   60.2753   30.7117   47.0909 H   0  0  0  0  0  0  0  0  0  0  0  0
   58.8010   29.0382   45.9754 H   0  0  0  0  0  0  0  0  0  0  0  0
  1  2  2  0
  2  3  1  0
  3  4  2  3
  4  5  1  0
  5  6  1  0
  6  7  2  0
  7  8  1  0
  2  9  1  0
  9 10  2  0
 10 11  1  0
 11 12  2  0
 12 13  1  0
 13 14  2  0
 13 15  2  0
 13 16  1  0
 16 17  1  0
 17 18  1  0
 18 19  1  0
 19 20  1  0
 20 21  1  0
 12 22  1  0
 22 23  2  0
  8  4  1  0
 23  9  1  0
 21 16  1  0
  6 24  1  0
  7 25  1  0
 10 26  1  0
 11 27  1  0
 17 28  1  0
 17 29  1  0
 18 30  1  0
 18 31  1  0
 20 32  1  0
 20 33  1  0
 21 34  1  0
 21 35  1  0
 22 36  1  0
 23 37  1  0
M  CHG  1   5  -1
M  END
>  <UniqueID>  (83) 
78

>  <SMILES>  (83) 
O=C(N=c1[n-]ccs1)c1ccc(S(=O)(=O)N2CCOCC2)cc1

>  <Energy>  (83) 
85.66043825324685

>  <Genealogy>  (83) 
O=C(N=c1[n-]ccs1)c1ccc(S(=O)(=O)N2CCOCC2)cc1 (protonated)
O=C(N=c1[n-]ccs1)c1ccc(S(=O)(=O)N2CCOCC2)cc1 (3D coordinates assigned)
O=C(N=c1[n-]ccs1)c1ccc(S(=O)(=O)N2CCOCC2)cc1 (nonaromatic ring conformer: 85.66043825324685 kcal/mol)

>  <smiles>  (83) 
O=C(N=c1[nH]ccs1)c1ccc(S(=O)(=O)N2CCOCC2)cc1

>  <score_type>  (83) 
oracle

>  <origin>  (83) 
adg

>  <m_score__min__energy>  (83) 
-9.6699999999999999

>  <m_primary>  (83) 
energy

$$$$
83:0
     RDKit          3D

 60 63  0  0  0  0  0  0  0  0999 V2000
   50.6250   22.2850   44.1670 C   0  0  0  0  0  0  0  0  0  0  0  0
   51.2340   22.8580   45.3800 N   0  0  0  0  0  0  0  0  0  0  0  0
   51.8290   24.1910   45.1110 C   0  0  0  0  0  0  0  0  0  0  0  0
   53.2620   24.0980   44.5660 C   0  0  0  0  0  0  0  0  0  0  0  0
   54.0790   23.2220   45.4080 N   0  0  0  0  0  0  0  0  0  0  0  0
   55.4580   23.0020   45.0770 C   0  0  0  0  0  0  0  0  0  0  0  0
   55.7990   22.6660   43.7590 C   0  0  0  0  0  0  0  0  0  0  0  0
   57.1290   22.4160   43.4140 C   0  0  0  0  0  0  0  0  0  0  0  0
   58.1280   22.4940   44.3840 C   0  0  0  0  0  0  0  0  0  0  0  0
   57.8030   22.8350   45.6990 C   0  0  0  0  0  0  0  0  0  0  0  0
   56.4720   23.1100   46.0570 C   0  0  0  0  0  0  0  0  0  0  0  0
   56.1580   23.4880   47.4800 C   0  0  0  0  0  0  0  0  0  0  0  0
   56.5870   24.8580   47.7250 N   0  0  0  0  0  0  0  0  0  0  0  0
   57.1830   25.7450   46.7660 C   0  0  0  0  0  0  0  0  0  0  0  0
   58.4350   25.7380   46.6490 O   0  0  0  0  0  0  0  0  0  0  0  0
   56.3950   26.6490   45.9000 C   0  0  0  0  0  0  0  0  0  0  0  0
   55.1410   26.7040   45.9940 O   0  0  0  0  0  0  0  0  0  0  0  0
   57.0850   27.5060   44.9810 N   0  0  0  0  0  0  0  0  0  0  0  0
   57.3200   28.9120   45.1510 C   0  0  0  0  0  0  0  0  0  0  0  0
   56.7300   29.8080   44.2530 C   0  0  0  0  0  0  0  0  0  0  0  0
   56.9200   31.1860   44.3960 C   0  0  0  0  0  0  0  0  0  0  0  0
   57.6890   31.6840   45.4560 C   0  0  0  0  0  0  0  0  0  0  0  0
   57.9510   33.4150   45.6470 S   0  0  0  0  0  0  0  0  0  0  0  0
   57.2110   34.1880   44.5910 O   0  0  0  0  0  0  0  0  0  0  0  0
   57.4480   33.8400   46.9970 O   0  0  0  0  0  0  0  0  0  0  0  0
   59.6470   33.7670   45.5300 N   0  0  0  0  0  0  0  0  0  0  0  0
   60.4480   33.7860   46.5510 C   0  0  0  0  0  0  0  0  0  0  0  0
   61.7590   33.4750   46.3740 N   0  0  0  0  0  0  0  0  0  0  0  0
   62.6290   33.4840   47.4190 C   0  0  0  0  0  0  0  0  0  0  0  0
   62.1790   33.8190   48.6960 C   0  0  0  0  0  0  0  0  0  0  0  0
   60.8320   34.1370   48.8620 C   0  0  0  0  0  0  0  0  0  0  0  0
   59.9950   34.1160   47.7930 N   0  0  0  0  0  0  0  0  0  0  0  0
   58.2570   30.7930   46.3750 C   0  0  0  0  0  0  0  0  0  0  0  0
   58.0690   29.4140   46.2300 C   0  0  0  0  0  0  0  0  0  0  0  0
   53.4610   22.5020   46.5220 C   0  0  0  0  0  0  0  0  0  0  0  0
   52.1450   21.8810   46.0410 C   0  0  0  0  0  0  0  0  0  0  0  0
   49.8516   21.5573   44.4537 H   0  0  0  0  0  0  0  0  0  0  0  0
   50.1689   23.0891   43.5708 H   0  0  0  0  0  0  0  0  0  0  0  0
   51.3998   21.7808   43.5708 H   0  0  0  0  0  0  0  0  0  0  0  0
   51.2039   24.7133   44.3718 H   0  0  0  0  0  0  0  0  0  0  0  0
   51.8697   24.7368   46.0652 H   0  0  0  0  0  0  0  0  0  0  0  0
   53.2341   23.6931   43.5436 H   0  0  0  0  0  0  0  0  0  0  0  0
   53.7067   25.1041   44.5655 H   0  0  0  0  0  0  0  0  0  0  0  0
   55.0137   22.5989   42.9917 H   0  0  0  0  0  0  0  0  0  0  0  0
   57.3887   22.1575   42.3768 H   0  0  0  0  0  0  0  0  0  0  0  0
   59.1737   22.2866   44.1130 H   0  0  0  0  0  0  0  0  0  0  0  0
   58.5951   22.8887   46.4604 H   0  0  0  0  0  0  0  0  0  0  0  0
   55.0742   23.4073   47.6501 H   0  0  0  0  0  0  0  0  0  0  0  0
   56.6884   22.8100   48.1648 H   0  0  0  0  0  0  0  0  0  0  0  0
   56.1116   29.4254   43.4277 H   0  0  0  0  0  0  0  0  0  0  0  0
   56.4647   31.8805   43.6747 H   0  0  0  0  0  0  0  0  0  0  0  0
   63.6864   33.2274   47.2575 H   0  0  0  0  0  0  0  0  0  0  0  0
   62.8704   33.8319   49.5515 H   0  0  0  0  0  0  0  0  0  0  0  0
   60.4477   34.4045   49.8574 H   0  0  0  0  0  0  0  0  0  0  0  0
   58.8537   31.1789   47.2147 H   0  0  0  0  0  0  0  0  0  0  0  0
   58.5084   28.7206   46.9622 H   0  0  0  0  0  0  0  0  0  0  0  0
   54.1385   21.7084   46.8703 H   0  0  0  0  0  0  0  0  0  0  0  0
   53.2645   23.1965   47.3521 H   0  0  0  0  0  0  0  0  0  0  0  0
   52.3792   21.0818   45.3224 H   0  0  0  0  0  0  0  0  0  0  0  0
   51.6218   21.5012   46.9309 H   0  0  0  0  0  0  0  0  0  0  0  0
  1  2  1  0
  2  3  1  0
  3  4  1  0
  4  5  1  0
  5  6  1  0
  6  7  2  0
  7  8  1  0
  8  9  2  0
  9 10  1  0
 10 11  2  0
 11 12  1  0
 12 13  1  0
 13 14  1  0
 14 15  2  0
 14 16  1  0
 16 17  2  0
 16 18  1  0
 18 19  1  0
 19 20  2  0
 20 21  1  0
 21 22  2  0
 22 23  1  0
 23 24  2  0
 23 25  2  0
 23 26  1  0
 26 27  2  3
 27 28  1  0
 28 29  2  0
 29 30  1  0
 30 31  2  0
 31 32  1  0
 22 33  1  0
 33 34  2  0
  5 35  1  0
 35 36  1  0
 36  2  1  0
 11  6  1  0
 34 19  1  0
 32 27  1  0
  1 37  1  0
  1 38  1  0
  1 39  1  0
  3 40  1  0
  3 41  1  0
  4 42  1  0
  4 43  1  0
  7 44  1  0
  8 45  1  0
  9 46  1  0
 10 47  1  0
 12 48  1  0
 12 49  1  0
 20 50  1  0
 21 51  1  0
 29 52  1  0
 30 53  1  0
 31 54  1  0
 33 55  1  0
 34 56  1  0
 35 57  1  0
 35 58  1  0
 36 59  1  0
 36 60  1  0
M  CHG  3  13  -1  18  -1  32  -1
M  END
>  <UniqueID>  (84) 
79

>  <SMILES>  (84) 
CN1CCN(c2ccccc2C[N-]C(=O)C(=O)[N-]c2ccc(S(=O)(=O)N=c3nccc[n-]3)cc2)CC1

>  <Energy>  (84) 
81.86242888406615

>  <Genealogy>  (84) 
CN1CCN(c2ccccc2C[N-]C(=O)C(=O)[N-]c2ccc(S(=O)(=O)N=c3nccc[n-]3)cc2)CC1 (protonated)
CN1CCN(c2ccccc2C[N-]C(=O)C(=O)[N-]c2ccc(S(=O)(=O)N=c3nccc[n-]3)cc2)CC1 (3D coordinates assigned)
CN1CCN(c2ccccc2C[N-]C(=O)C(=O)[N-]c2ccc(S(=O)(=O)N=c3nccc[n-]3)cc2)CC1 (nonaromatic ring conformer: 81.86242888406615 kcal/mol)

>  <smiles>  (84) 
CN1CCN(c2ccccc2CNC(=O)C(=O)Nc2ccc(S(=O)(=O)N=c3nccc[nH]3)cc2)CC1

>  <score_type>  (84) 
oracle

>  <origin>  (84) 
adg

>  <m_score__min__energy>  (84) 
-13.07

>  <m_primary>  (84) 
energy

$$$$
84:0
     RDKit          3D

 28 29  0  0  0  0  0  0  0  0999 V2000
   55.5290   28.5870   45.2160 O   0  0  0  0  0  0  0  0  0  0  0  0
   56.1460   29.6280   44.8620 C   0  0  0  0  0  0  0  0  0  0  0  0
   55.4240   30.7530   44.4810 O   0  0  0  0  0  0  0  0  0  0  0  0
   57.6490   29.6340   44.8140 C   0  0  2  0  0  0  0  0  0  0  0  0
   58.1960   28.2110   44.6140 C   0  0  0  0  0  0  0  0  0  0  0  0
   59.6410   28.2640   44.5650 N   0  0  0  0  0  0  0  0  0  0  0  0
   60.3130   28.9400   45.4320 C   0  0  0  0  0  0  0  0  0  0  0  0
   59.6080   29.6720   46.5450 C   0  0  0  0  0  0  0  0  0  0  0  0
   58.2530   30.2980   46.0940 C   0  0  1  0  0  0  0  0  0  0  0  0
   58.3700   31.8010   45.9070 C   0  0  0  0  0  0  0  0  0  0  0  0
   58.0560   32.4000   44.6730 C   0  0  0  0  0  0  0  0  0  0  0  0
   58.1420   33.7860   44.5180 C   0  0  0  0  0  0  0  0  0  0  0  0
   58.5340   34.5890   45.5920 C   0  0  0  0  0  0  0  0  0  0  0  0
   58.8370   34.0070   46.8300 C   0  0  0  0  0  0  0  0  0  0  0  0
   59.2210   34.7980   47.9100 O   0  0  0  0  0  0  0  0  0  0  0  0
   58.7510   32.6200   46.9860 C   0  0  0  0  0  0  0  0  0  0  0  0
   57.9579   30.2397   43.9493 H   0  0  0  0  0  0  0  0  0  0  0  0
   57.8786   27.5728   45.4519 H   0  0  0  0  0  0  0  0  0  0  0  0
   57.8075   27.7924   43.6738 H   0  0  0  0  0  0  0  0  0  0  0  0
   61.4097   28.9832   45.3593 H   0  0  0  0  0  0  0  0  0  0  0  0
   59.4125   28.9632   47.3631 H   0  0  0  0  0  0  0  0  0  0  0  0
   60.2625   30.4957   46.8660 H   0  0  0  0  0  0  0  0  0  0  0  0
   57.5495   30.0928   46.9143 H   0  0  0  0  0  0  0  0  0  0  0  0
   57.7410   31.7735   43.8255 H   0  0  0  0  0  0  0  0  0  0  0  0
   57.9006   34.2459   43.5483 H   0  0  0  0  0  0  0  0  0  0  0  0
   58.6048   35.6794   45.4655 H   0  0  0  0  0  0  0  0  0  0  0  0
   58.8760   35.7440   48.0230 H   0  0  0  0  0  0  0  0  0  0  0  0
   58.9831   32.1653   47.9604 H   0  0  0  0  0  0  0  0  0  0  0  0
  1  2  2  0
  2  3  1  0
  2  4  1  0
  4  5  1  0
  5  6  1  0
  6  7  2  0
  7  8  1  0
  8  9  1  0
  9 10  1  0
 10 11  2  0
 11 12  1  0
 12 13  2  0
 13 14  1  0
 14 15  1  0
 14 16  2  0
  9  4  1  0
 16 10  1  0
  4 17  1  6
  5 18  1  0
  5 19  1  0
  7 20  1  0
  8 21  1  0
  8 22  1  0
  9 23  1  1
 11 24  1  0
 12 25  1  0
 13 26  1  0
 15 27  1  0
 16 28  1  0
M  CHG  1   3  -1
M  END
>  <UniqueID>  (85) 
80

>  <SMILES>  (85) 
O=C([O-])[C@@H]1CN=CC[C@H]1c1cccc(O)c1

>  <Energy>  (85) 
32.46932577737028

>  <Genealogy>  (85) 
O=C([O-])C1CN=CCC1c1cccc(O)c1 (protonated)
O=C([O-])[C@@H]1CN=CC[C@H]1c1cccc(O)c1 (chirality)
O=C([O-])[C@@H]1CN=CC[C@H]1c1cccc(O)c1 (3D coordinates assigned)
O=C([O-])[C@@H]1CN=CC[C@H]1c1cccc(O)c1 (nonaromatic ring conformer: 32.46932577737028 kcal/mol)

>  <smiles>  (85) 
O=C(O)C1CN=CCC1c1cccc(O)c1

>  <score_type>  (85) 
oracle

>  <origin>  (85) 
adg

>  <m_score__min__energy>  (85) 
-9.2799999999999994

>  <m_primary>  (85) 
energy

$$$$
85:0
     RDKit          3D

 51 53  0  0  1  0  0  0  0  0999 V2000
   60.7930   34.1860   46.3880 C   0  0  0  0  0  0  0  0  0  0  0  0
   59.6300   34.7740   46.4940 C   0  0  0  0  0  0  0  0  0  0  0  0
   58.5420   34.2080   47.3350 C   0  0  0  0  0  0  0  0  0  0  0  0
   57.4650   33.6680   46.5540 N   0  0  0  0  0  0  0  0  0  0  0  0
   57.7320   32.7910   45.6470 C   0  0  0  0  0  0  0  0  0  0  0  0
   57.4000   32.9490   44.3460 N   0  0  0  0  0  0  0  0  0  0  0  0
   57.7110   31.9890   43.4540 C   0  0  0  0  0  0  0  0  0  0  0  0
   58.3710   30.8350   43.8620 C   0  0  0  0  0  0  0  0  0  0  0  0
   58.7090   30.6800   45.2050 C   0  0  0  0  0  0  0  0  0  0  0  0
   59.3120   29.6160   45.5480 N   0  0  0  0  0  0  0  0  0  0  0  0
   59.4200   29.2130   47.2260 S   0  0  0  0  0  0  0  0  0  0  0  0
   58.1770   29.6170   47.9740 O   0  0  0  0  0  0  0  0  0  0  0  0
   59.6880   27.7290   47.4090 O   0  0  0  0  0  0  0  0  0  0  0  0
   60.7650   30.1390   47.9010 C   0  0  0  0  0  0  0  0  0  0  0  0
   61.0200   30.1650   49.2550 C   0  0  0  0  0  0  0  0  0  0  0  0
   62.0980   30.9190   49.7070 C   0  0  0  0  0  0  0  0  0  0  0  0
   62.8960   31.6270   48.8330 C   0  0  0  0  0  0  0  0  0  0  0  0
   64.0360   32.4300   49.2600 C   0  0  0  0  0  0  0  0  0  0  0  0
   64.3930   33.4570   48.5880 O   0  0  0  0  0  0  0  0  0  0  0  0
   64.7970   32.1380   50.4060 N   0  0  0  0  0  0  0  0  0  0  0  0
   65.8930   33.0240   50.7000 C   0  0  0  0  0  0  0  0  0  0  0  0
   67.1660   32.7530   50.1850 C   0  0  0  0  0  0  0  0  0  0  0  0
   68.2250   33.6120   50.4690 C   0  0  0  0  0  0  0  0  0  0  0  0
   68.0230   34.7150   51.2490 C   0  0  0  0  0  0  0  0  0  0  0  0
   66.7850   34.9970   51.7630 C   0  0  0  0  0  0  0  0  0  0  0  0
   65.7290   34.1480   51.4840 C   0  0  0  0  0  0  0  0  0  0  0  0
   64.4000   34.4820   52.0540 C   0  0  0  0  0  0  0  0  0  0  0  0
   62.5890   31.5610   47.4900 C   0  0  0  0  0  0  0  0  0  0  0  0
   61.5390   30.8320   46.9970 C   0  0  0  0  0  0  0  0  0  0  0  0
   58.3770   31.6680   46.0570 N   0  0  0  0  0  0  0  0  0  0  0  0
   61.5781   34.6294   45.7579 H   0  0  0  0  0  0  0  0  0  0  0  0
   60.9863   33.2479   46.9289 H   0  0  0  0  0  0  0  0  0  0  0  0
   59.4518   35.7115   45.9470 H   0  0  0  0  0  0  0  0  0  0  0  0
   58.9609   33.4055   47.9599 H   0  0  0  0  0  0  0  0  0  0  0  0
   58.1330   35.0262   47.9460 H   0  0  0  0  0  0  0  0  0  0  0  0
   56.9040   33.8170   44.0410 H   0  0  0  0  0  0  0  0  0  0  0  0
   57.4411   32.1187   42.3955 H   0  0  0  0  0  0  0  0  0  0  0  0
   58.6238   30.0522   43.1318 H   0  0  0  0  0  0  0  0  0  0  0  0
   60.3880   29.6045   49.9595 H   0  0  0  0  0  0  0  0  0  0  0  0
   62.3186   30.9512   50.7842 H   0  0  0  0  0  0  0  0  0  0  0  0
   64.5670   31.3160   51.0070 H   0  0  0  0  0  0  0  0  0  0  0  0
   67.3296   31.8642   49.5578 H   0  0  0  0  0  0  0  0  0  0  0  0
   69.2260   33.4017   50.0643 H   0  0  0  0  0  0  0  0  0  0  0  0
   68.8665   35.3864   51.4675 H   0  0  0  0  0  0  0  0  0  0  0  0
   66.6324   35.8878   52.3900 H   0  0  0  0  0  0  0  0  0  0  0  0
   64.4580   34.4674   53.1524 H   0  0  0  0  0  0  0  0  0  0  0  0
   64.0974   35.4841   51.7160 H   0  0  0  0  0  0  0  0  0  0  0  0
   63.6596   33.7420   51.7160 H   0  0  0  0  0  0  0  0  0  0  0  0
   63.2171   32.1203   46.7810 H   0  0  0  0  0  0  0  0  0  0  0  0
   61.3222   30.8014   45.9190 H   0  0  0  0  0  0  0  0  0  0  0  0
   58.6280   31.5550   47.0630 H   0  0  0  0  0  0  0  0  0  0  0  0
  1  2  2  0
  2  3  1  0
  3  4  1  0
  4  5  2  0
  5  6  1  0
  6  7  1  0
  7  8  2  0
  8  9  1  0
  9 10  2  0
 10 11  1  0
 11 12  2  0
 11 13  2  0
 11 14  1  0
 14 15  2  0
 15 16  1  0
 16 17  2  0
 17 18  1  0
 18 19  2  0
 18 20  1  0
 20 21  1  0
 21 22  2  0
 22 23  1  0
 23 24  2  0
 24 25  1  0
 25 26  2  0
 26 27  1  0
 17 28  1  0
 28 29  2  0
  9 30  1  0
 30  5  1  0
 29 14  1  0
 26 21  1  0
  1 31  1  0
  1 32  1  0
  2 33  1  0
  3 34  1  0
  3 35  1  0
  6 36  1  0
  7 37  1  0
  8 38  1  0
 15 39  1  0
 16 40  1  0
 20 41  1  0
 22 42  1  0
 23 43  1  0
 24 44  1  0
 25 45  1  0
 27 46  1  0
 27 47  1  0
 27 48  1  0
 28 49  1  0
 29 50  1  0
 30 51  1  0
M  END
>  <smiles>  (86) 
C=CCN=c1[nH]ccc(=NS(=O)(=O)c2ccc(C(=O)Nc3ccccc3C)cc2)[nH]1

>  <score_type>  (86) 
oracle

>  <origin>  (86) 
adg

>  <m_score__min__energy>  (86) 
-8.6400000000000006

>  <m_primary>  (86) 
energy

$$$$
86:0
     RDKit          3D

 37 39  0  0  0  0  0  0  0  0999 V2000
   58.3650   23.7550   46.1870 O   0  0  0  0  0  0  0  0  0  0  0  0
   57.2310   24.2370   45.9270 C   0  0  0  0  0  0  0  0  0  0  0  0
   56.3150   23.5930   45.1700 N   0  0  0  0  0  0  0  0  0  0  0  0
   55.2710   24.4490   45.1240 C   0  0  0  0  0  0  0  0  0  0  0  0
   55.5860   25.5760   45.8460 C   0  0  0  0  0  0  0  0  0  0  0  0
   54.7730   26.6920   46.0120 O   0  0  0  0  0  0  0  0  0  0  0  0
   56.8160   25.4430   46.3680 N   0  0  0  0  0  0  0  0  0  0  0  0
   57.5720   26.4290   47.1380 C   0  0  0  0  0  0  0  0  0  0  0  0
   58.7730   26.9210   46.3280 C   0  0  0  0  0  0  0  0  0  0  0  0
   58.5270   28.3120   45.8090 C   0  0  0  0  0  0  0  0  0  0  0  0
   57.6190   28.5240   44.7610 C   0  0  0  0  0  0  0  0  0  0  0  0
   57.3660   29.8190   44.3020 C   0  0  0  0  0  0  0  0  0  0  0  0
   56.2340   30.0740   42.9850 Cl  0  0  0  0  0  0  0  0  0  0  0  0
   58.0080   30.9120   44.8920 C   0  0  0  0  0  0  0  0  0  0  0  0
   58.9070   30.7200   45.9570 C   0  0  0  0  0  0  0  0  0  0  0  0
   59.5710   31.8210   46.6040 N   0  0  0  0  0  0  0  0  0  0  0  0
   58.7680   33.2580   47.1570 S   0  0  0  0  0  0  0  0  0  0  0  0
   59.5420   33.8480   48.3020 O   0  0  0  0  0  0  0  0  0  0  0  0
   57.3970   32.8900   47.6520 O   0  0  0  0  0  0  0  0  0  0  0  0
   58.6360   34.4700   45.8400 C   0  0  0  0  0  0  0  0  0  0  0  0
   57.4890   34.2480   44.8640 C   0  0  0  0  0  0  0  0  0  0  0  0
   58.9130   33.9320   44.4440 C   0  0  0  0  0  0  0  0  0  0  0  0
   59.1580   29.4140   46.4090 C   0  0  0  0  0  0  0  0  0  0  0  0
   54.3228   24.2730   44.5949 H   0  0  0  0  0  0  0  0  0  0  0  0
   56.9198   27.2822   47.3762 H   0  0  0  0  0  0  0  0  0  0  0  0
   57.9315   25.9616   48.0666 H   0  0  0  0  0  0  0  0  0  0  0  0
   59.6650   26.9277   46.9716 H   0  0  0  0  0  0  0  0  0  0  0  0
   58.9257   26.2452   45.4736 H   0  0  0  0  0  0  0  0  0  0  0  0
   57.1047   27.6682   44.2993 H   0  0  0  0  0  0  0  0  0  0  0  0
   57.8089   31.9283   44.5212 H   0  0  0  0  0  0  0  0  0  0  0  0
   60.5960   31.7540   46.7940 H   0  0  0  0  0  0  0  0  0  0  0  0
   58.9965   35.3206   46.4372 H   0  0  0  0  0  0  0  0  0  0  0  0
   56.7720   33.4314   45.0347 H   0  0  0  0  0  0  0  0  0  0  0  0
   56.6800   34.8741   44.4597 H   0  0  0  0  0  0  0  0  0  0  0  0
   59.2275   32.8864   44.3102 H   0  0  0  0  0  0  0  0  0  0  0  0
   59.5623   34.2345   43.6092 H   0  0  0  0  0  0  0  0  0  0  0  0
   59.8571   29.2524   47.2428 H   0  0  0  0  0  0  0  0  0  0  0  0
  1  2  2  0
  2  3  1  0
  3  4  1  0
  4  5  2  0
  5  6  1  0
  5  7  1  0
  7  8  1  0
  8  9  1  0
  9 10  1  0
 10 11  2  0
 11 12  1  0
 12 13  1  0
 12 14  2  0
 14 15  1  0
 15 16  1  0
 16 17  1  0
 17 18  2  0
 17 19  2  0
 17 20  1  0
 20 21  1  0
 21 22  1  0
 15 23  2  0
  7  2  1  0
 23 10  1  0
 22 20  1  0
  4 24  1  0
  8 25  1  0
  8 26  1  0
  9 27  1  0
  9 28  1  0
 11 29  1  0
 14 30  1  0
 16 31  1  0
 20 32  1  0
 21 33  1  0
 21 34  1  0
 22 35  1  0
 22 36  1  0
 23 37  1  0
M  CHG  2   3  -1   6  -1
M  END
>  <UniqueID>  (87) 
81

>  <SMILES>  (87) 
O=c1[n-]cc([O-])n1CCc1cc(Cl)cc(NS(=O)(=O)C2CC2)c1

>  <Energy>  (87) 
330.4318151978599

>  <Genealogy>  (87) 
O=c1[n-]cc([O-])n1CCc1cc(Cl)cc(NS(=O)(=O)C2CC2)c1 (protonated)
O=c1[n-]cc([O-])n1CCc1cc(Cl)cc(NS(=O)(=O)C2CC2)c1 (3D coordinates assigned)
O=c1[n-]cc([O-])n1CCc1cc(Cl)cc(NS(=O)(=O)C2CC2)c1 (nonaromatic ring conformer: 330.4318151978599 kcal/mol)

>  <smiles>  (87) 
O=c1[nH]cc(O)n1CCc1cc(Cl)cc(NS(=O)(=O)C2CC2)c1

>  <score_type>  (87) 
oracle

>  <origin>  (87) 
adg

>  <m_score__min__energy>  (87) 
-14.06

>  <m_primary>  (87) 
energy

$$$$
87:0
     RDKit          3D

 32 33  0  0  0  0  0  0  0  0999 V2000
   61.8716   29.6573   45.3853 H   0  0  0  0  0  0  0  0  0  0  0  0
   60.8790   29.3340   45.7320 C   0  0  0  0  0  0  0  0  0  0  0  0
   60.3400   28.2370   45.1760 C   0  0  0  0  0  0  0  0  0  0  0  0
   60.9688   27.6312   44.5069 H   0  0  0  0  0  0  0  0  0  0  0  0
   58.9440   27.7970   45.4140 C   0  0  0  0  0  0  0  0  0  0  0  0
   57.8960   28.6490   45.0280 C   0  0  0  0  0  0  0  0  0  0  0  0
   58.1273   29.6140   44.5535 H   0  0  0  0  0  0  0  0  0  0  0  0
   56.5530   28.2830   45.2410 C   0  0  0  0  0  0  0  0  0  0  0  0
   55.4840   29.1060   44.8560 O   0  0  0  0  0  0  0  0  0  0  0  0
   55.5570   30.1010   43.8390 C   0  0  0  0  0  0  0  0  0  0  0  0
   55.6300   31.0954   44.3035 H   0  0  0  0  0  0  0  0  0  0  0  0
   56.4444   29.9222   43.2141 H   0  0  0  0  0  0  0  0  0  0  0  0
   54.6530   30.0536   43.2141 H   0  0  0  0  0  0  0  0  0  0  0  0
   56.2640   27.0580   45.8560 C   0  0  0  0  0  0  0  0  0  0  0  0
   54.9370   26.6960   46.0630 O   0  0  0  0  0  0  0  0  0  0  0  0
   57.3010   26.2040   46.2640 C   0  0  0  0  0  0  0  0  0  0  0  0
   57.0110   24.9580   46.9080 N   0  0  0  0  0  0  0  0  0  0  0  0
   57.7750   24.3180   47.2230 H   0  0  0  0  0  0  0  0  0  0  0  0
   56.0240   24.6610   47.0770 H   0  0  0  0  0  0  0  0  0  0  0  0
   58.6350   26.5780   46.0470 C   0  0  0  0  0  0  0  0  0  0  0  0
   59.4475   25.9127   46.3744 H   0  0  0  0  0  0  0  0  0  0  0  0
   60.2110   30.1350   46.7880 C   0  0  0  0  0  0  0  0  0  0  0  0
   60.1590   29.7240   48.1360 C   0  0  0  0  0  0  0  0  0  0  0  0
   60.6340   28.7790   48.4382 H   0  0  0  0  0  0  0  0  0  0  0  0
   59.5070   30.5110   49.0910 C   0  0  0  0  0  0  0  0  0  0  0  0
   59.4776   30.1866   50.1417 H   0  0  0  0  0  0  0  0  0  0  0  0
   58.8930   31.7080   48.7140 C   0  0  0  0  0  0  0  0  0  0  0  0
   58.2470   32.4890   49.6650 O   0  0  0  0  0  0  0  0  0  0  0  0
   58.9250   32.1170   47.3790 C   0  0  0  0  0  0  0  0  0  0  0  0
   58.4378   33.0572   47.0813 H   0  0  0  0  0  0  0  0  0  0  0  0
   59.5750   31.3340   46.4200 C   0  0  0  0  0  0  0  0  0  0  0  0
   59.5890   31.6586   45.3691 H   0  0  0  0  0  0  0  0  0  0  0  0
  1  2  1  0
  2  3  2  0
  3  4  1  0
  3  5  1  0
  5  6  2  0
  6  7  1  0
  6  8  1  0
  8  9  1  0
  9 10  1  0
 10 11  1  0
 10 12  1  0
 10 13  1  0
  8 14  2  0
 14 15  1  0
 14 16  1  0
 16 17  1  0
 17 18  1  0
 17 19  1  0
 16 20  2  0
 20 21  1  0
  2 22  1  0
 22 23  2  0
 23 24  1  0
 23 25  1  0
 25 26  1  0
 25 27  2  0
 27 28  1  0
 27 29  1  0
 29 30  1  0
 29 31  2  0
 31 32  1  0
 20  5  1  0
 31 22  1  0
M  CHG  2  15  -1  28  -1
M  END
>  <UniqueID>  (88) 
82

>  <SMILES>  (88) 
COc1cc(/C=C/c2ccc([O-])cc2)cc(N)c1[O-]

>  <Energy>  (88) 
37.25385213815862

>  <Genealogy>  (88) 
COc1cc(C=Cc2ccc([O-])cc2)cc(N)c1[O-] (protonated)
COc1cc(/C=C/c2ccc([O-])cc2)cc(N)c1[O-] (cis-trans isomerization)
COc1cc(/C=C/c2ccc([O-])cc2)cc(N)c1[O-] (3D coordinates assigned)
COc1cc(/C=C/c2ccc([O-])cc2)cc(N)c1[O-] (optimized conformer: 37.25385213815862 kcal/mol)

>  <smiles>  (88) 
COc1cc(C=Cc2ccc(O)cc2)cc(N)c1O

>  <score_type>  (88) 
oracle

>  <origin>  (88) 
adg

>  <m_score__min__energy>  (88) 
-10.49

>  <m_primary>  (88) 
energy

$$$$
88:0
     RDKit          3D

 51 53  0  0  0  0  0  0  0  0999 V2000
   60.4160   34.2110   49.3150 C   0  0  0  0  0  0  0  0  0  0  0  0
   59.6200   34.0990   48.0580 C   0  0  0  0  0  0  0  0  0  0  0  0
   58.5320   33.2640   47.8740 C   0  0  0  0  0  0  0  0  0  0  0  0
   58.1800   33.4010   46.5460 C   0  0  0  0  0  0  0  0  0  0  0  0
   57.2000   32.5940   45.8760 N   0  0  0  0  0  0  0  0  0  0  0  0
   57.5260   31.6310   44.8580 C   0  0  0  0  0  0  0  0  0  0  0  0
   58.6830   31.5940   44.3480 O   0  0  0  0  0  0  0  0  0  0  0  0
   56.4650   30.7090   44.3380 C   0  0  0  0  0  0  0  0  0  0  0  0
   56.2620   29.5850   45.2570 N   0  0  0  0  0  0  0  0  0  0  0  0
   57.0860   28.4030   45.2550 C   0  0  0  0  0  0  0  0  0  0  0  0
   58.4470   28.4590   44.8930 C   0  0  0  0  0  0  0  0  0  0  0  0
   59.2480   27.3190   44.9630 C   0  0  0  0  0  0  0  0  0  0  0  0
   58.7090   26.1080   45.3920 C   0  0  0  0  0  0  0  0  0  0  0  0
   57.3520   26.0140   45.7350 C   0  0  0  0  0  0  0  0  0  0  0  0
   56.7150   24.4380   46.2560 S   0  0  0  0  0  0  0  0  0  0  0  0
   57.5310   23.9690   47.4280 O   0  0  0  0  0  0  0  0  0  0  0  0
   55.2930   24.5740   46.7220 O   0  0  0  0  0  0  0  0  0  0  0  0
   56.7610   23.2490   44.9720 N   0  0  0  0  0  0  0  0  0  0  0  0
   56.1380   21.9820   45.3920 C   0  0  0  0  0  0  0  0  0  0  0  0
   56.2510   20.9360   44.2620 C   0  0  0  0  0  0  0  0  0  0  0  0
   56.6950   21.5090   43.0430 O   0  0  0  0  0  0  0  0  0  0  0  0
   55.9060   22.6370   42.7190 C   0  0  0  0  0  0  0  0  0  0  0  0
   56.1000   23.7650   43.7560 C   0  0  0  0  0  0  0  0  0  0  0  0
   56.5360   27.1650   45.6520 C   0  0  0  0  0  0  0  0  0  0  0  0
   55.1820   27.0860   45.9680 O   0  0  0  0  0  0  0  0  0  0  0  0
   59.0970   34.2680   45.9600 C   0  0  0  0  0  0  0  0  0  0  0  0
   59.2330   34.5940   44.5050 C   0  0  0  0  0  0  0  0  0  0  0  0
   59.9630   34.7000   46.8980 N   0  0  0  0  0  0  0  0  0  0  0  0
   59.7464   34.1168   50.1826 H   0  0  0  0  0  0  0  0  0  0  0  0
   61.1694   33.4100   49.3445 H   0  0  0  0  0  0  0  0  0  0  0  0
   60.9191   35.1888   49.3445 H   0  0  0  0  0  0  0  0  0  0  0  0
   58.0488   32.6250   48.6278 H   0  0  0  0  0  0  0  0  0  0  0  0
   56.1950   32.8080   46.0480 H   0  0  0  0  0  0  0  0  0  0  0  0
   55.5219   31.2655   44.2338 H   0  0  0  0  0  0  0  0  0  0  0  0
   56.7847   30.3155   43.3618 H   0  0  0  0  0  0  0  0  0  0  0  0
   55.4970   29.6640   45.9680 H   0  0  0  0  0  0  0  0  0  0  0  0
   58.8816   29.4103   44.5522 H   0  0  0  0  0  0  0  0  0  0  0  0
   60.3090   27.3764   44.6785 H   0  0  0  0  0  0  0  0  0  0  0  0
   59.3525   25.2187   45.4623 H   0  0  0  0  0  0  0  0  0  0  0  0
   56.6498   21.6048   46.2897 H   0  0  0  0  0  0  0  0  0  0  0  0
   55.0753   22.1592   45.6141 H   0  0  0  0  0  0  0  0  0  0  0  0
   56.9663   20.1588   44.5692 H   0  0  0  0  0  0  0  0  0  0  0  0
   55.2495   20.5141   44.0914 H   0  0  0  0  0  0  0  0  0  0  0  0
   56.1990   23.0075   41.7256 H   0  0  0  0  0  0  0  0  0  0  0  0
   54.8478   22.3368   42.7219 H   0  0  0  0  0  0  0  0  0  0  0  0
   56.7228   24.5574   43.3152 H   0  0  0  0  0  0  0  0  0  0  0  0
   55.1131   24.1643   44.0326 H   0  0  0  0  0  0  0  0  0  0  0  0
   59.6543   35.6040   44.3934 H   0  0  0  0  0  0  0  0  0  0  0  0
   59.9012   33.8630   44.0263 H   0  0  0  0  0  0  0  0  0  0  0  0
   58.2434   34.5546   44.0263 H   0  0  0  0  0  0  0  0  0  0  0  0
   60.7870   35.3210   46.7420 H   0  0  0  0  0  0  0  0  0  0  0  0
  1  2  1  0
  2  3  2  0
  3  4  1  0
  4  5  1  0
  5  6  1  0
  6  7  2  0
  6  8  1  0
  8  9  1  0
  9 10  1  0
 10 11  2  0
 11 12  1  0
 12 13  2  0
 13 14  1  0
 14 15  1  0
 15 16  2  0
 15 17  2  0
 15 18  1  0
 18 19  1  0
 19 20  1  0
 20 21  1  0
 21 22  1  0
 22 23  1  0
 14 24  2  0
 24 25  1  0
  4 26  2  0
 26 27  1  0
 26 28  1  0
 28  2  1  0
 24 10  1  0
 23 18  1  0
  1 29  1  0
  1 30  1  0
  1 31  1  0
  3 32  1  0
  5 33  1  0
  8 34  1  0
  8 35  1  0
  9 36  1  0
 11 37  1  0
 12 38  1  0
 13 39  1  0
 19 40  1  0
 19 41  1  0
 20 42  1  0
 20 43  1  0
 22 44  1  0
 22 45  1  0
 23 46  1  0
 23 47  1  0
 27 48  1  0
 27 49  1  0
 27 50  1  0
 28 51  1  0
M  CHG  1  25  -1
M  END
>  <UniqueID>  (89) 
83

>  <SMILES>  (89) 
Cc1cc(NC(=O)CNc2cccc(S(=O)(=O)N3CCOCC3)c2[O-])c(C)[nH]1

>  <Energy>  (89) 
90.56359405631007

>  <Genealogy>  (89) 
Cc1cc(NC(=O)CNc2cccc(S(=O)(=O)N3CCOCC3)c2[O-])c(C)[nH]1 (protonated)
Cc1cc(NC(=O)CNc2cccc(S(=O)(=O)N3CCOCC3)c2[O-])c(C)[nH]1 (3D coordinates assigned)
Cc1cc(NC(=O)CNc2cccc(S(=O)(=O)N3CCOCC3)c2[O-])c(C)[nH]1 (nonaromatic ring conformer: 90.56359405631007 kcal/mol)

>  <smiles>  (89) 
Cc1cc(NC(=O)CNc2cccc(S(=O)(=O)N3CCOCC3)c2O)c(C)[nH]1

>  <score_type>  (89) 
oracle

>  <origin>  (89) 
adg

>  <m_score__min__energy>  (89) 
-13.710000000000001

>  <m_primary>  (89) 
energy

$$$$
89:0
     RDKit          3D

 52 54  0  0  0  0  0  0  0  0999 V2000
   59.2690   35.5990   44.9260 C   0  0  0  0  0  0  0  0  0  0  0  0
   59.3810   34.5240   46.0120 C   0  0  2  0  0  0  0  0  0  0  0  0
   60.7840   34.2440   46.3190 N   0  0  0  0  0  0  0  0  0  0  0  0
   61.2940   33.5410   47.4620 C   0  0  0  0  0  0  0  0  0  0  0  0
   60.8850   33.8820   48.6040 O   0  0  0  0  0  0  0  0  0  0  0  0
   62.2420   32.3750   47.3350 C   0  0  0  0  0  0  0  0  0  0  0  0
   61.5370   31.0660   47.5790 C   0  0  0  0  0  0  0  0  0  0  0  0
   61.4130   30.5630   48.8840 C   0  0  0  0  0  0  0  0  0  0  0  0
   60.7380   29.3610   49.1130 C   0  0  0  0  0  0  0  0  0  0  0  0
   60.1660   28.6630   48.0470 C   0  0  0  0  0  0  0  0  0  0  0  0
   60.2520   29.1700   46.7420 C   0  0  0  0  0  0  0  0  0  0  0  0
   59.6540   28.4360   45.6090 C   0  0  0  0  0  0  0  0  0  0  0  0
   59.9480   28.7870   44.4340 O   0  0  0  0  0  0  0  0  0  0  0  0
   58.7350   27.3480   45.8170 N   0  0  0  0  0  0  0  0  0  0  0  0
   58.3530   26.4310   44.7560 C   0  0  0  0  0  0  0  0  0  0  0  0
   57.0940   25.7290   45.2460 C   0  0  0  0  0  0  0  0  0  0  0  0
   57.0270   25.9890   46.7490 C   0  0  0  0  0  0  0  0  0  0  0  0
   57.9020   27.2080   47.0020 C   0  0  0  0  0  0  0  0  0  0  0  0
   60.9510   30.3660   46.5110 C   0  0  0  0  0  0  0  0  0  0  0  0
   58.7020   33.2560   45.5470 C   0  0  0  0  0  0  0  0  0  0  0  0
   58.4270   32.2260   46.4610 C   0  0  0  0  0  0  0  0  0  0  0  0
   57.7710   31.0650   46.0460 C   0  0  0  0  0  0  0  0  0  0  0  0
   57.3660   30.9090   44.7080 C   0  0  0  0  0  0  0  0  0  0  0  0
   56.6590   29.6740   44.2870 C   0  0  0  0  0  0  0  0  0  0  0  0
   57.2410   28.7570   43.3560 N   0  0  0  0  0  0  0  0  0  0  0  0
   55.5250   29.4080   44.7730 O   0  0  0  0  0  0  0  0  0  0  0  0
   57.6190   31.9530   43.7990 C   0  0  0  0  0  0  0  0  0  0  0  0
   58.2790   33.1120   44.2150 C   0  0  0  0  0  0  0  0  0  0  0  0
   59.1660   36.5874   45.3977 H   0  0  0  0  0  0  0  0  0  0  0  0
   60.1736   35.5838   44.3003 H   0  0  0  0  0  0  0  0  0  0  0  0
   58.3870   35.3976   44.3003 H   0  0  0  0  0  0  0  0  0  0  0  0
   58.8881   34.8950   46.9227 H   0  0  0  0  0  0  0  0  0  0  0  0
   62.6681   32.3687   46.3209 H   0  0  0  0  0  0  0  0  0  0  0  0
   63.0341   32.4882   48.0898 H   0  0  0  0  0  0  0  0  0  0  0  0
   61.8485   31.1168   49.7288 H   0  0  0  0  0  0  0  0  0  0  0  0
   60.6570   28.9635   50.1355 H   0  0  0  0  0  0  0  0  0  0  0  0
   59.6458   27.7115   48.2317 H   0  0  0  0  0  0  0  0  0  0  0  0
   58.1463   26.9841   43.8279 H   0  0  0  0  0  0  0  0  0  0  0  0
   59.1560   25.7128   44.5338 H   0  0  0  0  0  0  0  0  0  0  0  0
   56.2060   26.1433   44.7462 H   0  0  0  0  0  0  0  0  0  0  0  0
   57.1199   24.6520   45.0235 H   0  0  0  0  0  0  0  0  0  0  0  0
   55.9904   26.1919   47.0562 H   0  0  0  0  0  0  0  0  0  0  0  0
   57.3726   25.1178   47.3249 H   0  0  0  0  0  0  0  0  0  0  0  0
   57.2798   28.1044   47.1415 H   0  0  0  0  0  0  0  0  0  0  0  0
   58.5080   27.0907   47.9125 H   0  0  0  0  0  0  0  0  0  0  0  0
   61.0403   30.7574   45.4869 H   0  0  0  0  0  0  0  0  0  0  0  0
   58.7308   32.3345   47.5126 H   0  0  0  0  0  0  0  0  0  0  0  0
   57.5690   30.2644   46.7728 H   0  0  0  0  0  0  0  0  0  0  0  0
   58.2340   28.8400   43.0450 H   0  0  0  0  0  0  0  0  0  0  0  0
   56.6930   27.9290   43.0330 H   0  0  0  0  0  0  0  0  0  0  0  0
   57.2945   31.8558   42.7525 H   0  0  0  0  0  0  0  0  0  0  0  0
   58.4693   33.9195   43.4927 H   0  0  0  0  0  0  0  0  0  0  0  0
  1  2  1  0
  2  3  1  0
  3  4  1  0
  4  5  2  0
  4  6  1  0
  6  7  1  0
  7  8  2  0
  8  9  1  0
  9 10  2  0
 10 11  1  0
 11 12  1  0
 12 13  2  0
 12 14  1  0
 14 15  1  0
 15 16  1  0
 16 17  1  0
 17 18  1  0
 11 19  2  0
  2 20  1  0
 20 21  2  0
 21 22  1  0
 22 23  2  0
 23 24  1  0
 24 25  1  0
 24 26  2  0
 23 27  1  0
 27 28  2  0
 19  7  1  0
 28 20  1  0
 18 14  1  0
  1 29  1  0
  1 30  1  0
  1 31  1  0
  2 32  1  1
  6 33  1  0
  6 34  1  0
  8 35  1  0
  9 36  1  0
 10 37  1  0
 15 38  1  0
 15 39  1  0
 16 40  1  0
 16 41  1  0
 17 42  1  0
 17 43  1  0
 18 44  1  0
 18 45  1  0
 19 46  1  0
 21 47  1  0
 22 48  1  0
 25 49  1  0
 25 50  1  0
 27 51  1  0
 28 52  1  0
M  CHG  1   3  -1
M  END
>  <UniqueID>  (90) 
84

>  <SMILES>  (90) 
C[C@H]([N-]C(=O)Cc1cccc(C(=O)N2CCCC2)c1)c1ccc(C(N)=O)cc1

>  <Energy>  (90) 
56.118601557695655

>  <Genealogy>  (90) 
CC([N-]C(=O)Cc1cccc(C(=O)N2CCCC2)c1)c1ccc(C(N)=O)cc1 (protonated)
C[C@H]([N-]C(=O)Cc1cccc(C(=O)N2CCCC2)c1)c1ccc(C(N)=O)cc1 (chirality)
C[C@H]([N-]C(=O)Cc1cccc(C(=O)N2CCCC2)c1)c1ccc(C(N)=O)cc1 (3D coordinates assigned)
C[C@H]([N-]C(=O)Cc1cccc(C(=O)N2CCCC2)c1)c1ccc(C(N)=O)cc1 (nonaromatic ring conformer: 56.118601557695655 kcal/mol)

>  <smiles>  (90) 
CC(NC(=O)Cc1cccc(C(=O)N2CCCC2)c1)c1ccc(C(N)=O)cc1

>  <score_type>  (90) 
oracle

>  <origin>  (90) 
adg

>  <m_score__min__energy>  (90) 
-11.949999999999999

>  <m_primary>  (90) 
energy

$$$$
90:0
     RDKit          3D

 42 44  0  0  0  0  0  0  0  0999 V2000
   57.0840   28.5740   43.4880 N   0  0  0  0  0  0  0  0  0  0  0  0
   56.5980   30.2260   43.6500 S   0  0  0  0  0  0  0  0  0  0  0  0
   55.1880   30.2910   44.1690 O   0  0  0  0  0  0  0  0  0  0  0  0
   56.6480   30.8960   42.3070 O   0  0  0  0  0  0  0  0  0  0  0  0
   57.6780   31.0450   44.7740 C   0  0  0  0  0  0  0  0  0  0  0  0
   57.5850   32.4240   44.9760 C   0  0  0  0  0  0  0  0  0  0  0  0
   58.4490   33.0550   45.8670 C   0  0  0  0  0  0  0  0  0  0  0  0
   59.4130   32.3030   46.5460 C   0  0  0  0  0  0  0  0  0  0  0  0
   60.1800   32.8870   47.3600 O   0  0  0  0  0  0  0  0  0  0  0  0
   59.5160   30.9500   46.3270 N   0  0  0  0  0  0  0  0  0  0  0  0
   60.5080   30.1400   47.0520 C   0  0  0  0  0  0  0  0  0  0  0  0
   59.8210   29.2580   48.0480 C   0  0  0  0  0  0  0  0  0  0  0  0
   60.3940   28.9910   49.1390 O   0  0  0  0  0  0  0  0  0  0  0  0
   58.5400   28.6980   47.7200 N   0  0  0  0  0  0  0  0  0  0  0  0
   58.3090   27.6270   47.0160 C   0  0  0  0  0  0  0  0  0  0  0  0
   59.3010   26.6470   46.9180 C   0  0  0  0  0  0  0  0  0  0  0  0
   59.0630   25.4980   46.1640 C   0  0  0  0  0  0  0  0  0  0  0  0
   57.8340   25.3240   45.5060 C   0  0  0  0  0  0  0  0  0  0  0  0
   57.5660   24.1060   44.6990 C   0  0  0  0  0  0  0  0  0  0  0  0
   58.3560   22.9510   44.8630 C   0  0  0  0  0  0  0  0  0  0  0  0
   58.1040   21.8080   44.0980 C   0  0  0  0  0  0  0  0  0  0  0  0
   57.0620   21.8010   43.1660 C   0  0  0  0  0  0  0  0  0  0  0  0
   56.2710   22.9400   42.9960 C   0  0  0  0  0  0  0  0  0  0  0  0
   56.5200   24.0870   43.7560 C   0  0  0  0  0  0  0  0  0  0  0  0
   56.8640   26.3330   45.6330 C   0  0  0  0  0  0  0  0  0  0  0  0
   57.1230   27.4450   46.3710 N   0  0  0  0  0  0  0  0  0  0  0  0
   58.6590   30.3230   45.4620 C   0  0  0  0  0  0  0  0  0  0  0  0
   56.6660   28.0510   44.2910 H   0  0  0  0  0  0  0  0  0  0  0  0
   56.6340   28.2060   42.6190 H   0  0  0  0  0  0  0  0  0  0  0  0
   56.8302   33.0107   44.4319 H   0  0  0  0  0  0  0  0  0  0  0  0
   58.3738   34.1393   46.0360 H   0  0  0  0  0  0  0  0  0  0  0  0
   61.0629   29.5167   46.3354 H   0  0  0  0  0  0  0  0  0  0  0  0
   61.2025   30.8090   47.5813 H   0  0  0  0  0  0  0  0  0  0  0  0
   60.2639   26.7813   47.4326 H   0  0  0  0  0  0  0  0  0  0  0  0
   59.8411   24.7246   46.0842 H   0  0  0  0  0  0  0  0  0  0  0  0
   59.1755   22.9484   45.5968 H   0  0  0  0  0  0  0  0  0  0  0  0
   58.7276   20.9115   44.2299 H   0  0  0  0  0  0  0  0  0  0  0  0
   56.8651   20.8996   42.5671 H   0  0  0  0  0  0  0  0  0  0  0  0
   55.4509   22.9345   42.2630 H   0  0  0  0  0  0  0  0  0  0  0  0
   55.8944   24.9810   43.6164 H   0  0  0  0  0  0  0  0  0  0  0  0
   55.8905   26.2225   45.1329 H   0  0  0  0  0  0  0  0  0  0  0  0
   58.7432   29.2373   45.3062 H   0  0  0  0  0  0  0  0  0  0  0  0
  1  2  1  0
  2  3  2  0
  2  4  2  0
  2  5  1  0
  5  6  1  0
  6  7  2  0
  7  8  1  0
  8  9  2  0
  8 10  1  0
 10 11  1  0
 11 12  1  0
 12 13  2  0
 12 14  1  0
 14 15  2  3
 15 16  1  0
 16 17  2  0
 17 18  1  0
 18 19  1  0
 19 20  2  0
 20 21  1  0
 21 22  2  0
 22 23  1  0
 23 24  2  0
 18 25  2  0
 25 26  1  0
 10 27  1  0
 27  5  2  0
 26 15  1  0
 24 19  1  0
  1 28  1  0
  1 29  1  0
  6 30  1  0
  7 31  1  0
 11 32  1  0
 11 33  1  0
 16 34  1  0
 17 35  1  0
 20 36  1  0
 21 37  1  0
 22 38  1  0
 23 39  1  0
 24 40  1  0
 25 41  1  0
 27 42  1  0
M  CHG  1  26  -1
M  END
>  <UniqueID>  (91) 
85

>  <SMILES>  (91) 
NS(=O)(=O)c1ccc(=O)n(CC(=O)N=c2ccc(-c3ccccc3)c[n-]2)c1

>  <Energy>  (91) 
52.80702471136401

>  <Genealogy>  (91) 
NS(=O)(=O)c1ccc(=O)n(CC(=O)N=c2ccc(-c3ccccc3)c[n-]2)c1 (protonated)
NS(=O)(=O)c1ccc(=O)n(CC(=O)N=c2ccc(-c3ccccc3)c[n-]2)c1 (3D coordinates assigned)
NS(=O)(=O)c1ccc(=O)n(CC(=O)N=c2ccc(-c3ccccc3)c[n-]2)c1 (optimized conformer: 52.80702471136401 kcal/mol)

>  <smiles>  (91) 
NS(=O)(=O)c1ccc(=O)n(CC(=O)N=c2ccc(-c3ccccc3)c[nH]2)c1

>  <score_type>  (91) 
oracle

>  <origin>  (91) 
adg

>  <m_score__min__energy>  (91) 
-10.48

>  <m_primary>  (91) 
energy

$$$$
91:0
     RDKit          3D

 52 55  0  0  0  0  0  0  0  0999 V2000
   58.0430   27.3770   43.2770 C   0  0  0  0  0  0  0  0  0  0  0  0
   58.1590   28.4000   44.3350 N   0  0  0  0  0  0  0  0  0  0  0  0
   58.6960   28.0590   45.5490 C   0  0  0  0  0  0  0  0  0  0  0  0
   59.1100   26.8810   45.7440 O   0  0  0  0  0  0  0  0  0  0  0  0
   58.7800   29.0170   46.5820 C   0  0  0  0  0  0  0  0  0  0  0  0
   59.3170   28.7450   47.8650 C   0  0  0  0  0  0  0  0  0  0  0  0
   59.7450   27.5860   48.1370 O   0  0  0  0  0  0  0  0  0  0  0  0
   59.3700   29.7330   48.8190 N   0  0  0  0  0  0  0  0  0  0  0  0
   59.9140   29.4490   50.1660 C   0  0  0  0  0  0  0  0  0  0  0  0
   61.3260   29.9440   50.2880 C   0  0  0  0  0  0  0  0  0  0  0  0
   62.2660   29.1250   50.4890 O   0  0  0  0  0  0  0  0  0  0  0  0
   61.6100   31.3390   50.1090 N   0  0  0  0  0  0  0  0  0  0  0  0
   62.9310   31.8700   50.2620 C   0  0  0  0  0  0  0  0  0  0  0  0
   63.5830   31.7270   51.4970 C   0  0  0  0  0  0  0  0  0  0  0  0
   64.8790   32.2180   51.6730 C   0  0  0  0  0  0  0  0  0  0  0  0
   65.5370   32.8490   50.6130 C   0  0  0  0  0  0  0  0  0  0  0  0
   64.9050   32.9790   49.3710 C   0  0  0  0  0  0  0  0  0  0  0  0
   63.6080   32.4720   49.1750 C   0  0  0  0  0  0  0  0  0  0  0  0
   62.9810   32.5670   47.8800 N   0  0  0  0  0  0  0  0  0  0  0  0
   61.7330   33.2430   47.6370 C   0  0  0  0  0  0  0  0  0  0  0  0
   61.0810   33.1540   46.3910 C   0  0  0  0  0  0  0  0  0  0  0  0
   59.8540   33.7960   46.1900 C   0  0  0  0  0  0  0  0  0  0  0  0
   59.2610   34.5190   47.2300 C   0  0  0  0  0  0  0  0  0  0  0  0
   59.8920   34.5950   48.4760 C   0  0  0  0  0  0  0  0  0  0  0  0
   61.1180   33.9540   48.6820 C   0  0  0  0  0  0  0  0  0  0  0  0
   58.8630   30.9760   48.5380 C   0  0  0  0  0  0  0  0  0  0  0  0
   58.8670   31.8880   49.4100 O   0  0  0  0  0  0  0  0  0  0  0  0
   58.3440   31.2440   47.3140 N   0  0  0  0  0  0  0  0  0  0  0  0
   58.2930   30.3100   46.3260 C   0  0  0  0  0  0  0  0  0  0  0  0
   57.7580   30.6240   45.1030 N   0  0  0  0  0  0  0  0  0  0  0  0
   57.2130   31.9750   44.8650 C   0  0  0  0  0  0  0  0  0  0  0  0
   57.6560   29.6610   44.1290 C   0  0  0  0  0  0  0  0  0  0  0  0
   57.0880   29.9360   43.0320 O   0  0  0  0  0  0  0  0  0  0  0  0
   57.9304   26.3844   43.7375 H   0  0  0  0  0  0  0  0  0  0  0  0
   57.1636   27.5934   42.6526 H   0  0  0  0  0  0  0  0  0  0  0  0
   58.9485   27.3910   42.6526 H   0  0  0  0  0  0  0  0  0  0  0  0
   59.2898   29.9511   50.9199 H   0  0  0  0  0  0  0  0  0  0  0  0
   59.9078   28.3607   50.3256 H   0  0  0  0  0  0  0  0  0  0  0  0
   60.8780   31.9470   49.6860 H   0  0  0  0  0  0  0  0  0  0  0  0
   63.0704   31.2254   52.3310 H   0  0  0  0  0  0  0  0  0  0  0  0
   65.3816   32.1082   52.6453 H   0  0  0  0  0  0  0  0  0  0  0  0
   66.5536   33.2441   50.7555 H   0  0  0  0  0  0  0  0  0  0  0  0
   65.4263   33.4811   48.5426 H   0  0  0  0  0  0  0  0  0  0  0  0
   63.4540   32.1190   47.0610 H   0  0  0  0  0  0  0  0  0  0  0  0
   61.5383   32.5777   45.5732 H   0  0  0  0  0  0  0  0  0  0  0  0
   59.3548   33.7319   45.2119 H   0  0  0  0  0  0  0  0  0  0  0  0
   58.2991   35.0275   47.0682 H   0  0  0  0  0  0  0  0  0  0  0  0
   59.4233   35.1598   49.2953 H   0  0  0  0  0  0  0  0  0  0  0  0
   61.6037   34.0066   49.6675 H   0  0  0  0  0  0  0  0  0  0  0  0
   57.0151   32.4657   45.8294 H   0  0  0  0  0  0  0  0  0  0  0  0
   57.9418   32.5691   44.2941 H   0  0  0  0  0  0  0  0  0  0  0  0
   56.2760   31.8971   44.2941 H   0  0  0  0  0  0  0  0  0  0  0  0
  1  2  1  0
  2  3  1  0
  3  4  2  0
  3  5  1  0
  5  6  1  0
  6  7  2  0
  6  8  1  0
  8  9  1  0
  9 10  1  0
 10 11  2  0
 10 12  1  0
 12 13  1  0
 13 14  2  0
 14 15  1  0
 15 16  2  0
 16 17  1  0
 17 18  2  0
 18 19  1  0
 19 20  1  0
 20 21  2  0
 21 22  1  0
 22 23  2  0
 23 24  1  0
 24 25  2  0
  8 26  1  0
 26 27  2  0
 26 28  1  0
 28 29  1  0
 29 30  1  0
 30 31  1  0
 30 32  1  0
 32 33  2  0
 32  2  1  0
 29  5  2  0
 18 13  1  0
 25 20  1  0
  1 34  1  0
  1 35  1  0
  1 36  1  0
  9 37  1  0
  9 38  1  0
 12 39  1  0
 14 40  1  0
 15 41  1  0
 16 42  1  0
 17 43  1  0
 19 44  1  0
 21 45  1  0
 22 46  1  0
 23 47  1  0
 24 48  1  0
 25 49  1  0
 31 50  1  0
 31 51  1  0
 31 52  1  0
M  CHG  1  28  -1
M  END
>  <UniqueID>  (92) 
86

>  <SMILES>  (92) 
Cn1c(=O)c2c(=O)n(CC(=O)Nc3ccccc3Nc3ccccc3)c(=O)[n-]c2n(C)c1=O

>  <Energy>  (92) 
86.1574964796697

>  <Genealogy>  (92) 
Cn1c(=O)c2c(=O)n(CC(=O)Nc3ccccc3Nc3ccccc3)c(=O)[n-]c2n(C)c1=O (protonated)
Cn1c(=O)c2c(=O)n(CC(=O)Nc3ccccc3Nc3ccccc3)c(=O)[n-]c2n(C)c1=O (3D coordinates assigned)
Cn1c(=O)c2c(=O)n(CC(=O)Nc3ccccc3Nc3ccccc3)c(=O)[n-]c2n(C)c1=O (optimized conformer: 86.1574964796697 kcal/mol)

>  <smiles>  (92) 
Cn1c(=O)c2c(=O)n(CC(=O)Nc3ccccc3Nc3ccccc3)c(=O)[nH]c2n(C)c1=O

>  <score_type>  (92) 
oracle

>  <origin>  (92) 
adg

>  <m_score__min__energy>  (92) 
-10.539999999999999

>  <m_primary>  (92) 
energy

$$$$
92:0
     RDKit          3D

 37 39  0  0  0  0  0  0  0  0999 V2000
   56.2820   30.0450   42.9820 C   0  0  0  0  0  0  0  0  0  0  0  0
   57.1520   30.1850   44.1840 C   0  0  0  0  0  0  0  0  0  0  0  0
   58.4460   30.6740   44.2000 C   0  0  0  0  0  0  0  0  0  0  0  0
   58.7880   30.6090   45.5420 C   0  0  0  0  0  0  0  0  0  0  0  0
   59.9180   30.9380   46.1000 N   0  0  0  0  0  0  0  0  0  0  0  0
   60.2200   31.0500   47.5020 C   0  0  0  0  0  0  0  0  0  0  0  0
   59.5460   30.4180   48.3590 O   0  0  0  0  0  0  0  0  0  0  0  0
   61.3840   31.8580   47.9430 C   0  0  0  0  0  0  0  0  0  0  0  0
   62.6430   31.2350   48.0320 C   0  0  0  0  0  0  0  0  0  0  0  0
   63.7800   31.9690   48.3730 C   0  0  0  0  0  0  0  0  0  0  0  0
   63.6780   33.3330   48.6390 C   0  0  0  0  0  0  0  0  0  0  0  0
   62.4370   33.9670   48.5750 C   0  0  0  0  0  0  0  0  0  0  0  0
   61.2800   33.2440   48.2360 C   0  0  0  0  0  0  0  0  0  0  0  0
   59.9770   33.9430   48.2850 C   0  0  0  0  0  0  0  0  0  0  0  0
   59.6370   34.5120   49.3580 O   0  0  0  0  0  0  0  0  0  0  0  0
   59.0730   34.0010   47.1070 C   0  0  0  0  0  0  0  0  0  0  0  0
   59.4860   34.6010   45.9020 C   0  0  0  0  0  0  0  0  0  0  0  0
   58.6300   34.6350   44.7970 C   0  0  0  0  0  0  0  0  0  0  0  0
   57.3580   34.0660   44.8780 C   0  0  0  0  0  0  0  0  0  0  0  0
   56.9390   33.4590   46.0630 C   0  0  0  0  0  0  0  0  0  0  0  0
   57.7910   33.4220   47.1710 C   0  0  0  0  0  0  0  0  0  0  0  0
   57.7530   30.1130   46.2420 N   0  0  0  0  0  0  0  0  0  0  0  0
   56.7870   29.8700   45.4070 O   0  0  0  0  0  0  0  0  0  0  0  0
   55.2422   29.8777   43.2995 H   0  0  0  0  0  0  0  0  0  0  0  0
   56.3382   30.9637   42.3797 H   0  0  0  0  0  0  0  0  0  0  0  0
   56.6235   29.1903   42.3797 H   0  0  0  0  0  0  0  0  0  0  0  0
   59.0546   31.0278   43.3548 H   0  0  0  0  0  0  0  0  0  0  0  0
   62.7318   30.1573   47.8305 H   0  0  0  0  0  0  0  0  0  0  0  0
   64.7585   31.4698   48.4319 H   0  0  0  0  0  0  0  0  0  0  0  0
   64.5771   33.9106   48.8998 H   0  0  0  0  0  0  0  0  0  0  0  0
   62.3631   35.0429   48.7919 H   0  0  0  0  0  0  0  0  0  0  0  0
   60.4893   35.0462   45.8294 H   0  0  0  0  0  0  0  0  0  0  0  0
   58.9597   35.1112   43.8618 H   0  0  0  0  0  0  0  0  0  0  0  0
   56.6857   34.0960   44.0079 H   0  0  0  0  0  0  0  0  0  0  0  0
   55.9371   33.0091   46.1253 H   0  0  0  0  0  0  0  0  0  0  0  0
   57.4572   32.9368   48.1000 H   0  0  0  0  0  0  0  0  0  0  0  0
   57.7130   29.9410   47.2720 H   0  0  0  0  0  0  0  0  0  0  0  0
  1  2  1  0
  2  3  2  0
  3  4  1  0
  4  5  2  3
  5  6  1  0
  6  7  2  0
  6  8  1  0
  8  9  2  0
  9 10  1  0
 10 11  2  0
 11 12  1  0
 12 13  2  0
 13 14  1  0
 14 15  2  0
 14 16  1  0
 16 17  2  0
 17 18  1  0
 18 19  2  0
 19 20  1  0
 20 21  2  0
  4 22  1  0
 22 23  1  0
 23  2  1  0
 13  8  1  0
 21 16  1  0
  1 24  1  0
  1 25  1  0
  1 26  1  0
  3 27  1  0
  9 28  1  0
 10 29  1  0
 11 30  1  0
 12 31  1  0
 17 32  1  0
 18 33  1  0
 19 34  1  0
 20 35  1  0
 21 36  1  0
 22 37  1  0
M  END
>  <UniqueID>  (93) 
87

>  <SMILES>  (93) 
Cc1cc(=NC(=O)c2ccccc2C(=O)c2ccccc2)[nH]o1

>  <Energy>  (93) 
85.87235519109869

>  <Genealogy>  (93) 
Cc1cc(=NC(=O)c2ccccc2C(=O)c2ccccc2)[nH]o1 (3D coordinates assigned)
Cc1cc(=NC(=O)c2ccccc2C(=O)c2ccccc2)[nH]o1 (optimized conformer: 85.87235519109869 kcal/mol)

>  <smiles>  (93) 
Cc1cc(=NC(=O)c2ccccc2C(=O)c2ccccc2)[nH]o1

>  <score_type>  (93) 
oracle

>  <origin>  (93) 
adg

>  <m_score__min__energy>  (93) 
-8.3000000000000007

>  <m_primary>  (93) 
energy

$$$$
93:0
     RDKit          3D

 27 28  0  0  1  0  0  0  0  0999 V2000
   55.1600   29.3420   44.8580 O   0  0  0  0  0  0  0  0  0  0  0  0
   56.0690   29.5800   44.0200 C   0  0  0  0  0  0  0  0  0  0  0  0
   56.7910   30.8420   43.9510 C   0  0  0  0  0  0  0  0  0  0  0  0
   57.3880   31.2340   42.7750 C   0  0  0  0  0  0  0  0  0  0  0  0
   58.0880   32.4420   42.6840 C   0  0  0  0  0  0  0  0  0  0  0  0
   58.1580   33.2070   43.7780 N   0  0  0  0  0  0  0  0  0  0  0  0
   57.5530   32.7840   44.9190 C   0  0  0  0  0  0  0  0  0  0  0  0
   57.6370   33.5430   45.9580 N   0  0  0  0  0  0  0  0  0  0  0  0
   59.1380   34.3530   46.3190 S   0  0  0  0  0  0  0  0  0  0  0  0
   58.8870   35.2920   47.4830 O   0  0  0  0  0  0  0  0  0  0  0  0
   59.5890   35.1170   45.1140 O   0  0  0  0  0  0  0  0  0  0  0  0
   60.2750   33.1200   46.8100 C   0  0  0  0  0  0  0  0  0  0  0  0
   59.9980   31.7810   46.6210 C   0  0  0  0  0  0  0  0  0  0  0  0
   60.8930   30.8290   47.0080 C   0  0  0  0  0  0  0  0  0  0  0  0
   62.0760   31.2290   47.5920 C   0  0  0  0  0  0  0  0  0  0  0  0
   62.3760   32.5580   47.7920 C   0  0  0  0  0  0  0  0  0  0  0  0
   64.0300   33.0510   48.6040 Br  0  0  0  0  0  0  0  0  0  0  0  0
   61.4720   33.5250   47.4010 C   0  0  0  0  0  0  0  0  0  0  0  0
   56.8870   31.6450   45.0260 N   0  0  0  0  0  0  0  0  0  0  0  0
   56.3320   28.7907   43.3004 H   0  0  0  0  0  0  0  0  0  0  0  0
   57.3135   30.5854   41.8897 H   0  0  0  0  0  0  0  0  0  0  0  0
   58.5653   32.7522   41.7427 H   0  0  0  0  0  0  0  0  0  0  0  0
   58.6720   34.1280   43.7630 H   0  0  0  0  0  0  0  0  0  0  0  0
   59.0482   31.4803   46.1547 H   0  0  0  0  0  0  0  0  0  0  0  0
   60.6756   29.7613   46.8572 H   0  0  0  0  0  0  0  0  0  0  0  0
   62.8013   30.4644   47.9073 H   0  0  0  0  0  0  0  0  0  0  0  0
   61.6908   34.5924   47.5522 H   0  0  0  0  0  0  0  0  0  0  0  0
  1  2  2  0
  2  3  1  0
  3  4  1  0
  4  5  2  0
  5  6  1  0
  6  7  1  0
  7  8  2  0
  8  9  1  0
  9 10  2  0
  9 11  2  0
  9 12  1  0
 12 13  2  0
 13 14  1  0
 14 15  2  0
 15 16  1  0
 16 17  1  0
 16 18  2  0
  7 19  1  0
 19  3  2  0
 18 12  1  0
  2 20  1  0
  4 21  1  0
  5 22  1  0
  6 23  1  0
 13 24  1  0
 14 25  1  0
 15 26  1  0
 18 27  1  0
M  END
>  <smiles>  (94) 
O=Cc1cc[nH]c(=NS(=O)(=O)c2cccc(Br)c2)n1

>  <score_type>  (94) 
oracle

>  <origin>  (94) 
adg

>  <m_score__min__energy>  (94) 
-8.0199999999999996

>  <m_primary>  (94) 
energy

$$$$
