0:0
     RDKit          3D

 23 24  0  0  0  0  0  0  0  0999 V2000
   54.7200   24.4880   47.1770 H   0  0  0  0  0  0  0  0  0  0  0  0
   54.6460   24.5070   46.1680 O   0  0  0  0  0  0  0  0  0  0  0  0
   55.5620   23.8510   45.3490 C   0  0  0  0  0  0  0  0  0  0  0  0
   55.1430   23.0420   44.3400 N   0  0  0  0  0  0  0  0  0  0  0  0
   56.1880   22.5180   43.6670 C   0  0  0  0  0  0  0  0  0  0  0  0
   56.0540   21.7390   42.6890 O   0  0  0  0  0  0  0  0  0  0  0  0
   57.6670   23.0290   44.2740 S   0  0  0  0  0  0  0  0  0  0  0  0
   56.9480   23.9580   45.4910 C   0  0  0  0  0  0  0  0  0  0  0  0
   57.6540   24.8570   46.4260 C   0  0  0  0  0  0  0  0  0  0  0  0
   57.4553   24.7289   47.5003 H   0  0  0  0  0  0  0  0  0  0  0  0
   58.5190   25.8180   46.0670 C   0  0  0  0  0  0  0  0  0  0  0  0
   59.5918   25.5850   46.1372 H   0  0  0  0  0  0  0  0  0  0  0  0
   58.1460   27.1640   45.5850 C   0  0  0  0  0  0  0  0  0  0  0  0
   59.1400   28.0100   45.0750 C   0  0  0  0  0  0  0  0  0  0  0  0
   60.1885   27.6775   45.0639 H   0  0  0  0  0  0  0  0  0  0  0  0
   58.8060   29.2750   44.5800 C   0  0  0  0  0  0  0  0  0  0  0  0
   59.5936   29.9408   44.1974 H   0  0  0  0  0  0  0  0  0  0  0  0
   57.4720   29.6940   44.5710 C   0  0  0  0  0  0  0  0  0  0  0  0
   57.2114   30.6922   44.1894 H   0  0  0  0  0  0  0  0  0  0  0  0
   56.4700   28.8440   45.0470 C   0  0  0  0  0  0  0  0  0  0  0  0
   55.1430   29.2550   45.0250 O   0  0  0  0  0  0  0  0  0  0  0  0
   56.8010   27.5790   45.5440 C   0  0  0  0  0  0  0  0  0  0  0  0
   56.0084   26.9065   45.9038 H   0  0  0  0  0  0  0  0  0  0  0  0
  1  2  1  0
  2  3  1  0
  3  4  1  0
  4  5  1  0
  5  6  2  0
  5  7  1  0
  7  8  1  0
  8  9  1  0
  9 10  1  0
  9 11  2  0
 11 12  1  0
 11 13  1  0
 13 14  2  0
 14 15  1  0
 14 16  1  0
 16 17  1  0
 16 18  2  0
 18 19  1  0
 18 20  1  0
 20 21  1  0
 20 22  2  0
 22 23  1  0
  8  3  2  0
 22 13  1  0
M  CHG  2   4  -1  21  -1
M  END
>  <UniqueID>  (1) 
1

>  <SMILES>  (1) 
O=c1[n-]c(O)c(/C=C\c2cccc([O-])c2)s1

>  <Energy>  (1) 
63.31397165374064

>  <Genealogy>  (1) 
O=c1[n-]c(O)c(C=Cc2cccc([O-])c2)s1 (protonated)
O=c1[n-]c(O)c(/C=C\c2cccc([O-])c2)s1 (cis-trans isomerization)
O=c1[n-]c(O)c(/C=C\c2cccc([O-])c2)s1 (3D coordinates assigned)
O=c1[n-]c(O)c(/C=C\c2cccc([O-])c2)s1 (optimized conformer: 63.31397165374064 kcal/mol)

>  <smiles>  (1) 
O=c1[nH]c(O)c(C=Cc2cccc(O)c2)s1

>  <score_type>  (1) 
oracle

>  <origin>  (1) 
adg

>  <m_score__min__energy>  (1) 
-11.76

>  <m_primary>  (1) 
energy

$$$$
1:0
     RDKit          3D

 46 49  0  0  0  0  0  0  0  0999 V2000
   54.7910   25.9020   45.6340 N   0  0  0  0  0  0  0  0  0  0  0  0
   54.6560   24.2140   45.9850 S   0  0  0  0  0  0  0  0  0  0  0  0
   53.2890   23.7260   45.5970 O   0  0  0  0  0  0  0  0  0  0  0  0
   54.8400   24.0250   47.4660 O   0  0  0  0  0  0  0  0  0  0  0  0
   55.8890   23.3000   45.1010 C   0  0  0  0  0  0  0  0  0  0  0  0
   55.5380   22.0630   44.5330 C   0  0  0  0  0  0  0  0  0  0  0  0
   56.4870   21.2950   43.8580 C   0  0  0  0  0  0  0  0  0  0  0  0
   57.8010   21.7500   43.7420 C   0  0  0  0  0  0  0  0  0  0  0  0
   58.1660   22.9800   44.2930 C   0  0  0  0  0  0  0  0  0  0  0  0
   57.2190   23.7700   44.9650 C   0  0  0  0  0  0  0  0  0  0  0  0
   57.6500   25.0730   45.5080 C   0  0  0  0  0  0  0  0  0  0  0  0
   57.3410   25.4210   46.8310 C   0  0  0  0  0  0  0  0  0  0  0  0
   57.7490   26.6530   47.3500 C   0  0  0  0  0  0  0  0  0  0  0  0
   58.4750   27.5520   46.5510 C   0  0  0  0  0  0  0  0  0  0  0  0
   58.9290   28.8660   47.1230 C   0  0  0  0  0  0  0  0  0  0  0  0
   58.5240   29.9620   46.2480 N   0  0  0  0  0  0  0  0  0  0  0  0
   57.3250   29.9160   45.4600 C   0  0  0  0  0  0  0  0  0  0  0  0
   56.5280   28.9450   45.5680 O   0  0  0  0  0  0  0  0  0  0  0  0
   57.0000   31.0410   44.5270 C   0  0  0  0  0  0  0  0  0  0  0  0
   57.6390   32.3070   45.0020 C   0  0  0  0  0  0  0  0  0  0  0  0
   58.1080   33.3300   44.1750 C   0  0  0  0  0  0  0  0  0  0  0  0
   58.6460   34.2310   45.0010 N   0  0  0  0  0  0  0  0  0  0  0  0
   59.2740   35.4210   44.9040 C   0  0  0  0  0  0  0  0  0  0  0  0
   59.6480   35.9080   46.1650 C   0  0  0  0  0  0  0  0  0  0  0  0
   59.1660   34.7920   47.3780 S   0  0  0  0  0  0  0  0  0  0  0  0
   58.5120   33.7680   46.2250 C   0  0  0  0  0  0  0  0  0  0  0  0
   57.9010   32.5720   46.3150 N   0  0  0  0  0  0  0  0  0  0  0  0
   58.8070   27.1920   45.2340 C   0  0  0  0  0  0  0  0  0  0  0  0
   58.3970   25.9590   44.7170 C   0  0  0  0  0  0  0  0  0  0  0  0
   53.8660   26.3350   45.8590 H   0  0  0  0  0  0  0  0  0  0  0  0
   54.5045   21.6969   44.6217 H   0  0  0  0  0  0  0  0  0  0  0  0
   56.1991   20.3295   43.4166 H   0  0  0  0  0  0  0  0  0  0  0  0
   58.5497   21.1394   43.2162 H   0  0  0  0  0  0  0  0  0  0  0  0
   59.2036   23.3331   44.2000 H   0  0  0  0  0  0  0  0  0  0  0  0
   56.7749   24.7211   47.4632 H   0  0  0  0  0  0  0  0  0  0  0  0
   57.5007   26.9197   48.3879 H   0  0  0  0  0  0  0  0  0  0  0  0
   58.4758   29.0066   48.1154 H   0  0  0  0  0  0  0  0  0  0  0  0
   60.0256   28.8610   47.2090 H   0  0  0  0  0  0  0  0  0  0  0  0
   59.1370   30.8070   46.1900 H   0  0  0  0  0  0  0  0  0  0  0  0
   57.3756   30.7994   43.5217 H   0  0  0  0  0  0  0  0  0  0  0  0
   55.9091   31.1788   44.4973 H   0  0  0  0  0  0  0  0  0  0  0  0
   58.0473   33.3824   43.0779 H   0  0  0  0  0  0  0  0  0  0  0  0
   59.4682   35.9434   43.9557 H   0  0  0  0  0  0  0  0  0  0  0  0
   60.1699   36.8587   46.3488 H   0  0  0  0  0  0  0  0  0  0  0  0
   59.3912   27.8822   44.6077 H   0  0  0  0  0  0  0  0  0  0  0  0
   58.6613   25.6825   43.6856 H   0  0  0  0  0  0  0  0  0  0  0  0
  1  2  1  0
  2  3  2  0
  2  4  2  0
  2  5  1  0
  5  6  2  0
  6  7  1  0
  7  8  2  0
  8  9  1  0
  9 10  2  0
 10 11  1  0
 11 12  2  0
 12 13  1  0
 13 14  2  0
 14 15  1  0
 15 16  1  0
 16 17  1  0
 17 18  2  0
 17 19  1  0
 19 20  1  0
 20 21  2  0
 21 22  1  0
 22 23  1  0
 23 24  2  0
 24 25  1  0
 25 26  1  0
 26 27  2  0
 14 28  1  0
 28 29  2  0
 10  5  1  0
 29 11  1  0
 27 20  1  0
 26 22  1  0
  1 30  1  0
  6 31  1  0
  7 32  1  0
  8 33  1  0
  9 34  1  0
 12 35  1  0
 13 36  1  0
 15 37  1  0
 15 38  1  0
 16 39  1  0
 19 40  1  0
 19 41  1  0
 21 42  1  0
 23 43  1  0
 24 44  1  0
 28 45  1  0
 29 46  1  0
M  CHG  1   1  -1
M  END
>  <UniqueID>  (2) 
2

>  <SMILES>  (2) 
[NH-]S(=O)(=O)c1ccccc1-c1ccc(CNC(=O)Cc2cn3ccsc3n2)cc1

>  <Energy>  (2) 
130.9710405955511

>  <Genealogy>  (2) 
[NH-]S(=O)(=O)c1ccccc1-c1ccc(CNC(=O)Cc2cn3ccsc3n2)cc1 (protonated)
[NH-]S(=O)(=O)c1ccccc1-c1ccc(CNC(=O)Cc2cn3ccsc3n2)cc1 (3D coordinates assigned)
[NH-]S(=O)(=O)c1ccccc1-c1ccc(CNC(=O)Cc2cn3ccsc3n2)cc1 (optimized conformer: 130.9710405955511 kcal/mol)

>  <smiles>  (2) 
NS(=O)(=O)c1ccccc1-c1ccc(CNC(=O)Cc2cn3ccsc3n2)cc1

>  <score_type>  (2) 
oracle

>  <origin>  (2) 
adg

>  <m_score__min__energy>  (2) 
-10.869999999999999

>  <m_primary>  (2) 
energy

$$$$
2:0
     RDKit          3D

 33 35  0  0  0  0  0  0  0  0999 V2000
   63.8170   33.8400   48.4570 C   0  0  0  0  0  0  0  0  0  0  0  0
   62.6420   33.3500   47.6750 C   0  0  0  0  0  0  0  0  0  0  0  0
   62.6730   32.1940   47.1740 O   0  0  0  0  0  0  0  0  0  0  0  0
   61.4590   34.1580   47.5810 N   0  0  0  0  0  0  0  0  0  0  0  0
   60.3490   33.8680   46.7130 C   0  0  0  0  0  0  0  0  0  0  0  0
   59.6640   34.8900   46.0340 C   0  0  0  0  0  0  0  0  0  0  0  0
   58.5750   34.5840   45.2160 C   0  0  0  0  0  0  0  0  0  0  0  0
   58.1500   33.2610   45.0750 C   0  0  0  0  0  0  0  0  0  0  0  0
   58.8070   32.2250   45.7640 C   0  0  0  0  0  0  0  0  0  0  0  0
   58.3560   30.8200   45.6300 C   0  0  0  0  0  0  0  0  0  0  0  0
   59.2200   29.7940   45.8650 N   0  0  0  0  0  0  0  0  0  0  0  0
   58.8160   28.5060   45.7450 C   0  0  0  0  0  0  0  0  0  0  0  0
   59.7120   27.4590   45.9890 C   0  0  0  0  0  0  0  0  0  0  0  0
   59.2890   26.1330   45.8620 C   0  0  0  0  0  0  0  0  0  0  0  0
   57.9690   25.8470   45.4930 C   0  0  0  0  0  0  0  0  0  0  0  0
   57.4000   24.0310   45.3220 Br  0  0  0  0  0  0  0  0  0  0  0  0
   57.0670   26.8890   45.2470 C   0  0  0  0  0  0  0  0  0  0  0  0
   57.4890   28.2240   45.3720 C   0  0  0  0  0  0  0  0  0  0  0  0
   56.6380   29.3170   45.1410 C   0  0  0  0  0  0  0  0  0  0  0  0
   55.4370   29.1400   44.8040 O   0  0  0  0  0  0  0  0  0  0  0  0
   57.0980   30.5560   45.2780 O   0  0  0  0  0  0  0  0  0  0  0  0
   59.9030   32.5430   46.5870 C   0  0  0  0  0  0  0  0  0  0  0  0
   63.6044   33.7513   49.5326 H   0  0  0  0  0  0  0  0  0  0  0  0
   64.7016   33.2358   48.2071 H   0  0  0  0  0  0  0  0  0  0  0  0
   64.0102   34.8937   48.2071 H   0  0  0  0  0  0  0  0  0  0  0  0
   61.3670   34.9600   48.2440 H   0  0  0  0  0  0  0  0  0  0  0  0
   59.9872   35.9353   46.1475 H   0  0  0  0  0  0  0  0  0  0  0  0
   58.0494   35.3882   44.6802 H   0  0  0  0  0  0  0  0  0  0  0  0
   57.2966   33.0276   44.4214 H   0  0  0  0  0  0  0  0  0  0  0  0
   60.7494   27.6797   46.2808 H   0  0  0  0  0  0  0  0  0  0  0  0
   59.9953   25.3115   46.0525 H   0  0  0  0  0  0  0  0  0  0  0  0
   56.0303   26.6635   44.9565 H   0  0  0  0  0  0  0  0  0  0  0  0
   60.4173   31.7425   47.1391 H   0  0  0  0  0  0  0  0  0  0  0  0
  1  2  1  0
  2  3  2  0
  2  4  1  0
  4  5  1  0
  5  6  2  0
  6  7  1  0
  7  8  2  0
  8  9  1  0
  9 10  1  0
 10 11  2  0
 11 12  1  0
 12 13  2  0
 13 14  1  0
 14 15  2  0
 15 16  1  0
 15 17  1  0
 17 18  2  0
 18 19  1  0
 19 20  2  0
 19 21  1  0
  9 22  2  0
 22  5  1  0
 21 10  1  0
 18 12  1  0
  1 23  1  0
  1 24  1  0
  1 25  1  0
  4 26  1  0
  6 27  1  0
  7 28  1  0
  8 29  1  0
 13 30  1  0
 14 31  1  0
 17 32  1  0
 22 33  1  0
M  END
>  <UniqueID>  (3) 
3

>  <SMILES>  (3) 
CC(=O)Nc1cccc(-c2nc3ccc(Br)cc3c(=O)o2)c1

>  <Energy>  (3) 
43.25528862947997

>  <Genealogy>  (3) 
CC(=O)Nc1cccc(-c2nc3ccc(Br)cc3c(=O)o2)c1 (3D coordinates assigned)
CC(=O)Nc1cccc(-c2nc3ccc(Br)cc3c(=O)o2)c1 (optimized conformer: 43.25528862947997 kcal/mol)

>  <smiles>  (3) 
CC(=O)Nc1cccc(-c2nc3ccc(Br)cc3c(=O)o2)c1

>  <score_type>  (3) 
oracle

>  <origin>  (3) 
adg

>  <m_score__min__energy>  (3) 
-8.1400000000000006

>  <m_primary>  (3) 
energy

$$$$
3:0
     RDKit          3D

 27 28  0  0  0  0  0  0  0  0999 V2000
   58.7450   27.7820   46.3200 O   0  0  0  0  0  0  0  0  0  0  0  0
   57.5280   27.4560   46.3050 C   0  0  0  0  0  0  0  0  0  0  0  0
   57.0700   26.2760   47.1030 C   0  0  0  0  0  0  0  0  0  0  0  0
   56.6580   25.1530   46.1820 C   0  0  0  0  0  0  0  0  0  0  0  0
   55.3690   25.1140   45.6220 C   0  0  0  0  0  0  0  0  0  0  0  0
   54.4510   26.1300   45.8840 O   0  0  0  0  0  0  0  0  0  0  0  0
   55.0090   24.0770   44.8190 N   0  0  0  0  0  0  0  0  0  0  0  0
   55.8710   23.0650   44.5520 C   0  0  0  0  0  0  0  0  0  0  0  0
   55.5150   22.1180   43.8040 O   0  0  0  0  0  0  0  0  0  0  0  0
   57.1150   23.0710   45.0930 N   0  0  0  0  0  0  0  0  0  0  0  0
   57.5260   24.0810   45.9020 C   0  0  0  0  0  0  0  0  0  0  0  0
   58.6840   24.0450   46.3940 O   0  0  0  0  0  0  0  0  0  0  0  0
   56.5600   28.2580   45.6170 N   0  0  0  0  0  0  0  0  0  0  0  0
   56.8250   29.2340   44.6000 C   0  0  0  0  0  0  0  0  0  0  0  0
   57.8790   30.1370   44.7930 C   0  0  0  0  0  0  0  0  0  0  0  0
   58.1590   31.1160   43.8350 C   0  0  0  0  0  0  0  0  0  0  0  0
   57.3750   31.2110   42.6810 C   0  0  0  0  0  0  0  0  0  0  0  0
   57.7240   32.4410   41.4810 Cl  0  0  0  0  0  0  0  0  0  0  0  0
   56.3060   30.3290   42.4910 C   0  0  0  0  0  0  0  0  0  0  0  0
   56.0250   29.3480   43.4460 C   0  0  0  0  0  0  0  0  0  0  0  0
   57.8915   25.9333   47.7493 H   0  0  0  0  0  0  0  0  0  0  0  0
   56.2071   26.5712   47.7180 H   0  0  0  0  0  0  0  0  0  0  0  0
   54.7550   27.0870   46.0050 H   0  0  0  0  0  0  0  0  0  0  0  0
   58.4907   30.0751   45.7051 H   0  0  0  0  0  0  0  0  0  0  0  0
   58.9967   31.8121   43.9891 H   0  0  0  0  0  0  0  0  0  0  0  0
   55.6844   30.4078   41.5869 H   0  0  0  0  0  0  0  0  0  0  0  0
   55.1772   28.6633   43.2962 H   0  0  0  0  0  0  0  0  0  0  0  0
  1  2  2  0
  2  3  1  0
  3  4  1  0
  4  5  2  0
  5  6  1  0
  5  7  1  0
  7  8  1  0
  8  9  2  0
  8 10  1  0
 10 11  1  0
 11 12  2  0
  2 13  1  0
 13 14  1  0
 14 15  2  0
 15 16  1  0
 16 17  2  0
 17 18  1  0
 17 19  1  0
 19 20  2  0
 11  4  1  0
 20 14  1  0
  3 21  1  0
  3 22  1  0
  6 23  1  0
 15 24  1  0
 16 25  1  0
 19 26  1  0
 20 27  1  0
M  CHG  3   7  -1  10  -1  13  -1
M  END
>  <UniqueID>  (4) 
4

>  <SMILES>  (4) 
O=C(Cc1c(O)[n-]c(=O)[n-]c1=O)[N-]c1ccc(Cl)cc1

>  <Energy>  (4) 
31.219483233199874

>  <Genealogy>  (4) 
O=C(Cc1c(O)[n-]c(=O)[n-]c1=O)[N-]c1ccc(Cl)cc1 (protonated)
O=C(Cc1c(O)[n-]c(=O)[n-]c1=O)[N-]c1ccc(Cl)cc1 (3D coordinates assigned)
O=C(Cc1c(O)[n-]c(=O)[n-]c1=O)[N-]c1ccc(Cl)cc1 (optimized conformer: 31.219483233199874 kcal/mol)

>  <smiles>  (4) 
O=C(Cc1c(O)[nH]c(=O)[nH]c1=O)Nc1ccc(Cl)cc1

>  <score_type>  (4) 
oracle

>  <origin>  (4) 
adg

>  <m_score__min__energy>  (4) 
-13.050000000000001

>  <m_primary>  (4) 
energy

$$$$
4:0
     RDKit          3D

 32 33  0  0  0  0  0  0  0  0999 V2000
   55.4220   29.7400   43.7210 C   0  0  0  0  0  0  0  0  0  0  0  0
   56.6110   30.0960   44.5530 C   0  0  0  0  0  0  0  0  0  0  0  0
   56.9030   31.3910   44.8540 N   0  0  0  0  0  0  0  0  0  0  0  0
   58.0150   31.5090   45.6170 C   0  0  0  0  0  0  0  0  0  0  0  0
   58.5550   32.8080   46.0780 C   0  0  0  0  0  0  0  0  0  0  0  0
   58.7900   33.0300   47.4480 C   0  0  0  0  0  0  0  0  0  0  0  0
   59.3000   34.2540   47.8900 C   0  0  0  0  0  0  0  0  0  0  0  0
   59.5790   35.2700   46.9750 C   0  0  0  0  0  0  0  0  0  0  0  0
   59.3490   35.0640   45.6120 C   0  0  0  0  0  0  0  0  0  0  0  0
   58.8390   33.8410   45.1640 C   0  0  0  0  0  0  0  0  0  0  0  0
   58.6780   29.9940   45.9480 S   0  0  0  0  0  0  0  0  0  0  0  0
   57.4940   29.1580   45.0950 C   0  0  0  0  0  0  0  0  0  0  0  0
   57.4730   27.6700   44.8940 C   0  0  0  0  0  0  0  0  0  0  0  0
   58.3550   26.9560   45.9190 C   0  0  0  0  0  0  0  0  0  0  0  0
   57.5430   26.4950   47.0430 N   0  0  0  0  0  0  0  0  0  0  0  0
   56.2980   25.4300   46.4680 S   0  0  0  0  0  0  0  0  0  0  0  0
   54.9060   26.3470   46.0080 N   0  0  0  0  0  0  0  0  0  0  0  0
   56.8090   24.6750   45.2750 O   0  0  0  0  0  0  0  0  0  0  0  0
   55.9200   24.4540   47.5460 O   0  0  0  0  0  0  0  0  0  0  0  0
   54.5770   29.4870   44.3783 H   0  0  0  0  0  0  0  0  0  0  0  0
   55.1492   30.5959   43.0861 H   0  0  0  0  0  0  0  0  0  0  0  0
   55.6644   28.8751   43.0861 H   0  0  0  0  0  0  0  0  0  0  0  0
   58.5708   32.2348   48.1757 H   0  0  0  0  0  0  0  0  0  0  0  0
   59.4820   34.4169   48.9625 H   0  0  0  0  0  0  0  0  0  0  0  0
   59.9797   36.2323   47.3263 H   0  0  0  0  0  0  0  0  0  0  0  0
   59.5693   35.8646   44.8906 H   0  0  0  0  0  0  0  0  0  0  0  0
   58.6585   33.6850   44.0902 H   0  0  0  0  0  0  0  0  0  0  0  0
   56.4391   27.3093   44.9985 H   0  0  0  0  0  0  0  0  0  0  0  0
   57.8632   27.4509   43.8891 H   0  0  0  0  0  0  0  0  0  0  0  0
   58.8410   26.0920   45.4423 H   0  0  0  0  0  0  0  0  0  0  0  0
   59.1182   27.6566   46.2886 H   0  0  0  0  0  0  0  0  0  0  0  0
   55.1550   27.3550   46.1220 H   0  0  0  0  0  0  0  0  0  0  0  0
  1  2  1  0
  2  3  1  0
  3  4  2  0
  4  5  1  0
  5  6  2  0
  6  7  1  0
  7  8  2  0
  8  9  1  0
  9 10  2  0
  4 11  1  0
 11 12  1  0
 12 13  1  0
 13 14  1  0
 14 15  1  0
 15 16  1  0
 16 17  1  0
 16 18  2  0
 16 19  2  0
 12  2  2  0
 10  5  1  0
  1 20  1  0
  1 21  1  0
  1 22  1  0
  6 23  1  0
  7 24  1  0
  8 25  1  0
  9 26  1  0
 10 27  1  0
 13 28  1  0
 13 29  1  0
 14 30  1  0
 14 31  1  0
 17 32  1  0
M  CHG  2  15  -1  17  -1
M  END
>  <UniqueID>  (5) 
5

>  <SMILES>  (5) 
Cc1nc(-c2ccccc2)sc1CC[N-]S([NH-])(=O)=O

>  <Energy>  (5) 
53.883902126106975

>  <Genealogy>  (5) 
Cc1nc(-c2ccccc2)sc1CC[N-]S([NH-])(=O)=O (protonated)
Cc1nc(-c2ccccc2)sc1CC[N-]S([NH-])(=O)=O (3D coordinates assigned)
Cc1nc(-c2ccccc2)sc1CC[N-]S([NH-])(=O)=O (optimized conformer: 53.883902126106975 kcal/mol)

>  <smiles>  (5) 
Cc1nc(-c2ccccc2)sc1CCNS(N)(=O)=O

>  <score_type>  (5) 
oracle

>  <origin>  (5) 
adg

>  <m_score__min__energy>  (5) 
-12.58

>  <m_primary>  (5) 
energy

$$$$
5:0
     RDKit          3D

 23 24  0  0  0  0  0  0  0  0999 V2000
   61.9130   30.8420   47.6890 O   0  0  0  0  0  0  0  0  0  0  0  0
   60.9400   30.9740   46.8970 C   0  0  0  0  0  0  0  0  0  0  0  0
   60.5620   29.8990   46.0270 N   0  0  0  0  0  0  0  0  0  0  0  0
   59.2630   29.2980   45.9210 C   0  0  0  0  0  0  0  0  0  0  0  0
   59.0520   28.0470   46.5130 C   0  0  0  0  0  0  0  0  0  0  0  0
   57.8080   27.4160   46.4190 C   0  0  0  0  0  0  0  0  0  0  0  0
   57.5510   25.7160   47.2570 Br  0  0  0  0  0  0  0  0  0  0  0  0
   56.7630   28.0300   45.7130 C   0  0  0  0  0  0  0  0  0  0  0  0
   55.5240   27.4050   45.6190 O   0  0  0  0  0  0  0  0  0  0  0  0
   56.9730   29.2710   45.0970 C   0  0  0  0  0  0  0  0  0  0  0  0
   55.5720   30.1160   44.1050 Br  0  0  0  0  0  0  0  0  0  0  0  0
   58.2200   29.8990   45.1950 C   0  0  0  0  0  0  0  0  0  0  0  0
   60.2280   32.2640   46.8360 C   0  0  0  0  0  0  0  0  0  0  0  0
   60.9110   33.4720   46.6270 C   0  0  0  0  0  0  0  0  0  0  0  0
   60.2130   34.6370   46.5770 N   0  0  0  0  0  0  0  0  0  0  0  0
   58.8630   34.6570   46.7270 C   0  0  0  0  0  0  0  0  0  0  0  0
   58.1790   33.4590   46.9340 C   0  0  0  0  0  0  0  0  0  0  0  0
   58.8750   32.2930   46.9840 N   0  0  0  0  0  0  0  0  0  0  0  0
   59.8724   27.5561   47.0570 H   0  0  0  0  0  0  0  0  0  0  0  0
   58.3848   30.8681   44.7013 H   0  0  0  0  0  0  0  0  0  0  0  0
   62.0041   33.4759   46.5045 H   0  0  0  0  0  0  0  0  0  0  0  0
   58.3141   35.6094   46.6856 H   0  0  0  0  0  0  0  0  0  0  0  0
   57.0858   33.4582   47.0557 H   0  0  0  0  0  0  0  0  0  0  0  0
  1  2  2  0
  2  3  1  0
  3  4  1  0
  4  5  2  0
  5  6  1  0
  6  7  1  0
  6  8  2  0
  8  9  1  0
  8 10  1  0
 10 11  1  0
 10 12  2  0
  2 13  1  0
 13 14  2  0
 14 15  1  0
 15 16  2  0
 16 17  1  0
 17 18  2  0
 12  4  1  0
 18 13  1  0
  5 19  1  0
 12 20  1  0
 14 21  1  0
 16 22  1  0
 17 23  1  0
M  CHG  2   3  -1   9  -1
M  END
>  <UniqueID>  (6) 
6

>  <SMILES>  (6) 
O=C([N-]c1cc(Br)c([O-])c(Br)c1)c1cnccn1

>  <Energy>  (6) 
30.00128848962065

>  <Genealogy>  (6) 
O=C([N-]c1cc(Br)c([O-])c(Br)c1)c1cnccn1 (protonated)
O=C([N-]c1cc(Br)c([O-])c(Br)c1)c1cnccn1 (3D coordinates assigned)
O=C([N-]c1cc(Br)c([O-])c(Br)c1)c1cnccn1 (optimized conformer: 30.00128848962065 kcal/mol)

>  <smiles>  (6) 
O=C(Nc1cc(Br)c(O)c(Br)c1)c1cnccn1

>  <score_type>  (6) 
oracle

>  <origin>  (6) 
adg

>  <m_score__min__energy>  (6) 
-10.52

>  <m_primary>  (6) 
energy

$$$$
6:0
     RDKit          3D

 63 65  0  0  0  0  0  0  0  0999 V2000
   55.6350   28.6120   44.8900 O   0  0  0  0  0  0  0  0  0  0  0  0
   56.5150   29.4650   45.1870 C   0  0  0  0  0  0  0  0  0  0  0  0
   57.7460   29.0630   45.9560 C   0  0  0  0  0  0  0  0  0  0  0  0
   59.0470   29.6180   45.3510 C   0  0  0  0  0  0  0  0  0  0  0  0
   60.2550   29.4320   46.2880 C   0  0  0  0  0  0  0  0  0  0  0  0
   60.4190   30.5950   47.2840 C   0  0  0  0  0  0  0  0  0  0  0  0
   59.8160   30.2590   48.5920 N   0  0  0  0  0  0  0  0  0  0  0  0
   60.2880   29.1890   49.3010 C   0  0  0  0  0  0  0  0  0  0  0  0
   61.1380   28.4020   48.7990 O   0  0  0  0  0  0  0  0  0  0  0  0
   59.8540   28.9650   50.6000 C   0  0  0  0  0  0  0  0  0  0  0  0
   58.9640   29.8560   51.1850 C   0  0  0  0  0  0  0  0  0  0  0  0
   58.6690   29.6670   52.5400 O   0  0  0  0  0  0  0  0  0  0  0  0
   58.4340   30.8860   50.4420 N   0  0  0  0  0  0  0  0  0  0  0  0
   57.5220   31.8820   51.0400 C   0  0  0  0  0  0  0  0  0  0  0  0
   58.2650   32.6590   52.0810 C   0  0  0  0  0  0  0  0  0  0  0  0
   58.2810   32.2510   53.2730 O   0  0  0  0  0  0  0  0  0  0  0  0
   59.0510   33.7880   51.6850 N   0  0  0  0  0  0  0  0  0  0  0  0
   59.8060   33.8630   50.4390 C   0  0  0  0  0  0  0  0  0  0  0  0
   61.2250   33.3090   50.6050 C   0  0  0  0  0  0  0  0  0  0  0  0
   61.9220   33.2040   49.2700 C   0  0  0  0  0  0  0  0  0  0  0  0
   63.1080   32.4600   49.1470 C   0  0  0  0  0  0  0  0  0  0  0  0
   63.7680   32.3780   47.9190 C   0  0  0  0  0  0  0  0  0  0  0  0
   63.2510   33.0380   46.8010 C   0  0  0  0  0  0  0  0  0  0  0  0
   62.0700   33.7780   46.9120 C   0  0  0  0  0  0  0  0  0  0  0  0
   61.4050   33.8610   48.1400 C   0  0  0  0  0  0  0  0  0  0  0  0
   58.8570   31.0730   49.1450 C   0  0  0  0  0  0  0  0  0  0  0  0
   58.3830   32.0290   48.4660 O   0  0  0  0  0  0  0  0  0  0  0  0
   56.3240   30.8420   44.8460 N   0  0  0  0  0  0  0  0  0  0  0  0
   57.2220   31.5920   43.9740 C   0  0  0  0  0  0  0  0  0  0  0  0
   57.8530   32.7270   44.7330 C   0  0  0  0  0  0  0  0  0  0  0  0
   57.3900   33.0740   46.0140 C   0  0  0  0  0  0  0  0  0  0  0  0
   57.9550   34.1550   46.6990 C   0  0  0  0  0  0  0  0  0  0  0  0
   58.9810   34.9000   46.1100 C   0  0  0  0  0  0  0  0  0  0  0  0
   59.4450   34.5640   44.8350 C   0  0  0  0  0  0  0  0  0  0  0  0
   58.8830   33.4840   44.1470 C   0  0  0  0  0  0  0  0  0  0  0  0
   57.6522   29.4370   46.9862 H   0  0  0  0  0  0  0  0  0  0  0  0
   57.8105   27.9655   45.9189 H   0  0  0  0  0  0  0  0  0  0  0  0
   59.2490   29.0935   44.4055 H   0  0  0  0  0  0  0  0  0  0  0  0
   58.9092   30.6975   45.1909 H   0  0  0  0  0  0  0  0  0  0  0  0
   60.1201   28.4992   46.8552 H   0  0  0  0  0  0  0  0  0  0  0  0
   61.1591   29.4004   45.6623 H   0  0  0  0  0  0  0  0  0  0  0  0
   61.4905   30.8011   47.4237 H   0  0  0  0  0  0  0  0  0  0  0  0
   59.9071   31.4800   46.8781 H   0  0  0  0  0  0  0  0  0  0  0  0
   60.2119   28.0893   51.1613 H   0  0  0  0  0  0  0  0  0  0  0  0
   58.5830   30.4090   53.2180 H   0  0  0  0  0  0  0  0  0  0  0  0
   57.1589   32.5657   50.2585 H   0  0  0  0  0  0  0  0  0  0  0  0
   56.6632   31.3710   51.4998 H   0  0  0  0  0  0  0  0  0  0  0  0
   59.2823   33.2781   49.6685 H   0  0  0  0  0  0  0  0  0  0  0  0
   59.8817   34.9205   50.1457 H   0  0  0  0  0  0  0  0  0  0  0  0
   61.7997   33.9809   51.2594 H   0  0  0  0  0  0  0  0  0  0  0  0
   61.1604   32.3041   51.0477 H   0  0  0  0  0  0  0  0  0  0  0  0
   63.5192   31.9387   50.0240 H   0  0  0  0  0  0  0  0  0  0  0  0
   64.6957   31.7934   47.8317 H   0  0  0  0  0  0  0  0  0  0  0  0
   63.7727   32.9754   45.8346 H   0  0  0  0  0  0  0  0  0  0  0  0
   61.6626   34.2963   46.0314 H   0  0  0  0  0  0  0  0  0  0  0  0
   60.4746   34.4422   48.2215 H   0  0  0  0  0  0  0  0  0  0  0  0
   58.0102   30.9216   43.6007 H   0  0  0  0  0  0  0  0  0  0  0  0
   56.6461   32.0000   43.1303 H   0  0  0  0  0  0  0  0  0  0  0  0
   56.5802   32.4932   46.4797 H   0  0  0  0  0  0  0  0  0  0  0  0
   57.5913   34.4193   47.7029 H   0  0  0  0  0  0  0  0  0  0  0  0
   59.4230   35.7504   46.6498 H   0  0  0  0  0  0  0  0  0  0  0  0
   60.2530   35.1497   44.3723 H   0  0  0  0  0  0  0  0  0  0  0  0
   59.2485   33.2253   43.1423 H   0  0  0  0  0  0  0  0  0  0  0  0
  1  2  2  0
  2  3  1  0
  3  4  1  0
  4  5  1  0
  5  6  1  0
  6  7  1  0
  7  8  1  0
  8  9  2  0
  8 10  1  0
 10 11  2  0
 11 12  1  0
 11 13  1  0
 13 14  1  0
 14 15  1  0
 15 16  2  0
 15 17  1  0
 17 18  1  0
 18 19  1  0
 19 20  1  0
 20 21  2  0
 21 22  1  0
 22 23  2  0
 23 24  1  0
 24 25  2  0
 13 26  1  0
 26 27  2  0
  2 28  1  0
 28 29  1  0
 29 30  1  0
 30 31  2  0
 31 32  1  0
 32 33  2  0
 33 34  1  0
 34 35  2  0
 26  7  1  0
 35 30  1  0
 25 20  1  0
  3 36  1  0
  3 37  1  0
  4 38  1  0
  4 39  1  0
  5 40  1  0
  5 41  1  0
  6 42  1  0
  6 43  1  0
 10 44  1  0
 12 45  1  0
 14 46  1  0
 14 47  1  0
 18 48  1  0
 18 49  1  0
 19 50  1  0
 19 51  1  0
 21 52  1  0
 22 53  1  0
 23 54  1  0
 24 55  1  0
 25 56  1  0
 29 57  1  0
 29 58  1  0
 31 59  1  0
 32 60  1  0
 33 61  1  0
 34 62  1  0
 35 63  1  0
M  CHG  2  17  -1  28  -1
M  END
>  <UniqueID>  (7) 
7

>  <SMILES>  (7) 
O=C(CCCCn1c(=O)cc(O)n(CC(=O)[N-]CCc2ccccc2)c1=O)[N-]Cc1ccccc1

>  <Energy>  (7) 
59.61237010180789

>  <Genealogy>  (7) 
O=C(CCCCn1c(=O)cc(O)n(CC(=O)[N-]CCc2ccccc2)c1=O)[N-]Cc1ccccc1 (protonated)
O=C(CCCCn1c(=O)cc(O)n(CC(=O)[N-]CCc2ccccc2)c1=O)[N-]Cc1ccccc1 (3D coordinates assigned)
O=C(CCCCn1c(=O)cc(O)n(CC(=O)[N-]CCc2ccccc2)c1=O)[N-]Cc1ccccc1 (optimized conformer: 59.61237010180789 kcal/mol)

>  <smiles>  (7) 
O=C(CCCCn1c(=O)cc(O)n(CC(=O)NCCc2ccccc2)c1=O)NCc1ccccc1

>  <score_type>  (7) 
oracle

>  <origin>  (7) 
adg

>  <m_score__min__energy>  (7) 
-11.24

>  <m_primary>  (7) 
energy

$$$$
7:0
     RDKit          3D

 56 58  0  0  0  0  0  0  0  0999 V2000
   62.6900   33.3780   51.9380 C   0  0  0  0  0  0  0  0  0  0  0  0
   63.3100   32.4720   51.0340 O   0  0  0  0  0  0  0  0  0  0  0  0
   63.2550   32.5770   49.6330 C   0  0  0  0  0  0  0  0  0  0  0  0
   64.1770   33.3600   48.9080 C   0  0  0  0  0  0  0  0  0  0  0  0
   64.0880   33.4510   47.5170 C   0  0  0  0  0  0  0  0  0  0  0  0
   63.0820   32.7680   46.8340 C   0  0  0  0  0  0  0  0  0  0  0  0
   62.1620   31.9890   47.5380 C   0  0  0  0  0  0  0  0  0  0  0  0
   62.2450   31.8800   48.9360 C   0  0  0  0  0  0  0  0  0  0  0  0
   61.2340   31.0510   49.6870 C   0  0  0  0  0  0  0  0  0  0  0  0
   60.2550   31.9160   50.3350 N   0  0  0  0  0  0  0  0  0  0  0  0
   59.8570   33.1890   49.8160 C   0  0  0  0  0  0  0  0  0  0  0  0
   59.9840   34.2230   50.5280 O   0  0  0  0  0  0  0  0  0  0  0  0
   59.2980   33.2940   48.4480 C   0  0  0  0  0  0  0  0  0  0  0  0
   59.7710   34.2710   47.5540 C   0  0  0  0  0  0  0  0  0  0  0  0
   59.2570   34.3560   46.2560 C   0  0  0  0  0  0  0  0  0  0  0  0
   58.2530   33.4720   45.8330 C   0  0  0  0  0  0  0  0  0  0  0  0
   57.7330   33.5290   44.4240 C   0  0  0  0  0  0  0  0  0  0  0  0
   57.5780   31.8850   43.7490 S   0  0  0  0  0  0  0  0  0  0  0  0
   58.8860   31.1560   43.8960 O   0  0  0  0  0  0  0  0  0  0  0  0
   57.2170   31.9780   42.2920 O   0  0  0  0  0  0  0  0  0  0  0  0
   56.3270   31.0390   44.6060 N   0  0  0  0  0  0  0  0  0  0  0  0
   56.1530   29.7020   44.0340 C   0  0  0  0  0  0  0  0  0  0  0  0
   56.6060   28.6300   45.0300 C   0  0  0  0  0  0  0  0  0  0  0  0
   58.0550   28.8110   45.4060 C   0  0  0  0  0  0  0  0  0  0  0  0
   58.4020   29.3440   46.6600 C   0  0  0  0  0  0  0  0  0  0  0  0
   59.7480   29.4810   47.0180 C   0  0  0  0  0  0  0  0  0  0  0  0
   60.7550   29.0830   46.1300 C   0  0  0  0  0  0  0  0  0  0  0  0
   60.4160   28.5410   44.8860 C   0  0  0  0  0  0  0  0  0  0  0  0
   59.0710   28.4020   44.5250 C   0  0  0  0  0  0  0  0  0  0  0  0
   57.7790   32.4950   46.7210 C   0  0  0  0  0  0  0  0  0  0  0  0
   58.2950   32.4070   48.0170 C   0  0  0  0  0  0  0  0  0  0  0  0
   62.9025   33.0675   52.9717 H   0  0  0  0  0  0  0  0  0  0  0  0
   63.0852   34.3908   51.7708 H   0  0  0  0  0  0  0  0  0  0  0  0
   61.6028   33.3764   51.7708 H   0  0  0  0  0  0  0  0  0  0  0  0
   64.9714   33.9026   49.4414 H   0  0  0  0  0  0  0  0  0  0  0  0
   64.8126   34.0624   46.9593 H   0  0  0  0  0  0  0  0  0  0  0  0
   63.0133   32.8432   45.7387 H   0  0  0  0  0  0  0  0  0  0  0  0
   61.3671   31.4572   46.9946 H   0  0  0  0  0  0  0  0  0  0  0  0
   60.7179   30.3817   48.9829 H   0  0  0  0  0  0  0  0  0  0  0  0
   61.7541   30.4594   50.4548 H   0  0  0  0  0  0  0  0  0  0  0  0
   60.5520   34.9745   47.8783 H   0  0  0  0  0  0  0  0  0  0  0  0
   59.6417   35.1194   45.5637 H   0  0  0  0  0  0  0  0  0  0  0  0
   56.7467   34.0160   44.4215 H   0  0  0  0  0  0  0  0  0  0  0  0
   58.4402   34.1022   43.8064 H   0  0  0  0  0  0  0  0  0  0  0  0
   56.6560   30.9290   45.5920 H   0  0  0  0  0  0  0  0  0  0  0  0
   55.0910   29.5467   43.7929 H   0  0  0  0  0  0  0  0  0  0  0  0
   56.7640   29.6223   43.1228 H   0  0  0  0  0  0  0  0  0  0  0  0
   55.9885   28.7000   45.9377 H   0  0  0  0  0  0  0  0  0  0  0  0
   56.4900   27.6439   44.5564 H   0  0  0  0  0  0  0  0  0  0  0  0
   57.6135   29.6541   47.3615 H   0  0  0  0  0  0  0  0  0  0  0  0
   60.0153   29.9020   47.9985 H   0  0  0  0  0  0  0  0  0  0  0  0
   61.8125   29.1966   46.4108 H   0  0  0  0  0  0  0  0  0  0  0  0
   61.2072   28.2237   44.1908 H   0  0  0  0  0  0  0  0  0  0  0  0
   58.8079   27.9709   43.5478 H   0  0  0  0  0  0  0  0  0  0  0  0
   56.9964   31.7939   46.3954 H   0  0  0  0  0  0  0  0  0  0  0  0
   57.9138   31.6382   48.7052 H   0  0  0  0  0  0  0  0  0  0  0  0
  1  2  1  0
  2  3  1  0
  3  4  2  0
  4  5  1  0
  5  6  2  0
  6  7  1  0
  7  8  2  0
  8  9  1  0
  9 10  1  0
 10 11  1  0
 11 12  2  0
 11 13  1  0
 13 14  2  0
 14 15  1  0
 15 16  2  0
 16 17  1  0
 17 18  1  0
 18 19  2  0
 18 20  2  0
 18 21  1  0
 21 22  1  0
 22 23  1  0
 23 24  1  0
 24 25  2  0
 25 26  1  0
 26 27  2  0
 27 28  1  0
 28 29  2  0
 16 30  1  0
 30 31  2  0
  8  3  1  0
 31 13  1  0
 29 24  1  0
  1 32  1  0
  1 33  1  0
  1 34  1  0
  4 35  1  0
  5 36  1  0
  6 37  1  0
  7 38  1  0
  9 39  1  0
  9 40  1  0
 14 41  1  0
 15 42  1  0
 17 43  1  0
 17 44  1  0
 21 45  1  0
 22 46  1  0
 22 47  1  0
 23 48  1  0
 23 49  1  0
 25 50  1  0
 26 51  1  0
 27 52  1  0
 28 53  1  0
 29 54  1  0
 30 55  1  0
 31 56  1  0
M  CHG  1  10  -1
M  END
>  <UniqueID>  (8) 
8

>  <SMILES>  (8) 
COc1ccccc1C[N-]C(=O)c1ccc(CS(=O)(=O)NCCc2ccccc2)cc1

>  <Energy>  (8) 
46.25528431389832

>  <Genealogy>  (8) 
COc1ccccc1C[N-]C(=O)c1ccc(CS(=O)(=O)NCCc2ccccc2)cc1 (protonated)
COc1ccccc1C[N-]C(=O)c1ccc(CS(=O)(=O)NCCc2ccccc2)cc1 (3D coordinates assigned)
COc1ccccc1C[N-]C(=O)c1ccc(CS(=O)(=O)NCCc2ccccc2)cc1 (optimized conformer: 46.25528431389832 kcal/mol)

>  <smiles>  (8) 
COc1ccccc1CNC(=O)c1ccc(CS(=O)(=O)NCCc2ccccc2)cc1

>  <score_type>  (8) 
oracle

>  <origin>  (8) 
adg

>  <m_score__min__energy>  (8) 
-11.199999999999999

>  <m_primary>  (8) 
energy

$$$$
8:0
     RDKit          3D

 51 53  0  0  0  0  0  0  0  0999 V2000
   56.2620   28.7420   45.2240 N   0  0  0  0  0  0  0  0  0  0  0  0
   56.3660   30.2170   44.3320 S   0  0  0  0  0  0  0  0  0  0  0  0
   56.8550   29.9300   42.9400 O   0  0  0  0  0  0  0  0  0  0  0  0
   54.9980   30.8310   44.2360 O   0  0  0  0  0  0  0  0  0  0  0  0
   57.4730   31.3330   45.1490 C   0  0  0  0  0  0  0  0  0  0  0  0
   57.2160   32.7120   45.0860 C   0  0  0  0  0  0  0  0  0  0  0  0
   58.0840   33.6250   45.6870 C   0  0  0  0  0  0  0  0  0  0  0  0
   59.2210   33.1750   46.3560 C   0  0  0  0  0  0  0  0  0  0  0  0
   59.4880   31.8070   46.4350 C   0  0  0  0  0  0  0  0  0  0  0  0
   58.6180   30.8750   45.8480 C   0  0  0  0  0  0  0  0  0  0  0  0
   58.9290   29.4410   45.9840 C   0  0  0  0  0  0  0  0  0  0  0  0
   59.5450   28.7460   44.9320 C   0  0  0  0  0  0  0  0  0  0  0  0
   59.8280   27.3840   45.0600 C   0  0  0  0  0  0  0  0  0  0  0  0
   59.4990   26.6990   46.2400 C   0  0  0  0  0  0  0  0  0  0  0  0
   59.7720   25.2200   46.3600 C   0  0  0  0  0  0  0  0  0  0  0  0
   58.6240   24.3790   45.7540 C   0  0  1  0  0  0  0  0  0  0  0  0
   57.7560   23.7000   46.8320 C   0  0  0  0  0  0  0  0  0  0  0  0
   56.6340   24.5520   47.2510 N   0  0  0  0  0  0  0  0  0  0  0  0
   55.4610   23.7320   47.5690 C   0  0  0  0  0  0  0  0  0  0  0  0
   54.4680   23.7680   46.4440 C   0  0  0  0  0  0  0  0  0  0  0  0
   53.8490   22.6780   45.8600 C   0  0  0  0  0  0  0  0  0  0  0  0
   53.1200   23.0790   44.8390 O   0  0  0  0  0  0  0  0  0  0  0  0
   53.2390   24.3820   44.7080 C   0  0  0  0  0  0  0  0  0  0  0  0
   54.0860   24.8520   45.6840 C   0  0  0  0  0  0  0  0  0  0  0  0
   54.4850   26.1730   45.8550 O   0  0  0  0  0  0  0  0  0  0  0  0
   57.7710   25.1700   44.7860 C   0  0  0  0  0  0  0  0  0  0  0  0
   56.8490   26.1640   45.2400 N   0  0  0  0  0  0  0  0  0  0  0  0
   57.8600   24.9330   43.5520 O   0  0  0  0  0  0  0  0  0  0  0  0
   58.8650   27.3920   47.2850 C   0  0  0  0  0  0  0  0  0  0  0  0
   58.5800   28.7540   47.1560 C   0  0  0  0  0  0  0  0  0  0  0  0
   55.5250   28.1590   44.7600 H   0  0  0  0  0  0  0  0  0  0  0  0
   56.3223   33.0762   44.5581 H   0  0  0  0  0  0  0  0  0  0  0  0
   57.8702   34.7026   45.6325 H   0  0  0  0  0  0  0  0  0  0  0  0
   59.9076   33.8974   46.8215 H   0  0  0  0  0  0  0  0  0  0  0  0
   60.3878   31.4565   46.9618 H   0  0  0  0  0  0  0  0  0  0  0  0
   59.8058   29.2753   44.0037 H   0  0  0  0  0  0  0  0  0  0  0  0
   60.3113   26.8455   44.2315 H   0  0  0  0  0  0  0  0  0  0  0  0
   60.7059   24.9849   45.8285 H   0  0  0  0  0  0  0  0  0  0  0  0
   59.8549   24.9706   47.4281 H   0  0  0  0  0  0  0  0  0  0  0  0
   59.1145   23.5804   45.1781 H   0  0  0  0  0  0  0  0  0  0  0  0
   57.3556   22.7596   46.4254 H   0  0  0  0  0  0  0  0  0  0  0  0
   58.3895   23.5145   47.7119 H   0  0  0  0  0  0  0  0  0  0  0  0
   56.9160   25.0470   48.1290 H   0  0  0  0  0  0  0  0  0  0  0  0
   55.7811   22.6928   47.7350 H   0  0  0  0  0  0  0  0  0  0  0  0
   54.9838   24.1336   48.4751 H   0  0  0  0  0  0  0  0  0  0  0  0
   53.9500   21.6357   46.1966 H   0  0  0  0  0  0  0  0  0  0  0  0
   52.7420   24.9959   43.9425 H   0  0  0  0  0  0  0  0  0  0  0  0
   56.2660   26.6920   44.5500 H   0  0  0  0  0  0  0  0  0  0  0  0
   56.7440   26.3880   46.2540 H   0  0  0  0  0  0  0  0  0  0  0  0
   58.5919   26.8603   48.2084 H   0  0  0  0  0  0  0  0  0  0  0  0
   58.0801   29.2893   47.9767 H   0  0  0  0  0  0  0  0  0  0  0  0
  1  2  1  0
  2  3  2  0
  2  4  2  0
  2  5  1  0
  5  6  2  0
  6  7  1  0
  7  8  2  0
  8  9  1  0
  9 10  2  0
 10 11  1  0
 11 12  2  0
 12 13  1  0
 13 14  2  0
 14 15  1  0
 15 16  1  0
 16 17  1  0
 17 18  1  0
 18 19  1  0
 19 20  1  0
 20 21  2  0
 21 22  1  0
 22 23  1  0
 23 24  2  0
 24 25  1  0
 16 26  1  0
 26 27  1  0
 26 28  2  0
 14 29  1  0
 29 30  2  0
 10  5  1  0
 30 11  1  0
 24 20  1  0
  1 31  1  0
  6 32  1  0
  7 33  1  0
  8 34  1  0
  9 35  1  0
 12 36  1  0
 13 37  1  0
 15 38  1  0
 15 39  1  0
 16 40  1  6
 17 41  1  0
 17 42  1  0
 18 43  1  0
 19 44  1  0
 19 45  1  0
 21 46  1  0
 23 47  1  0
 27 48  1  0
 27 49  1  0
 29 50  1  0
 30 51  1  0
M  CHG  2   1  -1  25  -1
M  END
>  <UniqueID>  (9) 
9

>  <SMILES>  (9) 
[NH-]S(=O)(=O)c1ccccc1-c1ccc(C[C@@H](CNCc2cocc2[O-])C(N)=O)cc1

>  <Energy>  (9) 
83.80947795930122

>  <Genealogy>  (9) 
[NH-]S(=O)(=O)c1ccccc1-c1ccc(CC(CNCc2cocc2[O-])C(N)=O)cc1 (protonated)
[NH-]S(=O)(=O)c1ccccc1-c1ccc(C[C@@H](CNCc2cocc2[O-])C(N)=O)cc1 (chirality)
[NH-]S(=O)(=O)c1ccccc1-c1ccc(C[C@@H](CNCc2cocc2[O-])C(N)=O)cc1 (3D coordinates assigned)
[NH-]S(=O)(=O)c1ccccc1-c1ccc(C[C@@H](CNCc2cocc2[O-])C(N)=O)cc1 (optimized conformer: 83.80947795930122 kcal/mol)

>  <smiles>  (9) 
NC(=O)C(CNCc1cocc1O)Cc1ccc(-c2ccccc2S(N)(=O)=O)cc1

>  <score_type>  (9) 
oracle

>  <origin>  (9) 
adg

>  <m_score__min__energy>  (9) 
-15.380000000000001

>  <m_primary>  (9) 
energy

$$$$
9:0
     RDKit          3D

 32 33  0  0  0  0  0  0  0  0999 V2000
   53.8630   26.4090   54.0940 O   0  0  0  0  0  0  0  0  0  0  0  0
   53.6410   27.6300   54.3200 C   0  0  0  0  0  0  0  0  0  0  0  0
   54.6690   28.4600   55.0160 C   0  0  0  0  0  0  0  0  0  0  0  0
   55.3690   29.3160   53.9960 C   0  0  0  0  0  0  0  0  0  0  0  0
   56.5910   28.8980   53.4440 C   0  0  0  0  0  0  0  0  0  0  0  0
   57.1920   29.6370   52.4210 C   0  0  0  0  0  0  0  0  0  0  0  0
   56.5740   30.7980   51.9340 C   0  0  0  0  0  0  0  0  0  0  0  0
   57.1580   31.5360   50.9070 O   0  0  0  0  0  0  0  0  0  0  0  0
   55.3560   31.2160   52.4790 C   0  0  0  0  0  0  0  0  0  0  0  0
   54.7510   30.4770   53.5000 C   0  0  0  0  0  0  0  0  0  0  0  0
   52.4660   28.2590   53.8020 N   0  0  0  0  0  0  0  0  0  0  0  0
   52.3320   28.6260   52.3990 C   0  0  0  0  0  0  0  0  0  0  0  0
   51.7460   30.0100   52.3050 C   0  0  0  0  0  0  0  0  0  0  0  0
   51.4600   30.7300   53.4760 C   0  0  0  0  0  0  0  0  0  0  0  0
   51.0150   32.0540   53.3990 C   0  0  0  0  0  0  0  0  0  0  0  0
   50.8660   32.6720   52.1540 C   0  0  0  0  0  0  0  0  0  0  0  0
   50.4350   33.9910   52.0850 O   0  0  0  0  0  0  0  0  0  0  0  0
   51.1580   31.9630   50.9820 C   0  0  0  0  0  0  0  0  0  0  0  0
   51.0200   32.5760   49.7430 O   0  0  0  0  0  0  0  0  0  0  0  0
   51.5980   30.6380   51.0580 C   0  0  0  0  0  0  0  0  0  0  0  0
   54.1818   29.1010   55.7655 H   0  0  0  0  0  0  0  0  0  0  0  0
   55.3970   27.8086   55.5218 H   0  0  0  0  0  0  0  0  0  0  0  0
   57.0772   27.9851   53.8184 H   0  0  0  0  0  0  0  0  0  0  0  0
   58.1519   29.3072   51.9969 H   0  0  0  0  0  0  0  0  0  0  0  0
   56.6020   32.1230   50.2960 H   0  0  0  0  0  0  0  0  0  0  0  0
   54.8721   32.1295   52.1031 H   0  0  0  0  0  0  0  0  0  0  0  0
   53.7875   30.8054   53.9169 H   0  0  0  0  0  0  0  0  0  0  0  0
   53.3214   28.6116   51.9185 H   0  0  0  0  0  0  0  0  0  0  0  0
   51.6714   27.9087   51.8900 H   0  0  0  0  0  0  0  0  0  0  0  0
   51.5864   30.2509   54.4581 H   0  0  0  0  0  0  0  0  0  0  0  0
   50.7820   32.6096   54.3194 H   0  0  0  0  0  0  0  0  0  0  0  0
   51.8294   30.0847   50.1359 H   0  0  0  0  0  0  0  0  0  0  0  0
  1  2  2  0
  2  3  1  0
  3  4  1  0
  4  5  2  0
  5  6  1  0
  6  7  2  0
  7  8  1  0
  7  9  1  0
  9 10  2  0
  2 11  1  0
 11 12  1  0
 12 13  1  0
 13 14  2  0
 14 15  1  0
 15 16  2  0
 16 17  1  0
 16 18  1  0
 18 19  1  0
 18 20  2  0
 10  4  1  0
 20 13  1  0
  3 21  1  0
  3 22  1  0
  5 23  1  0
  6 24  1  0
  8 25  1  0
  9 26  1  0
 10 27  1  0
 12 28  1  0
 12 29  1  0
 14 30  1  0
 15 31  1  0
 20 32  1  0
M  CHG  3  11  -1  17  -1  19  -1
M  END
>  <UniqueID>  (10) 
10

>  <SMILES>  (10) 
O=C(Cc1ccc(O)cc1)[N-]Cc1ccc([O-])c([O-])c1

>  <Energy>  (10) 
26.579092477751605

>  <Genealogy>  (10) 
O=C(Cc1ccc(O)cc1)[N-]Cc1ccc([O-])c([O-])c1 (protonated)
O=C(Cc1ccc(O)cc1)[N-]Cc1ccc([O-])c([O-])c1 (3D coordinates assigned)
O=C(Cc1ccc(O)cc1)[N-]Cc1ccc([O-])c([O-])c1 (optimized conformer: 26.579092477751605 kcal/mol)

>  <smiles>  (10) 
O=C(Cc1ccc(O)cc1)NCc1ccc(O)c(O)c1

>  <score_type>  (10) 
oracle

>  <origin>  (10) 
adg

>  <m_score__min__energy>  (10) 
-15.710000000000001

>  <m_primary>  (10) 
energy

$$$$
10:0
     RDKit          3D

 45 47  0  0  0  0  0  0  0  0999 V2000
   62.4270   34.0680   49.0830 C   0  0  0  0  0  0  0  0  0  0  0  0
   61.1660   34.6400   48.7510 O   0  0  0  0  0  0  0  0  0  0  0  0
   60.3300   34.1730   47.7260 C   0  0  0  0  0  0  0  0  0  0  0  0
   60.5550   32.8910   47.2160 C   0  0  0  0  0  0  0  0  0  0  0  0
   59.7460   32.3780   46.1990 C   0  0  0  0  0  0  0  0  0  0  0  0
   58.6950   33.1450   45.6680 C   0  0  0  0  0  0  0  0  0  0  0  0
   57.8300   32.5990   44.5960 C   0  0  0  0  0  0  0  0  0  0  0  0
   57.9110   33.0540   43.4230 O   0  0  0  0  0  0  0  0  0  0  0  0
   56.8860   31.5620   44.8920 N   0  0  0  0  0  0  0  0  0  0  0  0
   56.9780   30.2070   44.3600 C   0  0  0  0  0  0  0  0  0  0  0  0
   57.7130   29.3110   45.3220 C   0  0  0  0  0  0  0  0  0  0  0  0
   58.1340   29.7970   46.5680 C   0  0  0  0  0  0  0  0  0  0  0  0
   58.8140   28.9610   47.4550 C   0  0  0  0  0  0  0  0  0  0  0  0
   59.0830   27.6350   47.1060 C   0  0  0  0  0  0  0  0  0  0  0  0
   58.6710   27.1280   45.8600 C   0  0  0  0  0  0  0  0  0  0  0  0
   58.9660   25.7260   45.4810 C   0  0  0  0  0  0  0  0  0  0  0  0
   59.8920   25.1010   46.0640 O   0  0  0  0  0  0  0  0  0  0  0  0
   58.2110   25.0920   44.4420 N   0  0  0  0  0  0  0  0  0  0  0  0
   57.2210   24.0680   44.6090 C   0  0  0  0  0  0  0  0  0  0  0  0
   57.2360   22.5460   43.8900 S   0  0  0  0  0  0  0  0  0  0  0  0
   55.8090   22.0020   44.5900 C   0  0  0  0  0  0  0  0  0  0  0  0
   55.3040   23.0090   45.4010 C   0  0  0  0  0  0  0  0  0  0  0  0
   56.0910   24.1750   45.4230 C   0  0  0  0  0  0  0  0  0  0  0  0
   55.7290   25.3700   46.2150 C   0  0  0  0  0  0  0  0  0  0  0  0
   54.7660   26.3030   45.7320 N   0  0  0  0  0  0  0  0  0  0  0  0
   56.2770   25.5710   47.3330 O   0  0  0  0  0  0  0  0  0  0  0  0
   57.9800   27.9760   44.9750 C   0  0  0  0  0  0  0  0  0  0  0  0
   58.4730   34.4370   46.1770 C   0  0  0  0  0  0  0  0  0  0  0  0
   59.2800   34.9470   47.1980 C   0  0  0  0  0  0  0  0  0  0  0  0
   62.5315   34.0206   50.1770 H   0  0  0  0  0  0  0  0  0  0  0  0
   62.4908   33.0528   48.6642 H   0  0  0  0  0  0  0  0  0  0  0  0
   63.2328   34.6887   48.6642 H   0  0  0  0  0  0  0  0  0  0  0  0
   61.3765   32.2806   47.6191 H   0  0  0  0  0  0  0  0  0  0  0  0
   59.9332   31.3659   45.8109 H   0  0  0  0  0  0  0  0  0  0  0  0
   55.9642   29.8115   44.1996 H   0  0  0  0  0  0  0  0  0  0  0  0
   57.5291   30.2352   43.4084 H   0  0  0  0  0  0  0  0  0  0  0  0
   57.9277   30.8407   46.8474 H   0  0  0  0  0  0  0  0  0  0  0  0
   59.1393   29.3473   48.4322 H   0  0  0  0  0  0  0  0  0  0  0  0
   59.6206   26.9831   47.8103 H   0  0  0  0  0  0  0  0  0  0  0  0
   55.3518   21.0141   44.4322 H   0  0  0  0  0  0  0  0  0  0  0  0
   54.3716   22.9047   45.9753 H   0  0  0  0  0  0  0  0  0  0  0  0
   54.0490   26.7130   46.3710 H   0  0  0  0  0  0  0  0  0  0  0  0
   57.6453   27.5896   44.0010 H   0  0  0  0  0  0  0  0  0  0  0  0
   57.6573   35.0515   45.7682 H   0  0  0  0  0  0  0  0  0  0  0  0
   59.0935   35.9576   47.5904 H   0  0  0  0  0  0  0  0  0  0  0  0
  1  2  1  0
  2  3  1  0
  3  4  2  0
  4  5  1  0
  5  6  2  0
  6  7  1  0
  7  8  2  0
  7  9  1  0
  9 10  1  0
 10 11  1  0
 11 12  2  0
 12 13  1  0
 13 14  2  0
 14 15  1  0
 15 16  1  0
 16 17  2  0
 16 18  1  0
 18 19  1  0
 19 20  1  0
 20 21  1  0
 21 22  2  0
 22 23  1  0
 23 24  1  0
 24 25  1  0
 24 26  2  0
 15 27  2  0
  6 28  1  0
 28 29  2  0
 29  3  1  0
 27 11  1  0
 23 19  2  0
  1 30  1  0
  1 31  1  0
  1 32  1  0
  4 33  1  0
  5 34  1  0
 10 35  1  0
 10 36  1  0
 12 37  1  0
 13 38  1  0
 14 39  1  0
 21 40  1  0
 22 41  1  0
 25 42  1  0
 27 43  1  0
 28 44  1  0
 29 45  1  0
M  CHG  3   9  -1  18  -1  25  -1
M  END
>  <UniqueID>  (11) 
11

>  <SMILES>  (11) 
COc1ccc(C(=O)[N-]Cc2cccc(C(=O)[N-]c3sccc3C([NH-])=O)c2)cc1

>  <Energy>  (11) 
73.96346532284994

>  <Genealogy>  (11) 
COc1ccc(C(=O)[N-]Cc2cccc(C(=O)[N-]c3sccc3C([NH-])=O)c2)cc1 (protonated)
COc1ccc(C(=O)[N-]Cc2cccc(C(=O)[N-]c3sccc3C([NH-])=O)c2)cc1 (3D coordinates assigned)
COc1ccc(C(=O)[N-]Cc2cccc(C(=O)[N-]c3sccc3C([NH-])=O)c2)cc1 (optimized conformer: 73.96346532284994 kcal/mol)

>  <smiles>  (11) 
COc1ccc(C(=O)NCc2cccc(C(=O)Nc3sccc3C(N)=O)c2)cc1

>  <score_type>  (11) 
oracle

>  <origin>  (11) 
adg

>  <m_score__min__energy>  (11) 
-15.15

>  <m_primary>  (11) 
energy

$$$$
11:0
     RDKit          3D

 36 37  0  0  0  0  0  0  0  0999 V2000
   54.9210   26.2630   45.9670 N   0  0  0  0  0  0  0  0  0  0  0  0
   56.6270   25.9900   45.9280 S   0  0  0  0  0  0  0  0  0  0  0  0
   57.0250   25.1310   47.0970 O   0  0  0  0  0  0  0  0  0  0  0  0
   56.9880   25.2710   44.6580 O   0  0  0  0  0  0  0  0  0  0  0  0
   57.4720   27.5320   46.0040 C   0  0  0  0  0  0  0  0  0  0  0  0
   58.7150   27.6210   46.6430 C   0  0  0  0  0  0  0  0  0  0  0  0
   59.3760   28.8500   46.7220 C   0  0  0  0  0  0  0  0  0  0  0  0
   58.8020   29.9940   46.1610 C   0  0  0  0  0  0  0  0  0  0  0  0
   57.5610   29.9130   45.5030 C   0  0  0  0  0  0  0  0  0  0  0  0
   56.9230   31.0650   44.9350 N   0  0  0  0  0  0  0  0  0  0  0  0
   57.4950   31.9810   43.9930 C   0  0  0  0  0  0  0  0  0  0  0  0
   57.4640   31.7420   42.7570 O   0  0  0  0  0  0  0  0  0  0  0  0
   58.0440   33.2860   44.4760 C   0  0  0  0  0  0  0  0  0  0  0  0
   59.2080   33.0570   45.3280 N   0  0  0  0  0  0  0  0  0  0  0  0
   59.9180   34.1340   45.9640 C   0  0  0  0  0  0  0  0  0  0  0  0
   59.5850   35.3260   45.7220 O   0  0  0  0  0  0  0  0  0  0  0  0
   61.0480   33.8690   46.8870 C   0  0  0  0  0  0  0  0  0  0  0  0
   62.3720   33.7930   46.4160 C   0  0  0  0  0  0  0  0  0  0  0  0
   63.4240   33.5360   47.3010 C   0  0  0  0  0  0  0  0  0  0  0  0
   63.1680   33.3480   48.6620 C   0  0  0  0  0  0  0  0  0  0  0  0
   64.6080   32.9970   49.8670 Br  0  0  0  0  0  0  0  0  0  0  0  0
   61.8560   33.4100   49.1380 C   0  0  0  0  0  0  0  0  0  0  0  0
   60.8010   33.6650   48.2580 C   0  0  0  0  0  0  0  0  0  0  0  0
   56.8930   28.6820   45.4490 C   0  0  0  0  0  0  0  0  0  0  0  0
   54.7600   27.0920   46.5800 H   0  0  0  0  0  0  0  0  0  0  0  0
   59.1718   26.7224   47.0834 H   0  0  0  0  0  0  0  0  0  0  0  0
   60.3508   28.9169   47.2272 H   0  0  0  0  0  0  0  0  0  0  0  0
   59.3219   30.9606   46.2341 H   0  0  0  0  0  0  0  0  0  0  0  0
   58.3408   33.8980   43.6115 H   0  0  0  0  0  0  0  0  0  0  0  0
   57.2701   33.8089   45.0571 H   0  0  0  0  0  0  0  0  0  0  0  0
   59.5650   32.0780   45.4060 H   0  0  0  0  0  0  0  0  0  0  0  0
   62.5807   33.9366   45.3456 H   0  0  0  0  0  0  0  0  0  0  0  0
   64.4562   33.4817   46.9247 H   0  0  0  0  0  0  0  0  0  0  0  0
   61.6530   33.2577   50.2083 H   0  0  0  0  0  0  0  0  0  0  0  0
   59.7700   33.7067   48.6392 H   0  0  0  0  0  0  0  0  0  0  0  0
   55.9062   28.6176   44.9672 H   0  0  0  0  0  0  0  0  0  0  0  0
  1  2  1  0
  2  3  2  0
  2  4  2  0
  2  5  1  0
  5  6  2  0
  6  7  1  0
  7  8  2  0
  8  9  1  0
  9 10  1  0
 10 11  1  0
 11 12  2  0
 11 13  1  0
 13 14  1  0
 14 15  1  0
 15 16  2  0
 15 17  1  0
 17 18  2  0
 18 19  1  0
 19 20  2  0
 20 21  1  0
 20 22  1  0
 22 23  2  0
  9 24  2  0
 24  5  1  0
 23 17  1  0
  1 25  1  0
  6 26  1  0
  7 27  1  0
  8 28  1  0
 13 29  1  0
 13 30  1  0
 14 31  1  0
 18 32  1  0
 19 33  1  0
 22 34  1  0
 23 35  1  0
 24 36  1  0
M  CHG  2   1  -1  10  -1
M  END
>  <UniqueID>  (12) 
12

>  <SMILES>  (12) 
[NH-]S(=O)(=O)c1cccc([N-]C(=O)CNC(=O)c2ccc(Br)cc2)c1

>  <Energy>  (12) 
38.99045556541052

>  <Genealogy>  (12) 
[NH-]S(=O)(=O)c1cccc([N-]C(=O)CNC(=O)c2ccc(Br)cc2)c1 (protonated)
[NH-]S(=O)(=O)c1cccc([N-]C(=O)CNC(=O)c2ccc(Br)cc2)c1 (3D coordinates assigned)
[NH-]S(=O)(=O)c1cccc([N-]C(=O)CNC(=O)c2ccc(Br)cc2)c1 (optimized conformer: 38.99045556541052 kcal/mol)

>  <smiles>  (12) 
NS(=O)(=O)c1cccc(NC(=O)CNC(=O)c2ccc(Br)cc2)c1

>  <score_type>  (12) 
oracle

>  <origin>  (12) 
adg

>  <m_score__min__energy>  (12) 
-13.07

>  <m_primary>  (12) 
energy

$$$$
12:0
     RDKit          3D

 34 35  0  0  0  0  0  0  0  0999 V2000
   61.3740   31.8500   49.7740 N   0  0  0  0  0  0  0  0  0  0  0  0
   61.9260   32.5380   48.6440 C   0  0  0  0  0  0  0  0  0  0  0  0
   63.2270   32.2250   48.2200 C   0  0  0  0  0  0  0  0  0  0  0  0
   63.7830   32.8620   47.1070 C   0  0  0  0  0  0  0  0  0  0  0  0
   63.0430   33.8150   46.4060 C   0  0  0  0  0  0  0  0  0  0  0  0
   61.7500   34.1390   46.8190 C   0  0  0  0  0  0  0  0  0  0  0  0
   61.1850   33.5140   47.9400 C   0  0  0  0  0  0  0  0  0  0  0  0
   59.5250   33.9930   48.4430 S   0  0  0  0  0  0  0  0  0  0  0  0
   58.7920   33.4430   46.9000 C   0  0  0  0  0  0  0  0  0  0  0  0
   58.7480   34.3070   45.8000 C   0  0  0  0  0  0  0  0  0  0  0  0
   58.1620   33.8870   44.6040 C   0  0  0  0  0  0  0  0  0  0  0  0
   57.6330   32.5970   44.4960 C   0  0  0  0  0  0  0  0  0  0  0  0
   57.7020   31.7110   45.5870 C   0  0  0  0  0  0  0  0  0  0  0  0
   57.1530   30.3850   45.5270 N   0  0  0  0  0  0  0  0  0  0  0  0
   56.3150   29.8540   44.4940 C   0  0  0  0  0  0  0  0  0  0  0  0
   55.1860   29.3640   44.7650 O   0  0  0  0  0  0  0  0  0  0  0  0
   56.7400   29.9810   43.0640 C   0  0  0  0  0  0  0  0  0  0  0  0
   56.0870   28.9660   42.2400 N   0  0  0  0  0  0  0  0  0  0  0  0
   58.2680   32.1490   46.7900 C   0  0  0  0  0  0  0  0  0  0  0  0
   61.7580   30.9240   50.0690 H   0  0  0  0  0  0  0  0  0  0  0  0
   60.5640   32.2260   50.3110 H   0  0  0  0  0  0  0  0  0  0  0  0
   63.8134   31.4727   48.7678 H   0  0  0  0  0  0  0  0  0  0  0  0
   64.8042   32.6120   46.7836 H   0  0  0  0  0  0  0  0  0  0  0  0
   63.4794   34.3115   45.5268 H   0  0  0  0  0  0  0  0  0  0  0  0
   61.1703   34.8895   46.2616 H   0  0  0  0  0  0  0  0  0  0  0  0
   59.1753   35.3176   45.8775 H   0  0  0  0  0  0  0  0  0  0  0  0
   58.1164   34.5725   43.7449 H   0  0  0  0  0  0  0  0  0  0  0  0
   57.1618   32.2741   43.5559 H   0  0  0  0  0  0  0  0  0  0  0  0
   56.4652   30.9793   42.6927 H   0  0  0  0  0  0  0  0  0  0  0  0
   57.8291   29.8386   43.0043 H   0  0  0  0  0  0  0  0  0  0  0  0
   55.9260   29.3360   41.2740 H   0  0  0  0  0  0  0  0  0  0  0  0
   55.1640   28.7210   42.6670 H   0  0  0  0  0  0  0  0  0  0  0  0
   56.6790   28.1050   42.1940 H   0  0  0  0  0  0  0  0  0  0  0  0
   58.3015   31.4714   47.6559 H   0  0  0  0  0  0  0  0  0  0  0  0
  1  2  1  0
  2  3  2  0
  3  4  1  0
  4  5  2  0
  5  6  1  0
  6  7  2  0
  7  8  1  0
  8  9  1  0
  9 10  2  0
 10 11  1  0
 11 12  2  0
 12 13  1  0
 13 14  1  0
 14 15  1  0
 15 16  2  0
 15 17  1  0
 17 18  1  0
 13 19  2  0
  7  2  1  0
 19  9  1  0
  1 20  1  0
  1 21  1  0
  3 22  1  0
  4 23  1  0
  5 24  1  0
  6 25  1  0
 10 26  1  0
 11 27  1  0
 12 28  1  0
 17 29  1  0
 17 30  1  0
 18 31  1  0
 18 32  1  0
 18 33  1  0
 19 34  1  0
M  CHG  2  14  -1  18   1
M  END
>  <UniqueID>  (13) 
13

>  <SMILES>  (13) 
Nc1ccccc1Sc1cccc([N-]C(=O)C[NH3+])c1

>  <Energy>  (13) 
31.01623767513821

>  <Genealogy>  (13) 
Nc1ccccc1Sc1cccc([N-]C(=O)C[NH3+])c1 (protonated)
Nc1ccccc1Sc1cccc([N-]C(=O)C[NH3+])c1 (3D coordinates assigned)
Nc1ccccc1Sc1cccc([N-]C(=O)C[NH3+])c1 (optimized conformer: 31.01623767513821 kcal/mol)

>  <smiles>  (13) 
NCC(=O)Nc1cccc(Sc2ccccc2N)c1

>  <score_type>  (13) 
oracle

>  <origin>  (13) 
adg

>  <m_score__min__energy>  (13) 
-7.8200000000000003

>  <m_primary>  (13) 
energy

$$$$
13:0
     RDKit          3D

 39 41  0  0  0  0  0  0  0  0999 V2000
   59.6740   31.3550   47.5690 O   0  0  0  0  0  0  0  0  0  0  0  0
   59.0120   30.4440   46.9970 C   0  0  0  0  0  0  0  0  0  0  0  0
   57.7800   30.7330   46.3970 O   0  0  0  0  0  0  0  0  0  0  0  0
   57.5560   30.8800   45.0180 C   0  0  0  0  0  0  0  0  0  0  0  0
   57.7840   32.1030   44.3590 C   0  0  0  0  0  0  0  0  0  0  0  0
   57.5130   32.2320   42.9950 C   0  0  0  0  0  0  0  0  0  0  0  0
   57.0180   31.1440   42.2740 C   0  0  0  0  0  0  0  0  0  0  0  0
   56.8130   29.9190   42.9110 C   0  0  0  0  0  0  0  0  0  0  0  0
   57.1100   29.7690   44.2730 C   0  0  0  0  0  0  0  0  0  0  0  0
   56.8820   28.4980   44.9000 N   0  0  0  0  0  0  0  0  0  0  0  0
   57.5920   27.3050   44.5250 C   0  0  0  0  0  0  0  0  0  0  0  0
   58.4340   27.3390   43.5850 O   0  0  0  0  0  0  0  0  0  0  0  0
   57.3630   26.0300   45.2360 C   0  0  0  0  0  0  0  0  0  0  0  0
   58.3410   25.0210   45.1690 C   0  0  0  0  0  0  0  0  0  0  0  0
   58.1580   23.8100   45.8410 C   0  0  0  0  0  0  0  0  0  0  0  0
   56.9940   23.5870   46.5790 C   0  0  0  0  0  0  0  0  0  0  0  0
   56.0050   24.5720   46.6370 C   0  0  0  0  0  0  0  0  0  0  0  0
   56.1780   25.7870   45.9620 C   0  0  0  0  0  0  0  0  0  0  0  0
   55.1520   26.7250   45.9940 O   0  0  0  0  0  0  0  0  0  0  0  0
   59.5070   29.0500   47.0160 C   0  0  0  0  0  0  0  0  0  0  0  0
   59.2180   28.2100   48.1070 C   0  0  0  0  0  0  0  0  0  0  0  0
   59.6870   26.8930   48.1300 C   0  0  0  0  0  0  0  0  0  0  0  0
   60.4480   26.4010   47.0670 C   0  0  0  0  0  0  0  0  0  0  0  0
   60.7400   27.2250   45.9770 C   0  0  0  0  0  0  0  0  0  0  0  0
   60.2720   28.5420   45.9480 C   0  0  0  0  0  0  0  0  0  0  0  0
   58.1779   32.9621   44.9218 H   0  0  0  0  0  0  0  0  0  0  0  0
   57.6898   33.1922   42.4882 H   0  0  0  0  0  0  0  0  0  0  0  0
   56.7894   31.2520   41.2035 H   0  0  0  0  0  0  0  0  0  0  0  0
   56.4160   29.0661   42.3409 H   0  0  0  0  0  0  0  0  0  0  0  0
   56.1190   28.4400   45.6080 H   0  0  0  0  0  0  0  0  0  0  0  0
   59.2570   25.1869   44.5829 H   0  0  0  0  0  0  0  0  0  0  0  0
   58.9325   23.0306   45.7886 H   0  0  0  0  0  0  0  0  0  0  0  0
   56.8557   22.6362   47.1145 H   0  0  0  0  0  0  0  0  0  0  0  0
   55.0866   24.3926   47.2152 H   0  0  0  0  0  0  0  0  0  0  0  0
   58.6193   28.5917   48.9472 H   0  0  0  0  0  0  0  0  0  0  0  0
   59.4562   26.2430   48.9869 H   0  0  0  0  0  0  0  0  0  0  0  0
   60.8173   25.3651   47.0880 H   0  0  0  0  0  0  0  0  0  0  0  0
   61.3392   26.8367   45.1402 H   0  0  0  0  0  0  0  0  0  0  0  0
   60.5025   29.1853   45.0860 H   0  0  0  0  0  0  0  0  0  0  0  0
  1  2  2  0
  2  3  1  0
  3  4  1  0
  4  5  2  0
  5  6  1  0
  6  7  2  0
  7  8  1  0
  8  9  2  0
  9 10  1  0
 10 11  1  0
 11 12  2  0
 11 13  1  0
 13 14  2  0
 14 15  1  0
 15 16  2  0
 16 17  1  0
 17 18  2  0
 18 19  1  0
  2 20  1  0
 20 21  2  0
 21 22  1  0
 22 23  2  0
 23 24  1  0
 24 25  2  0
  9  4  1  0
 18 13  1  0
 25 20  1  0
  5 26  1  0
  6 27  1  0
  7 28  1  0
  8 29  1  0
 10 30  1  0
 14 31  1  0
 15 32  1  0
 16 33  1  0
 17 34  1  0
 21 35  1  0
 22 36  1  0
 23 37  1  0
 24 38  1  0
 25 39  1  0
M  CHG  1  19  -1
M  END
>  <UniqueID>  (14) 
14

>  <SMILES>  (14) 
O=C(Oc1ccccc1NC(=O)c1ccccc1[O-])c1ccccc1

>  <Energy>  (14) 
56.426788720993684

>  <Genealogy>  (14) 
O=C(Oc1ccccc1NC(=O)c1ccccc1[O-])c1ccccc1 (protonated)
O=C(Oc1ccccc1NC(=O)c1ccccc1[O-])c1ccccc1 (3D coordinates assigned)
O=C(Oc1ccccc1NC(=O)c1ccccc1[O-])c1ccccc1 (optimized conformer: 56.426788720993684 kcal/mol)

>  <smiles>  (14) 
O=C(Oc1ccccc1NC(=O)c1ccccc1O)c1ccccc1

>  <score_type>  (14) 
oracle

>  <origin>  (14) 
adg

>  <m_score__min__energy>  (14) 
-12.23

>  <m_primary>  (14) 
energy

$$$$
14:0
     RDKit          3D

 49 51  0  0  0  0  0  0  0  0999 V2000
   56.1160   29.9550   43.4480 C   0  0  0  0  0  0  0  0  0  0  0  0
   56.2540   30.2660   44.8310 O   0  0  0  0  0  0  0  0  0  0  0  0
   57.4660   30.2230   45.5370 C   0  0  0  0  0  0  0  0  0  0  0  0
   58.0310   29.0120   45.9820 C   0  0  0  0  0  0  0  0  0  0  0  0
   59.2320   29.0130   46.6940 C   0  0  0  0  0  0  0  0  0  0  0  0
   59.8940   30.2190   46.9670 C   0  0  0  0  0  0  0  0  0  0  0  0
   61.1440   30.2220   47.8010 C   0  0  0  0  0  0  0  0  0  0  0  0
   60.8560   29.4190   49.4170 S   0  0  0  0  0  0  0  0  0  0  0  0
   59.7380   30.6860   50.0290 C   0  0  0  0  0  0  0  0  0  0  0  0
   58.4020   30.5060   50.0840 N   0  0  0  0  0  0  0  0  0  0  0  0
   57.9340   31.6370   50.6530 C   0  0  0  0  0  0  0  0  0  0  0  0
   58.9870   32.4820   50.9350 C   0  0  0  0  0  0  0  0  0  0  0  0
   58.8830   33.8140   51.6200 C   0  0  0  0  0  0  0  0  0  0  0  0
   60.0180   34.0400   52.4510 O   0  0  0  0  0  0  0  0  0  0  0  0
   60.4740   33.1140   53.3950 C   0  0  0  0  0  0  0  0  0  0  0  0
   59.8440   33.0680   54.7460 C   0  0  0  0  0  0  0  0  0  0  0  0
   61.4100   32.3160   53.1190 O   0  0  0  0  0  0  0  0  0  0  0  0
   60.1240   31.8890   50.5160 N   0  0  0  0  0  0  0  0  0  0  0  0
   61.4440   32.3890   50.6300 N   0  0  0  0  0  0  0  0  0  0  0  0
   61.9550   32.7480   49.3290 C   0  0  0  0  0  0  0  0  0  0  0  0
   61.1710   33.4990   48.4360 C   0  0  0  0  0  0  0  0  0  0  0  0
   61.6750   33.8620   47.1840 C   0  0  0  0  0  0  0  0  0  0  0  0
   62.9690   33.4870   46.8150 C   0  0  0  0  0  0  0  0  0  0  0  0
   63.7640   32.7520   47.7000 C   0  0  0  0  0  0  0  0  0  0  0  0
   63.2630   32.3880   48.9540 C   0  0  0  0  0  0  0  0  0  0  0  0
   59.3370   31.4260   46.5170 C   0  0  0  0  0  0  0  0  0  0  0  0
   58.1300   31.4300   45.8120 C   0  0  0  0  0  0  0  0  0  0  0  0
   57.3850   33.1010   45.2550 Br  0  0  0  0  0  0  0  0  0  0  0  0
   55.6720   28.9544   43.3397 H   0  0  0  0  0  0  0  0  0  0  0  0
   55.4637   30.6995   42.9681 H   0  0  0  0  0  0  0  0  0  0  0  0
   57.1057   29.9709   42.9681 H   0  0  0  0  0  0  0  0  0  0  0  0
   57.5232   28.0601   45.7674 H   0  0  0  0  0  0  0  0  0  0  0  0
   59.6616   28.0623   47.0429 H   0  0  0  0  0  0  0  0  0  0  0  0
   61.9353   29.6776   47.2649 H   0  0  0  0  0  0  0  0  0  0  0  0
   61.4449   31.2653   47.9771 H   0  0  0  0  0  0  0  0  0  0  0  0
   56.8752   31.8518   50.8600 H   0  0  0  0  0  0  0  0  0  0  0  0
   58.8271   34.6078   50.8605 H   0  0  0  0  0  0  0  0  0  0  0  0
   57.9781   33.8217   52.2454 H   0  0  0  0  0  0  0  0  0  0  0  0
   60.6261   33.1251   55.5174 H   0  0  0  0  0  0  0  0  0  0  0  0
   59.1552   33.9182   54.8585 H   0  0  0  0  0  0  0  0  0  0  0  0
   59.2860   32.1267   54.8585 H   0  0  0  0  0  0  0  0  0  0  0  0
   61.4600   33.2420   51.2350 H   0  0  0  0  0  0  0  0  0  0  0  0
   62.0370   31.6610   51.0850 H   0  0  0  0  0  0  0  0  0  0  0  0
   60.1540   33.8030   48.7246 H   0  0  0  0  0  0  0  0  0  0  0  0
   61.0521   34.4436   46.4885 H   0  0  0  0  0  0  0  0  0  0  0  0
   63.3629   33.7700   45.8277 H   0  0  0  0  0  0  0  0  0  0  0  0
   64.7840   32.4599   47.4097 H   0  0  0  0  0  0  0  0  0  0  0  0
   63.8945   31.8174   49.6509 H   0  0  0  0  0  0  0  0  0  0  0  0
   59.8538   32.3755   46.7205 H   0  0  0  0  0  0  0  0  0  0  0  0
  1  2  1  0
  2  3  1  0
  3  4  2  0
  4  5  1  0
  5  6  2  0
  6  7  1  0
  7  8  1  0
  8  9  1  0
  9 10  2  0
 10 11  1  0
 11 12  2  0
 12 13  1  0
 13 14  1  0
 14 15  1  0
 15 16  1  0
 15 17  2  0
 12 18  1  0
 18 19  1  0
 19 20  1  0
 20 21  2  0
 21 22  1  0
 22 23  2  0
 23 24  1  0
 24 25  2  0
  6 26  1  0
 26 27  2  0
 27 28  1  0
 27  3  1  0
 18  9  1  0
 25 20  1  0
  1 29  1  0
  1 30  1  0
  1 31  1  0
  4 32  1  0
  5 33  1  0
  7 34  1  0
  7 35  1  0
 11 36  1  0
 13 37  1  0
 13 38  1  0
 16 39  1  0
 16 40  1  0
 16 41  1  0
 19 42  1  0
 19 43  1  0
 21 44  1  0
 22 45  1  0
 23 46  1  0
 24 47  1  0
 25 48  1  0
 26 49  1  0
M  CHG  1  19   1
M  END
>  <UniqueID>  (15) 
15

>  <SMILES>  (15) 
COc1ccc(CSc2ncc(COC(C)=O)n2[NH2+]c2ccccc2)cc1Br

>  <Energy>  (15) 
72.546556249824

>  <Genealogy>  (15) 
COc1ccc(CSc2ncc(COC(C)=O)n2[NH2+]c2ccccc2)cc1Br (protonated)
COc1ccc(CSc2ncc(COC(C)=O)n2[NH2+]c2ccccc2)cc1Br (3D coordinates assigned)
COc1ccc(CSc2ncc(COC(C)=O)n2[NH2+]c2ccccc2)cc1Br (optimized conformer: 72.546556249824 kcal/mol)

>  <smiles>  (15) 
COc1ccc(CSc2ncc(COC(C)=O)n2Nc2ccccc2)cc1Br

>  <score_type>  (15) 
oracle

>  <origin>  (15) 
adg

>  <m_score__min__energy>  (15) 
-6.4299999999999997

>  <m_primary>  (15) 
energy

$$$$
15:0
     RDKit          3D

 50 52  0  0  0  0  0  0  0  0999 V2000
   59.4388   36.1445   44.8471 H   0  0  0  0  0  0  0  0  0  0  0  0
   59.2510   35.1340   45.2390 C   0  0  0  0  0  0  0  0  0  0  0  0
   58.6470   34.2040   44.4550 N   0  0  0  0  0  0  0  0  0  0  0  0
   58.3900   32.9410   44.9000 C   0  0  0  0  0  0  0  0  0  0  0  0
   57.8090   32.0580   44.1390 N   0  0  0  0  0  0  0  0  0  0  0  0
   57.1280   30.8630   44.5590 C   0  0  0  0  0  0  0  0  0  0  0  0
   55.8690   30.7860   44.5000 O   0  0  0  0  0  0  0  0  0  0  0  0
   57.9100   29.7120   45.0720 C   0  0  0  0  0  0  0  0  0  0  0  0
   58.1150   29.5430   46.4530 C   0  0  0  0  0  0  0  0  0  0  0  0
   57.6879   30.2691   47.1604 H   0  0  0  0  0  0  0  0  0  0  0  0
   58.8570   28.4600   46.9350 C   0  0  0  0  0  0  0  0  0  0  0  0
   59.0116   28.3425   48.0177 H   0  0  0  0  0  0  0  0  0  0  0  0
   59.4070   27.5200   46.0450 C   0  0  0  0  0  0  0  0  0  0  0  0
   60.2090   26.3410   46.5350 C   0  0  0  0  0  0  0  0  0  0  0  0
   61.4970   26.4220   46.0400 F   0  0  0  0  0  0  0  0  0  0  0  0
   59.6550   25.1390   46.1280 F   0  0  0  0  0  0  0  0  0  0  0  0
   60.2540   26.3590   47.9170 F   0  0  0  0  0  0  0  0  0  0  0  0
   59.2040   27.6890   44.6670 C   0  0  0  0  0  0  0  0  0  0  0  0
   59.6298   26.9617   43.9601 H   0  0  0  0  0  0  0  0  0  0  0  0
   58.4650   28.7740   44.1840 C   0  0  0  0  0  0  0  0  0  0  0  0
   58.3169   28.8943   43.1007 H   0  0  0  0  0  0  0  0  0  0  0  0
   58.7580   32.5820   46.2030 C   0  0  0  0  0  0  0  0  0  0  0  0
   58.5445   31.5704   46.5786 H   0  0  0  0  0  0  0  0  0  0  0  0
   59.4010   33.5200   47.0280 C   0  0  0  0  0  0  0  0  0  0  0  0
   59.7780   33.2210   48.3460 O   0  0  0  0  0  0  0  0  0  0  0  0
   59.8600   31.9330   48.9010 C   0  0  0  0  0  0  0  0  0  0  0  0
   58.8500   31.4390   49.7470 C   0  0  0  0  0  0  0  0  0  0  0  0
   57.9904   32.0768   50.0007 H   0  0  0  0  0  0  0  0  0  0  0  0
   58.9300   30.1460   50.2670 C   0  0  0  0  0  0  0  0  0  0  0  0
   58.1414   29.7732   50.9372 H   0  0  0  0  0  0  0  0  0  0  0  0
   60.0100   29.3260   49.9370 C   0  0  0  0  0  0  0  0  0  0  0  0
   60.0736   28.3085   50.3500 H   0  0  0  0  0  0  0  0  0  0  0  0
   61.0100   29.7960   49.0830 C   0  0  0  0  0  0  0  0  0  0  0  0
   61.8537   29.1416   48.8185 H   0  0  0  0  0  0  0  0  0  0  0  0
   60.9470   31.0980   48.5590 C   0  0  0  0  0  0  0  0  0  0  0  0
   62.0360   31.5730   47.6190 C   0  0  0  0  0  0  0  0  0  0  0  0
   61.6499   31.5539   46.5892 H   0  0  0  0  0  0  0  0  0  0  0  0
   62.8998   30.9014   47.7318 H   0  0  0  0  0  0  0  0  0  0  0  0
   62.4810   32.9500   47.9380 N   0  0  0  0  0  0  0  0  0  0  0  0
   61.6510   33.5320   48.2030 H   0  0  0  0  0  0  0  0  0  0  0  0
   63.1000   33.5650   46.7510 C   0  0  0  0  0  0  0  0  0  0  0  0
   63.8468   34.3070   47.0698 H   0  0  0  0  0  0  0  0  0  0  0  0
   63.5907   32.7865   46.1484 H   0  0  0  0  0  0  0  0  0  0  0  0
   62.3247   34.0607   46.1484 H   0  0  0  0  0  0  0  0  0  0  0  0
   63.4390   32.9610   49.0590 C   0  0  0  0  0  0  0  0  0  0  0  0
   62.8889   32.9547   50.0115 H   0  0  0  0  0  0  0  0  0  0  0  0
   64.0817   32.0702   49.0008 H   0  0  0  0  0  0  0  0  0  0  0  0
   64.0611   33.8663   49.0008 H   0  0  0  0  0  0  0  0  0  0  0  0
   59.6340   34.8090   46.5420 C   0  0  0  0  0  0  0  0  0  0  0  0
   60.1160   35.5630   47.1816 H   0  0  0  0  0  0  0  0  0  0  0  0
  1  2  1  0
  2  3  1  0
  3  4  1  0
  4  5  2  0
  5  6  1  0
  6  7  2  0
  6  8  1  0
  8  9  2  0
  9 10  1  0
  9 11  1  0
 11 12  1  0
 11 13  2  0
 13 14  1  0
 14 15  1  0
 14 16  1  0
 14 17  1  0
 13 18  1  0
 18 19  1  0
 18 20  2  0
 20 21  1  0
  4 22  1  0
 22 23  1  0
 22 24  2  0
 24 25  1  0
 25 26  1  0
 26 27  2  0
 27 28  1  0
 27 29  1  0
 29 30  1  0
 29 31  2  0
 31 32  1  0
 31 33  1  0
 33 34  1  0
 33 35  2  0
 35 36  1  0
 36 37  1  0
 36 38  1  0
 36 39  1  0
 39 40  1  0
 39 41  1  0
 41 42  1  0
 41 43  1  0
 41 44  1  0
 39 45  1  0
 45 46  1  0
 45 47  1  0
 45 48  1  0
 24 49  1  0
 49 50  1  0
 49  2  2  0
 20  8  1  0
 35 26  1  0
M  CHG  2   3  -1  39   1
M  END
>  <UniqueID>  (16) 
16

>  <SMILES>  (16) 
C[NH+](C)Cc1ccccc1Oc1cc[n-]/c(=N\C(=O)c2ccc(C(F)(F)F)cc2)c1

>  <Energy>  (16) 
64.11307186836143

>  <Genealogy>  (16) 
C[NH+](C)Cc1ccccc1Oc1cc[n-]c(=NC(=O)c2ccc(C(F)(F)F)cc2)c1 (protonated)
C[NH+](C)Cc1ccccc1Oc1cc[n-]/c(=N\C(=O)c2ccc(C(F)(F)F)cc2)c1 (cis-trans isomerization)
C[NH+](C)Cc1ccccc1Oc1cc[n-]/c(=N\C(=O)c2ccc(C(F)(F)F)cc2)c1 (3D coordinates assigned)
C[NH+](C)Cc1ccccc1Oc1cc[n-]/c(=N\C(=O)c2ccc(C(F)(F)F)cc2)c1 (optimized conformer: 64.11307186836143 kcal/mol)

>  <smiles>  (16) 
CN(C)Cc1ccccc1Oc1cc[nH]c(=NC(=O)c2ccc(C(F)(F)F)cc2)c1

>  <score_type>  (16) 
oracle

>  <origin>  (16) 
adg

>  <m_score__min__energy>  (16) 
-7.54

>  <m_primary>  (16) 
energy

$$$$
16:0
     RDKit          3D

 57 59  0  0  0  0  0  0  0  0999 V2000
   58.8750   34.5890   53.3260 C   0  0  0  0  0  0  0  0  0  0  0  0
   58.7590   34.2170   51.9570 O   0  0  0  0  0  0  0  0  0  0  0  0
   58.8010   32.8940   51.4970 C   0  0  0  0  0  0  0  0  0  0  0  0
   59.8600   32.3790   50.7100 C   0  0  0  0  0  0  0  0  0  0  0  0
   59.8530   31.0260   50.2860 C   0  0  0  0  0  0  0  0  0  0  0  0
   61.0140   30.4810   49.4970 C   0  0  0  0  0  0  0  0  0  0  0  0
   60.5710   30.0890   48.1600 N   0  0  0  0  0  0  0  0  0  0  0  0
   60.8230   30.8110   47.0770 N   0  0  0  0  0  0  0  0  0  0  0  0
   60.4210   30.1050   46.0040 C   0  0  0  0  0  0  0  0  0  0  0  0
   59.9170   28.8880   46.4210 C   0  0  0  0  0  0  0  0  0  0  0  0
   59.5010   27.7410   45.5470 C   0  0  0  0  0  0  0  0  0  0  0  0
   58.0270   27.6060   45.5060 N   0  0  0  0  0  0  0  0  0  0  0  0
   57.4480   28.4220   44.4120 C   0  0  0  0  0  0  0  0  0  0  0  0
   56.3350   29.3560   44.9220 C   0  0  0  0  0  0  0  0  0  0  0  0
   56.5670   30.7540   44.4960 N   0  0  0  0  0  0  0  0  0  0  0  0
   56.9530   30.8170   43.0750 C   0  0  0  0  0  0  0  0  0  0  0  0
   57.6200   31.3720   45.3160 C   0  0  0  0  0  0  0  0  0  0  0  0
   57.5740   26.1910   45.4990 C   0  0  0  0  0  0  0  0  0  0  0  0
   56.3130   25.9480   46.2860 C   0  0  0  0  0  0  0  0  0  0  0  0
   55.1360   26.6990   46.0000 N   0  0  0  0  0  0  0  0  0  0  0  0
   56.2930   25.0740   47.1930 O   0  0  0  0  0  0  0  0  0  0  0  0
   60.0120   28.9120   47.8010 C   0  0  0  0  0  0  0  0  0  0  0  0
   59.7250   27.7680   48.7270 C   0  0  0  0  0  0  0  0  0  0  0  0
   58.7760   30.1860   50.6430 C   0  0  0  0  0  0  0  0  0  0  0  0
   57.7530   30.7280   51.4140 C   0  0  0  0  0  0  0  0  0  0  0  0
   57.7650   32.0220   51.8220 C   0  0  0  0  0  0  0  0  0  0  0  0
   56.6320   32.2770   52.5710 O   0  0  0  0  0  0  0  0  0  0  0  0
   55.8630   31.0680   52.6410 C   0  0  0  0  0  0  0  0  0  0  0  0
   56.6140   30.1050   51.8880 O   0  0  0  0  0  0  0  0  0  0  0  0
   58.6079   33.7326   53.9626 H   0  0  0  0  0  0  0  0  0  0  0  0
   59.9108   34.8936   53.5367 H   0  0  0  0  0  0  0  0  0  0  0  0
   58.1959   35.4283   53.5367 H   0  0  0  0  0  0  0  0  0  0  0  0
   60.6958   33.0349   50.4250 H   0  0  0  0  0  0  0  0  0  0  0  0
   61.7910   31.2549   49.4108 H   0  0  0  0  0  0  0  0  0  0  0  0
   61.4203   29.5999   50.0151 H   0  0  0  0  0  0  0  0  0  0  0  0
   60.4838   30.4436   44.9593 H   0  0  0  0  0  0  0  0  0  0  0  0
   59.8740   27.9137   44.5267 H   0  0  0  0  0  0  0  0  0  0  0  0
   59.9241   26.8148   45.9631 H   0  0  0  0  0  0  0  0  0  0  0  0
   58.2456   29.0313   43.9620 H   0  0  0  0  0  0  0  0  0  0  0  0
   57.0074   27.7378   43.6718 H   0  0  0  0  0  0  0  0  0  0  0  0
   55.3694   29.0149   44.5204 H   0  0  0  0  0  0  0  0  0  0  0  0
   56.3330   29.3246   46.0216 H   0  0  0  0  0  0  0  0  0  0  0  0
   58.0359   30.9937   42.9967 H   0  0  0  0  0  0  0  0  0  0  0  0
   56.7003   29.8657   42.5839 H   0  0  0  0  0  0  0  0  0  0  0  0
   56.4109   31.6386   42.5839 H   0  0  0  0  0  0  0  0  0  0  0  0
   57.3838   31.2334   46.3814 H   0  0  0  0  0  0  0  0  0  0  0  0
   58.5865   30.8978   45.0900 H   0  0  0  0  0  0  0  0  0  0  0  0
   57.6772   32.4470   45.0900 H   0  0  0  0  0  0  0  0  0  0  0  0
   57.3944   25.8904   44.4562 H   0  0  0  0  0  0  0  0  0  0  0  0
   58.3679   25.6001   45.9792 H   0  0  0  0  0  0  0  0  0  0  0  0
   54.5490   27.0890   46.7700 H   0  0  0  0  0  0  0  0  0  0  0  0
   59.8107   28.1095   49.7691 H   0  0  0  0  0  0  0  0  0  0  0  0
   58.7058   27.3962   48.5456 H   0  0  0  0  0  0  0  0  0  0  0  0
   60.4480   26.9591   48.5456 H   0  0  0  0  0  0  0  0  0  0  0  0
   58.7467   29.1345   50.3211 H   0  0  0  0  0  0  0  0  0  0  0  0
   55.7519   30.7406   53.6852 H   0  0  0  0  0  0  0  0  0  0  0  0
   54.8464   31.2017   52.2426 H   0  0  0  0  0  0  0  0  0  0  0  0
  1  2  1  0
  2  3  1  0
  3  4  2  0
  4  5  1  0
  5  6  1  0
  6  7  1  0
  7  8  1  0
  8  9  2  0
  9 10  1  0
 10 11  1  0
 11 12  1  0
 12 13  1  0
 13 14  1  0
 14 15  1  0
 15 16  1  0
 15 17  1  0
 12 18  1  0
 18 19  1  0
 19 20  1  0
 19 21  2  0
 10 22  2  0
 22 23  1  0
  5 24  2  0
 24 25  1  0
 25 26  2  0
 26 27  1  0
 27 28  1  0
 28 29  1  0
 26  3  1  0
 22  7  1  0
 29 25  1  0
  1 30  1  0
  1 31  1  0
  1 32  1  0
  4 33  1  0
  6 34  1  0
  6 35  1  0
  9 36  1  0
 11 37  1  0
 11 38  1  0
 13 39  1  0
 13 40  1  0
 14 41  1  0
 14 42  1  0
 16 43  1  0
 16 44  1  0
 16 45  1  0
 17 46  1  0
 17 47  1  0
 17 48  1  0
 18 49  1  0
 18 50  1  0
 20 51  1  0
 23 52  1  0
 23 53  1  0
 23 54  1  0
 24 55  1  0
 28 56  1  0
 28 57  1  0
M  CHG  1  20  -1
M  END
>  <UniqueID>  (17) 
17

>  <SMILES>  (17) 
COc1cc(Cn2ncc(CN(CCN(C)C)CC([NH-])=O)c2C)cc2c1OCO2

>  <Energy>  (17) 
114.64443873957636

>  <Genealogy>  (17) 
COc1cc(Cn2ncc(CN(CCN(C)C)CC([NH-])=O)c2C)cc2c1OCO2 (protonated)
COc1cc(Cn2ncc(CN(CCN(C)C)CC([NH-])=O)c2C)cc2c1OCO2 (3D coordinates assigned)
COc1cc(Cn2ncc(CN(CCN(C)C)CC([NH-])=O)c2C)cc2c1OCO2 (nonaromatic ring conformer: 114.64443873957636 kcal/mol)

>  <smiles>  (17) 
COc1cc(Cn2ncc(CN(CCN(C)C)CC(N)=O)c2C)cc2c1OCO2

>  <score_type>  (17) 
oracle

>  <origin>  (17) 
adg

>  <m_score__min__energy>  (17) 
-11.81

>  <m_primary>  (17) 
energy

$$$$
17:0
     RDKit          3D

 38 40  0  0  0  0  0  0  0  0999 V2000
   58.5890   25.3740   46.4470 O   0  0  0  0  0  0  0  0  0  0  0  0
   57.9290   26.3980   46.1280 C   0  0  0  0  0  0  0  0  0  0  0  0
   58.2460   27.6900   45.7530 C   0  0  0  0  0  0  0  0  0  0  0  0
   59.4490   28.4250   45.5270 N   0  0  0  0  0  0  0  0  0  0  0  0
   60.1030   29.1910   46.5850 C   0  0  0  0  0  0  0  0  0  0  0  0
   59.0890   30.0440   47.3620 C   0  0  0  0  0  0  0  0  0  0  0  0
   59.4670   31.5040   47.3560 C   0  0  0  0  0  0  0  0  0  0  0  0
   60.6970   31.9170   46.8130 C   0  0  0  0  0  0  0  0  0  0  0  0
   61.0260   33.2760   46.7690 C   0  0  0  0  0  0  0  0  0  0  0  0
   60.1290   34.2290   47.2580 C   0  0  0  0  0  0  0  0  0  0  0  0
   58.9020   33.8260   47.7930 C   0  0  0  0  0  0  0  0  0  0  0  0
   58.5690   32.4690   47.8380 C   0  0  0  0  0  0  0  0  0  0  0  0
   56.9020   27.9840   45.6330 C   0  0  0  0  0  0  0  0  0  0  0  0
   56.1690   29.1450   45.2370 N   0  0  0  0  0  0  0  0  0  0  0  0
   56.3240   29.7310   43.9110 C   0  0  0  0  0  0  0  0  0  0  0  0
   56.9240   31.0950   44.0350 C   0  0  0  0  0  0  0  0  0  0  0  0
   57.7980   31.6790   43.1390 C   0  0  0  0  0  0  0  0  0  0  0  0
   58.1180   32.9050   43.6820 C   0  0  0  0  0  0  0  0  0  0  0  0
   57.4260   32.9890   44.8730 C   0  0  0  0  0  0  0  0  0  0  0  0
   56.7260   31.8950   45.0570 O   0  0  0  0  0  0  0  0  0  0  0  0
   56.5870   26.6910   46.0060 C   0  0  0  0  0  0  0  0  0  0  0  0
   55.5190   26.0430   46.1660 O   0  0  0  0  0  0  0  0  0  0  0  0
   59.9180   28.3440   44.5970 H   0  0  0  0  0  0  0  0  0  0  0  0
   60.5939   28.4948   47.2809 H   0  0  0  0  0  0  0  0  0  0  0  0
   60.8413   29.8628   46.1228 H   0  0  0  0  0  0  0  0  0  0  0  0
   58.0981   29.9305   46.8981 H   0  0  0  0  0  0  0  0  0  0  0  0
   59.0779   29.6971   48.4058 H   0  0  0  0  0  0  0  0  0  0  0  0
   61.4024   31.1691   46.4217 H   0  0  0  0  0  0  0  0  0  0  0  0
   61.9916   33.5945   46.3491 H   0  0  0  0  0  0  0  0  0  0  0  0
   60.3885   35.2973   47.2220 H   0  0  0  0  0  0  0  0  0  0  0  0
   58.1976   34.5776   48.1790 H   0  0  0  0  0  0  0  0  0  0  0  0
   57.5994   32.1563   48.2528 H   0  0  0  0  0  0  0  0  0  0  0  0
   55.6920   29.7060   45.9780 H   0  0  0  0  0  0  0  0  0  0  0  0
   56.9840   29.0941   43.3037 H   0  0  0  0  0  0  0  0  0  0  0  0
   55.3393   29.8066   43.4265 H   0  0  0  0  0  0  0  0  0  0  0  0
   58.1621   31.2550   42.1915 H   0  0  0  0  0  0  0  0  0  0  0  0
   58.7894   33.6632   43.2526 H   0  0  0  0  0  0  0  0  0  0  0  0
   57.4568   33.8444   45.5639 H   0  0  0  0  0  0  0  0  0  0  0  0
  1  2  2  0
  2  3  1  0
  3  4  1  0
  4  5  1  0
  5  6  1  0
  6  7  1  0
  7  8  2  0
  8  9  1  0
  9 10  2  0
 10 11  1  0
 11 12  2  0
  3 13  2  0
 13 14  1  0
 14 15  1  0
 15 16  1  0
 16 17  2  0
 17 18  1  0
 18 19  2  0
 19 20  1  0
 13 21  1  0
 21 22  2  0
 21  2  1  0
 12  7  1  0
 20 16  1  0
  4 23  1  0
  5 24  1  0
  5 25  1  0
  6 26  1  0
  6 27  1  0
  8 28  1  0
  9 29  1  0
 10 30  1  0
 11 31  1  0
 12 32  1  0
 14 33  1  0
 15 34  1  0
 15 35  1  0
 17 36  1  0
 18 37  1  0
 19 38  1  0
M  END
>  <UniqueID>  (18) 
18

>  <SMILES>  (18) 
O=c1c(NCCc2ccccc2)c(NCc2ccco2)c1=O

>  <Energy>  (18) 
46.31262446682563

>  <Genealogy>  (18) 
O=c1c(NCCc2ccccc2)c(NCc2ccco2)c1=O (3D coordinates assigned)
O=c1c(NCCc2ccccc2)c(NCc2ccco2)c1=O (optimized conformer: 46.31262446682563 kcal/mol)

>  <smiles>  (18) 
O=c1c(NCCc2ccccc2)c(NCc2ccco2)c1=O

>  <score_type>  (18) 
oracle

>  <origin>  (18) 
adg

>  <m_score__min__energy>  (18) 
-7.3300000000000001

>  <m_primary>  (18) 
energy

$$$$
18:0
     RDKit          3D

 37 39  0  0  0  0  0  0  0  0999 V2000
   52.1017   31.2253   53.5334 H   0  0  0  0  0  0  0  0  0  0  0  0
   52.6320   30.7430   52.6990 C   0  0  0  0  0  0  0  0  0  0  0  0
   53.7500   30.0610   52.9900 C   0  0  0  0  0  0  0  0  0  0  0  0
   53.6358   29.0366   53.3742 H   0  0  0  0  0  0  0  0  0  0  0  0
   55.1230   30.5830   52.8330 C   0  0  0  0  0  0  0  0  0  0  0  0
   55.9760   30.6280   53.9430 C   0  0  0  0  0  0  0  0  0  0  0  0
   55.6193   30.2769   54.9226 H   0  0  0  0  0  0  0  0  0  0  0  0
   57.2780   31.1170   53.8110 C   0  0  0  0  0  0  0  0  0  0  0  0
   57.9437   31.1385   54.6864 H   0  0  0  0  0  0  0  0  0  0  0  0
   57.7430   31.5800   52.5740 C   0  0  0  0  0  0  0  0  0  0  0  0
   59.0740   32.0160   52.4840 O   0  0  0  0  0  0  0  0  0  0  0  0
   59.9900   31.6500   51.4490 C   0  0  0  0  0  0  0  0  0  0  0  0
   61.0168   31.8539   51.7868 H   0  0  0  0  0  0  0  0  0  0  0  0
   59.8660   30.5793   51.2294 H   0  0  0  0  0  0  0  0  0  0  0  0
   59.7170   32.4370   50.1930 C   0  0  0  0  0  0  0  0  0  0  0  0
   59.0310   31.8400   49.1220 C   0  0  0  0  0  0  0  0  0  0  0  0
   58.7020   30.7931   49.1976 H   0  0  0  0  0  0  0  0  0  0  0  0
   58.7650   32.5710   47.9610 C   0  0  0  0  0  0  0  0  0  0  0  0
   58.2235   32.1001   47.1273 H   0  0  0  0  0  0  0  0  0  0  0  0
   59.1860   33.8990   47.8580 C   0  0  0  0  0  0  0  0  0  0  0  0
   58.9709   34.4748   46.9457 H   0  0  0  0  0  0  0  0  0  0  0  0
   59.8800   34.4960   48.9130 C   0  0  0  0  0  0  0  0  0  0  0  0
   60.2156   35.5401   48.8281 H   0  0  0  0  0  0  0  0  0  0  0  0
   60.1490   33.7690   50.0770 C   0  0  0  0  0  0  0  0  0  0  0  0
   60.7001   34.2411   50.9037 H   0  0  0  0  0  0  0  0  0  0  0  0
   56.8670   31.5900   51.4730 C   0  0  0  0  0  0  0  0  0  0  0  0
   57.2091   31.9826   50.5041 H   0  0  0  0  0  0  0  0  0  0  0  0
   55.5640   31.1030   51.6060 C   0  0  0  0  0  0  0  0  0  0  0  0
   54.8803   31.1273   50.7446 H   0  0  0  0  0  0  0  0  0  0  0  0
   52.0560   30.8980   51.3470 C   0  0  0  0  0  0  0  0  0  0  0  0
   52.1020   29.9690   50.3660 N   0  0  0  0  0  0  0  0  0  0  0  0
   51.4010   30.5350   49.3590 C   0  0  0  0  0  0  0  0  0  0  0  0
   51.2240   29.9700   48.2480 O   0  0  0  0  0  0  0  0  0  0  0  0
   50.9060   31.7510   49.6520 N   0  0  0  0  0  0  0  0  0  0  0  0
   50.3300   32.3770   49.0450 H   0  0  0  0  0  0  0  0  0  0  0  0
   51.3140   31.9730   50.9090 C   0  0  0  0  0  0  0  0  0  0  0  0
   51.0190   33.1190   51.6380 O   0  0  0  0  0  0  0  0  0  0  0  0
  1  2  1  0
  2  3  2  0
  3  4  1  0
  3  5  1  0
  5  6  2  0
  6  7  1  0
  6  8  1  0
  8  9  1  0
  8 10  2  0
 10 11  1  0
 11 12  1  0
 12 13  1  0
 12 14  1  0
 12 15  1  0
 15 16  2  0
 16 17  1  0
 16 18  1  0
 18 19  1  0
 18 20  2  0
 20 21  1  0
 20 22  1  0
 22 23  1  0
 22 24  2  0
 24 25  1  0
 10 26  1  0
 26 27  1  0
 26 28  2  0
 28 29  1  0
  2 30  1  0
 30 31  1  0
 31 32  1  0
 32 33  2  0
 32 34  1  0
 34 35  1  0
 34 36  1  0
 36 37  1  0
 28  5  1  0
 36 30  2  0
 24 15  1  0
M  CHG  2  31  -1  37  -1
M  END
>  <UniqueID>  (19) 
19

>  <SMILES>  (19) 
O=c1[n-]c(/C=C\c2ccc(OCc3ccccc3)cc2)c([O-])[nH]1

>  <Energy>  (19) 
77.29028692045364

>  <Genealogy>  (19) 
O=c1[n-]c(C=Cc2ccc(OCc3ccccc3)cc2)c([O-])[nH]1 (protonated)
O=c1[n-]c(/C=C\c2ccc(OCc3ccccc3)cc2)c([O-])[nH]1 (cis-trans isomerization)
O=c1[n-]c(/C=C\c2ccc(OCc3ccccc3)cc2)c([O-])[nH]1 (3D coordinates assigned)
O=c1[n-]c(/C=C\c2ccc(OCc3ccccc3)cc2)c([O-])[nH]1 (optimized conformer: 77.29028692045364 kcal/mol)

>  <smiles>  (19) 
O=c1[nH]c(O)c(C=Cc2ccc(OCc3ccccc3)cc2)[nH]1

>  <score_type>  (19) 
oracle

>  <origin>  (19) 
adg

>  <m_score__min__energy>  (19) 
-13.66

>  <m_primary>  (19) 
energy

$$$$
19:0
     RDKit          3D

 33 34  0  0  0  0  0  0  0  0999 V2000
   57.4960   33.2490   45.8710 N   0  0  0  0  0  0  0  0  0  0  0  0
   57.5790   31.8820   44.8130 S   0  0  0  0  0  0  0  0  0  0  0  0
   56.2090   31.2760   44.7040 O   0  0  0  0  0  0  0  0  0  0  0  0
   58.0250   32.3510   43.4570 O   0  0  0  0  0  0  0  0  0  0  0  0
   58.7110   30.6540   45.4010 C   0  0  0  0  0  0  0  0  0  0  0  0
   59.2790   29.7280   44.5100 C   0  0  0  0  0  0  0  0  0  0  0  0
   60.1770   28.7630   44.9700 C   0  0  0  0  0  0  0  0  0  0  0  0
   60.5180   28.7130   46.3200 C   0  0  0  0  0  0  0  0  0  0  0  0
   59.9620   29.6250   47.2180 C   0  0  0  0  0  0  0  0  0  0  0  0
   59.0530   30.6040   46.7700 C   0  0  0  0  0  0  0  0  0  0  0  0
   58.4750   31.5570   47.6750 N   0  0  0  0  0  0  0  0  0  0  0  0
   59.3030   32.9040   48.3870 S   0  0  0  0  0  0  0  0  0  0  0  0
   58.5960   34.1680   47.9910 O   0  0  0  0  0  0  0  0  0  0  0  0
   59.2540   32.7580   49.8830 O   0  0  0  0  0  0  0  0  0  0  0  0
   60.9760   32.9750   47.8140 C   0  0  0  0  0  0  0  0  0  0  0  0
   61.9650   32.2980   48.5490 C   0  0  0  0  0  0  0  0  0  0  0  0
   63.3100   32.3980   48.1930 C   0  0  0  0  0  0  0  0  0  0  0  0
   63.6860   33.1740   47.0970 C   0  0  0  0  0  0  0  0  0  0  0  0
   62.7160   33.8370   46.3450 C   0  0  0  0  0  0  0  0  0  0  0  0
   61.3540   33.7340   46.6790 C   0  0  0  0  0  0  0  0  0  0  0  0
   60.3790   34.3870   45.8480 N   0  0  0  0  0  0  0  0  0  0  0  0
   59.9880   33.8400   44.7970 O   0  0  0  0  0  0  0  0  0  0  0  0
   59.7030   35.4910   46.3120 O   0  0  0  0  0  0  0  0  0  0  0  0
   57.2850   32.8930   46.8300 H   0  0  0  0  0  0  0  0  0  0  0  0
   58.4450   33.6870   45.8940 H   0  0  0  0  0  0  0  0  0  0  0  0
   59.0144   29.7636   43.4429 H   0  0  0  0  0  0  0  0  0  0  0  0
   60.6159   28.0411   44.2656 H   0  0  0  0  0  0  0  0  0  0  0  0
   61.2273   27.9527   46.6789 H   0  0  0  0  0  0  0  0  0  0  0  0
   60.2351   29.5793   48.2826 H   0  0  0  0  0  0  0  0  0  0  0  0
   61.6751   31.6831   49.4138 H   0  0  0  0  0  0  0  0  0  0  0  0
   64.0744   31.8645   48.7770 H   0  0  0  0  0  0  0  0  0  0  0  0
   64.7482   33.2634   46.8253 H   0  0  0  0  0  0  0  0  0  0  0  0
   63.0198   34.4469   45.4815 H   0  0  0  0  0  0  0  0  0  0  0  0
  1  2  1  0
  2  3  2  0
  2  4  2  0
  2  5  1  0
  5  6  2  0
  6  7  1  0
  7  8  2  0
  8  9  1  0
  9 10  2  0
 10 11  1  0
 11 12  1  0
 12 13  2  0
 12 14  2  0
 12 15  1  0
 15 16  2  0
 16 17  1  0
 17 18  2  0
 18 19  1  0
 19 20  2  0
 20 21  1  0
 21 22  2  0
 21 23  1  0
 10  5  1  0
 20 15  1  0
  1 24  1  0
  1 25  1  0
  6 26  1  0
  7 27  1  0
  8 28  1  0
  9 29  1  0
 16 30  1  0
 17 31  1  0
 18 32  1  0
 19 33  1  0
M  CHG  3  11  -1  21   1  23  -1
M  END
>  <UniqueID>  (20) 
20

>  <SMILES>  (20) 
NS(=O)(=O)c1ccccc1[N-]S(=O)(=O)c1ccccc1[N+](=O)[O-]

>  <Energy>  (20) 
43.28357151020978

>  <Genealogy>  (20) 
NS(=O)(=O)c1ccccc1[N-]S(=O)(=O)c1ccccc1[N+](=O)[O-] (protonated)
NS(=O)(=O)c1ccccc1[N-]S(=O)(=O)c1ccccc1[N+](=O)[O-] (3D coordinates assigned)
NS(=O)(=O)c1ccccc1[N-]S(=O)(=O)c1ccccc1[N+](=O)[O-] (optimized conformer: 43.28357151020978 kcal/mol)

>  <smiles>  (20) 
NS(=O)(=O)c1ccccc1NS(=O)(=O)c1ccccc1[N+](=O)[O-]

>  <score_type>  (20) 
oracle

>  <origin>  (20) 
adg

>  <m_score__min__energy>  (20) 
-8.2799999999999994

>  <m_primary>  (20) 
energy

$$$$
20:0
     RDKit          3D

 36 37  0  0  0  0  0  0  0  0999 V2000
   60.3080   33.0920   50.3240 C   0  0  0  0  0  0  0  0  0  0  0  0
   61.3430   32.5630   49.3700 C   0  0  0  0  0  0  0  0  0  0  0  0
   62.6900   32.8980   49.5890 C   0  0  0  0  0  0  0  0  0  0  0  0
   63.6880   32.4320   48.7300 C   0  0  0  0  0  0  0  0  0  0  0  0
   63.3530   31.6300   47.6400 C   0  0  0  0  0  0  0  0  0  0  0  0
   62.0180   31.3030   47.3990 C   0  0  0  0  0  0  0  0  0  0  0  0
   61.0020   31.7820   48.2390 C   0  0  0  0  0  0  0  0  0  0  0  0
   59.2950   31.3450   47.8500 S   0  0  0  0  0  0  0  0  0  0  0  0
   59.0740   32.7140   46.6980 C   0  0  0  0  0  0  0  0  0  0  0  0
   59.3040   34.0170   47.1590 C   0  0  0  0  0  0  0  0  0  0  0  0
   59.2000   35.1050   46.2920 C   0  0  0  0  0  0  0  0  0  0  0  0
   58.8510   34.9020   44.9560 C   0  0  0  0  0  0  0  0  0  0  0  0
   58.5910   33.6120   44.4890 C   0  0  0  0  0  0  0  0  0  0  0  0
   58.6910   32.5050   45.3510 C   0  0  0  0  0  0  0  0  0  0  0  0
   58.3430   31.1580   44.8460 C   0  0  0  0  0  0  0  0  0  0  0  0
   59.2730   30.3390   44.6150 O   0  0  0  0  0  0  0  0  0  0  0  0
   56.9620   30.7690   44.7070 N   0  0  0  0  0  0  0  0  0  0  0  0
   56.5120   29.7810   43.9750 C   0  0  0  0  0  0  0  0  0  0  0  0
   57.3810   28.7870   43.4140 N   0  0  0  0  0  0  0  0  0  0  0  0
   55.1130   29.7080   43.6780 N   0  0  0  0  0  0  0  0  0  0  0  0
   60.6415   32.9215   51.3583 H   0  0  0  0  0  0  0  0  0  0  0  0
   60.1714   34.1705   50.1558 H   0  0  0  0  0  0  0  0  0  0  0  0
   59.3539   32.5710   50.1558 H   0  0  0  0  0  0  0  0  0  0  0  0
   62.9611   33.5333   50.4451 H   0  0  0  0  0  0  0  0  0  0  0  0
   64.7394   32.6981   48.9138 H   0  0  0  0  0  0  0  0  0  0  0  0
   64.1408   31.2551   46.9701 H   0  0  0  0  0  0  0  0  0  0  0  0
   61.7600   30.6634   46.5420 H   0  0  0  0  0  0  0  0  0  0  0  0
   59.5688   34.1835   48.2136 H   0  0  0  0  0  0  0  0  0  0  0  0
   59.3931   36.1230   46.6614 H   0  0  0  0  0  0  0  0  0  0  0  0
   58.7807   35.7592   44.2702 H   0  0  0  0  0  0  0  0  0  0  0  0
   58.3054   33.4601   43.4376 H   0  0  0  0  0  0  0  0  0  0  0  0
   56.2610   31.3240   45.2470 H   0  0  0  0  0  0  0  0  0  0  0  0
   58.3970   28.9590   43.2520 H   0  0  0  0  0  0  0  0  0  0  0  0
   56.9710   27.9340   42.9750 H   0  0  0  0  0  0  0  0  0  0  0  0
   54.7410   28.9420   43.0750 H   0  0  0  0  0  0  0  0  0  0  0  0
   54.4430   30.4130   44.0580 H   0  0  0  0  0  0  0  0  0  0  0  0
  1  2  1  0
  2  3  2  0
  3  4  1  0
  4  5  2  0
  5  6  1  0
  6  7  2  0
  7  8  1  0
  8  9  1  0
  9 10  2  0
 10 11  1  0
 11 12  2  0
 12 13  1  0
 13 14  2  0
 14 15  1  0
 15 16  2  0
 15 17  1  0
 17 18  2  3
 18 19  1  0
 18 20  1  0
  7  2  1  0
 14  9  1  0
  1 21  1  0
  1 22  1  0
  1 23  1  0
  3 24  1  0
  4 25  1  0
  5 26  1  0
  6 27  1  0
 10 28  1  0
 11 29  1  0
 12 30  1  0
 13 31  1  0
 17 32  1  0
 19 33  1  0
 19 34  1  0
 20 35  1  0
 20 36  1  0
M  CHG  1  17   1
M  END
>  <UniqueID>  (21) 
21

>  <SMILES>  (21) 
Cc1ccccc1Sc1ccccc1C(=O)[NH+]=C(N)N

>  <Energy>  (21) 
41.52425661425416

>  <Genealogy>  (21) 
Cc1ccccc1Sc1ccccc1C(=O)[NH+]=C(N)N (protonated)
Cc1ccccc1Sc1ccccc1C(=O)[NH+]=C(N)N (3D coordinates assigned)
Cc1ccccc1Sc1ccccc1C(=O)[NH+]=C(N)N (optimized conformer: 41.52425661425416 kcal/mol)

>  <smiles>  (21) 
Cc1ccccc1Sc1ccccc1C(=O)N=C(N)N

>  <score_type>  (21) 
oracle

>  <origin>  (21) 
adg

>  <m_score__min__energy>  (21) 
-6.2599999999999998

>  <m_primary>  (21) 
energy

$$$$
21:0
     RDKit          3D

 33 34  0  0  0  0  0  0  0  0999 V2000
   60.2940   26.3320   46.4820 C   0  0  0  0  0  0  0  0  0  0  0  0
   59.4070   27.3100   45.7600 C   0  0  0  0  0  0  0  0  0  0  0  0
   59.9890   28.4510   45.1800 C   0  0  0  0  0  0  0  0  0  0  0  0
   59.2070   29.3780   44.4900 C   0  0  0  0  0  0  0  0  0  0  0  0
   57.8260   29.1830   44.3640 C   0  0  0  0  0  0  0  0  0  0  0  0
   56.9880   30.1880   43.6140 C   0  0  0  0  0  0  0  0  0  0  0  0
   56.5470   31.2660   44.5010 N   0  0  0  0  0  0  0  0  0  0  0  0
   57.2950   32.0290   45.2480 C   0  0  0  0  0  0  0  0  0  0  0  0
   57.5960   33.3650   44.9070 C   0  0  0  0  0  0  0  0  0  0  0  0
   58.4010   34.1260   45.7580 C   0  0  0  0  0  0  0  0  0  0  0  0
   58.9030   33.5630   46.9320 C   0  0  0  0  0  0  0  0  0  0  0  0
   60.0040   34.5930   48.1030 Br  0  0  0  0  0  0  0  0  0  0  0  0
   58.5910   32.2380   47.2380 C   0  0  0  0  0  0  0  0  0  0  0  0
   57.8050   31.5120   46.3980 N   0  0  0  0  0  0  0  0  0  0  0  0
   57.2400   28.0350   44.9160 C   0  0  0  0  0  0  0  0  0  0  0  0
   58.0160   27.0930   45.6130 C   0  0  0  0  0  0  0  0  0  0  0  0
   57.2180   25.6650   46.2940 S   0  0  0  0  0  0  0  0  0  0  0  0
   55.5130   25.7530   46.0140 N   0  0  0  0  0  0  0  0  0  0  0  0
   57.7740   24.4240   45.6540 O   0  0  0  0  0  0  0  0  0  0  0  0
   57.4570   25.5910   47.7770 O   0  0  0  0  0  0  0  0  0  0  0  0
   60.1758   26.4623   47.5678 H   0  0  0  0  0  0  0  0  0  0  0  0
   60.0120   25.3060   46.2030 H   0  0  0  0  0  0  0  0  0  0  0  0
   61.3425   26.5128   46.2030 H   0  0  0  0  0  0  0  0  0  0  0  0
   61.0729   28.6147   45.2712 H   0  0  0  0  0  0  0  0  0  0  0  0
   59.6775   30.2661   44.0429 H   0  0  0  0  0  0  0  0  0  0  0  0
   57.5857   30.6165   42.7960 H   0  0  0  0  0  0  0  0  0  0  0  0
   56.1001   29.6766   43.2139 H   0  0  0  0  0  0  0  0  0  0  0  0
   57.2001   33.8033   43.9790 H   0  0  0  0  0  0  0  0  0  0  0  0
   58.6392   35.1691   45.5027 H   0  0  0  0  0  0  0  0  0  0  0  0
   58.9808   31.7801   48.1591 H   0  0  0  0  0  0  0  0  0  0  0  0
   56.1585   27.8694   44.8020 H   0  0  0  0  0  0  0  0  0  0  0  0
   55.3790   26.2400   45.1000 H   0  0  0  0  0  0  0  0  0  0  0  0
   55.1140   26.3760   46.7510 H   0  0  0  0  0  0  0  0  0  0  0  0
  1  2  1  0
  2  3  2  0
  3  4  1  0
  4  5  2  0
  5  6  1  0
  6  7  1  0
  7  8  2  3
  8  9  1  0
  9 10  2  0
 10 11  1  0
 11 12  1  0
 11 13  2  0
 13 14  1  0
  5 15  1  0
 15 16  2  0
 16 17  1  0
 17 18  1  0
 17 19  2  0
 17 20  2  0
 16  2  1  0
 14  8  1  0
  1 21  1  0
  1 22  1  0
  1 23  1  0
  3 24  1  0
  4 25  1  0
  6 26  1  0
  6 27  1  0
  9 28  1  0
 10 29  1  0
 13 30  1  0
 15 31  1  0
 18 32  1  0
 18 33  1  0
M  CHG  1  14  -1
M  END
>  <UniqueID>  (22) 
22

>  <SMILES>  (22) 
Cc1ccc(CN=c2ccc(Br)c[n-]2)cc1S(N)(=O)=O

>  <Energy>  (22) 
35.606241704452806

>  <Genealogy>  (22) 
Cc1ccc(CN=c2ccc(Br)c[n-]2)cc1S(N)(=O)=O (protonated)
Cc1ccc(CN=c2ccc(Br)c[n-]2)cc1S(N)(=O)=O (3D coordinates assigned)
Cc1ccc(CN=c2ccc(Br)c[n-]2)cc1S(N)(=O)=O (optimized conformer: 35.606241704452806 kcal/mol)

>  <smiles>  (22) 
Cc1ccc(CN=c2ccc(Br)c[nH]2)cc1S(N)(=O)=O

>  <score_type>  (22) 
oracle

>  <origin>  (22) 
adg

>  <m_score__min__energy>  (22) 
-9.4399999999999995

>  <m_primary>  (22) 
energy

$$$$
22:0
     RDKit          3D

 47 48  0  0  0  0  0  0  0  0999 V2000
   54.7410   26.2550   45.7980 N   0  0  0  0  0  0  0  0  0  0  0  0
   56.0760   26.1210   46.2800 C   0  0  0  0  0  0  0  0  0  0  0  0
   56.3510   25.1810   47.0740 O   0  0  0  0  0  0  0  0  0  0  0  0
   57.1300   27.0740   45.8560 C   0  0  0  0  0  0  0  0  0  0  0  0
   58.4880   26.7750   46.0670 C   0  0  0  0  0  0  0  0  0  0  0  0
   59.4810   27.6750   45.6740 C   0  0  0  0  0  0  0  0  0  0  0  0
   59.1330   28.8820   45.0640 C   0  0  0  0  0  0  0  0  0  0  0  0
   57.7870   29.1930   44.8390 C   0  0  0  0  0  0  0  0  0  0  0  0
   57.3640   30.7300   44.0900 S   0  0  0  0  0  0  0  0  0  0  0  0
   58.5330   31.2210   43.2850 O   0  0  0  0  0  0  0  0  0  0  0  0
   56.1870   30.5600   43.1690 O   0  0  0  0  0  0  0  0  0  0  0  0
   56.9880   31.8980   45.3180 N   0  0  0  0  0  0  0  0  0  0  0  0
   58.2160   32.5270   45.8010 C   0  0  0  0  0  0  0  0  0  0  0  0
   58.4480   33.8510   45.0740 C   0  0  0  0  0  0  0  0  0  0  0  0
   59.5460   34.6470   45.7290 C   0  0  0  0  0  0  0  0  0  0  0  0
   59.6500   35.8740   45.4620 O   0  0  0  0  0  0  0  0  0  0  0  0
   60.4560   34.0680   46.6720 N   0  0  0  0  0  0  0  0  0  0  0  0
   61.8690   33.8140   46.4190 C   0  0  0  0  0  0  0  0  0  0  0  0
   62.4050   32.8220   47.4540 C   0  0  0  0  0  0  0  0  0  0  0  0
   61.9560   31.3820   47.1690 C   0  0  0  0  0  0  0  0  0  0  0  0
   60.7970   30.9670   48.0400 C   0  0  0  0  0  0  0  0  0  0  0  0
   60.0450   31.9330   48.7310 C   0  0  0  0  0  0  0  0  0  0  0  0
   58.9530   31.5470   49.5140 C   0  0  0  0  0  0  0  0  0  0  0  0
   58.6020   30.1970   49.6100 C   0  0  0  0  0  0  0  0  0  0  0  0
   59.3410   29.2310   48.9220 C   0  0  0  0  0  0  0  0  0  0  0  0
   60.4330   29.6140   48.1360 C   0  0  0  0  0  0  0  0  0  0  0  0
   56.7880   28.2930   45.2400 C   0  0  0  0  0  0  0  0  0  0  0  0
   54.0050   26.7190   46.3770 H   0  0  0  0  0  0  0  0  0  0  0  0
   58.7701   25.8253   46.5451 H   0  0  0  0  0  0  0  0  0  0  0  0
   60.5401   27.4324   45.8454 H   0  0  0  0  0  0  0  0  0  0  0  0
   59.9182   29.5897   44.7597 H   0  0  0  0  0  0  0  0  0  0  0  0
   58.1279   32.7155   46.8811 H   0  0  0  0  0  0  0  0  0  0  0  0
   59.0653   31.8555   45.6066 H   0  0  0  0  0  0  0  0  0  0  0  0
   58.7288   33.6432   44.0309 H   0  0  0  0  0  0  0  0  0  0  0  0
   57.5192   34.4388   45.1160 H   0  0  0  0  0  0  0  0  0  0  0  0
   61.9904   33.3922   45.4103 H   0  0  0  0  0  0  0  0  0  0  0  0
   62.4291   34.7578   46.4930 H   0  0  0  0  0  0  0  0  0  0  0  0
   63.5043   32.8584   47.4425 H   0  0  0  0  0  0  0  0  0  0  0  0
   62.0033   33.1112   48.4363 H   0  0  0  0  0  0  0  0  0  0  0  0
   61.6520   31.3073   46.1145 H   0  0  0  0  0  0  0  0  0  0  0  0
   62.8015   30.7135   47.3886 H   0  0  0  0  0  0  0  0  0  0  0  0
   60.3167   32.9962   48.6554 H   0  0  0  0  0  0  0  0  0  0  0  0
   58.3693   32.3062   50.0552 H   0  0  0  0  0  0  0  0  0  0  0  0
   57.7433   29.8951   50.2277 H   0  0  0  0  0  0  0  0  0  0  0  0
   59.0640   28.1692   48.9985 H   0  0  0  0  0  0  0  0  0  0  0  0
   61.0092   28.8520   47.5907 H   0  0  0  0  0  0  0  0  0  0  0  0
   55.7297   28.5417   45.0719 H   0  0  0  0  0  0  0  0  0  0  0  0
  1  2  1  0
  2  3  2  0
  2  4  1  0
  4  5  2  0
  5  6  1  0
  6  7  2  0
  7  8  1  0
  8  9  1  0
  9 10  2  0
  9 11  2  0
  9 12  1  0
 12 13  1  0
 13 14  1  0
 14 15  1  0
 15 16  2  0
 15 17  1  0
 17 18  1  0
 18 19  1  0
 19 20  1  0
 20 21  1  0
 21 22  2  0
 22 23  1  0
 23 24  2  0
 24 25  1  0
 25 26  2  0
  8 27  2  0
 27  4  1  0
 26 21  1  0
  1 28  1  0
  5 29  1  0
  6 30  1  0
  7 31  1  0
 13 32  1  0
 13 33  1  0
 14 34  1  0
 14 35  1  0
 18 36  1  0
 18 37  1  0
 19 38  1  0
 19 39  1  0
 20 40  1  0
 20 41  1  0
 22 42  1  0
 23 43  1  0
 24 44  1  0
 25 45  1  0
 26 46  1  0
 27 47  1  0
M  CHG  3   1  -1  12  -1  17  -1
M  END
>  <UniqueID>  (23) 
23

>  <SMILES>  (23) 
[NH-]C(=O)c1cccc(S(=O)(=O)[N-]CCC(=O)[N-]CCCc2ccccc2)c1

>  <Energy>  (23) 
35.92738755620836

>  <Genealogy>  (23) 
[NH-]C(=O)c1cccc(S(=O)(=O)[N-]CCC(=O)[N-]CCCc2ccccc2)c1 (protonated)
[NH-]C(=O)c1cccc(S(=O)(=O)[N-]CCC(=O)[N-]CCCc2ccccc2)c1 (3D coordinates assigned)
[NH-]C(=O)c1cccc(S(=O)(=O)[N-]CCC(=O)[N-]CCCc2ccccc2)c1 (optimized conformer: 35.92738755620836 kcal/mol)

>  <smiles>  (23) 
NC(=O)c1cccc(S(=O)(=O)NCCC(=O)NCCCc2ccccc2)c1

>  <score_type>  (23) 
oracle

>  <origin>  (23) 
adg

>  <m_score__min__energy>  (23) 
-14.119999999999999

>  <m_primary>  (23) 
energy

$$$$
23:0
     RDKit          3D

 34 36  0  0  0  0  0  0  0  0999 V2000
   64.5470   32.0060   46.7560 H   0  0  0  0  0  0  0  0  0  0  0  0
   64.0190   32.6300   47.3540 O   0  0  0  0  0  0  0  0  0  0  0  0
   62.6260   32.6290   47.3590 C   0  0  0  0  0  0  0  0  0  0  0  0
   61.9110   33.8340   47.4010 C   0  0  0  0  0  0  0  0  0  0  0  0
   62.4507   34.7921   47.4301 H   0  0  0  0  0  0  0  0  0  0  0  0
   60.5130   33.8200   47.4060 C   0  0  0  0  0  0  0  0  0  0  0  0
   59.9541   34.7668   47.4391 H   0  0  0  0  0  0  0  0  0  0  0  0
   59.8250   32.6040   47.3690 C   0  0  0  0  0  0  0  0  0  0  0  0
   58.7250   32.5959   47.3744 H   0  0  0  0  0  0  0  0  0  0  0  0
   60.5330   31.3940   47.3250 C   0  0  0  0  0  0  0  0  0  0  0  0
   59.8250   30.1410   47.2990 N   0  0  0  0  0  0  0  0  0  0  0  0
   59.8630   29.1950   48.2610 C   0  0  0  0  0  0  0  0  0  0  0  0
   60.6280   29.3080   49.5460 C   0  0  0  0  0  0  0  0  0  0  0  0
   59.9360   29.2058   50.3949 H   0  0  0  0  0  0  0  0  0  0  0  0
   61.3858   28.5120   49.5928 H   0  0  0  0  0  0  0  0  0  0  0  0
   61.1233   30.2891   49.5928 H   0  0  0  0  0  0  0  0  0  0  0  0
   59.0700   28.1200   47.9140 C   0  0  0  0  0  0  0  0  0  0  0  0
   58.9014   27.2104   48.5091 H   0  0  0  0  0  0  0  0  0  0  0  0
   58.5250   28.4080   46.6670 C   0  0  0  0  0  0  0  0  0  0  0  0
   57.6790   27.6400   45.9470 C   0  0  0  0  0  0  0  0  0  0  0  0
   57.3269   28.0453   44.9869 H   0  0  0  0  0  0  0  0  0  0  0  0
   57.1840   26.3000   46.3370 C   0  0  0  0  0  0  0  0  0  0  0  0
   57.9430   25.2510   46.7020 N   0  0  0  0  0  0  0  0  0  0  0  0
   57.0430   24.2680   46.9180 C   0  0  0  0  0  0  0  0  0  0  0  0
   57.3760   23.1120   47.2850 O   0  0  0  0  0  0  0  0  0  0  0  0
   55.7580   24.6220   46.7060 N   0  0  0  0  0  0  0  0  0  0  0  0
   55.8650   25.9080   46.3370 C   0  0  0  0  0  0  0  0  0  0  0  0
   54.7800   26.7070   46.0030 O   0  0  0  0  0  0  0  0  0  0  0  0
   59.0120   29.6760   46.3170 C   0  0  0  0  0  0  0  0  0  0  0  0
   58.7150   30.3660   45.2040 C   0  0  0  0  0  0  0  0  0  0  0  0
   59.1605   31.3577   45.0364 H   0  0  0  0  0  0  0  0  0  0  0  0
   58.0262   29.9396   44.4599 H   0  0  0  0  0  0  0  0  0  0  0  0
   61.9350   31.4120   47.3220 C   0  0  0  0  0  0  0  0  0  0  0  0
   62.4946   30.4655   47.2904 H   0  0  0  0  0  0  0  0  0  0  0  0
  1  2  1  0
  2  3  1  0
  3  4  2  0
  4  5  1  0
  4  6  1  0
  6  7  1  0
  6  8  2  0
  8  9  1  0
  8 10  1  0
 10 11  1  0
 11 12  1  0
 12 13  1  0
 13 14  1  0
 13 15  1  0
 13 16  1  0
 12 17  2  0
 17 18  1  0
 17 19  1  0
 19 20  2  0
 20 21  1  0
 20 22  1  0
 22 23  1  0
 23 24  1  0
 24 25  2  0
 24 26  1  0
 26 27  1  0
 27 28  1  0
 19 29  1  0
 29 30  2  0
 30 31  1  0
 30 32  1  0
 10 33  2  0
 33 34  1  0
 33  3  1  0
 29 11  1  0
 27 22  2  0
M  CHG  3  23  -1  26  -1  28  -1
M  END
>  <UniqueID>  (24) 
24

>  <SMILES>  (24) 
C=c1/c(=C/c2[n-]c(=O)[n-]c2[O-])cc(C)n1-c1cccc(O)c1

>  <Energy>  (24) 
104.34491046128305

>  <Genealogy>  (24) 
C=c1c(=Cc2[n-]c(=O)[n-]c2[O-])cc(C)n1-c1cccc(O)c1 (protonated)
C=c1/c(=C/c2[n-]c(=O)[n-]c2[O-])cc(C)n1-c1cccc(O)c1 (cis-trans isomerization)
C=c1/c(=C/c2[n-]c(=O)[n-]c2[O-])cc(C)n1-c1cccc(O)c1 (3D coordinates assigned)
C=c1/c(=C/c2[n-]c(=O)[n-]c2[O-])cc(C)n1-c1cccc(O)c1 (optimized conformer: 104.34491046128305 kcal/mol)

>  <smiles>  (24) 
C=c1c(=Cc2[nH]c(=O)[nH]c2O)cc(C)n1-c1cccc(O)c1

>  <score_type>  (24) 
oracle

>  <origin>  (24) 
adg

>  <m_score__min__energy>  (24) 
-14.890000000000001

>  <m_primary>  (24) 
energy

$$$$
24:0
     RDKit          3D

 58 61  0  0  1  0  0  0  0  0999 V2000
   59.0070   30.9430   48.9420 N   0  0  0  0  0  0  0  0  0  0  0  0
   60.3750   30.2180   48.1530 S   0  0  0  0  0  0  0  0  0  0  0  0
   61.0560   29.3260   49.1450 O   0  0  0  0  0  0  0  0  0  0  0  0
   59.9570   29.4850   46.9250 O   0  0  0  0  0  0  0  0  0  0  0  0
   61.5120   31.4940   47.7410 C   0  0  0  0  0  0  0  0  0  0  0  0
   62.8690   31.2680   47.6390 C   0  0  0  0  0  0  0  0  0  0  0  0
   63.7650   32.2800   47.3130 C   0  0  0  0  0  0  0  0  0  0  0  0
   63.3070   33.5620   47.0780 C   0  0  0  0  0  0  0  0  0  0  0  0
   61.9470   33.8050   47.1760 C   0  0  0  0  0  0  0  0  0  0  0  0
   61.0570   32.7840   47.5040 C   0  0  0  0  0  0  0  0  0  0  0  0
   56.8760   30.5730   44.8600 N   0  0  0  0  0  0  0  0  0  0  0  0
   57.4960   31.6430   45.1490 C   0  0  0  0  0  0  0  0  0  0  0  0
   58.2580   31.7440   46.2520 N   0  0  0  0  0  0  0  0  0  0  0  0
   58.9170   32.8740   46.5640 C   0  0  0  0  0  0  0  0  0  0  0  0
   59.6550   33.0050   47.6120 N   0  0  0  0  0  0  0  0  0  0  0  0
   57.5020   29.2950   44.8790 C   0  0  0  0  0  0  0  0  0  0  0  0
   58.1090   28.7340   43.7740 C   0  0  0  0  0  0  0  0  0  0  0  0
   58.7020   27.4810   43.8590 C   0  0  0  0  0  0  0  0  0  0  0  0
   58.6960   26.7660   45.0600 C   0  0  0  0  0  0  0  0  0  0  0  0
   58.0810   27.3480   46.1570 C   0  0  0  0  0  0  0  0  0  0  0  0
   58.0630   26.6450   47.3760 O   0  0  0  0  0  0  0  0  0  0  0  0
   57.4260   25.4030   47.3580 C   0  0  0  0  0  0  0  0  0  0  0  0
   56.4190   25.2200   46.3150 C   0  0  0  0  0  0  0  0  0  0  0  0
   55.3900   25.9720   46.3440 O   0  0  0  0  0  0  0  0  0  0  0  0
   56.5630   24.2430   45.2920 N   0  0  0  0  0  0  0  0  0  0  0  0
   57.7060   23.3550   45.1980 C   0  0  0  0  0  0  0  0  0  0  0  0
   57.5090   22.5550   43.9200 C   0  0  0  0  0  0  0  0  0  0  0  0
   56.3110   21.8900   43.8580 O   0  0  0  0  0  0  0  0  0  0  0  0
   55.2100   22.5950   44.2740 C   0  0  0  0  0  0  0  0  0  0  0  0
   55.5380   24.0930   44.2710 C   0  0  0  0  0  0  0  0  0  0  0  0
   57.4970   28.5780   46.0760 C   0  0  0  0  0  0  0  0  0  0  0  0
   57.3920   32.7100   44.3300 N   0  0  0  0  0  0  0  0  0  0  0  0
   58.0360   33.8630   44.6030 C   0  0  0  0  0  0  0  0  0  0  0  0
   58.8150   33.9690   45.7310 C   0  0  0  0  0  0  0  0  0  0  0  0
   59.6440   35.4650   46.0760 Cl  0  0  0  0  0  0  0  0  0  0  0  0
   58.2330   31.1540   48.2750 H   0  0  0  0  0  0  0  0  0  0  0  0
   59.3580   31.7930   49.4410 H   0  0  0  0  0  0  0  0  0  0  0  0
   63.2548   30.2542   47.8215 H   0  0  0  0  0  0  0  0  0  0  0  0
   64.8403   32.0595   47.2421 H   0  0  0  0  0  0  0  0  0  0  0  0
   64.0061   34.3709   46.8191 H   0  0  0  0  0  0  0  0  0  0  0  0
   61.5635   34.8194   46.9921 H   0  0  0  0  0  0  0  0  0  0  0  0
   58.3370   30.9190   46.8850 H   0  0  0  0  0  0  0  0  0  0  0  0
   58.1233   29.2823   42.8205 H   0  0  0  0  0  0  0  0  0  0  0  0
   59.1823   27.0459   42.9702 H   0  0  0  0  0  0  0  0  0  0  0  0
   59.1644   25.7733   45.1321 H   0  0  0  0  0  0  0  0  0  0  0  0
   58.1969   24.6302   47.2222 H   0  0  0  0  0  0  0  0  0  0  0  0
   56.8840   25.3313   48.3125 H   0  0  0  0  0  0  0  0  0  0  0  0
   58.6385   23.9361   45.1456 H   0  0  0  0  0  0  0  0  0  0  0  0
   57.7806   22.6987   46.0776 H   0  0  0  0  0  0  0  0  0  0  0  0
   57.5654   23.2467   43.0666 H   0  0  0  0  0  0  0  0  0  0  0  0
   58.2994   21.7903   43.8978 H   0  0  0  0  0  0  0  0  0  0  0  0
   54.3697   22.4012   43.5910 H   0  0  0  0  0  0  0  0  0  0  0  0
   54.9327   22.2800   45.2908 H   0  0  0  0  0  0  0  0  0  0  0  0
   55.9197   24.4055   43.2878 H   0  0  0  0  0  0  0  0  0  0  0  0
   54.6535   24.7154   44.4714 H   0  0  0  0  0  0  0  0  0  0  0  0
   57.0159   29.0102   46.9658 H   0  0  0  0  0  0  0  0  0  0  0  0
   56.8170   32.6870   43.4630 H   0  0  0  0  0  0  0  0  0  0  0  0
   57.9378   34.7209   43.9215 H   0  0  0  0  0  0  0  0  0  0  0  0
  1  2  1  0
  2  3  2  0
  2  4  2  0
  2  5  1  0
  5  6  2  0
  6  7  1  0
  7  8  2  0
  8  9  1  0
  9 10  2  0
 10 11  1  0
 11 12  2  0
 12 13  1  0
 13 14  1  0
 14 15  2  0
 15 16  1  0
 16 17  2  0
 17 18  1  0
 18 19  2  0
 19 20  1  0
 20 21  1  0
 21 22  1  0
 22 23  1  0
 23 24  2  0
 23 25  1  0
 25 26  1  0
 26 27  1  0
 27 28  1  0
 28 29  1  0
 29 30  1  0
 20 31  2  0
 14 32  1  0
 32 33  1  0
 33 34  2  0
 34 35  1  0
 10  5  1  0
 34 12  1  0
 31 16  1  0
 30 25  1  0
  1 36  1  0
  1 37  1  0
  6 38  1  0
  7 39  1  0
  8 40  1  0
  9 41  1  0
 13 42  1  0
 17 43  1  0
 18 44  1  0
 19 45  1  0
 22 46  1  0
 22 47  1  0
 26 48  1  0
 26 49  1  0
 27 50  1  0
 27 51  1  0
 29 52  1  0
 29 53  1  0
 30 54  1  0
 30 55  1  0
 31 56  1  0
 32 57  1  0
 33 58  1  0
M  END
>  <smiles>  (25) 
NS(=O)(=O)c1ccccc1N=c1[nH]c(=Nc2cccc(OCC(=O)N3CCOCC3)c2)[nH]cc1Cl

>  <score_type>  (25) 
oracle

>  <origin>  (25) 
adg

>  <m_score__min__energy>  (25) 
-9.4499999999999993

>  <m_primary>  (25) 
energy

$$$$
25:0
     RDKit          3D

 56 59  0  0  0  0  0  0  0  0999 V2000
   55.5800   23.9270   45.7410 C   0  0  0  0  0  0  0  0  0  0  0  0
   56.5560   24.3580   46.8280 C   0  0  0  0  0  0  0  0  0  0  0  0
   57.3100   25.5340   46.4010 N   0  0  0  0  0  0  0  0  0  0  0  0
   58.7660   25.6050   46.2900 C   0  0  0  0  0  0  0  0  0  0  0  0
   59.0050   27.0020   45.7990 C   0  0  0  0  0  0  0  0  0  0  0  0
   60.2370   27.6160   45.5860 C   0  0  0  0  0  0  0  0  0  0  0  0
   60.2570   28.9520   45.1610 C   0  0  0  0  0  0  0  0  0  0  0  0
   59.0550   29.6510   44.9480 C   0  0  0  0  0  0  0  0  0  0  0  0
   57.8060   29.0240   45.1500 C   0  0  0  0  0  0  0  0  0  0  0  0
   56.5600   29.7700   44.8740 C   0  0  0  0  0  0  0  0  0  0  0  0
   55.4540   29.1690   44.8670 O   0  0  0  0  0  0  0  0  0  0  0  0
   56.6310   31.1560   44.5150 N   0  0  0  0  0  0  0  0  0  0  0  0
   57.4160   32.1760   45.1530 C   0  0  0  0  0  0  0  0  0  0  0  0
   57.7590   33.3760   44.5040 C   0  0  0  0  0  0  0  0  0  0  0  0
   58.5000   34.3500   45.1750 C   0  0  0  0  0  0  0  0  0  0  0  0
   58.9000   34.1440   46.4980 C   0  0  0  0  0  0  0  0  0  0  0  0
   58.5620   32.9520   47.1620 C   0  0  0  0  0  0  0  0  0  0  0  0
   58.9170   32.7320   48.5380 N   0  0  0  0  0  0  0  0  0  0  0  0
   59.2150   31.4420   49.0980 C   0  0  0  0  0  0  0  0  0  0  0  0
   58.9850   30.3880   48.4440 O   0  0  0  0  0  0  0  0  0  0  0  0
   59.8100   31.3390   50.4690 C   0  0  0  0  0  0  0  0  0  0  0  0
   61.3090   31.0470   50.3790 C   0  0  0  0  0  0  0  0  0  0  0  0
   61.9570   31.9180   49.3370 C   0  0  0  0  0  0  0  0  0  0  0  0
   62.3610   31.3740   48.1060 C   0  0  0  0  0  0  0  0  0  0  0  0
   62.9280   32.1940   47.1250 C   0  0  0  0  0  0  0  0  0  0  0  0
   63.0850   33.5620   47.3610 C   0  0  0  0  0  0  0  0  0  0  0  0
   62.6740   34.1130   48.5790 C   0  0  0  0  0  0  0  0  0  0  0  0
   62.1100   33.2960   49.5630 C   0  0  0  0  0  0  0  0  0  0  0  0
   57.8000   31.9870   46.4870 C   0  0  0  0  0  0  0  0  0  0  0  0
   57.8190   27.6860   45.5920 C   0  0  0  0  0  0  0  0  0  0  0  0
   56.7540   26.7760   45.9800 C   0  0  0  0  0  0  0  0  0  0  0  0
   55.5210   27.0300   45.9910 O   0  0  0  0  0  0  0  0  0  0  0  0
   54.6680   23.5243   46.2058 H   0  0  0  0  0  0  0  0  0  0  0  0
   55.3208   24.7943   45.1161 H   0  0  0  0  0  0  0  0  0  0  0  0
   56.0464   23.1511   45.1161 H   0  0  0  0  0  0  0  0  0  0  0  0
   55.9952   24.6000   47.7429 H   0  0  0  0  0  0  0  0  0  0  0  0
   57.2597   23.5349   47.0213 H   0  0  0  0  0  0  0  0  0  0  0  0
   59.2444   25.4432   47.2672 H   0  0  0  0  0  0  0  0  0  0  0  0
   59.1857   24.8363   45.6245 H   0  0  0  0  0  0  0  0  0  0  0  0
   61.1747   27.0642   45.7478 H   0  0  0  0  0  0  0  0  0  0  0  0
   61.2196   29.4572   44.9929 H   0  0  0  0  0  0  0  0  0  0  0  0
   59.0885   30.7003   44.6196 H   0  0  0  0  0  0  0  0  0  0  0  0
   57.4423   33.5472   43.4646 H   0  0  0  0  0  0  0  0  0  0  0  0
   58.7703   35.2838   44.6602 H   0  0  0  0  0  0  0  0  0  0  0  0
   59.4813   34.9172   47.0216 H   0  0  0  0  0  0  0  0  0  0  0  0
   58.8870   33.5500   49.1870 H   0  0  0  0  0  0  0  0  0  0  0  0
   59.6571   32.2886   51.0028 H   0  0  0  0  0  0  0  0  0  0  0  0
   59.3183   30.5176   51.0107 H   0  0  0  0  0  0  0  0  0  0  0  0
   61.7750   31.2444   51.3557 H   0  0  0  0  0  0  0  0  0  0  0  0
   61.4485   29.9930   50.0966 H   0  0  0  0  0  0  0  0  0  0  0  0
   62.2308   30.2989   47.9131 H   0  0  0  0  0  0  0  0  0  0  0  0
   63.2507   31.7613   46.1665 H   0  0  0  0  0  0  0  0  0  0  0  0
   63.5318   34.2057   46.5890 H   0  0  0  0  0  0  0  0  0  0  0  0
   62.7948   35.1908   48.7629 H   0  0  0  0  0  0  0  0  0  0  0  0
   61.7846   33.7339   50.5182 H   0  0  0  0  0  0  0  0  0  0  0  0
   57.4996   31.0686   47.0126 H   0  0  0  0  0  0  0  0  0  0  0  0
  1  2  1  0
  2  3  1  0
  3  4  1  0
  4  5  1  0
  5  6  2  0
  6  7  1  0
  7  8  2  0
  8  9  1  0
  9 10  1  0
 10 11  2  0
 10 12  1  0
 12 13  1  0
 13 14  2  0
 14 15  1  0
 15 16  2  0
 16 17  1  0
 17 18  1  0
 18 19  1  0
 19 20  2  0
 19 21  1  0
 21 22  1  0
 22 23  1  0
 23 24  2  0
 24 25  1  0
 25 26  2  0
 26 27  1  0
 27 28  2  0
 17 29  2  0
  9 30  2  0
 30 31  1  0
 31 32  2  0
 31  3  1  0
 30  5  1  0
 29 13  1  0
 28 23  1  0
  1 33  1  0
  1 34  1  0
  1 35  1  0
  2 36  1  0
  2 37  1  0
  4 38  1  0
  4 39  1  0
  6 40  1  0
  7 41  1  0
  8 42  1  0
 14 43  1  0
 15 44  1  0
 16 45  1  0
 18 46  1  0
 21 47  1  0
 21 48  1  0
 22 49  1  0
 22 50  1  0
 24 51  1  0
 25 52  1  0
 26 53  1  0
 27 54  1  0
 28 55  1  0
 29 56  1  0
M  CHG  1  12  -1
M  END
>  <UniqueID>  (26) 
25

>  <SMILES>  (26) 
CCN1Cc2cccc(C(=O)[N-]c3cccc(NC(=O)CCc4ccccc4)c3)c2C1=O

>  <Energy>  (26) 
84.04797746771028

>  <Genealogy>  (26) 
CCN1Cc2cccc(C(=O)[N-]c3cccc(NC(=O)CCc4ccccc4)c3)c2C1=O (protonated)
CCN1Cc2cccc(C(=O)[N-]c3cccc(NC(=O)CCc4ccccc4)c3)c2C1=O (3D coordinates assigned)
CCN1Cc2cccc(C(=O)[N-]c3cccc(NC(=O)CCc4ccccc4)c3)c2C1=O (nonaromatic ring conformer: 84.04797746771028 kcal/mol)

>  <smiles>  (26) 
CCN1Cc2cccc(C(=O)Nc3cccc(NC(=O)CCc4ccccc4)c3)c2C1=O

>  <score_type>  (26) 
oracle

>  <origin>  (26) 
adg

>  <m_score__min__energy>  (26) 
-12.31

>  <m_primary>  (26) 
energy

$$$$
26:0
     RDKit          3D

 47 49  0  0  0  0  0  0  0  0999 V2000
   55.7630   27.4070   45.6250 O   0  0  0  0  0  0  0  0  0  0  0  0
   56.6820   28.1800   45.2420 C   0  0  0  0  0  0  0  0  0  0  0  0
   57.8190   27.6430   44.4250 C   0  0  0  0  0  0  0  0  0  0  0  0
   58.7010   26.6780   45.2270 C   0  0  0  0  0  0  0  0  0  0  0  0
   59.6850   27.4100   46.0970 C   0  0  0  0  0  0  0  0  0  0  0  0
   60.7550   26.8330   46.4330 O   0  0  0  0  0  0  0  0  0  0  0  0
   59.3690   28.7230   46.5880 N   0  0  0  0  0  0  0  0  0  0  0  0
   60.2700   29.5560   47.3400 C   0  0  0  0  0  0  0  0  0  0  0  0
   60.5790   29.2860   48.6870 C   0  0  0  0  0  0  0  0  0  0  0  0
   61.4670   30.1100   49.3850 C   0  0  0  0  0  0  0  0  0  0  0  0
   62.0760   31.1900   48.7420 C   0  0  0  0  0  0  0  0  0  0  0  0
   61.8030   31.4450   47.3980 C   0  0  0  0  0  0  0  0  0  0  0  0
   60.9080   30.6290   46.6980 C   0  0  0  0  0  0  0  0  0  0  0  0
   56.6740   29.5630   45.6140 N   0  0  0  0  0  0  0  0  0  0  0  0
   57.2470   30.6350   44.8530 C   0  0  0  0  0  0  0  0  0  0  0  0
   57.0890   30.6350   43.4600 C   0  0  0  0  0  0  0  0  0  0  0  0
   57.6190   31.6760   42.6920 C   0  0  0  0  0  0  0  0  0  0  0  0
   58.2950   32.7290   43.3090 C   0  0  0  0  0  0  0  0  0  0  0  0
   58.4380   32.7540   44.7040 C   0  0  0  0  0  0  0  0  0  0  0  0
   59.2610   34.0960   45.4920 S   0  0  0  0  0  0  0  0  0  0  0  0
   60.7200   33.7780   45.6890 O   0  0  0  0  0  0  0  0  0  0  0  0
   59.1370   35.3140   44.6230 O   0  0  0  0  0  0  0  0  0  0  0  0
   58.5350   34.4170   47.0370 N   0  0  0  0  0  0  0  0  0  0  0  0
   58.8720   33.8110   48.1360 C   0  0  0  0  0  0  0  0  0  0  0  0
   59.8730   34.3240   48.8990 N   0  0  0  0  0  0  0  0  0  0  0  0
   60.2640   33.7130   50.0480 C   0  0  0  0  0  0  0  0  0  0  0  0
   59.6290   32.5430   50.4640 C   0  0  0  0  0  0  0  0  0  0  0  0
   58.5990   32.0310   49.6760 C   0  0  0  0  0  0  0  0  0  0  0  0
   58.2420   32.6690   48.5300 N   0  0  0  0  0  0  0  0  0  0  0  0
   57.9080   31.7080   45.4750 C   0  0  0  0  0  0  0  0  0  0  0  0
   57.4093   27.1090   43.5549 H   0  0  0  0  0  0  0  0  0  0  0  0
   58.4436   28.4934   44.1139 H   0  0  0  0  0  0  0  0  0  0  0  0
   58.0573   26.0545   45.8649 H   0  0  0  0  0  0  0  0  0  0  0  0
   59.2685   26.0619   44.5140 H   0  0  0  0  0  0  0  0  0  0  0  0
   58.3810   29.0500   46.4860 H   0  0  0  0  0  0  0  0  0  0  0  0
   60.1199   28.4234   49.1921 H   0  0  0  0  0  0  0  0  0  0  0  0
   61.6866   29.9071   50.4436 H   0  0  0  0  0  0  0  0  0  0  0  0
   62.7706   31.8392   49.2952 H   0  0  0  0  0  0  0  0  0  0  0  0
   62.2918   32.2883   46.8883 H   0  0  0  0  0  0  0  0  0  0  0  0
   60.7026   30.8297   45.6362 H   0  0  0  0  0  0  0  0  0  0  0  0
   56.5463   29.8133   42.9698 H   0  0  0  0  0  0  0  0  0  0  0  0
   57.5027   31.6648   41.5982 H   0  0  0  0  0  0  0  0  0  0  0  0
   58.7170   33.5418   42.6997 H   0  0  0  0  0  0  0  0  0  0  0  0
   61.0801   34.1405   50.6491 H   0  0  0  0  0  0  0  0  0  0  0  0
   59.9335   32.0363   51.3916 H   0  0  0  0  0  0  0  0  0  0  0  0
   58.0763   31.1125   49.9811 H   0  0  0  0  0  0  0  0  0  0  0  0
   58.0103   31.7280   46.5700 H   0  0  0  0  0  0  0  0  0  0  0  0
  1  2  2  0
  2  3  1  0
  3  4  1  0
  4  5  1  0
  5  6  2  0
  5  7  1  0
  7  8  1  0
  8  9  2  0
  9 10  1  0
 10 11  2  0
 11 12  1  0
 12 13  2  0
  2 14  1  0
 14 15  1  0
 15 16  2  0
 16 17  1  0
 17 18  2  0
 18 19  1  0
 19 20  1  0
 20 21  2  0
 20 22  2  0
 20 23  1  0
 23 24  2  3
 24 25  1  0
 25 26  2  0
 26 27  1  0
 27 28  2  0
 28 29  1  0
 19 30  2  0
 13  8  1  0
 30 15  1  0
 29 24  1  0
  3 31  1  0
  3 32  1  0
  4 33  1  0
  4 34  1  0
  7 35  1  0
  9 36  1  0
 10 37  1  0
 11 38  1  0
 12 39  1  0
 13 40  1  0
 16 41  1  0
 17 42  1  0
 18 43  1  0
 26 44  1  0
 27 45  1  0
 28 46  1  0
 30 47  1  0
M  CHG  2  14  -1  29  -1
M  END
>  <UniqueID>  (27) 
26

>  <SMILES>  (27) 
O=C(CCC(=O)Nc1ccccc1)[N-]c1cccc(S(=O)(=O)N=c2nccc[n-]2)c1

>  <Energy>  (27) 
53.24217909445536

>  <Genealogy>  (27) 
O=C(CCC(=O)Nc1ccccc1)[N-]c1cccc(S(=O)(=O)N=c2nccc[n-]2)c1 (protonated)
O=C(CCC(=O)Nc1ccccc1)[N-]c1cccc(S(=O)(=O)N=c2nccc[n-]2)c1 (3D coordinates assigned)
O=C(CCC(=O)Nc1ccccc1)[N-]c1cccc(S(=O)(=O)N=c2nccc[n-]2)c1 (optimized conformer: 53.24217909445536 kcal/mol)

>  <smiles>  (27) 
O=C(CCC(=O)Nc1cccc(S(=O)(=O)N=c2nccc[nH]2)c1)Nc1ccccc1

>  <score_type>  (27) 
oracle

>  <origin>  (27) 
adg

>  <m_score__min__energy>  (27) 
-11.94

>  <m_primary>  (27) 
energy

$$$$
27:0
     RDKit          3D

 46 49  0  0  0  0  0  0  0  0999 V2000
   59.5330   34.8710   46.0090 C   0  0  0  0  0  0  0  0  0  0  0  0
   58.6170   34.2630   45.1030 O   0  0  0  0  0  0  0  0  0  0  0  0
   58.3100   32.8940   45.0890 C   0  0  0  0  0  0  0  0  0  0  0  0
   57.1170   32.3940   44.5360 C   0  0  0  0  0  0  0  0  0  0  0  0
   56.8530   31.0220   44.5570 C   0  0  0  0  0  0  0  0  0  0  0  0
   57.7590   30.1320   45.1430 C   0  0  0  0  0  0  0  0  0  0  0  0
   58.9770   30.6200   45.6610 C   0  0  0  0  0  0  0  0  0  0  0  0
   59.2330   32.0010   45.6420 C   0  0  0  0  0  0  0  0  0  0  0  0
   60.0030   29.6700   46.2170 C   0  0  0  0  0  0  0  0  0  0  0  0
   59.5200   29.0090   47.5220 C   0  0  1  0  0  0  0  0  0  0  0  0
   59.4790   30.0190   48.6530 C   0  0  0  0  0  0  0  0  0  0  0  0
   58.5350   29.9080   49.6930 C   0  0  0  0  0  0  0  0  0  0  0  0
   58.4770   30.8730   50.7020 C   0  0  0  0  0  0  0  0  0  0  0  0
   59.3520   31.9660   50.6810 C   0  0  0  0  0  0  0  0  0  0  0  0
   59.3030   32.9350   51.6820 O   0  0  0  0  0  0  0  0  0  0  0  0
   60.2830   32.0900   49.6460 C   0  0  0  0  0  0  0  0  0  0  0  0
   60.3430   31.1270   48.6340 C   0  0  0  0  0  0  0  0  0  0  0  0
   58.2200   28.3430   47.3750 N   0  0  0  0  0  0  0  0  0  0  0  0
   57.6830   27.8940   46.1180 C   0  0  0  0  0  0  0  0  0  0  0  0
   57.2590   26.4910   45.9620 C   0  0  0  0  0  0  0  0  0  0  0  0
   58.0740   25.3790   45.8570 C   0  0  0  0  0  0  0  0  0  0  0  0
   57.2870   24.2890   45.7510 N   0  0  0  0  0  0  0  0  0  0  0  0
   57.7510   22.9230   45.5540 C   0  0  0  0  0  0  0  0  0  0  0  0
   56.0100   24.6390   45.7720 N   0  0  0  0  0  0  0  0  0  0  0  0
   55.9740   25.9770   45.9110 C   0  0  0  0  0  0  0  0  0  0  0  0
   54.7960   26.7050   46.0030 O   0  0  0  0  0  0  0  0  0  0  0  0
   57.4380   28.7330   45.1510 N   0  0  0  0  0  0  0  0  0  0  0  0
   59.2192   34.6627   47.0425 H   0  0  0  0  0  0  0  0  0  0  0  0
   60.5402   34.4615   45.8420 H   0  0  0  0  0  0  0  0  0  0  0  0
   59.5468   35.9582   45.8420 H   0  0  0  0  0  0  0  0  0  0  0  0
   56.3896   33.0854   44.0856 H   0  0  0  0  0  0  0  0  0  0  0  0
   55.9245   30.6385   44.1088 H   0  0  0  0  0  0  0  0  0  0  0  0
   60.1718   32.3850   46.0677 H   0  0  0  0  0  0  0  0  0  0  0  0
   60.2024   28.8851   45.4725 H   0  0  0  0  0  0  0  0  0  0  0  0
   60.9152   30.2429   46.4402 H   0  0  0  0  0  0  0  0  0  0  0  0
   60.2518   28.2256   47.7683 H   0  0  0  0  0  0  0  0  0  0  0  0
   57.8392   29.0562   49.7108 H   0  0  0  0  0  0  0  0  0  0  0  0
   57.7423   30.7738   51.5146 H   0  0  0  0  0  0  0  0  0  0  0  0
   59.5550   32.7190   52.6390 H   0  0  0  0  0  0  0  0  0  0  0  0
   60.9709   32.9482   49.6275 H   0  0  0  0  0  0  0  0  0  0  0  0
   61.0716   31.2375   47.8173 H   0  0  0  0  0  0  0  0  0  0  0  0
   57.8070   27.9290   48.2420 H   0  0  0  0  0  0  0  0  0  0  0  0
   59.1740   25.3828   45.8595 H   0  0  0  0  0  0  0  0  0  0  0  0
   57.9130   22.4462   46.5319 H   0  0  0  0  0  0  0  0  0  0  0  0
   56.9949   22.3566   44.9906 H   0  0  0  0  0  0  0  0  0  0  0  0
   58.6957   22.9343   44.9906 H   0  0  0  0  0  0  0  0  0  0  0  0
  1  2  1  0
  2  3  1  0
  3  4  2  0
  4  5  1  0
  5  6  2  0
  6  7  1  0
  7  8  2  0
  7  9  1  0
  9 10  1  0
 10 11  1  0
 11 12  2  0
 12 13  1  0
 13 14  2  0
 14 15  1  0
 14 16  1  0
 16 17  2  0
 10 18  1  0
 18 19  1  0
 19 20  1  0
 20 21  2  0
 21 22  1  0
 22 23  1  0
 22 24  1  0
 24 25  2  0
 25 26  1  0
 19 27  2  0
  8  3  1  0
 17 11  1  0
 25 20  1  0
 27  6  1  0
  1 28  1  0
  1 29  1  0
  1 30  1  0
  4 31  1  0
  5 32  1  0
  8 33  1  0
  9 34  1  0
  9 35  1  0
 10 36  1  1
 12 37  1  0
 13 38  1  0
 15 39  1  0
 16 40  1  0
 17 41  1  0
 18 42  1  0
 21 43  1  0
 23 44  1  0
 23 45  1  0
 23 46  1  0
M  CHG  1  26  -1
M  END
>  <UniqueID>  (28) 
27

>  <SMILES>  (28) 
COc1ccc2c(c1)C[C@@H](c1ccc(O)cc1)NC(c1cn(C)nc1[O-])=N2

>  <Energy>  (28) 
90.89448963282915

>  <Genealogy>  (28) 
COc1ccc2c(c1)CC(c1ccc(O)cc1)NC(c1cn(C)nc1[O-])=N2 (protonated)
COc1ccc2c(c1)C[C@@H](c1ccc(O)cc1)NC(c1cn(C)nc1[O-])=N2 (chirality)
COc1ccc2c(c1)C[C@@H](c1ccc(O)cc1)NC(c1cn(C)nc1[O-])=N2 (3D coordinates assigned)
COc1ccc2c(c1)C[C@@H](c1ccc(O)cc1)NC(c1cn(C)nc1[O-])=N2 (nonaromatic ring conformer: 90.89448963282915 kcal/mol)

>  <smiles>  (28) 
COc1ccc2c(c1)CC(c1ccc(O)cc1)NC(c1cn(C)nc1O)=N2

>  <score_type>  (28) 
oracle

>  <origin>  (28) 
adg

>  <m_score__min__energy>  (28) 
-9.3000000000000007

>  <m_primary>  (28) 
energy

$$$$
28:0
     RDKit          3D

 32 33  0  0  0  0  0  0  0  0999 V2000
   57.9333   21.2125   42.4680 H   0  0  0  0  0  0  0  0  0  0  0  0
   57.3410   21.8520   43.1390 C   0  0  0  0  0  0  0  0  0  0  0  0
   56.2550   22.5740   42.6370 C   0  0  0  0  0  0  0  0  0  0  0  0
   55.9925   22.5017   41.5712 H   0  0  0  0  0  0  0  0  0  0  0  0
   55.5010   23.3890   43.4890 C   0  0  0  0  0  0  0  0  0  0  0  0
   54.6453   23.9551   43.0924 H   0  0  0  0  0  0  0  0  0  0  0  0
   55.8350   23.4850   44.8480 C   0  0  0  0  0  0  0  0  0  0  0  0
   54.8870   24.4930   45.9370 S   0  0  0  0  0  0  0  0  0  0  0  0
   53.4770   24.5800   45.4240 O   0  0  0  0  0  0  0  0  0  0  0  0
   54.8590   23.9040   47.3190 O   0  0  0  0  0  0  0  0  0  0  0  0
   55.5700   26.0820   46.0030 N   0  0  0  0  0  0  0  0  0  0  0  0
   56.8580   26.3370   46.5620 C   0  0  0  0  0  0  0  0  0  0  0  0
   57.4890   25.4180   47.1520 O   0  0  0  0  0  0  0  0  0  0  0  0
   57.4760   27.6080   46.3420 N   0  0  0  0  0  0  0  0  0  0  0  0
   57.1930   28.5470   45.4740 C   0  0  0  0  0  0  0  0  0  0  0  0
   58.1660   29.3700   44.8230 C   0  0  0  0  0  0  0  0  0  0  0  0
   59.6260   29.4330   45.1960 C   0  0  0  0  0  0  0  0  0  0  0  0
   59.7247   29.4373   46.2916 H   0  0  0  0  0  0  0  0  0  0  0  0
   60.1478   28.5565   44.7842 H   0  0  0  0  0  0  0  0  0  0  0  0
   60.0704   30.3512   44.7842 H   0  0  0  0  0  0  0  0  0  0  0  0
   57.7250   30.2580   43.8260 C   0  0  0  0  0  0  0  0  0  0  0  0
   58.4598   30.8570   43.2680 H   0  0  0  0  0  0  0  0  0  0  0  0
   56.3710   30.3880   43.5370 C   0  0  0  0  0  0  0  0  0  0  0  0
   56.0339   31.0792   42.7505 H   0  0  0  0  0  0  0  0  0  0  0  0
   55.4490   29.6350   44.2530 C   0  0  0  0  0  0  0  0  0  0  0  0
   54.3735   29.7533   44.0549 H   0  0  0  0  0  0  0  0  0  0  0  0
   55.8700   28.7530   45.1970 N   0  0  0  0  0  0  0  0  0  0  0  0
   55.1440   28.1890   45.6950 H   0  0  0  0  0  0  0  0  0  0  0  0
   56.9240   22.7560   45.3470 C   0  0  0  0  0  0  0  0  0  0  0  0
   57.1882   22.8245   46.4126 H   0  0  0  0  0  0  0  0  0  0  0  0
   57.6750   21.9420   44.4930 C   0  0  0  0  0  0  0  0  0  0  0  0
   58.5293   21.3722   44.8874 H   0  0  0  0  0  0  0  0  0  0  0  0
  1  2  1  0
  2  3  2  0
  3  4  1  0
  3  5  1  0
  5  6  1  0
  5  7  2  0
  7  8  1  0
  8  9  2  0
  8 10  2  0
  8 11  1  0
 11 12  1  0
 12 13  2  0
 12 14  1  0
 14 15  2  0
 15 16  1  0
 16 17  1  0
 17 18  1  0
 17 19  1  0
 17 20  1  0
 16 21  2  0
 21 22  1  0
 21 23  1  0
 23 24  1  0
 23 25  2  0
 25 26  1  0
 25 27  1  0
 27 28  1  0
  7 29  1  0
 29 30  1  0
 29 31  2  0
 31 32  1  0
 31  2  1  0
 27 15  1  0
M  CHG  1  11  -1
M  END
>  <UniqueID>  (29) 
28

>  <SMILES>  (29) 
Cc1ccc[nH]/c1=N/C(=O)[N-]S(=O)(=O)c1ccccc1

>  <Energy>  (29) 
51.471387177783534

>  <Genealogy>  (29) 
Cc1ccc[nH]c1=NC(=O)[N-]S(=O)(=O)c1ccccc1 (protonated)
Cc1ccc[nH]/c1=N/C(=O)[N-]S(=O)(=O)c1ccccc1 (cis-trans isomerization)
Cc1ccc[nH]/c1=N/C(=O)[N-]S(=O)(=O)c1ccccc1 (3D coordinates assigned)
Cc1ccc[nH]/c1=N/C(=O)[N-]S(=O)(=O)c1ccccc1 (optimized conformer: 51.471387177783534 kcal/mol)

>  <smiles>  (29) 
Cc1ccc[nH]c1=NC(=O)NS(=O)(=O)c1ccccc1

>  <score_type>  (29) 
oracle

>  <origin>  (29) 
adg

>  <m_score__min__energy>  (29) 
-9.7599999999999998

>  <m_primary>  (29) 
energy

$$$$
29:0
     RDKit          3D

 44 46  0  0  0  0  0  0  0  0999 V2000
   56.0670   22.5810   47.8000 C   0  0  0  0  0  0  0  0  0  0  0  0
   55.4540   21.8220   46.7630 O   0  0  0  0  0  0  0  0  0  0  0  0
   55.8620   21.8360   45.4200 C   0  0  0  0  0  0  0  0  0  0  0  0
   56.3220   20.6760   44.7660 C   0  0  0  0  0  0  0  0  0  0  0  0
   56.7100   20.7300   43.4250 C   0  0  0  0  0  0  0  0  0  0  0  0
   56.6330   21.9320   42.7220 C   0  0  0  0  0  0  0  0  0  0  0  0
   56.1780   23.0880   43.3610 C   0  0  0  0  0  0  0  0  0  0  0  0
   55.8140   23.0530   44.7170 C   0  0  0  0  0  0  0  0  0  0  0  0
   55.3140   24.2220   45.3800 N   0  0  0  0  0  0  0  0  0  0  0  0
   56.0220   25.4480   45.6120 C   0  0  0  0  0  0  0  0  0  0  0  0
   55.5230   26.2950   46.3980 O   0  0  0  0  0  0  0  0  0  0  0  0
   57.3880   25.7050   45.0360 C   0  0  0  0  0  0  0  0  0  0  0  0
   58.6700   25.6680   46.3390 S   0  0  0  0  0  0  0  0  0  0  0  0
   58.7490   27.4450   46.5430 C   0  0  0  0  0  0  0  0  0  0  0  0
   57.7750   28.1760   47.1290 N   0  0  0  0  0  0  0  0  0  0  0  0
   58.0410   29.4810   47.1520 N   0  0  0  0  0  0  0  0  0  0  0  0
   59.2270   29.7920   46.5870 C   0  0  0  0  0  0  0  0  0  0  0  0
   59.6400   31.0200   46.4790 N   0  0  0  0  0  0  0  0  0  0  0  0
   58.8960   32.1950   46.8270 C   0  0  0  0  0  0  0  0  0  0  0  0
   58.5790   32.3770   48.0320 O   0  0  0  0  0  0  0  0  0  0  0  0
   58.5890   33.2460   45.8330 C   0  0  0  0  0  0  0  0  0  0  0  0
   58.4710   34.4400   46.2150 O   0  0  0  0  0  0  0  0  0  0  0  0
   58.3270   32.9320   44.4590 N   0  0  0  0  0  0  0  0  0  0  0  0
   57.4700   31.8880   43.9760 C   0  0  0  0  0  0  0  0  0  0  0  0
   57.4510   31.6080   42.6030 C   0  0  0  0  0  0  0  0  0  0  0  0
   56.6480   30.5780   42.1050 C   0  0  0  0  0  0  0  0  0  0  0  0
   55.8710   29.8090   42.9760 C   0  0  0  0  0  0  0  0  0  0  0  0
   55.9040   30.0630   44.3500 C   0  0  0  0  0  0  0  0  0  0  0  0
   55.1440   29.2890   45.2170 O   0  0  0  0  0  0  0  0  0  0  0  0
   56.7060   31.0940   44.8520 C   0  0  0  0  0  0  0  0  0  0  0  0
   60.0120   28.4140   45.9960 S   0  0  0  0  0  0  0  0  0  0  0  0
   55.7503   22.1888   48.7777 H   0  0  0  0  0  0  0  0  0  0  0  0
   57.1609   22.5060   47.7117 H   0  0  0  0  0  0  0  0  0  0  0  0
   55.7634   23.6346   47.7117 H   0  0  0  0  0  0  0  0  0  0  0  0
   56.3759   19.7236   45.3137 H   0  0  0  0  0  0  0  0  0  0  0  0
   57.0769   19.8228   42.9227 H   0  0  0  0  0  0  0  0  0  0  0  0
   56.9307   21.9699   41.6637 H   0  0  0  0  0  0  0  0  0  0  0  0
   56.1044   24.0308   42.7990 H   0  0  0  0  0  0  0  0  0  0  0  0
   57.6138   24.9308   44.2879 H   0  0  0  0  0  0  0  0  0  0  0  0
   57.3896   26.7027   44.5728 H   0  0  0  0  0  0  0  0  0  0  0  0
   58.0706   32.2012   41.9144 H   0  0  0  0  0  0  0  0  0  0  0  0
   56.6275   30.3720   41.0247 H   0  0  0  0  0  0  0  0  0  0  0  0
   55.2339   29.0043   42.5803 H   0  0  0  0  0  0  0  0  0  0  0  0
   56.7395   31.2846   45.9348 H   0  0  0  0  0  0  0  0  0  0  0  0
  1  2  1  0
  2  3  1  0
  3  4  2  0
  4  5  1  0
  5  6  2  0
  6  7  1  0
  7  8  2  0
  8  9  1  0
  9 10  1  0
 10 11  2  0
 10 12  1  0
 12 13  1  0
 13 14  1  0
 14 15  2  0
 15 16  1  0
 16 17  1  0
 17 18  2  3
 18 19  1  0
 19 20  2  0
 19 21  1  0
 21 22  2  0
 21 23  1  0
 23 24  1  0
 24 25  2  0
 25 26  1  0
 26 27  2  0
 27 28  1  0
 28 29  1  0
 28 30  2  0
 17 31  1  0
  8  3  1  0
 31 14  1  0
 30 24  1  0
  1 32  1  0
  1 33  1  0
  1 34  1  0
  4 35  1  0
  5 36  1  0
  6 37  1  0
  7 38  1  0
 12 39  1  0
 12 40  1  0
 25 41  1  0
 26 42  1  0
 27 43  1  0
 30 44  1  0
M  CHG  4   9  -1  16  -1  23  -1  29  -1
M  END
>  <UniqueID>  (30) 
29

>  <SMILES>  (30) 
COc1ccccc1[N-]C(=O)CSc1n[n-]c(=NC(=O)C(=O)[N-]c2cccc([O-])c2)s1

>  <Energy>  (30) 
93.87908868646781

>  <Genealogy>  (30) 
COc1ccccc1[N-]C(=O)CSc1n[n-]c(=NC(=O)C(=O)[N-]c2cccc([O-])c2)s1 (protonated)
COc1ccccc1[N-]C(=O)CSc1n[n-]c(=NC(=O)C(=O)[N-]c2cccc([O-])c2)s1 (3D coordinates assigned)
COc1ccccc1[N-]C(=O)CSc1n[n-]c(=NC(=O)C(=O)[N-]c2cccc([O-])c2)s1 (optimized conformer: 93.87908868646781 kcal/mol)

>  <smiles>  (30) 
COc1ccccc1NC(=O)CSc1n[nH]c(=NC(=O)C(=O)Nc2cccc(O)c2)s1

>  <score_type>  (30) 
oracle

>  <origin>  (30) 
adg

>  <m_score__min__energy>  (30) 
-14.82

>  <m_primary>  (30) 
energy

$$$$
30:0
     RDKit          3D

 45 48  0  0  0  0  0  0  0  0999 V2000
   55.1670   29.4180   44.8210 O   0  0  0  0  0  0  0  0  0  0  0  0
   56.3720   29.3290   45.1750 C   0  0  0  0  0  0  0  0  0  0  0  0
   56.7890   28.1670   45.9060 N   0  0  0  0  0  0  0  0  0  0  0  0
   56.6160   26.9100   45.6040 C   0  0  0  0  0  0  0  0  0  0  0  0
   57.5790   26.1460   44.9110 C   0  0  0  0  0  0  0  0  0  0  0  0
   57.3210   24.8020   44.6330 C   0  0  0  0  0  0  0  0  0  0  0  0
   56.1230   24.2200   45.0490 C   0  0  0  0  0  0  0  0  0  0  0  0
   55.7910   22.5310   44.7130 Cl  0  0  0  0  0  0  0  0  0  0  0  0
   55.2000   24.9960   45.7510 C   0  0  0  0  0  0  0  0  0  0  0  0
   55.4670   26.3030   46.0120 N   0  0  0  0  0  0  0  0  0  0  0  0
   57.3320   30.3140   44.7600 N   0  0  0  0  0  0  0  0  0  0  0  0
   57.6230   31.4150   45.3880 C   0  0  0  0  0  0  0  0  0  0  0  0
   56.9220   32.5670   45.2730 N   0  0  0  0  0  0  0  0  0  0  0  0
   57.4440   33.5470   46.0560 C   0  0  0  0  0  0  0  0  0  0  0  0
   58.5700   33.1720   46.7830 C   0  0  0  0  0  0  0  0  0  0  0  0
   59.2870   34.0200   47.7860 C   0  0  0  0  0  0  0  0  0  0  0  0
   60.7730   33.8680   47.6190 C   0  0  0  0  0  0  0  0  0  0  0  0
   61.3500   33.9250   46.3410 C   0  0  0  0  0  0  0  0  0  0  0  0
   62.7350   33.8400   46.1920 C   0  0  0  0  0  0  0  0  0  0  0  0
   63.5560   33.7050   47.3140 C   0  0  0  0  0  0  0  0  0  0  0  0
   62.9980   33.6470   48.6040 C   0  0  0  0  0  0  0  0  0  0  0  0
   63.8800   33.5210   49.7880 C   0  0  0  0  0  0  0  0  0  0  0  0
   63.4390   33.8360   50.9270 O   0  0  0  0  0  0  0  0  0  0  0  0
   65.2310   33.0530   49.6580 N   0  0  0  0  0  0  0  0  0  0  0  0
   66.0610   32.7980   50.8320 C   0  0  0  0  0  0  0  0  0  0  0  0
   67.0880   31.7000   50.6100 C   0  0  0  0  0  0  0  0  0  0  0  0
   67.5240   33.1560   50.6390 C   0  0  0  0  0  0  0  0  0  0  0  0
   61.6010   33.7420   48.7460 C   0  0  0  0  0  0  0  0  0  0  0  0
   58.9070   31.5540   46.4610 S   0  0  0  0  0  0  0  0  0  0  0  0
   58.5260   26.6058   44.5921 H   0  0  0  0  0  0  0  0  0  0  0  0
   58.0627   24.2017   44.0857 H   0  0  0  0  0  0  0  0  0  0  0  0
   54.2549   24.5494   46.0937 H   0  0  0  0  0  0  0  0  0  0  0  0
   57.0110   34.5567   46.1110 H   0  0  0  0  0  0  0  0  0  0  0  0
   59.0096   35.0739   47.6368 H   0  0  0  0  0  0  0  0  0  0  0  0
   59.0028   33.6993   48.7991 H   0  0  0  0  0  0  0  0  0  0  0  0
   60.7088   34.0370   45.4542 H   0  0  0  0  0  0  0  0  0  0  0  0
   63.1817   33.8794   45.1875 H   0  0  0  0  0  0  0  0  0  0  0  0
   64.6470   33.6436   47.1879 H   0  0  0  0  0  0  0  0  0  0  0  0
   65.6850   33.0260   48.7180 H   0  0  0  0  0  0  0  0  0  0  0  0
   65.3014   33.0194   51.5961 H   0  0  0  0  0  0  0  0  0  0  0  0
   67.3615   31.0272   51.4362 H   0  0  0  0  0  0  0  0  0  0  0  0
   67.1971   30.8690   49.8976 H   0  0  0  0  0  0  0  0  0  0  0  0
   68.1134   33.5368   51.4861 H   0  0  0  0  0  0  0  0  0  0  0  0
   68.0798   33.8151   49.9559 H   0  0  0  0  0  0  0  0  0  0  0  0
   61.1531   33.7173   49.7504 H   0  0  0  0  0  0  0  0  0  0  0  0
  1  2  2  0
  2  3  1  0
  3  4  2  3
  4  5  1  0
  5  6  2  0
  6  7  1  0
  7  8  1  0
  7  9  2  0
  9 10  1  0
  2 11  1  0
 11 12  2  3
 12 13  1  0
 13 14  1  0
 14 15  2  0
 15 16  1  0
 16 17  1  0
 17 18  2  0
 18 19  1  0
 19 20  2  0
 20 21  1  0
 21 22  1  0
 22 23  2  0
 22 24  1  0
 24 25  1  0
 25 26  1  0
 26 27  1  0
 21 28  2  0
 15 29  1  0
 10  4  1  0
 29 12  1  0
 28 17  1  0
 27 25  1  0
  5 30  1  0
  6 31  1  0
  9 32  1  0
 14 33  1  0
 16 34  1  0
 16 35  1  0
 18 36  1  0
 19 37  1  0
 20 38  1  0
 24 39  1  0
 25 40  1  0
 26 41  1  0
 26 42  1  0
 27 43  1  0
 27 44  1  0
 28 45  1  0
M  CHG  2  10  -1  13  -1
M  END
>  <UniqueID>  (31) 
30

>  <SMILES>  (31) 
O=C(N=c1ccc(Cl)c[n-]1)N=c1[n-]cc(Cc2cccc(C(=O)NC3CC3)c2)s1

>  <Energy>  (31) 
351.5434036646579

>  <Genealogy>  (31) 
O=C(N=c1ccc(Cl)c[n-]1)N=c1[n-]cc(Cc2cccc(C(=O)NC3CC3)c2)s1 (protonated)
O=C(N=c1ccc(Cl)c[n-]1)N=c1[n-]cc(Cc2cccc(C(=O)NC3CC3)c2)s1 (3D coordinates assigned)
O=C(N=c1ccc(Cl)c[n-]1)N=c1[n-]cc(Cc2cccc(C(=O)NC3CC3)c2)s1 (nonaromatic ring conformer: 351.5434036646579 kcal/mol)

>  <smiles>  (31) 
O=C(N=c1ccc(Cl)c[nH]1)N=c1[nH]cc(Cc2cccc(C(=O)NC3CC3)c2)s1

>  <score_type>  (31) 
oracle

>  <origin>  (31) 
adg

>  <m_score__min__energy>  (31) 
-12.82

>  <m_primary>  (31) 
energy

$$$$
31:0
     RDKit          3D

 54 58  0  0  0  0  0  0  0  0999 V2000
   55.9140   25.6560   46.9260 O   0  0  0  0  0  0  0  0  0  0  0  0
   56.1370   25.5220   45.6930 C   0  0  0  0  0  0  0  0  0  0  0  0
   55.4960   24.4780   44.9530 N   0  0  0  0  0  0  0  0  0  0  0  0
   56.1560   23.3790   44.3090 C   0  0  0  0  0  0  0  0  0  0  0  0
   55.7300   22.9940   43.0310 C   0  0  0  0  0  0  0  0  0  0  0  0
   56.3390   21.9200   42.3760 C   0  0  0  0  0  0  0  0  0  0  0  0
   57.3670   21.2100   43.0010 C   0  0  0  0  0  0  0  0  0  0  0  0
   57.7780   21.5650   44.2880 C   0  0  0  0  0  0  0  0  0  0  0  0
   57.1720   22.6400   44.9490 C   0  0  0  0  0  0  0  0  0  0  0  0
   57.5380   22.9130   46.2280 F   0  0  0  0  0  0  0  0  0  0  0  0
   57.0450   26.4030   45.0160 N   0  0  0  0  0  0  0  0  0  0  0  0
   57.8920   27.3580   45.6760 C   0  0  0  0  0  0  0  0  0  0  0  0
   59.2250   27.0540   46.0050 C   0  0  0  0  0  0  0  0  0  0  0  0
   60.0350   28.0090   46.6270 C   0  0  0  0  0  0  0  0  0  0  0  0
   59.5360   29.2900   46.9030 C   0  0  0  0  0  0  0  0  0  0  0  0
   60.3900   30.2790   47.5920 C   0  0  0  0  0  0  0  0  0  0  0  0
   61.2070   29.8310   48.5820 N   0  0  0  0  0  0  0  0  0  0  0  0
   61.9880   30.6500   49.2830 N   0  0  0  0  0  0  0  0  0  0  0  0
   62.0170   31.9880   49.0540 C   0  0  0  0  0  0  0  0  0  0  0  0
   62.8950   32.8120   49.8340 N   0  0  0  0  0  0  0  0  0  0  0  0
   62.3160   33.7910   50.7560 C   0  0  0  0  0  0  0  0  0  0  0  0
   63.3480   34.1520   51.8290 C   0  0  0  0  0  0  0  0  0  0  0  0
   64.5710   34.5530   51.2370 O   0  0  0  0  0  0  0  0  0  0  0  0
   65.1440   33.4640   50.5370 C   0  0  0  0  0  0  0  0  0  0  0  0
   64.2590   33.0450   49.3600 C   0  0  0  0  0  0  0  0  0  0  0  0
   61.1990   32.5310   48.0450 C   0  0  0  0  0  0  0  0  0  0  0  0
   61.1680   33.9160   47.7880 C   0  0  0  0  0  0  0  0  0  0  0  0
   60.3750   34.4250   46.7590 C   0  0  0  0  0  0  0  0  0  0  0  0
   59.6070   33.5650   45.9760 C   0  0  0  0  0  0  0  0  0  0  0  0
   59.6080   32.1920   46.2290 C   0  0  0  0  0  0  0  0  0  0  0  0
   60.3810   31.6590   47.2820 C   0  0  0  0  0  0  0  0  0  0  0  0
   58.2060   29.5950   46.5730 C   0  0  0  0  0  0  0  0  0  0  0  0
   57.3970   28.6420   45.9510 C   0  0  0  0  0  0  0  0  0  0  0  0
   54.9112   23.5404   42.5401 H   0  0  0  0  0  0  0  0  0  0  0  0
   56.0083   21.6333   41.3668 H   0  0  0  0  0  0  0  0  0  0  0  0
   57.8526   20.3718   42.4799 H   0  0  0  0  0  0  0  0  0  0  0  0
   58.5801   20.9983   44.7835 H   0  0  0  0  0  0  0  0  0  0  0  0
   57.0140   26.4110   43.9710 H   0  0  0  0  0  0  0  0  0  0  0  0
   59.6327   26.0593   45.7717 H   0  0  0  0  0  0  0  0  0  0  0  0
   61.0693   27.7540   46.9013 H   0  0  0  0  0  0  0  0  0  0  0  0
   62.0331   34.6967   50.1995 H   0  0  0  0  0  0  0  0  0  0  0  0
   61.4233   33.3618   51.2345 H   0  0  0  0  0  0  0  0  0  0  0  0
   62.9568   34.9771   52.4424 H   0  0  0  0  0  0  0  0  0  0  0  0
   63.5327   33.2649   52.4527 H   0  0  0  0  0  0  0  0  0  0  0  0
   66.1327   33.7604   50.1566 H   0  0  0  0  0  0  0  0  0  0  0  0
   65.2375   32.6125   51.2271 H   0  0  0  0  0  0  0  0  0  0  0  0
   64.2528   33.8435   48.6035 H   0  0  0  0  0  0  0  0  0  0  0  0
   64.6551   32.1206   48.9144 H   0  0  0  0  0  0  0  0  0  0  0  0
   61.7724   34.5998   48.4021 H   0  0  0  0  0  0  0  0  0  0  0  0
   60.3559   35.5076   46.5653 H   0  0  0  0  0  0  0  0  0  0  0  0
   58.9972   33.9699   45.1549 H   0  0  0  0  0  0  0  0  0  0  0  0
   59.0017   31.5209   45.6028 H   0  0  0  0  0  0  0  0  0  0  0  0
   57.7990   30.5901   46.8057 H   0  0  0  0  0  0  0  0  0  0  0  0
   56.3640   28.8996   45.6745 H   0  0  0  0  0  0  0  0  0  0  0  0
  1  2  2  0
  2  3  1  0
  3  4  1  0
  4  5  2  0
  5  6  1  0
  6  7  2  0
  7  8  1  0
  8  9  2  0
  9 10  1  0
  2 11  1  0
 11 12  1  0
 12 13  2  0
 13 14  1  0
 14 15  2  0
 15 16  1  0
 16 17  2  0
 17 18  1  0
 18 19  2  0
 19 20  1  0
 20 21  1  0
 21 22  1  0
 22 23  1  0
 23 24  1  0
 24 25  1  0
 19 26  1  0
 26 27  2  0
 27 28  1  0
 28 29  2  0
 29 30  1  0
 30 31  2  0
 15 32  1  0
 32 33  2  0
  9  4  1  0
 33 12  1  0
 31 16  1  0
 25 20  1  0
 31 26  1  0
  5 34  1  0
  6 35  1  0
  7 36  1  0
  8 37  1  0
 11 38  1  0
 13 39  1  0
 14 40  1  0
 21 41  1  0
 21 42  1  0
 22 43  1  0
 22 44  1  0
 24 45  1  0
 24 46  1  0
 25 47  1  0
 25 48  1  0
 27 49  1  0
 28 50  1  0
 29 51  1  0
 30 52  1  0
 32 53  1  0
 33 54  1  0
M  CHG  1   3  -1
M  END
>  <UniqueID>  (32) 
31

>  <SMILES>  (32) 
O=C([N-]c1ccccc1F)Nc1ccc(-c2nnc(N3CCOCC3)c3ccccc23)cc1

>  <Energy>  (32) 
87.49750886611386

>  <Genealogy>  (32) 
O=C([N-]c1ccccc1F)Nc1ccc(-c2nnc(N3CCOCC3)c3ccccc23)cc1 (protonated)
O=C([N-]c1ccccc1F)Nc1ccc(-c2nnc(N3CCOCC3)c3ccccc23)cc1 (3D coordinates assigned)
O=C([N-]c1ccccc1F)Nc1ccc(-c2nnc(N3CCOCC3)c3ccccc23)cc1 (nonaromatic ring conformer: 87.49750886611386 kcal/mol)

>  <smiles>  (32) 
O=C(Nc1ccc(-c2nnc(N3CCOCC3)c3ccccc23)cc1)Nc1ccccc1F

>  <score_type>  (32) 
oracle

>  <origin>  (32) 
adg

>  <m_score__min__energy>  (32) 
-9.9600000000000009

>  <m_primary>  (32) 
energy

$$$$
32:0
     RDKit          3D

 67 71  0  0  0  0  0  0  0  0999 V2000
   62.7670   29.2780   52.6930 N   0  0  0  0  0  0  0  0  0  0  0  0
   61.7600   30.2990   52.6930 C   0  0  0  0  0  0  0  0  0  0  0  0
   62.1090   31.6020   53.0790 C   0  0  0  0  0  0  0  0  0  0  0  0
   61.1330   32.5980   53.1760 C   0  0  0  0  0  0  0  0  0  0  0  0
   59.7980   32.2980   52.8980 C   0  0  0  0  0  0  0  0  0  0  0  0
   59.4400   31.0080   52.4970 C   0  0  0  0  0  0  0  0  0  0  0  0
   60.4150   30.0110   52.3580 C   0  0  0  0  0  0  0  0  0  0  0  0
   60.0000   28.7250   51.8780 N   0  0  0  0  0  0  0  0  0  0  0  0
   60.5330   28.0780   50.7140 C   0  0  0  0  0  0  0  0  0  0  0  0
   61.3920   27.1630   50.8410 O   0  0  0  0  0  0  0  0  0  0  0  0
   60.1080   28.5100   49.3610 C   0  0  0  0  0  0  0  0  0  0  0  0
   59.0960   29.4770   49.2010 C   0  0  0  0  0  0  0  0  0  0  0  0
   58.7280   29.9100   47.9250 C   0  0  0  0  0  0  0  0  0  0  0  0
   59.3580   29.3850   46.7870 C   0  0  0  0  0  0  0  0  0  0  0  0
   58.9610   29.8670   45.4150 C   0  0  0  0  0  0  0  0  0  0  0  0
   58.5790   31.2890   45.4580 N   0  0  0  0  0  0  0  0  0  0  0  0
   59.4520   32.1960   45.9980 C   0  0  0  0  0  0  0  0  0  0  0  0
   59.1480   33.5700   46.0440 C   0  0  0  0  0  0  0  0  0  0  0  0
   60.1420   34.5090   46.6500 C   0  0  0  0  0  0  0  0  0  0  0  0
   59.9950   35.7450   46.4180 O   0  0  0  0  0  0  0  0  0  0  0  0
   61.2580   34.0970   47.4900 N   0  0  0  0  0  0  0  0  0  0  0  0
   60.8700   33.1810   48.6000 C   0  0  0  0  0  0  0  0  0  0  0  0
   61.9430   32.1260   48.9380 C   0  0  0  0  0  0  0  0  0  0  0  0
   63.2970   32.6770   48.7790 N   0  0  0  0  0  0  0  0  0  0  0  0
   64.3520   32.2850   49.6850 C   0  0  0  0  0  0  0  0  0  0  0  0
   64.1880   31.1740   50.5350 C   0  0  0  0  0  0  0  0  0  0  0  0
   65.2030   30.8080   51.4210 C   0  0  0  0  0  0  0  0  0  0  0  0
   66.3880   31.5470   51.4740 C   0  0  0  0  0  0  0  0  0  0  0  0
   66.5660   32.6470   50.6300 C   0  0  0  0  0  0  0  0  0  0  0  0
   68.0470   33.5920   50.7200 Cl  0  0  0  0  0  0  0  0  0  0  0  0
   65.5540   33.0150   49.7370 C   0  0  0  0  0  0  0  0  0  0  0  0
   63.6340   33.4400   47.5680 C   0  0  0  0  0  0  0  0  0  0  0  0
   62.3990   33.6300   46.6760 C   0  0  0  0  0  0  0  0  0  0  0  0
   57.9100   33.9890   45.5270 C   0  0  0  0  0  0  0  0  0  0  0  0
   57.0170   33.0590   45.0000 C   0  0  0  0  0  0  0  0  0  0  0  0
   57.3620   31.7050   44.9740 C   0  0  0  0  0  0  0  0  0  0  0  0
   56.5400   30.8720   44.4970 O   0  0  0  0  0  0  0  0  0  0  0  0
   60.3450   28.4000   46.9400 C   0  0  0  0  0  0  0  0  0  0  0  0
   60.7270   27.9740   48.2150 C   0  0  0  0  0  0  0  0  0  0  0  0
   63.7070   29.4370   53.1100 H   0  0  0  0  0  0  0  0  0  0  0  0
   62.5860   28.3550   52.2320 H   0  0  0  0  0  0  0  0  0  0  0  0
   63.1581   31.8415   53.3069 H   0  0  0  0  0  0  0  0  0  0  0  0
   61.4169   33.6188   53.4715 H   0  0  0  0  0  0  0  0  0  0  0  0
   59.0277   33.0773   52.9946 H   0  0  0  0  0  0  0  0  0  0  0  0
   58.3856   30.7736   52.2890 H   0  0  0  0  0  0  0  0  0  0  0  0
   58.5927   29.8934   50.0860 H   0  0  0  0  0  0  0  0  0  0  0  0
   57.9388   30.6678   47.8118 H   0  0  0  0  0  0  0  0  0  0  0  0
   59.8102   29.7410   44.7273 H   0  0  0  0  0  0  0  0  0  0  0  0
   58.1000   29.2778   45.0664 H   0  0  0  0  0  0  0  0  0  0  0  0
   60.4113   31.8433   46.4045 H   0  0  0  0  0  0  0  0  0  0  0  0
   61.5920   34.9760   47.9580 H   0  0  0  0  0  0  0  0  0  0  0  0
   60.6822   33.7857   49.4995 H   0  0  0  0  0  0  0  0  0  0  0  0
   59.9755   32.6341   48.2672 H   0  0  0  0  0  0  0  0  0  0  0  0
   61.8087   31.7981   49.9794 H   0  0  0  0  0  0  0  0  0  0  0  0
   61.8281   31.2777   48.2472 H   0  0  0  0  0  0  0  0  0  0  0  0
   63.2554   30.5917   50.5006 H   0  0  0  0  0  0  0  0  0  0  0  0
   65.0698   29.9363   52.0786 H   0  0  0  0  0  0  0  0  0  0  0  0
   67.1816   31.2627   52.1807 H   0  0  0  0  0  0  0  0  0  0  0  0
   65.6985   33.8793   49.0721 H   0  0  0  0  0  0  0  0  0  0  0  0
   64.0215   34.4270   47.8609 H   0  0  0  0  0  0  0  0  0  0  0  0
   64.3929   32.8807   47.0013 H   0  0  0  0  0  0  0  0  0  0  0  0
   62.6218   34.3756   45.8985 H   0  0  0  0  0  0  0  0  0  0  0  0
   62.1400   32.6695   46.2066 H   0  0  0  0  0  0  0  0  0  0  0  0
   57.6451   35.0566   45.5386 H   0  0  0  0  0  0  0  0  0  0  0  0
   56.0444   33.3889   44.6060 H   0  0  0  0  0  0  0  0  0  0  0  0
   60.8211   27.9603   46.0512 H   0  0  0  0  0  0  0  0  0  0  0  0
   61.5160   27.2154   48.3242 H   0  0  0  0  0  0  0  0  0  0  0  0
  1  2  1  0
  2  3  2  0
  3  4  1  0
  4  5  2  0
  5  6  1  0
  6  7  2  0
  7  8  1  0
  8  9  1  0
  9 10  2  0
  9 11  1  0
 11 12  2  0
 12 13  1  0
 13 14  2  0
 14 15  1  0
 15 16  1  0
 16 17  1  0
 17 18  2  0
 18 19  1  0
 19 20  2  0
 19 21  1  0
 21 22  1  0
 22 23  1  0
 23 24  1  0
 24 25  1  0
 25 26  2  0
 26 27  1  0
 27 28  2  0
 28 29  1  0
 29 30  1  0
 29 31  2  0
 24 32  1  0
 32 33  1  0
 18 34  1  0
 34 35  2  0
 35 36  1  0
 36 37  2  0
 14 38  1  0
 38 39  2  0
  7  2  1  0
 39 11  1  0
 36 16  1  0
 33 21  1  0
 31 25  1  0
  1 40  1  0
  1 41  1  0
  3 42  1  0
  4 43  1  0
  5 44  1  0
  6 45  1  0
 12 46  1  0
 13 47  1  0
 15 48  1  0
 15 49  1  0
 17 50  1  0
 21 51  1  0
 22 52  1  0
 22 53  1  0
 23 54  1  0
 23 55  1  0
 26 56  1  0
 27 57  1  0
 28 58  1  0
 31 59  1  0
 32 60  1  0
 32 61  1  0
 33 62  1  0
 33 63  1  0
 34 64  1  0
 35 65  1  0
 38 66  1  0
 39 67  1  0
M  CHG  2   8  -1  21   1
M  END
>  <UniqueID>  (33) 
32

>  <SMILES>  (33) 
Nc1ccccc1[N-]C(=O)c1ccc(Cn2cc(C(=O)[NH+]3CCN(c4cccc(Cl)c4)CC3)ccc2=O)cc1

>  <Energy>  (33) 
101.75730228407244

>  <Genealogy>  (33) 
Nc1ccccc1[N-]C(=O)c1ccc(Cn2cc(C(=O)[NH+]3CCN(c4cccc(Cl)c4)CC3)ccc2=O)cc1 (protonated)
Nc1ccccc1[N-]C(=O)c1ccc(Cn2cc(C(=O)[NH+]3CCN(c4cccc(Cl)c4)CC3)ccc2=O)cc1 (3D coordinates assigned)
Nc1ccccc1[N-]C(=O)c1ccc(Cn2cc(C(=O)[NH+]3CCN(c4cccc(Cl)c4)CC3)ccc2=O)cc1 (nonaromatic ring conformer: 101.75730228407244 kcal/mol)

>  <smiles>  (33) 
Nc1ccccc1NC(=O)c1ccc(Cn2cc(C(=O)N3CCN(c4cccc(Cl)c4)CC3)ccc2=O)cc1

>  <score_type>  (33) 
oracle

>  <origin>  (33) 
adg

>  <m_score__min__energy>  (33) 
-12.09

>  <m_primary>  (33) 
energy

$$$$
33:0
     RDKit          3D

 58 61  0  0  0  0  0  0  0  0999 V2000
   58.6020   30.7070   47.1170 C   0  0  0  0  0  0  0  0  0  0  0  0
   57.4470   30.9530   46.3190 O   0  0  0  0  0  0  0  0  0  0  0  0
   57.5370   31.3830   44.9920 C   0  0  0  0  0  0  0  0  0  0  0  0
   57.7170   32.7440   44.6670 C   0  0  0  0  0  0  0  0  0  0  0  0
   57.7210   33.8280   45.7120 C   0  0  0  0  0  0  0  0  0  0  0  0
   59.0430   33.8750   46.4290 C   0  0  0  0  0  0  0  0  0  0  0  0
   59.0970   34.0840   47.8160 C   0  0  0  0  0  0  0  0  0  0  0  0
   60.3290   34.1640   48.4690 C   0  0  0  0  0  0  0  0  0  0  0  0
   61.5250   34.0360   47.7420 C   0  0  0  0  0  0  0  0  0  0  0  0
   62.7750   34.0880   48.3730 O   0  0  0  0  0  0  0  0  0  0  0  0
   63.3190   33.0670   49.1640 C   0  0  0  0  0  0  0  0  0  0  0  0
   62.5130   32.0550   49.7190 C   0  0  0  0  0  0  0  0  0  0  0  0
   63.0820   31.0690   50.5300 C   0  0  0  0  0  0  0  0  0  0  0  0
   64.4540   31.0890   50.7970 C   0  0  0  0  0  0  0  0  0  0  0  0
   65.2590   32.0940   50.2510 C   0  0  0  0  0  0  0  0  0  0  0  0
   64.6900   33.0840   49.4460 C   0  0  0  0  0  0  0  0  0  0  0  0
   61.4720   33.8080   46.3630 C   0  0  0  0  0  0  0  0  0  0  0  0
   60.2400   33.7410   45.7060 C   0  0  0  0  0  0  0  0  0  0  0  0
   57.8140   33.1070   43.3610 N   0  0  0  0  0  0  0  0  0  0  0  0
   57.7340   32.1920   42.3620 C   0  0  0  0  0  0  0  0  0  0  0  0
   57.8420   32.5590   41.1620 O   0  0  0  0  0  0  0  0  0  0  0  0
   57.5250   30.8840   42.6520 N   0  0  0  0  0  0  0  0  0  0  0  0
   57.4100   30.4560   43.9380 C   0  0  0  0  0  0  0  0  0  0  0  0
   57.1420   28.9960   44.1950 C   0  0  0  0  0  0  0  0  0  0  0  0
   58.2800   28.3380   44.9470 C   0  0  0  0  0  0  0  0  0  0  0  0
   59.6030   28.6550   44.5930 C   0  0  0  0  0  0  0  0  0  0  0  0
   60.6790   28.0750   45.2680 C   0  0  0  0  0  0  0  0  0  0  0  0
   60.4480   27.1600   46.2910 C   0  0  0  0  0  0  0  0  0  0  0  0
   59.1420   26.8240   46.6480 C   0  0  0  0  0  0  0  0  0  0  0  0
   58.0450   27.4060   45.9840 C   0  0  0  0  0  0  0  0  0  0  0  0
   56.6970   27.0790   46.3540 N   0  0  0  0  0  0  0  0  0  0  0  0
   55.9060   25.5670   46.0360 S   0  0  0  0  0  0  0  0  0  0  0  0
   54.4810   25.8160   45.6340 O   0  0  0  0  0  0  0  0  0  0  0  0
   55.9510   24.7000   47.2630 O   0  0  0  0  0  0  0  0  0  0  0  0
   56.7530   24.7500   44.7000 C   0  0  0  0  0  0  0  0  0  0  0  0
   57.6920   23.8760   45.2120 F   0  0  0  0  0  0  0  0  0  0  0  0
   57.3820   25.6900   43.9060 F   0  0  0  0  0  0  0  0  0  0  0  0
   55.8410   24.0440   43.9360 F   0  0  0  0  0  0  0  0  0  0  0  0
   58.3312   30.7647   48.1816 H   0  0  0  0  0  0  0  0  0  0  0  0
   58.9960   29.7048   46.8927 H   0  0  0  0  0  0  0  0  0  0  0  0
   59.3702   31.4617   46.8927 H   0  0  0  0  0  0  0  0  0  0  0  0
   57.5398   34.7980   45.2259 H   0  0  0  0  0  0  0  0  0  0  0  0
   56.9299   33.6132   46.4455 H   0  0  0  0  0  0  0  0  0  0  0  0
   58.1648   34.1852   48.3912 H   0  0  0  0  0  0  0  0  0  0  0  0
   60.3634   34.3278   49.5562 H   0  0  0  0  0  0  0  0  0  0  0  0
   61.4324   32.0402   49.5139 H   0  0  0  0  0  0  0  0  0  0  0  0
   62.4500   30.2771   50.9583 H   0  0  0  0  0  0  0  0  0  0  0  0
   64.9008   30.3138   51.4369 H   0  0  0  0  0  0  0  0  0  0  0  0
   66.3398   32.1049   50.4553 H   0  0  0  0  0  0  0  0  0  0  0  0
   65.3234   33.8819   49.0311 H   0  0  0  0  0  0  0  0  0  0  0  0
   62.4041   33.6808   45.7929 H   0  0  0  0  0  0  0  0  0  0  0  0
   60.2076   33.5826   44.6179 H   0  0  0  0  0  0  0  0  0  0  0  0
   56.2214   28.9025   44.7897 H   0  0  0  0  0  0  0  0  0  0  0  0
   57.0383   28.4916   43.2230 H   0  0  0  0  0  0  0  0  0  0  0  0
   59.7925   29.3670   43.7762 H   0  0  0  0  0  0  0  0  0  0  0  0
   61.7097   28.3414   44.9911 H   0  0  0  0  0  0  0  0  0  0  0  0
   61.2968   26.7009   46.8190 H   0  0  0  0  0  0  0  0  0  0  0  0
   58.9675   26.0978   47.4556 H   0  0  0  0  0  0  0  0  0  0  0  0
  1  2  1  0
  2  3  1  0
  3  4  1  0
  4  5  1  0
  5  6  1  0
  6  7  2  0
  7  8  1  0
  8  9  2  0
  9 10  1  0
 10 11  1  0
 11 12  2  0
 12 13  1  0
 13 14  2  0
 14 15  1  0
 15 16  2  0
  9 17  1  0
 17 18  2  0
  4 19  2  0
 19 20  1  0
 20 21  2  0
 20 22  1  0
 22 23  1  0
 23 24  1  0
 24 25  1  0
 25 26  2  0
 26 27  1  0
 27 28  2  0
 28 29  1  0
 29 30  2  0
 30 31  1  0
 31 32  1  0
 32 33  2  0
 32 34  2  0
 32 35  1  0
 35 36  1  0
 35 37  1  0
 35 38  1  0
 23  3  2  0
 30 25  1  0
 18  6  1  0
 16 11  1  0
  1 39  1  0
  1 40  1  0
  1 41  1  0
  5 42  1  0
  5 43  1  0
  7 44  1  0
  8 45  1  0
 12 46  1  0
 13 47  1  0
 14 48  1  0
 15 49  1  0
 16 50  1  0
 17 51  1  0
 18 52  1  0
 24 53  1  0
 24 54  1  0
 26 55  1  0
 27 56  1  0
 28 57  1  0
 29 58  1  0
M  CHG  2  22  -1  31  -1
M  END
>  <UniqueID>  (34) 
33

>  <SMILES>  (34) 
COc1c(Cc2ccc(Oc3ccccc3)cc2)nc(=O)[n-]c1Cc1ccccc1[N-]S(=O)(=O)C(F)(F)F

>  <Energy>  (34) 
73.73861820096432

>  <Genealogy>  (34) 
COc1c(Cc2ccc(Oc3ccccc3)cc2)nc(=O)[n-]c1Cc1ccccc1[N-]S(=O)(=O)C(F)(F)F (protonated)
COc1c(Cc2ccc(Oc3ccccc3)cc2)nc(=O)[n-]c1Cc1ccccc1[N-]S(=O)(=O)C(F)(F)F (3D coordinates assigned)
COc1c(Cc2ccc(Oc3ccccc3)cc2)nc(=O)[n-]c1Cc1ccccc1[N-]S(=O)(=O)C(F)(F)F (optimized conformer: 73.73861820096432 kcal/mol)

>  <smiles>  (34) 
COc1c(Cc2ccc(Oc3ccccc3)cc2)nc(=O)[nH]c1Cc1ccccc1NS(=O)(=O)C(F)(F)F

>  <score_type>  (34) 
oracle

>  <origin>  (34) 
adg

>  <m_score__min__energy>  (34) 
-12.44

>  <m_primary>  (34) 
energy

$$$$
34:0
     RDKit          3D

 39 41  0  0  0  0  0  0  0  0999 V2000
   59.0754   35.4529   46.7867 H   0  0  0  0  0  0  0  0  0  0  0  0
   58.6640   34.5750   46.2670 C   0  0  0  0  0  0  0  0  0  0  0  0
   59.0910   34.0500   44.7240 S   0  0  0  0  0  0  0  0  0  0  0  0
   58.0380   32.7450   44.7650 C   0  0  0  0  0  0  0  0  0  0  0  0
   57.9150   31.8930   43.7920 N   0  0  0  0  0  0  0  0  0  0  0  0
   56.7610   30.5970   43.7540 S   0  0  0  0  0  0  0  0  0  0  0  0
   55.5630   30.9840   44.5760 O   0  0  0  0  0  0  0  0  0  0  0  0
   56.3280   30.3630   42.3360 O   0  0  0  0  0  0  0  0  0  0  0  0
   57.4970   29.1250   44.3790 C   0  0  0  0  0  0  0  0  0  0  0  0
   58.8470   28.8600   44.1240 C   0  0  0  0  0  0  0  0  0  0  0  0
   59.4330   29.5514   43.5006 H   0  0  0  0  0  0  0  0  0  0  0  0
   59.4530   27.7210   44.6580 C   0  0  0  0  0  0  0  0  0  0  0  0
   60.5140   27.5177   44.4509 H   0  0  0  0  0  0  0  0  0  0  0  0
   58.7170   26.8360   45.4560 C   0  0  0  0  0  0  0  0  0  0  0  0
   59.5570   25.4150   46.1730 S   0  0  0  0  0  0  0  0  0  0  0  0
   58.5290   24.2450   45.2820 C   0  0  0  0  0  0  0  0  0  0  0  0
   57.7910   24.6650   44.1700 C   0  0  0  0  0  0  0  0  0  0  0  0
   57.8269   25.7182   43.8546 H   0  0  0  0  0  0  0  0  0  0  0  0
   57.0080   23.7510   43.4580 C   0  0  0  0  0  0  0  0  0  0  0  0
   56.4333   24.0866   42.5821 H   0  0  0  0  0  0  0  0  0  0  0  0
   56.9530   22.4020   43.8590 C   0  0  0  0  0  0  0  0  0  0  0  0
   56.1900   21.4440   43.1760 O   0  0  0  0  0  0  0  0  0  0  0  0
   56.2360   20.0450   43.4360 C   0  0  0  0  0  0  0  0  0  0  0  0
   56.2416   19.8740   44.5226 H   0  0  0  0  0  0  0  0  0  0  0  0
   55.3533   19.5605   42.9931 H   0  0  0  0  0  0  0  0  0  0  0  0
   57.1486   19.6196   42.9931 H   0  0  0  0  0  0  0  0  0  0  0  0
   57.6850   21.9920   44.9800 C   0  0  0  0  0  0  0  0  0  0  0  0
   57.6439   20.9416   45.3041 H   0  0  0  0  0  0  0  0  0  0  0  0
   58.4680   22.9070   45.6910 C   0  0  0  0  0  0  0  0  0  0  0  0
   59.0365   22.5754   46.5724 H   0  0  0  0  0  0  0  0  0  0  0  0
   57.3510   27.0820   45.6900 C   0  0  0  0  0  0  0  0  0  0  0  0
   56.5520   26.1780   46.4810 C   0  0  0  0  0  0  0  0  0  0  0  0
   55.9120   25.4530   47.1150 N   0  0  0  0  0  0  0  0  0  0  0  0
   56.7470   28.2270   45.1510 C   0  0  0  0  0  0  0  0  0  0  0  0
   55.6800   28.4213   45.3348 H   0  0  0  0  0  0  0  0  0  0  0  0
   57.3550   32.6920   45.9330 N   0  0  0  0  0  0  0  0  0  0  0  0
   56.6400   31.9760   46.1860 H   0  0  0  0  0  0  0  0  0  0  0  0
   57.7010   33.7060   46.7700 C   0  0  0  0  0  0  0  0  0  0  0  0
   57.2542   33.8297   47.7675 H   0  0  0  0  0  0  0  0  0  0  0  0
  1  2  1  0
  2  3  1  0
  3  4  1  0
  4  5  2  0
  5  6  1  0
  6  7  2  0
  6  8  2  0
  6  9  1  0
  9 10  2  0
 10 11  1  0
 10 12  1  0
 12 13  1  0
 12 14  2  0
 14 15  1  0
 15 16  1  0
 16 17  2  0
 17 18  1  0
 17 19  1  0
 19 20  1  0
 19 21  2  0
 21 22  1  0
 22 23  1  0
 23 24  1  0
 23 25  1  0
 23 26  1  0
 21 27  1  0
 27 28  1  0
 27 29  2  0
 29 30  1  0
 14 31  1  0
 31 32  1  0
 32 33  3  0
 31 34  2  0
 34 35  1  0
  4 36  1  0
 36 37  1  0
 36 38  1  0
 38 39  1  0
 38  2  2  0
 34  9  1  0
 29 16  1  0
M  END
>  <UniqueID>  (35) 
34

>  <SMILES>  (35) 
COc1ccc(Sc2ccc(S(=O)(=O)/N=c3\[nH]ccs3)cc2C#N)cc1

>  <Energy>  (35) 
69.0943212578592

>  <Genealogy>  (35) 
COc1ccc(Sc2ccc(S(=O)(=O)/N=c3\[nH]ccs3)cc2C#N)cc1 (cis-trans isomerization)
COc1ccc(Sc2ccc(S(=O)(=O)/N=c3\[nH]ccs3)cc2C#N)cc1 (3D coordinates assigned)
COc1ccc(Sc2ccc(S(=O)(=O)/N=c3\[nH]ccs3)cc2C#N)cc1 (optimized conformer: 69.0943212578592 kcal/mol)

>  <smiles>  (35) 
COc1ccc(Sc2ccc(S(=O)(=O)N=c3[nH]ccs3)cc2C#N)cc1

>  <score_type>  (35) 
oracle

>  <origin>  (35) 
adg

>  <m_score__min__energy>  (35) 
-8.8699999999999992

>  <m_primary>  (35) 
energy

$$$$
35:0
     RDKit          3D

 38 40  0  0  0  0  0  0  0  0999 V2000
   60.7750   28.8720   50.1230 C   0  0  0  0  0  0  0  0  0  0  0  0
   60.2810   27.6560   49.5710 O   0  0  0  0  0  0  0  0  0  0  0  0
   59.7530   27.5300   48.2770 C   0  0  0  0  0  0  0  0  0  0  0  0
   59.8550   26.3390   47.5340 C   0  0  0  0  0  0  0  0  0  0  0  0
   59.3110   26.2640   46.2500 C   0  0  0  0  0  0  0  0  0  0  0  0
   58.6650   27.3690   45.6940 C   0  0  0  0  0  0  0  0  0  0  0  0
   58.5660   28.5700   46.4180 C   0  0  0  0  0  0  0  0  0  0  0  0
   57.8810   29.7480   45.8390 C   0  0  0  0  0  0  0  0  0  0  0  0
   58.3100   31.0150   45.8290 C   0  0  0  0  0  0  0  0  0  0  0  0
   59.5090   31.5620   46.5040 C   0  0  0  0  0  0  0  0  0  0  0  0
   59.4220   32.7630   47.2270 C   0  0  0  0  0  0  0  0  0  0  0  0
   60.5490   33.2830   47.8690 C   0  0  0  0  0  0  0  0  0  0  0  0
   61.7750   32.6100   47.8000 C   0  0  0  0  0  0  0  0  0  0  0  0
   63.1910   33.2600   48.6220 S   0  0  0  0  0  0  0  0  0  0  0  0
   64.5220   33.3240   47.5210 N   0  0  0  0  0  0  0  0  0  0  0  0
   62.8930   34.6420   49.1300 O   0  0  0  0  0  0  0  0  0  0  0  0
   63.5490   32.3840   49.7900 O   0  0  0  0  0  0  0  0  0  0  0  0
   61.8610   31.4010   47.0980 C   0  0  0  0  0  0  0  0  0  0  0  0
   60.7360   30.8780   46.4560 C   0  0  0  0  0  0  0  0  0  0  0  0
   57.3280   31.7980   45.0770 C   0  0  0  0  0  0  0  0  0  0  0  0
   57.3910   33.0410   44.8820 O   0  0  0  0  0  0  0  0  0  0  0  0
   56.2520   30.9960   44.6070 N   0  0  0  0  0  0  0  0  0  0  0  0
   56.6180   29.7130   45.0970 C   0  0  0  0  0  0  0  0  0  0  0  0
   55.9360   28.6770   44.8800 O   0  0  0  0  0  0  0  0  0  0  0  0
   59.1050   28.6350   47.7130 C   0  0  0  0  0  0  0  0  0  0  0  0
   60.7509   28.8126   51.2211 H   0  0  0  0  0  0  0  0  0  0  0  0
   61.8100   29.0333   49.7872 H   0  0  0  0  0  0  0  0  0  0  0  0
   60.1458   29.7094   49.7872 H   0  0  0  0  0  0  0  0  0  0  0  0
   60.3645   25.4650   47.9658 H   0  0  0  0  0  0  0  0  0  0  0  0
   59.3920   25.3301   45.6745 H   0  0  0  0  0  0  0  0  0  0  0  0
   58.2316   27.3000   44.6853 H   0  0  0  0  0  0  0  0  0  0  0  0
   58.4621   33.2968   47.2882 H   0  0  0  0  0  0  0  0  0  0  0  0
   60.4727   34.2254   48.4312 H   0  0  0  0  0  0  0  0  0  0  0  0
   64.5200   32.4260   46.9860 H   0  0  0  0  0  0  0  0  0  0  0  0
   65.3940   33.3280   48.0960 H   0  0  0  0  0  0  0  0  0  0  0  0
   62.8183   30.8612   47.0521 H   0  0  0  0  0  0  0  0  0  0  0  0
   60.8107   29.9260   45.9101 H   0  0  0  0  0  0  0  0  0  0  0  0
   59.0168   29.5663   48.2917 H   0  0  0  0  0  0  0  0  0  0  0  0
  1  2  1  0
  2  3  1  0
  3  4  2  0
  4  5  1  0
  5  6  2  0
  6  7  1  0
  7  8  1  0
  8  9  2  0
  9 10  1  0
 10 11  2  0
 11 12  1  0
 12 13  2  0
 13 14  1  0
 14 15  1  0
 14 16  2  0
 14 17  2  0
 13 18  1  0
 18 19  2  0
  9 20  1  0
 20 21  2  0
 20 22  1  0
 22 23  1  0
 23 24  2  0
  7 25  2  0
 25  3  1  0
 23  8  1  0
 19 10  1  0
  1 26  1  0
  1 27  1  0
  1 28  1  0
  4 29  1  0
  5 30  1  0
  6 31  1  0
 11 32  1  0
 12 33  1  0
 15 34  1  0
 15 35  1  0
 18 36  1  0
 19 37  1  0
 25 38  1  0
M  CHG  1  22  -1
M  END
>  <UniqueID>  (36) 
35

>  <SMILES>  (36) 
COc1cccc(C2=C(c3ccc(S(N)(=O)=O)cc3)C(=O)[N-]C2=O)c1

>  <Energy>  (36) 
72.12938601705481

>  <Genealogy>  (36) 
COc1cccc(C2=C(c3ccc(S(N)(=O)=O)cc3)C(=O)[N-]C2=O)c1 (protonated)
COc1cccc(C2=C(c3ccc(S(N)(=O)=O)cc3)C(=O)[N-]C2=O)c1 (3D coordinates assigned)
COc1cccc(C2=C(c3ccc(S(N)(=O)=O)cc3)C(=O)[N-]C2=O)c1 (nonaromatic ring conformer: 72.12938601705481 kcal/mol)

>  <smiles>  (36) 
COc1cccc(C2=C(c3ccc(S(N)(=O)=O)cc3)C(=O)NC2=O)c1

>  <score_type>  (36) 
oracle

>  <origin>  (36) 
adg

>  <m_score__min__energy>  (36) 
-9.7200000000000006

>  <m_primary>  (36) 
energy

$$$$
36:0
     RDKit          3D

 46 48  0  0  1  0  0  0  0  0999 V2000
   63.3360   33.7950   46.3470 C   0  0  0  0  0  0  0  0  0  0  0  0
   63.1820   32.6010   47.2230 C   0  0  0  0  0  0  0  0  0  0  0  0
   63.7350   31.5080   46.9250 O   0  0  0  0  0  0  0  0  0  0  0  0
   62.3930   32.6930   48.4250 C   0  0  0  0  0  0  0  0  0  0  0  0
   62.5000   33.7860   49.2720 C   0  0  0  0  0  0  0  0  0  0  0  0
   61.7290   33.8570   50.4290 C   0  0  0  0  0  0  0  0  0  0  0  0
   60.8390   32.8280   50.7500 C   0  0  0  0  0  0  0  0  0  0  0  0
   60.7270   31.7260   49.9030 C   0  0  0  0  0  0  0  0  0  0  0  0
   61.5100   31.6960   48.7660 C   0  0  0  0  0  0  0  0  0  0  0  0
   61.4080   30.5620   47.8770 N   0  0  0  0  0  0  0  0  0  0  0  0
   60.0890   30.1280   47.4830 C   0  0  0  0  0  0  0  0  0  0  0  0
   59.0900   30.7410   47.9220 O   0  0  0  0  0  0  0  0  0  0  0  0
   60.0130   29.0100   46.6060 N   0  0  0  0  0  0  0  0  0  0  0  0
   59.1820   28.9430   45.6350 C   0  0  0  0  0  0  0  0  0  0  0  0
   58.4510   30.0170   45.2790 N   0  0  0  0  0  0  0  0  0  0  0  0
   57.5640   29.9990   44.2640 C   0  0  0  0  0  0  0  0  0  0  0  0
   56.7980   31.2070   43.9280 C   0  0  0  0  0  0  0  0  0  0  0  0
   57.7940   32.6540   43.5800 S   0  0  0  0  0  0  0  0  0  0  0  0
   58.3800   33.3800   45.1040 C   0  0  0  0  0  0  0  0  0  0  0  0
   59.2790   34.4370   45.0330 C   0  0  0  0  0  0  0  0  0  0  0  0
   59.6980   34.9600   46.2360 C   0  0  0  0  0  0  0  0  0  0  0  0
   59.2650   34.4770   47.4460 C   0  0  0  0  0  0  0  0  0  0  0  0
   58.3690   33.4230   47.4800 C   0  0  0  0  0  0  0  0  0  0  0  0
   57.9680   32.9240   46.2970 N   0  0  0  0  0  0  0  0  0  0  0  0
   57.3850   28.8180   43.5400 C   0  0  0  0  0  0  0  0  0  0  0  0
   58.1490   27.7250   43.9260 C   0  0  0  0  0  0  0  0  0  0  0  0
   58.0340   26.5870   43.2930 N   0  0  0  0  0  0  0  0  0  0  0  0
   59.0250   27.7860   44.9460 N   0  0  0  0  0  0  0  0  0  0  0  0
   63.4520   34.6942   46.9699 H   0  0  0  0  0  0  0  0  0  0  0  0
   64.2257   33.6716   45.7120 H   0  0  0  0  0  0  0  0  0  0  0  0
   62.4441   33.9013   45.7120 H   0  0  0  0  0  0  0  0  0  0  0  0
   63.1976   34.6009   49.0284 H   0  0  0  0  0  0  0  0  0  0  0  0
   61.8207   34.7280   51.0945 H   0  0  0  0  0  0  0  0  0  0  0  0
   60.2310   32.8872   51.6648 H   0  0  0  0  0  0  0  0  0  0  0  0
   60.0342   30.9035   50.1341 H   0  0  0  0  0  0  0  0  0  0  0  0
   62.2720   30.0720   47.5280 H   0  0  0  0  0  0  0  0  0  0  0  0
   58.5630   30.9030   45.7960 H   0  0  0  0  0  0  0  0  0  0  0  0
   56.1880   30.9893   43.0389 H   0  0  0  0  0  0  0  0  0  0  0  0
   56.1974   31.4505   44.8168 H   0  0  0  0  0  0  0  0  0  0  0  0
   59.6356   34.8334   44.0709 H   0  0  0  0  0  0  0  0  0  0  0  0
   60.4089   35.7993   46.2271 H   0  0  0  0  0  0  0  0  0  0  0  0
   59.6281   34.9251   48.3827 H   0  0  0  0  0  0  0  0  0  0  0  0
   58.0012   33.0117   48.4316 H   0  0  0  0  0  0  0  0  0  0  0  0
   56.6727   28.7569   42.7040 H   0  0  0  0  0  0  0  0  0  0  0  0
   57.0730   26.3220   42.9400 H   0  0  0  0  0  0  0  0  0  0  0  0
   59.6110   26.9890   45.2600 H   0  0  0  0  0  0  0  0  0  0  0  0
  1  2  1  0
  2  3  2  0
  2  4  1  0
  4  5  2  0
  5  6  1  0
  6  7  2  0
  7  8  1  0
  8  9  2  0
  9 10  1  0
 10 11  1  0
 11 12  2  0
 11 13  1  0
 13 14  2  0
 14 15  1  0
 15 16  1  0
 16 17  1  0
 17 18  1  0
 18 19  1  0
 19 20  2  0
 20 21  1  0
 21 22  2  0
 22 23  1  0
 23 24  2  0
 16 25  2  0
 25 26  1  0
 26 27  2  3
 26 28  1  0
  9  4  1  0
 28 14  1  0
 24 19  1  0
  1 29  1  0
  1 30  1  0
  1 31  1  0
  5 32  1  0
  6 33  1  0
  7 34  1  0
  8 35  1  0
 10 36  1  0
 15 37  1  0
 17 38  1  0
 17 39  1  0
 20 40  1  0
 21 41  1  0
 22 42  1  0
 23 43  1  0
 25 44  1  0
 27 45  1  0
 28 46  1  0
M  END
>  <smiles>  (37) 
CC(=O)c1ccccc1NC(=O)N=c1[nH]c(CSc2ccccn2)cc(=N)[nH]1

>  <score_type>  (37) 
oracle

>  <origin>  (37) 
adg

>  <m_score__min__energy>  (37) 
-8.1799999999999997

>  <m_primary>  (37) 
energy

$$$$
37:0
     RDKit          3D

 59 61  0  0  0  0  0  0  0  0999 V2000
   64.0690   32.3810   50.2800 C   0  0  0  0  0  0  0  0  0  0  0  0
   63.4330   31.2410   49.7090 O   0  0  0  0  0  0  0  0  0  0  0  0
   62.0770   30.9190   49.8800 C   0  0  0  0  0  0  0  0  0  0  0  0
   61.3900   30.0710   48.9960 C   0  0  0  0  0  0  0  0  0  0  0  0
   60.0420   29.7280   49.2200 C   0  0  0  0  0  0  0  0  0  0  0  0
   59.3220   28.8660   48.3070 N   0  0  0  0  0  0  0  0  0  0  0  0
   59.8010   28.4560   46.9760 C   0  0  2  0  0  0  0  0  0  0  0  0
   60.1820   29.7010   46.1620 C   0  0  0  0  0  0  0  0  0  0  0  0
   58.7170   27.6260   46.2310 C   0  0  0  0  0  0  0  0  0  0  0  0
   58.9410   27.5070   44.7110 C   0  0  0  0  0  0  0  0  0  0  0  0
   57.8340   28.1470   43.8540 C   0  0  0  0  0  0  0  0  0  0  0  0
   57.6490   29.5690   44.1470 N   0  0  0  0  0  0  0  0  0  0  0  0
   56.4540   30.1020   44.7330 C   0  0  0  0  0  0  0  0  0  0  0  0
   55.5340   29.3310   45.1230 O   0  0  0  0  0  0  0  0  0  0  0  0
   56.2970   31.5210   44.8300 N   0  0  0  0  0  0  0  0  0  0  0  0
   57.6050   32.6280   44.5670 S   0  0  0  0  0  0  0  0  0  0  0  0
   58.4900   32.1010   43.4700 O   0  0  0  0  0  0  0  0  0  0  0  0
   57.0470   33.9560   44.1440 O   0  0  0  0  0  0  0  0  0  0  0  0
   58.5160   32.8250   46.0630 C   0  0  0  0  0  0  0  0  0  0  0  0
   57.8550   32.7400   47.2990 C   0  0  0  0  0  0  0  0  0  0  0  0
   58.5730   32.8780   48.4950 C   0  0  0  0  0  0  0  0  0  0  0  0
   59.9550   33.1020   48.4610 C   0  0  0  0  0  0  0  0  0  0  0  0
   60.6200   33.1930   47.2310 C   0  0  0  0  0  0  0  0  0  0  0  0
   62.5130   33.4710   47.1860 Br  0  0  0  0  0  0  0  0  0  0  0  0
   59.9010   33.0640   46.0330 C   0  0  0  0  0  0  0  0  0  0  0  0
   59.3760   30.2810   50.3340 C   0  0  0  0  0  0  0  0  0  0  0  0
   58.0740   29.9590   50.5710 N   0  0  0  0  0  0  0  0  0  0  0  0
   57.3830   30.4610   51.6250 C   0  0  0  0  0  0  0  0  0  0  0  0
   56.1820   30.1270   51.7990 O   0  0  0  0  0  0  0  0  0  0  0  0
   58.0000   31.3430   52.5100 C   0  0  0  0  0  0  0  0  0  0  0  0
   59.3390   31.7140   52.3110 C   0  0  0  0  0  0  0  0  0  0  0  0
   59.9780   32.6770   53.2770 C   0  0  0  0  0  0  0  0  0  0  0  0
   60.0500   31.1670   51.2120 C   0  0  0  0  0  0  0  0  0  0  0  0
   61.4020   31.4700   50.9710 C   0  0  0  0  0  0  0  0  0  0  0  0
   64.0302   32.3114   51.3771 H   0  0  0  0  0  0  0  0  0  0  0  0
   65.1183   32.4183   49.9519 H   0  0  0  0  0  0  0  0  0  0  0  0
   63.5496   33.2934   49.9519 H   0  0  0  0  0  0  0  0  0  0  0  0
   61.9123   29.6686   48.1155 H   0  0  0  0  0  0  0  0  0  0  0  0
   58.3970   28.4930   48.6210 H   0  0  0  0  0  0  0  0  0  0  0  0
   60.6893   27.8185   47.0969 H   0  0  0  0  0  0  0  0  0  0  0  0
   60.4339   30.5240   46.8470 H   0  0  0  0  0  0  0  0  0  0  0  0
   61.0514   29.4726   45.5279 H   0  0  0  0  0  0  0  0  0  0  0  0
   59.3337   29.9983   45.5279 H   0  0  0  0  0  0  0  0  0  0  0  0
   58.7060   26.6122   46.6578 H   0  0  0  0  0  0  0  0  0  0  0  0
   57.7642   28.1585   46.3677 H   0  0  0  0  0  0  0  0  0  0  0  0
   59.8942   27.9973   44.4641 H   0  0  0  0  0  0  0  0  0  0  0  0
   58.9386   26.4324   44.4761 H   0  0  0  0  0  0  0  0  0  0  0  0
   58.1020   28.0376   42.7928 H   0  0  0  0  0  0  0  0  0  0  0  0
   56.8906   27.6322   44.0884 H   0  0  0  0  0  0  0  0  0  0  0  0
   58.4350   30.2270   43.9380 H   0  0  0  0  0  0  0  0  0  0  0  0
   56.7695   32.5644   47.3288 H   0  0  0  0  0  0  0  0  0  0  0  0
   58.0507   32.8103   49.4607 H   0  0  0  0  0  0  0  0  0  0  0  0
   60.5185   33.2065   49.3999 H   0  0  0  0  0  0  0  0  0  0  0  0
   60.4222   33.1501   45.0682 H   0  0  0  0  0  0  0  0  0  0  0  0
   57.4379   31.7483   53.3642 H   0  0  0  0  0  0  0  0  0  0  0  0
   59.7658   32.3572   54.3079 H   0  0  0  0  0  0  0  0  0  0  0  0
   61.0658   32.6919   53.1143 H   0  0  0  0  0  0  0  0  0  0  0  0
   59.5690   33.6851   53.1143 H   0  0  0  0  0  0  0  0  0  0  0  0
   61.9350   32.1504   51.6514 H   0  0  0  0  0  0  0  0  0  0  0  0
  1  2  1  0
  2  3  1  0
  3  4  2  0
  4  5  1  0
  5  6  1  0
  6  7  1  0
  7  8  1  0
  7  9  1  0
  9 10  1  0
 10 11  1  0
 11 12  1  0
 12 13  1  0
 13 14  2  0
 13 15  1  0
 15 16  1  0
 16 17  2  0
 16 18  2  0
 16 19  1  0
 19 20  2  0
 20 21  1  0
 21 22  2  0
 22 23  1  0
 23 24  1  0
 23 25  2  0
  5 26  2  0
 26 27  1  0
 27 28  1  0
 28 29  2  0
 28 30  1  0
 30 31  2  0
 31 32  1  0
 31 33  1  0
 33 34  2  0
 34  3  1  0
 25 19  1  0
 33 26  1  0
  1 35  1  0
  1 36  1  0
  1 37  1  0
  4 38  1  0
  6 39  1  0
  7 40  1  1
  8 41  1  0
  8 42  1  0
  8 43  1  0
  9 44  1  0
  9 45  1  0
 10 46  1  0
 10 47  1  0
 11 48  1  0
 11 49  1  0
 12 50  1  0
 20 51  1  0
 21 52  1  0
 22 53  1  0
 25 54  1  0
 30 55  1  0
 32 56  1  0
 32 57  1  0
 32 58  1  0
 34 59  1  0
M  CHG  2  15  -1  27  -1
M  END
>  <UniqueID>  (38) 
36

>  <SMILES>  (38) 
COc1cc(N[C@H](C)CCCNC(=O)[N-]S(=O)(=O)c2cccc(Br)c2)c2[n-]c(=O)cc(C)c2c1

>  <Energy>  (38) 
56.23822787883571

>  <Genealogy>  (38) 
COc1cc(NC(C)CCCNC(=O)[N-]S(=O)(=O)c2cccc(Br)c2)c2[n-]c(=O)cc(C)c2c1 (protonated)
COc1cc(N[C@H](C)CCCNC(=O)[N-]S(=O)(=O)c2cccc(Br)c2)c2[n-]c(=O)cc(C)c2c1 (chirality)
COc1cc(N[C@H](C)CCCNC(=O)[N-]S(=O)(=O)c2cccc(Br)c2)c2[n-]c(=O)cc(C)c2c1 (3D coordinates assigned)
COc1cc(N[C@H](C)CCCNC(=O)[N-]S(=O)(=O)c2cccc(Br)c2)c2[n-]c(=O)cc(C)c2c1 (optimized conformer: 56.23822787883571 kcal/mol)

>  <smiles>  (38) 
COc1cc(NC(C)CCCNC(=O)NS(=O)(=O)c2cccc(Br)c2)c2[nH]c(=O)cc(C)c2c1

>  <score_type>  (38) 
oracle

>  <origin>  (38) 
adg

>  <m_score__min__energy>  (38) 
-11.81

>  <m_primary>  (38) 
energy

$$$$
38:0
     RDKit          3D

 37 39  0  0  0  0  0  0  0  0999 V2000
   59.1220   24.0700   45.6780 C   0  0  0  0  0  0  0  0  0  0  0  0
   57.8290   24.6030   46.1010 N   0  0  0  0  0  0  0  0  0  0  0  0
   57.1350   25.6220   45.5520 C   0  0  0  0  0  0  0  0  0  0  0  0
   57.5910   26.4870   44.4080 C   0  0  0  0  0  0  0  0  0  0  0  0
   58.2510   27.7380   44.9230 C   0  0  0  0  0  0  0  0  0  0  0  0
   59.5890   27.7110   45.3470 C   0  0  0  0  0  0  0  0  0  0  0  0
   60.1890   28.8650   45.8540 C   0  0  0  0  0  0  0  0  0  0  0  0
   59.4600   30.0530   45.9500 C   0  0  0  0  0  0  0  0  0  0  0  0
   58.1180   30.0940   45.5390 C   0  0  0  0  0  0  0  0  0  0  0  0
   57.3280   31.2890   45.6250 N   0  0  0  0  0  0  0  0  0  0  0  0
   57.7630   32.8350   44.9710 S   0  0  0  0  0  0  0  0  0  0  0  0
   56.6320   33.7920   45.2240 O   0  0  0  0  0  0  0  0  0  0  0  0
   57.9700   32.7160   43.4870 O   0  0  0  0  0  0  0  0  0  0  0  0
   59.2240   33.4480   45.8100 C   0  0  0  0  0  0  0  0  0  0  0  0
   58.9140   34.2910   47.0370 C   0  0  0  0  0  0  0  0  0  0  0  0
   59.4390   34.9540   45.7750 C   0  0  0  0  0  0  0  0  0  0  0  0
   57.5210   28.9340   45.0260 C   0  0  0  0  0  0  0  0  0  0  0  0
   55.9460   25.7370   46.2420 C   0  0  0  0  0  0  0  0  0  0  0  0
   54.9500   26.6730   45.9840 O   0  0  0  0  0  0  0  0  0  0  0  0
   55.8670   24.8060   47.2140 N   0  0  0  0  0  0  0  0  0  0  0  0
   57.0320   24.1360   47.0880 C   0  0  0  0  0  0  0  0  0  0  0  0
   57.3400   23.1630   47.8270 O   0  0  0  0  0  0  0  0  0  0  0  0
   59.7241   23.8218   46.5645 H   0  0  0  0  0  0  0  0  0  0  0  0
   58.9654   23.1631   45.0755 H   0  0  0  0  0  0  0  0  0  0  0  0
   59.6500   24.8238   45.0755 H   0  0  0  0  0  0  0  0  0  0  0  0
   58.3099   25.9251   43.7936 H   0  0  0  0  0  0  0  0  0  0  0  0
   56.7156   26.7693   43.8047 H   0  0  0  0  0  0  0  0  0  0  0  0
   60.1666   26.7773   45.2795 H   0  0  0  0  0  0  0  0  0  0  0  0
   61.2395   28.8389   46.1791 H   0  0  0  0  0  0  0  0  0  0  0  0
   59.9390   30.9593   46.3489 H   0  0  0  0  0  0  0  0  0  0  0  0
   59.8584   32.5789   45.5816 H   0  0  0  0  0  0  0  0  0  0  0  0
   57.8703   34.4477   47.3470 H   0  0  0  0  0  0  0  0  0  0  0  0
   59.2248   34.2719   48.0920 H   0  0  0  0  0  0  0  0  0  0  0  0
   58.7754   35.5904   45.1712 H   0  0  0  0  0  0  0  0  0  0  0  0
   60.2870   35.6133   45.5379 H   0  0  0  0  0  0  0  0  0  0  0  0
   56.4705   28.9604   44.7008 H   0  0  0  0  0  0  0  0  0  0  0  0
   55.1390   27.4820   45.4070 H   0  0  0  0  0  0  0  0  0  0  0  0
  1  2  1  0
  2  3  1  0
  3  4  1  0
  4  5  1  0
  5  6  2  0
  6  7  1  0
  7  8  2  0
  8  9  1  0
  9 10  1  0
 10 11  1  0
 11 12  2  0
 11 13  2  0
 11 14  1  0
 14 15  1  0
 15 16  1  0
  9 17  2  0
  3 18  2  0
 18 19  1  0
 18 20  1  0
 20 21  1  0
 21 22  2  0
 21  2  1  0
 17  5  1  0
 16 14  1  0
  1 23  1  0
  1 24  1  0
  1 25  1  0
  4 26  1  0
  4 27  1  0
  6 28  1  0
  7 29  1  0
  8 30  1  0
 14 31  1  0
 15 32  1  0
 15 33  1  0
 16 34  1  0
 16 35  1  0
 17 36  1  0
 19 37  1  0
M  CHG  2  10  -1  20  -1
M  END
>  <UniqueID>  (39) 
37

>  <SMILES>  (39) 
Cn1c(Cc2cccc([N-]S(=O)(=O)C3CC3)c2)c(O)[n-]c1=O

>  <Energy>  (39) 
331.53684049637747

>  <Genealogy>  (39) 
Cn1c(Cc2cccc([N-]S(=O)(=O)C3CC3)c2)c(O)[n-]c1=O (protonated)
Cn1c(Cc2cccc([N-]S(=O)(=O)C3CC3)c2)c(O)[n-]c1=O (3D coordinates assigned)
Cn1c(Cc2cccc([N-]S(=O)(=O)C3CC3)c2)c(O)[n-]c1=O (nonaromatic ring conformer: 331.53684049637747 kcal/mol)

>  <smiles>  (39) 
Cn1c(Cc2cccc(NS(=O)(=O)C3CC3)c2)c(O)[nH]c1=O

>  <score_type>  (39) 
oracle

>  <origin>  (39) 
adg

>  <m_score__min__energy>  (39) 
-12.01

>  <m_primary>  (39) 
energy

$$$$
39:0
     RDKit          3D

 42 44  0  0  0  0  0  0  0  0999 V2000
   57.5470   32.0780   45.5710 C   0  0  0  0  0  0  0  0  0  0  0  0
   58.5300   32.9330   46.3260 C   0  0  0  0  0  0  0  0  0  0  0  0
   58.6620   34.2880   45.9740 C   0  0  0  0  0  0  0  0  0  0  0  0
   59.5820   35.1060   46.6300 C   0  0  0  0  0  0  0  0  0  0  0  0
   60.3750   34.5860   47.6510 C   0  0  0  0  0  0  0  0  0  0  0  0
   60.2460   33.2490   48.0270 C   0  0  0  0  0  0  0  0  0  0  0  0
   59.3250   32.4080   47.3780 C   0  0  0  0  0  0  0  0  0  0  0  0
   59.2090   30.9960   47.8230 C   0  0  0  0  0  0  0  0  0  0  0  0
   58.9280   30.0990   46.9850 O   0  0  0  0  0  0  0  0  0  0  0  0
   59.3270   30.6330   49.2050 N   0  0  0  0  0  0  0  0  0  0  0  0
   58.5940   31.2160   50.2910 C   0  0  0  0  0  0  0  0  0  0  0  0
   58.6880   32.5870   50.5930 C   0  0  0  0  0  0  0  0  0  0  0  0
   57.9570   33.1230   51.6560 C   0  0  0  0  0  0  0  0  0  0  0  0
   57.1380   32.2990   52.4330 C   0  0  0  0  0  0  0  0  0  0  0  0
   57.0540   30.9280   52.1500 C   0  0  0  0  0  0  0  0  0  0  0  0
   56.0010   29.8800   53.0930 S   0  0  0  0  0  0  0  0  0  0  0  0
   55.6330   30.5220   54.4010 O   0  0  0  0  0  0  0  0  0  0  0  0
   56.7170   28.5880   53.3680 O   0  0  0  0  0  0  0  0  0  0  0  0
   54.5550   29.5510   52.1920 N   0  0  0  0  0  0  0  0  0  0  0  0
   53.4200   30.4230   52.1090 C   0  0  0  0  0  0  0  0  0  0  0  0
   53.1010   31.1290   50.9350 C   0  0  0  0  0  0  0  0  0  0  0  0
   51.9870   31.9730   50.9010 C   0  0  0  0  0  0  0  0  0  0  0  0
   51.1840   32.1200   52.0350 C   0  0  0  0  0  0  0  0  0  0  0  0
   50.0790   32.9610   52.0000 O   0  0  0  0  0  0  0  0  0  0  0  0
   51.4930   31.4210   53.2050 C   0  0  0  0  0  0  0  0  0  0  0  0
   52.6070   30.5760   53.2410 C   0  0  0  0  0  0  0  0  0  0  0  0
   57.7940   30.3900   51.0900 C   0  0  0  0  0  0  0  0  0  0  0  0
   56.9153   31.5285   46.2845 H   0  0  0  0  0  0  0  0  0  0  0  0
   56.9144   32.7181   44.9385 H   0  0  0  0  0  0  0  0  0  0  0  0
   58.0932   31.3628   44.9385 H   0  0  0  0  0  0  0  0  0  0  0  0
   58.0339   34.7068   45.1739 H   0  0  0  0  0  0  0  0  0  0  0  0
   59.6816   36.1627   46.3410 H   0  0  0  0  0  0  0  0  0  0  0  0
   61.1046   35.2316   48.1618 H   0  0  0  0  0  0  0  0  0  0  0  0
   60.8708   32.8488   48.8391 H   0  0  0  0  0  0  0  0  0  0  0  0
   59.3385   33.2383   49.9908 H   0  0  0  0  0  0  0  0  0  0  0  0
   58.0262   34.1973   51.8823 H   0  0  0  0  0  0  0  0  0  0  0  0
   56.5597   32.7255   53.2659 H   0  0  0  0  0  0  0  0  0  0  0  0
   53.7306   31.0166   50.0400 H   0  0  0  0  0  0  0  0  0  0  0  0
   51.7422   32.5223   49.9799 H   0  0  0  0  0  0  0  0  0  0  0  0
   50.8602   31.5353   54.0975 H   0  0  0  0  0  0  0  0  0  0  0  0
   52.8469   30.0276   54.1639 H   0  0  0  0  0  0  0  0  0  0  0  0
   57.7465   29.3106   50.8835 H   0  0  0  0  0  0  0  0  0  0  0  0
  1  2  1  0
  2  3  2  0
  3  4  1  0
  4  5  2  0
  5  6  1  0
  6  7  2  0
  7  8  1  0
  8  9  2  0
  8 10  1  0
 10 11  1  0
 11 12  2  0
 12 13  1  0
 13 14  2  0
 14 15  1  0
 15 16  1  0
 16 17  2  0
 16 18  2  0
 16 19  1  0
 19 20  1  0
 20 21  2  0
 21 22  1  0
 22 23  2  0
 23 24  1  0
 23 25  1  0
 25 26  2  0
 15 27  2  0
  7  2  1  0
 27 11  1  0
 26 20  1  0
  1 28  1  0
  1 29  1  0
  1 30  1  0
  3 31  1  0
  4 32  1  0
  5 33  1  0
  6 34  1  0
 12 35  1  0
 13 36  1  0
 14 37  1  0
 21 38  1  0
 22 39  1  0
 25 40  1  0
 26 41  1  0
 27 42  1  0
M  CHG  3  10  -1  19  -1  24  -1
M  END
>  <UniqueID>  (40) 
38

>  <SMILES>  (40) 
Cc1ccccc1C(=O)[N-]c1cccc(S(=O)(=O)[N-]c2ccc([O-])cc2)c1

>  <Energy>  (40) 
56.051968983339165

>  <Genealogy>  (40) 
Cc1ccccc1C(=O)[N-]c1cccc(S(=O)(=O)[N-]c2ccc([O-])cc2)c1 (protonated)
Cc1ccccc1C(=O)[N-]c1cccc(S(=O)(=O)[N-]c2ccc([O-])cc2)c1 (3D coordinates assigned)
Cc1ccccc1C(=O)[N-]c1cccc(S(=O)(=O)[N-]c2ccc([O-])cc2)c1 (optimized conformer: 56.051968983339165 kcal/mol)

>  <smiles>  (40) 
Cc1ccccc1C(=O)Nc1cccc(S(=O)(=O)Nc2ccc(O)cc2)c1

>  <score_type>  (40) 
oracle

>  <origin>  (40) 
adg

>  <m_score__min__energy>  (40) 
-14.289999999999999

>  <m_primary>  (40) 
energy

$$$$
40:0
     RDKit          3D

 43 45  0  0  1  0  0  0  0  0999 V2000
   57.8130   31.6850   51.3710 C   0  0  0  0  0  0  0  0  0  0  0  0
   57.7550   32.3230   50.0620 N   0  0  0  0  0  0  0  0  0  0  0  0
   58.8990   32.4100   49.2270 C   0  0  0  0  0  0  0  0  0  0  0  0
   59.9680   31.8960   49.7000 O   0  0  0  0  0  0  0  0  0  0  0  0
   58.8720   33.0420   47.9130 C   0  0  0  0  0  0  0  0  0  0  0  0
   58.9790   34.4040   47.7250 C   0  0  0  0  0  0  0  0  0  0  0  0
   58.9440   34.9380   46.4400 C   0  0  0  0  0  0  0  0  0  0  0  0
   58.8040   34.1330   45.3200 C   0  0  0  0  0  0  0  0  0  0  0  0
   58.6980   32.7720   45.5170 C   0  0  0  0  0  0  0  0  0  0  0  0
   57.3660   27.6220   46.0690 N   0  0  0  0  0  0  0  0  0  0  0  0
   58.4720   27.4440   46.6880 C   0  0  0  0  0  0  0  0  0  0  0  0
   59.4030   26.5800   46.1490 C   0  0  0  0  0  0  0  0  0  0  0  0
   57.0070   28.7950   45.3470 C   0  0  0  0  0  0  0  0  0  0  0  0
   58.5490   31.8380   44.4530 N   0  0  0  0  0  0  0  0  0  0  0  0
   57.6200   30.9440   44.5280 C   0  0  0  0  0  0  0  0  0  0  0  0
   57.9590   29.7880   45.2320 C   0  0  0  0  0  0  0  0  0  0  0  0
   60.6040   26.3700   46.7960 C   0  0  0  0  0  0  0  0  0  0  0  0
   60.8140   27.0570   47.9810 C   0  0  0  0  0  0  0  0  0  0  0  0
   59.8410   27.9200   48.4830 C   0  0  0  0  0  0  0  0  0  0  0  0
   60.1500   28.6130   49.7570 C   0  0  0  0  0  0  0  0  0  0  0  0
   60.5560   27.6800   50.6950 F   0  0  0  0  0  0  0  0  0  0  0  0
   61.1870   29.5050   49.6090 F   0  0  0  0  0  0  0  0  0  0  0  0
   59.0390   29.3110   50.1720 F   0  0  0  0  0  0  0  0  0  0  0  0
   58.6660   28.1160   47.8380 N   0  0  0  0  0  0  0  0  0  0  0  0
   55.7960   28.9720   44.7830 N   0  0  0  0  0  0  0  0  0  0  0  0
   55.5180   30.1230   44.1060 C   0  0  0  0  0  0  0  0  0  0  0  0
   56.4050   31.1100   43.9680 N   0  0  0  0  0  0  0  0  0  0  0  0
   58.7320   32.2320   46.8070 C   0  0  0  0  0  0  0  0  0  0  0  0
   57.7433   32.4522   52.1562 H   0  0  0  0  0  0  0  0  0  0  0  0
   56.9753   30.9793   51.4724 H   0  0  0  0  0  0  0  0  0  0  0  0
   58.7642   31.1419   51.4724 H   0  0  0  0  0  0  0  0  0  0  0  0
   56.8470   32.7130   49.7570 H   0  0  0  0  0  0  0  0  0  0  0  0
   59.0923   35.0702   48.5929 H   0  0  0  0  0  0  0  0  0  0  0  0
   59.0296   36.0269   46.3098 H   0  0  0  0  0  0  0  0  0  0  0  0
   58.7783   34.5650   44.3087 H   0  0  0  0  0  0  0  0  0  0  0  0
   59.1882   26.0589   45.2043 H   0  0  0  0  0  0  0  0  0  0  0  0
   58.9558   29.6713   45.6822 H   0  0  0  0  0  0  0  0  0  0  0  0
   61.3627   25.6859   46.3881 H   0  0  0  0  0  0  0  0  0  0  0  0
   61.7570   26.9201   48.5305 H   0  0  0  0  0  0  0  0  0  0  0  0
   57.9400   28.7650   48.2210 H   0  0  0  0  0  0  0  0  0  0  0  0
   55.0870   28.2120   44.8790 H   0  0  0  0  0  0  0  0  0  0  0  0
   54.5217   30.2424   43.6553 H   0  0  0  0  0  0  0  0  0  0  0  0
   58.6456   31.1436   46.9406 H   0  0  0  0  0  0  0  0  0  0  0  0
  1  2  1  0
  2  3  1  0
  3  4  2  0
  3  5  1  0
  5  6  2  0
  6  7  1  0
  7  8  2  0
  8  9  1  0
  9 10  1  0
 10 11  2  0
 11 12  1  0
 12 13  2  0
 13 14  1  0
 14 15  2  0
 15 16  1  0
 16 17  2  0
 17 18  1  0
 18 19  2  0
 19 20  1  0
 20 21  1  0
 20 22  1  0
 20 23  1  0
 19 24  1  0
 13 25  1  0
 25 26  1  0
 26 27  2  0
  9 28  2  0
 28  5  1  0
 27 11  1  0
 24 15  1  0
  1 29  1  0
  1 30  1  0
  1 31  1  0
  2 32  1  0
  6 33  1  0
  7 34  1  0
  8 35  1  0
 12 36  1  0
 16 37  1  0
 17 38  1  0
 18 39  1  0
 24 40  1  0
 25 41  1  0
 26 42  1  0
 28 43  1  0
M  END
>  <smiles>  (41) 
CNC(=O)c1cccc(N=c2cc(N=c3cccc(C(F)(F)F)[nH]3)[nH]cn2)c1

>  <score_type>  (41) 
oracle

>  <origin>  (41) 
adg

>  <m_score__min__energy>  (41) 
-8.1500000000000004

>  <m_primary>  (41) 
energy

$$$$
41:0
     RDKit          3D

 47 49  0  0  0  0  0  0  0  0999 V2000
   64.1270   33.0570   48.0440 N   0  0  0  0  0  0  0  0  0  0  0  0
   62.4360   33.3090   47.7990 S   0  0  0  0  0  0  0  0  0  0  0  0
   61.9450   34.3770   48.7350 O   0  0  0  0  0  0  0  0  0  0  0  0
   62.1940   33.7570   46.3840 O   0  0  0  0  0  0  0  0  0  0  0  0
   61.5710   31.8060   48.1050 C   0  0  0  0  0  0  0  0  0  0  0  0
   61.0030   31.5640   49.3630 C   0  0  0  0  0  0  0  0  0  0  0  0
   60.2890   30.3870   49.5950 C   0  0  0  0  0  0  0  0  0  0  0  0
   60.1430   29.4430   48.5760 C   0  0  0  0  0  0  0  0  0  0  0  0
   60.7210   29.6620   47.3190 C   0  0  0  0  0  0  0  0  0  0  0  0
   60.5270   28.6770   46.2920 N   0  0  0  0  0  0  0  0  0  0  0  0
   60.0180   27.3470   46.4690 C   0  0  0  0  0  0  0  0  0  0  0  0
   60.7980   26.4120   46.8040 O   0  0  0  0  0  0  0  0  0  0  0  0
   58.5690   27.0790   46.3120 C   0  0  0  0  0  0  0  0  0  0  0  0
   58.0250   25.8380   46.6880 C   0  0  0  0  0  0  0  0  0  0  0  0
   56.6560   25.5970   46.5560 C   0  0  0  0  0  0  0  0  0  0  0  0
   55.8110   26.5820   46.0390 C   0  0  0  0  0  0  0  0  0  0  0  0
   54.4440   26.3360   45.9800 O   0  0  0  0  0  0  0  0  0  0  0  0
   56.3450   27.8160   45.6200 C   0  0  0  0  0  0  0  0  0  0  0  0
   55.5190   28.8590   45.0850 N   0  0  0  0  0  0  0  0  0  0  0  0
   55.9020   29.7780   44.0550 C   0  0  0  0  0  0  0  0  0  0  0  0
   56.1210   29.3700   42.8830 O   0  0  0  0  0  0  0  0  0  0  0  0
   56.0900   31.1610   44.3570 N   0  0  0  0  0  0  0  0  0  0  0  0
   57.2560   31.9130   43.9120 C   0  0  0  0  0  0  0  0  0  0  0  0
   57.8720   32.6310   45.0830 C   0  0  0  0  0  0  0  0  0  0  0  0
   58.4150   33.9150   44.8940 C   0  0  0  0  0  0  0  0  0  0  0  0
   59.0020   34.6020   45.9600 C   0  0  0  0  0  0  0  0  0  0  0  0
   59.0580   34.0150   47.2240 C   0  0  0  0  0  0  0  0  0  0  0  0
   58.5340   32.7360   47.4250 C   0  0  0  0  0  0  0  0  0  0  0  0
   57.9460   32.0330   46.3660 C   0  0  0  0  0  0  0  0  0  0  0  0
   57.4540   30.7510   46.6200 O   0  0  0  0  0  0  0  0  0  0  0  0
   57.7130   28.0660   45.7880 C   0  0  0  0  0  0  0  0  0  0  0  0
   61.4180   30.8610   47.0800 C   0  0  0  0  0  0  0  0  0  0  0  0
   64.5180   32.7050   47.1410 H   0  0  0  0  0  0  0  0  0  0  0  0
   61.1200   32.3030   50.1694 H   0  0  0  0  0  0  0  0  0  0  0  0
   59.8405   30.2027   50.5823 H   0  0  0  0  0  0  0  0  0  0  0  0
   59.5707   28.5221   48.7617 H   0  0  0  0  0  0  0  0  0  0  0  0
   58.6821   25.0521   47.0887 H   0  0  0  0  0  0  0  0  0  0  0  0
   56.2402   24.6254   46.8610 H   0  0  0  0  0  0  0  0  0  0  0  0
   57.9932   31.2218   43.4776 H   0  0  0  0  0  0  0  0  0  0  0  0
   56.9485   32.6482   43.1538 H   0  0  0  0  0  0  0  0  0  0  0  0
   58.3772   34.3821   43.8988 H   0  0  0  0  0  0  0  0  0  0  0  0
   59.4204   35.6070   45.8020 H   0  0  0  0  0  0  0  0  0  0  0  0
   59.5152   34.5598   48.0632 H   0  0  0  0  0  0  0  0  0  0  0  0
   58.5836   32.2770   48.4234 H   0  0  0  0  0  0  0  0  0  0  0  0
   56.6560   30.3580   46.1380 H   0  0  0  0  0  0  0  0  0  0  0  0
   58.1239   29.0468   45.5067 H   0  0  0  0  0  0  0  0  0  0  0  0
   61.8445   31.0578   46.0853 H   0  0  0  0  0  0  0  0  0  0  0  0
  1  2  1  0
  2  3  2  0
  2  4  2  0
  2  5  1  0
  5  6  2  0
  6  7  1  0
  7  8  2  0
  8  9  1  0
  9 10  1  0
 10 11  1  0
 11 12  2  0
 11 13  1  0
 13 14  2  0
 14 15  1  0
 15 16  2  0
 16 17  1  0
 16 18  1  0
 18 19  1  0
 19 20  1  0
 20 21  2  0
 20 22  1  0
 22 23  1  0
 23 24  1  0
 24 25  2  0
 25 26  1  0
 26 27  2  0
 27 28  1  0
 28 29  2  0
 29 30  1  0
 18 31  2  0
  9 32  2  0
 32  5  1  0
 31 13  1  0
 29 24  1  0
  1 33  1  0
  6 34  1  0
  7 35  1  0
  8 36  1  0
 14 37  1  0
 15 38  1  0
 23 39  1  0
 23 40  1  0
 25 41  1  0
 26 42  1  0
 27 43  1  0
 28 44  1  0
 30 45  1  0
 31 46  1  0
 32 47  1  0
M  CHG  5   1  -1  10  -1  17  -1  19  -1  22  -1
M  END
>  <UniqueID>  (42) 
39

>  <SMILES>  (42) 
[NH-]S(=O)(=O)c1cccc([N-]C(=O)c2ccc([O-])c([N-]C(=O)[N-]Cc3ccccc3O)c2)c1

>  <Energy>  (42) 
58.11314823065638

>  <Genealogy>  (42) 
[NH-]S(=O)(=O)c1cccc([N-]C(=O)c2ccc([O-])c([N-]C(=O)[N-]Cc3ccccc3O)c2)c1 (protonated)
[NH-]S(=O)(=O)c1cccc([N-]C(=O)c2ccc([O-])c([N-]C(=O)[N-]Cc3ccccc3O)c2)c1 (3D coordinates assigned)
[NH-]S(=O)(=O)c1cccc([N-]C(=O)c2ccc([O-])c([N-]C(=O)[N-]Cc3ccccc3O)c2)c1 (optimized conformer: 58.11314823065638 kcal/mol)

>  <smiles>  (42) 
NS(=O)(=O)c1cccc(NC(=O)c2ccc(O)c(NC(=O)NCc3ccccc3O)c2)c1

>  <score_type>  (42) 
oracle

>  <origin>  (42) 
adg

>  <m_score__min__energy>  (42) 
-18.25

>  <m_primary>  (42) 
energy

$$$$
42:0
     RDKit          3D

 56 59  0  0  0  0  0  0  0  0999 V2000
   59.3393   26.6833   48.0569 H   0  0  0  0  0  0  0  0  0  0  0  0
   58.4960   26.8300   47.3660 C   0  0  0  0  0  0  0  0  0  0  0  0
   57.5380   25.8710   47.2560 N   0  0  0  0  0  0  0  0  0  0  0  0
   56.4770   25.9960   46.4160 C   0  0  0  0  0  0  0  0  0  0  0  0
   55.6040   25.0260   46.3720 N   0  0  0  0  0  0  0  0  0  0  0  0
   55.3430   24.1100   45.2560 C   0  0  2  0  0  0  0  0  0  0  0  0
   54.4318   24.4127   44.7193 H   0  0  0  0  0  0  0  0  0  0  0  0
   55.0740   22.6680   45.7730 C   0  0  0  0  0  0  0  0  0  0  0  0
   54.2045   22.2589   45.2377 H   0  0  0  0  0  0  0  0  0  0  0  0
   54.8923   22.7323   46.8560 H   0  0  0  0  0  0  0  0  0  0  0  0
   56.2680   21.7290   45.5590 C   0  0  0  0  0  0  0  0  0  0  0  0
   56.0044   20.7265   45.9270 H   0  0  0  0  0  0  0  0  0  0  0  0
   57.1289   22.1355   46.1100 H   0  0  0  0  0  0  0  0  0  0  0  0
   56.6530   21.6300   44.0630 C   0  0  2  0  0  0  0  0  0  0  0  0
   55.9387   20.9410   43.5886 H   0  0  0  0  0  0  0  0  0  0  0  0
   58.0120   21.0900   43.9250 N   0  0  0  0  0  0  0  0  0  0  0  0
   57.9980   20.2610   43.2900 H   0  0  0  0  0  0  0  0  0  0  0  0
   58.3710   20.7790   44.8560 H   0  0  0  0  0  0  0  0  0  0  0  0
   58.6560   21.8130   43.5300 H   0  0  0  0  0  0  0  0  0  0  0  0
   56.5180   22.9850   43.3160 C   0  0  0  0  0  0  0  0  0  0  0  0
   55.5705   22.9883   42.7572 H   0  0  0  0  0  0  0  0  0  0  0  0
   57.3815   23.0858   42.6420 H   0  0  0  0  0  0  0  0  0  0  0  0
   56.5290   24.1800   44.2750 C   0  0  0  0  0  0  0  0  0  0  0  0
   56.4594   25.1101   43.6919 H   0  0  0  0  0  0  0  0  0  0  0  0
   57.4645   24.1575   44.8532 H   0  0  0  0  0  0  0  0  0  0  0  0
   56.3610   27.1580   45.6280 C   0  0  0  0  0  0  0  0  0  0  0  0
   55.5116   27.2702   44.9381 H   0  0  0  0  0  0  0  0  0  0  0  0
   57.3290   28.1760   45.7210 C   0  0  0  0  0  0  0  0  0  0  0  0
   57.2010   29.3880   44.8730 C   0  0  0  0  0  0  0  0  0  0  0  0
   57.2110   30.6210   45.4490 N   0  0  0  0  0  0  0  0  0  0  0  0
   57.1200   31.7730   44.7320 C   0  0  0  0  0  0  0  0  0  0  0  0
   57.1290   32.9060   45.3730 N   0  0  0  0  0  0  0  0  0  0  0  0
   57.4250   33.0970   46.7910 C   0  0  0  0  0  0  0  0  0  0  0  0
   56.9526   34.0257   47.1436 H   0  0  0  0  0  0  0  0  0  0  0  0
   57.0316   32.2473   47.3684 H   0  0  0  0  0  0  0  0  0  0  0  0
   58.9120   33.1880   46.9770 C   0  0  0  0  0  0  0  0  0  0  0  0
   59.5610   32.3710   47.9160 C   0  0  0  0  0  0  0  0  0  0  0  0
   58.9726   31.6888   48.5472 H   0  0  0  0  0  0  0  0  0  0  0  0
   60.9520   32.4200   48.0530 C   0  0  0  0  0  0  0  0  0  0  0  0
   61.4498   31.7838   48.7996 H   0  0  0  0  0  0  0  0  0  0  0  0
   61.7200   33.2780   47.2420 C   0  0  0  0  0  0  0  0  0  0  0  0
   63.1540   33.3240   47.3730 N   0  0  0  0  0  0  0  0  0  0  0  0
   63.8800   32.5600   46.7030 O   0  0  0  0  0  0  0  0  0  0  0  0
   63.7490   34.2150   48.2360 O   0  0  0  0  0  0  0  0  0  0  0  0
   61.0670   34.0830   46.2940 C   0  0  0  0  0  0  0  0  0  0  0  0
   61.6542   34.7570   45.6530 H   0  0  0  0  0  0  0  0  0  0  0  0
   59.6760   34.0340   46.1590 C   0  0  0  0  0  0  0  0  0  0  0  0
   59.1775   34.6628   45.4066 H   0  0  0  0  0  0  0  0  0  0  0  0
   57.0200   31.7000   43.3300 C   0  0  0  0  0  0  0  0  0  0  0  0
   56.9466   32.6186   42.7294 H   0  0  0  0  0  0  0  0  0  0  0  0
   57.0150   30.4500   42.7100 C   0  0  0  0  0  0  0  0  0  0  0  0
   56.9407   30.3809   41.6147 H   0  0  0  0  0  0  0  0  0  0  0  0
   57.1040   29.2880   43.4760 C   0  0  0  0  0  0  0  0  0  0  0  0
   57.0982   28.3014   42.9897 H   0  0  0  0  0  0  0  0  0  0  0  0
   58.4160   27.9990   46.6080 C   0  0  0  0  0  0  0  0  0  0  0  0
   59.6580   29.2260   46.8490 Cl  0  0  0  0  0  0  0  0  0  0  0  0
  1  2  1  0
  2  3  1  0
  3  4  1  0
  4  5  2  0
  5  6  1  0
  6  7  1  6
  6  8  1  0
  8  9  1  0
  8 10  1  0
  8 11  1  0
 11 12  1  0
 11 13  1  0
 11 14  1  0
 14 15  1  6
 14 16  1  0
 16 17  1  0
 16 18  1  0
 16 19  1  0
 14 20  1  0
 20 21  1  0
 20 22  1  0
 20 23  1  0
 23 24  1  0
 23 25  1  0
  4 26  1  0
 26 27  1  0
 26 28  2  0
 28 29  1  0
 29 30  1  0
 30 31  1  0
 31 32  2  3
 32 33  1  0
 33 34  1  0
 33 35  1  0
 33 36  1  0
 36 37  2  0
 37 38  1  0
 37 39  1  0
 39 40  1  0
 39 41  2  0
 41 42  1  0
 42 43  2  0
 42 44  1  0
 41 45  1  0
 45 46  1  0
 45 47  2  0
 47 48  1  0
 31 49  1  0
 49 50  1  0
 49 51  2  0
 51 52  1  0
 51 53  1  0
 53 54  1  0
 28 55  1  0
 55 56  1  0
 55  2  2  0
 23  6  1  0
 53 29  2  0
 47 36  1  0
M  CHG  5   3  -1  16   1  30  -1  42   1  44  -1
M  END
>  <UniqueID>  (43) 
40

>  <SMILES>  (43) 
[NH3+]C1CCC(/N=c2\cc(-c3cccc(=NCc4ccc([N+](=O)[O-])cc4)[n-]3)c(Cl)c[n-]2)CC1

>  <Energy>  (43) 
73.7676151683431

>  <Genealogy>  (43) 
[NH3+]C1CCC(N=c2cc(-c3cccc(=NCc4ccc([N+](=O)[O-])cc4)[n-]3)c(Cl)c[n-]2)CC1 (protonated)
[NH3+]C1CCC(/N=c2\cc(-c3cccc(=NCc4ccc([N+](=O)[O-])cc4)[n-]3)c(Cl)c[n-]2)CC1 (cis-trans isomerization)
[NH3+]C1CCC(/N=c2\cc(-c3cccc(=NCc4ccc([N+](=O)[O-])cc4)[n-]3)c(Cl)c[n-]2)CC1 (3D coordinates assigned)
[NH3+]C1CCC(/N=c2\cc(-c3cccc(=NCc4ccc([N+](=O)[O-])cc4)[n-]3)c(Cl)c[n-]2)CC1 (nonaromatic ring conformer: 73.7676151683431 kcal/mol)

>  <smiles>  (43) 
NC1CCC(N=c2cc(-c3cccc(=NCc4ccc([N+](=O)[O-])cc4)[nH]3)c(Cl)c[nH]2)CC1

>  <score_type>  (43) 
oracle

>  <origin>  (43) 
adg

>  <m_score__min__energy>  (43) 
-12.31

>  <m_primary>  (43) 
energy

$$$$
43:0
     RDKit          3D

 44 47  0  0  0  0  0  0  0  0999 V2000
   61.4550   33.8360   48.4400 C   0  0  0  0  0  0  0  0  0  0  0  0
   60.2570   33.7640   47.5350 C   0  0  0  0  0  0  0  0  0  0  0  0
   60.2660   34.4320   46.2980 C   0  0  0  0  0  0  0  0  0  0  0  0
   59.1530   34.3720   45.4560 C   0  0  0  0  0  0  0  0  0  0  0  0
   58.0250   33.6460   45.8380 C   0  0  0  0  0  0  0  0  0  0  0  0
   58.0030   32.9810   47.0660 C   0  0  0  0  0  0  0  0  0  0  0  0
   59.1110   33.0480   47.9310 C   0  0  0  0  0  0  0  0  0  0  0  0
   59.1170   32.3760   49.1620 O   0  0  0  0  0  0  0  0  0  0  0  0
   59.7660   31.1600   49.4050 C   0  0  0  0  0  0  0  0  0  0  0  0
   60.5840   30.8930   50.4510 N   0  0  0  0  0  0  0  0  0  0  0  0
   61.0430   29.6510   50.3260 N   0  0  0  0  0  0  0  0  0  0  0  0
   61.9090   28.9940   51.3020 C   0  0  0  0  0  0  0  0  0  0  0  0
   62.7990   30.0030   51.9490 C   0  0  0  0  0  0  0  0  0  0  0  0
   63.9890   29.7090   52.2390 O   0  0  0  0  0  0  0  0  0  0  0  0
   62.3010   31.2590   52.2780 O   0  0  0  0  0  0  0  0  0  0  0  0
   60.5140   29.1190   49.2040 C   0  0  0  0  0  0  0  0  0  0  0  0
   60.6890   27.8430   48.6660 C   0  0  0  0  0  0  0  0  0  0  0  0
   60.0190   27.5410   47.4660 C   0  0  0  0  0  0  0  0  0  0  0  0
   59.1850   28.5020   46.8370 C   0  0  0  0  0  0  0  0  0  0  0  0
   58.5040   28.1770   45.5370 C   0  0  0  0  0  0  0  0  0  0  0  0
   57.3970   27.1970   45.7670 C   0  0  0  0  0  0  0  0  0  0  0  0
   57.5930   25.6360   46.3710 S   0  0  0  0  0  0  0  0  0  0  0  0
   55.9370   25.3470   46.3880 C   0  0  0  0  0  0  0  0  0  0  0  0
   55.4100   24.2680   46.7620 O   0  0  0  0  0  0  0  0  0  0  0  0
   55.2180   26.4060   45.9610 N   0  0  0  0  0  0  0  0  0  0  0  0
   56.0330   27.4400   45.6200 C   0  0  0  0  0  0  0  0  0  0  0  0
   55.5230   28.6490   45.1640 O   0  0  0  0  0  0  0  0  0  0  0  0
   59.0350   29.7850   47.4090 C   0  0  0  0  0  0  0  0  0  0  0  0
   59.7140   30.0490   48.5940 C   0  0  0  0  0  0  0  0  0  0  0  0
   61.1240   33.8161   49.4888 H   0  0  0  0  0  0  0  0  0  0  0  0
   62.1128   32.9758   48.2467 H   0  0  0  0  0  0  0  0  0  0  0  0
   62.0050   34.7688   48.2467 H   0  0  0  0  0  0  0  0  0  0  0  0
   61.1538   35.0047   45.9917 H   0  0  0  0  0  0  0  0  0  0  0  0
   59.1662   34.8982   44.4901 H   0  0  0  0  0  0  0  0  0  0  0  0
   57.1515   33.5971   45.1712 H   0  0  0  0  0  0  0  0  0  0  0  0
   57.1148   32.4018   47.3586 H   0  0  0  0  0  0  0  0  0  0  0  0
   60.8450   31.5460   51.2230 H   0  0  0  0  0  0  0  0  0  0  0  0
   61.2900   28.5073   52.0701 H   0  0  0  0  0  0  0  0  0  0  0  0
   62.5260   28.2405   50.7907 H   0  0  0  0  0  0  0  0  0  0  0  0
   61.3288   27.0989   49.1631 H   0  0  0  0  0  0  0  0  0  0  0  0
   60.1431   26.5478   47.0097 H   0  0  0  0  0  0  0  0  0  0  0  0
   58.0894   29.0989   45.1031 H   0  0  0  0  0  0  0  0  0  0  0  0
   59.2379   27.7354   44.8468 H   0  0  0  0  0  0  0  0  0  0  0  0
   58.4027   30.5493   46.9335 H   0  0  0  0  0  0  0  0  0  0  0  0
  1  2  1  0
  2  3  2  0
  3  4  1  0
  4  5  2  0
  5  6  1  0
  6  7  2  0
  7  8  1  0
  8  9  1  0
  9 10  2  0
 10 11  1  0
 11 12  1  0
 12 13  1  0
 13 14  2  0
 13 15  1  0
 11 16  1  0
 16 17  2  0
 17 18  1  0
 18 19  2  0
 19 20  1  0
 20 21  1  0
 21 22  1  0
 22 23  1  0
 23 24  2  0
 23 25  1  0
 25 26  1  0
 26 27  1  0
 19 28  1  0
 28 29  2  0
  7  2  1  0
 29  9  1  0
 29 16  1  0
 26 21  2  0
  1 30  1  0
  1 31  1  0
  1 32  1  0
  3 33  1  0
  4 34  1  0
  5 35  1  0
  6 36  1  0
 10 37  1  0
 12 38  1  0
 12 39  1  0
 17 40  1  0
 18 41  1  0
 20 42  1  0
 20 43  1  0
 28 44  1  0
M  CHG  4  10   1  15  -1  25  -1  27  -1
M  END
>  <UniqueID>  (44) 
41

>  <SMILES>  (44) 
Cc1ccccc1Oc1[nH+]n(CC(=O)[O-])c2ccc(Cc3sc(=O)[n-]c3[O-])cc12

>  <Energy>  (44) 
120.13349813771153

>  <Genealogy>  (44) 
Cc1ccccc1Oc1[nH+]n(CC(=O)[O-])c2ccc(Cc3sc(=O)[n-]c3[O-])cc12 (protonated)
Cc1ccccc1Oc1[nH+]n(CC(=O)[O-])c2ccc(Cc3sc(=O)[n-]c3[O-])cc12 (3D coordinates assigned)
Cc1ccccc1Oc1[nH+]n(CC(=O)[O-])c2ccc(Cc3sc(=O)[n-]c3[O-])cc12 (optimized conformer: 120.13349813771153 kcal/mol)

>  <smiles>  (44) 
Cc1ccccc1Oc1nn(CC(=O)O)c2ccc(Cc3sc(=O)[nH]c3O)cc12

>  <score_type>  (44) 
oracle

>  <origin>  (44) 
adg

>  <m_score__min__energy>  (44) 
-14.41

>  <m_primary>  (44) 
energy

$$$$
44:0
     RDKit          3D

 38 40  0  0  0  0  0  0  0  0999 V2000
   56.3100   20.4970   49.5100 N   0  0  0  0  0  0  0  0  0  0  0  0
   55.5800   21.2350   48.5430 N   0  0  0  0  0  0  0  0  0  0  0  0
   54.3960   20.6660   48.1370 C   0  0  0  0  0  0  0  0  0  0  0  0
   54.0300   19.5840   48.6750 O   0  0  0  0  0  0  0  0  0  0  0  0
   53.5640   21.1530   47.1950 N   0  0  0  0  0  0  0  0  0  0  0  0
   53.5390   22.2460   46.4190 C   0  0  0  0  0  0  0  0  0  0  0  0
   52.5740   22.3650   45.6160 O   0  0  0  0  0  0  0  0  0  0  0  0
   54.4720   23.2580   46.4470 C   0  0  0  0  0  0  0  0  0  0  0  0
   55.6260   23.3700   47.2220 C   0  0  0  0  0  0  0  0  0  0  0  0
   56.3960   24.6770   47.0410 C   0  0  0  0  0  0  0  0  0  0  0  0
   56.1120   25.3980   45.3810 S   0  0  0  0  0  0  0  0  0  0  0  0
   57.1660   26.8240   45.6500 C   0  0  0  0  0  0  0  0  0  0  0  0
   58.5090   26.8020   45.9710 C   0  0  0  0  0  0  0  0  0  0  0  0
   58.8990   28.1300   46.0170 C   0  0  0  0  0  0  0  0  0  0  0  0
   60.1950   28.5680   46.2700 O   0  0  0  0  0  0  0  0  0  0  0  0
   57.8600   28.9530   45.7500 N   0  0  0  0  0  0  0  0  0  0  0  0
   57.8900   30.3890   45.6680 C   0  0  0  0  0  0  0  0  0  0  0  0
   57.4120   31.0480   44.5220 C   0  0  0  0  0  0  0  0  0  0  0  0
   57.4380   32.4440   44.4470 C   0  0  0  0  0  0  0  0  0  0  0  0
   57.9380   33.1940   45.5150 C   0  0  0  0  0  0  0  0  0  0  0  0
   57.9620   34.5470   45.4410 F   0  0  0  0  0  0  0  0  0  0  0  0
   58.4140   32.5480   46.6600 C   0  0  0  0  0  0  0  0  0  0  0  0
   58.3910   31.1520   46.7370 C   0  0  0  0  0  0  0  0  0  0  0  0
   56.8020   28.1470   45.5300 C   0  0  0  0  0  0  0  0  0  0  0  0
   55.5190   28.5980   45.2330 O   0  0  0  0  0  0  0  0  0  0  0  0
   56.1440   22.4300   48.1470 C   0  0  0  0  0  0  0  0  0  0  0  0
   57.2560   22.7400   48.6620 O   0  0  0  0  0  0  0  0  0  0  0  0
   57.2220   20.8310   49.8960 H   0  0  0  0  0  0  0  0  0  0  0  0
   55.9770   19.5810   49.8850 H   0  0  0  0  0  0  0  0  0  0  0  0
   54.2802   24.0965   45.7614 H   0  0  0  0  0  0  0  0  0  0  0  0
   56.0645   25.3960   47.8046 H   0  0  0  0  0  0  0  0  0  0  0  0
   57.4698   24.4627   47.1455 H   0  0  0  0  0  0  0  0  0  0  0  0
   59.1364   25.9167   46.1519 H   0  0  0  0  0  0  0  0  0  0  0  0
   60.9290   28.4470   45.5810 H   0  0  0  0  0  0  0  0  0  0  0  0
   57.0153   30.4623   43.6796 H   0  0  0  0  0  0  0  0  0  0  0  0
   57.0644   32.9526   43.5461 H   0  0  0  0  0  0  0  0  0  0  0  0
   58.8069   33.1384   47.5009 H   0  0  0  0  0  0  0  0  0  0  0  0
   58.7672   30.6479   47.6394 H   0  0  0  0  0  0  0  0  0  0  0  0
  1  2  1  0
  2  3  1  0
  3  4  2  0
  3  5  1  0
  5  6  1  0
  6  7  2  0
  6  8  1  0
  8  9  2  0
  9 10  1  0
 10 11  1  0
 11 12  1  0
 12 13  1  0
 13 14  2  0
 14 15  1  0
 14 16  1  0
 16 17  1  0
 17 18  2  0
 18 19  1  0
 19 20  2  0
 20 21  1  0
 20 22  1  0
 22 23  2  0
 16 24  1  0
 24 25  1  0
  9 26  1  0
 26 27  2  0
 26  2  1  0
 24 12  2  0
 23 17  1  0
  1 28  1  0
  1 29  1  0
  8 30  1  0
 10 31  1  0
 10 32  1  0
 13 33  1  0
 15 34  1  0
 18 35  1  0
 19 36  1  0
 22 37  1  0
 23 38  1  0
M  CHG  2   5  -1  25  -1
M  END
>  <UniqueID>  (45) 
42

>  <SMILES>  (45) 
Nn1c(=O)[n-]c(=O)cc(CSc2cc(O)n(-c3ccc(F)cc3)c2[O-])c1=O

>  <Energy>  (45) 
104.41998336356305

>  <Genealogy>  (45) 
Nn1c(=O)[n-]c(=O)cc(CSc2cc(O)n(-c3ccc(F)cc3)c2[O-])c1=O (protonated)
Nn1c(=O)[n-]c(=O)cc(CSc2cc(O)n(-c3ccc(F)cc3)c2[O-])c1=O (3D coordinates assigned)
Nn1c(=O)[n-]c(=O)cc(CSc2cc(O)n(-c3ccc(F)cc3)c2[O-])c1=O (optimized conformer: 104.41998336356305 kcal/mol)

>  <smiles>  (45) 
Nn1c(=O)[nH]c(=O)cc(CSc2cc(O)n(-c3ccc(F)cc3)c2O)c1=O

>  <score_type>  (45) 
oracle

>  <origin>  (45) 
adg

>  <m_score__min__energy>  (45) 
-11.369999999999999

>  <m_primary>  (45) 
energy

$$$$
45:0
     RDKit          3D

 24 25  0  0  0  0  0  0  0  0999 V2000
   57.0130   22.3000   47.3680 O   0  0  0  0  0  0  0  0  0  0  0  0
   56.7990   23.0650   46.3920 C   0  0  0  0  0  0  0  0  0  0  0  0
   56.4600   24.4340   46.6500 N   0  0  0  0  0  0  0  0  0  0  0  0
   57.1510   25.5880   46.1490 C   0  0  0  0  0  0  0  0  0  0  0  0
   58.5530   25.6080   46.0160 C   0  0  0  0  0  0  0  0  0  0  0  0
   59.3240   24.5140   46.3950 O   0  0  0  0  0  0  0  0  0  0  0  0
   59.1900   26.7450   45.5190 C   0  0  0  0  0  0  0  0  0  0  0  0
   58.4500   27.8770   45.1810 C   0  0  0  0  0  0  0  0  0  0  0  0
   57.0520   27.8970   45.3410 C   0  0  0  0  0  0  0  0  0  0  0  0
   56.2910   29.1220   44.9860 C   0  0  0  0  0  0  0  0  0  0  0  0
   55.1170   29.0330   44.5360 O   0  0  0  0  0  0  0  0  0  0  0  0
   56.8490   30.3850   45.1420 O   0  0  0  0  0  0  0  0  0  0  0  0
   56.4080   26.7390   45.8360 C   0  0  0  0  0  0  0  0  0  0  0  0
   55.0280   26.7130   46.0130 O   0  0  0  0  0  0  0  0  0  0  0  0
   56.8530   22.5150   45.0240 C   0  0  0  0  0  0  0  0  0  0  0  0
   57.6670   21.4810   44.5700 C   0  0  0  0  0  0  0  0  0  0  0  0
   57.5100   21.2110   43.2050 C   0  0  0  0  0  0  0  0  0  0  0  0
   56.5860   22.0340   42.5750 C   0  0  0  0  0  0  0  0  0  0  0  0
   55.9660   23.0980   43.7180 S   0  0  0  0  0  0  0  0  0  0  0  0
   60.2828   26.7484   45.3930 H   0  0  0  0  0  0  0  0  0  0  0  0
   58.9647   28.7647   44.7847 H   0  0  0  0  0  0  0  0  0  0  0  0
   58.3642   20.9308   45.2190 H   0  0  0  0  0  0  0  0  0  0  0  0
   58.0668   20.4205   42.6806 H   0  0  0  0  0  0  0  0  0  0  0  0
   56.3080   21.9960   41.5114 H   0  0  0  0  0  0  0  0  0  0  0  0
  1  2  2  0
  2  3  1  0
  3  4  1  0
  4  5  2  0
  5  6  1  0
  5  7  1  0
  7  8  2  0
  8  9  1  0
  9 10  1  0
 10 11  2  0
 10 12  1  0
  9 13  2  0
 13 14  1  0
  2 15  1  0
 15 16  2  0
 16 17  1  0
 17 18  2  0
 18 19  1  0
 13  4  1  0
 19 15  1  0
  7 20  1  0
  8 21  1  0
 16 22  1  0
 17 23  1  0
 18 24  1  0
M  CHG  4   3  -1   6  -1  12  -1  14  -1
M  END
>  <UniqueID>  (46) 
43

>  <SMILES>  (46) 
O=C([N-]c1c([O-])ccc(C(=O)[O-])c1[O-])c1cccs1

>  <Energy>  (46) 
60.621692078442905

>  <Genealogy>  (46) 
O=C([N-]c1c([O-])ccc(C(=O)[O-])c1[O-])c1cccs1 (protonated)
O=C([N-]c1c([O-])ccc(C(=O)[O-])c1[O-])c1cccs1 (3D coordinates assigned)
O=C([N-]c1c([O-])ccc(C(=O)[O-])c1[O-])c1cccs1 (optimized conformer: 60.621692078442905 kcal/mol)

>  <smiles>  (46) 
O=C(Nc1c(O)ccc(C(=O)O)c1O)c1cccs1

>  <score_type>  (46) 
oracle

>  <origin>  (46) 
adg

>  <m_score__min__energy>  (46) 
-15.619999999999999

>  <m_primary>  (46) 
energy

$$$$
46:0
     RDKit          3D

 41 43  0  0  0  0  0  0  0  0999 V2000
   60.4220   23.0840   45.6760 N   0  0  0  0  0  0  0  0  0  0  0  0
   59.2630   23.9150   45.6290 C   0  0  0  0  0  0  0  0  0  0  0  0
   58.2170   23.4780   45.0760 O   0  0  0  0  0  0  0  0  0  0  0  0
   59.2850   25.2730   46.2200 C   0  0  0  0  0  0  0  0  0  0  0  0
   58.1000   25.8620   46.6990 C   0  0  0  0  0  0  0  0  0  0  0  0
   58.1160   27.1490   47.2410 C   0  0  0  0  0  0  0  0  0  0  0  0
   59.3130   27.8790   47.3000 C   0  0  0  0  0  0  0  0  0  0  0  0
   59.3230   29.2960   47.8160 C   0  0  0  0  0  0  0  0  0  0  0  0
   58.7180   30.1790   46.8850 O   0  0  0  0  0  0  0  0  0  0  0  0
   58.3490   31.4080   47.4890 C   0  0  0  0  0  0  0  0  0  0  0  0
   58.6340   32.5850   46.5700 C   0  0  0  0  0  0  0  0  0  0  0  0
   59.6580   33.4980   46.9250 C   0  0  0  0  0  0  0  0  0  0  0  0
   60.5400   33.3650   48.4450 Cl  0  0  0  0  0  0  0  0  0  0  0  0
   60.0090   34.5390   46.0620 C   0  0  0  0  0  0  0  0  0  0  0  0
   59.3490   34.6990   44.8480 C   0  0  0  0  0  0  0  0  0  0  0  0
   58.3220   33.8300   44.4910 C   0  0  0  0  0  0  0  0  0  0  0  0
   57.9450   32.7710   45.3360 C   0  0  0  0  0  0  0  0  0  0  0  0
   56.7890   31.8940   44.8960 C   0  0  0  0  0  0  0  0  0  0  0  0
   57.2370   30.4820   44.6620 C   0  0  0  0  0  0  0  0  0  0  0  0
   58.7670   30.0230   44.1220 S   0  0  0  0  0  0  0  0  0  0  0  0
   58.3670   28.3910   44.1090 C   0  0  0  0  0  0  0  0  0  0  0  0
   59.1570   27.4700   43.7750 O   0  0  0  0  0  0  0  0  0  0  0  0
   57.0940   28.1650   44.4940 N   0  0  0  0  0  0  0  0  0  0  0  0
   56.4620   29.3290   44.7970 C   0  0  0  0  0  0  0  0  0  0  0  0
   55.1340   29.3510   45.2030 O   0  0  0  0  0  0  0  0  0  0  0  0
   60.5020   27.2840   46.8550 C   0  0  0  0  0  0  0  0  0  0  0  0
   60.4880   25.9960   46.3130 C   0  0  0  0  0  0  0  0  0  0  0  0
   61.0150   22.9420   44.8290 H   0  0  0  0  0  0  0  0  0  0  0  0
   57.1534   25.3041   46.6461 H   0  0  0  0  0  0  0  0  0  0  0  0
   57.1852   27.5929   47.6238 H   0  0  0  0  0  0  0  0  0  0  0  0
   58.7678   29.3375   48.7647 H   0  0  0  0  0  0  0  0  0  0  0  0
   60.3672   29.6071   47.9674 H   0  0  0  0  0  0  0  0  0  0  0  0
   57.2735   31.3853   47.7185 H   0  0  0  0  0  0  0  0  0  0  0  0
   58.9414   31.5342   48.4072 H   0  0  0  0  0  0  0  0  0  0  0  0
   60.8118   35.2361   46.3441 H   0  0  0  0  0  0  0  0  0  0  0  0
   59.6393   35.5140   44.1687 H   0  0  0  0  0  0  0  0  0  0  0  0
   57.7979   33.9736   43.5346 H   0  0  0  0  0  0  0  0  0  0  0  0
   56.0161   31.9000   45.6787 H   0  0  0  0  0  0  0  0  0  0  0  0
   56.3890   32.2931   43.9522 H   0  0  0  0  0  0  0  0  0  0  0  0
   61.4513   27.8342   46.9329 H   0  0  0  0  0  0  0  0  0  0  0  0
   61.4252   25.5440   45.9562 H   0  0  0  0  0  0  0  0  0  0  0  0
  1  2  1  0
  2  3  2  0
  2  4  1  0
  4  5  2  0
  5  6  1  0
  6  7  2  0
  7  8  1  0
  8  9  1  0
  9 10  1  0
 10 11  1  0
 11 12  2  0
 12 13  1  0
 12 14  1  0
 14 15  2  0
 15 16  1  0
 16 17  2  0
 17 18  1  0
 18 19  1  0
 19 20  1  0
 20 21  1  0
 21 22  2  0
 21 23  1  0
 23 24  1  0
 24 25  1  0
  7 26  1  0
 26 27  2  0
 27  4  1  0
 17 11  1  0
 24 19  2  0
  1 28  1  0
  5 29  1  0
  6 30  1  0
  8 31  1  0
  8 32  1  0
 10 33  1  0
 10 34  1  0
 14 35  1  0
 15 36  1  0
 16 37  1  0
 18 38  1  0
 18 39  1  0
 26 40  1  0
 27 41  1  0
M  CHG  3   1  -1  23  -1  25  -1
M  END
>  <UniqueID>  (47) 
44

>  <SMILES>  (47) 
[NH-]C(=O)c1ccc(COCc2c(Cl)cccc2Cc2sc(=O)[n-]c2[O-])cc1

>  <Energy>  (47) 
77.25220129507308

>  <Genealogy>  (47) 
[NH-]C(=O)c1ccc(COCc2c(Cl)cccc2Cc2sc(=O)[n-]c2[O-])cc1 (protonated)
[NH-]C(=O)c1ccc(COCc2c(Cl)cccc2Cc2sc(=O)[n-]c2[O-])cc1 (3D coordinates assigned)
[NH-]C(=O)c1ccc(COCc2c(Cl)cccc2Cc2sc(=O)[n-]c2[O-])cc1 (optimized conformer: 77.25220129507308 kcal/mol)

>  <smiles>  (47) 
NC(=O)c1ccc(COCc2c(Cl)cccc2Cc2sc(=O)[nH]c2O)cc1

>  <score_type>  (47) 
oracle

>  <origin>  (47) 
adg

>  <m_score__min__energy>  (47) 
-15.869999999999999

>  <m_primary>  (47) 
energy

$$$$
47:0
     RDKit          3D

 43 45  0  0  0  0  0  0  0  0999 V2000
   60.6764   30.8136   48.6024 H   0  0  0  0  0  0  0  0  0  0  0  0
   60.1880   30.2570   47.7890 C   0  0  0  0  0  0  0  0  0  0  0  0
   59.1080   29.4160   48.0680 C   0  0  0  0  0  0  0  0  0  0  0  0
   58.7498   29.3069   49.1023 H   0  0  0  0  0  0  0  0  0  0  0  0
   58.4820   28.7130   47.0350 C   0  0  0  0  0  0  0  0  0  0  0  0
   57.6375   28.0447   47.2591 H   0  0  0  0  0  0  0  0  0  0  0  0
   58.9290   28.8580   45.7110 C   0  0  0  0  0  0  0  0  0  0  0  0
   58.1280   27.9970   44.3980 S   0  0  0  0  0  0  0  0  0  0  0  0
   57.3780   26.8130   44.9420 O   0  0  0  0  0  0  0  0  0  0  0  0
   59.1910   27.4990   43.4590 O   0  0  0  0  0  0  0  0  0  0  0  0
   57.0210   28.9980   43.5060 N   0  0  0  0  0  0  0  0  0  0  0  0
   55.8780   29.7080   44.0080 C   0  0  0  0  0  0  0  0  0  0  0  0
   54.7330   29.3450   43.6380 O   0  0  0  0  0  0  0  0  0  0  0  0
   55.9980   30.8490   44.8630 N   0  0  0  0  0  0  0  0  0  0  0  0
   56.8480   31.8180   44.7050 C   0  0  0  0  0  0  0  0  0  0  0  0
   57.0030   33.1730   45.6990 S   0  0  0  0  0  0  0  0  0  0  0  0
   58.3180   33.7700   44.8290 C   0  0  0  0  0  0  0  0  0  0  0  0
   59.1960   34.8940   45.2760 C   0  0  0  0  0  0  0  0  0  0  0  0
   58.5772   35.7720   45.5129 H   0  0  0  0  0  0  0  0  0  0  0  0
   59.9022   35.1522   44.4731 H   0  0  0  0  0  0  0  0  0  0  0  0
   59.9580   34.4710   46.5010 C   0  0  0  0  0  0  0  0  0  0  0  0
   59.3660   34.5640   47.7700 C   0  0  0  0  0  0  0  0  0  0  0  0
   58.3690   35.0165   47.8766 H   0  0  0  0  0  0  0  0  0  0  0  0
   60.0360   34.0850   48.8990 C   0  0  0  0  0  0  0  0  0  0  0  0
   59.5674   34.1693   49.8906 H   0  0  0  0  0  0  0  0  0  0  0  0
   61.3080   33.4950   48.7730 C   0  0  0  0  0  0  0  0  0  0  0  0
   62.0170   32.9910   49.8720 O   0  0  0  0  0  0  0  0  0  0  0  0
   63.1740   32.1670   49.7720 C   0  0  0  0  0  0  0  0  0  0  0  0
   63.5313   31.9126   50.7808 H   0  0  0  0  0  0  0  0  0  0  0  0
   62.9212   31.2444   49.2290 H   0  0  0  0  0  0  0  0  0  0  0  0
   63.9633   32.7075   49.2290 H   0  0  0  0  0  0  0  0  0  0  0  0
   61.8940   33.4000   47.5050 C   0  0  0  0  0  0  0  0  0  0  0  0
   62.8899   32.9455   47.3970 H   0  0  0  0  0  0  0  0  0  0  0  0
   61.2240   33.8780   46.3750 C   0  0  0  0  0  0  0  0  0  0  0  0
   61.6909   33.7890   45.3830 H   0  0  0  0  0  0  0  0  0  0  0  0
   58.6000   32.8910   43.7870 C   0  0  0  0  0  0  0  0  0  0  0  0
   59.4283   33.0495   43.0807 H   0  0  0  0  0  0  0  0  0  0  0  0
   57.7660   31.8210   43.7160 N   0  0  0  0  0  0  0  0  0  0  0  0
   57.8620   31.0630   43.0030 H   0  0  0  0  0  0  0  0  0  0  0  0
   60.0230   29.6890   45.4380 C   0  0  0  0  0  0  0  0  0  0  0  0
   60.3916   29.7901   44.4066 H   0  0  0  0  0  0  0  0  0  0  0  0
   60.6480   30.3910   46.4750 C   0  0  0  0  0  0  0  0  0  0  0  0
   61.5020   31.0489   46.2563 H   0  0  0  0  0  0  0  0  0  0  0  0
  1  2  1  0
  2  3  2  0
  3  4  1  0
  3  5  1  0
  5  6  1  0
  5  7  2  0
  7  8  1  0
  8  9  2  0
  8 10  2  0
  8 11  1  0
 11 12  1  0
 12 13  2  0
 12 14  1  0
 14 15  2  0
 15 16  1  0
 16 17  1  0
 17 18  1  0
 18 19  1  0
 18 20  1  0
 18 21  1  0
 21 22  2  0
 22 23  1  0
 22 24  1  0
 24 25  1  0
 24 26  2  0
 26 27  1  0
 27 28  1  0
 28 29  1  0
 28 30  1  0
 28 31  1  0
 26 32  1  0
 32 33  1  0
 32 34  2  0
 34 35  1  0
 17 36  2  0
 36 37  1  0
 36 38  1  0
 38 39  1  0
  7 40  1  0
 40 41  1  0
 40 42  2  0
 42 43  1  0
 42  2  1  0
 38 15  1  0
 34 21  1  0
M  CHG  1  11  -1
M  END
>  <UniqueID>  (48) 
45

>  <SMILES>  (48) 
COc1ccc(Cc2c[nH]/c(=N/C(=O)[N-]S(=O)(=O)c3ccccc3)s2)cc1

>  <Energy>  (48) 
79.45744369900865

>  <Genealogy>  (48) 
COc1ccc(Cc2c[nH]c(=NC(=O)[N-]S(=O)(=O)c3ccccc3)s2)cc1 (protonated)
COc1ccc(Cc2c[nH]/c(=N/C(=O)[N-]S(=O)(=O)c3ccccc3)s2)cc1 (cis-trans isomerization)
COc1ccc(Cc2c[nH]/c(=N/C(=O)[N-]S(=O)(=O)c3ccccc3)s2)cc1 (3D coordinates assigned)
COc1ccc(Cc2c[nH]/c(=N/C(=O)[N-]S(=O)(=O)c3ccccc3)s2)cc1 (optimized conformer: 79.45744369900865 kcal/mol)

>  <smiles>  (48) 
COc1ccc(Cc2c[nH]c(=NC(=O)NS(=O)(=O)c3ccccc3)s2)cc1

>  <score_type>  (48) 
oracle

>  <origin>  (48) 
adg

>  <m_score__min__energy>  (48) 
-9.6999999999999993

>  <m_primary>  (48) 
energy

$$$$
48:0
     RDKit          3D

 51 53  0  0  1  0  0  0  0  0999 V2000
   60.2640   33.4410   49.6840 C   0  0  0  0  0  0  0  0  0  0  0  0
   61.5100   33.0260   49.0040 C   0  0  0  0  0  0  0  0  0  0  0  0
   62.7800   33.3720   49.4500 C   0  0  0  0  0  0  0  0  0  0  0  0
   63.9210   32.9760   48.7900 C   0  0  0  0  0  0  0  0  0  0  0  0
   65.0910   33.2800   49.1790 O   0  0  0  0  0  0  0  0  0  0  0  0
   63.7610   32.2230   47.6720 N   0  0  0  0  0  0  0  0  0  0  0  0
   62.5590   31.8900   47.2400 N   0  0  0  0  0  0  0  0  0  0  0  0
   61.4160   32.2490   47.8450 C   0  0  0  0  0  0  0  0  0  0  0  0
   60.2620   31.8920   47.3800 N   0  0  0  0  0  0  0  0  0  0  0  0
   59.5020   32.7260   46.5230 C   0  0  0  0  0  0  0  0  0  0  0  0
   59.7290   34.1080   46.4750 C   0  0  0  0  0  0  0  0  0  0  0  0
   58.9940   34.9430   45.6620 C   0  0  0  0  0  0  0  0  0  0  0  0
   57.9800   34.4290   44.8470 C   0  0  0  0  0  0  0  0  0  0  0  0
   57.7510   33.0720   44.8890 C   0  0  0  0  0  0  0  0  0  0  0  0
   58.5040   32.2540   45.7140 C   0  0  0  0  0  0  0  0  0  0  0  0
   58.1390   30.8190   45.6540 C   0  0  0  0  0  0  0  0  0  0  0  0
   57.0140   30.4480   45.2580 O   0  0  0  0  0  0  0  0  0  0  0  0
   59.1390   29.9020   46.0720 N   0  0  0  0  0  0  0  0  0  0  0  0
   59.0040   28.4990   46.1150 C   0  0  0  0  0  0  0  0  0  0  0  0
   58.6390   27.8760   44.9160 C   0  0  0  0  0  0  0  0  0  0  0  0
   58.5070   26.5130   44.8170 C   0  0  0  0  0  0  0  0  0  0  0  0
   58.7350   25.6820   45.9200 C   0  0  0  0  0  0  0  0  0  0  0  0
   58.5530   23.9840   45.6810 S   0  0  0  0  0  0  0  0  0  0  0  0
   59.9130   23.3340   45.6210 O   0  0  0  0  0  0  0  0  0  0  0  0
   57.7750   23.4130   46.8210 O   0  0  0  0  0  0  0  0  0  0  0  0
   57.6690   23.6340   44.2240 N   0  0  0  0  0  0  0  0  0  0  0  0
   56.2670   24.0470   44.4230 C   0  0  0  0  0  0  0  0  0  0  0  0
   57.5960   22.1790   44.0680 C   0  0  0  0  0  0  0  0  0  0  0  0
   59.0920   26.2930   47.0980 C   0  0  0  0  0  0  0  0  0  0  0  0
   59.2200   27.6870   47.1760 C   0  0  0  0  0  0  0  0  0  0  0  0
   60.4075   33.3932   50.7736 H   0  0  0  0  0  0  0  0  0  0  0  0
   60.0127   34.4714   49.3921 H   0  0  0  0  0  0  0  0  0  0  0  0
   59.4451   32.7671   49.3921 H   0  0  0  0  0  0  0  0  0  0  0  0
   62.8764   33.9822   50.3601 H   0  0  0  0  0  0  0  0  0  0  0  0
   64.6470   31.9230   47.1690 H   0  0  0  0  0  0  0  0  0  0  0  0
   62.5290   31.3090   46.3730 H   0  0  0  0  0  0  0  0  0  0  0  0
   60.5192   34.5400   47.1066 H   0  0  0  0  0  0  0  0  0  0  0  0
   59.2063   36.0223   45.6538 H   0  0  0  0  0  0  0  0  0  0  0  0
   57.3860   35.0863   44.1950 H   0  0  0  0  0  0  0  0  0  0  0  0
   56.9618   32.6333   44.2607 H   0  0  0  0  0  0  0  0  0  0  0  0
   60.0550   30.3420   46.3750 H   0  0  0  0  0  0  0  0  0  0  0  0
   58.4525   28.4965   44.0271 H   0  0  0  0  0  0  0  0  0  0  0  0
   58.2171   26.0664   43.8544 H   0  0  0  0  0  0  0  0  0  0  0  0
   56.0527   24.1101   45.5001 H   0  0  0  0  0  0  0  0  0  0  0  0
   56.1052   25.0310   43.9587 H   0  0  0  0  0  0  0  0  0  0  0  0
   55.5976   23.3079   43.9587 H   0  0  0  0  0  0  0  0  0  0  0  0
   57.5722   21.7046   45.0602 H   0  0  0  0  0  0  0  0  0  0  0  0
   56.6835   21.9150   43.5134 H   0  0  0  0  0  0  0  0  0  0  0  0
   58.4775   21.8250   43.5134 H   0  0  0  0  0  0  0  0  0  0  0  0
   59.2799   25.6801   47.9919 H   0  0  0  0  0  0  0  0  0  0  0  0
   59.5072   28.1384   48.1371 H   0  0  0  0  0  0  0  0  0  0  0  0
  1  2  1  0
  2  3  2  0
  3  4  1  0
  4  5  2  0
  4  6  1  0
  6  7  1  0
  7  8  1  0
  8  9  2  0
  9 10  1  0
 10 11  2  0
 11 12  1  0
 12 13  2  0
 13 14  1  0
 14 15  2  0
 15 16  1  0
 16 17  2  0
 16 18  1  0
 18 19  1  0
 19 20  2  0
 20 21  1  0
 21 22  2  0
 22 23  1  0
 23 24  2  0
 23 25  2  0
 23 26  1  0
 26 27  1  0
 26 28  1  0
 22 29  1  0
 29 30  2  0
  8  2  1  0
 15 10  1  0
 30 19  1  0
  1 31  1  0
  1 32  1  0
  1 33  1  0
  3 34  1  0
  6 35  1  0
  7 36  1  0
 11 37  1  0
 12 38  1  0
 13 39  1  0
 14 40  1  0
 18 41  1  0
 20 42  1  0
 21 43  1  0
 27 44  1  0
 27 45  1  0
 27 46  1  0
 28 47  1  0
 28 48  1  0
 28 49  1  0
 29 50  1  0
 30 51  1  0
M  END
>  <smiles>  (49) 
Cc1cc(=O)[nH][nH]c1=Nc1ccccc1C(=O)Nc1ccc(S(=O)(=O)N(C)C)cc1

>  <score_type>  (49) 
oracle

>  <origin>  (49) 
adg

>  <m_score__min__energy>  (49) 
-9.2100000000000009

>  <m_primary>  (49) 
energy

$$$$
49:0
     RDKit          3D

 38 40  0  0  0  0  0  0  0  0999 V2000
   55.6460   27.0190   45.6820 N   0  0  0  0  0  0  0  0  0  0  0  0
   57.2560   27.6460   45.6650 S   0  0  0  0  0  0  0  0  0  0  0  0
   58.1790   26.6310   45.0510 O   0  0  0  0  0  0  0  0  0  0  0  0
   57.7060   27.9190   47.0730 O   0  0  0  0  0  0  0  0  0  0  0  0
   57.2940   29.1360   44.7280 C   0  0  0  0  0  0  0  0  0  0  0  0
   56.6160   29.2200   43.5040 C   0  0  0  0  0  0  0  0  0  0  0  0
   56.6490   30.4040   42.7650 C   0  0  0  0  0  0  0  0  0  0  0  0
   57.3450   31.5160   43.2470 C   0  0  0  0  0  0  0  0  0  0  0  0
   58.0040   31.4550   44.4880 C   0  0  0  0  0  0  0  0  0  0  0  0
   58.7430   32.5770   45.0010 N   0  0  0  0  0  0  0  0  0  0  0  0
   58.2430   33.9220   45.0370 C   0  0  0  0  0  0  0  0  0  0  0  0
   57.0290   34.1640   44.7930 O   0  0  0  0  0  0  0  0  0  0  0  0
   59.1410   35.0440   45.4610 C   0  0  0  0  0  0  0  0  0  0  0  0
   59.9970   34.6090   46.6190 C   0  0  0  0  0  0  0  0  0  0  0  0
   59.4740   34.6130   47.9230 C   0  0  0  0  0  0  0  0  0  0  0  0
   60.2510   34.1760   49.0010 C   0  0  0  0  0  0  0  0  0  0  0  0
   61.5560   33.7230   48.7850 C   0  0  0  0  0  0  0  0  0  0  0  0
   62.3120   33.2950   49.8320 N   0  0  0  0  0  0  0  0  0  0  0  0
   63.5840   32.8430   49.6590 C   0  0  0  0  0  0  0  0  0  0  0  0
   64.2510   32.4570   50.6530 O   0  0  0  0  0  0  0  0  0  0  0  0
   64.1470   32.8080   48.3790 C   0  0  0  0  0  0  0  0  0  0  0  0
   63.3960   33.2390   47.2840 C   0  0  0  0  0  0  0  0  0  0  0  0
   62.0870   33.7040   47.4760 C   0  0  0  0  0  0  0  0  0  0  0  0
   61.3050   34.1440   46.3990 C   0  0  0  0  0  0  0  0  0  0  0  0
   57.9880   30.2540   45.2140 C   0  0  0  0  0  0  0  0  0  0  0  0
   55.1410   27.4490   44.8750 H   0  0  0  0  0  0  0  0  0  0  0  0
   56.0571   28.3516   43.1252 H   0  0  0  0  0  0  0  0  0  0  0  0
   56.1251   30.4619   41.7995 H   0  0  0  0  0  0  0  0  0  0  0  0
   57.3775   32.4418   42.6539 H   0  0  0  0  0  0  0  0  0  0  0  0
   59.6620   32.3870   45.4620 H   0  0  0  0  0  0  0  0  0  0  0  0
   59.7870   35.3317   44.6184 H   0  0  0  0  0  0  0  0  0  0  0  0
   58.5255   35.9019   45.7694 H   0  0  0  0  0  0  0  0  0  0  0  0
   58.4457   34.9624   48.0976 H   0  0  0  0  0  0  0  0  0  0  0  0
   59.8351   34.1888   50.0192 H   0  0  0  0  0  0  0  0  0  0  0  0
   65.1749   32.4432   48.2362 H   0  0  0  0  0  0  0  0  0  0  0  0
   63.8298   33.2139   46.2735 H   0  0  0  0  0  0  0  0  0  0  0  0
   61.7162   34.1253   45.3789 H   0  0  0  0  0  0  0  0  0  0  0  0
   58.5242   30.1888   46.1722 H   0  0  0  0  0  0  0  0  0  0  0  0
  1  2  1  0
  2  3  2  0
  2  4  2  0
  2  5  1  0
  5  6  2  0
  6  7  1  0
  7  8  2  0
  8  9  1  0
  9 10  1  0
 10 11  1  0
 11 12  2  0
 11 13  1  0
 13 14  1  0
 14 15  2  0
 15 16  1  0
 16 17  2  0
 17 18  1  0
 18 19  1  0
 19 20  2  0
 19 21  1  0
 21 22  2  0
 22 23  1  0
 23 24  2  0
  9 25  2  0
 25  5  1  0
 24 14  1  0
 23 17  1  0
  1 26  1  0
  6 27  1  0
  7 28  1  0
  8 29  1  0
 10 30  1  0
 13 31  1  0
 13 32  1  0
 15 33  1  0
 16 34  1  0
 21 35  1  0
 22 36  1  0
 24 37  1  0
 25 38  1  0
M  CHG  2   1  -1  18  -1
M  END
>  <UniqueID>  (50) 
46

>  <SMILES>  (50) 
[NH-]S(=O)(=O)c1cccc(NC(=O)Cc2ccc3[n-]c(=O)ccc3c2)c1

>  <Energy>  (50) 
44.8056798492731

>  <Genealogy>  (50) 
[NH-]S(=O)(=O)c1cccc(NC(=O)Cc2ccc3[n-]c(=O)ccc3c2)c1 (protonated)
[NH-]S(=O)(=O)c1cccc(NC(=O)Cc2ccc3[n-]c(=O)ccc3c2)c1 (3D coordinates assigned)
[NH-]S(=O)(=O)c1cccc(NC(=O)Cc2ccc3[n-]c(=O)ccc3c2)c1 (optimized conformer: 44.8056798492731 kcal/mol)

>  <smiles>  (50) 
NS(=O)(=O)c1cccc(NC(=O)Cc2ccc3[nH]c(=O)ccc3c2)c1

>  <score_type>  (50) 
oracle

>  <origin>  (50) 
adg

>  <m_score__min__energy>  (50) 
-12.41

>  <m_primary>  (50) 
energy

$$$$
50:0
     RDKit          3D

 45 47  0  0  0  0  0  0  0  0999 V2000
   55.1440   28.9790   44.4930 N   0  0  0  0  0  0  0  0  0  0  0  0
   56.4360   30.0800   44.1730 S   0  0  0  0  0  0  0  0  0  0  0  0
   56.0310   31.4650   44.5950 O   0  0  0  0  0  0  0  0  0  0  0  0
   56.7350   30.0930   42.7000 O   0  0  0  0  0  0  0  0  0  0  0  0
   57.8650   29.5730   45.0650 C   0  0  0  0  0  0  0  0  0  0  0  0
   58.8040   28.7190   44.4710 C   0  0  0  0  0  0  0  0  0  0  0  0
   59.9340   28.3170   45.1850 C   0  0  0  0  0  0  0  0  0  0  0  0
   60.1500   28.7860   46.4820 C   0  0  0  0  0  0  0  0  0  0  0  0
   59.2320   29.6660   47.0780 C   0  0  0  0  0  0  0  0  0  0  0  0
   59.4770   30.1570   48.4480 C   0  0  0  0  0  0  0  0  0  0  0  0
   58.5530   30.7680   49.0460 O   0  0  0  0  0  0  0  0  0  0  0  0
   60.7140   29.9370   49.1430 N   0  0  0  0  0  0  0  0  0  0  0  0
   61.7290   30.9380   49.4770 C   0  0  0  0  0  0  0  0  0  0  0  0
   62.6560   31.2410   48.2930 C   0  0  0  0  0  0  0  0  0  0  0  0
   63.4510   32.5400   48.4930 C   0  0  0  0  0  0  0  0  0  0  0  0
   62.5590   33.6950   48.9640 C   0  0  0  0  0  0  0  0  0  0  0  0
   61.4040   33.8670   48.0840 N   0  0  0  0  0  0  0  0  0  0  0  0
   60.0220   33.8170   48.4520 C   0  0  0  0  0  0  0  0  0  0  0  0
   59.6040   33.7690   49.6390 O   0  0  0  0  0  0  0  0  0  0  0  0
   59.1900   33.8090   47.2540 C   0  0  0  0  0  0  0  0  0  0  0  0
   57.8040   33.7770   47.1100 C   0  0  0  0  0  0  0  0  0  0  0  0
   57.2770   33.7820   45.8060 C   0  0  0  0  0  0  0  0  0  0  0  0
   58.1360   33.8150   44.6870 C   0  0  0  0  0  0  0  0  0  0  0  0
   59.5320   33.8390   44.8590 C   0  0  0  0  0  0  0  0  0  0  0  0
   60.0300   33.8380   46.1600 C   0  0  0  0  0  0  0  0  0  0  0  0
   61.4020   33.8590   46.6550 C   0  0  0  0  0  0  0  0  0  0  0  0
   62.4410   33.8580   45.9430 O   0  0  0  0  0  0  0  0  0  0  0  0
   58.0770   30.0370   46.3710 C   0  0  0  0  0  0  0  0  0  0  0  0
   54.6200   29.3530   45.3160 H   0  0  0  0  0  0  0  0  0  0  0  0
   58.6504   28.3651   43.4409 H   0  0  0  0  0  0  0  0  0  0  0  0
   60.6570   27.6280   44.7240 H   0  0  0  0  0  0  0  0  0  0  0  0
   61.0425   28.4651   47.0392 H   0  0  0  0  0  0  0  0  0  0  0  0
   61.2240   31.8676   49.7784 H   0  0  0  0  0  0  0  0  0  0  0  0
   62.3454   30.5342   50.2937 H   0  0  0  0  0  0  0  0  0  0  0  0
   63.3640   30.4074   48.1757 H   0  0  0  0  0  0  0  0  0  0  0  0
   62.0291   31.3645   47.3976 H   0  0  0  0  0  0  0  0  0  0  0  0
   64.2326   32.3651   49.2470 H   0  0  0  0  0  0  0  0  0  0  0  0
   63.8879   32.8226   47.5238 H   0  0  0  0  0  0  0  0  0  0  0  0
   62.2044   33.4813   49.9831 H   0  0  0  0  0  0  0  0  0  0  0  0
   63.1515   34.6216   48.9445 H   0  0  0  0  0  0  0  0  0  0  0  0
   57.1430   33.7487   47.9888 H   0  0  0  0  0  0  0  0  0  0  0  0
   56.1873   33.7600   45.6574 H   0  0  0  0  0  0  0  0  0  0  0  0
   57.7108   33.8220   43.6725 H   0  0  0  0  0  0  0  0  0  0  0  0
   60.2096   33.8580   43.9927 H   0  0  0  0  0  0  0  0  0  0  0  0
   57.3340   30.6956   46.8446 H   0  0  0  0  0  0  0  0  0  0  0  0
  1  2  1  0
  2  3  2  0
  2  4  2  0
  2  5  1  0
  5  6  2  0
  6  7  1  0
  7  8  2  0
  8  9  1  0
  9 10  1  0
 10 11  2  0
 10 12  1  0
 12 13  1  0
 13 14  1  0
 14 15  1  0
 15 16  1  0
 16 17  1  0
 17 18  1  0
 18 19  2  0
 18 20  1  0
 20 21  2  0
 21 22  1  0
 22 23  2  0
 23 24  1  0
 24 25  2  0
 25 26  1  0
 26 27  2  0
  9 28  2  0
 28  5  1  0
 26 17  1  0
 25 20  1  0
  1 29  1  0
  6 30  1  0
  7 31  1  0
  8 32  1  0
 13 33  1  0
 13 34  1  0
 14 35  1  0
 14 36  1  0
 15 37  1  0
 15 38  1  0
 16 39  1  0
 16 40  1  0
 21 41  1  0
 22 42  1  0
 23 43  1  0
 24 44  1  0
 28 45  1  0
M  CHG  2   1  -1  12  -1
M  END
>  <UniqueID>  (51) 
47

>  <SMILES>  (51) 
[NH-]S(=O)(=O)c1cccc(C(=O)[N-]CCCCN2C(=O)c3ccccc3C2=O)c1

>  <Energy>  (51) 
71.98318869311737

>  <Genealogy>  (51) 
[NH-]S(=O)(=O)c1cccc(C(=O)[N-]CCCCN2C(=O)c3ccccc3C2=O)c1 (protonated)
[NH-]S(=O)(=O)c1cccc(C(=O)[N-]CCCCN2C(=O)c3ccccc3C2=O)c1 (3D coordinates assigned)
[NH-]S(=O)(=O)c1cccc(C(=O)[N-]CCCCN2C(=O)c3ccccc3C2=O)c1 (nonaromatic ring conformer: 71.98318869311737 kcal/mol)

>  <smiles>  (51) 
NS(=O)(=O)c1cccc(C(=O)NCCCCN2C(=O)c3ccccc3C2=O)c1

>  <score_type>  (51) 
oracle

>  <origin>  (51) 
adg

>  <m_score__min__energy>  (51) 
-13.369999999999999

>  <m_primary>  (51) 
energy

$$$$
51:0
     RDKit          3D

 50 52  0  0  0  0  0  0  0  0999 V2000
   63.7150   33.3330   46.7690 C   0  0  0  0  0  0  0  0  0  0  0  0
   62.7280   33.1340   47.6470 C   0  0  0  0  0  0  0  0  0  0  0  0
   61.6400   34.1520   47.8510 C   0  0  0  0  0  0  0  0  0  0  0  0
   60.3050   33.5080   47.8750 N   0  0  0  0  0  0  0  0  0  0  0  0
   59.4310   33.9540   46.7660 C   0  0  0  0  0  0  0  0  0  0  0  0
   58.6920   32.7890   46.1610 C   0  0  0  0  0  0  0  0  0  0  0  0
   58.0680   32.9090   44.9110 C   0  0  0  0  0  0  0  0  0  0  0  0
   57.4100   31.8150   44.3420 C   0  0  0  0  0  0  0  0  0  0  0  0
   57.3630   30.5800   45.0150 C   0  0  0  0  0  0  0  0  0  0  0  0
   56.6690   29.4190   44.4100 C   0  0  0  0  0  0  0  0  0  0  0  0
   56.6750   29.2660   43.1580 O   0  0  0  0  0  0  0  0  0  0  0  0
   56.0380   28.4440   45.2510 N   0  0  0  0  0  0  0  0  0  0  0  0
   56.5950   27.1910   45.6780 C   0  0  0  0  0  0  0  0  0  0  0  0
   57.9850   26.9660   45.7000 C   0  0  0  0  0  0  0  0  0  0  0  0
   58.4910   25.7250   46.0990 C   0  0  0  0  0  0  0  0  0  0  0  0
   57.6200   24.6950   46.4640 C   0  0  0  0  0  0  0  0  0  0  0  0
   58.1250   23.4640   46.8600 O   0  0  0  0  0  0  0  0  0  0  0  0
   56.2380   24.9040   46.4230 C   0  0  0  0  0  0  0  0  0  0  0  0
   55.7270   26.1440   46.0240 C   0  0  0  0  0  0  0  0  0  0  0  0
   54.3490   26.3350   45.9800 O   0  0  0  0  0  0  0  0  0  0  0  0
   57.9860   30.4670   46.2710 C   0  0  0  0  0  0  0  0  0  0  0  0
   58.6430   31.5630   46.8390 C   0  0  0  0  0  0  0  0  0  0  0  0
   59.6430   33.6550   49.1940 C   0  0  0  0  0  0  0  0  0  0  0  0
   59.4740   32.3440   49.9370 C   0  0  0  0  0  0  0  0  0  0  0  0
   60.5800   31.5050   50.1630 C   0  0  0  0  0  0  0  0  0  0  0  0
   60.4240   30.3030   50.8600 C   0  0  0  0  0  0  0  0  0  0  0  0
   59.1640   29.9240   51.3300 C   0  0  0  0  0  0  0  0  0  0  0  0
   58.0560   30.7440   51.1000 C   0  0  0  0  0  0  0  0  0  0  0  0
   56.8030   30.3630   51.5620 O   0  0  0  0  0  0  0  0  0  0  0  0
   58.2080   31.9470   50.4040 C   0  0  0  0  0  0  0  0  0  0  0  0
   64.4982   32.5714   46.6399 H   0  0  0  0  0  0  0  0  0  0  0  0
   63.7445   34.2584   46.1751 H   0  0  0  0  0  0  0  0  0  0  0  0
   62.7107   32.2041   48.2343 H   0  0  0  0  0  0  0  0  0  0  0  0
   61.8067   34.6694   48.8073 H   0  0  0  0  0  0  0  0  0  0  0  0
   61.6685   34.8665   47.0151 H   0  0  0  0  0  0  0  0  0  0  0  0
   58.7019   34.6813   47.1525 H   0  0  0  0  0  0  0  0  0  0  0  0
   60.0580   34.4142   45.9881 H   0  0  0  0  0  0  0  0  0  0  0  0
   58.0965   33.8693   44.3753 H   0  0  0  0  0  0  0  0  0  0  0  0
   56.9250   31.9202   43.3603 H   0  0  0  0  0  0  0  0  0  0  0  0
   58.6751   27.7692   45.4023 H   0  0  0  0  0  0  0  0  0  0  0  0
   59.5781   25.5590   46.1256 H   0  0  0  0  0  0  0  0  0  0  0  0
   55.5513   24.0922   46.7049 H   0  0  0  0  0  0  0  0  0  0  0  0
   57.9562   29.5090   46.8107 H   0  0  0  0  0  0  0  0  0  0  0  0
   59.1240   31.4626   47.8232 H   0  0  0  0  0  0  0  0  0  0  0  0
   60.2499   34.3308   49.8145 H   0  0  0  0  0  0  0  0  0  0  0  0
   58.6345   34.0523   49.0067 H   0  0  0  0  0  0  0  0  0  0  0  0
   61.5729   31.7960   49.7895 H   0  0  0  0  0  0  0  0  0  0  0  0
   61.2946   29.6548   51.0386 H   0  0  0  0  0  0  0  0  0  0  0  0
   59.0441   28.9797   51.8813 H   0  0  0  0  0  0  0  0  0  0  0  0
   57.3323   32.5869   50.2205 H   0  0  0  0  0  0  0  0  0  0  0  0
  1  2  2  0
  2  3  1  0
  3  4  1  0
  4  5  1  0
  5  6  1  0
  6  7  2  0
  7  8  1  0
  8  9  2  0
  9 10  1  0
 10 11  2  0
 10 12  1  0
 12 13  1  0
 13 14  2  0
 14 15  1  0
 15 16  2  0
 16 17  1  0
 16 18  1  0
 18 19  2  0
 19 20  1  0
  9 21  1  0
 21 22  2  0
  4 23  1  0
 23 24  1  0
 24 25  2  0
 25 26  1  0
 26 27  2  0
 27 28  1  0
 28 29  1  0
 28 30  2  0
 22  6  1  0
 30 24  1  0
 19 13  1  0
  1 31  1  0
  1 32  1  0
  2 33  1  0
  3 34  1  0
  3 35  1  0
  5 36  1  0
  5 37  1  0
  7 38  1  0
  8 39  1  0
 14 40  1  0
 15 41  1  0
 18 42  1  0
 21 43  1  0
 22 44  1  0
 23 45  1  0
 23 46  1  0
 25 47  1  0
 26 48  1  0
 27 49  1  0
 30 50  1  0
M  CHG  4  12  -1  17  -1  20  -1  29  -1
M  END
>  <UniqueID>  (52) 
48

>  <SMILES>  (52) 
C=CCN(Cc1ccc(C(=O)[N-]c2ccc([O-])cc2[O-])cc1)Cc1cccc([O-])c1

>  <Energy>  (52) 
57.5335560262473

>  <Genealogy>  (52) 
C=CCN(Cc1ccc(C(=O)[N-]c2ccc([O-])cc2[O-])cc1)Cc1cccc([O-])c1 (protonated)
C=CCN(Cc1ccc(C(=O)[N-]c2ccc([O-])cc2[O-])cc1)Cc1cccc([O-])c1 (3D coordinates assigned)
C=CCN(Cc1ccc(C(=O)[N-]c2ccc([O-])cc2[O-])cc1)Cc1cccc([O-])c1 (optimized conformer: 57.5335560262473 kcal/mol)

>  <smiles>  (52) 
C=CCN(Cc1ccc(C(=O)Nc2ccc(O)cc2O)cc1)Cc1cccc(O)c1

>  <score_type>  (52) 
oracle

>  <origin>  (52) 
adg

>  <m_score__min__energy>  (52) 
-19.02

>  <m_primary>  (52) 
energy

$$$$
52:0
     RDKit          3D

 31 32  0  0  0  0  0  0  0  0999 V2000
   56.8660   25.4410   46.1680 O   0  0  0  0  0  0  0  0  0  0  0  0
   56.0920   26.4190   45.9940 C   0  0  0  0  0  0  0  0  0  0  0  0
   54.7180   26.2120   46.0010 O   0  0  0  0  0  0  0  0  0  0  0  0
   56.6400   27.7670   45.7820 C   0  0  0  0  0  0  0  0  0  0  0  0
   55.9670   28.6110   45.1300 O   0  0  0  0  0  0  0  0  0  0  0  0
   57.9460   28.1060   46.2780 N   0  0  0  0  0  0  0  0  0  0  0  0
   58.4620   29.4480   46.3330 C   0  0  0  0  0  0  0  0  0  0  0  0
   59.6210   29.7090   47.0810 C   0  0  0  0  0  0  0  0  0  0  0  0
   60.1300   31.0070   47.1680 C   0  0  0  0  0  0  0  0  0  0  0  0
   59.4810   32.0650   46.5180 C   0  0  0  0  0  0  0  0  0  0  0  0
   60.0990   33.7110   46.6430 S   0  0  0  0  0  0  0  0  0  0  0  0
   59.0270   34.5670   47.2580 O   0  0  0  0  0  0  0  0  0  0  0  0
   60.4200   34.2450   45.2750 O   0  0  0  0  0  0  0  0  0  0  0  0
   61.5560   33.7540   47.6380 C   0  0  0  0  0  0  0  0  0  0  0  0
   62.8020   33.4320   47.0760 C   0  0  0  0  0  0  0  0  0  0  0  0
   63.9590   33.4720   47.8590 C   0  0  0  0  0  0  0  0  0  0  0  0
   63.8820   33.8390   49.2050 C   0  0  0  0  0  0  0  0  0  0  0  0
   62.6480   34.1720   49.7680 C   0  0  0  0  0  0  0  0  0  0  0  0
   61.4860   34.1350   48.9890 C   0  0  0  0  0  0  0  0  0  0  0  0
   60.3010   34.4770   49.5530 F   0  0  0  0  0  0  0  0  0  0  0  0
   58.3090   31.8150   45.7940 C   0  0  0  0  0  0  0  0  0  0  0  0
   57.7980   30.5160   45.7040 C   0  0  0  0  0  0  0  0  0  0  0  0
   58.5930   27.3260   46.5320 H   0  0  0  0  0  0  0  0  0  0  0  0
   60.1318   28.8859   47.6021 H   0  0  0  0  0  0  0  0  0  0  0  0
   61.0440   31.1992   47.7491 H   0  0  0  0  0  0  0  0  0  0  0  0
   62.8676   33.1472   46.0155 H   0  0  0  0  0  0  0  0  0  0  0  0
   64.9318   33.2142   47.4149 H   0  0  0  0  0  0  0  0  0  0  0  0
   64.7930   33.8656   49.8210 H   0  0  0  0  0  0  0  0  0  0  0  0
   62.5893   34.4642   50.8269 H   0  0  0  0  0  0  0  0  0  0  0  0
   57.7875   32.6442   45.2935 H   0  0  0  0  0  0  0  0  0  0  0  0
   56.8729   30.3292   45.1389 H   0  0  0  0  0  0  0  0  0  0  0  0
  1  2  2  0
  2  3  1  0
  2  4  1  0
  4  5  2  0
  4  6  1  0
  6  7  1  0
  7  8  2  0
  8  9  1  0
  9 10  2  0
 10 11  1  0
 11 12  2  0
 11 13  2  0
 11 14  1  0
 14 15  2  0
 15 16  1  0
 16 17  2  0
 17 18  1  0
 18 19  2  0
 19 20  1  0
 10 21  1  0
 21 22  2  0
 22  7  1  0
 19 14  1  0
  6 23  1  0
  8 24  1  0
  9 25  1  0
 15 26  1  0
 16 27  1  0
 17 28  1  0
 18 29  1  0
 21 30  1  0
 22 31  1  0
M  CHG  1   3  -1
M  END
>  <UniqueID>  (53) 
49

>  <SMILES>  (53) 
O=C([O-])C(=O)Nc1ccc(S(=O)(=O)c2ccccc2F)cc1

>  <Energy>  (53) 
37.10183431831038

>  <Genealogy>  (53) 
O=C([O-])C(=O)Nc1ccc(S(=O)(=O)c2ccccc2F)cc1 (protonated)
O=C([O-])C(=O)Nc1ccc(S(=O)(=O)c2ccccc2F)cc1 (3D coordinates assigned)
O=C([O-])C(=O)Nc1ccc(S(=O)(=O)c2ccccc2F)cc1 (optimized conformer: 37.10183431831038 kcal/mol)

>  <smiles>  (53) 
O=C(O)C(=O)Nc1ccc(S(=O)(=O)c2ccccc2F)cc1

>  <score_type>  (53) 
oracle

>  <origin>  (53) 
adg

>  <m_score__min__energy>  (53) 
-9.1899999999999995

>  <m_primary>  (53) 
energy

$$$$
53:0
     RDKit          3D

 45 47  0  0  0  0  0  0  0  0999 V2000
   56.2990   21.1240   48.0330 C   0  0  0  0  0  0  0  0  0  0  0  0
   57.1510   21.8480   47.1500 O   0  0  0  0  0  0  0  0  0  0  0  0
   56.8690   22.0980   45.7970 C   0  0  0  0  0  0  0  0  0  0  0  0
   57.3480   21.2600   44.7700 C   0  0  0  0  0  0  0  0  0  0  0  0
   57.0490   21.5360   43.4340 C   0  0  0  0  0  0  0  0  0  0  0  0
   56.2700   22.6450   43.1060 C   0  0  0  0  0  0  0  0  0  0  0  0
   55.7900   23.4850   44.1120 C   0  0  0  0  0  0  0  0  0  0  0  0
   56.0820   23.2200   45.4600 C   0  0  0  0  0  0  0  0  0  0  0  0
   55.5390   24.1280   46.5360 C   0  0  0  0  0  0  0  0  0  0  0  0
   55.9250   25.5200   46.2910 N   0  0  0  0  0  0  0  0  0  0  0  0
   57.6470   25.7300   46.4320 S   0  0  0  0  0  0  0  0  0  0  0  0
   58.0600   25.7560   47.8770 O   0  0  0  0  0  0  0  0  0  0  0  0
   58.3440   24.5980   45.7300 O   0  0  0  0  0  0  0  0  0  0  0  0
   58.1030   27.2550   45.6800 C   0  0  0  0  0  0  0  0  0  0  0  0
   59.4530   27.5890   45.5190 C   0  0  0  0  0  0  0  0  0  0  0  0
   59.8080   28.8050   44.9310 C   0  0  0  0  0  0  0  0  0  0  0  0
   58.8200   29.6960   44.5040 C   0  0  0  0  0  0  0  0  0  0  0  0
   57.4580   29.3810   44.6650 C   0  0  0  0  0  0  0  0  0  0  0  0
   56.4080   30.3270   44.2180 C   0  0  0  0  0  0  0  0  0  0  0  0
   55.5880   29.9710   43.3280 O   0  0  0  0  0  0  0  0  0  0  0  0
   56.2760   31.6060   44.8620 N   0  0  0  0  0  0  0  0  0  0  0  0
   57.1930   32.4910   45.1390 C   0  0  0  0  0  0  0  0  0  0  0  0
   58.0020   33.1000   44.1530 C   0  0  0  0  0  0  0  0  0  0  0  0
   58.9670   34.0340   44.5390 C   0  0  0  0  0  0  0  0  0  0  0  0
   59.1360   34.3490   45.8860 C   0  0  0  0  0  0  0  0  0  0  0  0
   58.3350   33.7170   46.8380 C   0  0  0  0  0  0  0  0  0  0  0  0
   57.3990   32.8130   46.4460 N   0  0  0  0  0  0  0  0  0  0  0  0
   57.1100   28.1520   45.2590 C   0  0  0  0  0  0  0  0  0  0  0  0
   56.5695   21.3539   49.0741 H   0  0  0  0  0  0  0  0  0  0  0  0
   55.2532   21.4140   47.8533 H   0  0  0  0  0  0  0  0  0  0  0  0
   56.4164   20.0451   47.8533 H   0  0  0  0  0  0  0  0  0  0  0  0
   57.9615   20.3826   45.0225 H   0  0  0  0  0  0  0  0  0  0  0  0
   57.4287   20.8773   42.6390 H   0  0  0  0  0  0  0  0  0  0  0  0
   56.0335   22.8581   42.0531 H   0  0  0  0  0  0  0  0  0  0  0  0
   55.1789   24.3605   43.8473 H   0  0  0  0  0  0  0  0  0  0  0  0
   54.4415   24.0556   46.5480 H   0  0  0  0  0  0  0  0  0  0  0  0
   55.9560   23.8134   47.5041 H   0  0  0  0  0  0  0  0  0  0  0  0
   60.2351   26.8928   45.8561 H   0  0  0  0  0  0  0  0  0  0  0  0
   60.8698   29.0624   44.8035 H   0  0  0  0  0  0  0  0  0  0  0  0
   59.1088   30.6501   44.0389 H   0  0  0  0  0  0  0  0  0  0  0  0
   57.8732   32.8411   43.0917 H   0  0  0  0  0  0  0  0  0  0  0  0
   59.5944   34.5215   43.7783 H   0  0  0  0  0  0  0  0  0  0  0  0
   59.8913   35.0866   46.1949 H   0  0  0  0  0  0  0  0  0  0  0  0
   58.4612   33.9505   47.9055 H   0  0  0  0  0  0  0  0  0  0  0  0
   56.0494   27.8932   45.3940 H   0  0  0  0  0  0  0  0  0  0  0  0
  1  2  1  0
  2  3  1  0
  3  4  2  0
  4  5  1  0
  5  6  2  0
  6  7  1  0
  7  8  2  0
  8  9  1  0
  9 10  1  0
 10 11  1  0
 11 12  2  0
 11 13  2  0
 11 14  1  0
 14 15  2  0
 15 16  1  0
 16 17  2  0
 17 18  1  0
 18 19  1  0
 19 20  2  0
 19 21  1  0
 21 22  2  3
 22 23  1  0
 23 24  2  0
 24 25  1  0
 25 26  2  0
 26 27  1  0
 18 28  2  0
  8  3  1  0
 28 14  1  0
 27 22  1  0
  1 29  1  0
  1 30  1  0
  1 31  1  0
  4 32  1  0
  5 33  1  0
  6 34  1  0
  7 35  1  0
  9 36  1  0
  9 37  1  0
 15 38  1  0
 16 39  1  0
 17 40  1  0
 23 41  1  0
 24 42  1  0
 25 43  1  0
 26 44  1  0
 28 45  1  0
M  CHG  2  10  -1  27  -1
M  END
>  <UniqueID>  (54) 
50

>  <SMILES>  (54) 
COc1ccccc1C[N-]S(=O)(=O)c1cccc(C(=O)N=c2cccc[n-]2)c1

>  <Energy>  (54) 
56.11401283622181

>  <Genealogy>  (54) 
COc1ccccc1C[N-]S(=O)(=O)c1cccc(C(=O)N=c2cccc[n-]2)c1 (protonated)
COc1ccccc1C[N-]S(=O)(=O)c1cccc(C(=O)N=c2cccc[n-]2)c1 (3D coordinates assigned)
COc1ccccc1C[N-]S(=O)(=O)c1cccc(C(=O)N=c2cccc[n-]2)c1 (optimized conformer: 56.11401283622181 kcal/mol)

>  <smiles>  (54) 
COc1ccccc1CNS(=O)(=O)c1cccc(C(=O)N=c2cccc[nH]2)c1

>  <score_type>  (54) 
oracle

>  <origin>  (54) 
adg

>  <m_score__min__energy>  (54) 
-12.300000000000001

>  <m_primary>  (54) 
energy

$$$$
54:0
     RDKit          3D

 45 47  0  0  0  0  0  0  0  0999 V2000
   57.0050   31.1970   42.2330 C   0  0  0  0  0  0  0  0  0  0  0  0
   57.5130   31.6730   43.5690 C   0  0  0  0  0  0  0  0  0  0  0  0
   58.1770   32.9100   43.6370 C   0  0  0  0  0  0  0  0  0  0  0  0
   58.6300   33.4070   44.8600 C   0  0  0  0  0  0  0  0  0  0  0  0
   58.4310   32.6760   46.0310 C   0  0  0  0  0  0  0  0  0  0  0  0
   57.7870   31.4390   45.9810 C   0  0  0  0  0  0  0  0  0  0  0  0
   57.3430   30.9110   44.7560 C   0  0  0  0  0  0  0  0  0  0  0  0
   56.6910   29.5810   44.7620 C   0  0  0  0  0  0  0  0  0  0  0  0
   55.4390   29.5170   44.8880 O   0  0  0  0  0  0  0  0  0  0  0  0
   57.4300   28.3640   44.5870 N   0  0  0  0  0  0  0  0  0  0  0  0
   58.5180   27.8840   45.3920 C   0  0  0  0  0  0  0  0  0  0  0  0
   59.3890   28.7640   46.0580 C   0  0  0  0  0  0  0  0  0  0  0  0
   60.4130   28.2660   46.8670 C   0  0  0  0  0  0  0  0  0  0  0  0
   60.5700   26.8910   47.0270 C   0  0  0  0  0  0  0  0  0  0  0  0
   59.7000   26.0080   46.3850 C   0  0  0  0  0  0  0  0  0  0  0  0
   58.6610   26.4980   45.5710 C   0  0  0  0  0  0  0  0  0  0  0  0
   57.7510   25.6490   44.9260 O   0  0  0  0  0  0  0  0  0  0  0  0
   56.8830   24.3810   45.6800 S   0  0  0  0  0  0  0  0  0  0  0  0
   55.4720   24.8190   45.9500 O   0  0  0  0  0  0  0  0  0  0  0  0
   57.5660   24.0210   46.9700 O   0  0  0  0  0  0  0  0  0  0  0  0
   56.8570   22.9780   44.6180 C   0  0  0  0  0  0  0  0  0  0  0  0
   57.8200   21.9970   44.4790 C   0  0  0  0  0  0  0  0  0  0  0  0
   59.1090   21.8830   45.2260 C   0  0  0  0  0  0  0  0  0  0  0  0
   57.4310   21.1510   43.5100 N   0  0  0  0  0  0  0  0  0  0  0  0
   56.2910   21.5680   43.0410 O   0  0  0  0  0  0  0  0  0  0  0  0
   55.9060   22.6570   43.6650 C   0  0  0  0  0  0  0  0  0  0  0  0
   54.6430   23.3960   43.3710 C   0  0  0  0  0  0  0  0  0  0  0  0
   56.2102   30.4523   42.3871 H   0  0  0  0  0  0  0  0  0  0  0  0
   56.6028   32.0510   41.6682 H   0  0  0  0  0  0  0  0  0  0  0  0
   57.8310   30.7402   41.6682 H   0  0  0  0  0  0  0  0  0  0  0  0
   58.3411   33.4917   42.7179 H   0  0  0  0  0  0  0  0  0  0  0  0
   59.1454   34.3779   44.9004 H   0  0  0  0  0  0  0  0  0  0  0  0
   58.7818   33.0747   46.9943 H   0  0  0  0  0  0  0  0  0  0  0  0
   57.6252   30.8714   46.9093 H   0  0  0  0  0  0  0  0  0  0  0  0
   59.2634   29.8506   45.9414 H   0  0  0  0  0  0  0  0  0  0  0  0
   61.0961   28.9602   47.3783 H   0  0  0  0  0  0  0  0  0  0  0  0
   61.3805   26.5006   47.6600 H   0  0  0  0  0  0  0  0  0  0  0  0
   59.8270   24.9232   46.5158 H   0  0  0  0  0  0  0  0  0  0  0  0
   58.9088   21.9007   46.3075 H   0  0  0  0  0  0  0  0  0  0  0  0
   59.6044   20.9375   44.9602 H   0  0  0  0  0  0  0  0  0  0  0  0
   59.7627   22.7268   44.9602 H   0  0  0  0  0  0  0  0  0  0  0  0
   57.9470   20.3130   43.1620 H   0  0  0  0  0  0  0  0  0  0  0  0
   54.1564   23.6807   44.3155 H   0  0  0  0  0  0  0  0  0  0  0  0
   54.8745   24.3012   42.7904 H   0  0  0  0  0  0  0  0  0  0  0  0
   53.9673   22.7508   42.7904 H   0  0  0  0  0  0  0  0  0  0  0  0
  1  2  1  0
  2  3  2  0
  3  4  1  0
  4  5  2  0
  5  6  1  0
  6  7  2  0
  7  8  1  0
  8  9  2  0
  8 10  1  0
 10 11  1  0
 11 12  2  0
 12 13  1  0
 13 14  2  0
 14 15  1  0
 15 16  2  0
 16 17  1  0
 17 18  1  0
 18 19  2  0
 18 20  2  0
 18 21  1  0
 21 22  1  0
 22 23  1  0
 22 24  2  0
 24 25  1  0
 25 26  1  0
 26 27  1  0
  7  2  1  0
 16 11  1  0
 26 21  2  0
  1 28  1  0
  1 29  1  0
  1 30  1  0
  3 31  1  0
  4 32  1  0
  5 33  1  0
  6 34  1  0
 12 35  1  0
 13 36  1  0
 14 37  1  0
 15 38  1  0
 23 39  1  0
 23 40  1  0
 23 41  1  0
 24 42  1  0
 27 43  1  0
 27 44  1  0
 27 45  1  0
M  CHG  2  10  -1  24   1
M  END
>  <UniqueID>  (55) 
51

>  <SMILES>  (55) 
Cc1ccccc1C(=O)[N-]c1ccccc1OS(=O)(=O)c1c(C)[nH+]oc1C

>  <Energy>  (55) 
86.48099200473129

>  <Genealogy>  (55) 
Cc1ccccc1C(=O)[N-]c1ccccc1OS(=O)(=O)c1c(C)[nH+]oc1C (protonated)
Cc1ccccc1C(=O)[N-]c1ccccc1OS(=O)(=O)c1c(C)[nH+]oc1C (3D coordinates assigned)
Cc1ccccc1C(=O)[N-]c1ccccc1OS(=O)(=O)c1c(C)[nH+]oc1C (optimized conformer: 86.48099200473129 kcal/mol)

>  <smiles>  (55) 
Cc1ccccc1C(=O)Nc1ccccc1OS(=O)(=O)c1c(C)noc1C

>  <score_type>  (55) 
oracle

>  <origin>  (55) 
adg

>  <m_score__min__energy>  (55) 
-9.9000000000000004

>  <m_primary>  (55) 
energy

$$$$
55:0
     RDKit          3D

 36 38  0  0  1  0  0  0  0  0999 V2000
   59.3970   27.2990   46.6950 O   0  0  0  0  0  0  0  0  0  0  0  0
   58.2950   27.9130   46.5470 C   0  0  0  0  0  0  0  0  0  0  0  0
   57.1340   27.2180   46.1100 N   0  0  0  0  0  0  0  0  0  0  0  0
   57.1000   25.9590   45.8820 C   0  0  0  0  0  0  0  0  0  0  0  0
   58.2290   25.2500   45.8500 N   0  0  0  0  0  0  0  0  0  0  0  0
   58.1300   23.9310   45.6050 C   0  0  0  0  0  0  0  0  0  0  0  0
   56.9310   23.2850   45.3880 C   0  0  0  0  0  0  0  0  0  0  0  0
   55.7380   24.0170   45.4170 C   0  0  0  0  0  0  0  0  0  0  0  0
   55.8490   25.3710   45.6700 C   0  0  0  0  0  0  0  0  0  0  0  0
   54.6980   26.1530   45.7130 O   0  0  0  0  0  0  0  0  0  0  0  0
   58.2110   29.3210   46.8210 N   0  0  0  0  0  0  0  0  0  0  0  0
   59.3560   30.0600   47.2630 C   0  0  0  0  0  0  0  0  0  0  0  0
   59.7950   31.1840   46.5990 C   0  0  0  0  0  0  0  0  0  0  0  0
   60.8940   31.8960   47.0220 C   0  0  0  0  0  0  0  0  0  0  0  0
   61.5740   31.4690   48.1420 C   0  0  0  0  0  0  0  0  0  0  0  0
   62.7540   32.1630   48.6670 C   0  0  0  0  0  0  0  0  0  0  0  0
   62.7910   32.8860   49.8410 C   0  0  0  0  0  0  0  0  0  0  0  0
   64.0940   33.3530   49.9290 C   0  0  0  0  0  0  0  0  0  0  0  0
   64.6030   34.0680   50.8420 O   0  0  0  0  0  0  0  0  0  0  0  0
   64.7840   32.9180   48.8520 N   0  0  0  0  0  0  0  0  0  0  0  0
   63.9870   32.2090   48.0990 N   0  0  0  0  0  0  0  0  0  0  0  0
   61.1190   30.3340   48.8000 C   0  0  0  0  0  0  0  0  0  0  0  0
   60.0170   29.6200   48.3760 C   0  0  0  0  0  0  0  0  0  0  0  0
   59.1230   25.7300   46.0120 H   0  0  0  0  0  0  0  0  0  0  0  0
   59.0547   23.3359   45.5762 H   0  0  0  0  0  0  0  0  0  0  0  0
   56.9122   22.2025   45.1936 H   0  0  0  0  0  0  0  0  0  0  0  0
   54.7621   23.5388   45.2471 H   0  0  0  0  0  0  0  0  0  0  0  0
   54.7700   27.1200   45.9830 H   0  0  0  0  0  0  0  0  0  0  0  0
   57.3260   29.8620   46.7120 H   0  0  0  0  0  0  0  0  0  0  0  0
   59.2513   31.5224   45.7046 H   0  0  0  0  0  0  0  0  0  0  0  0
   61.2243   32.7914   46.4750 H   0  0  0  0  0  0  0  0  0  0  0  0
   61.9682   33.0550   50.5512 H   0  0  0  0  0  0  0  0  0  0  0  0
   65.7900   33.0990   48.6230 H   0  0  0  0  0  0  0  0  0  0  0  0
   64.2430   31.7450   47.2010 H   0  0  0  0  0  0  0  0  0  0  0  0
   61.6586   29.9904   49.6949 H   0  0  0  0  0  0  0  0  0  0  0  0
   59.6803   28.7235   48.9173 H   0  0  0  0  0  0  0  0  0  0  0  0
  1  2  2  0
  2  3  1  0
  3  4  2  0
  4  5  1  0
  5  6  1  0
  6  7  2  0
  7  8  1  0
  8  9  2  0
  9 10  1  0
  2 11  1  0
 11 12  1  0
 12 13  2  0
 13 14  1  0
 14 15  2  0
 15 16  1  0
 16 17  2  0
 17 18  1  0
 18 19  2  0
 18 20  1  0
 20 21  1  0
 15 22  1  0
 22 23  2  0
  9  4  1  0
 23 12  1  0
 21 16  1  0
  5 24  1  0
  6 25  1  0
  7 26  1  0
  8 27  1  0
 10 28  1  0
 11 29  1  0
 13 30  1  0
 14 31  1  0
 17 32  1  0
 20 33  1  0
 21 34  1  0
 22 35  1  0
 23 36  1  0
M  END
>  <smiles>  (56) 
O=C(N=c1[nH]cccc1O)Nc1ccc(-c2cc(=O)[nH][nH]2)cc1

>  <score_type>  (56) 
oracle

>  <origin>  (56) 
adg

>  <m_score__min__energy>  (56) 
-7.54

>  <m_primary>  (56) 
energy

$$$$
56:0
     RDKit          3D

 50 53  0  0  0  0  0  0  0  0999 V2000
   57.7670   21.1680   44.0090 N   0  0  0  0  0  0  0  0  0  0  0  0
   57.0250   22.3900   43.9900 C   0  0  0  0  0  0  0  0  0  0  0  0
   55.9450   22.4400   43.3410 O   0  0  0  0  0  0  0  0  0  0  0  0
   57.5100   23.5820   44.7180 C   0  0  0  0  0  0  0  0  0  0  0  0
   56.7230   24.7420   44.8150 C   0  0  0  0  0  0  0  0  0  0  0  0
   57.2120   25.8590   45.4980 C   0  0  0  0  0  0  0  0  0  0  0  0
   56.4000   27.0000   45.5970 O   0  0  0  0  0  0  0  0  0  0  0  0
   56.7860   28.3050   45.2580 C   0  0  0  0  0  0  0  0  0  0  0  0
   58.0320   28.7710   45.6910 C   0  0  0  0  0  0  0  0  0  0  0  0
   58.4480   30.0700   45.3860 C   0  0  0  0  0  0  0  0  0  0  0  0
   57.6100   30.9290   44.6530 C   0  0  0  0  0  0  0  0  0  0  0  0
   57.9920   32.2720   44.3230 N   0  0  0  0  0  0  0  0  0  0  0  0
   57.7510   33.6570   45.3390 S   0  0  0  0  0  0  0  0  0  0  0  0
   56.3520   33.6270   45.8860 O   0  0  0  0  0  0  0  0  0  0  0  0
   57.9290   34.9040   44.5190 O   0  0  0  0  0  0  0  0  0  0  0  0
   58.8880   33.6220   46.6830 C   0  0  0  0  0  0  0  0  0  0  0  0
   59.8750   34.6110   46.7860 C   0  0  0  0  0  0  0  0  0  0  0  0
   60.7790   34.5940   47.8530 C   0  0  0  0  0  0  0  0  0  0  0  0
   60.7120   33.5800   48.8220 C   0  0  0  0  0  0  0  0  0  0  0  0
   61.6580   33.5540   49.9570 C   0  0  0  0  0  0  0  0  0  0  0  0
   61.2570   33.1440   51.0780 O   0  0  0  0  0  0  0  0  0  0  0  0
   63.0300   33.9410   49.8140 N   0  0  0  0  0  0  0  0  0  0  0  0
   64.0070   33.2300   48.9950 C   0  0  0  0  0  0  0  0  0  0  0  0
   63.7680   33.3600   47.5020 C   0  0  0  0  0  0  0  0  0  0  0  0
   63.3930   32.0760   48.2270 C   0  0  0  0  0  0  0  0  0  0  0  0
   59.7100   32.6020   48.7250 C   0  0  0  0  0  0  0  0  0  0  0  0
   58.8080   32.6180   47.6570 C   0  0  0  0  0  0  0  0  0  0  0  0
   56.3570   30.4670   44.2340 C   0  0  0  0  0  0  0  0  0  0  0  0
   55.9420   29.1670   44.5380 C   0  0  0  0  0  0  0  0  0  0  0  0
   58.4770   25.7930   46.1050 C   0  0  0  0  0  0  0  0  0  0  0  0
   59.2310   24.6260   45.9890 C   0  0  0  0  0  0  0  0  0  0  0  0
   58.7380   23.5600   45.3060 N   0  0  0  0  0  0  0  0  0  0  0  0
   58.6590   21.0800   44.5450 H   0  0  0  0  0  0  0  0  0  0  0  0
   57.4150   20.3340   43.4880 H   0  0  0  0  0  0  0  0  0  0  0  0
   55.7245   24.7709   44.3545 H   0  0  0  0  0  0  0  0  0  0  0  0
   58.6890   28.1103   46.2757 H   0  0  0  0  0  0  0  0  0  0  0  0
   59.4350   30.4218   45.7207 H   0  0  0  0  0  0  0  0  0  0  0  0
   59.9391   35.4031   46.0255 H   0  0  0  0  0  0  0  0  0  0  0  0
   61.5459   35.3785   47.9335 H   0  0  0  0  0  0  0  0  0  0  0  0
   64.8787   33.3633   49.6526 H   0  0  0  0  0  0  0  0  0  0  0  0
   62.9807   34.0304   47.1269 H   0  0  0  0  0  0  0  0  0  0  0  0
   64.3935   33.6088   46.6320 H   0  0  0  0  0  0  0  0  0  0  0  0
   62.3343   31.8174   48.3760 H   0  0  0  0  0  0  0  0  0  0  0  0
   63.6349   31.0107   48.0983 H   0  0  0  0  0  0  0  0  0  0  0  0
   59.6340   31.8186   49.4935 H   0  0  0  0  0  0  0  0  0  0  0  0
   58.0336   31.8405   47.5812 H   0  0  0  0  0  0  0  0  0  0  0  0
   55.6937   31.1318   43.6612 H   0  0  0  0  0  0  0  0  0  0  0  0
   54.9511   28.8178   44.2123 H   0  0  0  0  0  0  0  0  0  0  0  0
   58.8690   26.6538   46.6665 H   0  0  0  0  0  0  0  0  0  0  0  0
   60.2274   24.5682   46.4515 H   0  0  0  0  0  0  0  0  0  0  0  0
  1  2  1  0
  2  3  2  0
  2  4  1  0
  4  5  2  0
  5  6  1  0
  6  7  1  0
  7  8  1  0
  8  9  2  0
  9 10  1  0
 10 11  2  0
 11 12  1  0
 12 13  1  0
 13 14  2  0
 13 15  2  0
 13 16  1  0
 16 17  2  0
 17 18  1  0
 18 19  2  0
 19 20  1  0
 20 21  2  0
 20 22  1  0
 22 23  1  0
 23 24  1  0
 24 25  1  0
 19 26  1  0
 26 27  2  0
 11 28  1  0
 28 29  2  0
  6 30  2  0
 30 31  1  0
 31 32  2  0
 32  4  1  0
 29  8  1  0
 27 16  1  0
 25 23  1  0
  1 33  1  0
  1 34  1  0
  5 35  1  0
  9 36  1  0
 10 37  1  0
 17 38  1  0
 18 39  1  0
 23 40  1  0
 24 41  1  0
 24 42  1  0
 25 43  1  0
 25 44  1  0
 26 45  1  0
 27 46  1  0
 28 47  1  0
 29 48  1  0
 30 49  1  0
 31 50  1  0
M  CHG  2  12  -1  22  -1
M  END
>  <UniqueID>  (57) 
52

>  <SMILES>  (57) 
NC(=O)c1cc(Oc2ccc([N-]S(=O)(=O)c3ccc(C(=O)[N-]C4CC4)cc3)cc2)ccn1

>  <Energy>  (57) 
330.8309773325926

>  <Genealogy>  (57) 
NC(=O)c1cc(Oc2ccc([N-]S(=O)(=O)c3ccc(C(=O)[N-]C4CC4)cc3)cc2)ccn1 (protonated)
NC(=O)c1cc(Oc2ccc([N-]S(=O)(=O)c3ccc(C(=O)[N-]C4CC4)cc3)cc2)ccn1 (3D coordinates assigned)
NC(=O)c1cc(Oc2ccc([N-]S(=O)(=O)c3ccc(C(=O)[N-]C4CC4)cc3)cc2)ccn1 (nonaromatic ring conformer: 330.8309773325926 kcal/mol)

>  <smiles>  (57) 
NC(=O)c1cc(Oc2ccc(NS(=O)(=O)c3ccc(C(=O)NC4CC4)cc3)cc2)ccn1

>  <score_type>  (57) 
oracle

>  <origin>  (57) 
adg

>  <m_score__min__energy>  (57) 
-12.18

>  <m_primary>  (57) 
energy

$$$$
57:0
     RDKit          3D

 50 53  0  0  0  0  0  0  0  0999 V2000
   64.3170   31.8780   46.7070 H   0  0  0  0  0  0  0  0  0  0  0  0
   63.7550   31.5020   47.4360 O   0  0  0  0  0  0  0  0  0  0  0  0
   63.0480   32.5630   48.0360 C   0  0  1  0  0  0  0  0  0  0  0  0
   62.5400   33.5090   46.9530 C   0  0  0  0  0  0  0  0  0  0  0  0
   63.2980   33.8040   45.9900 O   0  0  0  0  0  0  0  0  0  0  0  0
   61.2540   34.1470   47.0160 N   0  0  0  0  0  0  0  0  0  0  0  0
   60.1140   33.6400   46.6550 C   0  0  0  0  0  0  0  0  0  0  0  0
   59.9730   32.4730   45.9870 N   0  0  0  0  0  0  0  0  0  0  0  0
   58.6690   32.2120   45.7110 C   0  0  0  0  0  0  0  0  0  0  0  0
   58.3489   31.3037   45.1794 H   0  0  0  0  0  0  0  0  0  0  0  0
   57.7680   33.1760   46.1490 C   0  0  0  0  0  0  0  0  0  0  0  0
   56.6760   33.1449   46.0206 H   0  0  0  0  0  0  0  0  0  0  0  0
   58.6390   34.3990   46.9100 S   0  0  0  0  0  0  0  0  0  0  0  0
   61.8510   31.9990   48.8190 C   0  0  0  0  0  0  0  0  0  0  0  0
   61.1500   30.7660   48.3540 C   0  0  0  0  0  0  0  0  0  0  0  0
   60.5110   29.9270   49.2690 C   0  0  0  0  0  0  0  0  0  0  0  0
   60.5096   30.1758   50.3405 H   0  0  0  0  0  0  0  0  0  0  0  0
   59.8940   28.8070   48.8300 N   0  0  0  0  0  0  0  0  0  0  0  0
   59.8610   28.4420   47.5220 C   0  0  0  0  0  0  0  0  0  0  0  0
   59.1980   27.3490   47.2450 N   0  0  0  0  0  0  0  0  0  0  0  0
   57.8310   27.0810   46.7940 C   0  0  0  0  0  0  0  0  0  0  0  0
   57.6995   25.9942   46.6863 H   0  0  0  0  0  0  0  0  0  0  0  0
   57.1395   27.4938   47.5433 H   0  0  0  0  0  0  0  0  0  0  0  0
   57.5310   27.7420   45.4690 C   0  0  0  0  0  0  0  0  0  0  0  0
   57.9810   27.1830   44.2580 C   0  0  0  0  0  0  0  0  0  0  0  0
   58.5301   26.2299   44.2654 H   0  0  0  0  0  0  0  0  0  0  0  0
   57.7330   27.8340   43.0460 C   0  0  0  0  0  0  0  0  0  0  0  0
   58.0707   27.3827   42.1014 H   0  0  0  0  0  0  0  0  0  0  0  0
   57.0570   29.0570   43.0320 C   0  0  0  0  0  0  0  0  0  0  0  0
   56.8581   29.5650   42.0768 H   0  0  0  0  0  0  0  0  0  0  0  0
   56.6340   29.6340   44.2320 C   0  0  0  0  0  0  0  0  0  0  0  0
   56.1071   30.5995   44.2211 H   0  0  0  0  0  0  0  0  0  0  0  0
   56.8790   28.9870   45.4460 C   0  0  0  0  0  0  0  0  0  0  0  0
   56.5598   29.4547   46.3891 H   0  0  0  0  0  0  0  0  0  0  0  0
   60.5380   29.2770   46.5790 C   0  0  0  0  0  0  0  0  0  0  0  0
   60.6820   28.9610   45.1130 C   0  0  0  0  0  0  0  0  0  0  0  0
   61.1355   27.9658   44.9953 H   0  0  0  0  0  0  0  0  0  0  0  0
   59.6905   28.9708   44.6367 H   0  0  0  0  0  0  0  0  0  0  0  0
   61.3251   29.7157   44.6367 H   0  0  0  0  0  0  0  0  0  0  0  0
   61.1500   30.4130   47.0380 N   0  0  0  0  0  0  0  0  0  0  0  0
   61.6310   31.0380   46.3540 H   0  0  0  0  0  0  0  0  0  0  0  0
   61.3850   32.6650   49.8950 C   0  0  0  0  0  0  0  0  0  0  0  0
   60.4869   32.2938   50.4104 H   0  0  0  0  0  0  0  0  0  0  0  0
   62.0530   33.8790   50.3950 C   0  0  0  0  0  0  0  0  0  0  0  0
   61.5565   34.4987   51.1562 H   0  0  0  0  0  0  0  0  0  0  0  0
   63.2530   34.2350   49.9350 C   0  0  0  0  0  0  0  0  0  0  0  0
   63.6971   35.1908   50.2499 H   0  0  0  0  0  0  0  0  0  0  0  0
   64.0030   33.3390   48.9890 C   0  0  0  0  0  0  0  0  0  0  0  0
   64.6852   33.9540   48.3837 H   0  0  0  0  0  0  0  0  0  0  0  0
   64.5563   32.6011   49.5884 H   0  0  0  0  0  0  0  0  0  0  0  0
  1  2  1  0
  3  2  1  6
  3  4  1  0
  4  5  2  0
  4  6  1  0
  6  7  2  3
  7  8  1  0
  8  9  1  0
  9 10  1  0
  9 11  2  0
 11 12  1  0
 11 13  1  0
  3 14  1  0
 14 15  1  0
 15 16  2  0
 16 17  1  0
 16 18  1  0
 18 19  1  0
 19 20  2  0
 20 21  1  0
 21 22  1  0
 21 23  1  0
 21 24  1  0
 24 25  2  0
 25 26  1  0
 25 27  1  0
 27 28  1  0
 27 29  2  0
 29 30  1  0
 29 31  1  0
 31 32  1  0
 31 33  2  0
 33 34  1  0
 19 35  1  0
 35 36  1  0
 36 37  1  0
 36 38  1  0
 36 39  1  0
 35 40  2  0
 40 41  1  0
 14 42  2  0
 42 43  1  0
 42 44  1  0
 44 45  1  0
 44 46  2  0
 46 47  1  0
 46 48  1  0
 48 49  1  0
 48 50  1  0
 48  3  1  0
 13  7  1  0
 40 15  1  0
 33 24  1  0
M  CHG  3   8  -1  18  -1  40   1
M  END
>  <UniqueID>  (58) 
53

>  <SMILES>  (58) 
Cc1[nH+]c(C2=CC=CC[C@]2(O)C(=O)N=c2[n-]ccs2)c[n-]/c1=N/Cc1ccccc1

>  <Energy>  (58) 
112.72943786142325

>  <Genealogy>  (58) 
Cc1[nH+]c(C2=CC=CCC2(O)C(=O)N=c2[n-]ccs2)c[n-]c1=NCc1ccccc1 (protonated)
Cc1[nH+]c(C2=CC=CC[C@]2(O)C(=O)N=c2[n-]ccs2)c[n-]c1=NCc1ccccc1 (chirality)
Cc1[nH+]c(C2=CC=CC[C@]2(O)C(=O)N=c2[n-]ccs2)c[n-]/c1=N/Cc1ccccc1 (cis-trans isomerization)
Cc1[nH+]c(C2=CC=CC[C@]2(O)C(=O)N=c2[n-]ccs2)c[n-]/c1=N/Cc1ccccc1 (3D coordinates assigned)
Cc1[nH+]c(C2=CC=CC[C@]2(O)C(=O)N=c2[n-]ccs2)c[n-]/c1=N/Cc1ccccc1 (nonaromatic ring conformer: 112.72943786142325 kcal/mol)

>  <smiles>  (58) 
Cc1nc(C2=CC=CCC2(O)C(=O)N=c2[nH]ccs2)c[nH]c1=NCc1ccccc1

>  <score_type>  (58) 
oracle

>  <origin>  (58) 
adg

>  <m_score__min__energy>  (58) 
-8.3900000000000006

>  <m_primary>  (58) 
energy

$$$$
58:0
     RDKit          3D

 43 45  0  0  0  0  0  0  0  0999 V2000
   55.6220   30.2930   44.4970 O   0  0  0  0  0  0  0  0  0  0  0  0
   56.9360   29.8960   43.8810 S   0  0  0  0  0  0  0  0  0  0  0  0
   56.6700   29.1160   42.6240 O   0  0  0  0  0  0  0  0  0  0  0  0
   57.8320   31.3290   43.4880 N   0  0  0  0  0  0  0  0  0  0  0  0
   57.8940   32.3710   44.2670 C   0  0  0  0  0  0  0  0  0  0  0  0
   58.8680   33.4720   44.0760 C   0  0  0  0  0  0  0  0  0  0  0  0
   58.6040   34.3980   45.2730 C   0  0  0  0  0  0  0  0  0  0  0  0
   57.3720   33.8470   46.0160 C   0  0  0  0  0  0  0  0  0  0  0  0
   57.0440   32.5880   45.3790 N   0  0  0  0  0  0  0  0  0  0  0  0
   57.8640   28.8920   44.9880 C   0  0  0  0  0  0  0  0  0  0  0  0
   58.1810   27.5730   44.6360 C   0  0  0  0  0  0  0  0  0  0  0  0
   58.9170   26.7720   45.5110 C   0  0  0  0  0  0  0  0  0  0  0  0
   59.3530   27.2870   46.7350 C   0  0  0  0  0  0  0  0  0  0  0  0
   59.0630   28.6120   47.0910 C   0  0  0  0  0  0  0  0  0  0  0  0
   59.5090   29.1160   48.3620 N   0  0  0  0  0  0  0  0  0  0  0  0
   60.1600   30.3850   48.5430 C   0  0  0  0  0  0  0  0  0  0  0  0
   61.3020   30.8780   47.4700 S   0  0  0  0  0  0  0  0  0  0  0  0
   60.0530   31.0740   49.7980 N   0  0  0  0  0  0  0  0  0  0  0  0
   58.9120   30.9670   50.6690 C   0  0  0  0  0  0  0  0  0  0  0  0
   58.1830   32.1180   51.0010 C   0  0  0  0  0  0  0  0  0  0  0  0
   57.0670   32.0230   51.8350 C   0  0  0  0  0  0  0  0  0  0  0  0
   56.6800   30.7740   52.3230 C   0  0  0  0  0  0  0  0  0  0  0  0
   57.3780   29.6600   51.9700 N   0  0  0  0  0  0  0  0  0  0  0  0
   58.4710   29.7260   51.1630 C   0  0  0  0  0  0  0  0  0  0  0  0
   58.2930   29.4040   46.2200 C   0  0  0  0  0  0  0  0  0  0  0  0
   58.3540   31.3340   42.5840 H   0  0  0  0  0  0  0  0  0  0  0  0
   59.8999   33.0913   44.0938 H   0  0  0  0  0  0  0  0  0  0  0  0
   58.7537   33.9812   43.1077 H   0  0  0  0  0  0  0  0  0  0  0  0
   59.4761   34.4044   45.9434 H   0  0  0  0  0  0  0  0  0  0  0  0
   58.4257   35.4296   44.9352 H   0  0  0  0  0  0  0  0  0  0  0  0
   57.6079   33.6865   47.0784 H   0  0  0  0  0  0  0  0  0  0  0  0
   56.5282   34.5511   45.9691 H   0  0  0  0  0  0  0  0  0  0  0  0
   56.2520   31.9790   45.6810 H   0  0  0  0  0  0  0  0  0  0  0  0
   57.8493   27.1681   43.6685 H   0  0  0  0  0  0  0  0  0  0  0  0
   59.1542   25.7335   45.2366 H   0  0  0  0  0  0  0  0  0  0  0  0
   59.9271   26.6491   47.4232 H   0  0  0  0  0  0  0  0  0  0  0  0
   59.3550   28.5240   49.2080 H   0  0  0  0  0  0  0  0  0  0  0  0
   60.8540   31.6700   50.1070 H   0  0  0  0  0  0  0  0  0  0  0  0
   58.4906   33.0967   50.6041 H   0  0  0  0  0  0  0  0  0  0  0  0
   56.4978   32.9248   52.1050 H   0  0  0  0  0  0  0  0  0  0  0  0
   55.8113   30.6899   52.9926 H   0  0  0  0  0  0  0  0  0  0  0  0
   59.0117   28.8061   50.8959 H   0  0  0  0  0  0  0  0  0  0  0  0
   58.0259   30.4316   46.5077 H   0  0  0  0  0  0  0  0  0  0  0  0
  1  2  2  0
  2  3  2  0
  2  4  1  0
  4  5  2  3
  5  6  1  0
  6  7  1  0
  7  8  1  0
  8  9  1  0
  2 10  1  0
 10 11  2  0
 11 12  1  0
 12 13  2  0
 13 14  1  0
 14 15  1  0
 15 16  1  0
 16 17  2  0
 16 18  1  0
 18 19  1  0
 19 20  2  0
 20 21  1  0
 21 22  2  0
 22 23  1  0
 23 24  2  0
 14 25  2  0
  9  5  1  0
 25 10  1  0
 24 19  1  0
  4 26  1  0
  6 27  1  0
  6 28  1  0
  7 29  1  0
  7 30  1  0
  8 31  1  0
  8 32  1  0
  9 33  1  0
 11 34  1  0
 12 35  1  0
 13 36  1  0
 15 37  1  0
 18 38  1  0
 20 39  1  0
 21 40  1  0
 22 41  1  0
 24 42  1  0
 25 43  1  0
M  CHG  1   4   1
M  END
>  <UniqueID>  (59) 
54

>  <SMILES>  (59) 
O=S(=O)([NH+]=C1CCCN1)c1cccc(NC(=S)Nc2cccnc2)c1

>  <Energy>  (59) 
60.091874430711385

>  <Genealogy>  (59) 
O=S(=O)([NH+]=C1CCCN1)c1cccc(NC(=S)Nc2cccnc2)c1 (protonated)
O=S(=O)([NH+]=C1CCCN1)c1cccc(NC(=S)Nc2cccnc2)c1 (3D coordinates assigned)
O=S(=O)([NH+]=C1CCCN1)c1cccc(NC(=S)Nc2cccnc2)c1 (nonaromatic ring conformer: 60.091874430711385 kcal/mol)

>  <smiles>  (59) 
O=S(=O)(N=C1CCCN1)c1cccc(NC(=S)Nc2cccnc2)c1

>  <score_type>  (59) 
oracle

>  <origin>  (59) 
adg

>  <m_score__min__energy>  (59) 
-7.8099999999999996

>  <m_primary>  (59) 
energy

$$$$
59:0
     RDKit          3D

 43 46  0  0  0  0  0  0  0  0999 V2000
   50.6971   31.6042   50.7859 H   0  0  0  0  0  0  0  0  0  0  0  0
   51.5960   31.1890   51.2650 C   0  0  0  0  0  0  0  0  0  0  0  0
   52.7950   31.8320   51.2460 N   0  0  0  0  0  0  0  0  0  0  0  0
   53.7450   31.1330   51.9010 C   0  0  0  0  0  0  0  0  0  0  0  0
   54.9680   31.5570   52.0050 N   0  0  0  0  0  0  0  0  0  0  0  0
   56.3190   30.5670   52.4600 S   0  0  0  0  0  0  0  0  0  0  0  0
   56.7780   30.9370   53.8430 O   0  0  0  0  0  0  0  0  0  0  0  0
   55.8920   29.1260   52.4710 O   0  0  0  0  0  0  0  0  0  0  0  0
   57.6210   30.7730   51.2930 C   0  0  0  0  0  0  0  0  0  0  0  0
   57.7470   31.9660   50.5690 C   0  0  0  0  0  0  0  0  0  0  0  0
   57.0753   32.8105   50.7825 H   0  0  0  0  0  0  0  0  0  0  0  0
   58.7220   32.0860   49.5780 C   0  0  0  0  0  0  0  0  0  0  0  0
   58.8200   33.0268   49.0165 H   0  0  0  0  0  0  0  0  0  0  0  0
   59.5790   31.0090   49.2950 C   0  0  0  0  0  0  0  0  0  0  0  0
   60.5480   31.0920   48.2390 N   0  0  0  0  0  0  0  0  0  0  0  0
   60.8540   30.1280   47.4550 N   0  0  0  0  0  0  0  0  0  0  0  0
   59.9040   29.2240   46.8670 C   0  0  0  0  0  0  0  0  0  0  0  0
   58.8900   29.7380   46.0580 C   0  0  0  0  0  0  0  0  0  0  0  0
   58.8528   30.8194   45.8601 H   0  0  0  0  0  0  0  0  0  0  0  0
   57.9180   28.9010   45.4930 C   0  0  0  0  0  0  0  0  0  0  0  0
   56.6470   29.6430   44.5070 S   0  0  0  0  0  0  0  0  0  0  0  0
   56.5870   31.1190   44.7840 O   0  0  0  0  0  0  0  0  0  0  0  0
   56.9350   29.4100   43.0500 O   0  0  0  0  0  0  0  0  0  0  0  0
   55.1490   28.9710   44.8710 O   0  0  0  0  0  0  0  0  0  0  0  0
   57.9780   27.5020   45.7310 C   0  0  0  0  0  0  0  0  0  0  0  0
   57.0220   26.6090   45.1980 C   0  0  0  0  0  0  0  0  0  0  0  0
   56.1945   26.9989   44.5871 H   0  0  0  0  0  0  0  0  0  0  0  0
   57.1160   25.2380   45.4380 C   0  0  0  0  0  0  0  0  0  0  0  0
   56.3631   24.5560   45.0161 H   0  0  0  0  0  0  0  0  0  0  0  0
   58.1580   24.7280   46.2090 C   0  0  0  0  0  0  0  0  0  0  0  0
   58.2287   23.6452   46.3892 H   0  0  0  0  0  0  0  0  0  0  0  0
   59.1120   25.5880   46.7530 C   0  0  0  0  0  0  0  0  0  0  0  0
   59.9289   25.1796   47.3661 H   0  0  0  0  0  0  0  0  0  0  0  0
   59.0370   26.9750   46.5230 C   0  0  0  0  0  0  0  0  0  0  0  0
   60.0020   27.8390   47.0700 C   0  0  0  0  0  0  0  0  0  0  0  0
   61.0700   27.3260   47.8040 O   0  0  0  0  0  0  0  0  0  0  0  0
   59.4950   29.8420   50.0630 C   0  0  0  0  0  0  0  0  0  0  0  0
   60.2072   29.0212   49.8926 H   0  0  0  0  0  0  0  0  0  0  0  0
   58.5090   29.7160   51.0460 C   0  0  0  0  0  0  0  0  0  0  0  0
   58.4295   28.7855   51.6272 H   0  0  0  0  0  0  0  0  0  0  0  0
   53.1370   29.6910   52.5290 S   0  0  0  0  0  0  0  0  0  0  0  0
   51.5880   29.9700   51.9330 C   0  0  0  0  0  0  0  0  0  0  0  0
   50.7206   29.3039   52.0514 H   0  0  0  0  0  0  0  0  0  0  0  0
  1  2  1  0
  2  3  1  0
  3  4  1  0
  4  5  2  0
  5  6  1  0
  6  7  2  0
  6  8  2  0
  6  9  1  0
  9 10  2  0
 10 11  1  0
 10 12  1  0
 12 13  1  0
 12 14  2  0
 14 15  1  0
 15 16  2  3
 16 17  1  0
 17 18  2  0
 18 19  1  0
 18 20  1  0
 20 21  1  0
 21 22  2  0
 21 23  2  0
 21 24  1  0
 20 25  2  0
 25 26  1  0
 26 27  1  0
 26 28  2  0
 28 29  1  0
 28 30  1  0
 30 31  1  0
 30 32  2  0
 32 33  1  0
 32 34  1  0
 34 35  2  0
 35 36  1  0
 14 37  1  0
 37 38  1  0
 37 39  2  0
 39 40  1  0
  4 41  1  0
 41 42  1  0
 42 43  1  0
 42  2  2  0
 39  9  1  0
 35 17  1  0
 34 25  1  0
M  CHG  3   3  -1  24  -1  36  -1
M  END
>  <UniqueID>  (60) 
55

>  <SMILES>  (60) 
O=S(=O)([O-])c1cc(N=Nc2ccc(S(=O)(=O)/N=c3/[n-]ccs3)cc2)c([O-])c2ccccc12

>  <Energy>  (60) 
101.01586758615015

>  <Genealogy>  (60) 
O=S(=O)([O-])c1cc(N=Nc2ccc(S(=O)(=O)N=c3[n-]ccs3)cc2)c([O-])c2ccccc12 (protonated)
O=S(=O)([O-])c1cc(N=Nc2ccc(S(=O)(=O)/N=c3/[n-]ccs3)cc2)c([O-])c2ccccc12 (cis-trans isomerization)
O=S(=O)([O-])c1cc(N=Nc2ccc(S(=O)(=O)/N=c3/[n-]ccs3)cc2)c([O-])c2ccccc12 (3D coordinates assigned)
O=S(=O)([O-])c1cc(N=Nc2ccc(S(=O)(=O)/N=c3/[n-]ccs3)cc2)c([O-])c2ccccc12 (optimized conformer: 101.01586758615015 kcal/mol)

>  <smiles>  (60) 
O=S(=O)(O)c1cc(N=Nc2ccc(S(=O)(=O)N=c3[nH]ccs3)cc2)c(O)c2ccccc12

>  <score_type>  (60) 
oracle

>  <origin>  (60) 
adg

>  <m_score__min__energy>  (60) 
-15.65

>  <m_primary>  (60) 
energy

$$$$
60:0
     RDKit          3D

 53 56  0  0  0  0  0  0  0  0999 V2000
   55.6190   29.7520   45.9970 H   0  0  0  0  0  0  0  0  0  0  0  0
   55.6870   29.0280   45.2920 O   0  0  0  0  0  0  0  0  0  0  0  0
   56.2730   27.7860   45.5440 C   0  0  0  0  0  0  0  0  0  0  0  0
   55.4920   26.7790   46.0110 N   0  0  0  0  0  0  0  0  0  0  0  0
   56.0050   25.5510   46.2760 C   0  0  0  0  0  0  0  0  0  0  0  0
   55.2580   24.6380   46.7150 O   0  0  0  0  0  0  0  0  0  0  0  0
   57.3230   25.3050   46.0650 N   0  0  0  0  0  0  0  0  0  0  0  0
   58.1500   26.2740   45.5980 C   0  0  0  0  0  0  0  0  0  0  0  0
   59.3660   26.0060   45.3970 O   0  0  0  0  0  0  0  0  0  0  0  0
   57.6470   27.5600   45.3360 C   0  0  0  0  0  0  0  0  0  0  0  0
   58.5260   28.6320   44.8230 C   0  0  0  0  0  0  0  0  0  0  0  0
   58.4481   28.9044   43.7601 H   0  0  0  0  0  0  0  0  0  0  0  0
   59.4180   29.2940   45.5870 C   0  0  0  0  0  0  0  0  0  0  0  0
   59.2550   30.7540   45.7920 C   0  0  0  0  0  0  0  0  0  0  0  0
   58.1760   31.4360   45.2060 C   0  0  0  0  0  0  0  0  0  0  0  0
   57.4441   30.8835   44.5985 H   0  0  0  0  0  0  0  0  0  0  0  0
   58.0280   32.8120   45.3910 C   0  0  0  0  0  0  0  0  0  0  0  0
   57.1835   33.3407   44.9247 H   0  0  0  0  0  0  0  0  0  0  0  0
   58.9500   33.5190   46.1670 C   0  0  0  0  0  0  0  0  0  0  0  0
   58.8377   34.6053   46.2988 H   0  0  0  0  0  0  0  0  0  0  0  0
   60.0180   32.8470   46.7780 C   0  0  0  0  0  0  0  0  0  0  0  0
   60.9810   33.5540   47.5610 N   0  0  0  0  0  0  0  0  0  0  0  0
   62.6850   33.2430   47.4630 S   0  0  0  0  0  0  0  0  0  0  0  0
   63.2930   34.1760   46.4540 O   0  0  0  0  0  0  0  0  0  0  0  0
   62.9020   31.8310   46.9960 O   0  0  0  0  0  0  0  0  0  0  0  0
   63.4780   33.4900   49.0150 C   0  0  0  0  0  0  0  0  0  0  0  0
   62.9250   34.3710   49.9580 C   0  0  0  0  0  0  0  0  0  0  0  0
   62.0067   34.9268   49.7177 H   0  0  0  0  0  0  0  0  0  0  0  0
   63.5390   34.5430   51.2010 C   0  0  0  0  0  0  0  0  0  0  0  0
   63.1046   35.2356   51.9370 H   0  0  0  0  0  0  0  0  0  0  0  0
   64.7050   33.8360   51.5110 C   0  0  0  0  0  0  0  0  0  0  0  0
   65.1863   33.9720   52.4907 H   0  0  0  0  0  0  0  0  0  0  0  0
   65.2590   32.9570   50.5770 C   0  0  0  0  0  0  0  0  0  0  0  0
   66.1770   32.4024   50.8211 H   0  0  0  0  0  0  0  0  0  0  0  0
   64.6470   32.7820   49.3320 C   0  0  0  0  0  0  0  0  0  0  0  0
   65.0833   32.0873   48.5991 H   0  0  0  0  0  0  0  0  0  0  0  0
   60.1800   31.4730   46.5700 C   0  0  0  0  0  0  0  0  0  0  0  0
   61.0379   30.9508   47.0187 H   0  0  0  0  0  0  0  0  0  0  0  0
   60.5280   28.5740   46.3160 C   0  0  0  0  0  0  0  0  0  0  0  0
   60.9489   27.7951   45.6632 H   0  0  0  0  0  0  0  0  0  0  0  0
   61.3138   29.2950   46.5856 H   0  0  0  0  0  0  0  0  0  0  0  0
   59.8700   27.8030   47.8330 S   0  0  0  0  0  0  0  0  0  0  0  0
   59.9100   29.3270   48.7760 C   0  0  0  0  0  0  0  0  0  0  0  0
   58.7170   29.9830   49.1050 C   0  0  0  0  0  0  0  0  0  0  0  0
   57.7520   29.5602   48.7889 H   0  0  0  0  0  0  0  0  0  0  0  0
   58.7520   31.1750   49.8350 C   0  0  0  0  0  0  0  0  0  0  0  0
   57.8144   31.6899   50.0914 H   0  0  0  0  0  0  0  0  0  0  0  0
   59.9790   31.7140   50.2400 C   0  0  0  0  0  0  0  0  0  0  0  0
   60.0240   33.2100   51.1540 Cl  0  0  0  0  0  0  0  0  0  0  0  0
   61.1720   31.0550   49.9160 C   0  0  0  0  0  0  0  0  0  0  0  0
   62.1368   31.4759   50.2355 H   0  0  0  0  0  0  0  0  0  0  0  0
   61.1370   29.8630   49.1870 C   0  0  0  0  0  0  0  0  0  0  0  0
   62.0744   29.3451   48.9357 H   0  0  0  0  0  0  0  0  0  0  0  0
  1  2  1  0
  2  3  1  0
  3  4  1  0
  4  5  1  0
  5  6  2  0
  5  7  1  0
  7  8  1  0
  8  9  2  0
  8 10  1  0
 10 11  1  0
 11 12  1  0
 11 13  2  0
 13 14  1  0
 14 15  2  0
 15 16  1  0
 15 17  1  0
 17 18  1  0
 17 19  2  0
 19 20  1  0
 19 21  1  0
 21 22  1  0
 22 23  1  0
 23 24  2  0
 23 25  2  0
 23 26  1  0
 26 27  2  0
 27 28  1  0
 27 29  1  0
 29 30  1  0
 29 31  2  0
 31 32  1  0
 31 33  1  0
 33 34  1  0
 33 35  2  0
 35 36  1  0
 21 37  2  0
 37 38  1  0
 13 39  1  0
 39 40  1  0
 39 41  1  0
 39 42  1  0
 42 43  1  0
 43 44  2  0
 44 45  1  0
 44 46  1  0
 46 47  1  0
 46 48  2  0
 48 49  1  0
 48 50  1  0
 50 51  1  0
 50 52  2  0
 52 53  1  0
 10  3  2  0
 37 14  1  0
 52 43  1  0
 35 26  1  0
M  CHG  3   4  -1   7  -1  22  -1
M  END
>  <UniqueID>  (61) 
56

>  <SMILES>  (61) 
O=c1[n-]c(O)c(/C=C(\CSc2ccc(Cl)cc2)c2cccc([N-]S(=O)(=O)c3ccccc3)c2)c(=O)[n-]1

>  <Energy>  (61) 
76.34300271512376

>  <Genealogy>  (61) 
O=c1[n-]c(O)c(C=C(CSc2ccc(Cl)cc2)c2cccc([N-]S(=O)(=O)c3ccccc3)c2)c(=O)[n-]1 (protonated)
O=c1[n-]c(O)c(/C=C(\CSc2ccc(Cl)cc2)c2cccc([N-]S(=O)(=O)c3ccccc3)c2)c(=O)[n-]1 (cis-trans isomerization)
O=c1[n-]c(O)c(/C=C(\CSc2ccc(Cl)cc2)c2cccc([N-]S(=O)(=O)c3ccccc3)c2)c(=O)[n-]1 (3D coordinates assigned)
O=c1[n-]c(O)c(/C=C(\CSc2ccc(Cl)cc2)c2cccc([N-]S(=O)(=O)c3ccccc3)c2)c(=O)[n-]1 (optimized conformer: 76.34300271512376 kcal/mol)

>  <smiles>  (61) 
O=c1[nH]c(O)c(C=C(CSc2ccc(Cl)cc2)c2cccc(NS(=O)(=O)c3ccccc3)c2)c(=O)[nH]1

>  <score_type>  (61) 
oracle

>  <origin>  (61) 
adg

>  <m_score__min__energy>  (61) 
-15.57

>  <m_primary>  (61) 
energy

$$$$
61:0
     RDKit          3D

 40 41  0  0  0  0  0  0  0  0999 V2000
   57.0100   27.3580   45.7310 C   0  0  0  0  0  0  0  0  0  0  0  0
   55.9650   28.2530   45.2490 N   0  0  0  0  0  0  0  0  0  0  0  0
   56.6650   29.7650   44.7620 S   0  0  0  0  0  0  0  0  0  0  0  0
   57.5800   29.5530   43.5880 O   0  0  0  0  0  0  0  0  0  0  0  0
   55.5750   30.7240   44.3730 O   0  0  0  0  0  0  0  0  0  0  0  0
   57.5590   30.4430   46.0880 N   0  0  0  0  0  0  0  0  0  0  0  0
   58.8990   30.8250   45.6330 C   0  0  0  0  0  0  0  0  0  0  0  0
   59.9440   29.9250   46.2860 C   0  0  0  0  0  0  0  0  0  0  0  0
   60.0570   30.2830   48.0770 S   0  0  0  0  0  0  0  0  0  0  0  0
   61.3240   31.5540   47.9190 C   0  0  0  0  0  0  0  0  0  0  0  0
   62.5310   31.2110   47.2940 C   0  0  0  0  0  0  0  0  0  0  0  0
   63.5240   32.1730   47.0960 C   0  0  0  0  0  0  0  0  0  0  0  0
   63.3210   33.4850   47.5250 C   0  0  0  0  0  0  0  0  0  0  0  0
   62.1280   33.8370   48.1580 C   0  0  0  0  0  0  0  0  0  0  0  0
   61.1190   32.8800   48.3650 C   0  0  0  0  0  0  0  0  0  0  0  0
   59.8800   33.2850   49.0710 C   0  0  0  0  0  0  0  0  0  0  0  0
   59.9610   33.7390   50.2430 O   0  0  0  0  0  0  0  0  0  0  0  0
   58.5930   33.2550   48.4320 N   0  0  0  0  0  0  0  0  0  0  0  0
   58.3400   33.5450   47.1890 C   0  0  0  0  0  0  0  0  0  0  0  0
   59.2670   34.3000   46.4590 C   0  0  0  0  0  0  0  0  0  0  0  0
   58.9800   34.6500   45.1370 C   0  0  0  0  0  0  0  0  0  0  0  0
   57.7750   34.2490   44.5580 C   0  0  0  0  0  0  0  0  0  0  0  0
   56.8710   33.5000   45.3140 C   0  0  0  0  0  0  0  0  0  0  0  0
   57.1680   33.1700   46.5980 N   0  0  0  0  0  0  0  0  0  0  0  0
   57.0124   27.3559   46.8310 H   0  0  0  0  0  0  0  0  0  0  0  0
   56.8188   26.3392   45.3628 H   0  0  0  0  0  0  0  0  0  0  0  0
   57.9873   27.7035   45.3628 H   0  0  0  0  0  0  0  0  0  0  0  0
   57.0540   31.3110   46.3800 H   0  0  0  0  0  0  0  0  0  0  0  0
   58.9574   30.7184   44.5397 H   0  0  0  0  0  0  0  0  0  0  0  0
   59.0935   31.8703   45.9149 H   0  0  0  0  0  0  0  0  0  0  0  0
   59.6573   28.8727   46.1433 H   0  0  0  0  0  0  0  0  0  0  0  0
   60.9222   30.1145   45.8199 H   0  0  0  0  0  0  0  0  0  0  0  0
   62.6972   30.1771   46.9572 H   0  0  0  0  0  0  0  0  0  0  0  0
   64.4667   31.8961   46.6015 H   0  0  0  0  0  0  0  0  0  0  0  0
   64.1020   34.2427   47.3642 H   0  0  0  0  0  0  0  0  0  0  0  0
   61.9758   34.8721   48.4979 H   0  0  0  0  0  0  0  0  0  0  0  0
   60.2134   34.6149   46.9228 H   0  0  0  0  0  0  0  0  0  0  0  0
   59.7022   35.2403   44.5539 H   0  0  0  0  0  0  0  0  0  0  0  0
   57.5402   34.5199   43.5181 H   0  0  0  0  0  0  0  0  0  0  0  0
   55.9179   33.1770   44.8697 H   0  0  0  0  0  0  0  0  0  0  0  0
  1  2  1  0
  2  3  1  0
  3  4  2  0
  3  5  2  0
  3  6  1  0
  6  7  1  0
  7  8  1  0
  8  9  1  0
  9 10  1  0
 10 11  2  0
 11 12  1  0
 12 13  2  0
 13 14  1  0
 14 15  2  0
 15 16  1  0
 16 17  2  0
 16 18  1  0
 18 19  2  3
 19 20  1  0
 20 21  2  0
 21 22  1  0
 22 23  2  0
 23 24  1  0
 15 10  1  0
 24 19  1  0
  1 25  1  0
  1 26  1  0
  1 27  1  0
  6 28  1  0
  7 29  1  0
  7 30  1  0
  8 31  1  0
  8 32  1  0
 11 33  1  0
 12 34  1  0
 13 35  1  0
 14 36  1  0
 20 37  1  0
 21 38  1  0
 22 39  1  0
 23 40  1  0
M  CHG  2   2  -1  24  -1
M  END
>  <UniqueID>  (62) 
57

>  <SMILES>  (62) 
C[N-]S(=O)(=O)NCCSc1ccccc1C(=O)N=c1cccc[n-]1

>  <Energy>  (62) 
35.899581355962916

>  <Genealogy>  (62) 
C[N-]S(=O)(=O)NCCSc1ccccc1C(=O)N=c1cccc[n-]1 (protonated)
C[N-]S(=O)(=O)NCCSc1ccccc1C(=O)N=c1cccc[n-]1 (3D coordinates assigned)
C[N-]S(=O)(=O)NCCSc1ccccc1C(=O)N=c1cccc[n-]1 (optimized conformer: 35.899581355962916 kcal/mol)

>  <smiles>  (62) 
CNS(=O)(=O)NCCSc1ccccc1C(=O)N=c1cccc[nH]1

>  <score_type>  (62) 
oracle

>  <origin>  (62) 
adg

>  <m_score__min__energy>  (62) 
-10.69

>  <m_primary>  (62) 
energy

$$$$
62:0
     RDKit          3D

 50 53  0  0  0  0  0  0  0  0999 V2000
   60.7410   26.7980   46.2390 C   0  0  0  0  0  0  0  0  0  0  0  0
   59.8750   27.9990   45.9950 C   0  0  0  0  0  0  0  0  0  0  0  0
   58.8790   27.9610   45.0140 C   0  0  0  0  0  0  0  0  0  0  0  0
   58.0810   29.0870   44.7380 C   0  0  0  0  0  0  0  0  0  0  0  0
   57.0260   28.9540   43.6670 C   0  0  0  0  0  0  0  0  0  0  0  0
   58.3030   30.2950   45.4660 C   0  0  0  0  0  0  0  0  0  0  0  0
   57.5620   31.4920   45.2680 C   0  0  0  0  0  0  0  0  0  0  0  0
   56.6350   31.5660   44.4190 O   0  0  0  0  0  0  0  0  0  0  0  0
   57.8570   32.6320   46.0210 C   0  0  0  0  0  0  0  0  0  0  0  0
   58.8730   32.5920   46.9780 C   0  0  0  0  0  0  0  0  0  0  0  0
   59.2390   33.8170   47.7610 C   0  0  0  0  0  0  0  0  0  0  0  0
   60.3990   34.8720   46.8230 S   0  0  0  0  0  0  0  0  0  0  0  0
   61.8620   33.9400   47.2910 C   0  0  0  0  0  0  0  0  0  0  0  0
   62.7500   33.4660   46.3950 N   0  0  0  0  0  0  0  0  0  0  0  0
   63.6750   32.8300   47.0950 N   0  0  0  0  0  0  0  0  0  0  0  0
   63.3470   32.9130   48.3960 C   0  0  0  0  0  0  0  0  0  0  0  0
   64.1950   32.3720   49.5040 C   0  0  0  0  0  0  0  0  0  0  0  0
   62.2060   33.6150   48.5570 N   0  0  0  0  0  0  0  0  0  0  0  0
   61.5420   33.9980   49.8060 C   0  0  0  0  0  0  0  0  0  0  0  0
   60.5960   32.9150   50.2510 C   0  0  0  0  0  0  0  0  0  0  0  0
   60.8720   31.5720   49.9500 C   0  0  0  0  0  0  0  0  0  0  0  0
   59.9850   30.5650   50.3420 C   0  0  0  0  0  0  0  0  0  0  0  0
   58.8170   30.8920   51.0340 C   0  0  0  0  0  0  0  0  0  0  0  0
   58.5340   32.2270   51.3370 C   0  0  0  0  0  0  0  0  0  0  0  0
   59.4190   33.2370   50.9470 C   0  0  0  0  0  0  0  0  0  0  0  0
   59.5780   31.4480   47.1600 N   0  0  0  0  0  0  0  0  0  0  0  0
   59.3290   30.3170   46.4500 C   0  0  0  0  0  0  0  0  0  0  0  0
   60.1050   29.1840   46.6960 C   0  0  0  0  0  0  0  0  0  0  0  0
   60.8540   26.6413   47.3219 H   0  0  0  0  0  0  0  0  0  0  0  0
   60.2734   25.9109   45.7870 H   0  0  0  0  0  0  0  0  0  0  0  0
   61.7304   26.9615   45.7870 H   0  0  0  0  0  0  0  0  0  0  0  0
   58.7161   27.0327   44.4469 H   0  0  0  0  0  0  0  0  0  0  0  0
   56.0395   28.8296   44.1375 H   0  0  0  0  0  0  0  0  0  0  0  0
   57.0224   29.8588   43.0414 H   0  0  0  0  0  0  0  0  0  0  0  0
   57.2471   28.0766   43.0414 H   0  0  0  0  0  0  0  0  0  0  0  0
   57.2891   33.5602   45.8598 H   0  0  0  0  0  0  0  0  0  0  0  0
   58.3261   34.3910   47.9783 H   0  0  0  0  0  0  0  0  0  0  0  0
   59.7282   33.5027   48.6947 H   0  0  0  0  0  0  0  0  0  0  0  0
   64.5120   32.3600   46.6830 H   0  0  0  0  0  0  0  0  0  0  0  0
   63.7554   32.6524   50.4726 H   0  0  0  0  0  0  0  0  0  0  0  0
   64.2434   31.2758   49.4269 H   0  0  0  0  0  0  0  0  0  0  0  0
   65.2095   32.7901   49.4269 H   0  0  0  0  0  0  0  0  0  0  0  0
   62.3012   34.1589   50.5855 H   0  0  0  0  0  0  0  0  0  0  0  0
   60.9713   34.9231   49.6375 H   0  0  0  0  0  0  0  0  0  0  0  0
   61.7901   31.3108   49.4034 H   0  0  0  0  0  0  0  0  0  0  0  0
   60.2074   29.5141   50.1051 H   0  0  0  0  0  0  0  0  0  0  0  0
   58.1194   30.0988   51.3408 H   0  0  0  0  0  0  0  0  0  0  0  0
   57.6140   32.4833   51.8829 H   0  0  0  0  0  0  0  0  0  0  0  0
   59.1929   34.2867   51.1859 H   0  0  0  0  0  0  0  0  0  0  0  0
   60.9055   29.2249   47.4493 H   0  0  0  0  0  0  0  0  0  0  0  0
  1  2  1  0
  2  3  2  0
  3  4  1  0
  4  5  1  0
  4  6  2  0
  6  7  1  0
  7  8  2  0
  7  9  1  0
  9 10  2  0
 10 11  1  0
 11 12  1  0
 12 13  1  0
 13 14  2  0
 14 15  1  0
 15 16  2  0
 16 17  1  0
 16 18  1  0
 18 19  1  0
 19 20  1  0
 20 21  2  0
 21 22  1  0
 22 23  2  0
 23 24  1  0
 24 25  2  0
 10 26  1  0
 26 27  1  0
 27 28  2  0
 28  2  1  0
 27  6  1  0
 18 13  1  0
 25 20  1  0
  1 29  1  0
  1 30  1  0
  1 31  1  0
  3 32  1  0
  5 33  1  0
  5 34  1  0
  5 35  1  0
  9 36  1  0
 11 37  1  0
 11 38  1  0
 15 39  1  0
 17 40  1  0
 17 41  1  0
 17 42  1  0
 19 43  1  0
 19 44  1  0
 21 45  1  0
 22 46  1  0
 23 47  1  0
 24 48  1  0
 25 49  1  0
 28 50  1  0
M  CHG  2  15   1  26  -1
M  END
>  <UniqueID>  (63) 
58

>  <SMILES>  (63) 
Cc1cc(C)c2c(=O)cc(CSc3n[nH+]c(C)n3Cc3ccccc3)[n-]c2c1

>  <Energy>  (63) 
88.86635697142336

>  <Genealogy>  (63) 
Cc1cc(C)c2c(=O)cc(CSc3n[nH+]c(C)n3Cc3ccccc3)[n-]c2c1 (protonated)
Cc1cc(C)c2c(=O)cc(CSc3n[nH+]c(C)n3Cc3ccccc3)[n-]c2c1 (3D coordinates assigned)
Cc1cc(C)c2c(=O)cc(CSc3n[nH+]c(C)n3Cc3ccccc3)[n-]c2c1 (optimized conformer: 88.86635697142336 kcal/mol)

>  <smiles>  (63) 
Cc1cc(C)c2c(=O)cc(CSc3nnc(C)n3Cc3ccccc3)[nH]c2c1

>  <score_type>  (63) 
oracle

>  <origin>  (63) 
adg

>  <m_score__min__energy>  (63) 
-9.5

>  <m_primary>  (63) 
energy

$$$$
63:0
     RDKit          3D

 37 38  0  0  0  0  0  0  0  0999 V2000
   55.7570   24.3260   45.7560 C   0  0  0  0  0  0  0  0  0  0  0  0
   57.1660   24.3020   45.2140 C   0  0  0  0  0  0  0  0  0  0  0  0
   57.6620   23.1840   44.6240 C   0  0  0  0  0  0  0  0  0  0  0  0
   56.8880   22.4300   43.6630 C   0  0  0  0  0  0  0  0  0  0  0  0
   56.2680   21.8260   42.8930 N   0  0  0  0  0  0  0  0  0  0  0  0
   58.9600   22.6540   44.9640 C   0  0  0  0  0  0  0  0  0  0  0  0
   60.0020   22.2270   45.2370 N   0  0  0  0  0  0  0  0  0  0  0  0
   57.9950   25.5240   45.3930 C   0  0  0  0  0  0  0  0  0  0  0  0
   59.0430   25.5460   46.3290 C   0  0  0  0  0  0  0  0  0  0  0  0
   59.8210   26.6940   46.4840 C   0  0  0  0  0  0  0  0  0  0  0  0
   59.5760   27.8220   45.6950 C   0  0  0  0  0  0  0  0  0  0  0  0
   58.5550   27.8090   44.7300 C   0  0  0  0  0  0  0  0  0  0  0  0
   58.3370   28.9770   43.9200 N   0  0  0  0  0  0  0  0  0  0  0  0
   57.0310   30.0890   44.1940 S   0  0  0  0  0  0  0  0  0  0  0  0
   56.2640   30.3110   42.9200 O   0  0  0  0  0  0  0  0  0  0  0  0
   56.1090   29.5190   45.2390 O   0  0  0  0  0  0  0  0  0  0  0  0
   57.6880   31.6420   44.7370 C   0  0  0  0  0  0  0  0  0  0  0  0
   57.7850   31.9110   46.1120 C   0  0  0  0  0  0  0  0  0  0  0  0
   58.3030   33.1280   46.5610 C   0  0  0  0  0  0  0  0  0  0  0  0
   58.7350   34.0890   45.6470 C   0  0  0  0  0  0  0  0  0  0  0  0
   58.6430   33.8360   44.2750 C   0  0  0  0  0  0  0  0  0  0  0  0
   58.1190   32.6200   43.8110 C   0  0  0  0  0  0  0  0  0  0  0  0
   58.0360   32.3990   42.3860 C   0  0  0  0  0  0  0  0  0  0  0  0
   57.9690   32.2240   41.2450 N   0  0  0  0  0  0  0  0  0  0  0  0
   57.7600   26.6570   44.5920 C   0  0  0  0  0  0  0  0  0  0  0  0
   55.7871   24.3255   46.8556 H   0  0  0  0  0  0  0  0  0  0  0  0
   55.2440   25.2330   45.4036 H   0  0  0  0  0  0  0  0  0  0  0  0
   55.2134   23.4370   45.4036 H   0  0  0  0  0  0  0  0  0  0  0  0
   59.2506   24.6559   46.9411 H   0  0  0  0  0  0  0  0  0  0  0  0
   60.6297   26.7116   47.2294 H   0  0  0  0  0  0  0  0  0  0  0  0
   60.1872   28.7264   45.8308 H   0  0  0  0  0  0  0  0  0  0  0  0
   58.8900   29.0970   43.0410 H   0  0  0  0  0  0  0  0  0  0  0  0
   57.4506   31.1578   46.8406 H   0  0  0  0  0  0  0  0  0  0  0  0
   58.3706   33.3294   47.6403 H   0  0  0  0  0  0  0  0  0  0  0  0
   59.1472   35.0440   46.0049 H   0  0  0  0  0  0  0  0  0  0  0  0
   58.9835   34.5948   43.5551 H   0  0  0  0  0  0  0  0  0  0  0  0
   56.9470   26.6415   43.8511 H   0  0  0  0  0  0  0  0  0  0  0  0
  1  2  1  0
  2  3  2  3
  3  4  1  0
  4  5  3  0
  3  6  1  0
  6  7  3  0
  2  8  1  0
  8  9  2  0
  9 10  1  0
 10 11  2  0
 11 12  1  0
 12 13  1  0
 13 14  1  0
 14 15  2  0
 14 16  2  0
 14 17  1  0
 17 18  2  0
 18 19  1  0
 19 20  2  0
 20 21  1  0
 21 22  2  0
 22 23  1  0
 23 24  3  0
 12 25  2  0
 25  8  1  0
 22 17  1  0
  1 26  1  0
  1 27  1  0
  1 28  1  0
  9 29  1  0
 10 30  1  0
 11 31  1  0
 13 32  1  0
 18 33  1  0
 19 34  1  0
 20 35  1  0
 21 36  1  0
 25 37  1  0
M  END
>  <UniqueID>  (64) 
59

>  <SMILES>  (64) 
CC(=C(C#N)C#N)c1cccc(NS(=O)(=O)c2ccccc2C#N)c1

>  <Energy>  (64) 
47.782466813125545

>  <Genealogy>  (64) 
CC(=C(C#N)C#N)c1cccc(NS(=O)(=O)c2ccccc2C#N)c1 (3D coordinates assigned)
CC(=C(C#N)C#N)c1cccc(NS(=O)(=O)c2ccccc2C#N)c1 (optimized conformer: 47.782466813125545 kcal/mol)

>  <smiles>  (64) 
CC(=C(C#N)C#N)c1cccc(NS(=O)(=O)c2ccccc2C#N)c1

>  <score_type>  (64) 
oracle

>  <origin>  (64) 
adg

>  <m_score__min__energy>  (64) 
-9.4900000000000002

>  <m_primary>  (64) 
energy

$$$$
64:0
     RDKit          3D

 27 28  0  0  0  0  0  0  0  0999 V2000
   55.1450   27.4860   45.3400 H   0  0  0  0  0  0  0  0  0  0  0  0
   55.0620   26.6960   45.9660 O   0  0  0  0  0  0  0  0  0  0  0  0
   56.1040   25.7950   46.1760 C   0  0  0  0  0  0  0  0  0  0  0  0
   55.8920   24.6350   46.8520 N   0  0  0  0  0  0  0  0  0  0  0  0
   57.0030   23.8720   46.8790 C   0  0  0  0  0  0  0  0  0  0  0  0
   57.0510   22.7480   47.4430 O   0  0  0  0  0  0  0  0  0  0  0  0
   58.2940   24.5830   46.0760 S   0  0  0  0  0  0  0  0  0  0  0  0
   57.4070   25.9610   45.6840 C   0  0  0  0  0  0  0  0  0  0  0  0
   57.9700   27.1010   44.9420 C   0  0  0  0  0  0  0  0  0  0  0  0
   57.8711   27.1244   43.8467 H   0  0  0  0  0  0  0  0  0  0  0  0
   58.5990   28.1110   45.5580 C   0  0  0  0  0  0  0  0  0  0  0  0
   59.4109   27.8625   46.2573 H   0  0  0  0  0  0  0  0  0  0  0  0
   58.2690   29.5450   45.3560 C   0  0  0  0  0  0  0  0  0  0  0  0
   58.5150   30.4420   46.4110 C   0  0  0  0  0  0  0  0  0  0  0  0
   58.9367   30.0699   47.3563 H   0  0  0  0  0  0  0  0  0  0  0  0
   58.2280   31.8020   46.2680 C   0  0  0  0  0  0  0  0  0  0  0  0
   58.4114   32.4914   47.1053 H   0  0  0  0  0  0  0  0  0  0  0  0
   57.7090   32.2900   45.0660 C   0  0  0  0  0  0  0  0  0  0  0  0
   57.3320   34.0370   44.8890 S   0  0  0  0  0  0  0  0  0  0  0  0
   58.9560   34.6130   45.4860 C   0  0  0  0  0  0  0  0  0  0  0  0
   58.9110   34.8320   46.8500 F   0  0  0  0  0  0  0  0  0  0  0  0
   59.2730   35.7980   44.8500 F   0  0  0  0  0  0  0  0  0  0  0  0
   59.9300   33.6740   45.1990 F   0  0  0  0  0  0  0  0  0  0  0  0
   57.4650   31.4090   44.0080 C   0  0  0  0  0  0  0  0  0  0  0  0
   57.0478   31.7892   43.0639 H   0  0  0  0  0  0  0  0  0  0  0  0
   57.7490   30.0470   44.1450 C   0  0  0  0  0  0  0  0  0  0  0  0
   57.5658   29.3629   43.3033 H   0  0  0  0  0  0  0  0  0  0  0  0
  1  2  1  0
  2  3  1  0
  3  4  1  0
  4  5  1  0
  5  6  2  0
  5  7  1  0
  7  8  1  0
  8  9  1  0
  9 10  1  0
  9 11  2  0
 11 12  1  0
 11 13  1  0
 13 14  2  0
 14 15  1  0
 14 16  1  0
 16 17  1  0
 16 18  2  0
 18 19  1  0
 19 20  1  0
 20 21  1  0
 20 22  1  0
 20 23  1  0
 18 24  1  0
 24 25  1  0
 24 26  2  0
 26 27  1  0
  8  3  2  0
 26 13  1  0
M  CHG  1   4  -1
M  END
>  <UniqueID>  (65) 
60

>  <SMILES>  (65) 
O=c1[n-]c(O)c(/C=C/c2ccc(SC(F)(F)F)cc2)s1

>  <Energy>  (65) 
60.99074052636797

>  <Genealogy>  (65) 
O=c1[n-]c(O)c(C=Cc2ccc(SC(F)(F)F)cc2)s1 (protonated)
O=c1[n-]c(O)c(/C=C/c2ccc(SC(F)(F)F)cc2)s1 (cis-trans isomerization)
O=c1[n-]c(O)c(/C=C/c2ccc(SC(F)(F)F)cc2)s1 (3D coordinates assigned)
O=c1[n-]c(O)c(/C=C/c2ccc(SC(F)(F)F)cc2)s1 (optimized conformer: 60.99074052636797 kcal/mol)

>  <smiles>  (65) 
O=c1[nH]c(O)c(C=Cc2ccc(SC(F)(F)F)cc2)s1

>  <score_type>  (65) 
oracle

>  <origin>  (65) 
adg

>  <m_score__min__energy>  (65) 
-10.039999999999999

>  <m_primary>  (65) 
energy

$$$$
65:0
     RDKit          3D

 36 38  0  0  0  0  0  0  0  0999 V2000
   60.7510   33.5070   45.8450 O   0  0  0  0  0  0  0  0  0  0  0  0
   60.6420   32.9050   46.9470 C   0  0  0  0  0  0  0  0  0  0  0  0
   59.6050   31.9220   47.1290 N   0  0  0  0  0  0  0  0  0  0  0  0
   58.7340   31.4780   46.0740 C   0  0  0  0  0  0  0  0  0  0  0  0
   58.1850   32.4190   45.1920 C   0  0  0  0  0  0  0  0  0  0  0  0
   57.3080   32.0160   44.1840 C   0  0  0  0  0  0  0  0  0  0  0  0
   56.9670   30.6690   44.0460 C   0  0  0  0  0  0  0  0  0  0  0  0
   57.5090   29.7100   44.9140 C   0  0  0  0  0  0  0  0  0  0  0  0
   57.0910   28.2970   44.7780 C   0  0  0  0  0  0  0  0  0  0  0  0
   57.7700   27.2400   45.2470 C   0  0  0  0  0  0  0  0  0  0  0  0
   57.1720   26.0700   45.9170 C   0  0  0  0  0  0  0  0  0  0  0  0
   57.8630   25.0550   46.3710 O   0  0  0  0  0  0  0  0  0  0  0  0
   57.0000   24.2310   46.9230 C   0  0  0  0  0  0  0  0  0  0  0  0
   57.3320   23.1390   47.4530 O   0  0  0  0  0  0  0  0  0  0  0  0
   55.7230   24.6640   46.8750 N   0  0  0  0  0  0  0  0  0  0  0  0
   55.8480   25.8420   46.2360 C   0  0  0  0  0  0  0  0  0  0  0  0
   54.7840   26.6990   45.9900 O   0  0  0  0  0  0  0  0  0  0  0  0
   58.3630   30.1260   45.9510 C   0  0  0  0  0  0  0  0  0  0  0  0
   61.5900   33.2350   48.0380 C   0  0  0  0  0  0  0  0  0  0  0  0
   62.9820   33.1060   47.8660 C   0  0  0  0  0  0  0  0  0  0  0  0
   63.8560   33.4180   48.9120 C   0  0  0  0  0  0  0  0  0  0  0  0
   63.3540   33.8560   50.1420 C   0  0  0  0  0  0  0  0  0  0  0  0
   64.4550   34.2460   51.4510 Cl  0  0  0  0  0  0  0  0  0  0  0  0
   61.9750   33.9760   50.3270 C   0  0  0  0  0  0  0  0  0  0  0  0
   61.0980   33.6630   49.2850 C   0  0  0  0  0  0  0  0  0  0  0  0
   59.4270   31.5340   48.0810 H   0  0  0  0  0  0  0  0  0  0  0  0
   58.4472   33.4823   45.2951 H   0  0  0  0  0  0  0  0  0  0  0  0
   56.8839   32.7620   43.4958 H   0  0  0  0  0  0  0  0  0  0  0  0
   56.2704   30.3588   43.2532 H   0  0  0  0  0  0  0  0  0  0  0  0
   56.1471   28.0976   44.2495 H   0  0  0  0  0  0  0  0  0  0  0  0
   58.8628   27.2460   45.1217 H   0  0  0  0  0  0  0  0  0  0  0  0
   58.7443   29.3882   46.6723 H   0  0  0  0  0  0  0  0  0  0  0  0
   63.3840   32.7577   46.9031 H   0  0  0  0  0  0  0  0  0  0  0  0
   64.9419   33.3187   48.7671 H   0  0  0  0  0  0  0  0  0  0  0  0
   61.5785   34.3175   51.2946 H   0  0  0  0  0  0  0  0  0  0  0  0
   60.0128   33.7520   49.4410 H   0  0  0  0  0  0  0  0  0  0  0  0
  1  2  2  0
  2  3  1  0
  3  4  1  0
  4  5  2  0
  5  6  1  0
  6  7  2  0
  7  8  1  0
  8  9  1  0
  9 10  2  3
 10 11  1  0
 11 12  1  0
 12 13  1  0
 13 14  2  0
 13 15  1  0
 15 16  1  0
 16 17  1  0
  8 18  2  0
  2 19  1  0
 19 20  2  0
 20 21  1  0
 21 22  2  0
 22 23  1  0
 22 24  1  0
 24 25  2  0
 18  4  1  0
 25 19  1  0
 16 11  2  0
  3 26  1  0
  5 27  1  0
  6 28  1  0
  7 29  1  0
  9 30  1  0
 10 31  1  0
 18 32  1  0
 20 33  1  0
 21 34  1  0
 24 35  1  0
 25 36  1  0
M  CHG  2  15  -1  17  -1
M  END
>  <UniqueID>  (66) 
61

>  <SMILES>  (66) 
O=C(Nc1cccc(C=Cc2oc(=O)[n-]c2[O-])c1)c1ccc(Cl)cc1

>  <Energy>  (66) 
85.85626992683268

>  <Genealogy>  (66) 
O=C(Nc1cccc(C=Cc2oc(=O)[n-]c2[O-])c1)c1ccc(Cl)cc1 (protonated)
O=C(Nc1cccc(C=Cc2oc(=O)[n-]c2[O-])c1)c1ccc(Cl)cc1 (3D coordinates assigned)
O=C(Nc1cccc(C=Cc2oc(=O)[n-]c2[O-])c1)c1ccc(Cl)cc1 (optimized conformer: 85.85626992683268 kcal/mol)

>  <smiles>  (66) 
O=C(Nc1cccc(C=Cc2oc(=O)[nH]c2O)c1)c1ccc(Cl)cc1

>  <score_type>  (66) 
oracle

>  <origin>  (66) 
adg

>  <m_score__min__energy>  (66) 
-15.199999999999999

>  <m_primary>  (66) 
energy

$$$$
66:0
     RDKit          3D

 51 54  0  0  1  0  0  0  0  0999 V2000
   57.2010   31.7740   43.1450 O   0  0  0  0  0  0  0  0  0  0  0  0
   57.3580   31.2960   44.2720 C   0  0  0  0  0  0  0  0  0  0  0  0
   57.2080   25.6840   46.3010 N   0  0  0  0  0  0  0  0  0  0  0  0
   56.5440   24.5820   46.0360 C   0  0  0  0  0  0  0  0  0  0  0  0
   56.9230   27.9920   45.6120 C   0  0  0  0  0  0  0  0  0  0  0  0
   57.3550   26.7250   45.3420 C   0  0  0  0  0  0  0  0  0  0  0  0
   56.6980   30.2110   44.8550 N   0  0  0  0  0  0  0  0  0  0  0  0
   57.0730   29.0040   44.6900 C   0  0  0  0  0  0  0  0  0  0  0  0
   56.9100   23.7830   45.0230 N   0  0  0  0  0  0  0  0  0  0  0  0
   56.2450   22.6540   44.7450 C   0  0  0  0  0  0  0  0  0  0  0  0
   56.6930   21.8220   43.6320 C   0  0  0  0  0  0  0  0  0  0  0  0
   55.9590   21.7950   42.6180 O   0  0  0  0  0  0  0  0  0  0  0  0
   57.8700   21.0850   43.6730 O   0  0  0  0  0  0  0  0  0  0  0  0
   57.9420   26.4910   44.1200 C   0  0  0  0  0  0  0  0  0  0  0  0
   58.1050   27.5020   43.1690 C   0  0  0  0  0  0  0  0  0  0  0  0
   57.6660   28.7240   43.4880 N   0  0  0  0  0  0  0  0  0  0  0  0
   55.1550   22.2750   45.4980 C   0  0  0  0  0  0  0  0  0  0  0  0
   54.8030   23.1170   46.5330 C   0  0  0  0  0  0  0  0  0  0  0  0
   55.4680   24.2520   46.8130 N   0  0  0  0  0  0  0  0  0  0  0  0
   58.3840   31.9650   45.1210 C   0  0  0  0  0  0  0  0  0  0  0  0
   58.5430   33.3330   45.1130 C   0  0  0  0  0  0  0  0  0  0  0  0
   59.5060   33.9270   45.9390 C   0  0  0  0  0  0  0  0  0  0  0  0
   60.3080   33.1720   46.7700 C   0  0  0  0  0  0  0  0  0  0  0  0
   61.3070   33.7530   47.6150 N   0  0  0  0  0  0  0  0  0  0  0  0
   60.8280   34.2730   48.8960 C   0  0  0  0  0  0  0  0  0  0  0  0
   61.8820   33.9680   49.9330 C   0  0  0  0  0  0  0  0  0  0  0  0
   63.0520   34.5630   49.4990 O   0  0  0  0  0  0  0  0  0  0  0  0
   63.5790   33.7850   48.4800 C   0  0  0  0  0  0  0  0  0  0  0  0
   62.7060   33.8110   47.2250 C   0  0  0  0  0  0  0  0  0  0  0  0
   60.1540   31.7890   46.7830 C   0  0  0  0  0  0  0  0  0  0  0  0
   59.2010   31.2460   45.9590 C   0  0  0  0  0  0  0  0  0  0  0  0
   56.4481   28.2075   46.5805 H   0  0  0  0  0  0  0  0  0  0  0  0
   57.7910   20.0840   43.7990 H   0  0  0  0  0  0  0  0  0  0  0  0
   58.2942   25.4760   43.8840 H   0  0  0  0  0  0  0  0  0  0  0  0
   58.5762   27.3002   42.1957 H   0  0  0  0  0  0  0  0  0  0  0  0
   57.7940   29.4920   42.7640 H   0  0  0  0  0  0  0  0  0  0  0  0
   54.5960   21.3517   45.2857 H   0  0  0  0  0  0  0  0  0  0  0  0
   53.9387   22.8475   47.1578 H   0  0  0  0  0  0  0  0  0  0  0  0
   55.1450   24.8220   47.5950 H   0  0  0  0  0  0  0  0  0  0  0  0
   57.9156   33.9574   44.4599 H   0  0  0  0  0  0  0  0  0  0  0  0
   59.6255   35.0204   45.9248 H   0  0  0  0  0  0  0  0  0  0  0  0
   60.6737   35.3599   48.8259 H   0  0  0  0  0  0  0  0  0  0  0  0
   59.8698   33.8069   49.1691 H   0  0  0  0  0  0  0  0  0  0  0  0
   61.5853   34.3822   50.9079 H   0  0  0  0  0  0  0  0  0  0  0  0
   62.0127   32.8828   50.0562 H   0  0  0  0  0  0  0  0  0  0  0  0
   64.5789   34.1656   48.2243 H   0  0  0  0  0  0  0  0  0  0  0  0
   63.6264   32.7459   48.8377 H   0  0  0  0  0  0  0  0  0  0  0  0
   62.8938   34.7392   46.6653 H   0  0  0  0  0  0  0  0  0  0  0  0
   62.9483   32.9475   46.5881 H   0  0  0  0  0  0  0  0  0  0  0  0
   60.7748   31.1533   47.4314 H   0  0  0  0  0  0  0  0  0  0  0  0
   59.0822   30.1525   45.9702 H   0  0  0  0  0  0  0  0  0  0  0  0
  1  2  2  0
  2  3  1  0
  3  4  2  0
  4  5  1  0
  5  6  2  0
  6  7  1  0
  7  8  2  0
  8  9  1  0
  9 10  2  0
 10 11  1  0
 11 12  2  0
 11 13  1  0
 10 14  1  0
 14 15  2  0
 15 16  1  0
  6 17  1  0
 17 18  2  0
 18 19  1  0
  2 20  1  0
 20 21  2  0
 21 22  1  0
 22 23  2  0
 23 24  1  0
 24 25  1  0
 25 26  1  0
 26 27  1  0
 27 28  1  0
 28 29  1  0
 23 30  1  0
 30 31  2  0
 19  4  1  0
 31 20  1  0
 16  8  1  0
 29 24  1  0
  5 32  1  0
 13 33  1  0
 14 34  1  0
 15 35  1  0
 16 36  1  0
 17 37  1  0
 18 38  1  0
 19 39  1  0
 21 40  1  0
 22 41  1  0
 25 42  1  0
 25 43  1  0
 26 44  1  0
 26 45  1  0
 28 46  1  0
 28 47  1  0
 29 48  1  0
 29 49  1  0
 30 50  1  0
 31 51  1  0
M  END
>  <smiles>  (67) 
O=C(N=c1cc(N=c2nc(C(=O)O)cc[nH]2)cc[nH]1)c1ccc(N2CCOCC2)cc1

>  <score_type>  (67) 
oracle

>  <origin>  (67) 
adg

>  <m_score__min__energy>  (67) 
-9.8800000000000008

>  <m_primary>  (67) 
energy

$$$$
67:0
     RDKit          3D

 45 48  0  0  0  0  0  0  0  0999 V2000
   59.1750   27.6170   44.1990 O   0  0  0  0  0  0  0  0  0  0  0  0
   58.0230   27.1700   44.3340 C   0  0  0  0  0  0  0  0  0  0  0  0
   57.0280   28.1690   44.6570 N   0  0  0  0  0  0  0  0  0  0  0  0
   57.5070   29.5030   44.7720 C   0  0  0  0  0  0  0  0  0  0  0  0
   58.4570   29.8400   45.7150 C   0  0  0  0  0  0  0  0  0  0  0  0
   58.9510   31.1190   45.8620 C   0  0  0  0  0  0  0  0  0  0  0  0
   58.4440   32.0870   45.0050 C   0  0  0  0  0  0  0  0  0  0  0  0
   58.9380   33.4860   45.1160 C   0  0  0  0  0  0  0  0  0  0  0  0
   59.0100   34.0170   46.8560 S   0  0  0  0  0  0  0  0  0  0  0  0
   60.7480   33.9180   47.3280 C   0  0  0  0  0  0  0  0  0  0  0  0
   61.7290   33.7890   46.3740 C   0  0  0  0  0  0  0  0  0  0  0  0
   63.0460   33.7180   46.8130 C   0  0  0  0  0  0  0  0  0  0  0  0
   63.3490   33.7760   48.1550 C   0  0  0  0  0  0  0  0  0  0  0  0
   62.3500   33.9050   49.1110 C   0  0  0  0  0  0  0  0  0  0  0  0
   61.0340   33.9760   48.6860 C   0  0  0  0  0  0  0  0  0  0  0  0
   57.4890   31.7440   44.0590 C   0  0  0  0  0  0  0  0  0  0  0  0
   57.0010   30.4630   43.9190 C   0  0  0  0  0  0  0  0  0  0  0  0
   57.5610   25.8110   44.2110 C   0  0  0  0  0  0  0  0  0  0  0  0
   57.4210   25.2470   42.9630 N   0  0  0  0  0  0  0  0  0  0  0  0
   57.0090   24.0210   42.7720 N   0  0  0  0  0  0  0  0  0  0  0  0
   56.6780   23.1840   43.7680 C   0  0  0  0  0  0  0  0  0  0  0  0
   56.2890   22.0210   43.4960 O   0  0  0  0  0  0  0  0  0  0  0  0
   56.7890   23.6730   45.0530 C   0  0  0  0  0  0  0  0  0  0  0  0
   56.4570   22.8390   46.0970 C   0  0  0  0  0  0  0  0  0  0  0  0
   56.5560   23.2920   47.3930 C   0  0  0  0  0  0  0  0  0  0  0  0
   56.9940   24.5860   47.5710 C   0  0  0  0  0  0  0  0  0  0  0  0
   57.3250   25.4190   46.5300 C   0  0  0  0  0  0  0  0  0  0  0  0
   57.2300   24.9790   45.2460 C   0  0  0  0  0  0  0  0  0  0  0  0
   56.0350   27.8920   44.7900 H   0  0  0  0  0  0  0  0  0  0  0  0
   58.8379   29.0513   46.3805 H   0  0  0  0  0  0  0  0  0  0  0  0
   59.7096   31.3607   46.6210 H   0  0  0  0  0  0  0  0  0  0  0  0
   59.9457   33.5473   44.6793 H   0  0  0  0  0  0  0  0  0  0  0  0
   58.2432   34.1466   44.5767 H   0  0  0  0  0  0  0  0  0  0  0  0
   61.4812   33.7436   45.3032 H   0  0  0  0  0  0  0  0  0  0  0  0
   63.8577   33.6140   46.0779 H   0  0  0  0  0  0  0  0  0  0  0  0
   64.3999   33.7192   48.4751 H   0  0  0  0  0  0  0  0  0  0  0  0
   62.5985   33.9498   50.1816 H   0  0  0  0  0  0  0  0  0  0  0  0
   60.2203   34.0777   49.4192 H   0  0  0  0  0  0  0  0  0  0  0  0
   57.1045   32.5291   43.3914 H   0  0  0  0  0  0  0  0  0  0  0  0
   56.2423   30.2165   43.1616 H   0  0  0  0  0  0  0  0  0  0  0  0
   56.9350   23.6800   41.7820 H   0  0  0  0  0  0  0  0  0  0  0  0
   56.1136   21.8135   45.8959 H   0  0  0  0  0  0  0  0  0  0  0  0
   56.2971   22.6499   48.2478 H   0  0  0  0  0  0  0  0  0  0  0  0
   57.0831   24.9712   48.5975 H   0  0  0  0  0  0  0  0  0  0  0  0
   57.6676   26.4440   46.7349 H   0  0  0  0  0  0  0  0  0  0  0  0
  1  2  2  0
  2  3  1  0
  3  4  1  0
  4  5  2  0
  5  6  1  0
  6  7  2  0
  7  8  1  0
  8  9  1  0
  9 10  1  0
 10 11  2  0
 11 12  1  0
 12 13  2  0
 13 14  1  0
 14 15  2  0
  7 16  1  0
 16 17  2  0
  2 18  1  0
 18 19  2  0
 19 20  1  0
 20 21  1  0
 21 22  2  0
 21 23  1  0
 23 24  2  0
 24 25  1  0
 25 26  2  0
 26 27  1  0
 27 28  2  0
 17  4  1  0
 28 18  1  0
 15 10  1  0
 28 23  1  0
  3 29  1  0
  5 30  1  0
  6 31  1  0
  8 32  1  0
  8 33  1  0
 11 34  1  0
 12 35  1  0
 13 36  1  0
 14 37  1  0
 15 38  1  0
 16 39  1  0
 17 40  1  0
 20 41  1  0
 24 42  1  0
 25 43  1  0
 26 44  1  0
 27 45  1  0
M  END
>  <smiles>  (68) 
O=C(Nc1ccc(CSc2ccccc2)cc1)c1n[nH]c(=O)c2ccccc12

>  <score_type>  (68) 
oracle

>  <origin>  (68) 
adg

>  <m_score__min__energy>  (68) 
-9.4600000000000009

>  <m_primary>  (68) 
energy

$$$$
68:0
     RDKit          3D

 31 32  0  0  0  0  0  0  0  0999 V2000
   58.1890   33.0311   47.6340 H   0  0  0  0  0  0  0  0  0  0  0  0
   58.1000   32.9450   46.5410 C   0  0  0  0  0  0  0  0  0  0  0  0
   57.3900   31.9210   45.9960 N   0  0  0  0  0  0  0  0  0  0  0  0
   57.2410   31.7720   44.6510 C   0  0  0  0  0  0  0  0  0  0  0  0
   56.5530   30.7550   44.2140 N   0  0  0  0  0  0  0  0  0  0  0  0
   56.3320   29.4930   44.8640 C   0  0  0  0  0  0  0  0  0  0  0  0
   55.1760   28.9950   44.8510 O   0  0  0  0  0  0  0  0  0  0  0  0
   57.4710   28.6820   45.4200 C   0  0  0  0  0  0  0  0  0  0  0  0
   57.1093   28.0944   46.2767 H   0  0  0  0  0  0  0  0  0  0  0  0
   57.8472   28.0181   44.6277 H   0  0  0  0  0  0  0  0  0  0  0  0
   58.5650   29.5460   45.8610 N   0  0  0  0  0  0  0  0  0  0  0  0
   58.8000   30.3990   45.3050 H   0  0  0  0  0  0  0  0  0  0  0  0
   59.3820   29.1930   46.9900 C   0  0  0  0  0  0  0  0  0  0  0  0
   59.2380   28.0630   47.5310 O   0  0  0  0  0  0  0  0  0  0  0  0
   60.4070   30.1260   47.5170 C   0  0  0  0  0  0  0  0  0  0  0  0
   60.8870   29.9740   48.8320 C   0  0  0  0  0  0  0  0  0  0  0  0
   60.5013   29.1593   49.4625 H   0  0  0  0  0  0  0  0  0  0  0  0
   61.8490   30.8490   49.3430 C   0  0  0  0  0  0  0  0  0  0  0  0
   62.2197   30.7183   50.3704 H   0  0  0  0  0  0  0  0  0  0  0  0
   62.3410   31.8900   48.5510 C   0  0  0  0  0  0  0  0  0  0  0  0
   63.6550   33.0860   49.2520 Br  0  0  0  0  0  0  0  0  0  0  0  0
   61.8630   32.0600   47.2490 C   0  0  0  0  0  0  0  0  0  0  0  0
   62.2450   32.8835   46.6278 H   0  0  0  0  0  0  0  0  0  0  0  0
   60.9000   31.1860   46.7330 C   0  0  0  0  0  0  0  0  0  0  0  0
   60.5259   31.3281   45.7084 H   0  0  0  0  0  0  0  0  0  0  0  0
   57.8710   32.6960   43.7890 C   0  0  0  0  0  0  0  0  0  0  0  0
   57.7865   32.5823   42.6982 H   0  0  0  0  0  0  0  0  0  0  0  0
   58.6020   33.7550   44.3310 C   0  0  0  0  0  0  0  0  0  0  0  0
   59.0878   34.4850   43.6668 H   0  0  0  0  0  0  0  0  0  0  0  0
   58.7160   33.8870   45.7150 C   0  0  0  0  0  0  0  0  0  0  0  0
   59.7170   35.3280   46.4700 Br  0  0  0  0  0  0  0  0  0  0  0  0
  1  2  1  0
  2  3  1  0
  3  4  1  0
  4  5  2  0
  5  6  1  0
  6  7  2  0
  6  8  1  0
  8  9  1  0
  8 10  1  0
  8 11  1  0
 11 12  1  0
 11 13  1  0
 13 14  2  0
 13 15  1  0
 15 16  2  0
 16 17  1  0
 16 18  1  0
 18 19  1  0
 18 20  2  0
 20 21  1  0
 20 22  1  0
 22 23  1  0
 22 24  2  0
 24 25  1  0
  4 26  1  0
 26 27  1  0
 26 28  2  0
 28 29  1  0
 28 30  1  0
 30 31  1  0
 30  2  2  0
 24 15  1  0
M  CHG  1   3  -1
M  END
>  <UniqueID>  (69) 
62

>  <SMILES>  (69) 
O=C(CNC(=O)c1ccc(Br)cc1)/N=c1\ccc(Br)c[n-]1

>  <Energy>  (69) 
41.35822476197689

>  <Genealogy>  (69) 
O=C(CNC(=O)c1ccc(Br)cc1)N=c1ccc(Br)c[n-]1 (protonated)
O=C(CNC(=O)c1ccc(Br)cc1)/N=c1\ccc(Br)c[n-]1 (cis-trans isomerization)
O=C(CNC(=O)c1ccc(Br)cc1)/N=c1\ccc(Br)c[n-]1 (3D coordinates assigned)
O=C(CNC(=O)c1ccc(Br)cc1)/N=c1\ccc(Br)c[n-]1 (optimized conformer: 41.35822476197689 kcal/mol)

>  <smiles>  (69) 
O=C(CNC(=O)c1ccc(Br)cc1)N=c1ccc(Br)c[nH]1

>  <score_type>  (69) 
oracle

>  <origin>  (69) 
adg

>  <m_score__min__energy>  (69) 
-9.6099999999999994

>  <m_primary>  (69) 
energy

$$$$
69:0
     RDKit          3D

 41 42  0  0  0  0  0  0  0  0999 V2000
   63.0510   33.9620   49.2130 C   0  0  0  0  0  0  0  0  0  0  0  0
   62.1070   34.2060   48.1060 N   0  0  0  0  0  0  0  0  0  0  0  0
   62.1430   33.0870   47.1400 C   0  0  0  0  0  0  0  0  0  0  0  0
   62.5420   31.8110   47.8310 C   0  0  0  0  0  0  0  0  0  0  0  0
   63.7640   31.5350   47.9570 O   0  0  0  0  0  0  0  0  0  0  0  0
   61.5670   30.8490   48.2520 N   0  0  0  0  0  0  0  0  0  0  0  0
   60.5320   30.2960   47.4320 C   0  0  0  0  0  0  0  0  0  0  0  0
   59.6790   29.3260   47.9710 C   0  0  0  0  0  0  0  0  0  0  0  0
   58.6160   28.8220   47.2170 C   0  0  0  0  0  0  0  0  0  0  0  0
   58.3840   29.2970   45.9210 C   0  0  0  0  0  0  0  0  0  0  0  0
   57.0200   28.6810   44.9940 S   0  0  0  0  0  0  0  0  0  0  0  0
   57.5610   28.2200   43.4190 N   0  0  0  0  0  0  0  0  0  0  0  0
   56.4200   27.4870   45.6850 O   0  0  0  0  0  0  0  0  0  0  0  0
   55.9700   29.7490   44.8750 O   0  0  0  0  0  0  0  0  0  0  0  0
   59.2220   30.2850   45.3860 C   0  0  0  0  0  0  0  0  0  0  0  0
   60.2880   30.7860   46.1390 C   0  0  0  0  0  0  0  0  0  0  0  0
   60.7430   34.3940   48.6440 C   0  0  0  0  0  0  0  0  0  0  0  0
   59.7140   34.1820   47.5590 C   0  0  0  0  0  0  0  0  0  0  0  0
   59.8090   34.9090   46.3590 C   0  0  0  0  0  0  0  0  0  0  0  0
   58.8830   34.7030   45.3320 C   0  0  0  0  0  0  0  0  0  0  0  0
   57.8580   33.7700   45.4900 C   0  0  0  0  0  0  0  0  0  0  0  0
   57.7450   33.0520   46.6830 C   0  0  0  0  0  0  0  0  0  0  0  0
   58.6590   33.2570   47.7230 C   0  0  0  0  0  0  0  0  0  0  0  0
   58.4580   32.3350   49.2080 Cl  0  0  0  0  0  0  0  0  0  0  0  0
   62.5321   34.0961   50.1736 H   0  0  0  0  0  0  0  0  0  0  0  0
   63.4376   32.9344   49.1454 H   0  0  0  0  0  0  0  0  0  0  0  0
   63.8871   34.6735   49.1454 H   0  0  0  0  0  0  0  0  0  0  0  0
   61.1455   32.9610   46.6937 H   0  0  0  0  0  0  0  0  0  0  0  0
   62.8811   33.3149   46.3568 H   0  0  0  0  0  0  0  0  0  0  0  0
   59.8464   28.9583   48.9941 H   0  0  0  0  0  0  0  0  0  0  0  0
   57.9593   28.0494   47.6434 H   0  0  0  0  0  0  0  0  0  0  0  0
   56.7380   27.8150   42.9190 H   0  0  0  0  0  0  0  0  0  0  0  0
   57.8190   29.0970   42.9150 H   0  0  0  0  0  0  0  0  0  0  0  0
   59.0403   30.6673   44.3707 H   0  0  0  0  0  0  0  0  0  0  0  0
   60.9379   31.5668   45.7171 H   0  0  0  0  0  0  0  0  0  0  0  0
   60.5700   33.6699   49.4538 H   0  0  0  0  0  0  0  0  0  0  0  0
   60.6497   35.4206   49.0279 H   0  0  0  0  0  0  0  0  0  0  0  0
   60.6167   35.6441   46.2276 H   0  0  0  0  0  0  0  0  0  0  0  0
   58.9628   35.2778   44.3975 H   0  0  0  0  0  0  0  0  0  0  0  0
   57.1388   33.5997   44.6753 H   0  0  0  0  0  0  0  0  0  0  0  0
   56.9324   32.3208   46.8058 H   0  0  0  0  0  0  0  0  0  0  0  0
  1  2  1  0
  2  3  1  0
  3  4  1  0
  4  5  2  0
  4  6  1  0
  6  7  1  0
  7  8  2  0
  8  9  1  0
  9 10  2  0
 10 11  1  0
 11 12  1  0
 11 13  2  0
 11 14  2  0
 10 15  1  0
 15 16  2  0
  2 17  1  0
 17 18  1  0
 18 19  2  0
 19 20  1  0
 20 21  2  0
 21 22  1  0
 22 23  2  0
 23 24  1  0
 16  7  1  0
 23 18  1  0
  1 25  1  0
  1 26  1  0
  1 27  1  0
  3 28  1  0
  3 29  1  0
  8 30  1  0
  9 31  1  0
 12 32  1  0
 12 33  1  0
 15 34  1  0
 16 35  1  0
 17 36  1  0
 17 37  1  0
 19 38  1  0
 20 39  1  0
 21 40  1  0
 22 41  1  0
M  CHG  1   6  -1
M  END
>  <UniqueID>  (70) 
63

>  <SMILES>  (70) 
CN(CC(=O)[N-]c1ccc(S(N)(=O)=O)cc1)Cc1ccccc1Cl

>  <Energy>  (70) 
40.581065226323695

>  <Genealogy>  (70) 
CN(CC(=O)[N-]c1ccc(S(N)(=O)=O)cc1)Cc1ccccc1Cl (protonated)
CN(CC(=O)[N-]c1ccc(S(N)(=O)=O)cc1)Cc1ccccc1Cl (3D coordinates assigned)
CN(CC(=O)[N-]c1ccc(S(N)(=O)=O)cc1)Cc1ccccc1Cl (optimized conformer: 40.581065226323695 kcal/mol)

>  <smiles>  (70) 
CN(CC(=O)Nc1ccc(S(N)(=O)=O)cc1)Cc1ccccc1Cl

>  <score_type>  (70) 
oracle

>  <origin>  (70) 
adg

>  <m_score__min__energy>  (70) 
-10.43

>  <m_primary>  (70) 
energy

$$$$
70:0
     RDKit          3D

 45 47  0  0  0  0  0  0  0  0999 V2000
   56.3010   31.0650   44.7110 O   0  0  0  0  0  0  0  0  0  0  0  0
   57.4150   31.0320   44.1270 C   0  0  0  0  0  0  0  0  0  0  0  0
   57.8850   32.2460   43.3820 C   0  0  0  0  0  0  0  0  0  0  0  0
   57.5430   33.5500   44.1210 C   0  0  0  0  0  0  0  0  0  0  0  0
   57.2570   33.3060   45.5390 N   0  0  0  0  0  0  0  0  0  0  0  0
   58.2220   33.4920   46.5910 C   0  0  0  0  0  0  0  0  0  0  0  0
   58.2020   32.7060   47.7570 C   0  0  0  0  0  0  0  0  0  0  0  0
   59.0980   32.9620   48.7970 C   0  0  0  0  0  0  0  0  0  0  0  0
   60.0330   34.0080   48.6870 C   0  0  0  0  0  0  0  0  0  0  0  0
   60.9560   34.2980   49.7010 O   0  0  0  0  0  0  0  0  0  0  0  0
   62.2930   33.8850   49.7180 C   0  0  0  0  0  0  0  0  0  0  0  0
   63.1290   34.1350   50.8200 C   0  0  0  0  0  0  0  0  0  0  0  0
   64.4550   33.6970   50.8040 C   0  0  0  0  0  0  0  0  0  0  0  0
   64.9550   33.0160   49.6980 C   0  0  0  0  0  0  0  0  0  0  0  0
   64.1340   32.7780   48.5950 C   0  0  0  0  0  0  0  0  0  0  0  0
   62.8140   33.2310   48.5980 C   0  0  0  0  0  0  0  0  0  0  0  0
   60.0870   34.7530   47.5020 C   0  0  0  0  0  0  0  0  0  0  0  0
   59.1920   34.4960   46.4580 C   0  0  0  0  0  0  0  0  0  0  0  0
   58.2690   29.8880   44.2390 N   0  0  0  0  0  0  0  0  0  0  0  0
   57.9180   28.6460   44.8800 C   0  0  0  0  0  0  0  0  0  0  0  0
   58.9350   27.7250   45.1650 C   0  0  0  0  0  0  0  0  0  0  0  0
   58.6310   26.4840   45.7310 C   0  0  0  0  0  0  0  0  0  0  0  0
   57.3050   26.1490   46.0150 C   0  0  0  0  0  0  0  0  0  0  0  0
   56.2820   27.0490   45.7280 C   0  0  0  0  0  0  0  0  0  0  0  0
   54.9610   26.7100   46.0020 O   0  0  0  0  0  0  0  0  0  0  0  0
   56.5830   28.2890   45.1560 C   0  0  0  0  0  0  0  0  0  0  0  0
   58.9763   32.1850   43.2580 H   0  0  0  0  0  0  0  0  0  0  0  0
   57.3717   32.2648   42.4093 H   0  0  0  0  0  0  0  0  0  0  0  0
   58.3963   34.2397   44.0421 H   0  0  0  0  0  0  0  0  0  0  0  0
   56.6445   33.9835   43.6576 H   0  0  0  0  0  0  0  0  0  0  0  0
   56.3110   32.9380   45.7910 H   0  0  0  0  0  0  0  0  0  0  0  0
   57.4762   31.8847   47.8503 H   0  0  0  0  0  0  0  0  0  0  0  0
   59.0729   32.3434   49.7062 H   0  0  0  0  0  0  0  0  0  0  0  0
   62.7388   34.6756   51.6949 H   0  0  0  0  0  0  0  0  0  0  0  0
   65.1066   33.8910   51.6687 H   0  0  0  0  0  0  0  0  0  0  0  0
   65.9976   32.6653   49.6933 H   0  0  0  0  0  0  0  0  0  0  0  0
   64.5270   32.2337   47.7237 H   0  0  0  0  0  0  0  0  0  0  0  0
   62.1797   33.0724   47.7134 H   0  0  0  0  0  0  0  0  0  0  0  0
   60.8399   35.5473   47.3914 H   0  0  0  0  0  0  0  0  0  0  0  0
   59.2493   35.0834   45.5297 H   0  0  0  0  0  0  0  0  0  0  0  0
   59.2470   29.9880   43.8760 H   0  0  0  0  0  0  0  0  0  0  0  0
   59.9812   27.9810   44.9414 H   0  0  0  0  0  0  0  0  0  0  0  0
   59.4374   25.7696   45.9533 H   0  0  0  0  0  0  0  0  0  0  0  0
   57.0688   25.1737   46.4656 H   0  0  0  0  0  0  0  0  0  0  0  0
   55.7706   28.9919   44.9194 H   0  0  0  0  0  0  0  0  0  0  0  0
  1  2  2  0
  2  3  1  0
  3  4  1  0
  4  5  1  0
  5  6  1  0
  6  7  2  0
  7  8  1  0
  8  9  2  0
  9 10  1  0
 10 11  1  0
 11 12  2  0
 12 13  1  0
 13 14  2  0
 14 15  1  0
 15 16  2  0
  9 17  1  0
 17 18  2  0
  2 19  1  0
 19 20  1  0
 20 21  2  0
 21 22  1  0
 22 23  2  0
 23 24  1  0
 24 25  1  0
 24 26  2  0
 18  6  1  0
 26 20  1  0
 16 11  1  0
  3 27  1  0
  3 28  1  0
  4 29  1  0
  4 30  1  0
  5 31  1  0
  7 32  1  0
  8 33  1  0
 12 34  1  0
 13 35  1  0
 14 36  1  0
 15 37  1  0
 16 38  1  0
 17 39  1  0
 18 40  1  0
 19 41  1  0
 21 42  1  0
 22 43  1  0
 23 44  1  0
 26 45  1  0
M  CHG  1  25  -1
M  END
>  <UniqueID>  (71) 
64

>  <SMILES>  (71) 
O=C(CCNc1ccc(Oc2ccccc2)cc1)Nc1cccc([O-])c1

>  <Energy>  (71) 
52.999644923801384

>  <Genealogy>  (71) 
O=C(CCNc1ccc(Oc2ccccc2)cc1)Nc1cccc([O-])c1 (protonated)
O=C(CCNc1ccc(Oc2ccccc2)cc1)Nc1cccc([O-])c1 (3D coordinates assigned)
O=C(CCNc1ccc(Oc2ccccc2)cc1)Nc1cccc([O-])c1 (optimized conformer: 52.999644923801384 kcal/mol)

>  <smiles>  (71) 
O=C(CCNc1ccc(Oc2ccccc2)cc1)Nc1cccc(O)c1

>  <score_type>  (71) 
oracle

>  <origin>  (71) 
adg

>  <m_score__min__energy>  (71) 
-12.289999999999999

>  <m_primary>  (71) 
energy

$$$$
71:0
     RDKit          3D

 42 45  0  0  0  0  0  0  0  0999 V2000
   56.8900   29.0630   45.0760 H   0  0  0  0  0  0  0  0  0  0  0  0
   56.1030   28.4560   45.2600 O   0  0  0  0  0  0  0  0  0  0  0  0
   56.2640   27.1500   45.7180 C   0  0  0  0  0  0  0  0  0  0  0  0
   55.2300   26.3340   45.9780 N   0  0  0  0  0  0  0  0  0  0  0  0
   55.8360   25.2010   46.3860 C   0  0  0  0  0  0  0  0  0  0  0  0
   55.1940   24.1740   46.7290 O   0  0  0  0  0  0  0  0  0  0  0  0
   57.1830   25.2540   46.3970 N   0  0  0  0  0  0  0  0  0  0  0  0
   57.4590   26.5000   45.9700 C   0  0  0  0  0  0  0  0  0  0  0  0
   58.8170   27.0650   45.8010 C   0  0  0  0  0  0  0  0  0  0  0  0
   59.3879   26.7536   44.9138 H   0  0  0  0  0  0  0  0  0  0  0  0
   60.1600   31.1890   47.7230 C   0  0  0  0  0  0  0  0  0  0  0  0
   60.1950   27.6940   47.7760 C   0  0  0  0  0  0  0  0  0  0  0  0
   60.4653   26.7010   48.1645 H   0  0  0  0  0  0  0  0  0  0  0  0
   60.5750   28.8750   48.3220 N   0  0  0  0  0  0  0  0  0  0  0  0
   60.0570   29.8370   47.5770 N   0  0  0  0  0  0  0  0  0  0  0  0
   59.4080   27.9280   46.6450 C   0  0  0  0  0  0  0  0  0  0  0  0
   60.8330   31.7540   48.6840 N   0  0  0  0  0  0  0  0  0  0  0  0
   62.2140   32.2240   48.6180 C   0  0  0  0  0  0  0  0  0  0  0  0
   62.3841   32.3402   49.6985 H   0  0  0  0  0  0  0  0  0  0  0  0
   63.0140   31.6320   47.4730 C   0  0  0  0  0  0  0  0  0  0  0  0
   64.0931   31.4534   47.5902 H   0  0  0  0  0  0  0  0  0  0  0  0
   62.9322   30.7278   46.8520 H   0  0  0  0  0  0  0  0  0  0  0  0
   62.4840   33.0550   47.3780 C   0  0  0  0  0  0  0  0  0  0  0  0
   63.1797   33.9057   47.4264 H   0  0  0  0  0  0  0  0  0  0  0  0
   61.8599   33.6068   46.6597 H   0  0  0  0  0  0  0  0  0  0  0  0
   59.5260   31.9760   46.8100 N   0  0  0  0  0  0  0  0  0  0  0  0
   58.8090   31.4310   45.7790 C   0  0  0  0  0  0  0  0  0  0  0  0
   58.1440   32.2890   44.8280 N   0  0  0  0  0  0  0  0  0  0  0  0
   57.7810   33.6550   45.2180 C   0  0  0  0  0  0  0  0  0  0  0  0
   57.7611   33.7300   46.3153 H   0  0  0  0  0  0  0  0  0  0  0  0
   58.5228   34.3606   44.8157 H   0  0  0  0  0  0  0  0  0  0  0  0
   56.7868   33.8992   44.8157 H   0  0  0  0  0  0  0  0  0  0  0  0
   57.7780   31.7980   43.4910 C   0  0  0  0  0  0  0  0  0  0  0  0
   57.4544   32.6470   42.8709 H   0  0  0  0  0  0  0  0  0  0  0  0
   58.6552   31.3091   43.0422 H   0  0  0  0  0  0  0  0  0  0  0  0
   56.6410   30.7800   43.5800 C   0  0  0  0  0  0  0  0  0  0  0  0
   55.9195   30.9693   42.7716 H   0  0  0  0  0  0  0  0  0  0  0  0
   57.0575   29.7667   43.4815 H   0  0  0  0  0  0  0  0  0  0  0  0
   55.9910   30.8890   44.8150 O   0  0  0  0  0  0  0  0  0  0  0  0
   56.6250   30.5350   45.4920 H   0  0  0  0  0  0  0  0  0  0  0  0
   58.7240   30.0740   45.6580 N   0  0  0  0  0  0  0  0  0  0  0  0
   59.3570   29.3030   46.5720 C   0  0  0  0  0  0  0  0  0  0  0  0
  1  2  1  0
  2  3  1  0
  3  4  1  0
  4  5  1  0
  5  6  2  0
  5  7  1  0
  7  8  1  0
  8  9  1  0
  9 10  1  0
  9 11  2  0
 11 12  1  0
 12 13  1  0
 12 14  2  0
 14 15  1  0
 15 16  1  0
 16 17  2  0
 17 18  1  0
 18 19  1  0
 18 20  1  0
 20 21  1  0
 20 22  1  0
 20 23  1  0
 23 24  1  0
 23 25  1  0
 16 26  1  0
 26 27  2  0
 27 28  1  0
 28 29  1  0
 29 30  1  0
 29 31  1  0
 29 32  1  0
 28 33  1  0
 33 34  1  0
 33 35  1  0
 33 36  1  0
 36 37  1  0
 36 38  1  0
 36 39  1  0
 39 40  1  0
 27 41  1  0
 41 42  2  0
  8  3  2  0
 42 11  1  0
 42 15  1  0
 23 18  1  0
M  CHG  2   4  -1   7  -1
M  END
>  <UniqueID>  (72) 
65

>  <SMILES>  (72) 
CN(CCO)c1n/c(=N/C2CC2)n2nc/c(=C\c3[n-]c(=O)[n-]c3O)c2n1

>  <Energy>  (72) 
377.5463378513572

>  <Genealogy>  (72) 
CN(CCO)c1nc(=NC2CC2)n2ncc(=Cc3[n-]c(=O)[n-]c3O)c2n1 (protonated)
CN(CCO)c1n/c(=N/C2CC2)n2nc/c(=C\c3[n-]c(=O)[n-]c3O)c2n1 (cis-trans isomerization)
CN(CCO)c1n/c(=N/C2CC2)n2nc/c(=C\c3[n-]c(=O)[n-]c3O)c2n1 (3D coordinates assigned)
CN(CCO)c1n/c(=N/C2CC2)n2nc/c(=C\c3[n-]c(=O)[n-]c3O)c2n1 (nonaromatic ring conformer: 377.5463378513572 kcal/mol)

>  <smiles>  (72) 
CN(CCO)c1nc(=NC2CC2)n2ncc(=Cc3[nH]c(=O)[nH]c3O)c2n1

>  <score_type>  (72) 
oracle

>  <origin>  (72) 
adg

>  <m_score__min__energy>  (72) 
-11.65

>  <m_primary>  (72) 
energy

$$$$
72:0
     RDKit          3D

 31 32  0  0  0  0  0  0  0  0999 V2000
   56.6660   22.4170   48.7580 C   0  0  0  0  0  0  0  0  0  0  0  0
   57.1900   23.3390   47.7590 N   0  0  0  0  0  0  0  0  0  0  0  0
   56.3860   24.2790   47.0360 C   0  0  0  0  0  0  0  0  0  0  0  0
   55.1750   24.0120   46.8230 O   0  0  0  0  0  0  0  0  0  0  0  0
   56.9320   25.5630   46.5620 C   0  0  0  0  0  0  0  0  0  0  0  0
   58.3130   25.7910   46.6370 C   0  0  0  0  0  0  0  0  0  0  0  0
   58.8530   26.9930   46.1760 C   0  0  0  0  0  0  0  0  0  0  0  0
   58.0150   27.9860   45.6640 C   0  0  0  0  0  0  0  0  0  0  0  0
   56.6290   27.7980   45.6330 C   0  0  0  0  0  0  0  0  0  0  0  0
   55.8050   28.8690   45.1490 N   0  0  0  0  0  0  0  0  0  0  0  0
   56.2340   29.9500   44.3100 C   0  0  0  0  0  0  0  0  0  0  0  0
   56.6290   29.6980   43.1430 O   0  0  0  0  0  0  0  0  0  0  0  0
   56.2170   31.3130   44.7590 N   0  0  0  0  0  0  0  0  0  0  0  0
   57.3570   32.0700   45.1880 C   0  0  0  0  0  0  0  0  0  0  0  0
   57.4180   33.4640   45.0450 C   0  0  0  0  0  0  0  0  0  0  0  0
   58.5510   34.1590   45.4730 C   0  0  0  0  0  0  0  0  0  0  0  0
   59.6040   33.4550   46.0580 C   0  0  0  0  0  0  0  0  0  0  0  0
   59.5180   32.1070   46.2150 N   0  0  0  0  0  0  0  0  0  0  0  0
   58.4260   31.4090   45.8040 C   0  0  0  0  0  0  0  0  0  0  0  0
   56.0860   26.5680   46.0590 C   0  0  0  0  0  0  0  0  0  0  0  0
   54.7140   26.3420   45.9840 O   0  0  0  0  0  0  0  0  0  0  0  0
   56.8855   22.8032   49.7643 H   0  0  0  0  0  0  0  0  0  0  0  0
   55.5776   22.3196   48.6320 H   0  0  0  0  0  0  0  0  0  0  0  0
   57.1393   21.4321   48.6320 H   0  0  0  0  0  0  0  0  0  0  0  0
   58.9736   25.0201   47.0606 H   0  0  0  0  0  0  0  0  0  0  0  0
   59.9398   27.1582   46.2161 H   0  0  0  0  0  0  0  0  0  0  0  0
   58.4478   28.9225   45.2824 H   0  0  0  0  0  0  0  0  0  0  0  0
   56.5744   34.0090   44.5963 H   0  0  0  0  0  0  0  0  0  0  0  0
   58.6127   35.2504   45.3502 H   0  0  0  0  0  0  0  0  0  0  0  0
   60.5045   33.9909   46.3925 H   0  0  0  0  0  0  0  0  0  0  0  0
   58.3825   30.3205   45.9562 H   0  0  0  0  0  0  0  0  0  0  0  0
  1  2  1  0
  2  3  1  0
  3  4  2  0
  3  5  1  0
  5  6  2  0
  6  7  1  0
  7  8  2  0
  8  9  1  0
  9 10  1  0
 10 11  1  0
 11 12  2  0
 11 13  1  0
 13 14  1  0
 14 15  2  0
 15 16  1  0
 16 17  2  0
 17 18  1  0
 18 19  2  0
  9 20  2  0
 20 21  1  0
 20  5  1  0
 19 14  1  0
  1 22  1  0
  1 23  1  0
  1 24  1  0
  6 25  1  0
  7 26  1  0
  8 27  1  0
 15 28  1  0
 16 29  1  0
 17 30  1  0
 19 31  1  0
M  CHG  4   2  -1  10  -1  13  -1  21  -1
M  END
>  <UniqueID>  (73) 
66

>  <SMILES>  (73) 
C[N-]C(=O)c1cccc([N-]C(=O)[N-]c2cccnc2)c1[O-]

>  <Energy>  (73) 
46.18945047750662

>  <Genealogy>  (73) 
C[N-]C(=O)c1cccc([N-]C(=O)[N-]c2cccnc2)c1[O-] (protonated)
C[N-]C(=O)c1cccc([N-]C(=O)[N-]c2cccnc2)c1[O-] (3D coordinates assigned)
C[N-]C(=O)c1cccc([N-]C(=O)[N-]c2cccnc2)c1[O-] (optimized conformer: 46.18945047750662 kcal/mol)

>  <smiles>  (73) 
CNC(=O)c1cccc(NC(=O)Nc2cccnc2)c1O

>  <score_type>  (73) 
oracle

>  <origin>  (73) 
adg

>  <m_score__min__energy>  (73) 
-15.99

>  <m_primary>  (73) 
energy

$$$$
73:0
     RDKit          3D

 45 47  0  0  0  0  0  0  0  0999 V2000
   59.9864   26.8957   46.4713 H   0  0  0  0  0  0  0  0  0  0  0  0
   58.9110   26.6970   46.3530 C   0  0  0  0  0  0  0  0  0  0  0  0
   58.3950   25.4400   46.6690 C   0  0  0  0  0  0  0  0  0  0  0  0
   59.0666   24.6442   47.0236 H   0  0  0  0  0  0  0  0  0  0  0  0
   57.0270   25.1900   46.5360 C   0  0  0  0  0  0  0  0  0  0  0  0
   56.6248   24.1990   46.7933 H   0  0  0  0  0  0  0  0  0  0  0  0
   56.1590   26.2000   46.0740 C   0  0  0  0  0  0  0  0  0  0  0  0
   54.7720   25.9980   45.9940 O   0  0  0  0  0  0  0  0  0  0  0  0
   54.1520   24.7700   45.6280 C   0  0  0  0  0  0  0  0  0  0  0  0
   53.8721   24.2157   46.5359 H   0  0  0  0  0  0  0  0  0  0  0  0
   53.2506   24.9775   45.0326 H   0  0  0  0  0  0  0  0  0  0  0  0
   54.8541   24.1679   45.0326 H   0  0  0  0  0  0  0  0  0  0  0  0
   56.6950   27.4560   45.7150 C   0  0  0  0  0  0  0  0  0  0  0  0
   55.8670   28.5240   45.2370 N   0  0  0  0  0  0  0  0  0  0  0  0
   56.2410   29.4860   44.2420 C   0  0  0  0  0  0  0  0  0  0  0  0
   56.6310   29.1060   43.1050 O   0  0  0  0  0  0  0  0  0  0  0  0
   56.1710   30.8880   44.5190 N   0  0  0  0  0  0  0  0  0  0  0  0
   57.2450   31.7120   44.9940 C   0  0  0  0  0  0  0  0  0  0  0  0
   58.1250   31.1870   45.9490 C   0  0  0  0  0  0  0  0  0  0  0  0
   57.9907   30.1554   46.3064 H   0  0  0  0  0  0  0  0  0  0  0  0
   59.1720   31.9640   46.4510 C   0  0  0  0  0  0  0  0  0  0  0  0
   59.8686   31.5354   47.1866 H   0  0  0  0  0  0  0  0  0  0  0  0
   59.3380   33.2870   46.0210 C   0  0  0  0  0  0  0  0  0  0  0  0
   60.6620   34.2610   46.6470 S   0  0  0  0  0  0  0  0  0  0  0  0
   60.3950   35.7150   46.3730 O   0  0  0  0  0  0  0  0  0  0  0  0
   61.9400   33.8420   45.9770 O   0  0  0  0  0  0  0  0  0  0  0  0
   60.7870   34.0240   48.3610 N   0  0  0  0  0  0  0  0  0  0  0  0
   61.9040   33.7440   48.9570 C   0  0  0  0  0  0  0  0  0  0  0  0
   62.4350   34.4820   49.9570 N   0  0  0  0  0  0  0  0  0  0  0  0
   63.5860   33.9890   50.4080 N   0  0  0  0  0  0  0  0  0  0  0  0
   63.9750   32.8660   49.7610 C   0  0  0  0  0  0  0  0  0  0  0  0
   65.2000   32.0890   50.1220 C   0  0  0  0  0  0  0  0  0  0  0  0
   65.3478   31.2849   49.3861 H   0  0  0  0  0  0  0  0  0  0  0  0
   65.0667   31.6648   51.1281 H   0  0  0  0  0  0  0  0  0  0  0  0
   66.4270   32.9930   50.1290 C   0  0  0  0  0  0  0  0  0  0  0  0
   66.7184   33.2077   51.1678 H   0  0  0  0  0  0  0  0  0  0  0  0
   67.2569   32.4888   49.6121 H   0  0  0  0  0  0  0  0  0  0  0  0
   66.1914   33.9350   49.6121 H   0  0  0  0  0  0  0  0  0  0  0  0
   62.8580   32.4130   48.5800 S   0  0  0  0  0  0  0  0  0  0  0  0
   58.4470   33.8240   45.0810 C   0  0  0  0  0  0  0  0  0  0  0  0
   58.5723   34.8616   44.7379 H   0  0  0  0  0  0  0  0  0  0  0  0
   57.4000   33.0460   44.5780 C   0  0  0  0  0  0  0  0  0  0  0  0
   56.6946   33.4794   43.8537 H   0  0  0  0  0  0  0  0  0  0  0  0
   58.0630   27.7020   45.8870 C   0  0  0  0  0  0  0  0  0  0  0  0
   58.4722   28.6958   45.6527 H   0  0  0  0  0  0  0  0  0  0  0  0
  1  2  1  0
  2  3  2  0
  3  4  1  0
  3  5  1  0
  5  6  1  0
  5  7  2  0
  7  8  1  0
  8  9  1  0
  9 10  1  0
  9 11  1  0
  9 12  1  0
  7 13  1  0
 13 14  1  0
 14 15  1  0
 15 16  2  0
 15 17  1  0
 17 18  1  0
 18 19  2  0
 19 20  1  0
 19 21  1  0
 21 22  1  0
 21 23  2  0
 23 24  1  0
 24 25  2  0
 24 26  2  0
 24 27  1  0
 27 28  2  0
 28 29  1  0
 29 30  1  0
 30 31  2  0
 31 32  1  0
 32 33  1  0
 32 34  1  0
 32 35  1  0
 35 36  1  0
 35 37  1  0
 35 38  1  0
 31 39  1  0
 23 40  1  0
 40 41  1  0
 40 42  2  0
 42 43  1  0
 13 44  2  0
 44 45  1  0
 44  2  1  0
 42 18  1  0
 39 28  1  0
M  CHG  3  14  -1  17  -1  29  -1
M  END
>  <UniqueID>  (74) 
67

>  <SMILES>  (74) 
CCc1n[n-]/c(=N\S(=O)(=O)c2ccc([N-]C(=O)[N-]c3ccccc3OC)cc2)s1

>  <Energy>  (74) 
89.2042777273861

>  <Genealogy>  (74) 
CCc1n[n-]c(=NS(=O)(=O)c2ccc([N-]C(=O)[N-]c3ccccc3OC)cc2)s1 (protonated)
CCc1n[n-]/c(=N\S(=O)(=O)c2ccc([N-]C(=O)[N-]c3ccccc3OC)cc2)s1 (cis-trans isomerization)
CCc1n[n-]/c(=N\S(=O)(=O)c2ccc([N-]C(=O)[N-]c3ccccc3OC)cc2)s1 (3D coordinates assigned)
CCc1n[n-]/c(=N\S(=O)(=O)c2ccc([N-]C(=O)[N-]c3ccccc3OC)cc2)s1 (optimized conformer: 89.2042777273861 kcal/mol)

>  <smiles>  (74) 
CCc1n[nH]c(=NS(=O)(=O)c2ccc(NC(=O)Nc3ccccc3OC)cc2)s1

>  <score_type>  (74) 
oracle

>  <origin>  (74) 
adg

>  <m_score__min__energy>  (74) 
-13.74

>  <m_primary>  (74) 
energy

$$$$
74:0
     RDKit          3D

 34 36  0  0  0  0  0  0  0  0999 V2000
   60.4550   34.9340   46.5670 O   0  0  0  0  0  0  0  0  0  0  0  0
   59.9510   34.2220   47.4740 C   0  0  0  0  0  0  0  0  0  0  0  0
   59.0100   33.2450   47.1650 C   0  0  0  0  0  0  0  0  0  0  0  0
   58.4860   32.5040   48.1730 N   0  0  0  0  0  0  0  0  0  0  0  0
   58.8460   32.6900   49.4470 N   0  0  0  0  0  0  0  0  0  0  0  0
   58.2390   31.8620   50.4570 C   0  0  0  0  0  0  0  0  0  0  0  0
   58.5850   30.5040   50.5810 C   0  0  0  0  0  0  0  0  0  0  0  0
   58.0030   29.7150   51.5780 C   0  0  0  0  0  0  0  0  0  0  0  0
   57.0750   30.2730   52.4660 C   0  0  0  0  0  0  0  0  0  0  0  0
   56.3300   29.2790   53.7140 S   0  0  0  0  0  0  0  0  0  0  0  0
   57.0640   27.9760   53.8640 O   0  0  0  0  0  0  0  0  0  0  0  0
   56.3760   30.0210   55.0190 O   0  0  0  0  0  0  0  0  0  0  0  0
   54.6750   28.9530   53.3050 N   0  0  0  0  0  0  0  0  0  0  0  0
   53.7590   29.9070   52.7520 C   0  0  0  0  0  0  0  0  0  0  0  0
   52.7320   30.4010   53.5690 C   0  0  0  0  0  0  0  0  0  0  0  0
   51.8210   31.3380   53.0720 C   0  0  0  0  0  0  0  0  0  0  0  0
   51.9270   31.7870   51.7530 C   0  0  0  0  0  0  0  0  0  0  0  0
   51.0220   32.7190   51.2600 O   0  0  0  0  0  0  0  0  0  0  0  0
   52.9460   31.2980   50.9300 C   0  0  0  0  0  0  0  0  0  0  0  0
   53.8580   30.3600   51.4230 C   0  0  0  0  0  0  0  0  0  0  0  0
   56.7450   31.6290   52.3610 C   0  0  0  0  0  0  0  0  0  0  0  0
   57.3260   32.4200   51.3650 C   0  0  0  0  0  0  0  0  0  0  0  0
   59.7870   33.6400   49.7540 C   0  0  0  0  0  0  0  0  0  0  0  0
   60.1820   33.8070   50.9390 O   0  0  0  0  0  0  0  0  0  0  0  0
   60.3250   34.3990   48.7640 N   0  0  0  0  0  0  0  0  0  0  0  0
   58.6972   33.0768   46.1239 H   0  0  0  0  0  0  0  0  0  0  0  0
   59.3171   30.0606   49.8901 H   0  0  0  0  0  0  0  0  0  0  0  0
   58.2749   28.6527   51.6651 H   0  0  0  0  0  0  0  0  0  0  0  0
   52.6425   30.0492   54.6074 H   0  0  0  0  0  0  0  0  0  0  0  0
   51.0197   31.7223   53.7202 H   0  0  0  0  0  0  0  0  0  0  0  0
   53.0304   31.6522   49.8920 H   0  0  0  0  0  0  0  0  0  0  0  0
   54.6553   29.9749   50.7703 H   0  0  0  0  0  0  0  0  0  0  0  0
   56.0260   32.0741   53.0645 H   0  0  0  0  0  0  0  0  0  0  0  0
   57.0658   33.4863   51.2928 H   0  0  0  0  0  0  0  0  0  0  0  0
  1  2  2  0
  2  3  1  0
  3  4  2  0
  4  5  1  0
  5  6  1  0
  6  7  2  0
  7  8  1  0
  8  9  2  0
  9 10  1  0
 10 11  2  0
 10 12  2  0
 10 13  1  0
 13 14  1  0
 14 15  2  0
 15 16  1  0
 16 17  2  0
 17 18  1  0
 17 19  1  0
 19 20  2  0
  9 21  1  0
 21 22  2  0
  5 23  1  0
 23 24  2  0
 23 25  1  0
 25  2  1  0
 22  6  1  0
 20 14  1  0
  3 26  1  0
  7 27  1  0
  8 28  1  0
 15 29  1  0
 16 30  1  0
 19 31  1  0
 20 32  1  0
 21 33  1  0
 22 34  1  0
M  CHG  3  13  -1  18  -1  25  -1
M  END
>  <UniqueID>  (75) 
68

>  <SMILES>  (75) 
O=c1cnn(-c2ccc(S(=O)(=O)[N-]c3ccc([O-])cc3)cc2)c(=O)[n-]1

>  <Energy>  (75) 
48.97991600255236

>  <Genealogy>  (75) 
O=c1cnn(-c2ccc(S(=O)(=O)[N-]c3ccc([O-])cc3)cc2)c(=O)[n-]1 (protonated)
O=c1cnn(-c2ccc(S(=O)(=O)[N-]c3ccc([O-])cc3)cc2)c(=O)[n-]1 (3D coordinates assigned)
O=c1cnn(-c2ccc(S(=O)(=O)[N-]c3ccc([O-])cc3)cc2)c(=O)[n-]1 (optimized conformer: 48.97991600255236 kcal/mol)

>  <smiles>  (75) 
O=c1cnn(-c2ccc(S(=O)(=O)Nc3ccc(O)cc3)cc2)c(=O)[nH]1

>  <score_type>  (75) 
oracle

>  <origin>  (75) 
adg

>  <m_score__min__energy>  (75) 
-12.52

>  <m_primary>  (75) 
energy

$$$$
75:0
     RDKit          3D

 59 62  0  0  0  0  0  0  0  0999 V2000
   58.9848   23.5254   45.8935 H   0  0  0  0  0  0  0  0  0  0  0  0
   58.1130   24.1950   45.9340 C   0  0  0  0  0  0  0  0  0  0  0  0
   58.1640   25.4130   45.3340 N   0  0  0  0  0  0  0  0  0  0  0  0
   57.1190   26.2850   45.3520 C   0  0  0  0  0  0  0  0  0  0  0  0
   57.2770   27.4350   44.7540 N   0  0  0  0  0  0  0  0  0  0  0  0
   57.0240   28.7470   45.2740 C   0  0  0  0  0  0  0  0  0  0  0  0
   55.9000   29.2740   45.0600 O   0  0  0  0  0  0  0  0  0  0  0  0
   58.0790   29.5150   45.9830 C   0  0  0  0  0  0  0  0  0  0  0  0
   58.5250   29.1220   47.2580 C   0  0  0  0  0  0  0  0  0  0  0  0
   58.0950   28.2288   47.7349 H   0  0  0  0  0  0  0  0  0  0  0  0
   59.5100   29.8570   47.9240 C   0  0  0  0  0  0  0  0  0  0  0  0
   59.8485   29.5421   48.9221 H   0  0  0  0  0  0  0  0  0  0  0  0
   60.0670   30.9930   47.3240 C   0  0  0  0  0  0  0  0  0  0  0  0
   61.3220   31.9230   48.1370 S   0  0  0  0  0  0  0  0  0  0  0  0
   62.0710   30.9990   49.0570 O   0  0  0  0  0  0  0  0  0  0  0  0
   62.2770   32.4940   47.1250 O   0  0  0  0  0  0  0  0  0  0  0  0
   60.5640   33.2120   49.0420 N   0  0  0  0  0  0  0  0  0  0  0  0
   60.5610   34.4670   48.2660 C   0  0  0  0  0  0  0  0  0  0  0  0
   60.2907   35.2991   48.9328 H   0  0  0  0  0  0  0  0  0  0  0  0
   61.5660   34.6145   47.8439 H   0  0  0  0  0  0  0  0  0  0  0  0
   59.5730   34.4100   47.1280 C   0  0  0  0  0  0  0  0  0  0  0  0
   58.2990   33.8550   47.3350 C   0  0  0  0  0  0  0  0  0  0  0  0
   58.0391   33.4338   48.3173 H   0  0  0  0  0  0  0  0  0  0  0  0
   57.3600   33.8350   46.3000 C   0  0  0  0  0  0  0  0  0  0  0  0
   56.3718   33.3804   46.4636 H   0  0  0  0  0  0  0  0  0  0  0  0
   57.6750   34.3920   45.0570 C   0  0  0  0  0  0  0  0  0  0  0  0
   56.9376   34.3697   44.2410 H   0  0  0  0  0  0  0  0  0  0  0  0
   58.9270   34.9770   44.8520 C   0  0  0  0  0  0  0  0  0  0  0  0
   59.1722   35.4212   43.8760 H   0  0  0  0  0  0  0  0  0  0  0  0
   59.8690   34.9990   45.8850 C   0  0  0  0  0  0  0  0  0  0  0  0
   60.8458   35.4789   45.7252 H   0  0  0  0  0  0  0  0  0  0  0  0
   61.0790   33.3360   50.4260 C   0  0  0  0  0  0  0  0  0  0  0  0
   61.4321   34.3680   50.5684 H   0  0  0  0  0  0  0  0  0  0  0  0
   61.8772   32.5859   50.5275 H   0  0  0  0  0  0  0  0  0  0  0  0
   60.0620   33.0290   51.5160 C   0  0  0  0  0  0  0  0  0  0  0  0
   59.2180   34.0520   51.9870 C   0  0  0  0  0  0  0  0  0  0  0  0
   59.3036   35.0651   51.5671 H   0  0  0  0  0  0  0  0  0  0  0  0
   58.2740   33.7940   52.9810 C   0  0  0  0  0  0  0  0  0  0  0  0
   57.6086   34.5979   53.3287 H   0  0  0  0  0  0  0  0  0  0  0  0
   58.1730   32.5190   53.5340 C   0  0  0  0  0  0  0  0  0  0  0  0
   57.4177   32.3141   54.3070 H   0  0  0  0  0  0  0  0  0  0  0  0
   59.0280   31.5020   53.1090 C   0  0  0  0  0  0  0  0  0  0  0  0
   58.9493   30.5005   53.5571 H   0  0  0  0  0  0  0  0  0  0  0  0
   59.9920   31.7470   52.1100 C   0  0  0  0  0  0  0  0  0  0  0  0
   60.8940   30.7530   51.7010 O   0  0  0  0  0  0  0  0  0  0  0  0
   60.5190   29.4540   51.2520 C   0  0  0  0  0  0  0  0  0  0  0  0
   60.3318   28.8056   52.1207 H   0  0  0  0  0  0  0  0  0  0  0  0
   59.6049   29.5258   50.6443 H   0  0  0  0  0  0  0  0  0  0  0  0
   61.3307   29.0276   50.6443 H   0  0  0  0  0  0  0  0  0  0  0  0
   59.6390   31.3830   46.0500 C   0  0  0  0  0  0  0  0  0  0  0  0
   60.0806   32.2696   45.5715 H   0  0  0  0  0  0  0  0  0  0  0  0
   58.6530   30.6510   45.3830 C   0  0  0  0  0  0  0  0  0  0  0  0
   58.3232   30.9651   44.3817 H   0  0  0  0  0  0  0  0  0  0  0  0
   55.9170   25.8950   45.9970 C   0  0  0  0  0  0  0  0  0  0  0  0
   54.7790   26.6940   46.0010 O   0  0  0  0  0  0  0  0  0  0  0  0
   55.8570   24.6490   46.6290 C   0  0  0  0  0  0  0  0  0  0  0  0
   54.9383   24.3425   47.1506 H   0  0  0  0  0  0  0  0  0  0  0  0
   56.9580   23.7940   46.6000 C   0  0  0  0  0  0  0  0  0  0  0  0
   56.9146   22.8139   47.0976 H   0  0  0  0  0  0  0  0  0  0  0  0
  1  2  1  0
  2  3  1  0
  3  4  1  0
  4  5  2  0
  5  6  1  0
  6  7  2  0
  6  8  1  0
  8  9  2  0
  9 10  1  0
  9 11  1  0
 11 12  1  0
 11 13  2  0
 13 14  1  0
 14 15  2  0
 14 16  2  0
 14 17  1  0
 17 18  1  0
 18 19  1  0
 18 20  1  0
 18 21  1  0
 21 22  2  0
 22 23  1  0
 22 24  1  0
 24 25  1  0
 24 26  2  0
 26 27  1  0
 26 28  1  0
 28 29  1  0
 28 30  2  0
 30 31  1  0
 17 32  1  0
 32 33  1  0
 32 34  1  0
 32 35  1  0
 35 36  2  0
 36 37  1  0
 36 38  1  0
 38 39  1  0
 38 40  2  0
 40 41  1  0
 40 42  1  0
 42 43  1  0
 42 44  2  0
 44 45  1  0
 45 46  1  0
 46 47  1  0
 46 48  1  0
 46 49  1  0
 13 50  1  0
 50 51  1  0
 50 52  2  0
 52 53  1  0
  4 54  1  0
 54 55  1  0
 54 56  2  0
 56 57  1  0
 56 58  1  0
 58 59  1  0
 58  2  2  0
 52  8  1  0
 30 21  1  0
 44 35  1  0
M  CHG  2   3  -1  55  -1
M  END
>  <UniqueID>  (76) 
69

>  <SMILES>  (76) 
COc1ccccc1CN(Cc1ccccc1)S(=O)(=O)c1ccc(C(=O)/N=c2/[n-]cccc2[O-])cc1

>  <Energy>  (76) 
81.11897382575292

>  <Genealogy>  (76) 
COc1ccccc1CN(Cc1ccccc1)S(=O)(=O)c1ccc(C(=O)N=c2[n-]cccc2[O-])cc1 (protonated)
COc1ccccc1CN(Cc1ccccc1)S(=O)(=O)c1ccc(C(=O)/N=c2/[n-]cccc2[O-])cc1 (cis-trans isomerization)
COc1ccccc1CN(Cc1ccccc1)S(=O)(=O)c1ccc(C(=O)/N=c2/[n-]cccc2[O-])cc1 (3D coordinates assigned)
COc1ccccc1CN(Cc1ccccc1)S(=O)(=O)c1ccc(C(=O)/N=c2/[n-]cccc2[O-])cc1 (optimized conformer: 81.11897382575292 kcal/mol)

>  <smiles>  (76) 
COc1ccccc1CN(Cc1ccccc1)S(=O)(=O)c1ccc(C(=O)N=c2[nH]cccc2O)cc1

>  <score_type>  (76) 
oracle

>  <origin>  (76) 
adg

>  <m_score__min__energy>  (76) 
-14.77

>  <m_primary>  (76) 
energy

$$$$
76:0
     RDKit          3D

 33 35  0  0  0  0  0  0  0  0999 V2000
   57.0220   34.2380   47.4890 H   0  0  0  0  0  0  0  0  0  0  0  0
   58.0300   34.2070   47.2170 N   0  0  0  0  0  0  0  0  0  0  0  0
   58.0870   34.2070   45.4900 S   0  0  0  0  0  0  0  0  0  0  0  0
   56.9070   34.9630   44.9470 O   0  0  0  0  0  0  0  0  0  0  0  0
   59.3470   34.8860   45.0310 O   0  0  0  0  0  0  0  0  0  0  0  0
   58.0540   32.5480   44.9000 C   0  0  0  0  0  0  0  0  0  0  0  0
   57.4110   32.2390   43.6950 C   0  0  0  0  0  0  0  0  0  0  0  0
   56.9155   33.0339   43.1182 H   0  0  0  0  0  0  0  0  0  0  0  0
   57.3970   30.9230   43.2230 C   0  0  0  0  0  0  0  0  0  0  0  0
   56.9031   30.6907   42.2680 H   0  0  0  0  0  0  0  0  0  0  0  0
   58.0070   29.8990   43.9570 C   0  0  0  0  0  0  0  0  0  0  0  0
   57.9960   28.5630   43.4280 N   0  0  0  0  0  0  0  0  0  0  0  0
   58.2840   27.4610   44.0610 C   0  0  0  0  0  0  0  0  0  0  0  0
   59.2430   26.9710   43.8370 H   0  0  0  0  0  0  0  0  0  0  0  0
   57.4000   26.8320   45.0600 C   0  0  0  0  0  0  0  0  0  0  0  0
   56.2060   27.3170   45.5970 C   0  0  0  0  0  0  0  0  0  0  0  0
   55.5930   28.5200   45.2570 O   0  0  0  0  0  0  0  0  0  0  0  0
   55.8350   29.0190   44.4120 H   0  0  0  0  0  0  0  0  0  0  0  0
   55.6610   26.4500   46.4830 N   0  0  0  0  0  0  0  0  0  0  0  0
   56.5080   25.4030   46.4870 C   0  0  0  0  0  0  0  0  0  0  0  0
   56.3830   24.2380   47.2420 C   0  0  0  0  0  0  0  0  0  0  0  0
   55.5332   24.0949   47.9257 H   0  0  0  0  0  0  0  0  0  0  0  0
   57.3760   23.2500   47.1040 C   0  0  0  0  0  0  0  0  0  0  0  0
   57.2890   22.0740   47.8370 O   0  0  0  0  0  0  0  0  0  0  0  0
   58.4630   23.4490   46.2220 C   0  0  0  0  0  0  0  0  0  0  0  0
   59.2341   22.6710   46.1210 H   0  0  0  0  0  0  0  0  0  0  0  0
   58.5650   24.6350   45.4730 C   0  0  0  0  0  0  0  0  0  0  0  0
   59.4076   24.8022   44.7859 H   0  0  0  0  0  0  0  0  0  0  0  0
   57.5630   25.5920   45.6300 C   0  0  0  0  0  0  0  0  0  0  0  0
   58.6910   30.2190   45.1440 C   0  0  0  0  0  0  0  0  0  0  0  0
   59.2162   29.4306   45.7031 H   0  0  0  0  0  0  0  0  0  0  0  0
   58.7060   31.5350   45.6160 C   0  0  0  0  0  0  0  0  0  0  0  0
   59.2311   31.7759   46.5521 H   0  0  0  0  0  0  0  0  0  0  0  0
  1  2  1  0
  2  3  1  0
  3  4  2  0
  3  5  2  0
  3  6  1  0
  6  7  2  0
  7  8  1  0
  7  9  1  0
  9 10  1  0
  9 11  2  0
 11 12  1  0
 12 13  2  0
 13 14  1  0
 13 15  1  0
 15 16  2  0
 16 17  1  0
 17 18  1  0
 16 19  1  0
 19 20  1  0
 20 21  2  0
 21 22  1  0
 21 23  1  0
 23 24  1  0
 23 25  2  0
 25 26  1  0
 25 27  1  0
 27 28  1  0
 27 29  2  0
 11 30  1  0
 30 31  1  0
 30 32  2  0
 32 33  1  0
 32  6  1  0
 29 15  1  0
 29 20  1  0
M  CHG  3   2  -1  19  -1  24  -1
M  END
>  <UniqueID>  (77) 
70

>  <SMILES>  (77) 
[NH-]S(=O)(=O)c1ccc(/N=C\c2c(O)[n-]c3cc([O-])ccc23)cc1

>  <Energy>  (77) 
79.29856704860848

>  <Genealogy>  (77) 
[NH-]S(=O)(=O)c1ccc(N=Cc2c(O)[n-]c3cc([O-])ccc23)cc1 (protonated)
[NH-]S(=O)(=O)c1ccc(/N=C\c2c(O)[n-]c3cc([O-])ccc23)cc1 (cis-trans isomerization)
[NH-]S(=O)(=O)c1ccc(/N=C\c2c(O)[n-]c3cc([O-])ccc23)cc1 (3D coordinates assigned)
[NH-]S(=O)(=O)c1ccc(/N=C\c2c(O)[n-]c3cc([O-])ccc23)cc1 (optimized conformer: 79.29856704860848 kcal/mol)

>  <smiles>  (77) 
NS(=O)(=O)c1ccc(N=Cc2c(O)[nH]c3cc(O)ccc23)cc1

>  <score_type>  (77) 
oracle

>  <origin>  (77) 
adg

>  <m_score__min__energy>  (77) 
-13.48

>  <m_primary>  (77) 
energy

$$$$
77:0
     RDKit          3D

 34 36  0  0  0  0  0  0  0  0999 V2000
   59.1210   30.2770   44.1940 O   0  0  0  0  0  0  0  0  0  0  0  0
   58.0260   29.9890   44.7060 C   0  0  0  0  0  0  0  0  0  0  0  0
   57.0950   31.0790   44.8060 N   0  0  0  0  0  0  0  0  0  0  0  0
   57.3640   32.4100   44.3670 C   0  0  0  0  0  0  0  0  0  0  0  0
   58.0880   33.2320   45.3480 C   0  0  0  0  0  0  0  0  0  0  0  0
   58.8220   34.3130   44.8550 C   0  0  0  0  0  0  0  0  0  0  0  0
   59.5400   35.1330   45.7220 C   0  0  0  0  0  0  0  0  0  0  0  0
   59.5260   34.8740   47.0950 C   0  0  0  0  0  0  0  0  0  0  0  0
   58.7980   33.8000   47.6010 C   0  0  0  0  0  0  0  0  0  0  0  0
   58.1020   33.0140   46.7050 C   0  0  0  0  0  0  0  0  0  0  0  0
   57.5830   28.7070   45.2050 C   0  0  0  0  0  0  0  0  0  0  0  0
   56.2470   28.4210   45.2810 N   0  0  0  0  0  0  0  0  0  0  0  0
   55.8000   27.2680   45.7260 N   0  0  0  0  0  0  0  0  0  0  0  0
   56.5880   26.2630   46.1450 C   0  0  0  0  0  0  0  0  0  0  0  0
   56.0920   25.1740   46.5630 O   0  0  0  0  0  0  0  0  0  0  0  0
   57.9440   26.4770   46.0980 C   0  0  0  0  0  0  0  0  0  0  0  0
   58.7650   25.4610   46.5190 C   0  0  0  0  0  0  0  0  0  0  0  0
   60.1320   25.6310   46.4830 C   0  0  0  0  0  0  0  0  0  0  0  0
   60.6010   26.8440   46.0160 C   0  0  0  0  0  0  0  0  0  0  0  0
   59.7730   27.8610   45.5950 C   0  0  0  0  0  0  0  0  0  0  0  0
   58.4130   27.6950   45.6290 C   0  0  0  0  0  0  0  0  0  0  0  0
   56.1440   30.9010   45.2300 H   0  0  0  0  0  0  0  0  0  0  0  0
   57.9681   32.3554   43.4494 H   0  0  0  0  0  0  0  0  0  0  0  0
   56.3892   32.8937   44.2064 H   0  0  0  0  0  0  0  0  0  0  0  0
   58.8331   34.5182   43.7744 H   0  0  0  0  0  0  0  0  0  0  0  0
   60.1166   35.9824   45.3269 H   0  0  0  0  0  0  0  0  0  0  0  0
   60.0930   35.5218   47.7798 H   0  0  0  0  0  0  0  0  0  0  0  0
   58.7783   33.5851   48.6796 H   0  0  0  0  0  0  0  0  0  0  0  0
   57.5254   32.1644   47.0996 H   0  0  0  0  0  0  0  0  0  0  0  0
   54.7690   27.0920   45.7660 H   0  0  0  0  0  0  0  0  0  0  0  0
   58.3344   24.5165   46.8830 H   0  0  0  0  0  0  0  0  0  0  0  0
   60.8189   24.8369   46.8112 H   0  0  0  0  0  0  0  0  0  0  0  0
   61.6885   27.0052   45.9786 H   0  0  0  0  0  0  0  0  0  0  0  0
   60.2031   28.8060   45.2317 H   0  0  0  0  0  0  0  0  0  0  0  0
  1  2  2  0
  2  3  1  0
  3  4  1  0
  4  5  1  0
  5  6  2  0
  6  7  1  0
  7  8  2  0
  8  9  1  0
  9 10  2  0
  2 11  1  0
 11 12  2  0
 12 13  1  0
 13 14  1  0
 14 15  2  0
 14 16  1  0
 16 17  2  0
 17 18  1  0
 18 19  2  0
 19 20  1  0
 20 21  2  0
 10  5  1  0
 21 11  1  0
 21 16  1  0
  3 22  1  0
  4 23  1  0
  4 24  1  0
  6 25  1  0
  7 26  1  0
  8 27  1  0
  9 28  1  0
 10 29  1  0
 13 30  1  0
 17 31  1  0
 18 32  1  0
 19 33  1  0
 20 34  1  0
M  END
>  <smiles>  (78) 
O=C(NCc1ccccc1)c1n[nH]c(=O)c2ccccc12

>  <score_type>  (78) 
oracle

>  <origin>  (78) 
adg

>  <m_score__min__energy>  (78) 
-7.75

>  <m_primary>  (78) 
energy

$$$$
78:0
     RDKit          3D

 41 41  0  0  0  0  0  0  0  0999 V2000
   61.2960   33.8470   47.1530 C   0  0  0  0  0  0  0  0  0  0  0  0
   59.7940   33.7040   46.8400 C   0  0  0  0  0  0  0  0  0  0  0  0
   59.3240   34.9800   46.1120 C   0  0  0  0  0  0  0  0  0  0  0  0
   58.9850   33.5600   48.1450 C   0  0  0  0  0  0  0  0  0  0  0  0
   59.5630   32.5390   45.9630 N   0  0  0  0  0  0  0  0  0  0  0  0
   58.2720   32.0690   45.5290 C   0  0  0  0  0  0  0  0  0  0  0  0
   57.2200   32.6470   45.9150 O   0  0  0  0  0  0  0  0  0  0  0  0
   58.1950   30.9370   44.6480 N   0  0  0  0  0  0  0  0  0  0  0  0
   56.9660   30.3990   44.1340 C   0  0  0  0  0  0  0  0  0  0  0  0
   55.8540   30.8810   44.4790 O   0  0  0  0  0  0  0  0  0  0  0  0
   57.0010   29.2480   43.1730 C   0  0  0  0  0  0  0  0  0  0  0  0
   57.4940   28.0760   43.8170 O   0  0  0  0  0  0  0  0  0  0  0  0
   58.2000   28.1030   45.0240 C   0  0  0  0  0  0  0  0  0  0  0  0
   59.4060   28.4730   45.0580 O   0  0  0  0  0  0  0  0  0  0  0  0
   57.5300   27.6450   46.2790 C   0  0  0  0  0  0  0  0  0  0  0  0
   57.1680   26.1870   46.1720 C   0  0  0  0  0  0  0  0  0  0  0  0
   58.1850   25.2150   46.1640 C   0  0  0  0  0  0  0  0  0  0  0  0
   57.8650   23.8600   46.0440 C   0  0  0  0  0  0  0  0  0  0  0  0
   56.5310   23.4610   45.9230 C   0  0  0  0  0  0  0  0  0  0  0  0
   55.5140   24.4180   45.9160 C   0  0  0  0  0  0  0  0  0  0  0  0
   55.8250   25.7790   46.0340 C   0  0  0  0  0  0  0  0  0  0  0  0
   54.7960   26.7160   46.0130 O   0  0  0  0  0  0  0  0  0  0  0  0
   61.4437   33.8611   48.2429 H   0  0  0  0  0  0  0  0  0  0  0  0
   61.8434   32.9969   46.7197 H   0  0  0  0  0  0  0  0  0  0  0  0
   61.6731   34.7851   46.7197 H   0  0  0  0  0  0  0  0  0  0  0  0
   59.0431   35.7427   46.8532 H   0  0  0  0  0  0  0  0  0  0  0  0
   60.1397   35.3641   45.4818 H   0  0  0  0  0  0  0  0  0  0  0  0
   58.4541   34.7432   45.4818 H   0  0  0  0  0  0  0  0  0  0  0  0
   59.6567   33.6796   49.0079 H   0  0  0  0  0  0  0  0  0  0  0  0
   58.2032   34.3331   48.1790 H   0  0  0  0  0  0  0  0  0  0  0  0
   58.5180   32.5646   48.1790 H   0  0  0  0  0  0  0  0  0  0  0  0
   60.3930   32.0050   45.6140 H   0  0  0  0  0  0  0  0  0  0  0  0
   59.0880   30.4860   44.3480 H   0  0  0  0  0  0  0  0  0  0  0  0
   55.9839   29.0560   42.8007 H   0  0  0  0  0  0  0  0  0  0  0  0
   57.6687   29.5025   42.3367 H   0  0  0  0  0  0  0  0  0  0  0  0
   58.2133   27.7885   47.1290 H   0  0  0  0  0  0  0  0  0  0  0  0
   56.6128   28.2327   46.4317 H   0  0  0  0  0  0  0  0  0  0  0  0
   59.2372   25.5231   46.2526 H   0  0  0  0  0  0  0  0  0  0  0  0
   58.6653   23.1053   46.0448 H   0  0  0  0  0  0  0  0  0  0  0  0
   56.2822   22.3933   45.8333 H   0  0  0  0  0  0  0  0  0  0  0  0
   54.4649   24.1021   45.8175 H   0  0  0  0  0  0  0  0  0  0  0  0
  1  2  1  0
  2  3  1  0
  2  4  1  0
  2  5  1  0
  5  6  1  0
  6  7  2  0
  6  8  1  0
  8  9  1  0
  9 10  2  0
  9 11  1  0
 11 12  1  0
 12 13  1  0
 13 14  2  0
 13 15  1  0
 15 16  1  0
 16 17  2  0
 17 18  1  0
 18 19  2  0
 19 20  1  0
 20 21  2  0
 21 22  1  0
 21 16  1  0
  1 23  1  0
  1 24  1  0
  1 25  1  0
  3 26  1  0
  3 27  1  0
  3 28  1  0
  4 29  1  0
  4 30  1  0
  4 31  1  0
  5 32  1  0
  8 33  1  0
 11 34  1  0
 11 35  1  0
 15 36  1  0
 15 37  1  0
 17 38  1  0
 18 39  1  0
 19 40  1  0
 20 41  1  0
M  CHG  1  22  -1
M  END
>  <UniqueID>  (79) 
71

>  <SMILES>  (79) 
CC(C)(C)NC(=O)NC(=O)COC(=O)Cc1ccccc1[O-]

>  <Energy>  (79) 
29.95382309224666

>  <Genealogy>  (79) 
CC(C)(C)NC(=O)NC(=O)COC(=O)Cc1ccccc1[O-] (protonated)
CC(C)(C)NC(=O)NC(=O)COC(=O)Cc1ccccc1[O-] (3D coordinates assigned)
CC(C)(C)NC(=O)NC(=O)COC(=O)Cc1ccccc1[O-] (optimized conformer: 29.95382309224666 kcal/mol)

>  <smiles>  (79) 
CC(C)(C)NC(=O)NC(=O)COC(=O)Cc1ccccc1O

>  <score_type>  (79) 
oracle

>  <origin>  (79) 
adg

>  <m_score__min__energy>  (79) 
-10.699999999999999

>  <m_primary>  (79) 
energy

$$$$
79:0
     RDKit          3D

 68 71  0  0  0  0  0  0  0  0999 V2000
   58.0050   33.8230   44.8990 C   0  0  0  0  0  0  0  0  0  0  0  0
   58.7490   32.5870   45.3970 C   0  0  0  0  0  0  0  0  0  0  0  0
   57.9630   31.3210   45.1590 C   0  0  0  0  0  0  0  0  0  0  0  0
   56.7260   31.3320   44.6160 N   0  0  0  0  0  0  0  0  0  0  0  0
   56.4000   30.0340   44.4810 C   0  0  0  0  0  0  0  0  0  0  0  0
   55.1130   29.5780   43.8670 C   0  0  0  0  0  0  0  0  0  0  0  0
   57.4570   29.2450   44.9060 C   0  0  0  0  0  0  0  0  0  0  0  0
   57.5400   27.7390   44.8340 C   0  0  0  0  0  0  0  0  0  0  0  0
   57.4900   27.0820   46.2190 C   0  0  0  0  0  0  0  0  0  0  0  0
   56.2390   26.2830   46.4190 C   0  0  0  0  0  0  0  0  0  0  0  0
   55.1350   26.7170   45.9940 O   0  0  0  0  0  0  0  0  0  0  0  0
   56.2840   25.0770   47.1070 O   0  0  0  0  0  0  0  0  0  0  0  0
   58.4460   30.0640   45.3310 N   0  0  0  0  0  0  0  0  0  0  0  0
   59.7460   29.6670   45.8870 C   0  0  0  0  0  0  0  0  0  0  0  0
   59.6580   29.4830   47.3810 C   0  0  0  0  0  0  0  0  0  0  0  0
   60.4910   28.5630   48.0390 C   0  0  0  0  0  0  0  0  0  0  0  0
   60.4190   28.4080   49.4290 C   0  0  0  0  0  0  0  0  0  0  0  0
   59.4940   29.1570   50.1770 C   0  0  0  0  0  0  0  0  0  0  0  0
   59.3870   29.0310   51.6030 N   0  0  0  0  0  0  0  0  0  0  0  0
   58.7390   29.9490   52.4960 C   0  0  0  0  0  0  0  0  0  0  0  0
   57.9430   29.5230   53.3770 O   0  0  0  0  0  0  0  0  0  0  0  0
   58.9420   31.4080   52.3310 C   0  0  0  0  0  0  0  0  0  0  0  0
   57.9380   32.3140   52.7150 C   0  0  0  0  0  0  0  0  0  0  0  0
   58.0970   33.6840   52.4950 C   0  0  0  0  0  0  0  0  0  0  0  0
   59.2730   34.1710   51.9260 C   0  0  0  0  0  0  0  0  0  0  0  0
   60.3080   33.2900   51.5770 C   0  0  0  0  0  0  0  0  0  0  0  0
   61.6070   33.8230   51.0040 C   0  0  0  0  0  0  0  0  0  0  0  0
   61.5930   33.9750   49.5290 N   0  0  0  0  0  0  0  0  0  0  0  0
   62.1140   32.7880   48.8220 C   0  0  0  0  0  0  0  0  0  0  0  0
   62.4200   33.1560   47.3660 C   0  0  0  0  0  0  0  0  0  0  0  0
   61.2810   33.8270   46.7430 N   0  0  0  0  0  0  0  0  0  0  0  0
   60.3250   34.5540   47.5210 C   0  0  0  0  0  0  0  0  0  0  0  0
   59.4790   35.2930   46.9480 O   0  0  0  0  0  0  0  0  0  0  0  0
   60.2690   34.3660   49.0080 C   0  0  0  0  0  0  0  0  0  0  0  0
   60.1310   31.9080   51.7680 C   0  0  0  0  0  0  0  0  0  0  0  0
   58.6730   30.0820   49.5210 C   0  0  0  0  0  0  0  0  0  0  0  0
   58.7410   30.2340   48.1330 C   0  0  0  0  0  0  0  0  0  0  0  0
   57.6517   34.4099   45.7597 H   0  0  0  0  0  0  0  0  0  0  0  0
   58.6830   34.4382   44.2892 H   0  0  0  0  0  0  0  0  0  0  0  0
   57.1440   33.5118   44.2892 H   0  0  0  0  0  0  0  0  0  0  0  0
   59.7102   32.5134   44.8671 H   0  0  0  0  0  0  0  0  0  0  0  0
   58.9001   32.6948   46.4812 H   0  0  0  0  0  0  0  0  0  0  0  0
   54.3969   29.3243   44.6625 H   0  0  0  0  0  0  0  0  0  0  0  0
   54.6983   30.3839   43.2437 H   0  0  0  0  0  0  0  0  0  0  0  0
   55.2982   28.6908   43.2437 H   0  0  0  0  0  0  0  0  0  0  0  0
   56.6948   27.3671   44.2363 H   0  0  0  0  0  0  0  0  0  0  0  0
   58.5051   27.4786   44.3748 H   0  0  0  0  0  0  0  0  0  0  0  0
   58.3579   26.4148   46.3266 H   0  0  0  0  0  0  0  0  0  0  0  0
   57.5053   27.8819   46.9740 H   0  0  0  0  0  0  0  0  0  0  0  0
   60.0611   28.7196   45.4253 H   0  0  0  0  0  0  0  0  0  0  0  0
   60.4772   30.4604   45.6728 H   0  0  0  0  0  0  0  0  0  0  0  0
   61.2048   27.9601   47.4585 H   0  0  0  0  0  0  0  0  0  0  0  0
   61.0883   27.6980   49.9370 H   0  0  0  0  0  0  0  0  0  0  0  0
   57.0199   31.9410   53.1925 H   0  0  0  0  0  0  0  0  0  0  0  0
   57.2920   34.3809   52.7715 H   0  0  0  0  0  0  0  0  0  0  0  0
   59.3900   35.2505   51.7499 H   0  0  0  0  0  0  0  0  0  0  0  0
   61.8055   34.8077   51.4522 H   0  0  0  0  0  0  0  0  0  0  0  0
   62.3884   33.0865   51.2427 H   0  0  0  0  0  0  0  0  0  0  0  0
   63.0349   32.4424   49.3145 H   0  0  0  0  0  0  0  0  0  0  0  0
   61.3620   31.9856   48.8478 H   0  0  0  0  0  0  0  0  0  0  0  0
   63.2907   33.8277   47.3405 H   0  0  0  0  0  0  0  0  0  0  0  0
   62.6289   32.2313   46.8082 H   0  0  0  0  0  0  0  0  0  0  0  0
   61.2720   33.9250   45.7020 H   0  0  0  0  0  0  0  0  0  0  0  0
   59.9579   35.3092   49.4808 H   0  0  0  0  0  0  0  0  0  0  0  0
   59.5461   33.5698   49.2393 H   0  0  0  0  0  0  0  0  0  0  0  0
   60.9297   31.2110   51.4745 H   0  0  0  0  0  0  0  0  0  0  0  0
   57.9684   30.6944   50.1027 H   0  0  0  0  0  0  0  0  0  0  0  0
   58.0722   30.9461   47.6273 H   0  0  0  0  0  0  0  0  0  0  0  0
  1  2  1  0
  2  3  1  0
  3  4  2  0
  4  5  1  0
  5  6  1  0
  5  7  2  0
  7  8  1  0
  8  9  1  0
  9 10  1  0
 10 11  2  0
 10 12  1  0
  7 13  1  0
 13 14  1  0
 14 15  1  0
 15 16  2  0
 16 17  1  0
 17 18  2  0
 18 19  1  0
 19 20  1  0
 20 21  2  0
 20 22  1  0
 22 23  2  0
 23 24  1  0
 24 25  2  0
 25 26  1  0
 26 27  1  0
 27 28  1  0
 28 29  1  0
 29 30  1  0
 30 31  1  0
 31 32  1  0
 32 33  2  0
 32 34  1  0
 26 35  2  0
 18 36  1  0
 36 37  2  0
 13  3  1  0
 37 15  1  0
 35 22  1  0
 34 28  1  0
  1 38  1  0
  1 39  1  0
  1 40  1  0
  2 41  1  0
  2 42  1  0
  6 43  1  0
  6 44  1  0
  6 45  1  0
  8 46  1  0
  8 47  1  0
  9 48  1  0
  9 49  1  0
 14 50  1  0
 14 51  1  0
 16 52  1  0
 17 53  1  0
 23 54  1  0
 24 55  1  0
 25 56  1  0
 27 57  1  0
 27 58  1  0
 29 59  1  0
 29 60  1  0
 30 61  1  0
 30 62  1  0
 31 63  1  0
 34 64  1  0
 34 65  1  0
 35 66  1  0
 36 67  1  0
 37 68  1  0
M  CHG  2  12  -1  19  -1
M  END
>  <UniqueID>  (80) 
72

>  <SMILES>  (80) 
CCc1nc(C)c(CCC(=O)[O-])n1Cc1ccc([N-]C(=O)c2cccc(CN3CCNC(=O)C3)c2)cc1

>  <Energy>  (80) 
99.94118704990291

>  <Genealogy>  (80) 
CCc1nc(C)c(CCC(=O)[O-])n1Cc1ccc([N-]C(=O)c2cccc(CN3CCNC(=O)C3)c2)cc1 (protonated)
CCc1nc(C)c(CCC(=O)[O-])n1Cc1ccc([N-]C(=O)c2cccc(CN3CCNC(=O)C3)c2)cc1 (3D coordinates assigned)
CCc1nc(C)c(CCC(=O)[O-])n1Cc1ccc([N-]C(=O)c2cccc(CN3CCNC(=O)C3)c2)cc1 (nonaromatic ring conformer: 99.94118704990291 kcal/mol)

>  <smiles>  (80) 
CCc1nc(C)c(CCC(=O)O)n1Cc1ccc(NC(=O)c2cccc(CN3CCNC(=O)C3)c2)cc1

>  <score_type>  (80) 
oracle

>  <origin>  (80) 
adg

>  <m_score__min__energy>  (80) 
-13.68

>  <m_primary>  (80) 
energy

$$$$
80:0
     RDKit          3D

 30 32  0  0  0  0  0  0  0  0999 V2000
   62.9730   33.4350   47.1150 C   0  0  0  0  0  0  0  0  0  0  0  0
   61.7620   33.8110   47.9610 C   0  0  0  0  0  0  0  0  0  0  0  0
   60.5270   33.3910   47.3030 N   0  0  0  0  0  0  0  0  0  0  0  0
   59.8230   34.1100   46.2770 C   0  0  0  0  0  0  0  0  0  0  0  0
   59.9960   35.3290   46.0130 O   0  0  0  0  0  0  0  0  0  0  0  0
   58.9200   33.2000   45.5770 C   0  0  0  0  0  0  0  0  0  0  0  0
   58.0270   33.3500   44.5200 C   0  0  0  0  0  0  0  0  0  0  0  0
   57.3330   32.2010   44.0760 C   0  0  0  0  0  0  0  0  0  0  0  0
   57.5500   30.9280   44.6780 C   0  0  0  0  0  0  0  0  0  0  0  0
   56.6690   29.5170   44.0780 S   0  0  0  0  0  0  0  0  0  0  0  0
   55.1470   29.3530   44.8810 N   0  0  0  0  0  0  0  0  0  0  0  0
   57.4820   28.2780   44.3310 O   0  0  0  0  0  0  0  0  0  0  0  0
   56.4230   29.6670   42.6020 O   0  0  0  0  0  0  0  0  0  0  0  0
   58.4780   30.8200   45.7500 C   0  0  0  0  0  0  0  0  0  0  0  0
   58.8250   29.6360   46.4430 C   0  0  0  0  0  0  0  0  0  0  0  0
   59.7930   29.6780   47.4800 C   0  0  0  0  0  0  0  0  0  0  0  0
   60.4200   30.8920   47.8400 C   0  0  0  0  0  0  0  0  0  0  0  0
   60.0490   32.0490   47.1500 C   0  0  0  0  0  0  0  0  0  0  0  0
   59.1160   31.9830   46.1520 C   0  0  0  0  0  0  0  0  0  0  0  0
   63.8140   33.1739   47.7742 H   0  0  0  0  0  0  0  0  0  0  0  0
   62.7231   32.5721   46.4801 H   0  0  0  0  0  0  0  0  0  0  0  0
   63.2558   34.2876   46.4801 H   0  0  0  0  0  0  0  0  0  0  0  0
   61.8368   33.3156   48.9403 H   0  0  0  0  0  0  0  0  0  0  0  0
   61.7430   34.9034   48.0887 H   0  0  0  0  0  0  0  0  0  0  0  0
   57.8666   34.3296   44.0460 H   0  0  0  0  0  0  0  0  0  0  0  0
   56.6119   32.2916   43.2502 H   0  0  0  0  0  0  0  0  0  0  0  0
   55.2650   28.6210   45.6170 H   0  0  0  0  0  0  0  0  0  0  0  0
   58.3443   28.6828   46.1778 H   0  0  0  0  0  0  0  0  0  0  0  0
   60.0590   28.7522   48.0111 H   0  0  0  0  0  0  0  0  0  0  0  0
   61.1762   30.9252   48.6382 H   0  0  0  0  0  0  0  0  0  0  0  0
  1  2  1  0
  2  3  1  0
  3  4  1  0
  4  5  2  0
  4  6  1  0
  6  7  2  0
  7  8  1  0
  8  9  2  0
  9 10  1  0
 10 11  1  0
 10 12  2  0
 10 13  2  0
  9 14  1  0
 14 15  2  0
 15 16  1  0
 16 17  2  0
 17 18  1  0
 18 19  2  0
 18  3  1  0
 19  6  1  0
 19 14  1  0
  1 20  1  0
  1 21  1  0
  1 22  1  0
  2 23  1  0
  2 24  1  0
  7 25  1  0
  8 26  1  0
 11 27  1  0
 15 28  1  0
 16 29  1  0
 17 30  1  0
M  CHG  1  11  -1
M  END
>  <UniqueID>  (81) 
73

>  <SMILES>  (81) 
CCN1C(=O)c2ccc(S([NH-])(=O)=O)c3cccc1c23

>  <Energy>  (81) 
72.72629324031806

>  <Genealogy>  (81) 
CCN1C(=O)c2ccc(S([NH-])(=O)=O)c3cccc1c23 (protonated)
CCN1C(=O)c2ccc(S([NH-])(=O)=O)c3cccc1c23 (3D coordinates assigned)
CCN1C(=O)c2ccc(S([NH-])(=O)=O)c3cccc1c23 (nonaromatic ring conformer: 72.72629324031806 kcal/mol)

>  <smiles>  (81) 
CCN1C(=O)c2ccc(S(N)(=O)=O)c3cccc1c23

>  <score_type>  (81) 
oracle

>  <origin>  (81) 
adg

>  <m_score__min__energy>  (81) 
-10.52

>  <m_primary>  (81) 
energy

$$$$
81:0
     RDKit          3D

 40 42  0  0  0  0  0  0  0  0999 V2000
   59.5510   32.5650   50.3210 N   0  0  0  0  0  0  0  0  0  0  0  0
   59.5730   33.1600   48.6970 S   0  0  0  0  0  0  0  0  0  0  0  0
   58.5210   32.4620   47.8850 O   0  0  0  0  0  0  0  0  0  0  0  0
   59.2580   34.6310   48.7190 O   0  0  0  0  0  0  0  0  0  0  0  0
   61.1720   32.8880   47.9820 C   0  0  0  0  0  0  0  0  0  0  0  0
   61.8440   33.9820   47.4090 C   0  0  0  0  0  0  0  0  0  0  0  0
   63.1070   33.8220   46.8370 C   0  0  0  0  0  0  0  0  0  0  0  0
   63.7170   32.5710   46.8270 C   0  0  0  0  0  0  0  0  0  0  0  0
   63.0680   31.4730   47.3930 C   0  0  0  0  0  0  0  0  0  0  0  0
   61.7980   31.6130   47.9830 C   0  0  0  0  0  0  0  0  0  0  0  0
   61.1360   30.3760   48.5510 C   0  0  0  0  0  0  0  0  0  0  0  0
   60.2180   29.7370   47.5520 C   0  0  0  0  0  0  0  0  0  0  0  0
   60.5910   29.2810   46.2920 C   0  0  0  0  0  0  0  0  0  0  0  0
   59.5170   28.8050   45.5320 C   0  0  0  0  0  0  0  0  0  0  0  0
   58.2920   28.9070   46.1850 C   0  0  0  0  0  0  0  0  0  0  0  0
   56.9890   28.5000   45.6460 C   0  0  0  0  0  0  0  0  0  0  0  0
   56.4990   27.3880   45.9770 O   0  0  0  0  0  0  0  0  0  0  0  0
   56.2630   29.3920   44.7890 N   0  0  0  0  0  0  0  0  0  0  0  0
   56.7960   30.5230   44.0840 C   0  0  0  0  0  0  0  0  0  0  0  0
   56.6720   30.5620   42.6890 C   0  0  0  0  0  0  0  0  0  0  0  0
   57.1600   31.6540   41.9660 C   0  0  0  0  0  0  0  0  0  0  0  0
   57.7610   32.7240   42.6330 C   0  0  0  0  0  0  0  0  0  0  0  0
   57.8660   32.7070   44.0270 C   0  0  0  0  0  0  0  0  0  0  0  0
   58.6600   34.1850   44.9400 Br  0  0  0  0  0  0  0  0  0  0  0  0
   57.3800   31.6150   44.7540 C   0  0  0  0  0  0  0  0  0  0  0  0
   58.5460   29.5880   47.7030 S   0  0  0  0  0  0  0  0  0  0  0  0
   60.5100   32.7030   50.7110 H   0  0  0  0  0  0  0  0  0  0  0  0
   59.3920   31.5340   50.2660 H   0  0  0  0  0  0  0  0  0  0  0  0
   61.3694   34.9743   47.4115 H   0  0  0  0  0  0  0  0  0  0  0  0
   63.6217   34.6868   46.3929 H   0  0  0  0  0  0  0  0  0  0  0  0
   64.7112   32.4478   46.3727 H   0  0  0  0  0  0  0  0  0  0  0  0
   63.5547   30.4866   47.3779 H   0  0  0  0  0  0  0  0  0  0  0  0
   61.9143   29.6525   48.8354 H   0  0  0  0  0  0  0  0  0  0  0  0
   60.5403   30.6740   49.4264 H   0  0  0  0  0  0  0  0  0  0  0  0
   61.6291   29.2934   45.9285 H   0  0  0  0  0  0  0  0  0  0  0  0
   59.6295   28.3912   44.5190 H   0  0  0  0  0  0  0  0  0  0  0  0
   56.1877   29.7282   42.1596 H   0  0  0  0  0  0  0  0  0  0  0  0
   57.0706   31.6708   40.8698 H   0  0  0  0  0  0  0  0  0  0  0  0
   58.1514   33.5793   42.0620 H   0  0  0  0  0  0  0  0  0  0  0  0
   57.4543   31.6095   45.8515 H   0  0  0  0  0  0  0  0  0  0  0  0
  1  2  1  0
  2  3  2  0
  2  4  2  0
  2  5  1  0
  5  6  2  0
  6  7  1  0
  7  8  2  0
  8  9  1  0
  9 10  2  0
 10 11  1  0
 11 12  1  0
 12 13  2  0
 13 14  1  0
 14 15  2  0
 15 16  1  0
 16 17  2  0
 16 18  1  0
 18 19  1  0
 19 20  2  0
 20 21  1  0
 21 22  2  0
 22 23  1  0
 23 24  1  0
 23 25  2  0
 15 26  1  0
 10  5  1  0
 26 12  1  0
 25 19  1  0
  1 27  1  0
  1 28  1  0
  6 29  1  0
  7 30  1  0
  8 31  1  0
  9 32  1  0
 11 33  1  0
 11 34  1  0
 13 35  1  0
 14 36  1  0
 20 37  1  0
 21 38  1  0
 22 39  1  0
 25 40  1  0
M  CHG  1  18  -1
M  END
>  <UniqueID>  (82) 
74

>  <SMILES>  (82) 
NS(=O)(=O)c1ccccc1Cc1ccc(C(=O)[N-]c2cccc(Br)c2)s1

>  <Energy>  (82) 
70.79823096740935

>  <Genealogy>  (82) 
NS(=O)(=O)c1ccccc1Cc1ccc(C(=O)[N-]c2cccc(Br)c2)s1 (protonated)
NS(=O)(=O)c1ccccc1Cc1ccc(C(=O)[N-]c2cccc(Br)c2)s1 (3D coordinates assigned)
NS(=O)(=O)c1ccccc1Cc1ccc(C(=O)[N-]c2cccc(Br)c2)s1 (optimized conformer: 70.79823096740935 kcal/mol)

>  <smiles>  (82) 
NS(=O)(=O)c1ccccc1Cc1ccc(C(=O)Nc2cccc(Br)c2)s1

>  <score_type>  (82) 
oracle

>  <origin>  (82) 
adg

>  <m_score__min__energy>  (82) 
-10.74

>  <m_primary>  (82) 
energy

$$$$
82:0
     RDKit          3D

 50 51  0  0  0  0  0  0  0  0999 V2000
   60.1300   28.6640   49.5560 C   0  0  0  0  0  0  0  0  0  0  0  0
   59.0750   29.6800   49.9690 C   0  0  0  0  0  0  0  0  0  0  0  0
   59.1610   30.8270   49.1300 O   0  0  0  0  0  0  0  0  0  0  0  0
   59.9130   31.9580   49.4650 C   0  0  0  0  0  0  0  0  0  0  0  0
   59.5410   32.7180   50.4010 O   0  0  0  0  0  0  0  0  0  0  0  0
   61.1110   32.2970   48.6790 C   0  0  0  0  0  0  0  0  0  0  0  0
   62.4010   31.8400   48.9030 C   0  0  0  0  0  0  0  0  0  0  0  0
   62.8300   30.8720   49.9620 C   0  0  0  0  0  0  0  0  0  0  0  0
   63.2420   32.3560   47.9890 N   0  0  0  0  0  0  0  0  0  0  0  0
   62.5140   33.1520   47.1830 C   0  0  0  0  0  0  0  0  0  0  0  0
   63.0920   33.8730   46.0070 C   0  0  0  0  0  0  0  0  0  0  0  0
   61.1810   33.1410   47.5780 C   0  0  0  0  0  0  0  0  0  0  0  0
   59.8090   33.8580   46.7270 S   0  0  0  0  0  0  0  0  0  0  0  0
   59.9640   33.5850   45.2570 O   0  0  0  0  0  0  0  0  0  0  0  0
   59.7840   35.3470   46.9400 O   0  0  0  0  0  0  0  0  0  0  0  0
   58.3290   33.1470   47.3070 N   0  0  0  0  0  0  0  0  0  0  0  0
   57.4680   32.7230   46.2000 C   0  0  0  0  0  0  0  0  0  0  0  0
   57.7410   31.3050   45.7770 C   0  0  0  0  0  0  0  0  0  0  0  0
   57.0650   30.8070   44.8380 O   0  0  0  0  0  0  0  0  0  0  0  0
   58.7500   30.5260   46.4430 N   0  0  0  0  0  0  0  0  0  0  0  0
   58.9100   29.1060   46.2820 C   0  0  0  0  0  0  0  0  0  0  0  0
   60.2010   28.5710   46.1550 C   0  0  0  0  0  0  0  0  0  0  0  0
   60.3850   27.1930   46.0180 C   0  0  0  0  0  0  0  0  0  0  0  0
   59.2830   26.3350   46.0210 C   0  0  0  0  0  0  0  0  0  0  0  0
   57.9900   26.8510   46.1780 C   0  0  0  0  0  0  0  0  0  0  0  0
   56.5930   25.7800   46.1960 S   0  0  0  0  0  0  0  0  0  0  0  0
   55.1500   26.7140   46.0210 N   0  0  0  0  0  0  0  0  0  0  0  0
   56.6850   24.7890   45.0680 O   0  0  0  0  0  0  0  0  0  0  0  0
   56.5530   25.0280   47.4960 O   0  0  0  0  0  0  0  0  0  0  0  0
   57.8070   28.2350   46.3100 C   0  0  0  0  0  0  0  0  0  0  0  0
   60.5869   28.2240   50.4547 H   0  0  0  0  0  0  0  0  0  0  0  0
   59.6598   27.8699   48.9574 H   0  0  0  0  0  0  0  0  0  0  0  0
   60.9058   29.1637   48.9574 H   0  0  0  0  0  0  0  0  0  0  0  0
   58.0759   29.2300   49.8723 H   0  0  0  0  0  0  0  0  0  0  0  0
   59.2453   29.9786   51.0139 H   0  0  0  0  0  0  0  0  0  0  0  0
   62.6379   31.3055   50.9546 H   0  0  0  0  0  0  0  0  0  0  0  0
   62.2625   29.9358   49.8547 H   0  0  0  0  0  0  0  0  0  0  0  0
   63.9047   30.6636   49.8547 H   0  0  0  0  0  0  0  0  0  0  0  0
   64.2670   32.1630   47.9100 H   0  0  0  0  0  0  0  0  0  0  0  0
   63.7438   34.6860   46.3595 H   0  0  0  0  0  0  0  0  0  0  0  0
   63.6794   33.1699   45.3983 H   0  0  0  0  0  0  0  0  0  0  0  0
   62.2779   34.2934   45.3983 H   0  0  0  0  0  0  0  0  0  0  0  0
   56.4179   32.8016   46.5181 H   0  0  0  0  0  0  0  0  0  0  0  0
   57.6767   33.3773   45.3408 H   0  0  0  0  0  0  0  0  0  0  0  0
   59.4800   31.0350   46.9850 H   0  0  0  0  0  0  0  0  0  0  0  0
   61.0735   29.2408   46.1634 H   0  0  0  0  0  0  0  0  0  0  0  0
   61.3997   26.7829   45.9076 H   0  0  0  0  0  0  0  0  0  0  0  0
   59.4306   25.2517   45.8998 H   0  0  0  0  0  0  0  0  0  0  0  0
   55.1640   27.1080   45.0550 H   0  0  0  0  0  0  0  0  0  0  0  0
   56.7929   28.6421   46.4364 H   0  0  0  0  0  0  0  0  0  0  0  0
  1  2  1  0
  2  3  1  0
  3  4  1  0
  4  5  2  0
  4  6  1  0
  6  7  2  0
  7  8  1  0
  7  9  1  0
  9 10  1  0
 10 11  1  0
 10 12  2  0
 12 13  1  0
 13 14  2  0
 13 15  2  0
 13 16  1  0
 16 17  1  0
 17 18  1  0
 18 19  2  0
 18 20  1  0
 20 21  1  0
 21 22  2  0
 22 23  1  0
 23 24  2  0
 24 25  1  0
 25 26  1  0
 26 27  1  0
 26 28  2  0
 26 29  2  0
 25 30  2  0
 12  6  1  0
 30 21  1  0
  1 31  1  0
  1 32  1  0
  1 33  1  0
  2 34  1  0
  2 35  1  0
  8 36  1  0
  8 37  1  0
  8 38  1  0
  9 39  1  0
 11 40  1  0
 11 41  1  0
 11 42  1  0
 17 43  1  0
 17 44  1  0
 20 45  1  0
 22 46  1  0
 23 47  1  0
 24 48  1  0
 27 49  1  0
 30 50  1  0
M  CHG  2  16  -1  27  -1
M  END
>  <UniqueID>  (83) 
75

>  <SMILES>  (83) 
CCOC(=O)c1c(C)[nH]c(C)c1S(=O)(=O)[N-]CC(=O)Nc1cccc(S([NH-])(=O)=O)c1

>  <Energy>  (83) 
74.04821746100657

>  <Genealogy>  (83) 
CCOC(=O)c1c(C)[nH]c(C)c1S(=O)(=O)[N-]CC(=O)Nc1cccc(S([NH-])(=O)=O)c1 (protonated)
CCOC(=O)c1c(C)[nH]c(C)c1S(=O)(=O)[N-]CC(=O)Nc1cccc(S([NH-])(=O)=O)c1 (3D coordinates assigned)
CCOC(=O)c1c(C)[nH]c(C)c1S(=O)(=O)[N-]CC(=O)Nc1cccc(S([NH-])(=O)=O)c1 (optimized conformer: 74.04821746100657 kcal/mol)

>  <smiles>  (83) 
CCOC(=O)c1c(C)[nH]c(C)c1S(=O)(=O)NCC(=O)Nc1cccc(S(N)(=O)=O)c1

>  <score_type>  (83) 
oracle

>  <origin>  (83) 
adg

>  <m_score__min__energy>  (83) 
-12.5

>  <m_primary>  (83) 
energy

$$$$
83:0
     RDKit          3D

 45 47  0  0  0  0  0  0  0  0999 V2000
   56.9550   25.0920   46.4700 C   0  0  0  0  0  0  0  0  0  0  0  0
   56.7560   26.4800   46.7200 O   0  0  0  0  0  0  0  0  0  0  0  0
   57.7680   27.4520   46.6520 C   0  0  0  0  0  0  0  0  0  0  0  0
   58.1600   28.2030   47.7750 C   0  0  0  0  0  0  0  0  0  0  0  0
   59.1750   29.1540   47.6690 C   0  0  0  0  0  0  0  0  0  0  0  0
   59.8280   29.3670   46.4470 C   0  0  0  0  0  0  0  0  0  0  0  0
   60.9580   30.3700   46.3490 C   0  0  0  0  0  0  0  0  0  0  0  0
   60.6090   31.7610   46.9330 C   0  0  2  0  0  0  0  0  0  0  0  0
   60.9180   31.8870   48.4310 C   0  0  0  0  0  0  0  0  0  0  0  0
   59.6810   32.5130   49.0710 C   0  0  0  0  0  0  0  0  0  0  0  0
   58.5520   32.3530   48.0650 C   0  0  0  0  0  0  0  0  0  0  0  0
   59.1900   32.0670   46.7910 N   0  0  0  0  0  0  0  0  0  0  0  0
   58.5710   32.3310   45.5170 C   0  0  0  0  0  0  0  0  0  0  0  0
   58.8300   33.4080   44.9120 O   0  0  0  0  0  0  0  0  0  0  0  0
   57.6620   31.3570   44.8800 C   0  0  0  0  0  0  0  0  0  0  0  0
   57.3850   31.2990   43.5240 C   0  0  0  0  0  0  0  0  0  0  0  0
   56.5350   30.2290   43.3490 C   0  0  0  0  0  0  0  0  0  0  0  0
   56.3480   29.6940   44.6030 C   0  0  0  0  0  0  0  0  0  0  0  0
   55.5540   28.5870   44.8760 O   0  0  0  0  0  0  0  0  0  0  0  0
   57.0310   30.3690   45.5460 N   0  0  0  0  0  0  0  0  0  0  0  0
   59.4210   28.6360   45.3190 C   0  0  0  0  0  0  0  0  0  0  0  0
   58.3980   27.6730   45.4180 C   0  0  0  0  0  0  0  0  0  0  0  0
   57.9800   26.9150   44.3110 O   0  0  0  0  0  0  0  0  0  0  0  0
   58.1170   27.3240   42.9540 C   0  0  0  0  0  0  0  0  0  0  0  0
   57.0321   24.5545   47.4266 H   0  0  0  0  0  0  0  0  0  0  0  0
   56.1043   24.6973   45.8951 H   0  0  0  0  0  0  0  0  0  0  0  0
   57.8824   24.9522   45.8951 H   0  0  0  0  0  0  0  0  0  0  0  0
   57.6631   28.0393   48.7426 H   0  0  0  0  0  0  0  0  0  0  0  0
   59.4655   29.7420   48.5521 H   0  0  0  0  0  0  0  0  0  0  0  0
   61.8247   29.9711   46.8965 H   0  0  0  0  0  0  0  0  0  0  0  0
   61.1674   30.5143   45.2788 H   0  0  0  0  0  0  0  0  0  0  0  0
   61.2362   32.4574   46.3570 H   0  0  0  0  0  0  0  0  0  0  0  0
   61.1110   30.8949   48.8651 H   0  0  0  0  0  0  0  0  0  0  0  0
   61.8134   32.5019   48.6048 H   0  0  0  0  0  0  0  0  0  0  0  0
   59.4326   31.9931   50.0080 H   0  0  0  0  0  0  0  0  0  0  0  0
   59.8505   33.5718   49.3163 H   0  0  0  0  0  0  0  0  0  0  0  0
   57.8935   31.5220   48.3581 H   0  0  0  0  0  0  0  0  0  0  0  0
   57.9292   33.2580   48.0102 H   0  0  0  0  0  0  0  0  0  0  0  0
   57.7673   31.9727   42.7430 H   0  0  0  0  0  0  0  0  0  0  0  0
   56.0970   29.8759   42.4038 H   0  0  0  0  0  0  0  0  0  0  0  0
   55.9590   27.6600   44.9230 H   0  0  0  0  0  0  0  0  0  0  0  0
   59.9060   28.8174   44.3485 H   0  0  0  0  0  0  0  0  0  0  0  0
   58.4662   28.3665   42.9187 H   0  0  0  0  0  0  0  0  0  0  0  0
   58.8470   26.6755   42.4475 H   0  0  0  0  0  0  0  0  0  0  0  0
   57.1437   27.2460   42.4475 H   0  0  0  0  0  0  0  0  0  0  0  0
  1  2  1  0
  2  3  1  0
  3  4  2  0
  4  5  1  0
  5  6  2  0
  6  7  1  0
  7  8  1  0
  8  9  1  0
  9 10  1  0
 10 11  1  0
 11 12  1  0
 12 13  1  0
 13 14  2  0
 13 15  1  0
 15 16  2  0
 16 17  1  0
 17 18  2  0
 18 19  1  0
 18 20  1  0
  6 21  1  0
 21 22  2  0
 22 23  1  0
 23 24  1  0
 22  3  1  0
 12  8  1  0
 20 15  1  0
  1 25  1  0
  1 26  1  0
  1 27  1  0
  4 28  1  0
  5 29  1  0
  7 30  1  0
  7 31  1  0
  8 32  1  6
  9 33  1  0
  9 34  1  0
 10 35  1  0
 10 36  1  0
 11 37  1  0
 11 38  1  0
 16 39  1  0
 17 40  1  0
 19 41  1  0
 21 42  1  0
 24 43  1  0
 24 44  1  0
 24 45  1  0
M  CHG  1  20  -1
M  END
>  <UniqueID>  (84) 
76

>  <SMILES>  (84) 
COc1ccc(C[C@@H]2CCCN2C(=O)c2ccc(O)[n-]2)cc1OC

>  <Energy>  (84) 
68.64222316738585

>  <Genealogy>  (84) 
COc1ccc(CC2CCCN2C(=O)c2ccc(O)[n-]2)cc1OC (protonated)
COc1ccc(C[C@@H]2CCCN2C(=O)c2ccc(O)[n-]2)cc1OC (chirality)
COc1ccc(C[C@@H]2CCCN2C(=O)c2ccc(O)[n-]2)cc1OC (3D coordinates assigned)
COc1ccc(C[C@@H]2CCCN2C(=O)c2ccc(O)[n-]2)cc1OC (nonaromatic ring conformer: 68.64222316738585 kcal/mol)

>  <smiles>  (84) 
COc1ccc(CC2CCCN2C(=O)c2ccc(O)[nH]2)cc1OC

>  <score_type>  (84) 
oracle

>  <origin>  (84) 
adg

>  <m_score__min__energy>  (84) 
-10.19

>  <m_primary>  (84) 
energy

$$$$
84:0
     RDKit          3D

 30 31  0  0  0  0  0  0  0  0999 V2000
   55.1730   30.6150   44.4570 O   0  0  0  0  0  0  0  0  0  0  0  0
   56.3540   30.1860   44.5570 C   0  0  0  0  0  0  0  0  0  0  0  0
   56.6780   28.7840   44.1540 C   0  0  0  0  0  0  0  0  0  0  0  0
   57.1470   28.0270   45.3160 N   0  0  0  0  0  0  0  0  0  0  0  0
   56.4590   27.0880   45.9930 C   0  0  0  0  0  0  0  0  0  0  0  0
   55.1460   26.7270   45.7100 O   0  0  0  0  0  0  0  0  0  0  0  0
   57.2300   26.5270   46.9900 C   0  0  0  0  0  0  0  0  0  0  0  0
   58.4650   27.1460   46.9130 C   0  0  0  0  0  0  0  0  0  0  0  0
   58.3770   28.0500   45.8720 C   0  0  0  0  0  0  0  0  0  0  0  0
   59.4280   28.8630   45.4480 O   0  0  0  0  0  0  0  0  0  0  0  0
   57.3870   31.0240   45.0810 N   0  0  0  0  0  0  0  0  0  0  0  0
   57.4330   32.4620   44.8500 C   0  0  0  0  0  0  0  0  0  0  0  0
   58.2600   33.1090   45.9200 C   0  0  0  0  0  0  0  0  0  0  0  0
   58.8500   34.3650   45.6950 C   0  0  0  0  0  0  0  0  0  0  0  0
   59.5890   34.9870   46.7050 C   0  0  0  0  0  0  0  0  0  0  0  0
   59.7380   34.3670   47.9490 C   0  0  0  0  0  0  0  0  0  0  0  0
   60.4540   34.9720   48.9280 F   0  0  0  0  0  0  0  0  0  0  0  0
   59.1410   33.1250   48.1860 C   0  0  0  0  0  0  0  0  0  0  0  0
   58.4000   32.4990   47.1780 C   0  0  0  0  0  0  0  0  0  0  0  0
   55.7762   28.3042   43.7459 H   0  0  0  0  0  0  0  0  0  0  0  0
   57.4688   28.8006   43.3895 H   0  0  0  0  0  0  0  0  0  0  0  0
   56.9248   25.7459   47.7019 H   0  0  0  0  0  0  0  0  0  0  0  0
   59.3403   26.9566   47.5517 H   0  0  0  0  0  0  0  0  0  0  0  0
   59.2790   29.8220   45.1630 H   0  0  0  0  0  0  0  0  0  0  0  0
   57.8829   32.6620   43.8664 H   0  0  0  0  0  0  0  0  0  0  0  0
   56.4126   32.8721   44.8741 H   0  0  0  0  0  0  0  0  0  0  0  0
   58.7295   34.8602   44.7202 H   0  0  0  0  0  0  0  0  0  0  0  0
   60.0544   35.9665   46.5207 H   0  0  0  0  0  0  0  0  0  0  0  0
   59.2542   32.6394   49.1665 H   0  0  0  0  0  0  0  0  0  0  0  0
   57.9252   31.5257   47.3710 H   0  0  0  0  0  0  0  0  0  0  0  0
  1  2  2  0
  2  3  1  0
  3  4  1  0
  4  5  1  0
  5  6  1  0
  5  7  2  0
  7  8  1  0
  8  9  2  0
  9 10  1  0
  2 11  1  0
 11 12  1  0
 12 13  1  0
 13 14  2  0
 14 15  1  0
 15 16  2  0
 16 17  1  0
 16 18  1  0
 18 19  2  0
  9  4  1  0
 19 13  1  0
  3 20  1  0
  3 21  1  0
  7 22  1  0
  8 23  1  0
 10 24  1  0
 12 25  1  0
 12 26  1  0
 14 27  1  0
 15 28  1  0
 18 29  1  0
 19 30  1  0
M  CHG  2   6  -1  11  -1
M  END
>  <UniqueID>  (85) 
77

>  <SMILES>  (85) 
O=C(Cn1c([O-])ccc1O)[N-]Cc1ccc(F)cc1

>  <Energy>  (85) 
52.94437784472156

>  <Genealogy>  (85) 
O=C(Cn1c([O-])ccc1O)[N-]Cc1ccc(F)cc1 (protonated)
O=C(Cn1c([O-])ccc1O)[N-]Cc1ccc(F)cc1 (3D coordinates assigned)
O=C(Cn1c([O-])ccc1O)[N-]Cc1ccc(F)cc1 (optimized conformer: 52.94437784472156 kcal/mol)

>  <smiles>  (85) 
O=C(Cn1c(O)ccc1O)NCc1ccc(F)cc1

>  <score_type>  (85) 
oracle

>  <origin>  (85) 
adg

>  <m_score__min__energy>  (85) 
-11.41

>  <m_primary>  (85) 
energy

$$$$
85:0
     RDKit          3D

 51 55  0  0  0  0  0  0  0  0999 V2000
   56.5034   20.5074   43.1612 H   0  0  0  0  0  0  0  0  0  0  0  0
   56.6590   21.4810   43.6490 C   0  0  0  0  0  0  0  0  0  0  0  0
   55.5810   22.2160   44.0550 N   0  0  0  0  0  0  0  0  0  0  0  0
   55.7900   23.4110   44.6660 C   0  0  0  0  0  0  0  0  0  0  0  0
   57.0440   23.9030   44.8980 C   0  0  0  0  0  0  0  0  0  0  0  0
   58.1740   23.1990   44.4830 C   0  0  0  0  0  0  0  0  0  0  0  0
   59.1861   23.5983   44.6449 H   0  0  0  0  0  0  0  0  0  0  0  0
   57.9720   21.9620   43.8510 C   0  0  0  0  0  0  0  0  0  0  0  0
   58.8344   21.3682   43.5136 H   0  0  0  0  0  0  0  0  0  0  0  0
   56.8820   25.1280   45.5270 C   0  0  0  0  0  0  0  0  0  0  0  0
   57.9340   26.0470   46.0190 C   0  0  0  0  0  0  0  0  0  0  0  0
   58.7740   25.6620   47.0610 C   0  0  0  0  0  0  0  0  0  0  0  0
   58.7185   24.6404   47.4650 H   0  0  0  0  0  0  0  0  0  0  0  0
   59.6580   26.5470   47.5750 N   0  0  0  0  0  0  0  0  0  0  0  0
   59.8050   27.7960   47.0660 C   0  0  0  0  0  0  0  0  0  0  0  0
   60.5110   28.6400   47.7730 N   0  0  0  0  0  0  0  0  0  0  0  0
   60.1870   29.3020   49.0050 C   0  0  0  0  0  0  0  0  0  0  0  0
   58.8470   29.5090   49.3440 C   0  0  0  0  0  0  0  0  0  0  0  0
   58.0486   29.1305   48.6888 H   0  0  0  0  0  0  0  0  0  0  0  0
   58.5230   30.1960   50.5140 C   0  0  0  0  0  0  0  0  0  0  0  0
   57.4705   30.3455   50.7966 H   0  0  0  0  0  0  0  0  0  0  0  0
   59.5470   30.6920   51.3230 C   0  0  0  0  0  0  0  0  0  0  0  0
   59.3020   31.2269   52.2524 H   0  0  0  0  0  0  0  0  0  0  0  0
   60.8480   30.5150   50.9640 N   0  0  0  0  0  0  0  0  0  0  0  0
   61.6030   30.9060   51.5710 H   0  0  0  0  0  0  0  0  0  0  0  0
   61.1850   29.8480   49.8270 C   0  0  0  0  0  0  0  0  0  0  0  0
   62.2439   29.7362   49.5509 H   0  0  0  0  0  0  0  0  0  0  0  0
   59.1490   28.1310   45.8930 N   0  0  0  0  0  0  0  0  0  0  0  0
   59.6390   29.1950   44.9800 C   0  0  0  0  0  0  0  0  0  0  0  0
   60.7040   29.3797   45.1839 H   0  0  0  0  0  0  0  0  0  0  0  0
   59.4943   28.8569   43.9433 H   0  0  0  0  0  0  0  0  0  0  0  0
   58.8700   30.4820   45.1740 C   0  0  0  0  0  0  0  0  0  0  0  0
   58.9140   31.1480   46.4100 C   0  0  0  0  0  0  0  0  0  0  0  0
   59.5057   30.7290   47.2372 H   0  0  0  0  0  0  0  0  0  0  0  0
   58.2090   32.3410   46.5930 C   0  0  0  0  0  0  0  0  0  0  0  0
   58.2518   32.8611   47.5613 H   0  0  0  0  0  0  0  0  0  0  0  0
   57.4500   32.8740   45.5480 C   0  0  0  0  0  0  0  0  0  0  0  0
   56.7670   34.0320   45.7280 F   0  0  0  0  0  0  0  0  0  0  0  0
   57.3930   32.2130   44.3170 C   0  0  0  0  0  0  0  0  0  0  0  0
   56.7941   32.6324   43.4952 H   0  0  0  0  0  0  0  0  0  0  0  0
   58.0970   31.0190   44.1300 C   0  0  0  0  0  0  0  0  0  0  0  0
   58.0456   30.4983   43.1624 H   0  0  0  0  0  0  0  0  0  0  0  0
   58.1340   27.3140   45.4470 C   0  0  0  0  0  0  0  0  0  0  0  0
   57.4060   27.6790   44.4810 O   0  0  0  0  0  0  0  0  0  0  0  0
   55.5030   25.3120   45.6390 C   0  0  0  0  0  0  0  0  0  0  0  0
   55.0215   26.1864   46.1010 H   0  0  0  0  0  0  0  0  0  0  0  0
   54.8420   24.2610   45.0980 N   0  0  0  0  0  0  0  0  0  0  0  0
   53.4000   24.0500   45.0960 C   0  0  0  0  0  0  0  0  0  0  0  0
   53.0358   23.9967   46.1326 H   0  0  0  0  0  0  0  0  0  0  0  0
   52.9079   24.8857   44.5770 H   0  0  0  0  0  0  0  0  0  0  0  0
   53.1679   23.1083   44.5770 H   0  0  0  0  0  0  0  0  0  0  0  0
  1  2  1  0
  2  3  2  0
  3  4  1  0
  4  5  2  0
  5  6  1  0
  6  7  1  0
  6  8  2  0
  8  9  1  0
  5 10  1  0
 10 11  1  0
 11 12  2  0
 12 13  1  0
 12 14  1  0
 14 15  1  0
 15 16  2  0
 16 17  1  0
 17 18  2  0
 18 19  1  0
 18 20  1  0
 20 21  1  0
 20 22  2  0
 22 23  1  0
 22 24  1  0
 24 25  1  0
 24 26  2  0
 26 27  1  0
 15 28  1  0
 28 29  1  0
 29 30  1  0
 29 31  1  0
 29 32  1  0
 32 33  2  0
 33 34  1  0
 33 35  1  0
 35 36  1  0
 35 37  2  0
 37 38  1  0
 37 39  1  0
 39 40  1  0
 39 41  2  0
 41 42  1  0
 28 43  1  0
 43 44  2  0
 10 45  2  0
 45 46  1  0
 45 47  1  0
 47 48  1  0
 48 49  1  0
 48 50  1  0
 48 51  1  0
  8  2  1  0
 43 11  1  0
 47  4  1  0
 26 17  1  0
 41 32  1  0
M  CHG  2  14  -1  24   1
M  END
>  <UniqueID>  (86) 
78

>  <SMILES>  (86) 
Cn1cc(-c2c[n-]/c(=N/c3ccc[nH+]c3)n(Cc3ccc(F)cc3)c2=O)c2cccnc21

>  <Energy>  (86) 
125.02257530707242

>  <Genealogy>  (86) 
Cn1cc(-c2c[n-]c(=Nc3ccc[nH+]c3)n(Cc3ccc(F)cc3)c2=O)c2cccnc21 (protonated)
Cn1cc(-c2c[n-]/c(=N/c3ccc[nH+]c3)n(Cc3ccc(F)cc3)c2=O)c2cccnc21 (cis-trans isomerization)
Cn1cc(-c2c[n-]/c(=N/c3ccc[nH+]c3)n(Cc3ccc(F)cc3)c2=O)c2cccnc21 (3D coordinates assigned)
Cn1cc(-c2c[n-]/c(=N/c3ccc[nH+]c3)n(Cc3ccc(F)cc3)c2=O)c2cccnc21 (optimized conformer: 125.02257530707242 kcal/mol)

>  <smiles>  (86) 
Cn1cc(-c2c[nH]c(=Nc3cccnc3)n(Cc3ccc(F)cc3)c2=O)c2cccnc21

>  <score_type>  (86) 
oracle

>  <origin>  (86) 
adg

>  <m_score__min__energy>  (86) 
-8.0999999999999996

>  <m_primary>  (86) 
energy

$$$$
86:0
     RDKit          3D

 28 29  0  0  0  0  0  0  0  0999 V2000
   59.4805   35.5742   44.7049 H   0  0  0  0  0  0  0  0  0  0  0  0
   59.1210   34.7870   45.3840 C   0  0  0  0  0  0  0  0  0  0  0  0
   57.9350   34.2160   45.1210 C   0  0  0  0  0  0  0  0  0  0  0  0
   57.0236   34.8151   45.2637 H   0  0  0  0  0  0  0  0  0  0  0  0
   57.7920   32.8190   44.6480 C   0  0  0  0  0  0  0  0  0  0  0  0
   57.8860   31.7780   45.5840 C   0  0  0  0  0  0  0  0  0  0  0  0
   58.0672   32.0046   46.6450 H   0  0  0  0  0  0  0  0  0  0  0  0
   57.7490   30.4560   45.1650 C   0  0  0  0  0  0  0  0  0  0  0  0
   57.8311   29.6361   45.8937 H   0  0  0  0  0  0  0  0  0  0  0  0
   57.5070   30.1730   43.8170 C   0  0  0  0  0  0  0  0  0  0  0  0
   57.3620   28.8210   43.3730 N   0  0  0  0  0  0  0  0  0  0  0  0
   57.9920   28.4310   42.6360 H   0  0  0  0  0  0  0  0  0  0  0  0
   56.6250   28.2020   43.7760 H   0  0  0  0  0  0  0  0  0  0  0  0
   57.3980   31.2340   42.9110 C   0  0  0  0  0  0  0  0  0  0  0  0
   57.1996   31.0276   41.8489 H   0  0  0  0  0  0  0  0  0  0  0  0
   57.5360   32.5200   43.3360 N   0  0  0  0  0  0  0  0  0  0  0  0
   57.4080   33.2760   42.6290 H   0  0  0  0  0  0  0  0  0  0  0  0
   59.9750   34.4150   46.5410 C   0  0  0  0  0  0  0  0  0  0  0  0
   59.4470   34.5550   47.8360 C   0  0  0  0  0  0  0  0  0  0  0  0
   58.4199   34.9255   47.9694 H   0  0  0  0  0  0  0  0  0  0  0  0
   60.2170   34.2270   48.9560 C   0  0  0  0  0  0  0  0  0  0  0  0
   59.7917   34.3341   49.9648 H   0  0  0  0  0  0  0  0  0  0  0  0
   61.5240   33.7640   48.7970 C   0  0  0  0  0  0  0  0  0  0  0  0
   62.1254   33.5000   49.6794 H   0  0  0  0  0  0  0  0  0  0  0  0
   62.0680   33.6360   47.5170 C   0  0  0  0  0  0  0  0  0  0  0  0
   63.7200   33.0760   47.3200 Cl  0  0  0  0  0  0  0  0  0  0  0  0
   61.3020   33.9630   46.3910 C   0  0  0  0  0  0  0  0  0  0  0  0
   61.7375   33.8668   45.3855 H   0  0  0  0  0  0  0  0  0  0  0  0
  1  2  1  0
  2  3  2  0
  3  4  1  0
  3  5  1  0
  5  6  2  0
  6  7  1  0
  6  8  1  0
  8  9  1  0
  8 10  2  0
 10 11  1  0
 11 12  1  0
 11 13  1  0
 10 14  1  0
 14 15  1  0
 14 16  2  0
 16 17  1  0
  2 18  1  0
 18 19  2  0
 19 20  1  0
 19 21  1  0
 21 22  1  0
 21 23  2  0
 23 24  1  0
 23 25  1  0
 25 26  1  0
 25 27  2  0
 27 28  1  0
 16  5  1  0
 27 18  1  0
M  CHG  1  16   1
M  END
>  <UniqueID>  (87) 
79

>  <SMILES>  (87) 
Nc1ccc(/C=C/c2cccc(Cl)c2)[nH+]c1

>  <Energy>  (87) 
32.45106593145838

>  <Genealogy>  (87) 
Nc1ccc(C=Cc2cccc(Cl)c2)[nH+]c1 (protonated)
Nc1ccc(/C=C/c2cccc(Cl)c2)[nH+]c1 (cis-trans isomerization)
Nc1ccc(/C=C/c2cccc(Cl)c2)[nH+]c1 (3D coordinates assigned)
Nc1ccc(/C=C/c2cccc(Cl)c2)[nH+]c1 (optimized conformer: 32.45106593145838 kcal/mol)

>  <smiles>  (87) 
Nc1ccc(C=Cc2cccc(Cl)c2)nc1

>  <score_type>  (87) 
oracle

>  <origin>  (87) 
adg

>  <m_score__min__energy>  (87) 
-5.4400000000000004

>  <m_primary>  (87) 
energy

$$$$
87:0
     RDKit          3D

 16 16  0  0  0  0  0  0  0  0999 V2000
   56.0550   24.2200   46.6980 C   0  0  0  0  0  0  0  0  0  0  0  0
   56.8690   25.4110   46.2740 C   0  0  0  0  0  0  0  0  0  0  0  0
   58.2610   25.3140   46.1700 C   0  0  0  0  0  0  0  0  0  0  0  0
   58.9920   26.3840   45.7690 N   0  0  0  0  0  0  0  0  0  0  0  0
   58.4180   27.5740   45.4520 C   0  0  0  0  0  0  0  0  0  0  0  0
   59.1570   28.5330   45.1040 O   0  0  0  0  0  0  0  0  0  0  0  0
   57.0160   27.7290   45.5260 C   0  0  0  0  0  0  0  0  0  0  0  0
   56.3870   28.9840   45.1910 N   0  0  0  0  0  0  0  0  0  0  0  0
   56.9120   30.0690   45.5190 O   0  0  0  0  0  0  0  0  0  0  0  0
   55.1920   29.0110   44.5110 O   0  0  0  0  0  0  0  0  0  0  0  0
   56.2450   26.6230   45.9380 C   0  0  0  0  0  0  0  0  0  0  0  0
   54.8560   26.7150   45.9970 O   0  0  0  0  0  0  0  0  0  0  0  0
   56.0215   24.1710   47.7964 H   0  0  0  0  0  0  0  0  0  0  0  0
   55.0325   24.3156   46.3039 H   0  0  0  0  0  0  0  0  0  0  0  0
   56.5155   23.3021   46.3039 H   0  0  0  0  0  0  0  0  0  0  0  0
   58.7642   24.3668   46.4142 H   0  0  0  0  0  0  0  0  0  0  0  0
  1  2  1  0
  2  3  2  0
  3  4  1  0
  4  5  1  0
  5  6  2  0
  5  7  1  0
  7  8  1  0
  8  9  2  0
  8 10  1  0
  7 11  2  0
 11 12  1  0
 11  2  1  0
  1 13  1  0
  1 14  1  0
  1 15  1  0
  3 16  1  0
M  CHG  4   4  -1   8   1  10  -1  12  -1
M  END
>  <UniqueID>  (88) 
80

>  <SMILES>  (88) 
Cc1c[n-]c(=O)c([N+](=O)[O-])c1[O-]

>  <Energy>  (88) 
20.221158533674995

>  <Genealogy>  (88) 
Cc1c[n-]c(=O)c([N+](=O)[O-])c1[O-] (protonated)
Cc1c[n-]c(=O)c([N+](=O)[O-])c1[O-] (3D coordinates assigned)
Cc1c[n-]c(=O)c([N+](=O)[O-])c1[O-] (optimized conformer: 20.221158533674995 kcal/mol)

>  <smiles>  (88) 
Cc1c[nH]c(=O)c([N+](=O)[O-])c1O

>  <score_type>  (88) 
oracle

>  <origin>  (88) 
adg

>  <m_score__min__energy>  (88) 
-11.17

>  <m_primary>  (88) 
energy

$$$$
88:0
     RDKit          3D

 59 61  0  0  0  0  0  0  0  0999 V2000
   58.1190   32.3690   41.2240 C   0  0  0  0  0  0  0  0  0  0  0  0
   57.0090   31.9250   42.1710 C   0  0  0  0  0  0  0  0  0  0  0  0
   57.4110   30.7490   42.9400 N   0  0  0  0  0  0  0  0  0  0  0  0
   56.6580   30.3170   44.0820 C   0  0  0  0  0  0  0  0  0  0  0  0
   55.5550   30.8640   44.3500 O   0  0  0  0  0  0  0  0  0  0  0  0
   57.1400   29.2800   44.9450 N   0  0  0  0  0  0  0  0  0  0  0  0
   58.6270   28.4140   44.7270 S   0  0  0  0  0  0  0  0  0  0  0  0
   59.6290   29.3510   44.1140 O   0  0  0  0  0  0  0  0  0  0  0  0
   58.3680   27.2810   43.7760 O   0  0  0  0  0  0  0  0  0  0  0  0
   59.2190   27.7640   46.2730 C   0  0  0  0  0  0  0  0  0  0  0  0
   58.6260   26.5900   46.7690 C   0  0  0  0  0  0  0  0  0  0  0  0
   59.0090   26.0590   47.9990 C   0  0  0  0  0  0  0  0  0  0  0  0
   60.0080   26.6780   48.7470 C   0  0  0  0  0  0  0  0  0  0  0  0
   60.6330   27.8270   48.2620 C   0  0  0  0  0  0  0  0  0  0  0  0
   60.2590   28.3830   47.0240 C   0  0  0  0  0  0  0  0  0  0  0  0
   60.9850   29.6210   46.5550 C   0  0  0  0  0  0  0  0  0  0  0  0
   60.9010   30.6900   47.5490 N   0  0  0  0  0  0  0  0  0  0  0  0
   61.7190   31.8630   47.4340 C   0  0  0  0  0  0  0  0  0  0  0  0
   63.0670   31.7860   47.8170 C   0  0  0  0  0  0  0  0  0  0  0  0
   63.8980   32.9040   47.7120 C   0  0  0  0  0  0  0  0  0  0  0  0
   63.3880   34.1110   47.2380 C   0  0  0  0  0  0  0  0  0  0  0  0
   62.0440   34.2070   46.8710 C   0  0  0  0  0  0  0  0  0  0  0  0
   61.1970   33.0850   46.9510 C   0  0  0  0  0  0  0  0  0  0  0  0
   59.7680   33.2350   46.5920 C   0  0  0  0  0  0  0  0  0  0  0  0
   59.4220   33.4550   45.2490 C   0  0  0  0  0  0  0  0  0  0  0  0
   58.0840   33.5980   44.8750 C   0  0  0  0  0  0  0  0  0  0  0  0
   57.0780   33.5260   45.8380 C   0  0  0  0  0  0  0  0  0  0  0  0
   57.4060   33.2940   47.1750 C   0  0  0  0  0  0  0  0  0  0  0  0
   58.7440   33.1150   47.5640 C   0  0  0  0  0  0  0  0  0  0  0  0
   59.0710   32.9380   48.9520 N   0  0  0  0  0  0  0  0  0  0  0  0
   58.9450   31.4090   49.7680 S   0  0  0  0  0  0  0  0  0  0  0  0
   57.7690   31.4180   51.1060 C   0  0  0  0  0  0  0  0  0  0  0  0
   60.2920   31.0450   50.3250 O   0  0  0  0  0  0  0  0  0  0  0  0
   58.5260   30.3620   48.7740 O   0  0  0  0  0  0  0  0  0  0  0  0
   58.9838   32.7149   41.8093 H   0  0  0  0  0  0  0  0  0  0  0  0
   58.4205   31.5223   40.5899 H   0  0  0  0  0  0  0  0  0  0  0  0
   57.7533   33.1901   40.5899 H   0  0  0  0  0  0  0  0  0  0  0  0
   56.7793   32.7467   42.8653 H   0  0  0  0  0  0  0  0  0  0  0  0
   56.1234   31.6646   41.5727 H   0  0  0  0  0  0  0  0  0  0  0  0
   58.2930   30.2540   42.6820 H   0  0  0  0  0  0  0  0  0  0  0  0
   57.8488   26.0835   46.1779 H   0  0  0  0  0  0  0  0  0  0  0  0
   58.5217   25.1494   48.3800 H   0  0  0  0  0  0  0  0  0  0  0  0
   60.3042   26.2605   49.7206 H   0  0  0  0  0  0  0  0  0  0  0  0
   61.4277   28.3043   48.8541 H   0  0  0  0  0  0  0  0  0  0  0  0
   62.0428   29.3733   46.3826 H   0  0  0  0  0  0  0  0  0  0  0  0
   60.5129   29.9712   45.6252 H   0  0  0  0  0  0  0  0  0  0  0  0
   60.6470   30.3990   48.5210 H   0  0  0  0  0  0  0  0  0  0  0  0
   63.4720   30.8387   48.2025 H   0  0  0  0  0  0  0  0  0  0  0  0
   64.9561   32.8314   48.0038 H   0  0  0  0  0  0  0  0  0  0  0  0
   64.0448   34.9893   47.1528 H   0  0  0  0  0  0  0  0  0  0  0  0
   61.6433   35.1680   46.5161 H   0  0  0  0  0  0  0  0  0  0  0  0
   60.2113   33.5152   44.4852 H   0  0  0  0  0  0  0  0  0  0  0  0
   57.8235   33.7676   43.8198 H   0  0  0  0  0  0  0  0  0  0  0  0
   56.0255   33.6521   45.5440 H   0  0  0  0  0  0  0  0  0  0  0  0
   56.6087   33.2509   47.9316 H   0  0  0  0  0  0  0  0  0  0  0  0
   59.6870   33.6470   49.4070 H   0  0  0  0  0  0  0  0  0  0  0  0
   58.3059   31.4139   52.0661 H   0  0  0  0  0  0  0  0  0  0  0  0
   57.1443   32.3210   51.0391 H   0  0  0  0  0  0  0  0  0  0  0  0
   57.1306   30.5247   51.0391 H   0  0  0  0  0  0  0  0  0  0  0  0
  1  2  1  0
  2  3  1  0
  3  4  1  0
  4  5  2  0
  4  6  1  0
  6  7  1  0
  7  8  2  0
  7  9  2  0
  7 10  1  0
 10 11  2  0
 11 12  1  0
 12 13  2  0
 13 14  1  0
 14 15  2  0
 15 16  1  0
 16 17  1  0
 17 18  1  0
 18 19  2  0
 19 20  1  0
 20 21  2  0
 21 22  1  0
 22 23  2  0
 23 24  1  0
 24 25  2  0
 25 26  1  0
 26 27  2  0
 27 28  1  0
 28 29  2  0
 29 30  1  0
 30 31  1  0
 31 32  1  0
 31 33  2  0
 31 34  2  0
 15 10  1  0
 23 18  1  0
 29 24  1  0
  1 35  1  0
  1 36  1  0
  1 37  1  0
  2 38  1  0
  2 39  1  0
  3 40  1  0
 11 41  1  0
 12 42  1  0
 13 43  1  0
 14 44  1  0
 16 45  1  0
 16 46  1  0
 17 47  1  0
 19 48  1  0
 20 49  1  0
 21 50  1  0
 22 51  1  0
 25 52  1  0
 26 53  1  0
 27 54  1  0
 28 55  1  0
 30 56  1  0
 32 57  1  0
 32 58  1  0
 32 59  1  0
M  CHG  1   6  -1
M  END
>  <UniqueID>  (89) 
81

>  <SMILES>  (89) 
CCNC(=O)[N-]S(=O)(=O)c1ccccc1CNc1ccccc1-c1ccccc1NS(C)(=O)=O

>  <Energy>  (89) 
71.45146813616289

>  <Genealogy>  (89) 
CCNC(=O)[N-]S(=O)(=O)c1ccccc1CNc1ccccc1-c1ccccc1NS(C)(=O)=O (protonated)
CCNC(=O)[N-]S(=O)(=O)c1ccccc1CNc1ccccc1-c1ccccc1NS(C)(=O)=O (3D coordinates assigned)
CCNC(=O)[N-]S(=O)(=O)c1ccccc1CNc1ccccc1-c1ccccc1NS(C)(=O)=O (optimized conformer: 71.45146813616289 kcal/mol)

>  <smiles>  (89) 
CCNC(=O)NS(=O)(=O)c1ccccc1CNc1ccccc1-c1ccccc1NS(C)(=O)=O

>  <score_type>  (89) 
oracle

>  <origin>  (89) 
adg

>  <m_score__min__energy>  (89) 
-11.470000000000001

>  <m_primary>  (89) 
energy

$$$$
89:0
     RDKit          3D

 55 58  0  0  0  0  0  0  0  0999 V2000
   58.5560   31.2390   48.3460 H   0  0  0  0  0  0  0  0  0  0  0  0
   58.5740   32.2500   48.3650 O   0  0  0  0  0  0  0  0  0  0  0  0
   58.5540   33.0040   47.1920 C   0  0  0  0  0  0  0  0  0  0  0  0
   57.4000   33.0270   46.3900 C   0  0  0  0  0  0  0  0  0  0  0  0
   56.5215   32.4311   46.6781 H   0  0  0  0  0  0  0  0  0  0  0  0
   57.3630   33.8020   45.2300 C   0  0  0  0  0  0  0  0  0  0  0  0
   56.4547   33.8197   44.6097 H   0  0  0  0  0  0  0  0  0  0  0  0
   58.4780   34.5550   44.8560 C   0  0  0  0  0  0  0  0  0  0  0  0
   58.4472   35.1658   43.9417 H   0  0  0  0  0  0  0  0  0  0  0  0
   59.6320   34.5330   45.6420 C   0  0  0  0  0  0  0  0  0  0  0  0
   60.5079   35.1273   45.3424 H   0  0  0  0  0  0  0  0  0  0  0  0
   59.6830   33.7560   46.8150 C   0  0  0  0  0  0  0  0  0  0  0  0
   60.8900   33.7230   47.6040 N   0  0  0  0  0  0  0  0  0  0  0  0
   62.0430   32.9240   47.1790 C   0  0  0  0  0  0  0  0  0  0  0  0
   62.9139   33.5841   47.0531 H   0  0  0  0  0  0  0  0  0  0  0  0
   61.8007   32.4291   46.2270 H   0  0  0  0  0  0  0  0  0  0  0  0
   62.3720   31.8450   48.2320 C   0  0  0  0  0  0  0  0  0  0  0  0
   63.4637   31.7138   48.2621 H   0  0  0  0  0  0  0  0  0  0  0  0
   61.8415   30.9315   47.9252 H   0  0  0  0  0  0  0  0  0  0  0  0
   61.9030   32.1710   49.6060 N   0  0  0  0  0  0  0  0  0  0  0  0
   60.5870   31.5690   49.9210 C   0  0  0  0  0  0  0  0  0  0  0  0
   59.8203   32.0161   49.2712 H   0  0  0  0  0  0  0  0  0  0  0  0
   60.3521   31.7643   50.9777 H   0  0  0  0  0  0  0  0  0  0  0  0
   60.6170   30.0780   49.6980 C   0  0  0  0  0  0  0  0  0  0  0  0
   61.6000   29.4120   50.1220 O   0  0  0  0  0  0  0  0  0  0  0  0
   59.6430   29.4290   48.8700 N   0  0  0  0  0  0  0  0  0  0  0  0
   59.5120   29.5290   47.5770 C   0  0  0  0  0  0  0  0  0  0  0  0
   58.2580   29.5090   47.0540 N   0  0  0  0  0  0  0  0  0  0  0  0
   58.0200   29.5360   45.7150 C   0  0  0  0  0  0  0  0  0  0  0  0
   56.6280   29.4700   45.2340 C   0  0  0  0  0  0  0  0  0  0  0  0
   56.0990   30.5080   44.7560 O   0  0  0  0  0  0  0  0  0  0  0  0
   55.8720   28.2520   45.2500 N   0  0  0  0  0  0  0  0  0  0  0  0
   56.3790   26.9480   45.5630 C   0  0  0  0  0  0  0  0  0  0  0  0
   55.4790   25.9610   45.9870 C   0  0  0  0  0  0  0  0  0  0  0  0
   54.4015   26.1802   46.0179 H   0  0  0  0  0  0  0  0  0  0  0  0
   55.9430   24.6990   46.3710 C   0  0  0  0  0  0  0  0  0  0  0  0
   55.2286   23.9253   46.6889 H   0  0  0  0  0  0  0  0  0  0  0  0
   57.3120   24.4180   46.3520 C   0  0  0  0  0  0  0  0  0  0  0  0
   57.6741   23.4242   46.6542 H   0  0  0  0  0  0  0  0  0  0  0  0
   58.2200   25.4000   45.9490 C   0  0  0  0  0  0  0  0  0  0  0  0
   59.9440   25.0680   45.9970 Cl  0  0  0  0  0  0  0  0  0  0  0  0
   57.7570   26.6620   45.5500 C   0  0  0  0  0  0  0  0  0  0  0  0
   58.4733   27.4312   45.2257 H   0  0  0  0  0  0  0  0  0  0  0  0
   59.1000   29.6290   44.8230 C   0  0  0  0  0  0  0  0  0  0  0  0
   58.9245   29.6441   43.7372 H   0  0  0  0  0  0  0  0  0  0  0  0
   60.3970   29.7020   45.3280 C   0  0  0  0  0  0  0  0  0  0  0  0
   61.2501   29.7975   44.6402 H   0  0  0  0  0  0  0  0  0  0  0  0
   60.6140   29.6540   46.7060 C   0  0  0  0  0  0  0  0  0  0  0  0
   61.6358   29.7132   47.1091 H   0  0  0  0  0  0  0  0  0  0  0  0
   61.9120   33.6300   49.8540 C   0  0  0  0  0  0  0  0  0  0  0  0
   62.9282   34.0148   49.6831 H   0  0  0  0  0  0  0  0  0  0  0  0
   61.5954   33.8042   50.8929 H   0  0  0  0  0  0  0  0  0  0  0  0
   60.9340   34.3700   48.9220 C   0  0  0  0  0  0  0  0  0  0  0  0
   61.2658   35.4120   48.8028 H   0  0  0  0  0  0  0  0  0  0  0  0
   59.9282   34.3407   49.3664 H   0  0  0  0  0  0  0  0  0  0  0  0
  1  2  1  0
  2  3  1  0
  3  4  2  0
  4  5  1  0
  4  6  1  0
  6  7  1  0
  6  8  2  0
  8  9  1  0
  8 10  1  0
 10 11  1  0
 10 12  2  0
 12 13  1  0
 13 14  1  0
 14 15  1  0
 14 16  1  0
 14 17  1  0
 17 18  1  0
 17 19  1  0
 17 20  1  0
 20 21  1  0
 21 22  1  0
 21 23  1  0
 21 24  1  0
 24 25  2  0
 24 26  1  0
 26 27  2  0
 27 28  1  0
 28 29  1  0
 29 30  1  0
 30 31  2  0
 30 32  1  0
 32 33  1  0
 33 34  2  0
 34 35  1  0
 34 36  1  0
 36 37  1  0
 36 38  2  0
 38 39  1  0
 38 40  1  0
 40 41  1  0
 40 42  2  0
 42 43  1  0
 29 44  2  0
 44 45  1  0
 44 46  1  0
 46 47  1  0
 46 48  2  0
 48 49  1  0
 20 50  1  0
 50 51  1  0
 50 52  1  0
 50 53  1  0
 53 54  1  0
 53 55  1  0
 12  3  1  0
 53 13  1  0
 48 27  1  0
 42 33  1  0
M  CHG  2  28  -1  32  -1
M  END
>  <UniqueID>  (90) 
82

>  <SMILES>  (90) 
O=C(CN1CCN(c2ccccc2O)CC1)/N=c1\cccc(C(=O)[N-]c2cccc(Cl)c2)[n-]1

>  <Energy>  (90) 
83.37436308887958

>  <Genealogy>  (90) 
O=C(CN1CCN(c2ccccc2O)CC1)N=c1cccc(C(=O)[N-]c2cccc(Cl)c2)[n-]1 (protonated)
O=C(CN1CCN(c2ccccc2O)CC1)/N=c1\cccc(C(=O)[N-]c2cccc(Cl)c2)[n-]1 (cis-trans isomerization)
O=C(CN1CCN(c2ccccc2O)CC1)/N=c1\cccc(C(=O)[N-]c2cccc(Cl)c2)[n-]1 (3D coordinates assigned)
O=C(CN1CCN(c2ccccc2O)CC1)/N=c1\cccc(C(=O)[N-]c2cccc(Cl)c2)[n-]1 (nonaromatic ring conformer: 83.37436308887958 kcal/mol)

>  <smiles>  (90) 
O=C(CN1CCN(c2ccccc2O)CC1)N=c1cccc(C(=O)Nc2cccc(Cl)c2)[nH]1

>  <score_type>  (90) 
oracle

>  <origin>  (90) 
adg

>  <m_score__min__energy>  (90) 
-12.960000000000001

>  <m_primary>  (90) 
energy

$$$$
90:0
     RDKit          3D

 44 47  0  0  1  0  0  0  0  0999 V2000
   57.0010   26.8450   46.4940 C   0  0  0  0  0  0  0  0  0  0  0  0
   58.3440   26.9330   46.0420 N   0  0  0  0  0  0  0  0  0  0  0  0
   59.2230   25.8790   46.4150 C   0  0  0  0  0  0  0  0  0  0  0  0
   58.6310   27.6660   44.8900 C   0  0  0  0  0  0  0  0  0  0  0  0
   58.1740   29.0770   44.9660 C   0  0  0  0  0  0  0  0  0  0  0  0
   57.0570   29.5570   44.3910 C   0  0  0  0  0  0  0  0  0  0  0  0
   56.6410   30.8220   44.4910 N   0  0  0  0  0  0  0  0  0  0  0  0
   57.3650   31.6550   45.2050 C   0  0  0  0  0  0  0  0  0  0  0  0
   56.9660   32.9400   45.2560 N   0  0  0  0  0  0  0  0  0  0  0  0
   57.6570   33.8710   45.9230 C   0  0  0  0  0  0  0  0  0  0  0  0
   58.7930   33.4910   46.5730 N   0  0  0  0  0  0  0  0  0  0  0  0
   59.1860   32.1870   46.5200 C   0  0  0  0  0  0  0  0  0  0  0  0
   59.9500   31.8130   47.3740 N   0  0  0  0  0  0  0  0  0  0  0  0
   61.0980   31.6910   47.8890 C   0  0  0  0  0  0  0  0  0  0  0  0
   61.2870   30.8680   49.0640 C   0  0  0  0  0  0  0  0  0  0  0  0
   62.4750   30.8770   49.7380 C   0  0  0  0  0  0  0  0  0  0  0  0
   63.5220   31.6530   49.3380 C   0  0  0  0  0  0  0  0  0  0  0  0
   63.3740   32.4400   48.2320 C   0  0  0  0  0  0  0  0  0  0  0  0
   64.2700   33.2950   47.6630 N   0  0  0  0  0  0  0  0  0  0  0  0
   63.6810   33.8550   46.6110 N   0  0  0  0  0  0  0  0  0  0  0  0
   62.4340   33.3830   46.4920 C   0  0  0  0  0  0  0  0  0  0  0  0
   62.2240   32.4850   47.5120 C   0  0  0  0  0  0  0  0  0  0  0  0
   58.5320   31.2060   45.8350 C   0  0  0  0  0  0  0  0  0  0  0  0
   58.9970   29.9560   45.7530 C   0  0  0  0  0  0  0  0  0  0  0  0
   60.2700   29.3190   45.9020 C   0  0  0  0  0  0  0  0  0  0  0  0
   61.2640   29.3200   45.1500 O   0  0  0  0  0  0  0  0  0  0  0  0
   60.4360   28.5740   47.0970 O   0  0  0  0  0  0  0  0  0  0  0  0
   56.9836   26.8439   47.5939 H   0  0  0  0  0  0  0  0  0  0  0  0
   56.4307   27.7077   46.1192 H   0  0  0  0  0  0  0  0  0  0  0  0
   56.5481   25.9153   46.1192 H   0  0  0  0  0  0  0  0  0  0  0  0
   59.2754   25.8162   47.5120 H   0  0  0  0  0  0  0  0  0  0  0  0
   58.8470   24.9276   46.0108 H   0  0  0  0  0  0  0  0  0  0  0  0
   60.2265   26.0781   46.0108 H   0  0  0  0  0  0  0  0  0  0  0  0
   59.7197   27.6590   44.7332 H   0  0  0  0  0  0  0  0  0  0  0  0
   58.0909   27.1916   44.0574 H   0  0  0  0  0  0  0  0  0  0  0  0
   56.4450   28.8609   43.7986 H   0  0  0  0  0  0  0  0  0  0  0  0
   57.3170   34.9169   45.9463 H   0  0  0  0  0  0  0  0  0  0  0  0
   59.2930   34.2300   47.0650 H   0  0  0  0  0  0  0  0  0  0  0  0
   60.4652   30.2283   49.4182 H   0  0  0  0  0  0  0  0  0  0  0  0
   62.5900   30.2407   50.6279 H   0  0  0  0  0  0  0  0  0  0  0  0
   64.4696   31.6453   49.8965 H   0  0  0  0  0  0  0  0  0  0  0  0
   65.2440   33.4630   48.0120 H   0  0  0  0  0  0  0  0  0  0  0  0
   61.7065   33.6636   45.7161 H   0  0  0  0  0  0  0  0  0  0  0  0
   59.8070   27.8560   47.3650 H   0  0  0  0  0  0  0  0  0  0  0  0
  1  2  1  0
  2  3  1  0
  2  4  1  0
  4  5  1  0
  5  6  2  0
  6  7  1  0
  7  8  2  0
  8  9  1  0
  9 10  2  0
 10 11  1  0
 11 12  1  0
 12 13  2  0
 13 14  1  0
 14 15  2  0
 15 16  1  0
 16 17  2  0
 17 18  1  0
 18 19  1  0
 19 20  1  0
 20 21  2  0
 21 22  1  0
 12 23  1  0
 23 24  2  0
 24 25  1  0
 25 26  2  0
 25 27  1  0
 24  5  1  0
 23  8  1  0
 22 14  1  0
 22 18  2  0
  1 28  1  0
  1 29  1  0
  1 30  1  0
  3 31  1  0
  3 32  1  0
  3 33  1  0
  4 34  1  0
  4 35  1  0
  6 36  1  0
 10 37  1  0
 11 38  1  0
 15 39  1  0
 16 40  1  0
 17 41  1  0
 19 42  1  0
 21 43  1  0
 27 44  1  0
M  END
>  <smiles>  (91) 
CN(C)Cc1cnc2nc[nH]c(=Nc3cccc4[nH]ncc34)c2c1C(=O)O

>  <score_type>  (91) 
oracle

>  <origin>  (91) 
adg

>  <m_score__min__energy>  (91) 
-8

>  <m_primary>  (91) 
energy

$$$$
91:0
     RDKit          3D

 45 46  0  0  0  0  0  0  0  0999 V2000
   58.2730   21.6680   43.7470 C   0  0  0  0  0  0  0  0  0  0  0  0
   56.5380   22.0230   43.9590 S   0  0  0  0  0  0  0  0  0  0  0  0
   55.8350   20.7650   44.3860 O   0  0  0  0  0  0  0  0  0  0  0  0
   55.9350   22.4940   42.6650 O   0  0  0  0  0  0  0  0  0  0  0  0
   56.3280   23.2280   45.1900 N   0  0  0  0  0  0  0  0  0  0  0  0
   56.7200   24.6050   45.0920 C   0  0  0  0  0  0  0  0  0  0  0  0
   56.3590   25.4820   46.1230 C   0  0  0  0  0  0  0  0  0  0  0  0
   56.7080   26.8350   46.0610 C   0  0  0  0  0  0  0  0  0  0  0  0
   57.4250   27.3310   44.9620 C   0  0  0  0  0  0  0  0  0  0  0  0
   57.7350   28.7990   44.8580 C   0  0  0  0  0  0  0  0  0  0  0  0
   56.4570   29.5750   44.8220 C   0  0  0  0  0  0  0  0  0  0  0  0
   55.3520   28.9670   44.8670 O   0  0  0  0  0  0  0  0  0  0  0  0
   56.5000   31.0050   44.8370 N   0  0  0  0  0  0  0  0  0  0  0  0
   57.5210   31.7760   44.1370 C   0  0  0  0  0  0  0  0  0  0  0  0
   58.3920   32.4860   45.1360 C   0  0  0  0  0  0  0  0  0  0  0  0
   58.9430   31.7950   46.2270 C   0  0  0  0  0  0  0  0  0  0  0  0
   59.8000   32.4510   47.1150 C   0  0  0  0  0  0  0  0  0  0  0  0
   60.1230   33.8010   46.9320 C   0  0  0  0  0  0  0  0  0  0  0  0
   60.9830   34.4080   47.8630 O   0  0  0  0  0  0  0  0  0  0  0  0
   62.2030   33.8500   48.3550 C   0  0  0  0  0  0  0  0  0  0  0  0
   62.9990   33.2040   47.2240 C   0  0  0  0  0  0  0  0  0  0  0  0
   63.3130   34.1550   46.2710 F   0  0  0  0  0  0  0  0  0  0  0  0
   59.5830   34.4910   45.8280 C   0  0  0  0  0  0  0  0  0  0  0  0
   58.7260   33.8350   44.9390 C   0  0  0  0  0  0  0  0  0  0  0  0
   57.7830   26.4550   43.9250 C   0  0  0  0  0  0  0  0  0  0  0  0
   57.4380   25.1020   43.9910 C   0  0  0  0  0  0  0  0  0  0  0  0
   58.7504   21.5703   44.7332 H   0  0  0  0  0  0  0  0  0  0  0  0
   58.3893   20.7275   43.1885 H   0  0  0  0  0  0  0  0  0  0  0  0
   58.7493   22.4873   43.1885 H   0  0  0  0  0  0  0  0  0  0  0  0
   55.7962   25.1033   46.9889 H   0  0  0  0  0  0  0  0  0  0  0  0
   56.4190   27.5131   46.8775 H   0  0  0  0  0  0  0  0  0  0  0  0
   58.3296   29.1112   45.7292 H   0  0  0  0  0  0  0  0  0  0  0  0
   58.3068   28.9896   43.9378 H   0  0  0  0  0  0  0  0  0  0  0  0
   58.1387   31.0983   43.5294 H   0  0  0  0  0  0  0  0  0  0  0  0
   57.0354   32.5169   43.4848 H   0  0  0  0  0  0  0  0  0  0  0  0
   58.6994   30.7338   46.3834 H   0  0  0  0  0  0  0  0  0  0  0  0
   60.2254   31.9006   47.9671 H   0  0  0  0  0  0  0  0  0  0  0  0
   62.8069   34.6486   48.8105 H   0  0  0  0  0  0  0  0  0  0  0  0
   61.9620   33.0788   49.1015 H   0  0  0  0  0  0  0  0  0  0  0  0
   63.9263   32.7732   47.6296 H   0  0  0  0  0  0  0  0  0  0  0  0
   62.3940   32.4107   46.7606 H   0  0  0  0  0  0  0  0  0  0  0  0
   59.8366   35.5489   45.6652 H   0  0  0  0  0  0  0  0  0  0  0  0
   58.3104   34.3802   44.0788 H   0  0  0  0  0  0  0  0  0  0  0  0
   58.3384   26.8357   43.0552 H   0  0  0  0  0  0  0  0  0  0  0  0
   57.7301   24.4226   43.1767 H   0  0  0  0  0  0  0  0  0  0  0  0
  1  2  1  0
  2  3  2  0
  2  4  2  0
  2  5  1  0
  5  6  1  0
  6  7  2  0
  7  8  1  0
  8  9  2  0
  9 10  1  0
 10 11  1  0
 11 12  2  0
 11 13  1  0
 13 14  1  0
 14 15  1  0
 15 16  2  0
 16 17  1  0
 17 18  2  0
 18 19  1  0
 19 20  1  0
 20 21  1  0
 21 22  1  0
 18 23  1  0
 23 24  2  0
  9 25  1  0
 25 26  2  0
 26  6  1  0
 24 15  1  0
  1 27  1  0
  1 28  1  0
  1 29  1  0
  7 30  1  0
  8 31  1  0
 10 32  1  0
 10 33  1  0
 14 34  1  0
 14 35  1  0
 16 36  1  0
 17 37  1  0
 20 38  1  0
 20 39  1  0
 21 40  1  0
 21 41  1  0
 23 42  1  0
 24 43  1  0
 25 44  1  0
 26 45  1  0
M  CHG  2   5  -1  13  -1
M  END
>  <UniqueID>  (92) 
83

>  <SMILES>  (92) 
CS(=O)(=O)[N-]c1ccc(CC(=O)[N-]Cc2ccc(OCCF)cc2)cc1

>  <Energy>  (92) 
36.49949492522984

>  <Genealogy>  (92) 
CS(=O)(=O)[N-]c1ccc(CC(=O)[N-]Cc2ccc(OCCF)cc2)cc1 (protonated)
CS(=O)(=O)[N-]c1ccc(CC(=O)[N-]Cc2ccc(OCCF)cc2)cc1 (3D coordinates assigned)
CS(=O)(=O)[N-]c1ccc(CC(=O)[N-]Cc2ccc(OCCF)cc2)cc1 (optimized conformer: 36.49949492522984 kcal/mol)

>  <smiles>  (92) 
CS(=O)(=O)Nc1ccc(CC(=O)NCc2ccc(OCCF)cc2)cc1

>  <score_type>  (92) 
oracle

>  <origin>  (92) 
adg

>  <m_score__min__energy>  (92) 
-10.65

>  <m_primary>  (92) 
energy

$$$$
92:0
     RDKit          3D

 32 33  0  0  0  0  0  0  0  0999 V2000
   54.6750   27.0790   46.7120 H   0  0  0  0  0  0  0  0  0  0  0  0
   54.7540   26.3220   45.9950 N   0  0  0  0  0  0  0  0  0  0  0  0
   56.3840   25.7510   46.0440 S   0  0  0  0  0  0  0  0  0  0  0  0
   56.6990   25.2450   47.4240 O   0  0  0  0  0  0  0  0  0  0  0  0
   56.5470   24.6210   45.0670 O   0  0  0  0  0  0  0  0  0  0  0  0
   57.4800   27.0640   45.6230 C   0  0  0  0  0  0  0  0  0  0  0  0
   58.8490   26.9510   45.8960 C   0  0  0  0  0  0  0  0  0  0  0  0
   59.2416   26.0375   46.3664 H   0  0  0  0  0  0  0  0  0  0  0  0
   59.7160   27.9960   45.5720 C   0  0  0  0  0  0  0  0  0  0  0  0
   60.7913   27.9013   45.7835 H   0  0  0  0  0  0  0  0  0  0  0  0
   59.2230   29.1620   44.9800 C   0  0  0  0  0  0  0  0  0  0  0  0
   59.9135   29.9795   44.7251 H   0  0  0  0  0  0  0  0  0  0  0  0
   57.8500   29.2970   44.7080 C   0  0  0  0  0  0  0  0  0  0  0  0
   57.3230   30.5330   44.0820 C   0  0  0  0  0  0  0  0  0  0  0  0
   57.0070   30.5290   42.8610 O   0  0  0  0  0  0  0  0  0  0  0  0
   57.0900   31.7000   44.8900 N   0  0  0  0  0  0  0  0  0  0  0  0
   57.9300   32.6310   45.2590 C   0  0  0  0  0  0  0  0  0  0  0  0
   59.0380   32.3730   46.0950 C   0  0  0  0  0  0  0  0  0  0  0  0
   59.2314   31.3517   46.4550 H   0  0  0  0  0  0  0  0  0  0  0  0
   59.8910   33.4220   46.4650 C   0  0  0  0  0  0  0  0  0  0  0  0
   61.0940   33.1530   47.3220 C   0  0  0  0  0  0  0  0  0  0  0  0
   60.8101   33.2165   48.3828 H   0  0  0  0  0  0  0  0  0  0  0  0
   61.4807   32.1462   47.1055 H   0  0  0  0  0  0  0  0  0  0  0  0
   61.8727   33.8992   47.1055 H   0  0  0  0  0  0  0  0  0  0  0  0
   59.6420   34.7110   45.9830 C   0  0  0  0  0  0  0  0  0  0  0  0
   60.3205   35.5385   46.2375 H   0  0  0  0  0  0  0  0  0  0  0  0
   58.5280   34.9390   45.1780 C   0  0  0  0  0  0  0  0  0  0  0  0
   58.3166   35.9538   44.8100 H   0  0  0  0  0  0  0  0  0  0  0  0
   57.7000   33.9110   44.8450 N   0  0  0  0  0  0  0  0  0  0  0  0
   56.8730   34.1180   44.2390 H   0  0  0  0  0  0  0  0  0  0  0  0
   56.9830   28.2360   45.0370 C   0  0  0  0  0  0  0  0  0  0  0  0
   55.9062   28.3285   44.8320 H   0  0  0  0  0  0  0  0  0  0  0  0
  1  2  1  0
  2  3  1  0
  3  4  2  0
  3  5  2  0
  3  6  1  0
  6  7  2  0
  7  8  1  0
  7  9  1  0
  9 10  1  0
  9 11  2  0
 11 12  1  0
 11 13  1  0
 13 14  1  0
 14 15  2  0
 14 16  1  0
 16 17  2  0
 17 18  1  0
 18 19  1  0
 18 20  2  0
 20 21  1  0
 21 22  1  0
 21 23  1  0
 21 24  1  0
 20 25  1  0
 25 26  1  0
 25 27  2  0
 27 28  1  0
 27 29  1  0
 29 30  1  0
 13 31  2  0
 31 32  1  0
 31  6  1  0
 29 17  1  0
M  CHG  1   2  -1
M  END
>  <UniqueID>  (93) 
84

>  <SMILES>  (93) 
Cc1cc[nH]/c(=N/C(=O)c2cccc(S([NH-])(=O)=O)c2)c1

>  <Energy>  (93) 
40.48176652644236

>  <Genealogy>  (93) 
Cc1cc[nH]c(=NC(=O)c2cccc(S([NH-])(=O)=O)c2)c1 (protonated)
Cc1cc[nH]/c(=N/C(=O)c2cccc(S([NH-])(=O)=O)c2)c1 (cis-trans isomerization)
Cc1cc[nH]/c(=N/C(=O)c2cccc(S([NH-])(=O)=O)c2)c1 (3D coordinates assigned)
Cc1cc[nH]/c(=N/C(=O)c2cccc(S([NH-])(=O)=O)c2)c1 (optimized conformer: 40.48176652644236 kcal/mol)

>  <smiles>  (93) 
Cc1cc[nH]c(=NC(=O)c2cccc(S(N)(=O)=O)c2)c1

>  <score_type>  (93) 
oracle

>  <origin>  (93) 
adg

>  <m_score__min__energy>  (93) 
-10.93

>  <m_primary>  (93) 
energy

$$$$
93:0
     RDKit          3D

 43 45  0  0  0  0  0  0  0  0999 V2000
   54.2210   30.0370   51.4950 N   0  0  0  0  0  0  0  0  0  0  0  0
   55.4630   29.9650   52.6970 S   0  0  0  0  0  0  0  0  0  0  0  0
   54.9210   30.4540   54.0100 O   0  0  0  0  0  0  0  0  0  0  0  0
   55.9040   28.5360   52.8410 O   0  0  0  0  0  0  0  0  0  0  0  0
   56.8390   30.9580   52.2230 C   0  0  0  0  0  0  0  0  0  0  0  0
   57.9790   30.3760   51.6540 C   0  0  0  0  0  0  0  0  0  0  0  0
   59.0620   31.1740   51.2730 C   0  0  0  0  0  0  0  0  0  0  0  0
   59.0140   32.5690   51.4450 C   0  0  0  0  0  0  0  0  0  0  0  0
   60.0890   33.4290   51.0410 N   0  0  0  0  0  0  0  0  0  0  0  0
   61.0540   33.2230   49.6140 S   0  0  0  0  0  0  0  0  0  0  0  0
   62.0040   32.0750   49.8090 O   0  0  0  0  0  0  0  0  0  0  0  0
   61.8540   34.4730   49.3740 O   0  0  0  0  0  0  0  0  0  0  0  0
   60.0020   32.9460   48.2290 C   0  0  0  0  0  0  0  0  0  0  0  0
   60.4680   32.2460   47.1070 C   0  0  0  0  0  0  0  0  0  0  0  0
   59.5970   31.9390   46.0600 C   0  0  0  0  0  0  0  0  0  0  0  0
   58.2510   32.3380   46.1200 C   0  0  0  0  0  0  0  0  0  0  0  0
   57.3270   31.9830   45.0830 N   0  0  0  0  0  0  0  0  0  0  0  0
   57.4350   30.8050   44.2710 C   0  0  0  0  0  0  0  0  0  0  0  0
   57.4580   30.9300   43.0180 O   0  0  0  0  0  0  0  0  0  0  0  0
   57.4610   29.4490   44.8750 C   0  0  0  0  0  0  0  0  0  0  0  0
   58.6940   28.8500   45.1930 C   0  0  0  0  0  0  0  0  0  0  0  0
   58.7380   27.5710   45.7550 C   0  0  0  0  0  0  0  0  0  0  0  0
   59.9340   27.0090   46.0610 F   0  0  0  0  0  0  0  0  0  0  0  0
   57.5540   26.8790   46.0130 C   0  0  0  0  0  0  0  0  0  0  0  0
   56.3210   27.4640   45.7110 C   0  0  0  0  0  0  0  0  0  0  0  0
   55.1450   26.7680   45.9720 O   0  0  0  0  0  0  0  0  0  0  0  0
   56.2680   28.7470   45.1450 C   0  0  0  0  0  0  0  0  0  0  0  0
   55.0310   29.3070   44.8390 O   0  0  0  0  0  0  0  0  0  0  0  0
   57.8030   33.0890   47.2130 C   0  0  0  0  0  0  0  0  0  0  0  0
   58.6700   33.3800   48.2710 C   0  0  0  0  0  0  0  0  0  0  0  0
   57.8760   33.1450   52.0210 C   0  0  0  0  0  0  0  0  0  0  0  0
   56.7930   32.3470   52.4060 C   0  0  0  0  0  0  0  0  0  0  0  0
   53.9750   29.0540   51.2460 H   0  0  0  0  0  0  0  0  0  0  0  0
   58.0224   29.2868   51.5063 H   0  0  0  0  0  0  0  0  0  0  0  0
   59.9573   30.7077   50.8359 H   0  0  0  0  0  0  0  0  0  0  0  0
   61.5225   31.9379   47.0516 H   0  0  0  0  0  0  0  0  0  0  0  0
   59.9656   31.3830   45.1853 H   0  0  0  0  0  0  0  0  0  0  0  0
   59.6307   29.3927   44.9977 H   0  0  0  0  0  0  0  0  0  0  0  0
   57.5911   25.8722   46.4545 H   0  0  0  0  0  0  0  0  0  0  0  0
   56.7649   33.4517   47.2398 H   0  0  0  0  0  0  0  0  0  0  0  0
   58.3058   33.9507   49.1380 H   0  0  0  0  0  0  0  0  0  0  0  0
   57.8326   34.2337   52.1723 H   0  0  0  0  0  0  0  0  0  0  0  0
   55.9021   32.8114   52.8540 H   0  0  0  0  0  0  0  0  0  0  0  0
  1  2  1  0
  2  3  2  0
  2  4  2  0
  2  5  1  0
  5  6  2  0
  6  7  1  0
  7  8  2  0
  8  9  1  0
  9 10  1  0
 10 11  2  0
 10 12  2  0
 10 13  1  0
 13 14  2  0
 14 15  1  0
 15 16  2  0
 16 17  1  0
 17 18  1  0
 18 19  2  0
 18 20  1  0
 20 21  2  0
 21 22  1  0
 22 23  1  0
 22 24  2  0
 24 25  1  0
 25 26  1  0
 25 27  2  0
 27 28  1  0
 16 29  1  0
 29 30  2  0
  8 31  1  0
 31 32  2  0
 32  5  1  0
 30 13  1  0
 27 20  1  0
  1 33  1  0
  6 34  1  0
  7 35  1  0
 14 36  1  0
 15 37  1  0
 21 38  1  0
 24 39  1  0
 29 40  1  0
 30 41  1  0
 31 42  1  0
 32 43  1  0
M  CHG  5   1  -1   9  -1  17  -1  26  -1  28  -1
M  END
>  <UniqueID>  (94) 
85

>  <SMILES>  (94) 
[NH-]S(=O)(=O)c1ccc([N-]S(=O)(=O)c2ccc([N-]C(=O)c3cc(F)cc([O-])c3[O-])cc2)cc1

>  <Energy>  (94) 
55.981785229302794

>  <Genealogy>  (94) 
[NH-]S(=O)(=O)c1ccc([N-]S(=O)(=O)c2ccc([N-]C(=O)c3cc(F)cc([O-])c3[O-])cc2)cc1 (protonated)
[NH-]S(=O)(=O)c1ccc([N-]S(=O)(=O)c2ccc([N-]C(=O)c3cc(F)cc([O-])c3[O-])cc2)cc1 (3D coordinates assigned)
[NH-]S(=O)(=O)c1ccc([N-]S(=O)(=O)c2ccc([N-]C(=O)c3cc(F)cc([O-])c3[O-])cc2)cc1 (optimized conformer: 55.981785229302794 kcal/mol)

>  <smiles>  (94) 
NS(=O)(=O)c1ccc(NS(=O)(=O)c2ccc(NC(=O)c3cc(F)cc(O)c3O)cc2)cc1

>  <score_type>  (94) 
oracle

>  <origin>  (94) 
adg

>  <m_score__min__energy>  (94) 
-21.32

>  <m_primary>  (94) 
energy

$$$$
94:0
     RDKit          3D

 34 35  0  0  0  0  0  0  0  0999 V2000
   55.1360   27.9670   44.9460 H   0  0  0  0  0  0  0  0  0  0  0  0
   55.1700   28.9710   44.8320 O   0  0  0  0  0  0  0  0  0  0  0  0
   56.3080   29.6540   44.3980 C   0  0  0  0  0  0  0  0  0  0  0  0
   56.1290   30.7220   43.5080 C   0  0  0  0  0  0  0  0  0  0  0  0
   55.1227   30.9537   43.1289 H   0  0  0  0  0  0  0  0  0  0  0  0
   57.2180   31.4940   43.0990 C   0  0  0  0  0  0  0  0  0  0  0  0
   57.0674   32.3307   42.4010 H   0  0  0  0  0  0  0  0  0  0  0  0
   58.4970   31.2050   43.5750 C   0  0  0  0  0  0  0  0  0  0  0  0
   59.3515   31.8244   43.2649 H   0  0  0  0  0  0  0  0  0  0  0  0
   58.6940   30.1300   44.4450 C   0  0  0  0  0  0  0  0  0  0  0  0
   59.7054   29.9077   44.8161 H   0  0  0  0  0  0  0  0  0  0  0  0
   57.6110   29.3290   44.8510 C   0  0  0  0  0  0  0  0  0  0  0  0
   57.8820   28.1560   45.7080 C   0  0  0  0  0  0  0  0  0  0  0  0
   59.0640   27.7250   45.8120 O   0  0  0  0  0  0  0  0  0  0  0  0
   56.7940   27.4760   46.3570 N   0  0  0  0  0  0  0  0  0  0  0  0
   56.2500   26.3600   45.9690 C   0  0  0  0  0  0  0  0  0  0  0  0
   54.9300   26.0980   45.9830 N   0  0  0  0  0  0  0  0  0  0  0  0
   54.7930   24.8890   45.5190 O   0  0  0  0  0  0  0  0  0  0  0  0
   55.9580   24.3590   45.2070 C   0  0  0  0  0  0  0  0  0  0  0  0
   56.1520   22.9670   44.6410 C   0  0  0  0  0  0  0  0  0  0  0  0
   55.1390   22.0040   45.2890 C   0  0  0  0  0  0  0  0  0  0  0  0
   55.2141   22.0754   46.3841 H   0  0  0  0  0  0  0  0  0  0  0  0
   54.1210   22.2755   44.9728 H   0  0  0  0  0  0  0  0  0  0  0  0
   55.3586   20.9736   44.9728 H   0  0  0  0  0  0  0  0  0  0  0  0
   55.9300   22.9790   43.1150 C   0  0  0  0  0  0  0  0  0  0  0  0
   54.8525   23.0373   42.9017 H   0  0  0  0  0  0  0  0  0  0  0  0
   56.4381   23.8510   42.6774 H   0  0  0  0  0  0  0  0  0  0  0  0
   56.3411   22.0573   42.6774 H   0  0  0  0  0  0  0  0  0  0  0  0
   57.5850   22.4890   44.9380 C   0  0  0  0  0  0  0  0  0  0  0  0
   57.7365   22.4385   46.0263 H   0  0  0  0  0  0  0  0  0  0  0  0
   57.7370   21.4915   44.4999 H   0  0  0  0  0  0  0  0  0  0  0  0
   58.3054   23.1955   44.4999 H   0  0  0  0  0  0  0  0  0  0  0  0
   56.9520   25.2820   45.4820 C   0  0  0  0  0  0  0  0  0  0  0  0
   58.0385   25.1787   45.3446 H   0  0  0  0  0  0  0  0  0  0  0  0
  1  2  1  0
  2  3  1  0
  3  4  2  0
  4  5  1  0
  4  6  1  0
  6  7  1  0
  6  8  2  0
  8  9  1  0
  8 10  1  0
 10 11  1  0
 10 12  2  0
 12 13  1  0
 13 14  2  0
 13 15  1  0
 15 16  2  0
 16 17  1  0
 17 18  1  0
 18 19  1  0
 19 20  1  0
 20 21  1  0
 21 22  1  0
 21 23  1  0
 21 24  1  0
 20 25  1  0
 25 26  1  0
 25 27  1  0
 25 28  1  0
 20 29  1  0
 29 30  1  0
 29 31  1  0
 29 32  1  0
 19 33  2  0
 33 34  1  0
 12  3  1  0
 33 16  1  0
M  CHG  1  17  -1
M  END
>  <UniqueID>  (95) 
86

>  <SMILES>  (95) 
CC(C)(C)c1c/c(=N/C(=O)c2ccccc2O)[n-]o1

>  <Energy>  (95) 
68.27768246392606

>  <Genealogy>  (95) 
CC(C)(C)c1cc(=NC(=O)c2ccccc2O)[n-]o1 (protonated)
CC(C)(C)c1c/c(=N/C(=O)c2ccccc2O)[n-]o1 (cis-trans isomerization)
CC(C)(C)c1c/c(=N/C(=O)c2ccccc2O)[n-]o1 (3D coordinates assigned)
CC(C)(C)c1c/c(=N/C(=O)c2ccccc2O)[n-]o1 (optimized conformer: 68.27768246392606 kcal/mol)

>  <smiles>  (95) 
CC(C)(C)c1cc(=NC(=O)c2ccccc2O)[nH]o1

>  <score_type>  (95) 
oracle

>  <origin>  (95) 
adg

>  <m_score__min__energy>  (95) 
-9.8000000000000007

>  <m_primary>  (95) 
energy

$$$$
95:0
     RDKit          3D

 38 40  0  0  0  0  0  0  0  0999 V2000
   56.9550   25.8650   46.7010 O   0  0  0  0  0  0  0  0  0  0  0  0
   57.0500   26.9070   46.0000 C   0  0  0  0  0  0  0  0  0  0  0  0
   55.9230   27.5700   45.6300 N   0  0  0  0  0  0  0  0  0  0  0  0
   55.9630   28.7020   44.8800 C   0  0  0  0  0  0  0  0  0  0  0  0
   54.7720   29.3390   44.5510 O   0  0  0  0  0  0  0  0  0  0  0  0
   57.1980   29.2160   44.4480 C   0  0  0  0  0  0  0  0  0  0  0  0
   57.2870   30.4860   43.6410 C   0  0  0  0  0  0  0  0  0  0  0  0
   57.6630   31.6430   44.5280 C   0  0  0  0  0  0  0  0  0  0  0  0
   57.7780   31.4620   45.9170 C   0  0  0  0  0  0  0  0  0  0  0  0
   58.1590   32.5280   46.7370 C   0  0  0  0  0  0  0  0  0  0  0  0
   58.4310   33.7800   46.1780 C   0  0  0  0  0  0  0  0  0  0  0  0
   58.8110   34.8370   46.9950 O   0  0  0  0  0  0  0  0  0  0  0  0
   58.3250   33.9660   44.7970 C   0  0  0  0  0  0  0  0  0  0  0  0
   57.9530   32.9000   43.9720 C   0  0  0  0  0  0  0  0  0  0  0  0
   58.3710   28.5470   44.8230 C   0  0  0  0  0  0  0  0  0  0  0  0
   58.3080   27.3870   45.6110 C   0  0  0  0  0  0  0  0  0  0  0  0
   59.4900   26.6940   46.0400 N   0  0  0  0  0  0  0  0  0  0  0  0
   60.2520   26.8920   47.5860 S   0  0  0  0  0  0  0  0  0  0  0  0
   61.6560   26.3580   47.5130 O   0  0  0  0  0  0  0  0  0  0  0  0
   59.4830   26.1140   48.6170 O   0  0  0  0  0  0  0  0  0  0  0  0
   60.2560   28.5930   48.0420 C   0  0  0  0  0  0  0  0  0  0  0  0
   60.7630   29.5550   47.1560 C   0  0  0  0  0  0  0  0  0  0  0  0
   60.7760   30.9060   47.5170 C   0  0  0  0  0  0  0  0  0  0  0  0
   60.2760   31.3020   48.7600 C   0  0  0  0  0  0  0  0  0  0  0  0
   59.7690   30.3470   49.6470 C   0  0  0  0  0  0  0  0  0  0  0  0
   59.7580   28.9950   49.2890 C   0  0  0  0  0  0  0  0  0  0  0  0
   58.0503   30.3658   42.8581 H   0  0  0  0  0  0  0  0  0  0  0  0
   56.3073   30.6890   43.1838 H   0  0  0  0  0  0  0  0  0  0  0  0
   57.5674   30.4777   46.3605 H   0  0  0  0  0  0  0  0  0  0  0  0
   58.2449   32.3814   47.8238 H   0  0  0  0  0  0  0  0  0  0  0  0
   58.5346   34.9527   44.3582 H   0  0  0  0  0  0  0  0  0  0  0  0
   57.8872   33.0463   42.8838 H   0  0  0  0  0  0  0  0  0  0  0  0
   59.3480   28.9337   44.4975 H   0  0  0  0  0  0  0  0  0  0  0  0
   61.1515   29.2459   46.1744 H   0  0  0  0  0  0  0  0  0  0  0  0
   61.1800   31.6570   46.8222 H   0  0  0  0  0  0  0  0  0  0  0  0
   60.2811   32.3655   49.0411 H   0  0  0  0  0  0  0  0  0  0  0  0
   59.3786   30.6594   50.6268 H   0  0  0  0  0  0  0  0  0  0  0  0
   59.3577   28.2455   49.9876 H   0  0  0  0  0  0  0  0  0  0  0  0
  1  2  2  0
  2  3  1  0
  3  4  1  0
  4  5  1  0
  4  6  2  0
  6  7  1  0
  7  8  1  0
  8  9  2  0
  9 10  1  0
 10 11  2  0
 11 12  1  0
 11 13  1  0
 13 14  2  0
  6 15  1  0
 15 16  2  0
 16 17  1  0
 17 18  1  0
 18 19  2  0
 18 20  2  0
 18 21  1  0
 21 22  2  0
 22 23  1  0
 23 24  2  0
 24 25  1  0
 25 26  2  0
 16  2  1  0
 26 21  1  0
 14  8  1  0
  7 27  1  0
  7 28  1  0
  9 29  1  0
 10 30  1  0
 13 31  1  0
 14 32  1  0
 15 33  1  0
 22 34  1  0
 23 35  1  0
 24 36  1  0
 25 37  1  0
 26 38  1  0
M  CHG  4   3  -1   5  -1  12  -1  17  -1
M  END
>  <UniqueID>  (96) 
87

>  <SMILES>  (96) 
O=c1[n-]c([O-])c(Cc2ccc([O-])cc2)cc1[N-]S(=O)(=O)c1ccccc1

>  <Energy>  (96) 
41.661688404147

>  <Genealogy>  (96) 
O=c1[n-]c([O-])c(Cc2ccc([O-])cc2)cc1[N-]S(=O)(=O)c1ccccc1 (protonated)
O=c1[n-]c([O-])c(Cc2ccc([O-])cc2)cc1[N-]S(=O)(=O)c1ccccc1 (3D coordinates assigned)
O=c1[n-]c([O-])c(Cc2ccc([O-])cc2)cc1[N-]S(=O)(=O)c1ccccc1 (optimized conformer: 41.661688404147 kcal/mol)

>  <smiles>  (96) 
O=c1[nH]c(O)c(Cc2ccc(O)cc2)cc1NS(=O)(=O)c1ccccc1

>  <score_type>  (96) 
oracle

>  <origin>  (96) 
adg

>  <m_score__min__energy>  (96) 
-16.98

>  <m_primary>  (96) 
energy

$$$$
