0:0
     RDKit          3D

 57 60  0  0  0  0  0  0  0  0999 V2000
   57.2980   34.2210   45.0900 C   0  0  0  0  0  0  0  0  0  0  0  0
   58.6970   33.6580   45.3520 C   0  0  1  0  0  0  0  0  0  0  0  0
   59.6190   34.7450   45.9340 C   0  0  0  0  0  0  0  0  0  0  0  0
   60.2180   34.3090   47.1980 N   0  0  0  0  0  0  0  0  0  0  0  0
   59.6020   34.5080   48.5120 C   0  0  0  0  0  0  0  0  0  0  0  0
   60.6760   34.1100   49.5540 C   0  0  0  0  0  0  0  0  0  0  0  0
   61.8420   33.7170   48.7150 C   0  0  0  0  0  0  0  0  0  0  0  0
   63.0960   33.2780   49.1410 C   0  0  0  0  0  0  0  0  0  0  0  0
   64.0620   32.9640   48.1710 C   0  0  0  0  0  0  0  0  0  0  0  0
   63.7610   33.0980   46.8030 C   0  0  0  0  0  0  0  0  0  0  0  0
   62.4920   33.5430   46.3980 C   0  0  0  0  0  0  0  0  0  0  0  0
   61.5460   33.8430   47.3860 C   0  0  0  0  0  0  0  0  0  0  0  0
   58.6080   32.5170   46.2700 N   0  0  0  0  0  0  0  0  0  0  0  0
   58.8450   31.1650   45.8280 C   0  0  0  0  0  0  0  0  0  0  0  0
   58.7480   30.9020   44.5970 O   0  0  0  0  0  0  0  0  0  0  0  0
   59.2270   30.0700   46.7680 C   0  0  0  0  0  0  0  0  0  0  0  0
   59.4900   30.2990   48.1330 C   0  0  0  0  0  0  0  0  0  0  0  0
   59.8720   29.2480   48.9700 C   0  0  0  0  0  0  0  0  0  0  0  0
   60.0030   27.9550   48.4660 C   0  0  0  0  0  0  0  0  0  0  0  0
   59.7620   27.7000   47.1080 C   0  0  0  0  0  0  0  0  0  0  0  0
   59.9170   26.3040   46.5390 C   0  0  0  0  0  0  0  0  0  0  0  0
   58.6320   25.6230   46.2560 N   0  0  0  0  0  0  0  0  0  0  0  0
   57.8530   25.2790   47.4640 C   0  0  0  0  0  0  0  0  0  0  0  0
   56.4280   24.8590   47.0710 C   0  0  0  0  0  0  0  0  0  0  0  0
   55.6960   25.8610   46.3720 O   0  0  0  0  0  0  0  0  0  0  0  0
   56.5130   26.8280   45.7240 C   0  0  0  0  0  0  0  0  0  0  0  0
   57.8280   26.2460   45.1810 C   0  0  0  0  0  0  0  0  0  0  0  0
   59.3620   28.7570   46.2740 C   0  0  0  0  0  0  0  0  0  0  0  0
   56.7982   34.4221   46.0490 H   0  0  0  0  0  0  0  0  0  0  0  0
   57.3805   35.1559   44.5163 H   0  0  0  0  0  0  0  0  0  0  0  0
   56.7099   33.4895   44.5163 H   0  0  0  0  0  0  0  0  0  0  0  0
   59.1275   33.3187   44.3983 H   0  0  0  0  0  0  0  0  0  0  0  0
   60.4207   34.9600   45.2121 H   0  0  0  0  0  0  0  0  0  0  0  0
   59.0181   35.6463   46.1253 H   0  0  0  0  0  0  0  0  0  0  0  0
   59.3145   35.5616   48.6433 H   0  0  0  0  0  0  0  0  0  0  0  0
   58.6897   33.9037   48.6240 H   0  0  0  0  0  0  0  0  0  0  0  0
   60.9279   34.9607   50.2042 H   0  0  0  0  0  0  0  0  0  0  0  0
   60.3429   33.3079   50.2291 H   0  0  0  0  0  0  0  0  0  0  0  0
   63.3231   33.1800   50.2128 H   0  0  0  0  0  0  0  0  0  0  0  0
   65.0569   32.6123   48.4817 H   0  0  0  0  0  0  0  0  0  0  0  0
   64.5225   32.8533   46.0479 H   0  0  0  0  0  0  0  0  0  0  0  0
   62.2472   33.6531   45.3312 H   0  0  0  0  0  0  0  0  0  0  0  0
   58.5090   32.7360   47.2830 H   0  0  0  0  0  0  0  0  0  0  0  0
   59.3936   31.3150   48.5435 H   0  0  0  0  0  0  0  0  0  0  0  0
   60.0708   29.4420   50.0343 H   0  0  0  0  0  0  0  0  0  0  0  0
   60.2961   27.1325   49.1350 H   0  0  0  0  0  0  0  0  0  0  0  0
   60.4855   26.3743   45.5999 H   0  0  0  0  0  0  0  0  0  0  0  0
   60.4338   25.7044   47.3028 H   0  0  0  0  0  0  0  0  0  0  0  0
   58.3453   24.4478   47.9900 H   0  0  0  0  0  0  0  0  0  0  0  0
   57.8007   26.1592   48.1216 H   0  0  0  0  0  0  0  0  0  0  0  0
   56.4956   23.9693   46.4277 H   0  0  0  0  0  0  0  0  0  0  0  0
   55.8852   24.6669   48.0083 H   0  0  0  0  0  0  0  0  0  0  0  0
   55.9473   27.2565   44.8835 H   0  0  0  0  0  0  0  0  0  0  0  0
   56.7777   27.5872   46.4747 H   0  0  0  0  0  0  0  0  0  0  0  0
   57.5951   25.4844   44.4222 H   0  0  0  0  0  0  0  0  0  0  0  0
   58.4143   27.0681   44.7448 H   0  0  0  0  0  0  0  0  0  0  0  0
   59.1498   28.5559   45.2136 H   0  0  0  0  0  0  0  0  0  0  0  0
  1  2  1  0
  2  3  1  0
  3  4  1  0
  4  5  1  0
  5  6  1  0
  6  7  1  0
  7  8  2  0
  8  9  1  0
  9 10  2  0
 10 11  1  0
 11 12  2  0
  2 13  1  0
 13 14  1  0
 14 15  2  0
 14 16  1  0
 16 17  2  0
 17 18  1  0
 18 19  2  0
 19 20  1  0
 20 21  1  0
 21 22  1  0
 22 23  1  0
 23 24  1  0
 24 25  1  0
 25 26  1  0
 26 27  1  0
 20 28  2  0
 12  4  1  0
 28 16  1  0
 12  7  1  0
 27 22  1  0
  1 29  1  0
  1 30  1  0
  1 31  1  0
  2 32  1  6
  3 33  1  0
  3 34  1  0
  5 35  1  0
  5 36  1  0
  6 37  1  0
  6 38  1  0
  8 39  1  0
  9 40  1  0
 10 41  1  0
 11 42  1  0
 13 43  1  0
 17 44  1  0
 18 45  1  0
 19 46  1  0
 21 47  1  0
 21 48  1  0
 23 49  1  0
 23 50  1  0
 24 51  1  0
 24 52  1  0
 26 53  1  0
 26 54  1  0
 27 55  1  0
 27 56  1  0
 28 57  1  0
M  END
>  <UniqueID>  (1) 
1

>  <SMILES>  (1) 
C[C@@H](CN1CCc2ccccc21)NC(=O)c1cccc(CN2CCOCC2)c1

>  <Energy>  (1) 
80.93254804066576

>  <Genealogy>  (1) 
C[C@@H](CN1CCc2ccccc21)NC(=O)c1cccc(CN2CCOCC2)c1 (chirality)
C[C@@H](CN1CCc2ccccc21)NC(=O)c1cccc(CN2CCOCC2)c1 (3D coordinates assigned)
C[C@@H](CN1CCc2ccccc21)NC(=O)c1cccc(CN2CCOCC2)c1 (nonaromatic ring conformer: 80.93254804066576 kcal/mol)

>  <smiles>  (1) 
CC(CN1CCc2ccccc21)NC(=O)c1cccc(CN2CCOCC2)c1

>  <score_type>  (1) 
oracle

>  <origin>  (1) 
adg

>  <m_score__min__energy>  (1) 
-9.6099999999999994

>  <m_primary>  (1) 
energy

$$$$
1:0
     RDKit          3D

 59 63  0  0  0  0  0  0  0  0999 V2000
   58.1460   26.8550   42.9750 C   0  0  0  0  0  0  0  0  0  0  0  0
   58.0500   26.5560   44.4650 C   0  0  0  0  0  0  0  0  0  0  0  0
   58.9240   27.4560   45.2170 N   0  0  0  0  0  0  0  0  0  0  0  0
   60.0000   27.1080   45.9650 C   0  0  0  0  0  0  0  0  0  0  0  0
   60.5700   28.1610   46.6070 N   0  0  0  0  0  0  0  0  0  0  0  0
   59.7930   29.1970   46.2370 C   0  0  0  0  0  0  0  0  0  0  0  0
   59.9280   30.5320   46.6070 C   0  0  0  0  0  0  0  0  0  0  0  0
   58.9950   31.4710   46.1010 C   0  0  0  0  0  0  0  0  0  0  0  0
   59.1110   32.8740   46.4240 N   0  0  0  0  0  0  0  0  0  0  0  0
   58.0500   33.8190   46.4960 C   0  0  0  0  0  0  0  0  0  0  0  0
   56.8310   33.5340   46.3600 O   0  0  0  0  0  0  0  0  0  0  0  0
   58.4950   35.1100   46.6660 O   0  0  0  0  0  0  0  0  0  0  0  0
   59.9140   35.1230   46.7230 C   0  0  0  0  0  0  0  0  0  0  0  0
   60.3460   33.6660   46.4120 C   0  0  1  0  0  0  0  0  0  0  0  0
   61.4160   33.1670   47.3800 C   0  0  0  0  0  0  0  0  0  0  0  0
   62.7060   32.9760   46.8570 C   0  0  0  0  0  0  0  0  0  0  0  0
   63.7680   32.5900   47.6740 C   0  0  0  0  0  0  0  0  0  0  0  0
   63.5790   32.4070   49.0500 C   0  0  0  0  0  0  0  0  0  0  0  0
   64.7040   32.0170   49.9330 C   0  0  0  0  0  0  0  0  0  0  0  0
   66.0230   32.5350   49.7330 N   0  0  0  0  0  0  0  0  0  0  0  0
   64.5050   31.2010   50.8730 O   0  0  0  0  0  0  0  0  0  0  0  0
   62.3020   32.6200   49.5910 C   0  0  0  0  0  0  0  0  0  0  0  0
   61.2130   32.9700   48.7750 C   0  0  0  0  0  0  0  0  0  0  0  0
   59.8970   33.1440   49.4310 C   0  0  0  0  0  0  0  0  0  0  0  0
   59.3930   34.3000   49.4690 O   0  0  0  0  0  0  0  0  0  0  0  0
   59.2110   32.0390   50.0700 N   0  0  0  0  0  0  0  0  0  0  0  0
   57.9010   32.2830   50.6920 C   0  0  0  0  0  0  0  0  0  0  0  0
   57.5880   31.2110   51.7410 C   0  0  0  0  0  0  0  0  0  0  0  0
   57.7620   29.9150   51.2050 O   0  0  0  0  0  0  0  0  0  0  0  0
   59.1260   29.7160   50.8910 C   0  0  0  0  0  0  0  0  0  0  0  0
   59.5590   30.6440   49.7530 C   0  0  0  0  0  0  0  0  0  0  0  0
   57.9620   31.0160   45.2320 C   0  0  0  0  0  0  0  0  0  0  0  0
   57.8550   29.6590   44.8820 C   0  0  0  0  0  0  0  0  0  0  0  0
   58.7990   28.7790   45.4060 C   0  0  0  0  0  0  0  0  0  0  0  0
   58.4793   27.8932   42.8301 H   0  0  0  0  0  0  0  0  0  0  0  0
   58.8692   26.1693   42.5093 H   0  0  0  0  0  0  0  0  0  0  0  0
   57.1589   26.7185   42.5093 H   0  0  0  0  0  0  0  0  0  0  0  0
   57.0109   26.6962   44.7977 H   0  0  0  0  0  0  0  0  0  0  0  0
   58.3642   25.5171   44.6441 H   0  0  0  0  0  0  0  0  0  0  0  0
   60.3740   26.0765   46.0441 H   0  0  0  0  0  0  0  0  0  0  0  0
   60.7402   30.8508   47.2768 H   0  0  0  0  0  0  0  0  0  0  0  0
   60.3240   35.8155   45.9731 H   0  0  0  0  0  0  0  0  0  0  0  0
   60.2834   35.4616   47.7022 H   0  0  0  0  0  0  0  0  0  0  0  0
   60.8347   33.5814   45.4301 H   0  0  0  0  0  0  0  0  0  0  0  0
   62.8815   33.1340   45.7826 H   0  0  0  0  0  0  0  0  0  0  0  0
   64.7631   32.4277   47.2341 H   0  0  0  0  0  0  0  0  0  0  0  0
   66.7840   32.2920   50.4040 H   0  0  0  0  0  0  0  0  0  0  0  0
   66.2730   33.0920   48.8870 H   0  0  0  0  0  0  0  0  0  0  0  0
   62.1505   32.5109   50.6750 H   0  0  0  0  0  0  0  0  0  0  0  0
   57.9105   33.2702   51.1771 H   0  0  0  0  0  0  0  0  0  0  0  0
   57.1278   32.2475   49.9104 H   0  0  0  0  0  0  0  0  0  0  0  0
   58.2634   31.3393   52.5997 H   0  0  0  0  0  0  0  0  0  0  0  0
   56.5402   31.3232   52.0563 H   0  0  0  0  0  0  0  0  0  0  0  0
   59.7363   29.9272   51.7815 H   0  0  0  0  0  0  0  0  0  0  0  0
   59.2672   28.6732   50.5708 H   0  0  0  0  0  0  0  0  0  0  0  0
   60.6473   30.5642   49.6140 H   0  0  0  0  0  0  0  0  0  0  0  0
   59.0382   30.3462   48.8310 H   0  0  0  0  0  0  0  0  0  0  0  0
   57.2367   31.7380   44.8286 H   0  0  0  0  0  0  0  0  0  0  0  0
   57.0535   29.3042   44.2173 H   0  0  0  0  0  0  0  0  0  0  0  0
  1  2  1  0
  2  3  1  0
  3  4  1  0
  4  5  2  0
  5  6  1  0
  6  7  2  0
  7  8  1  0
  8  9  1  0
  9 10  1  0
 10 11  2  0
 10 12  1  0
 12 13  1  0
 13 14  1  0
 14 15  1  0
 15 16  2  0
 16 17  1  0
 17 18  2  0
 18 19  1  0
 19 20  1  0
 19 21  2  0
 18 22  1  0
 22 23  2  0
 23 24  1  0
 24 25  2  0
 24 26  1  0
 26 27  1  0
 27 28  1  0
 28 29  1  0
 29 30  1  0
 30 31  1  0
  8 32  2  0
 32 33  1  0
 33 34  2  0
 34  3  1  0
 34  6  1  0
 14  9  1  0
 23 15  1  0
 31 26  1  0
  1 35  1  0
  1 36  1  0
  1 37  1  0
  2 38  1  0
  2 39  1  0
  4 40  1  0
  7 41  1  0
 13 42  1  0
 13 43  1  0
 14 44  1  6
 16 45  1  0
 17 46  1  0
 20 47  1  0
 20 48  1  0
 22 49  1  0
 27 50  1  0
 27 51  1  0
 28 52  1  0
 28 53  1  0
 30 54  1  0
 30 55  1  0
 31 56  1  0
 31 57  1  0
 32 58  1  0
 33 59  1  0
M  END
>  <UniqueID>  (2) 
2

>  <SMILES>  (2) 
CCn1cnc2cc(N3C(=O)OC[C@H]3c3ccc(C(N)=O)cc3C(=O)N3CCOCC3)ccc21

>  <Energy>  (2) 
125.96664279842928

>  <Genealogy>  (2) 
CCn1cnc2cc(N3C(=O)OC[C@H]3c3ccc(C(N)=O)cc3C(=O)N3CCOCC3)ccc21 (chirality)
CCn1cnc2cc(N3C(=O)OC[C@H]3c3ccc(C(N)=O)cc3C(=O)N3CCOCC3)ccc21 (3D coordinates assigned)
CCn1cnc2cc(N3C(=O)OC[C@H]3c3ccc(C(N)=O)cc3C(=O)N3CCOCC3)ccc21 (nonaromatic ring conformer: 125.96664279842928 kcal/mol)

>  <smiles>  (2) 
CCn1cnc2cc(N3C(=O)OCC3c3ccc(C(N)=O)cc3C(=O)N3CCOCC3)ccc21

>  <score_type>  (2) 
oracle

>  <origin>  (2) 
adg

>  <m_score__min__energy>  (2) 
-8.9199999999999999

>  <m_primary>  (2) 
energy

$$$$
2:0
     RDKit          3D

 38 40  0  0  0  0  0  0  0  0999 V2000
   59.9030   30.0460   46.2560 C   0  0  0  0  0  0  0  0  0  0  0  0
   59.1760   31.0320   45.7080 C   0  0  0  0  0  0  0  0  0  0  0  0
   58.2340   30.9310   44.6700 C   0  0  0  0  0  0  0  0  0  0  0  0
   57.7070   29.8550   44.0520 C   0  0  0  0  0  0  0  0  0  0  0  0
   57.4150   28.5570   44.6910 C   0  0  0  0  0  0  0  0  0  0  0  0
   56.1540   28.3100   45.2500 C   0  0  0  0  0  0  0  0  0  0  0  0
   55.1480   29.2680   45.1610 O   0  0  0  0  0  0  0  0  0  0  0  0
   55.9030   27.1290   45.8730 N   0  0  0  0  0  0  0  0  0  0  0  0
   56.8720   26.1770   45.9800 C   0  0  0  0  0  0  0  0  0  0  0  0
   56.5590   24.7580   46.7300 S   0  0  0  0  0  0  0  0  0  0  0  0
   58.1090   26.4070   45.4720 N   0  0  0  0  0  0  0  0  0  0  0  0
   58.4060   27.5710   44.8410 C   0  0  0  0  0  0  0  0  0  0  0  0
   59.5710   27.7560   44.4000 O   0  0  0  0  0  0  0  0  0  0  0  0
   57.8720   32.2300   44.3460 C   0  0  0  0  0  0  0  0  0  0  0  0
   58.5520   33.0610   45.2120 C   0  0  0  0  0  0  0  0  0  0  0  0
   58.4770   34.5570   45.2040 C   0  0  0  0  0  0  0  0  0  0  0  0
   59.3310   32.3370   46.0420 N   0  0  0  0  0  0  0  0  0  0  0  0
   60.2470   32.8830   47.0050 C   0  0  0  0  0  0  0  0  0  0  0  0
   61.5290   33.2540   46.5710 C   0  0  0  0  0  0  0  0  0  0  0  0
   62.4420   33.8210   47.4610 C   0  0  0  0  0  0  0  0  0  0  0  0
   62.0820   34.0260   48.7920 C   0  0  0  0  0  0  0  0  0  0  0  0
   60.8100   33.6610   49.2400 C   0  0  0  0  0  0  0  0  0  0  0  0
   59.8740   33.0810   48.3590 C   0  0  0  0  0  0  0  0  0  0  0  0
   58.5370   32.6920   48.8810 C   0  0  0  0  0  0  0  0  0  0  0  0
   57.5130   32.8190   48.1580 O   0  0  0  0  0  0  0  0  0  0  0  0
   58.3800   32.2010   50.1720 O   0  0  0  0  0  0  0  0  0  0  0  0
   60.6090   30.2700   47.0692 H   0  0  0  0  0  0  0  0  0  0  0  0
   59.7929   29.0139   45.8919 H   0  0  0  0  0  0  0  0  0  0  0  0
   57.4751   29.9527   42.9812 H   0  0  0  0  0  0  0  0  0  0  0  0
   54.9530   26.9560   46.2740 H   0  0  0  0  0  0  0  0  0  0  0  0
   57.1766   32.5383   43.5515 H   0  0  0  0  0  0  0  0  0  0  0  0
   58.4584   34.9287   46.2391 H   0  0  0  0  0  0  0  0  0  0  0  0
   59.3558   34.9654   44.6835 H   0  0  0  0  0  0  0  0  0  0  0  0
   57.5618   34.8755   44.6835 H   0  0  0  0  0  0  0  0  0  0  0  0
   61.8164   33.0966   45.5209 H   0  0  0  0  0  0  0  0  0  0  0  0
   63.4456   34.1061   47.1124 H   0  0  0  0  0  0  0  0  0  0  0  0
   62.8015   34.4764   49.4916 H   0  0  0  0  0  0  0  0  0  0  0  0
   60.5355   33.8280   50.2920 H   0  0  0  0  0  0  0  0  0  0  0  0
  1  2  2  0
  2  3  1  0
  3  4  2  3
  4  5  1  0
  5  6  2  0
  6  7  1  0
  6  8  1  0
  8  9  1  0
  9 10  2  0
  9 11  1  0
 11 12  1  0
 12 13  2  0
  3 14  1  0
 14 15  2  0
 15 16  1  0
 15 17  1  0
 17 18  1  0
 18 19  2  0
 19 20  1  0
 20 21  2  0
 21 22  1  0
 22 23  2  0
 23 24  1  0
 24 25  2  0
 24 26  1  0
 17  2  1  0
 23 18  1  0
 12  5  1  0
  1 27  1  0
  1 28  1  0
  4 29  1  0
  8 30  1  0
 14 31  1  0
 16 32  1  0
 16 33  1  0
 16 34  1  0
 19 35  1  0
 20 36  1  0
 21 37  1  0
 22 38  1  0
M  CHG  3   7  -1  11  -1  26  -1
M  END
>  <UniqueID>  (3) 
3

>  <SMILES>  (3) 
C=c1c(=Cc2c([O-])[nH]c(=S)[n-]c2=O)cc(C)n1-c1ccccc1C(=O)[O-]

>  <Energy>  (3) 
92.29616946201314

>  <Genealogy>  (3) 
C=c1c(=Cc2c([O-])[nH]c(=S)[n-]c2=O)cc(C)n1-c1ccccc1C(=O)[O-] (protonated)
C=c1c(=Cc2c([O-])[nH]c(=S)[n-]c2=O)cc(C)n1-c1ccccc1C(=O)[O-] (3D coordinates assigned)
C=c1c(=Cc2c([O-])[nH]c(=S)[n-]c2=O)cc(C)n1-c1ccccc1C(=O)[O-] (optimized conformer: 92.29616946201314 kcal/mol)

>  <smiles>  (3) 
C=c1c(=Cc2c(O)[nH]c(=S)[nH]c2=O)cc(C)n1-c1ccccc1C(=O)O

>  <score_type>  (3) 
oracle

>  <origin>  (3) 
adg

>  <m_score__min__energy>  (3) 
-15.199999999999999

>  <m_primary>  (3) 
energy

$$$$
3:0
     RDKit          3D

 37 38  0  0  0  0  0  0  0  0999 V2000
   57.2840   33.1870   46.1890 C   0  0  0  0  0  0  0  0  0  0  0  0
   58.3860   32.1630   45.9160 C   0  0  0  0  0  0  0  0  0  0  0  0
   57.7950   30.8890   45.5040 N   0  0  0  0  0  0  0  0  0  0  0  0
   56.6350   30.8050   44.8590 N   0  0  0  0  0  0  0  0  0  0  0  0
   56.4060   29.5160   44.5720 C   0  0  0  0  0  0  0  0  0  0  0  0
   57.4610   28.7510   45.0420 C   0  0  0  0  0  0  0  0  0  0  0  0
   57.5560   27.2530   45.0190 C   0  0  0  0  0  0  0  0  0  0  0  0
   57.2590   26.7190   46.3400 N   0  0  0  0  0  0  0  0  0  0  0  0
   56.9560   25.3390   46.5850 C   0  0  0  0  0  0  0  0  0  0  0  0
   56.4140   24.9820   47.6670 O   0  0  0  0  0  0  0  0  0  0  0  0
   57.3320   24.3100   45.5640 C   0  0  0  0  0  0  0  0  0  0  0  0
   56.3200   24.2690   44.4120 C   0  0  0  0  0  0  0  0  0  0  0  0
   54.9180   24.0160   44.9070 C   0  0  0  0  0  0  0  0  0  0  0  0
   54.2320   22.8700   44.7120 N   0  0  0  0  0  0  0  0  0  0  0  0
   53.0410   23.1110   45.3040 C   0  0  0  0  0  0  0  0  0  0  0  0
   52.1130   22.2580   45.3410 O   0  0  0  0  0  0  0  0  0  0  0  0
   52.9220   24.3380   45.8540 N   0  0  0  0  0  0  0  0  0  0  0  0
   54.1190   24.9000   45.5910 C   0  0  0  0  0  0  0  0  0  0  0  0
   54.4750   26.1920   45.9700 O   0  0  0  0  0  0  0  0  0  0  0  0
   58.3380   29.6560   45.6200 C   0  0  0  0  0  0  0  0  0  0  0  0
   59.6300   29.3200   46.3120 C   0  0  0  0  0  0  0  0  0  0  0  0
   57.1554   33.3065   47.2749 H   0  0  0  0  0  0  0  0  0  0  0  0
   57.5633   34.1536   45.7443 H   0  0  0  0  0  0  0  0  0  0  0  0
   56.3405   32.8377   45.7443 H   0  0  0  0  0  0  0  0  0  0  0  0
   59.0403   32.5370   45.1148 H   0  0  0  0  0  0  0  0  0  0  0  0
   58.9713   32.0091   46.8345 H   0  0  0  0  0  0  0  0  0  0  0  0
   55.5211   29.1273   44.0468 H   0  0  0  0  0  0  0  0  0  0  0  0
   56.8336   26.8525   44.2925 H   0  0  0  0  0  0  0  0  0  0  0  0
   58.5755   26.9585   44.7294 H   0  0  0  0  0  0  0  0  0  0  0  0
   58.3254   24.5537   45.1593 H   0  0  0  0  0  0  0  0  0  0  0  0
   57.3407   23.3245   46.0525 H   0  0  0  0  0  0  0  0  0  0  0  0
   56.3425   25.2336   43.8838 H   0  0  0  0  0  0  0  0  0  0  0  0
   56.5996   23.4439   43.7404 H   0  0  0  0  0  0  0  0  0  0  0  0
   55.0910   26.3410   46.7620 H   0  0  0  0  0  0  0  0  0  0  0  0
   59.4831   29.3582   47.4015 H   0  0  0  0  0  0  0  0  0  0  0  0
   59.9500   28.3088   46.0204 H   0  0  0  0  0  0  0  0  0  0  0  0
   60.4021   30.0472   46.0204 H   0  0  0  0  0  0  0  0  0  0  0  0
  1  2  1  0
  2  3  1  0
  3  4  1  0
  4  5  2  0
  5  6  1  0
  6  7  1  0
  7  8  1  0
  8  9  1  0
  9 10  2  0
  9 11  1  0
 11 12  1  0
 12 13  1  0
 13 14  1  0
 14 15  1  0
 15 16  2  0
 15 17  1  0
 17 18  1  0
 18 19  1  0
  6 20  2  0
 20 21  1  0
 20  3  1  0
 18 13  2  0
  1 22  1  0
  1 23  1  0
  1 24  1  0
  2 25  1  0
  2 26  1  0
  5 27  1  0
  7 28  1  0
  7 29  1  0
 11 30  1  0
 11 31  1  0
 12 32  1  0
 12 33  1  0
 19 34  1  0
 21 35  1  0
 21 36  1  0
 21 37  1  0
M  CHG  3   8  -1  14  -1  17  -1
M  END
>  <UniqueID>  (4) 
4

>  <SMILES>  (4) 
CCn1ncc(C[N-]C(=O)CCc2[n-]c(=O)[n-]c2O)c1C

>  <Energy>  (4) 
83.34932498196642

>  <Genealogy>  (4) 
CCn1ncc(C[N-]C(=O)CCc2[n-]c(=O)[n-]c2O)c1C (protonated)
CCn1ncc(C[N-]C(=O)CCc2[n-]c(=O)[n-]c2O)c1C (3D coordinates assigned)
CCn1ncc(C[N-]C(=O)CCc2[n-]c(=O)[n-]c2O)c1C (optimized conformer: 83.34932498196642 kcal/mol)

>  <smiles>  (4) 
CCn1ncc(CNC(=O)CCc2[nH]c(=O)[nH]c2O)c1C

>  <score_type>  (4) 
oracle

>  <origin>  (4) 
adg

>  <m_score__min__energy>  (4) 
-13.67

>  <m_primary>  (4) 
energy

$$$$
4:0
     RDKit          3D

 25 26  0  0  0  0  0  0  0  0999 V2000
   55.1510   29.2940   44.8200 O   0  0  0  0  0  0  0  0  0  0  0  0
   56.3540   29.6190   45.0030 C   0  0  0  0  0  0  0  0  0  0  0  0
   56.7280   30.9460   44.8210 O   0  0  0  0  0  0  0  0  0  0  0  0
   57.3550   28.6060   45.4060 C   0  0  0  0  0  0  0  0  0  0  0  0
   58.6950   28.9760   45.6070 C   0  0  0  0  0  0  0  0  0  0  0  0
   59.6420   28.0240   45.9860 C   0  0  0  0  0  0  0  0  0  0  0  0
   59.2650   26.6920   46.1700 C   0  0  0  0  0  0  0  0  0  0  0  0
   57.9310   26.2950   45.9770 C   0  0  0  0  0  0  0  0  0  0  0  0
   57.5340   24.8800   46.1720 C   0  0  0  0  0  0  0  0  0  0  0  0
   58.2660   23.9540   45.7280 O   0  0  0  0  0  0  0  0  0  0  0  0
   56.3450   24.5610   46.9080 N   0  0  0  0  0  0  0  0  0  0  0  0
   55.1210   24.0600   46.3490 C   0  0  0  0  0  0  0  0  0  0  0  0
   54.1680   24.9640   45.8640 C   0  0  0  0  0  0  0  0  0  0  0  0
   54.3920   26.3320   45.9480 O   0  0  0  0  0  0  0  0  0  0  0  0
   53.0130   24.5060   45.3160 N   0  0  0  0  0  0  0  0  0  0  0  0
   52.7660   23.1760   45.2120 C   0  0  0  0  0  0  0  0  0  0  0  0
   51.6850   22.7750   44.7090 O   0  0  0  0  0  0  0  0  0  0  0  0
   53.6870   22.2790   45.6460 N   0  0  0  0  0  0  0  0  0  0  0  0
   54.8610   22.6850   46.1980 C   0  0  0  0  0  0  0  0  0  0  0  0
   55.7110   21.8220   46.5390 O   0  0  0  0  0  0  0  0  0  0  0  0
   56.9810   27.2610   45.5940 C   0  0  0  0  0  0  0  0  0  0  0  0
   58.9998   30.0233   45.4647 H   0  0  0  0  0  0  0  0  0  0  0  0
   60.6891   28.3237   46.1404 H   0  0  0  0  0  0  0  0  0  0  0  0
   60.0182   25.9479   46.4683 H   0  0  0  0  0  0  0  0  0  0  0  0
   55.9338   26.9617   45.4397 H   0  0  0  0  0  0  0  0  0  0  0  0
  1  2  2  0
  2  3  1  0
  2  4  1  0
  4  5  2  0
  5  6  1  0
  6  7  2  0
  7  8  1  0
  8  9  1  0
  9 10  2  0
  9 11  1  0
 11 12  1  0
 12 13  2  0
 13 14  1  0
 13 15  1  0
 15 16  1  0
 16 17  2  0
 16 18  1  0
 18 19  1  0
 19 20  2  0
  8 21  2  0
 21  4  1  0
 19 12  1  0
  5 22  1  0
  6 23  1  0
  7 24  1  0
 21 25  1  0
M  CHG  5   3  -1  11  -1  14  -1  15  -1  18  -1
M  END
>  <UniqueID>  (5) 
5

>  <SMILES>  (5) 
O=C([O-])c1cccc(C(=O)[N-]c2c([O-])[n-]c(=O)[n-]c2=O)c1

>  <Energy>  (5) 
34.93399797245173

>  <Genealogy>  (5) 
O=C([O-])c1cccc(C(=O)[N-]c2c([O-])[n-]c(=O)[n-]c2=O)c1 (protonated)
O=C([O-])c1cccc(C(=O)[N-]c2c([O-])[n-]c(=O)[n-]c2=O)c1 (3D coordinates assigned)
O=C([O-])c1cccc(C(=O)[N-]c2c([O-])[n-]c(=O)[n-]c2=O)c1 (optimized conformer: 34.93399797245173 kcal/mol)

>  <smiles>  (5) 
O=C(O)c1cccc(C(=O)Nc2c(O)[nH]c(=O)[nH]c2=O)c1

>  <score_type>  (5) 
oracle

>  <origin>  (5) 
adg

>  <m_score__min__energy>  (5) 
-17.870000000000001

>  <m_primary>  (5) 
energy

$$$$
5:0
     RDKit          3D

 52 55  0  0  0  0  0  0  0  0999 V2000
   60.5230   26.8350   49.6230 C   0  0  0  0  0  0  0  0  0  0  0  0
   60.6380   28.0910   48.8090 C   0  0  0  0  0  0  0  0  0  0  0  0
   60.4320   28.2190   47.4410 C   0  0  0  0  0  0  0  0  0  0  0  0
   60.0760   27.2050   46.4910 N   0  0  0  0  0  0  0  0  0  0  0  0
   58.9470   26.3370   46.6580 C   0  0  0  0  0  0  0  0  0  0  0  0
   58.1120   26.5410   47.5800 O   0  0  0  0  0  0  0  0  0  0  0  0
   58.7470   25.1860   45.7260 C   0  0  0  0  0  0  0  0  0  0  0  0
   57.4270   25.5930   44.5380 S   0  0  0  0  0  0  0  0  0  0  0  0
   57.6320   27.3600   44.7390 C   0  0  0  0  0  0  0  0  0  0  0  0
   58.6100   28.0480   44.0220 C   0  0  0  0  0  0  0  0  0  0  0  0
   58.7470   29.4220   44.2050 C   0  0  0  0  0  0  0  0  0  0  0  0
   57.8940   30.0870   45.1010 C   0  0  0  0  0  0  0  0  0  0  0  0
   57.9960   31.5500   45.3340 C   0  0  0  0  0  0  0  0  0  0  0  0
   57.8150   32.4610   44.2740 C   0  0  0  0  0  0  0  0  0  0  0  0
   57.9060   33.8380   44.4970 C   0  0  0  0  0  0  0  0  0  0  0  0
   58.1730   34.3240   45.7780 C   0  0  0  0  0  0  0  0  0  0  0  0
   58.3460   33.4340   46.8400 C   0  0  0  0  0  0  0  0  0  0  0  0
   58.2560   32.0540   46.6250 C   0  0  0  0  0  0  0  0  0  0  0  0
   58.4560   31.2170   47.6750 F   0  0  0  0  0  0  0  0  0  0  0  0
   56.9580   29.3590   45.7720 N   0  0  0  0  0  0  0  0  0  0  0  0
   56.8300   28.0430   45.5960 N   0  0  0  0  0  0  0  0  0  0  0  0
   60.7690   29.5210   47.1510 C   0  0  0  0  0  0  0  0  0  0  0  0
   60.7770   30.0410   46.0030 O   0  0  0  0  0  0  0  0  0  0  0  0
   61.1190   30.1610   48.2850 N   0  0  0  0  0  0  0  0  0  0  0  0
   61.5620   31.5260   48.3760 C   0  0  0  0  0  0  0  0  0  0  0  0
   60.8010   32.4760   49.0780 C   0  0  0  0  0  0  0  0  0  0  0  0
   61.2420   33.7990   49.1740 C   0  0  0  0  0  0  0  0  0  0  0  0
   62.4470   34.1830   48.5770 C   0  0  0  0  0  0  0  0  0  0  0  0
   63.2140   33.2400   47.8850 C   0  0  0  0  0  0  0  0  0  0  0  0
   62.7770   31.9150   47.7870 C   0  0  0  0  0  0  0  0  0  0  0  0
   61.0200   29.2990   49.2970 N   0  0  0  0  0  0  0  0  0  0  0  0
   61.3010   29.6050   50.7020 C   0  0  0  0  0  0  0  0  0  0  0  0
   60.5462   27.0882   50.6932 H   0  0  0  0  0  0  0  0  0  0  0  0
   59.5749   26.3301   49.3861 H   0  0  0  0  0  0  0  0  0  0  0  0
   61.3637   26.1663   49.3861 H   0  0  0  0  0  0  0  0  0  0  0  0
   60.5760   27.1970   45.5730 H   0  0  0  0  0  0  0  0  0  0  0  0
   59.6822   24.9873   45.1819 H   0  0  0  0  0  0  0  0  0  0  0  0
   58.4618   24.2925   46.3008 H   0  0  0  0  0  0  0  0  0  0  0  0
   59.2657   27.5120   43.3200 H   0  0  0  0  0  0  0  0  0  0  0  0
   59.5165   29.9813   43.6527 H   0  0  0  0  0  0  0  0  0  0  0  0
   57.6003   32.0853   43.2627 H   0  0  0  0  0  0  0  0  0  0  0  0
   57.7669   34.5398   43.6615 H   0  0  0  0  0  0  0  0  0  0  0  0
   58.2471   35.4078   45.9508 H   0  0  0  0  0  0  0  0  0  0  0  0
   58.5538   33.8189   47.8493 H   0  0  0  0  0  0  0  0  0  0  0  0
   59.8551   32.1776   49.5536 H   0  0  0  0  0  0  0  0  0  0  0  0
   60.6398   34.5398   49.7204 H   0  0  0  0  0  0  0  0  0  0  0  0
   62.7911   35.2251   48.6515 H   0  0  0  0  0  0  0  0  0  0  0  0
   64.1628   33.5411   47.4169 H   0  0  0  0  0  0  0  0  0  0  0  0
   63.3863   31.1752   47.2472 H   0  0  0  0  0  0  0  0  0  0  0  0
   60.6986   28.9491   51.3477 H   0  0  0  0  0  0  0  0  0  0  0  0
   62.3692   29.4404   50.9066 H   0  0  0  0  0  0  0  0  0  0  0  0
   61.0461   30.6553   50.9066 H   0  0  0  0  0  0  0  0  0  0  0  0
  1  2  1  0
  2  3  2  0
  3  4  1  0
  4  5  1  0
  5  6  2  0
  5  7  1  0
  7  8  1  0
  8  9  1  0
  9 10  2  0
 10 11  1  0
 11 12  2  0
 12 13  1  0
 13 14  2  0
 14 15  1  0
 15 16  2  0
 16 17  1  0
 17 18  2  0
 18 19  1  0
 12 20  1  0
 20 21  2  0
  3 22  1  0
 22 23  2  0
 22 24  1  0
 24 25  1  0
 25 26  2  0
 26 27  1  0
 27 28  2  0
 28 29  1  0
 29 30  2  0
 24 31  1  0
 31 32  1  0
 31  2  1  0
 21  9  1  0
 30 25  1  0
 18 13  1  0
  1 33  1  0
  1 34  1  0
  1 35  1  0
  4 36  1  0
  7 37  1  0
  7 38  1  0
 10 39  1  0
 11 40  1  0
 14 41  1  0
 15 42  1  0
 16 43  1  0
 17 44  1  0
 26 45  1  0
 27 46  1  0
 28 47  1  0
 29 48  1  0
 30 49  1  0
 32 50  1  0
 32 51  1  0
 32 52  1  0
M  END
>  <UniqueID>  (6) 
6

>  <SMILES>  (6) 
Cc1c(NC(=O)CSc2ccc(-c3ccccc3F)nn2)c(=O)n(-c2ccccc2)n1C

>  <Energy>  (6) 
101.87120397250386

>  <Genealogy>  (6) 
Cc1c(NC(=O)CSc2ccc(-c3ccccc3F)nn2)c(=O)n(-c2ccccc2)n1C (3D coordinates assigned)
Cc1c(NC(=O)CSc2ccc(-c3ccccc3F)nn2)c(=O)n(-c2ccccc2)n1C (optimized conformer: 101.87120397250386 kcal/mol)

>  <smiles>  (6) 
Cc1c(NC(=O)CSc2ccc(-c3ccccc3F)nn2)c(=O)n(-c2ccccc2)n1C

>  <score_type>  (6) 
oracle

>  <origin>  (6) 
adg

>  <m_score__min__energy>  (6) 
-9.0199999999999996

>  <m_primary>  (6) 
energy

$$$$
6:0
     RDKit          3D

 58 61  0  0  0  0  0  0  0  0999 V2000
   54.3470   26.7200   46.7990 H   0  0  0  0  0  0  0  0  0  0  0  0
   54.6780   26.3280   45.9260 O   0  0  0  0  0  0  0  0  0  0  0  0
   54.4090   25.0110   45.5600 C   0  0  0  0  0  0  0  0  0  0  0  0
   53.2220   24.4200   45.7730 N   0  0  0  0  0  0  0  0  0  0  0  0
   53.4090   23.1830   45.2720 C   0  0  0  0  0  0  0  0  0  0  0  0
   52.5070   22.3040   45.2770 O   0  0  0  0  0  0  0  0  0  0  0  0
   54.6360   22.9630   44.7540 N   0  0  0  0  0  0  0  0  0  0  0  0
   55.2790   24.1290   44.9490 C   0  0  0  0  0  0  0  0  0  0  0  0
   56.6480   24.4370   44.4780 C   0  0  0  0  0  0  0  0  0  0  0  0
   57.0346   23.8546   43.6287 H   0  0  0  0  0  0  0  0  0  0  0  0
   57.4600   25.3770   45.0090 C   0  0  0  0  0  0  0  0  0  0  0  0
   57.8410   25.5000   46.3410 C   0  0  0  0  0  0  0  0  0  0  0  0
   57.5496   24.8394   47.1709 H   0  0  0  0  0  0  0  0  0  0  0  0
   58.6560   26.6120   46.4200 C   0  0  0  0  0  0  0  0  0  0  0  0
   59.2940   27.1160   47.6800 C   0  0  0  0  0  0  0  0  0  0  0  0
   58.7662   26.6991   48.5504 H   0  0  0  0  0  0  0  0  0  0  0  0
   60.3486   26.8046   47.7069 H   0  0  0  0  0  0  0  0  0  0  0  0
   59.2352   28.2141   47.7069 H   0  0  0  0  0  0  0  0  0  0  0  0
   58.7930   27.1850   45.2060 N   0  0  0  0  0  0  0  0  0  0  0  0
   59.5800   28.3570   44.9220 C   0  0  0  0  0  0  0  0  0  0  0  0
   60.7260   28.2170   44.4150 O   0  0  0  0  0  0  0  0  0  0  0  0
   59.0730   29.7140   45.2330 C   0  0  0  0  0  0  0  0  0  0  0  0
   59.8860   30.6400   45.9060 C   0  0  0  0  0  0  0  0  0  0  0  0
   60.9018   30.3512   46.2139 H   0  0  0  0  0  0  0  0  0  0  0  0
   59.4160   31.9250   46.1880 C   0  0  0  0  0  0  0  0  0  0  0  0
   60.0677   32.6414   46.7096 H   0  0  0  0  0  0  0  0  0  0  0  0
   58.1170   32.3110   45.8110 C   0  0  0  0  0  0  0  0  0  0  0  0
   57.6250   33.6800   46.0900 C   0  0  0  0  0  0  0  0  0  0  0  0
   56.6880   34.1680   45.4000 O   0  0  0  0  0  0  0  0  0  0  0  0
   58.2210   34.4590   47.1300 N   0  0  0  0  0  0  0  0  0  0  0  0
   59.5780   34.9850   47.0480 C   0  0  0  0  0  0  0  0  0  0  0  0
   60.0325   34.6631   46.0994 H   0  0  0  0  0  0  0  0  0  0  0  0
   59.5335   36.0829   47.0991 H   0  0  0  0  0  0  0  0  0  0  0  0
   60.4350   34.4730   48.2160 C   0  0  0  0  0  0  0  0  0  0  0  0
   61.0908   35.2926   48.5449 H   0  0  0  0  0  0  0  0  0  0  0  0
   59.7326   34.1418   48.9950 H   0  0  0  0  0  0  0  0  0  0  0  0
   61.2840   33.3040   47.8940 N   0  0  0  0  0  0  0  0  0  0  0  0
   61.8020   32.5510   49.0570 C   0  0  0  0  0  0  0  0  0  0  0  0
   61.1343   32.7262   49.9134 H   0  0  0  0  0  0  0  0  0  0  0  0
   61.8356   31.4890   48.7724 H   0  0  0  0  0  0  0  0  0  0  0  0
   63.2380   32.9680   49.4580 C   0  0  0  0  0  0  0  0  0  0  0  0
   63.2032   33.4226   50.4591 H   0  0  0  0  0  0  0  0  0  0  0  0
   63.8594   32.0605   49.4372 H   0  0  0  0  0  0  0  0  0  0  0  0
   63.8200   33.8960   48.5630 O   0  0  0  0  0  0  0  0  0  0  0  0
   63.7030   33.4160   47.2440 C   0  0  0  0  0  0  0  0  0  0  0  0
   64.3267   34.0298   46.5775 H   0  0  0  0  0  0  0  0  0  0  0  0
   64.0373   32.3685   47.2126 H   0  0  0  0  0  0  0  0  0  0  0  0
   62.2410   33.4890   46.7800 C   0  0  0  0  0  0  0  0  0  0  0  0
   62.0645   34.4738   46.3229 H   0  0  0  0  0  0  0  0  0  0  0  0
   62.0774   32.6742   46.0594 H   0  0  0  0  0  0  0  0  0  0  0  0
   57.2980   31.3780   45.1520 C   0  0  0  0  0  0  0  0  0  0  0  0
   56.2766   31.6612   44.8578 H   0  0  0  0  0  0  0  0  0  0  0  0
   57.7700   30.0930   44.8670 C   0  0  0  0  0  0  0  0  0  0  0  0
   57.1165   29.3732   44.3524 H   0  0  0  0  0  0  0  0  0  0  0  0
   58.0740   26.4380   44.3300 C   0  0  0  0  0  0  0  0  0  0  0  0
   58.0200   26.6790   43.0100 C   0  0  0  0  0  0  0  0  0  0  0  0
   58.5453   27.5483   42.5877 H   0  0  0  0  0  0  0  0  0  0  0  0
   57.4505   26.0071   42.3511 H   0  0  0  0  0  0  0  0  0  0  0  0
  1  2  1  0
  2  3  1  0
  3  4  1  0
  4  5  1  0
  5  6  2  0
  5  7  1  0
  7  8  1  0
  8  9  1  0
  9 10  1  0
  9 11  2  0
 11 12  1  0
 12 13  1  0
 12 14  2  0
 14 15  1  0
 15 16  1  0
 15 17  1  0
 15 18  1  0
 14 19  1  0
 19 20  1  0
 20 21  2  0
 20 22  1  0
 22 23  2  0
 23 24  1  0
 23 25  1  0
 25 26  1  0
 25 27  2  0
 27 28  1  0
 28 29  2  0
 28 30  1  0
 30 31  1  0
 31 32  1  0
 31 33  1  0
 31 34  1  0
 34 35  1  0
 34 36  1  0
 34 37  1  0
 37 38  1  0
 38 39  1  0
 38 40  1  0
 38 41  1  0
 41 42  1  0
 41 43  1  0
 41 44  1  0
 44 45  1  0
 45 46  1  0
 45 47  1  0
 45 48  1  0
 48 49  1  0
 48 50  1  0
 27 51  1  0
 51 52  1  0
 51 53  2  0
 53 54  1  0
 19 55  1  0
 55 56  2  0
 56 57  1  0
 56 58  1  0
  8  3  2  0
 55 11  1  0
 53 22  1  0
 48 37  1  0
M  CHG  3   4  -1   7  -1  30  -1
M  END
>  <UniqueID>  (7) 
7

>  <SMILES>  (7) 
C=c1/c(=C/c2[n-]c(=O)[n-]c2O)cc(C)n1C(=O)c1ccc(C(=O)[N-]CCN2CCOCC2)cc1

>  <Energy>  (7) 
142.5345009893762

>  <Genealogy>  (7) 
C=c1c(=Cc2[n-]c(=O)[n-]c2O)cc(C)n1C(=O)c1ccc(C(=O)[N-]CCN2CCOCC2)cc1 (protonated)
C=c1/c(=C/c2[n-]c(=O)[n-]c2O)cc(C)n1C(=O)c1ccc(C(=O)[N-]CCN2CCOCC2)cc1 (cis-trans isomerization)
C=c1/c(=C/c2[n-]c(=O)[n-]c2O)cc(C)n1C(=O)c1ccc(C(=O)[N-]CCN2CCOCC2)cc1 (3D coordinates assigned)
C=c1/c(=C/c2[n-]c(=O)[n-]c2O)cc(C)n1C(=O)c1ccc(C(=O)[N-]CCN2CCOCC2)cc1 (nonaromatic ring conformer: 142.5345009893762 kcal/mol)

>  <smiles>  (7) 
C=c1c(=Cc2[nH]c(=O)[nH]c2O)cc(C)n1C(=O)c1ccc(C(=O)NCCN2CCOCC2)cc1

>  <score_type>  (7) 
oracle

>  <origin>  (7) 
adg

>  <m_score__min__energy>  (7) 
-15.279999999999999

>  <m_primary>  (7) 
energy

$$$$
7:0
     RDKit          3D

 37 38  0  0  0  0  0  0  0  0999 V2000
   63.2760   31.2780   50.2680 C   0  0  0  0  0  0  0  0  0  0  0  0
   61.8110   31.0390   50.4860 C   0  0  0  0  0  0  0  0  0  0  0  0
   61.3800   30.0310   51.3600 C   0  0  0  0  0  0  0  0  0  0  0  0
   60.0130   29.7830   51.5480 C   0  0  0  0  0  0  0  0  0  0  0  0
   59.5980   28.7470   52.5580 C   0  0  0  0  0  0  0  0  0  0  0  0
   59.0640   30.5000   50.7810 C   0  0  0  0  0  0  0  0  0  0  0  0
   57.6600   30.2320   50.9030 N   0  0  0  0  0  0  0  0  0  0  0  0
   56.8350   30.6300   52.0050 C   0  0  0  0  0  0  0  0  0  0  0  0
   56.9850   31.7820   52.4880 O   0  0  0  0  0  0  0  0  0  0  0  0
   55.7450   29.7520   52.5520 C   0  0  0  0  0  0  0  0  0  0  0  0
   54.7330   30.5700   53.2120 N   0  0  0  0  0  0  0  0  0  0  0  0
   53.3170   30.3670   53.1210 C   0  0  0  0  0  0  0  0  0  0  0  0
   52.8130   29.3630   53.6880 O   0  0  0  0  0  0  0  0  0  0  0  0
   52.4370   31.2680   52.3500 C   0  0  0  0  0  0  0  0  0  0  0  0
   51.3770   31.9950   52.8620 C   0  0  0  0  0  0  0  0  0  0  0  0
   50.7340   32.6610   51.8820 N   0  0  0  0  0  0  0  0  0  0  0  0
   51.3860   32.3330   50.7500 C   0  0  0  0  0  0  0  0  0  0  0  0
   51.0210   32.8070   49.4970 O   0  0  0  0  0  0  0  0  0  0  0  0
   52.4330   31.4710   50.9850 C   0  0  0  0  0  0  0  0  0  0  0  0
   59.4950   31.5310   49.9220 C   0  0  0  0  0  0  0  0  0  0  0  0
   58.4950   32.3570   49.1590 C   0  0  0  0  0  0  0  0  0  0  0  0
   60.8660   31.7890   49.7770 C   0  0  0  0  0  0  0  0  0  0  0  0
   63.7828   31.3607   51.2408 H   0  0  0  0  0  0  0  0  0  0  0  0
   63.7043   30.4379   49.7017 H   0  0  0  0  0  0  0  0  0  0  0  0
   63.4151   32.2107   49.7017 H   0  0  0  0  0  0  0  0  0  0  0  0
   62.1223   29.4284   51.9040 H   0  0  0  0  0  0  0  0  0  0  0  0
   59.7557   29.1406   53.5730 H   0  0  0  0  0  0  0  0  0  0  0  0
   58.5338   28.5056   52.4196 H   0  0  0  0  0  0  0  0  0  0  0  0
   60.2013   27.8377   52.4196 H   0  0  0  0  0  0  0  0  0  0  0  0
   55.2801   29.1913   51.7277 H   0  0  0  0  0  0  0  0  0  0  0  0
   56.1764   29.0509   53.2816 H   0  0  0  0  0  0  0  0  0  0  0  0
   51.0967   32.0255   53.9253 H   0  0  0  0  0  0  0  0  0  0  0  0
   53.1197   31.0368   50.2434 H   0  0  0  0  0  0  0  0  0  0  0  0
   57.8459   32.8931   49.8670 H   0  0  0  0  0  0  0  0  0  0  0  0
   59.0260   33.0833   48.5261 H   0  0  0  0  0  0  0  0  0  0  0  0
   57.8821   31.6984   48.5261 H   0  0  0  0  0  0  0  0  0  0  0  0
   61.2015   32.5882   49.0997 H   0  0  0  0  0  0  0  0  0  0  0  0
  1  2  1  0
  2  3  2  0
  3  4  1  0
  4  5  1  0
  4  6  2  0
  6  7  1  0
  7  8  1  0
  8  9  2  0
  8 10  1  0
 10 11  1  0
 11 12  1  0
 12 13  2  0
 12 14  1  0
 14 15  2  0
 15 16  1  0
 16 17  1  0
 17 18  1  0
 17 19  2  0
  6 20  1  0
 20 21  1  0
 20 22  2  0
 22  2  1  0
 19 14  1  0
  1 23  1  0
  1 24  1  0
  1 25  1  0
  3 26  1  0
  5 27  1  0
  5 28  1  0
  5 29  1  0
 10 30  1  0
 10 31  1  0
 15 32  1  0
 19 33  1  0
 21 34  1  0
 21 35  1  0
 21 36  1  0
 22 37  1  0
M  CHG  4   7  -1  11  -1  16  -1  18  -1
M  END
>  <UniqueID>  (8) 
8

>  <SMILES>  (8) 
Cc1cc(C)c([N-]C(=O)C[N-]C(=O)c2c[n-]c([O-])c2)c(C)c1

>  <Energy>  (8) 
67.31232680906952

>  <Genealogy>  (8) 
Cc1cc(C)c([N-]C(=O)C[N-]C(=O)c2c[n-]c([O-])c2)c(C)c1 (protonated)
Cc1cc(C)c([N-]C(=O)C[N-]C(=O)c2c[n-]c([O-])c2)c(C)c1 (3D coordinates assigned)
Cc1cc(C)c([N-]C(=O)C[N-]C(=O)c2c[n-]c([O-])c2)c(C)c1 (optimized conformer: 67.31232680906952 kcal/mol)

>  <smiles>  (8) 
Cc1cc(C)c(NC(=O)CNC(=O)c2c[nH]c(O)c2)c(C)c1

>  <score_type>  (8) 
oracle

>  <origin>  (8) 
adg

>  <m_score__min__energy>  (8) 
-15.960000000000001

>  <m_primary>  (8) 
energy

$$$$
8:0
     RDKit          3D

 46 48  0  0  0  0  0  0  0  0999 V2000
   55.0840   30.7330   44.4990 O   0  0  0  0  0  0  0  0  0  0  0  0
   55.7960   29.7100   44.3120 C   0  0  0  0  0  0  0  0  0  0  0  0
   56.6910   29.6350   43.1160 C   0  0  0  0  0  0  0  0  0  0  0  0
   57.3630   30.9860   42.8680 C   0  0  0  0  0  0  0  0  0  0  0  0
   57.9950   31.6840   44.3860 S   0  0  0  0  0  0  0  0  0  0  0  0
   56.8590   32.1990   45.2250 O   0  0  0  0  0  0  0  0  0  0  0  0
   58.8900   32.8430   44.0490 O   0  0  0  0  0  0  0  0  0  0  0  0
   58.9250   30.4710   45.2780 C   0  0  0  0  0  0  0  0  0  0  0  0
   59.5440   29.4330   44.5660 C   0  0  0  0  0  0  0  0  0  0  0  0
   60.2790   28.4530   45.2350 C   0  0  0  0  0  0  0  0  0  0  0  0
   60.3910   28.4910   46.6250 C   0  0  0  0  0  0  0  0  0  0  0  0
   59.7740   29.5130   47.3490 C   0  0  0  0  0  0  0  0  0  0  0  0
   59.0560   30.5220   46.6840 C   0  0  0  0  0  0  0  0  0  0  0  0
   58.3690   31.5370   47.4340 N   0  0  0  0  0  0  0  0  0  0  0  0
   58.8050   32.7410   47.6610 C   0  0  0  0  0  0  0  0  0  0  0  0
   59.6240   33.1630   48.8260 C   0  0  0  0  0  0  0  0  0  0  0  0
   60.1110   34.5640   48.4270 C   0  0  0  0  0  0  0  0  0  0  0  0
   59.3370   34.9690   47.1580 C   0  0  0  0  0  0  0  0  0  0  0  0
   58.6490   33.7740   46.7140 N   0  0  0  0  0  0  0  0  0  0  0  0
   55.7230   28.6000   45.2120 N   0  0  0  0  0  0  0  0  0  0  0  0
   56.8860   27.8230   45.6260 C   0  0  0  0  0  0  0  0  0  0  0  0
   56.5360   26.3730   45.7130 C   0  0  0  0  0  0  0  0  0  0  0  0
   57.4140   25.3200   45.5500 C   0  0  0  0  0  0  0  0  0  0  0  0
   56.6610   24.1800   45.7330 C   0  0  0  0  0  0  0  0  0  0  0  0
   55.3750   24.6080   45.9970 C   0  0  0  0  0  0  0  0  0  0  0  0
   55.3330   25.9210   45.9790 O   0  0  0  0  0  0  0  0  0  0  0  0
   57.4641   28.8719   43.2891 H   0  0  0  0  0  0  0  0  0  0  0  0
   56.0882   29.3691   42.2351 H   0  0  0  0  0  0  0  0  0  0  0  0
   58.1959   30.8480   42.1629 H   0  0  0  0  0  0  0  0  0  0  0  0
   56.6133   31.6762   42.4539 H   0  0  0  0  0  0  0  0  0  0  0  0
   59.4493   29.3910   43.4709 H   0  0  0  0  0  0  0  0  0  0  0  0
   60.7703   27.6501   44.6658 H   0  0  0  0  0  0  0  0  0  0  0  0
   60.9661   27.7149   47.1512 H   0  0  0  0  0  0  0  0  0  0  0  0
   59.8502   29.5287   48.4462 H   0  0  0  0  0  0  0  0  0  0  0  0
   59.0155   33.2033   49.7415 H   0  0  0  0  0  0  0  0  0  0  0  0
   60.4474   32.4681   49.0475 H   0  0  0  0  0  0  0  0  0  0  0  0
   59.9072   35.2792   49.2375 H   0  0  0  0  0  0  0  0  0  0  0  0
   61.1951   34.5630   48.2405 H   0  0  0  0  0  0  0  0  0  0  0  0
   58.6127   35.7640   47.3890 H   0  0  0  0  0  0  0  0  0  0  0  0
   60.0111   35.3590   46.3811 H   0  0  0  0  0  0  0  0  0  0  0  0
   58.0870   33.7020   45.8370 H   0  0  0  0  0  0  0  0  0  0  0  0
   57.6932   27.9581   44.8910 H   0  0  0  0  0  0  0  0  0  0  0  0
   57.2157   28.1718   46.6158 H   0  0  0  0  0  0  0  0  0  0  0  0
   58.4885   25.3785   45.3220 H   0  0  0  0  0  0  0  0  0  0  0  0
   57.0134   23.1394   45.6795 H   0  0  0  0  0  0  0  0  0  0  0  0
   54.5159   23.9494   46.1927 H   0  0  0  0  0  0  0  0  0  0  0  0
  1  2  2  0
  2  3  1  0
  3  4  1  0
  4  5  1  0
  5  6  2  0
  5  7  2  0
  5  8  1  0
  8  9  2  0
  9 10  1  0
 10 11  2  0
 11 12  1  0
 12 13  2  0
 13 14  1  0
 14 15  2  3
 15 16  1  0
 16 17  1  0
 17 18  1  0
 18 19  1  0
  2 20  1  0
 20 21  1  0
 21 22  1  0
 22 23  2  0
 23 24  1  0
 24 25  2  0
 25 26  1  0
 13  8  1  0
 19 15  1  0
 26 22  1  0
  3 27  1  0
  3 28  1  0
  4 29  1  0
  4 30  1  0
  9 31  1  0
 10 32  1  0
 11 33  1  0
 12 34  1  0
 16 35  1  0
 16 36  1  0
 17 37  1  0
 17 38  1  0
 18 39  1  0
 18 40  1  0
 19 41  1  0
 21 42  1  0
 21 43  1  0
 23 44  1  0
 24 45  1  0
 25 46  1  0
M  CHG  1  20  -1
M  END
>  <UniqueID>  (9) 
9

>  <SMILES>  (9) 
O=C(CCS(=O)(=O)c1ccccc1N=C1CCCN1)[N-]Cc1ccco1

>  <Energy>  (9) 
76.45901075764614

>  <Genealogy>  (9) 
O=C(CCS(=O)(=O)c1ccccc1N=C1CCCN1)[N-]Cc1ccco1 (protonated)
O=C(CCS(=O)(=O)c1ccccc1N=C1CCCN1)[N-]Cc1ccco1 (3D coordinates assigned)
O=C(CCS(=O)(=O)c1ccccc1N=C1CCCN1)[N-]Cc1ccco1 (nonaromatic ring conformer: 76.45901075764614 kcal/mol)

>  <smiles>  (9) 
O=C(CCS(=O)(=O)c1ccccc1N=C1CCCN1)NCc1ccco1

>  <score_type>  (9) 
oracle

>  <origin>  (9) 
adg

>  <m_score__min__energy>  (9) 
-10.529999999999999

>  <m_primary>  (9) 
energy

$$$$
9:0
     RDKit          3D

 51 54  0  0  0  0  0  0  0  0999 V2000
   62.0310   33.7670   46.7190 C   0  0  0  0  0  0  0  0  0  0  0  0
   62.5250   32.6940   47.3530 C   0  0  0  0  0  0  0  0  0  0  0  0
   63.7250   32.8370   48.2580 C   0  0  0  0  0  0  0  0  0  0  0  0
   61.8620   31.3520   47.1420 C   0  0  0  0  0  0  0  0  0  0  0  0
   60.8660   31.0810   48.1740 N   0  0  0  0  0  0  0  0  0  0  0  0
   59.6310   31.7930   48.3150 C   0  0  0  0  0  0  0  0  0  0  0  0
   59.2700   32.1660   49.4600 O   0  0  0  0  0  0  0  0  0  0  0  0
   58.7930   32.1310   47.1520 C   0  0  0  0  0  0  0  0  0  0  0  0
   58.4930   33.4760   46.8460 C   0  0  0  0  0  0  0  0  0  0  0  0
   57.6860   33.7950   45.7310 C   0  0  0  0  0  0  0  0  0  0  0  0
   57.1580   32.7760   44.9180 C   0  0  0  0  0  0  0  0  0  0  0  0
   57.4530   31.4590   45.2590 C   0  0  0  0  0  0  0  0  0  0  0  0
   57.0270   30.3420   44.6520 N   0  0  0  0  0  0  0  0  0  0  0  0
   57.5810   29.3590   45.4120 C   0  0  0  0  0  0  0  0  0  0  0  0
   57.3940   27.9190   45.1260 C   0  0  0  0  0  0  0  0  0  0  0  0
   56.6540   27.1070   46.0010 C   0  0  0  0  0  0  0  0  0  0  0  0
   56.4750   25.7480   45.7270 C   0  0  0  0  0  0  0  0  0  0  0  0
   57.0290   25.1710   44.5700 C   0  0  0  0  0  0  0  0  0  0  0  0
   56.8400   23.7680   44.2850 N   0  0  0  0  0  0  0  0  0  0  0  0
   57.3880   22.7440   45.1860 C   0  0  0  0  0  0  0  0  0  0  0  0
   56.6080   21.4320   45.0380 C   0  0  0  0  0  0  0  0  0  0  0  0
   56.5720   20.9390   43.6460 N   0  0  0  0  0  0  0  0  0  0  0  0
   56.6050   21.9880   42.6100 C   0  0  0  0  0  0  0  0  0  0  0  0
   56.0770   23.3390   43.1070 C   0  0  0  0  0  0  0  0  0  0  0  0
   57.7730   25.9860   43.6980 C   0  0  0  0  0  0  0  0  0  0  0  0
   57.9520   27.3440   43.9720 C   0  0  0  0  0  0  0  0  0  0  0  0
   58.3210   29.8140   46.4570 N   0  0  0  0  0  0  0  0  0  0  0  0
   58.2330   31.1470   46.3310 C   0  0  0  0  0  0  0  0  0  0  0  0
   61.1567   33.6621   46.0598 H   0  0  0  0  0  0  0  0  0  0  0  0
   62.5000   34.7523   46.8580 H   0  0  0  0  0  0  0  0  0  0  0  0
   63.3991   32.7982   49.3079 H   0  0  0  0  0  0  0  0  0  0  0  0
   64.4314   32.0167   48.0627 H   0  0  0  0  0  0  0  0  0  0  0  0
   64.2188   33.8003   48.0627 H   0  0  0  0  0  0  0  0  0  0  0  0
   61.3688   31.3473   46.1588 H   0  0  0  0  0  0  0  0  0  0  0  0
   62.6357   30.5719   47.1948 H   0  0  0  0  0  0  0  0  0  0  0  0
   58.8905   34.2819   47.4805 H   0  0  0  0  0  0  0  0  0  0  0  0
   57.4691   34.8477   45.4971 H   0  0  0  0  0  0  0  0  0  0  0  0
   56.5338   33.0115   44.0434 H   0  0  0  0  0  0  0  0  0  0  0  0
   56.2120   27.5437   46.9087 H   0  0  0  0  0  0  0  0  0  0  0  0
   55.8953   25.1238   46.4229 H   0  0  0  0  0  0  0  0  0  0  0  0
   58.4446   22.5682   44.9355 H   0  0  0  0  0  0  0  0  0  0  0  0
   57.3004   23.0971   46.2241 H   0  0  0  0  0  0  0  0  0  0  0  0
   57.0844   20.6673   45.6691 H   0  0  0  0  0  0  0  0  0  0  0  0
   55.5703   21.6282   45.3458 H   0  0  0  0  0  0  0  0  0  0  0  0
   57.3950   20.3080   43.4970 H   0  0  0  0  0  0  0  0  0  0  0  0
   57.6452   22.1193   42.2774 H   0  0  0  0  0  0  0  0  0  0  0  0
   55.9493   21.6605   41.7897 H   0  0  0  0  0  0  0  0  0  0  0  0
   56.1844   24.0889   42.3094 H   0  0  0  0  0  0  0  0  0  0  0  0
   55.0161   23.2365   43.3790 H   0  0  0  0  0  0  0  0  0  0  0  0
   58.2182   25.5499   42.7916 H   0  0  0  0  0  0  0  0  0  0  0  0
   58.5346   27.9683   43.2786 H   0  0  0  0  0  0  0  0  0  0  0  0
  1  2  2  0
  2  3  1  0
  2  4  1  0
  4  5  1  0
  5  6  1  0
  6  7  2  0
  6  8  1  0
  8  9  2  0
  9 10  1  0
 10 11  2  0
 11 12  1  0
 12 13  1  0
 13 14  1  0
 14 15  1  0
 15 16  2  0
 16 17  1  0
 17 18  2  0
 18 19  1  0
 19 20  1  0
 20 21  1  0
 21 22  1  0
 22 23  1  0
 23 24  1  0
 18 25  1  0
 25 26  2  0
 14 27  2  0
 27 28  1  0
 28  8  1  0
 28 12  2  0
 26 15  1  0
 24 19  1  0
  1 29  1  0
  1 30  1  0
  3 31  1  0
  3 32  1  0
  3 33  1  0
  4 34  1  0
  4 35  1  0
  9 36  1  0
 10 37  1  0
 11 38  1  0
 16 39  1  0
 17 40  1  0
 20 41  1  0
 20 42  1  0
 21 43  1  0
 21 44  1  0
 22 45  1  0
 23 46  1  0
 23 47  1  0
 24 48  1  0
 24 49  1  0
 25 50  1  0
 26 51  1  0
M  CHG  2   5  -1  13  -1
M  END
>  <UniqueID>  (10) 
10

>  <SMILES>  (10) 
C=C(C)C[N-]C(=O)c1cccc2[n-]c(-c3ccc(N4CCNCC4)cc3)nc12

>  <Energy>  (10) 
99.07698150135191

>  <Genealogy>  (10) 
C=C(C)C[N-]C(=O)c1cccc2[n-]c(-c3ccc(N4CCNCC4)cc3)nc12 (protonated)
C=C(C)C[N-]C(=O)c1cccc2[n-]c(-c3ccc(N4CCNCC4)cc3)nc12 (3D coordinates assigned)
C=C(C)C[N-]C(=O)c1cccc2[n-]c(-c3ccc(N4CCNCC4)cc3)nc12 (nonaromatic ring conformer: 99.07698150135191 kcal/mol)

>  <smiles>  (10) 
C=C(C)CNC(=O)c1cccc2[nH]c(-c3ccc(N4CCNCC4)cc3)nc12

>  <score_type>  (10) 
oracle

>  <origin>  (10) 
adg

>  <m_score__min__energy>  (10) 
-10.800000000000001

>  <m_primary>  (10) 
energy

$$$$
10:0
     RDKit          3D

 60 64  0  0  0  0  0  0  0  0999 V2000
   60.5790   31.8460   50.7620 O   0  0  0  0  0  0  0  0  0  0  0  0
   59.4930   32.4920   50.7590 C   0  0  0  0  0  0  0  0  0  0  0  0
   58.6830   32.6270   52.0180 C   0  0  0  0  0  0  0  0  0  0  0  0
   57.7490   31.4600   52.2170 C   0  0  0  0  0  0  0  0  0  0  0  0
   58.2450   30.2200   52.6520 C   0  0  0  0  0  0  0  0  0  0  0  0
   57.3710   29.1510   52.8770 C   0  0  0  0  0  0  0  0  0  0  0  0
   55.9990   29.3150   52.6740 C   0  0  0  0  0  0  0  0  0  0  0  0
   55.4960   30.5510   52.2530 C   0  0  0  0  0  0  0  0  0  0  0  0
   56.3660   31.6220   52.0290 C   0  0  0  0  0  0  0  0  0  0  0  0
   59.0430   33.1280   49.5560 N   0  0  0  0  0  0  0  0  0  0  0  0
   59.8400   33.1570   48.3660 C   0  0  0  0  0  0  0  0  0  0  0  0
   59.4240   32.9880   47.0420 C   0  0  0  0  0  0  0  0  0  0  0  0
   58.0750   32.6590   46.5580 C   0  0  0  0  0  0  0  0  0  0  0  0
   57.2290   33.5680   46.3480 O   0  0  0  0  0  0  0  0  0  0  0  0
   57.7500   31.2870   46.3080 N   0  0  0  0  0  0  0  0  0  0  0  0
   57.4460   30.6810   45.0410 C   0  0  0  0  0  0  0  0  0  0  0  0
   57.0430   31.4620   43.9420 C   0  0  0  0  0  0  0  0  0  0  0  0
   56.6570   30.8540   42.7480 C   0  0  0  0  0  0  0  0  0  0  0  0
   56.6480   29.4640   42.6400 C   0  0  0  0  0  0  0  0  0  0  0  0
   57.0320   28.6750   43.7250 C   0  0  0  0  0  0  0  0  0  0  0  0
   57.4450   29.2710   44.9290 C   0  0  0  0  0  0  0  0  0  0  0  0
   57.8620   28.4090   46.0610 C   0  0  0  0  0  0  0  0  0  0  0  0
   57.2000   27.3660   46.3210 O   0  0  0  0  0  0  0  0  0  0  0  0
   58.9930   28.7530   46.8790 N   0  0  0  0  0  0  0  0  0  0  0  0
   58.8820   28.6240   48.3360 C   0  0  0  0  0  0  0  0  0  0  0  0
   60.0940   29.2420   49.0320 C   0  0  0  0  0  0  0  0  0  0  0  0
   60.5080   30.3900   48.3270 O   0  0  0  0  0  0  0  0  0  0  0  0
   61.1480   30.0040   47.1260 C   0  0  0  0  0  0  0  0  0  0  0  0
   60.2810   29.0750   46.2460 C   0  0  0  0  0  0  0  0  0  0  0  0
   60.4620   33.1270   46.2330 O   0  0  0  0  0  0  0  0  0  0  0  0
   61.5230   33.3630   46.9710 C   0  0  0  0  0  0  0  0  0  0  0  0
   62.8300   33.5760   46.5390 C   0  0  0  0  0  0  0  0  0  0  0  0
   63.8150   33.8170   47.5150 C   0  0  0  0  0  0  0  0  0  0  0  0
   63.4740   33.8410   48.8870 C   0  0  0  0  0  0  0  0  0  0  0  0
   62.1440   33.6230   49.2950 C   0  0  0  0  0  0  0  0  0  0  0  0
   61.1950   33.3810   48.3030 C   0  0  0  0  0  0  0  0  0  0  0  0
   59.3682   32.6839   52.8767 H   0  0  0  0  0  0  0  0  0  0  0  0
   58.0738   33.5390   51.9338 H   0  0  0  0  0  0  0  0  0  0  0  0
   59.3247   30.0889   52.8164 H   0  0  0  0  0  0  0  0  0  0  0  0
   57.7647   28.1807   53.2140 H   0  0  0  0  0  0  0  0  0  0  0  0
   55.3134   28.4720   52.8452 H   0  0  0  0  0  0  0  0  0  0  0  0
   54.4146   30.6800   52.0981 H   0  0  0  0  0  0  0  0  0  0  0  0
   55.9668   32.5943   51.7046 H   0  0  0  0  0  0  0  0  0  0  0  0
   58.0410   33.4190   49.4870 H   0  0  0  0  0  0  0  0  0  0  0  0
   57.0324   32.5588   44.0253 H   0  0  0  0  0  0  0  0  0  0  0  0
   56.3588   31.4728   41.8888 H   0  0  0  0  0  0  0  0  0  0  0  0
   56.3377   28.9885   41.6979 H   0  0  0  0  0  0  0  0  0  0  0  0
   57.0113   27.5787   43.6374 H   0  0  0  0  0  0  0  0  0  0  0  0
   57.9708   29.1388   48.6748 H   0  0  0  0  0  0  0  0  0  0  0  0
   58.8370   27.5551   48.5918 H   0  0  0  0  0  0  0  0  0  0  0  0
   59.8225   29.5218   50.0606 H   0  0  0  0  0  0  0  0  0  0  0  0
   60.9153   28.5106   49.0547 H   0  0  0  0  0  0  0  0  0  0  0  0
   61.3856   30.9102   46.5495 H   0  0  0  0  0  0  0  0  0  0  0  0
   62.0521   29.4420   47.4031 H   0  0  0  0  0  0  0  0  0  0  0  0
   60.0884   29.5753   45.2855 H   0  0  0  0  0  0  0  0  0  0  0  0
   60.8320   28.1337   46.1037 H   0  0  0  0  0  0  0  0  0  0  0  0
   63.0842   33.5565   45.4690 H   0  0  0  0  0  0  0  0  0  0  0  0
   64.8575   33.9879   47.2083 H   0  0  0  0  0  0  0  0  0  0  0  0
   64.2526   34.0312   49.6404 H   0  0  0  0  0  0  0  0  0  0  0  0
   61.8639   33.6430   50.3586 H   0  0  0  0  0  0  0  0  0  0  0  0
  1  2  2  0
  2  3  1  0
  3  4  1  0
  4  5  2  0
  5  6  1  0
  6  7  2  0
  7  8  1  0
  8  9  2  0
  2 10  1  0
 10 11  1  0
 11 12  2  0
 12 13  1  0
 13 14  2  0
 13 15  1  0
 15 16  1  0
 16 17  2  0
 17 18  1  0
 18 19  2  0
 19 20  1  0
 20 21  2  0
 21 22  1  0
 22 23  2  0
 22 24  1  0
 24 25  1  0
 25 26  1  0
 26 27  1  0
 27 28  1  0
 28 29  1  0
 12 30  1  0
 30 31  1  0
 31 32  2  0
 32 33  1  0
 33 34  2  0
 34 35  1  0
 35 36  2  0
  9  4  1  0
 36 11  1  0
 21 16  1  0
 29 24  1  0
 36 31  1  0
  3 37  1  0
  3 38  1  0
  5 39  1  0
  6 40  1  0
  7 41  1  0
  8 42  1  0
  9 43  1  0
 10 44  1  0
 17 45  1  0
 18 46  1  0
 19 47  1  0
 20 48  1  0
 25 49  1  0
 25 50  1  0
 26 51  1  0
 26 52  1  0
 28 53  1  0
 28 54  1  0
 29 55  1  0
 29 56  1  0
 32 57  1  0
 33 58  1  0
 34 59  1  0
 35 60  1  0
M  CHG  1  15  -1
M  END
>  <UniqueID>  (11) 
11

>  <SMILES>  (11) 
O=C(Cc1ccccc1)Nc1c(C(=O)[N-]c2ccccc2C(=O)N2CCOCC2)oc2ccccc12

>  <Energy>  (11) 
118.25305909519554

>  <Genealogy>  (11) 
O=C(Cc1ccccc1)Nc1c(C(=O)[N-]c2ccccc2C(=O)N2CCOCC2)oc2ccccc12 (protonated)
O=C(Cc1ccccc1)Nc1c(C(=O)[N-]c2ccccc2C(=O)N2CCOCC2)oc2ccccc12 (3D coordinates assigned)
O=C(Cc1ccccc1)Nc1c(C(=O)[N-]c2ccccc2C(=O)N2CCOCC2)oc2ccccc12 (nonaromatic ring conformer: 118.25305909519554 kcal/mol)

>  <smiles>  (11) 
O=C(Cc1ccccc1)Nc1c(C(=O)Nc2ccccc2C(=O)N2CCOCC2)oc2ccccc12

>  <score_type>  (11) 
oracle

>  <origin>  (11) 
adg

>  <m_score__min__energy>  (11) 
-10.880000000000001

>  <m_primary>  (11) 
energy

$$$$
11:0
     RDKit          3D

 58 61  0  0  1  0  0  0  0  0999 V2000
   56.6690   23.3340   47.9690 C   0  0  0  0  0  0  0  0  0  0  0  0
   56.9970   23.0690   46.4980 C   0  0  0  0  0  0  0  0  0  0  0  0
   55.7990   23.1840   45.7100 N   0  0  0  0  0  0  0  0  0  0  0  0
   55.8330   22.0940   44.7260 C   0  0  0  0  0  0  0  0  0  0  0  0
   56.8440   22.5700   43.6790 C   0  0  0  0  0  0  0  0  0  0  0  0
   57.0040   24.0670   43.9550 C   0  0  0  0  0  0  0  0  0  0  0  0
   55.8470   24.3540   44.8640 C   0  0  2  0  0  0  0  0  0  0  0  0
   55.9410   25.6070   45.6340 C   0  0  0  0  0  0  0  0  0  0  0  0
   54.9610   26.3120   45.9930 O   0  0  0  0  0  0  0  0  0  0  0  0
   57.2260   26.0600   46.0090 N   0  0  0  0  0  0  0  0  0  0  0  0
   57.7520   27.1440   45.6010 C   0  0  0  0  0  0  0  0  0  0  0  0
   57.6760   27.5720   44.3260 N   0  0  0  0  0  0  0  0  0  0  0  0
   58.3080   28.7270   44.1830 N   0  0  0  0  0  0  0  0  0  0  0  0
   58.8030   29.0540   45.3890 C   0  0  0  0  0  0  0  0  0  0  0  0
   59.5360   30.1490   45.7860 C   0  0  0  0  0  0  0  0  0  0  0  0
   59.9070   30.2060   47.1250 C   0  0  0  0  0  0  0  0  0  0  0  0
   60.6440   31.3170   47.5050 O   0  0  0  0  0  0  0  0  0  0  0  0
   62.0260   31.3260   47.2110 C   0  0  0  0  0  0  0  0  0  0  0  0
   62.6560   32.6650   47.5130 C   0  0  0  0  0  0  0  0  0  0  0  0
   61.9280   33.6950   46.9710 O   0  0  0  0  0  0  0  0  0  0  0  0
   60.9390   34.2170   47.7740 C   0  0  0  0  0  0  0  0  0  0  0  0
   59.6510   34.0860   47.0150 C   0  0  0  0  0  0  0  0  0  0  0  0
   59.6400   34.6140   45.7300 C   0  0  0  0  0  0  0  0  0  0  0  0
   58.5160   34.5550   44.9340 C   0  0  0  0  0  0  0  0  0  0  0  0
   57.3820   33.9480   45.4570 C   0  0  0  0  0  0  0  0  0  0  0  0
   57.3960   33.4230   46.7350 C   0  0  0  0  0  0  0  0  0  0  0  0
   58.5370   33.4880   47.5300 C   0  0  0  0  0  0  0  0  0  0  0  0
   59.5690   29.2240   48.0300 C   0  0  0  0  0  0  0  0  0  0  0  0
   58.8320   28.1240   47.6300 C   0  0  0  0  0  0  0  0  0  0  0  0
   58.4650   28.0630   46.3160 C   0  0  0  0  0  0  0  0  0  0  0  0
   57.3659   22.7710   48.6073 H   0  0  0  0  0  0  0  0  0  0  0  0
   56.7671   24.4094   48.1786 H   0  0  0  0  0  0  0  0  0  0  0  0
   55.6382   23.0121   48.1786 H   0  0  0  0  0  0  0  0  0  0  0  0
   57.7369   23.8045   46.1493 H   0  0  0  0  0  0  0  0  0  0  0  0
   57.4091   22.0547   46.3918 H   0  0  0  0  0  0  0  0  0  0  0  0
   56.1668   21.1558   45.1934 H   0  0  0  0  0  0  0  0  0  0  0  0
   54.8437   21.8836   44.2936 H   0  0  0  0  0  0  0  0  0  0  0  0
   57.8043   22.0474   43.7998 H   0  0  0  0  0  0  0  0  0  0  0  0
   56.5090   22.3673   42.6510 H   0  0  0  0  0  0  0  0  0  0  0  0
   57.9622   24.2796   44.4517 H   0  0  0  0  0  0  0  0  0  0  0  0
   57.0095   24.6831   43.0437 H   0  0  0  0  0  0  0  0  0  0  0  0
   54.9260   24.5274   44.2881 H   0  0  0  0  0  0  0  0  0  0  0  0
   57.1970   27.0900   43.5360 H   0  0  0  0  0  0  0  0  0  0  0  0
   58.4170   29.2990   43.3080 H   0  0  0  0  0  0  0  0  0  0  0  0
   59.8154   30.9423   45.0771 H   0  0  0  0  0  0  0  0  0  0  0  0
   62.5236   30.5540   47.8163 H   0  0  0  0  0  0  0  0  0  0  0  0
   62.1478   31.1260   46.1362 H   0  0  0  0  0  0  0  0  0  0  0  0
   62.7075   32.7984   48.6037 H   0  0  0  0  0  0  0  0  0  0  0  0
   63.6625   32.6818   47.0696 H   0  0  0  0  0  0  0  0  0  0  0  0
   60.8814   33.6550   48.7178 H   0  0  0  0  0  0  0  0  0  0  0  0
   61.1459   35.2684   48.0225 H   0  0  0  0  0  0  0  0  0  0  0  0
   60.5505   35.0908   45.3381 H   0  0  0  0  0  0  0  0  0  0  0  0
   58.5175   34.9752   43.9174 H   0  0  0  0  0  0  0  0  0  0  0  0
   56.4668   33.8847   44.8501 H   0  0  0  0  0  0  0  0  0  0  0  0
   56.4884   32.9446   47.1318 H   0  0  0  0  0  0  0  0  0  0  0  0
   58.5409   33.0684   48.5468 H   0  0  0  0  0  0  0  0  0  0  0  0
   59.8877   29.3153   49.0789 H   0  0  0  0  0  0  0  0  0  0  0  0
   58.5532   27.3317   48.3404 H   0  0  0  0  0  0  0  0  0  0  0  0
  1  2  1  0
  2  3  1  0
  3  4  1  0
  4  5  1  0
  5  6  1  0
  6  7  1  0
  7  8  1  0
  8  9  2  0
  8 10  1  0
 10 11  2  0
 11 12  1  0
 12 13  1  0
 13 14  1  0
 14 15  2  0
 15 16  1  0
 16 17  1  0
 17 18  1  0
 18 19  1  0
 19 20  1  0
 20 21  1  0
 21 22  1  0
 22 23  2  0
 23 24  1  0
 24 25  2  0
 25 26  1  0
 26 27  2  0
 16 28  2  0
 28 29  1  0
 29 30  2  0
  7  3  1  0
 30 11  1  0
 30 14  1  0
 27 22  1  0
  1 31  1  0
  1 32  1  0
  1 33  1  0
  2 34  1  0
  2 35  1  0
  4 36  1  0
  4 37  1  0
  5 38  1  0
  5 39  1  0
  6 40  1  0
  6 41  1  0
  7 42  1  6
 12 43  1  0
 13 44  1  0
 15 45  1  0
 18 46  1  0
 18 47  1  0
 19 48  1  0
 19 49  1  0
 21 50  1  0
 21 51  1  0
 23 52  1  0
 24 53  1  0
 25 54  1  0
 26 55  1  0
 27 56  1  0
 28 57  1  0
 29 58  1  0
M  END
>  <smiles>  (12) 
CCN1CCCC1C(=O)N=c1[nH][nH]c2cc(OCCOCc3ccccc3)ccc12

>  <score_type>  (12) 
oracle

>  <origin>  (12) 
adg

>  <m_score__min__energy>  (12) 
-9.0700000000000003

>  <m_primary>  (12) 
energy

$$$$
12:0
     RDKit          3D

 42 44  0  0  0  0  0  0  0  0999 V2000
   54.7510   27.4670   46.3530 H   0  0  0  0  0  0  0  0  0  0  0  0
   55.4260   26.7170   46.4430 O   0  0  0  0  0  0  0  0  0  0  0  0
   55.2610   25.5180   45.7530 C   0  0  0  0  0  0  0  0  0  0  0  0
   54.0170   24.9880   45.6160 N   0  0  0  0  0  0  0  0  0  0  0  0
   53.8180   23.8330   44.9300 C   0  0  0  0  0  0  0  0  0  0  0  0
   52.6590   23.3590   44.8200 O   0  0  0  0  0  0  0  0  0  0  0  0
   54.8700   23.1920   44.3580 N   0  0  0  0  0  0  0  0  0  0  0  0
   56.1330   23.6800   44.4680 C   0  0  0  0  0  0  0  0  0  0  0  0
   57.0840   23.0630   43.9170 O   0  0  0  0  0  0  0  0  0  0  0  0
   56.3680   24.8570   45.1950 C   0  0  0  0  0  0  0  0  0  0  0  0
   57.7270   25.4270   45.2850 C   0  0  0  0  0  0  0  0  0  0  0  0
   58.5665   24.7188   45.3458 H   0  0  0  0  0  0  0  0  0  0  0  0
   58.0270   26.7410   45.2990 C   0  0  0  0  0  0  0  0  0  0  0  0
   57.5580   27.6250   44.3420 C   0  0  0  0  0  0  0  0  0  0  0  0
   56.9508   27.3734   43.4600 H   0  0  0  0  0  0  0  0  0  0  0  0
   57.9970   28.8810   44.7050 C   0  0  0  0  0  0  0  0  0  0  0  0
   57.7010   30.1380   43.9450 C   0  0  0  0  0  0  0  0  0  0  0  0
   57.5080   30.9576   44.6528 H   0  0  0  0  0  0  0  0  0  0  0  0
   58.5631   30.3955   43.3121 H   0  0  0  0  0  0  0  0  0  0  0  0
   56.8146   29.9837   43.3121 H   0  0  0  0  0  0  0  0  0  0  0  0
   58.7520   28.8090   45.8240 N   0  0  0  0  0  0  0  0  0  0  0  0
   59.3890   29.9220   46.4780 C   0  0  0  0  0  0  0  0  0  0  0  0
   58.6170   30.9350   47.0650 C   0  0  0  0  0  0  0  0  0  0  0  0
   57.5192   30.8839   47.0187 H   0  0  0  0  0  0  0  0  0  0  0  0
   59.2380   32.0100   47.7090 C   0  0  0  0  0  0  0  0  0  0  0  0
   58.6270   32.8084   48.1553 H   0  0  0  0  0  0  0  0  0  0  0  0
   60.6390   32.0740   47.7880 C   0  0  0  0  0  0  0  0  0  0  0  0
   61.3090   33.1770   48.4150 N   0  0  0  0  0  0  0  0  0  0  0  0
   62.6340   33.6470   48.1310 C   0  0  0  0  0  0  0  0  0  0  0  0
   63.3790   33.9820   49.0880 O   0  0  0  0  0  0  0  0  0  0  0  0
   63.1440   33.7940   46.7300 C   0  0  0  0  0  0  0  0  0  0  0  0
   64.2007   34.0986   46.7545 H   0  0  0  0  0  0  0  0  0  0  0  0
   63.0516   32.8327   46.2034 H   0  0  0  0  0  0  0  0  0  0  0  0
   62.5541   34.5587   46.2034 H   0  0  0  0  0  0  0  0  0  0  0  0
   61.4080   31.0770   47.1760 C   0  0  0  0  0  0  0  0  0  0  0  0
   62.5059   31.1403   47.2010 H   0  0  0  0  0  0  0  0  0  0  0  0
   60.7880   30.0010   46.5330 C   0  0  0  0  0  0  0  0  0  0  0  0
   61.4000   29.2137   46.0687 H   0  0  0  0  0  0  0  0  0  0  0  0
   58.8010   27.5020   46.1930 C   0  0  0  0  0  0  0  0  0  0  0  0
   59.5870   27.0470   47.1810 C   0  0  0  0  0  0  0  0  0  0  0  0
   60.1428   27.7559   47.8124 H   0  0  0  0  0  0  0  0  0  0  0  0
   59.6755   25.9652   47.3595 H   0  0  0  0  0  0  0  0  0  0  0  0
  1  2  1  0
  2  3  1  0
  3  4  1  0
  4  5  1  0
  5  6  2  0
  5  7  1  0
  7  8  1  0
  8  9  2  0
  8 10  1  0
 10 11  1  0
 11 12  1  0
 11 13  2  0
 13 14  1  0
 14 15  1  0
 14 16  2  0
 16 17  1  0
 17 18  1  0
 17 19  1  0
 17 20  1  0
 16 21  1  0
 21 22  1  0
 22 23  2  0
 23 24  1  0
 23 25  1  0
 25 26  1  0
 25 27  2  0
 27 28  1  0
 28 29  1  0
 29 30  2  0
 29 31  1  0
 31 32  1  0
 31 33  1  0
 31 34  1  0
 27 35  1  0
 35 36  1  0
 35 37  2  0
 37 38  1  0
 21 39  1  0
 39 40  2  0
 40 41  1  0
 40 42  1  0
 10  3  2  0
 39 13  1  0
 37 22  1  0
M  CHG  3   4  -1   7  -1  28  -1
M  END
>  <UniqueID>  (13) 
12

>  <SMILES>  (13) 
C=c1/c(=C\c2c(O)[n-]c(=O)[n-]c2=O)cc(C)n1-c1ccc([N-]C(C)=O)cc1

>  <Energy>  (13) 
95.77636828378135

>  <Genealogy>  (13) 
C=c1c(=Cc2c(O)[n-]c(=O)[n-]c2=O)cc(C)n1-c1ccc([N-]C(C)=O)cc1 (protonated)
C=c1/c(=C\c2c(O)[n-]c(=O)[n-]c2=O)cc(C)n1-c1ccc([N-]C(C)=O)cc1 (cis-trans isomerization)
C=c1/c(=C\c2c(O)[n-]c(=O)[n-]c2=O)cc(C)n1-c1ccc([N-]C(C)=O)cc1 (3D coordinates assigned)
C=c1/c(=C\c2c(O)[n-]c(=O)[n-]c2=O)cc(C)n1-c1ccc([N-]C(C)=O)cc1 (optimized conformer: 95.77636828378135 kcal/mol)

>  <smiles>  (13) 
C=c1c(=Cc2c(O)[nH]c(=O)[nH]c2=O)cc(C)n1-c1ccc(NC(C)=O)cc1

>  <score_type>  (13) 
oracle

>  <origin>  (13) 
adg

>  <m_score__min__energy>  (13) 
-12.98

>  <m_primary>  (13) 
energy

$$$$
13:0
     RDKit          3D

 47 49  0  0  0  0  0  0  0  0999 V2000
   56.0395   31.7629   44.3175 H   0  0  0  0  0  0  0  0  0  0  0  0
   56.5780   30.8260   44.5230 C   0  0  0  0  0  0  0  0  0  0  0  0
   57.9250   30.7330   44.5220 N   0  0  0  0  0  0  0  0  0  0  0  0
   58.1530   29.4390   44.8040 C   0  0  0  0  0  0  0  0  0  0  0  0
   59.5170   28.8360   44.9440 C   0  0  0  0  0  0  0  0  0  0  0  0
   60.2730   29.6250   44.8177 H   0  0  0  0  0  0  0  0  0  0  0  0
   59.6356   28.0592   44.1743 H   0  0  0  0  0  0  0  0  0  0  0  0
   59.6930   28.1990   46.2960 C   0  0  0  0  0  0  0  0  0  0  0  0
   59.8060   26.9000   46.3520 N   0  0  0  0  0  0  0  0  0  0  0  0
   58.7500   25.9410   46.2020 C   0  0  0  0  0  0  0  0  0  0  0  0
   58.8040   25.1190   45.2490 O   0  0  0  0  0  0  0  0  0  0  0  0
   57.7030   25.7750   47.2730 C   0  0  0  0  0  0  0  0  0  0  0  0
   58.0424   25.0097   47.9865 H   0  0  0  0  0  0  0  0  0  0  0  0
   57.5660   26.7471   47.7693 H   0  0  0  0  0  0  0  0  0  0  0  0
   56.3750   25.3520   46.7000 C   0  0  0  0  0  0  0  0  0  0  0  0
   55.5160   26.2950   46.2300 N   0  0  0  0  0  0  0  0  0  0  0  0
   54.3350   25.9610   45.7090 N   0  0  0  0  0  0  0  0  0  0  0  0
   53.9530   24.6610   45.6340 C   0  0  0  0  0  0  0  0  0  0  0  0
   52.8350   24.3590   45.1410 O   0  0  0  0  0  0  0  0  0  0  0  0
   54.7800   23.6890   46.0940 N   0  0  0  0  0  0  0  0  0  0  0  0
   55.9870   24.0050   46.6290 C   0  0  0  0  0  0  0  0  0  0  0  0
   56.7380   23.0870   47.0540 O   0  0  0  0  0  0  0  0  0  0  0  0
   59.6560   29.0390   47.5180 C   0  0  0  0  0  0  0  0  0  0  0  0
   60.3410   28.7030   48.5220 O   0  0  0  0  0  0  0  0  0  0  0  0
   58.8100   30.1940   47.5880 N   0  0  0  0  0  0  0  0  0  0  0  0
   58.2590   30.4750   46.7460 H   0  0  0  0  0  0  0  0  0  0  0  0
   58.7480   31.0190   48.7940 C   0  0  0  0  0  0  0  0  0  0  0  0
   59.1660   30.4543   49.6404 H   0  0  0  0  0  0  0  0  0  0  0  0
   57.6978   31.2794   48.9923 H   0  0  0  0  0  0  0  0  0  0  0  0
   59.5370   32.2890   48.6080 C   0  0  0  0  0  0  0  0  0  0  0  0
   60.5400   32.6220   49.5330 C   0  0  0  0  0  0  0  0  0  0  0  0
   60.7186   31.9730   50.4030 H   0  0  0  0  0  0  0  0  0  0  0  0
   61.3120   33.7720   49.3550 C   0  0  0  0  0  0  0  0  0  0  0  0
   62.0893   34.0307   50.0891 H   0  0  0  0  0  0  0  0  0  0  0  0
   61.0990   34.5930   48.2480 C   0  0  0  0  0  0  0  0  0  0  0  0
   61.7055   35.5007   48.1131 H   0  0  0  0  0  0  0  0  0  0  0  0
   60.1170   34.2650   47.3100 C   0  0  0  0  0  0  0  0  0  0  0  0
   59.9577   34.9134   46.4358 H   0  0  0  0  0  0  0  0  0  0  0  0
   59.3290   33.1080   47.4770 C   0  0  0  0  0  0  0  0  0  0  0  0
   58.3410   32.7450   46.5470 O   0  0  0  0  0  0  0  0  0  0  0  0
   57.7380   33.6410   45.6190 C   0  0  0  0  0  0  0  0  0  0  0  0
   57.2054   34.4324   46.1666 H   0  0  0  0  0  0  0  0  0  0  0  0
   58.5165   34.0928   44.9867 H   0  0  0  0  0  0  0  0  0  0  0  0
   57.0263   33.0899   44.9867 H   0  0  0  0  0  0  0  0  0  0  0  0
   56.9570   28.7850   44.9800 C   0  0  0  0  0  0  0  0  0  0  0  0
   56.8401   27.7196   45.2275 H   0  0  0  0  0  0  0  0  0  0  0  0
   55.9540   29.6610   44.8000 N   0  0  0  0  0  0  0  0  0  0  0  0
  1  2  1  0
  2  3  2  0
  3  4  1  0
  4  5  1  0
  5  6  1  0
  5  7  1  0
  5  8  1  0
  8  9  2  0
  9 10  1  0
 10 11  2  0
 10 12  1  0
 12 13  1  0
 12 14  1  0
 12 15  1  0
 15 16  2  0
 16 17  1  0
 17 18  1  0
 18 19  2  0
 18 20  1  0
 20 21  1  0
 21 22  2  0
  8 23  1  0
 23 24  2  0
 23 25  1  0
 25 26  1  0
 25 27  1  0
 27 28  1  0
 27 29  1  0
 27 30  1  0
 30 31  2  0
 31 32  1  0
 31 33  1  0
 33 34  1  0
 33 35  2  0
 35 36  1  0
 35 37  1  0
 37 38  1  0
 37 39  2  0
 39 40  1  0
 40 41  1  0
 41 42  1  0
 41 43  1  0
 41 44  1  0
  4 45  2  0
 45 46  1  0
 45 47  1  0
 47  2  1  0
 21 15  1  0
 39 30  1  0
M  CHG  3  17  -1  20  -1  47  -1
M  END
>  <UniqueID>  (14) 
13

>  <SMILES>  (14) 
COc1ccccc1CNC(=O)/C(Cc1c[n-]cn1)=N\C(=O)Cc1n[n-]c(=O)[n-]c1=O

>  <Energy>  (14) 
83.39189874241022

>  <Genealogy>  (14) 
COc1ccccc1CNC(=O)C(Cc1c[n-]cn1)=NC(=O)Cc1n[n-]c(=O)[n-]c1=O (protonated)
COc1ccccc1CNC(=O)/C(Cc1c[n-]cn1)=N\C(=O)Cc1n[n-]c(=O)[n-]c1=O (cis-trans isomerization)
COc1ccccc1CNC(=O)/C(Cc1c[n-]cn1)=N\C(=O)Cc1n[n-]c(=O)[n-]c1=O (3D coordinates assigned)
COc1ccccc1CNC(=O)/C(Cc1c[n-]cn1)=N\C(=O)Cc1n[n-]c(=O)[n-]c1=O (optimized conformer: 83.39189874241022 kcal/mol)

>  <smiles>  (14) 
COc1ccccc1CNC(=O)C(Cc1c[nH]cn1)=NC(=O)Cc1n[nH]c(=O)[nH]c1=O

>  <score_type>  (14) 
oracle

>  <origin>  (14) 
adg

>  <m_score__min__energy>  (14) 
-14.119999999999999

>  <m_primary>  (14) 
energy

$$$$
14:0
     RDKit          3D

 43 46  0  0  0  0  0  0  0  0999 V2000
   55.9010   27.0730   46.4560 H   0  0  0  0  0  0  0  0  0  0  0  0
   55.1420   26.5500   46.0340 O   0  0  0  0  0  0  0  0  0  0  0  0
   55.3170   25.2500   45.5640 C   0  0  0  0  0  0  0  0  0  0  0  0
   54.2600   24.3360   45.6850 C   0  0  0  0  0  0  0  0  0  0  0  0
   53.3390   24.6305   46.2095 H   0  0  0  0  0  0  0  0  0  0  0  0
   54.3710   23.0570   45.1440 C   0  0  0  0  0  0  0  0  0  0  0  0
   53.5445   22.3379   45.2426 H   0  0  0  0  0  0  0  0  0  0  0  0
   55.5400   22.6990   44.4770 C   0  0  0  0  0  0  0  0  0  0  0  0
   55.6331   21.6994   44.0275 H   0  0  0  0  0  0  0  0  0  0  0  0
   56.5650   23.5850   44.3820 N   0  0  0  0  0  0  0  0  0  0  0  0
   56.5130   24.8350   44.9200 C   0  0  0  0  0  0  0  0  0  0  0  0
   57.5640   25.5950   44.7770 N   0  0  0  0  0  0  0  0  0  0  0  0
   57.8240   26.6040   43.7880 C   0  0  0  0  0  0  0  0  0  0  0  0
   57.8950   26.2840   42.5700 O   0  0  0  0  0  0  0  0  0  0  0  0
   57.8920   28.0310   44.1820 C   0  0  0  0  0  0  0  0  0  0  0  0
   56.9950   28.9670   43.6360 C   0  0  0  0  0  0  0  0  0  0  0  0
   56.2390   28.6380   42.9078 H   0  0  0  0  0  0  0  0  0  0  0  0
   57.0570   30.3130   44.0120 C   0  0  0  0  0  0  0  0  0  0  0  0
   56.3502   31.0351   43.5773 H   0  0  0  0  0  0  0  0  0  0  0  0
   58.0160   30.7480   44.9410 C   0  0  0  0  0  0  0  0  0  0  0  0
   58.0850   32.1660   45.3430 C   0  0  0  0  0  0  0  0  0  0  0  0
   57.1130   33.0730   45.1160 N   0  0  0  0  0  0  0  0  0  0  0  0
   57.5440   34.2180   45.6220 N   0  0  0  0  0  0  0  0  0  0  0  0
   58.7640   33.9670   46.1330 C   0  0  0  0  0  0  0  0  0  0  0  0
   59.6060   34.9800   46.8370 C   0  0  0  0  0  0  0  0  0  0  0  0
   59.9359   35.7436   46.1172 H   0  0  0  0  0  0  0  0  0  0  0  0
   59.0134   35.4518   47.6346 H   0  0  0  0  0  0  0  0  0  0  0  0
   60.8090   34.3140   47.4430 C   0  0  0  0  0  0  0  0  0  0  0  0
   61.8460   33.8380   46.6210 C   0  0  0  0  0  0  0  0  0  0  0  0
   61.7641   33.9277   45.5277 H   0  0  0  0  0  0  0  0  0  0  0  0
   62.9810   33.2510   47.1890 C   0  0  0  0  0  0  0  0  0  0  0  0
   63.7872   32.8747   46.5421 H   0  0  0  0  0  0  0  0  0  0  0  0
   63.0920   33.1420   48.5770 C   0  0  0  0  0  0  0  0  0  0  0  0
   63.9837   32.6760   49.0216 H   0  0  0  0  0  0  0  0  0  0  0  0
   62.0720   33.6240   49.4020 C   0  0  0  0  0  0  0  0  0  0  0  0
   62.1631   33.5399   50.4950 H   0  0  0  0  0  0  0  0  0  0  0  0
   60.9360   34.2130   48.8390 C   0  0  0  0  0  0  0  0  0  0  0  0
   60.1386   34.5988   49.4911 H   0  0  0  0  0  0  0  0  0  0  0  0
   59.1010   32.7110   45.9700 O   0  0  0  0  0  0  0  0  0  0  0  0
   58.9100   29.8160   45.4890 C   0  0  0  0  0  0  0  0  0  0  0  0
   59.6645   30.1458   46.2184 H   0  0  0  0  0  0  0  0  0  0  0  0
   58.8480   28.4710   45.1140 C   0  0  0  0  0  0  0  0  0  0  0  0
   59.5538   27.7501   45.5522 H   0  0  0  0  0  0  0  0  0  0  0  0
  1  2  1  0
  2  3  1  0
  3  4  2  0
  4  5  1  0
  4  6  1  0
  6  7  1  0
  6  8  2  0
  8  9  1  0
  8 10  1  0
 10 11  1  0
 11 12  2  0
 12 13  1  0
 13 14  2  0
 13 15  1  0
 15 16  2  0
 16 17  1  0
 16 18  1  0
 18 19  1  0
 18 20  2  0
 20 21  1  0
 21 22  2  0
 22 23  1  0
 23 24  2  0
 24 25  1  0
 25 26  1  0
 25 27  1  0
 25 28  1  0
 28 29  2  0
 29 30  1  0
 29 31  1  0
 31 32  1  0
 31 33  2  0
 33 34  1  0
 33 35  1  0
 35 36  1  0
 35 37  2  0
 37 38  1  0
 24 39  1  0
 20 40  1  0
 40 41  1  0
 40 42  2  0
 42 43  1  0
 11  3  1  0
 42 15  1  0
 39 21  1  0
 37 28  1  0
M  CHG  1  10  -1
M  END
>  <UniqueID>  (15) 
14

>  <SMILES>  (15) 
O=C(/N=c1/[n-]cccc1O)c1ccc(-c2nnc(Cc3ccccc3)o2)cc1

>  <Energy>  (15) 
93.82048119996661

>  <Genealogy>  (15) 
O=C(N=c1[n-]cccc1O)c1ccc(-c2nnc(Cc3ccccc3)o2)cc1 (protonated)
O=C(/N=c1/[n-]cccc1O)c1ccc(-c2nnc(Cc3ccccc3)o2)cc1 (cis-trans isomerization)
O=C(/N=c1/[n-]cccc1O)c1ccc(-c2nnc(Cc3ccccc3)o2)cc1 (3D coordinates assigned)
O=C(/N=c1/[n-]cccc1O)c1ccc(-c2nnc(Cc3ccccc3)o2)cc1 (optimized conformer: 93.82048119996661 kcal/mol)

>  <smiles>  (15) 
O=C(N=c1[nH]cccc1O)c1ccc(-c2nnc(Cc3ccccc3)o2)cc1

>  <score_type>  (15) 
oracle

>  <origin>  (15) 
adg

>  <m_score__min__energy>  (15) 
-10.77

>  <m_primary>  (15) 
energy

$$$$
15:0
     RDKit          3D

 69 73  0  0  0  0  0  0  0  0999 V2000
   55.8000   30.1600   52.7350 C   0  0  0  0  0  0  0  0  0  0  0  0
   56.9870   30.6090   51.9410 C   0  0  0  0  0  0  0  0  0  0  0  0
   57.3770   31.9530   51.9460 C   0  0  0  0  0  0  0  0  0  0  0  0
   58.5190   32.3250   51.2230 C   0  0  0  0  0  0  0  0  0  0  0  0
   58.9950   33.7320   51.2550 C   0  0  0  0  0  0  0  0  0  0  0  0
   58.7880   34.4350   52.2820 O   0  0  0  0  0  0  0  0  0  0  0  0
   59.6610   34.3350   50.1350 N   0  0  0  0  0  0  0  0  0  0  0  0
   59.9110   33.7100   48.8650 C   0  0  0  0  0  0  0  0  0  0  0  0
   58.9280   33.6900   47.8560 C   0  0  0  0  0  0  0  0  0  0  0  0
   59.2000   33.1170   46.6080 C   0  0  0  0  0  0  0  0  0  0  0  0
   57.9650   33.1060   45.3480 S   0  0  0  0  0  0  0  0  0  0  0  0
   58.6040   33.4350   44.0280 O   0  0  0  0  0  0  0  0  0  0  0  0
   56.9470   34.1740   45.6470 O   0  0  0  0  0  0  0  0  0  0  0  0
   57.1660   31.5540   45.2350 N   0  0  0  0  0  0  0  0  0  0  0  0
   58.0100   30.5000   45.8190 C   0  0  0  0  0  0  0  0  0  0  0  0
   57.3420   29.1190   45.6410 C   0  0  0  0  0  0  0  0  0  0  0  0
   56.0910   29.2150   44.9870 O   0  0  0  0  0  0  0  0  0  0  0  0
   56.2600   29.8180   43.7160 C   0  0  0  0  0  0  0  0  0  0  0  0
   56.8640   31.2340   43.8320 C   0  0  0  0  0  0  0  0  0  0  0  0
   60.4490   32.5320   46.3750 C   0  0  0  0  0  0  0  0  0  0  0  0
   61.4160   32.5160   47.3800 C   0  0  0  0  0  0  0  0  0  0  0  0
   61.1530   33.1010   48.6270 C   0  0  0  0  0  0  0  0  0  0  0  0
   62.1650   33.0930   49.6410 N   0  0  0  0  0  0  0  0  0  0  0  0
   62.8280   31.8150   49.9300 C   0  0  0  0  0  0  0  0  0  0  0  0
   63.7950   31.9370   51.1080 C   0  0  0  0  0  0  0  0  0  0  0  0
   64.5880   33.0970   50.9690 O   0  0  0  0  0  0  0  0  0  0  0  0
   63.7780   34.2350   51.1730 C   0  0  0  0  0  0  0  0  0  0  0  0
   62.7210   34.3860   50.0670 C   0  0  0  0  0  0  0  0  0  0  0  0
   59.2010   31.3760   50.5140 N   0  0  0  0  0  0  0  0  0  0  0  0
   58.8150   30.0660   50.5300 C   0  0  0  0  0  0  0  0  0  0  0  0
   59.6080   29.0610   49.8750 N   0  0  0  0  0  0  0  0  0  0  0  0
   60.7160   28.3930   50.5620 C   0  0  0  0  0  0  0  0  0  0  0  0
   60.7620   26.9340   50.1040 C   0  0  0  0  0  0  0  0  0  0  0  0
   60.8470   26.8540   48.6870 O   0  0  0  0  0  0  0  0  0  0  0  0
   59.6740   27.3860   48.0970 C   0  0  0  0  0  0  0  0  0  0  0  0
   59.5150   28.8740   48.4280 C   0  0  0  0  0  0  0  0  0  0  0  0
   57.7210   29.6980   51.2520 N   0  0  0  0  0  0  0  0  0  0  0  0
   56.0238   30.2446   53.8087 H   0  0  0  0  0  0  0  0  0  0  0  0
   54.9343   30.7928   52.4899 H   0  0  0  0  0  0  0  0  0  0  0  0
   55.5698   29.1127   52.4899 H   0  0  0  0  0  0  0  0  0  0  0  0
   56.7989   32.7027   52.5062 H   0  0  0  0  0  0  0  0  0  0  0  0
   57.9381   34.1285   48.0505 H   0  0  0  0  0  0  0  0  0  0  0  0
   58.9881   30.4977   45.3156 H   0  0  0  0  0  0  0  0  0  0  0  0
   58.1397   30.6992   46.8930 H   0  0  0  0  0  0  0  0  0  0  0  0
   58.0066   28.4775   45.0436 H   0  0  0  0  0  0  0  0  0  0  0  0
   57.1706   28.6934   46.6407 H   0  0  0  0  0  0  0  0  0  0  0  0
   56.9324   29.1920   43.1109 H   0  0  0  0  0  0  0  0  0  0  0  0
   55.2706   29.9047   43.2431 H   0  0  0  0  0  0  0  0  0  0  0  0
   57.7916   31.2808   43.2427 H   0  0  0  0  0  0  0  0  0  0  0  0
   56.1341   31.9634   43.4509 H   0  0  0  0  0  0  0  0  0  0  0  0
   60.6694   32.0828   45.3954 H   0  0  0  0  0  0  0  0  0  0  0  0
   62.3908   32.0417   47.1933 H   0  0  0  0  0  0  0  0  0  0  0  0
   62.0630   31.0627   50.1724 H   0  0  0  0  0  0  0  0  0  0  0  0
   63.4038   31.5171   49.0413 H   0  0  0  0  0  0  0  0  0  0  0  0
   63.2211   31.9991   52.0444 H   0  0  0  0  0  0  0  0  0  0  0  0
   64.4506   31.0539   51.1275 H   0  0  0  0  0  0  0  0  0  0  0  0
   63.2680   34.1404   52.1430 H   0  0  0  0  0  0  0  0  0  0  0  0
   64.4249   35.1245   51.1530 H   0  0  0  0  0  0  0  0  0  0  0  0
   61.9018   35.0152   50.4451 H   0  0  0  0  0  0  0  0  0  0  0  0
   63.2117   34.8431   49.1951 H   0  0  0  0  0  0  0  0  0  0  0  0
   60.0500   31.6500   49.9700 H   0  0  0  0  0  0  0  0  0  0  0  0
   61.6636   28.8913   50.3094 H   0  0  0  0  0  0  0  0  0  0  0  0
   60.5685   28.4418   51.6510 H   0  0  0  0  0  0  0  0  0  0  0  0
   61.6419   26.4443   50.5466 H   0  0  0  0  0  0  0  0  0  0  0  0
   59.8400   26.4315   50.4317 H   0  0  0  0  0  0  0  0  0  0  0  0
   59.7347   27.2654   47.0053 H   0  0  0  0  0  0  0  0  0  0  0  0
   58.8049   26.8443   48.4985 H   0  0  0  0  0  0  0  0  0  0  0  0
   60.3115   29.4478   47.9316 H   0  0  0  0  0  0  0  0  0  0  0  0
   58.5354   29.2272   48.0736 H   0  0  0  0  0  0  0  0  0  0  0  0
  1  2  1  0
  2  3  2  0
  3  4  1  0
  4  5  1  0
  5  6  2  0
  5  7  1  0
  7  8  1  0
  8  9  2  0
  9 10  1  0
 10 11  1  0
 11 12  2  0
 11 13  2  0
 11 14  1  0
 14 15  1  0
 15 16  1  0
 16 17  1  0
 17 18  1  0
 18 19  1  0
 10 20  2  0
 20 21  1  0
 21 22  2  0
 22 23  1  0
 23 24  1  0
 24 25  1  0
 25 26  1  0
 26 27  1  0
 27 28  1  0
  4 29  2  0
 29 30  1  0
 30 31  1  0
 31 32  1  0
 32 33  1  0
 33 34  1  0
 34 35  1  0
 35 36  1  0
 30 37  2  0
 37  2  1  0
 22  8  1  0
 28 23  1  0
 36 31  1  0
 19 14  1  0
  1 38  1  0
  1 39  1  0
  1 40  1  0
  3 41  1  0
  9 42  1  0
 15 43  1  0
 15 44  1  0
 16 45  1  0
 16 46  1  0
 18 47  1  0
 18 48  1  0
 19 49  1  0
 19 50  1  0
 20 51  1  0
 21 52  1  0
 24 53  1  0
 24 54  1  0
 25 55  1  0
 25 56  1  0
 27 57  1  0
 27 58  1  0
 28 59  1  0
 28 60  1  0
 29 61  1  0
 32 62  1  0
 32 63  1  0
 33 64  1  0
 33 65  1  0
 35 66  1  0
 35 67  1  0
 36 68  1  0
 36 69  1  0
M  CHG  2   7  -1  29   1
M  END
>  <UniqueID>  (16) 
15

>  <SMILES>  (16) 
Cc1cc(C(=O)[N-]c2cc(S(=O)(=O)N3CCOCC3)ccc2N2CCOCC2)[nH+]c(N2CCOCC2)n1

>  <Energy>  (16) 
94.54834927317144

>  <Genealogy>  (16) 
Cc1cc(C(=O)[N-]c2cc(S(=O)(=O)N3CCOCC3)ccc2N2CCOCC2)[nH+]c(N2CCOCC2)n1 (protonated)
Cc1cc(C(=O)[N-]c2cc(S(=O)(=O)N3CCOCC3)ccc2N2CCOCC2)[nH+]c(N2CCOCC2)n1 (3D coordinates assigned)
Cc1cc(C(=O)[N-]c2cc(S(=O)(=O)N3CCOCC3)ccc2N2CCOCC2)[nH+]c(N2CCOCC2)n1 (nonaromatic ring conformer: 94.54834927317144 kcal/mol)

>  <smiles>  (16) 
Cc1cc(C(=O)Nc2cc(S(=O)(=O)N3CCOCC3)ccc2N2CCOCC2)nc(N2CCOCC2)n1

>  <score_type>  (16) 
oracle

>  <origin>  (16) 
adg

>  <m_score__min__energy>  (16) 
-10.35

>  <m_primary>  (16) 
energy

$$$$
16:0
     RDKit          3D

 49 51  0  0  0  0  0  0  0  0999 V2000
   56.8540   29.6910   43.1260 O   0  0  0  0  0  0  0  0  0  0  0  0
   57.5720   29.0680   43.9540 C   0  0  0  0  0  0  0  0  0  0  0  0
   57.8650   27.6200   43.7280 C   0  0  0  0  0  0  0  0  0  0  0  0
   58.7530   27.1430   44.7860 N   0  0  0  0  0  0  0  0  0  0  0  0
   57.8170   26.5720   46.1340 S   0  0  0  0  0  0  0  0  0  0  0  0
   57.0400   27.7200   46.7180 O   0  0  0  0  0  0  0  0  0  0  0  0
   58.7480   26.0250   47.1780 O   0  0  0  0  0  0  0  0  0  0  0  0
   56.7190   25.2870   45.6190 C   0  0  0  0  0  0  0  0  0  0  0  0
   57.2420   24.0470   45.2180 C   0  0  0  0  0  0  0  0  0  0  0  0
   56.3890   23.0180   44.8120 C   0  0  0  0  0  0  0  0  0  0  0  0
   55.0070   23.2140   44.8100 C   0  0  0  0  0  0  0  0  0  0  0  0
   54.4740   24.4390   45.2220 C   0  0  0  0  0  0  0  0  0  0  0  0
   55.3240   25.4730   45.6340 C   0  0  0  0  0  0  0  0  0  0  0  0
   54.7700   26.6770   46.0580 O   0  0  0  0  0  0  0  0  0  0  0  0
   58.0390   29.7120   45.1500 N   0  0  0  0  0  0  0  0  0  0  0  0
   57.9540   31.1260   45.3910 C   0  0  0  0  0  0  0  0  0  0  0  0
   57.0460   31.9370   44.6880 C   0  0  0  0  0  0  0  0  0  0  0  0
   57.0030   33.3150   44.9220 C   0  0  0  0  0  0  0  0  0  0  0  0
   57.8720   33.8950   45.8490 C   0  0  0  0  0  0  0  0  0  0  0  0
   58.7900   33.1020   46.5460 C   0  0  0  0  0  0  0  0  0  0  0  0
   59.8910   33.8510   47.6990 S   0  0  0  0  0  0  0  0  0  0  0  0
   59.2660   33.8820   49.0680 O   0  0  0  0  0  0  0  0  0  0  0  0
   60.1560   35.2660   47.2610 O   0  0  0  0  0  0  0  0  0  0  0  0
   61.3870   32.9520   47.7470 N   0  0  0  0  0  0  0  0  0  0  0  0
   61.9370   32.9010   49.1210 C   0  0  0  0  0  0  0  0  0  0  0  0
   63.1570   33.8240   49.2940 C   0  0  0  0  0  0  0  0  0  0  0  0
   64.2150   33.5210   48.3980 O   0  0  0  0  0  0  0  0  0  0  0  0
   63.7760   33.0960   47.1140 C   0  0  0  0  0  0  0  0  0  0  0  0
   62.3370   33.5090   46.7660 C   0  0  0  0  0  0  0  0  0  0  0  0
   58.8370   31.7210   46.3050 C   0  0  0  0  0  0  0  0  0  0  0  0
   56.9266   27.0465   43.7478 H   0  0  0  0  0  0  0  0  0  0  0  0
   58.3489   27.4873   42.7491 H   0  0  0  0  0  0  0  0  0  0  0  0
   58.3300   23.8850   45.2236 H   0  0  0  0  0  0  0  0  0  0  0  0
   56.8070   22.0517   44.4934 H   0  0  0  0  0  0  0  0  0  0  0  0
   54.3372   22.4045   44.4842 H   0  0  0  0  0  0  0  0  0  0  0  0
   53.3846   24.5911   45.2226 H   0  0  0  0  0  0  0  0  0  0  0  0
   58.3740   29.1010   45.9280 H   0  0  0  0  0  0  0  0  0  0  0  0
   56.3662   31.4855   43.9504 H   0  0  0  0  0  0  0  0  0  0  0  0
   56.2840   33.9429   44.3754 H   0  0  0  0  0  0  0  0  0  0  0  0
   57.8345   34.9791   46.0317 H   0  0  0  0  0  0  0  0  0  0  0  0
   61.1539   33.2128   49.8278 H   0  0  0  0  0  0  0  0  0  0  0  0
   62.2642   31.8690   49.3155 H   0  0  0  0  0  0  0  0  0  0  0  0
   62.8379   34.8624   49.1208 H   0  0  0  0  0  0  0  0  0  0  0  0
   63.5387   33.6757   50.3149 H   0  0  0  0  0  0  0  0  0  0  0  0
   64.4499   33.5281   46.3596 H   0  0  0  0  0  0  0  0  0  0  0  0
   63.7930   31.9962   47.1246 H   0  0  0  0  0  0  0  0  0  0  0  0
   62.2636   34.6065   46.7742 H   0  0  0  0  0  0  0  0  0  0  0  0
   62.0869   33.1191   45.7683 H   0  0  0  0  0  0  0  0  0  0  0  0
   59.5722   31.0992   46.8369 H   0  0  0  0  0  0  0  0  0  0  0  0
  1  2  2  0
  2  3  1  0
  3  4  1  0
  4  5  1  0
  5  6  2  0
  5  7  2  0
  5  8  1  0
  8  9  2  0
  9 10  1  0
 10 11  2  0
 11 12  1  0
 12 13  2  0
 13 14  1  0
  2 15  1  0
 15 16  1  0
 16 17  2  0
 17 18  1  0
 18 19  2  0
 19 20  1  0
 20 21  1  0
 21 22  2  0
 21 23  2  0
 21 24  1  0
 24 25  1  0
 25 26  1  0
 26 27  1  0
 27 28  1  0
 28 29  1  0
 20 30  2  0
 13  8  1  0
 30 16  1  0
 29 24  1  0
  3 31  1  0
  3 32  1  0
  9 33  1  0
 10 34  1  0
 11 35  1  0
 12 36  1  0
 15 37  1  0
 17 38  1  0
 18 39  1  0
 19 40  1  0
 25 41  1  0
 25 42  1  0
 26 43  1  0
 26 44  1  0
 28 45  1  0
 28 46  1  0
 29 47  1  0
 29 48  1  0
 30 49  1  0
M  CHG  2   4  -1  14  -1
M  END
>  <UniqueID>  (17) 
16

>  <SMILES>  (17) 
O=C(C[N-]S(=O)(=O)c1ccccc1[O-])Nc1cccc(S(=O)(=O)N2CCOCC2)c1

>  <Energy>  (17) 
63.66400233422362

>  <Genealogy>  (17) 
O=C(C[N-]S(=O)(=O)c1ccccc1[O-])Nc1cccc(S(=O)(=O)N2CCOCC2)c1 (protonated)
O=C(C[N-]S(=O)(=O)c1ccccc1[O-])Nc1cccc(S(=O)(=O)N2CCOCC2)c1 (3D coordinates assigned)
O=C(C[N-]S(=O)(=O)c1ccccc1[O-])Nc1cccc(S(=O)(=O)N2CCOCC2)c1 (nonaromatic ring conformer: 63.66400233422362 kcal/mol)

>  <smiles>  (17) 
O=C(CNS(=O)(=O)c1ccccc1O)Nc1cccc(S(=O)(=O)N2CCOCC2)c1

>  <score_type>  (17) 
oracle

>  <origin>  (17) 
adg

>  <m_score__min__energy>  (17) 
-15.449999999999999

>  <m_primary>  (17) 
energy

$$$$
17:0
     RDKit          3D

 53 55  0  0  0  0  0  0  0  0999 V2000
   60.9240   27.5480   49.4850 O   0  0  0  0  0  0  0  0  0  0  0  0
   60.3790   28.6390   49.1720 C   0  0  0  0  0  0  0  0  0  0  0  0
   59.3420   29.2310   50.0920 C   0  0  0  0  0  0  0  0  0  0  0  0
   59.8600   30.4730   50.8440 C   0  0  0  0  0  0  0  0  0  0  0  0
   58.8620   31.6430   50.8520 C   0  0  0  0  0  0  0  0  0  0  0  0
   58.9240   32.4070   49.6020 N   0  0  0  0  0  0  0  0  0  0  0  0
   60.1620   33.6180   49.7210 S   0  0  0  0  0  0  0  0  0  0  0  0
   60.6100   33.7320   51.1510 O   0  0  0  0  0  0  0  0  0  0  0  0
   59.6090   34.9470   49.2830 O   0  0  0  0  0  0  0  0  0  0  0  0
   61.5440   33.1670   48.7220 C   0  0  0  0  0  0  0  0  0  0  0  0
   61.8160   33.8460   47.5250 C   0  0  0  0  0  0  0  0  0  0  0  0
   62.9000   33.4610   46.7320 C   0  0  0  0  0  0  0  0  0  0  0  0
   63.7160   32.3980   47.1280 C   0  0  0  0  0  0  0  0  0  0  0  0
   63.4460   31.7150   48.3170 C   0  0  0  0  0  0  0  0  0  0  0  0
   62.3620   32.0980   49.1130 C   0  0  0  0  0  0  0  0  0  0  0  0
   60.8310   29.3190   47.9920 N   0  0  0  0  0  0  0  0  0  0  0  0
   60.1160   29.6350   46.9520 C   0  0  0  0  0  0  0  0  0  0  0  0
   60.1470   28.9030   45.8160 N   0  0  0  0  0  0  0  0  0  0  0  0
   59.2880   29.3850   44.8800 C   0  0  0  0  0  0  0  0  0  0  0  0
   58.5630   30.5010   45.2790 C   0  0  0  0  0  0  0  0  0  0  0  0
   57.3950   31.3800   44.3060 S   0  0  0  0  0  0  0  0  0  0  0  0
   56.0120   30.9300   44.6840 O   0  0  0  0  0  0  0  0  0  0  0  0
   57.6190   31.0520   42.8560 O   0  0  0  0  0  0  0  0  0  0  0  0
   57.5230   33.1050   44.5580 N   0  0  0  0  0  0  0  0  0  0  0  0
   58.9040   33.5610   44.2880 C   0  0  0  0  0  0  0  0  0  0  0  0
   59.1610   34.9450   44.8900 C   0  0  0  0  0  0  0  0  0  0  0  0
   59.0290   34.9100   46.4230 C   0  0  0  0  0  0  0  0  0  0  0  0
   58.0860   33.7980   46.9140 C   0  0  0  0  0  0  0  0  0  0  0  0
   56.9850   33.5030   45.8830 C   0  0  0  0  0  0  0  0  0  0  0  0
   58.9980   30.8980   46.8530 S   0  0  0  0  0  0  0  0  0  0  0  0
   58.4648   29.5206   49.4948 H   0  0  0  0  0  0  0  0  0  0  0  0
   59.0866   28.4684   50.8424 H   0  0  0  0  0  0  0  0  0  0  0  0
   60.0707   30.1874   51.8852 H   0  0  0  0  0  0  0  0  0  0  0  0
   60.7614   30.8189   50.3170 H   0  0  0  0  0  0  0  0  0  0  0  0
   57.8444   31.2447   50.9780 H   0  0  0  0  0  0  0  0  0  0  0  0
   59.1233   32.3155   51.6823 H   0  0  0  0  0  0  0  0  0  0  0  0
   58.0300   32.9320   49.4890 H   0  0  0  0  0  0  0  0  0  0  0  0
   61.1750   34.6827   47.2103 H   0  0  0  0  0  0  0  0  0  0  0  0
   63.1115   33.9957   45.7942 H   0  0  0  0  0  0  0  0  0  0  0  0
   64.5709   32.0988   46.5038 H   0  0  0  0  0  0  0  0  0  0  0  0
   64.0863   30.8759   48.6268 H   0  0  0  0  0  0  0  0  0  0  0  0
   62.1507   31.5590   50.0483 H   0  0  0  0  0  0  0  0  0  0  0  0
   59.1756   28.9281   43.8857 H   0  0  0  0  0  0  0  0  0  0  0  0
   59.6110   32.8422   44.7277 H   0  0  0  0  0  0  0  0  0  0  0  0
   59.0414   33.6255   43.1985 H   0  0  0  0  0  0  0  0  0  0  0  0
   60.1773   35.2707   44.6233 H   0  0  0  0  0  0  0  0  0  0  0  0
   58.4150   35.6469   44.4889 H   0  0  0  0  0  0  0  0  0  0  0  0
   60.0255   34.7435   46.8580 H   0  0  0  0  0  0  0  0  0  0  0  0
   58.6010   35.8721   46.7410 H   0  0  0  0  0  0  0  0  0  0  0  0
   58.6708   32.8822   47.0855 H   0  0  0  0  0  0  0  0  0  0  0  0
   57.6077   34.1349   47.8455 H   0  0  0  0  0  0  0  0  0  0  0  0
   56.3561   32.6858   46.2659 H   0  0  0  0  0  0  0  0  0  0  0  0
   56.4109   34.4304   45.7401 H   0  0  0  0  0  0  0  0  0  0  0  0
  1  2  2  0
  2  3  1  0
  3  4  1  0
  4  5  1  0
  5  6  1  0
  6  7  1  0
  7  8  2  0
  7  9  2  0
  7 10  1  0
 10 11  2  0
 11 12  1  0
 12 13  2  0
 13 14  1  0
 14 15  2  0
  2 16  1  0
 16 17  2  3
 17 18  1  0
 18 19  1  0
 19 20  2  0
 20 21  1  0
 21 22  2  0
 21 23  2  0
 21 24  1  0
 24 25  1  0
 25 26  1  0
 26 27  1  0
 27 28  1  0
 28 29  1  0
 20 30  1  0
 15 10  1  0
 30 17  1  0
 29 24  1  0
  3 31  1  0
  3 32  1  0
  4 33  1  0
  4 34  1  0
  5 35  1  0
  5 36  1  0
  6 37  1  0
 11 38  1  0
 12 39  1  0
 13 40  1  0
 14 41  1  0
 15 42  1  0
 19 43  1  0
 25 44  1  0
 25 45  1  0
 26 46  1  0
 26 47  1  0
 27 48  1  0
 27 49  1  0
 28 50  1  0
 28 51  1  0
 29 52  1  0
 29 53  1  0
M  CHG  1  18  -1
M  END
>  <UniqueID>  (18) 
17

>  <SMILES>  (18) 
O=C(CCCNS(=O)(=O)c1ccccc1)N=c1[n-]cc(S(=O)(=O)N2CCCCC2)s1

>  <Energy>  (18) 
87.148015158814

>  <Genealogy>  (18) 
O=C(CCCNS(=O)(=O)c1ccccc1)N=c1[n-]cc(S(=O)(=O)N2CCCCC2)s1 (protonated)
O=C(CCCNS(=O)(=O)c1ccccc1)N=c1[n-]cc(S(=O)(=O)N2CCCCC2)s1 (3D coordinates assigned)
O=C(CCCNS(=O)(=O)c1ccccc1)N=c1[n-]cc(S(=O)(=O)N2CCCCC2)s1 (nonaromatic ring conformer: 87.148015158814 kcal/mol)

>  <smiles>  (18) 
O=C(CCCNS(=O)(=O)c1ccccc1)N=c1[nH]cc(S(=O)(=O)N2CCCCC2)s1

>  <score_type>  (18) 
oracle

>  <origin>  (18) 
adg

>  <m_score__min__energy>  (18) 
-12.050000000000001

>  <m_primary>  (18) 
energy

$$$$
18:0
     RDKit          3D

 31 33  0  0  0  0  0  0  0  0999 V2000
   57.4213   27.3957   47.3834 H   0  0  0  0  0  0  0  0  0  0  0  0
   57.5990   27.1180   46.3340 C   0  0  0  0  0  0  0  0  0  0  0  0
   58.2870   27.9110   45.5700 N   0  0  0  0  0  0  0  0  0  0  0  0
   57.8900   29.2480   45.2540 C   0  0  0  0  0  0  0  0  0  0  0  0
   58.5460   30.3530   45.6680 N   0  0  0  0  0  0  0  0  0  0  0  0
   57.9540   31.4980   45.2240 C   0  0  0  0  0  0  0  0  0  0  0  0
   58.5040   32.8360   45.5650 C   0  0  0  0  0  0  0  0  0  0  0  0
   58.8160   33.1430   46.9050 C   0  0  0  0  0  0  0  0  0  0  0  0
   58.6497   32.3904   47.6898 H   0  0  0  0  0  0  0  0  0  0  0  0
   59.3350   34.3960   47.2450 C   0  0  0  0  0  0  0  0  0  0  0  0
   59.5720   34.6255   48.2944 H   0  0  0  0  0  0  0  0  0  0  0  0
   59.5530   35.3560   46.2560 C   0  0  0  0  0  0  0  0  0  0  0  0
   59.9603   36.3415   46.5259 H   0  0  0  0  0  0  0  0  0  0  0  0
   59.2540   35.0650   44.9240 C   0  0  0  0  0  0  0  0  0  0  0  0
   59.4275   35.8221   44.1451 H   0  0  0  0  0  0  0  0  0  0  0  0
   58.7350   33.8150   44.5770 C   0  0  0  0  0  0  0  0  0  0  0  0
   58.5048   33.5929   43.5245 H   0  0  0  0  0  0  0  0  0  0  0  0
   56.8060   31.2860   44.4490 C   0  0  0  0  0  0  0  0  0  0  0  0
   56.1801   32.0700   43.9979 H   0  0  0  0  0  0  0  0  0  0  0  0
   56.5480   29.6280   44.3260 S   0  0  0  0  0  0  0  0  0  0  0  0
   57.0500   25.8450   45.8130 C   0  0  0  0  0  0  0  0  0  0  0  0
   57.9040   24.7820   45.4610 C   0  0  0  0  0  0  0  0  0  0  0  0
   58.9924   24.8962   45.5725 H   0  0  0  0  0  0  0  0  0  0  0  0
   57.3790   23.5830   44.9710 C   0  0  0  0  0  0  0  0  0  0  0  0
   58.0541   22.7581   44.6993 H   0  0  0  0  0  0  0  0  0  0  0  0
   55.9990   23.4310   44.8260 C   0  0  0  0  0  0  0  0  0  0  0  0
   55.5876   22.4872   44.4389 H   0  0  0  0  0  0  0  0  0  0  0  0
   55.1410   24.4760   45.1720 C   0  0  0  0  0  0  0  0  0  0  0  0
   54.0539   24.3529   45.0576 H   0  0  0  0  0  0  0  0  0  0  0  0
   55.6580   25.6800   45.6640 C   0  0  0  0  0  0  0  0  0  0  0  0
   54.7790   26.7050   46.0010 O   0  0  0  0  0  0  0  0  0  0  0  0
  1  2  1  0
  2  3  2  0
  3  4  1  0
  4  5  2  0
  5  6  1  0
  6  7  1  0
  7  8  2  0
  8  9  1  0
  8 10  1  0
 10 11  1  0
 10 12  2  0
 12 13  1  0
 12 14  1  0
 14 15  1  0
 14 16  2  0
 16 17  1  0
  6 18  2  0
 18 19  1  0
 18 20  1  0
  2 21  1  0
 21 22  2  0
 22 23  1  0
 22 24  1  0
 24 25  1  0
 24 26  2  0
 26 27  1  0
 26 28  1  0
 28 29  1  0
 28 30  2  0
 30 31  1  0
 20  4  1  0
 30 21  1  0
 16  7  1  0
M  CHG  1  31  -1
M  END
>  <UniqueID>  (19) 
18

>  <SMILES>  (19) 
[O-]c1ccccc1/C=N/c1nc(-c2ccccc2)cs1

>  <Energy>  (19) 
66.72055992335126

>  <Genealogy>  (19) 
[O-]c1ccccc1C=Nc1nc(-c2ccccc2)cs1 (protonated)
[O-]c1ccccc1/C=N/c1nc(-c2ccccc2)cs1 (cis-trans isomerization)
[O-]c1ccccc1/C=N/c1nc(-c2ccccc2)cs1 (3D coordinates assigned)
[O-]c1ccccc1/C=N/c1nc(-c2ccccc2)cs1 (optimized conformer: 66.72055992335126 kcal/mol)

>  <smiles>  (19) 
Oc1ccccc1C=Nc1nc(-c2ccccc2)cs1

>  <score_type>  (19) 
oracle

>  <origin>  (19) 
adg

>  <m_score__min__energy>  (19) 
-12.300000000000001

>  <m_primary>  (19) 
energy

$$$$
19:0
     RDKit          3D

 39 40  0  0  0  0  0  0  0  0999 V2000
   60.3580   34.5980   46.3600 C   0  0  0  0  0  0  0  0  0  0  0  0
   59.0490   34.5840   45.8000 O   0  0  0  0  0  0  0  0  0  0  0  0
   58.4730   33.4820   45.1460 C   0  0  0  0  0  0  0  0  0  0  0  0
   58.4080   33.4060   43.7410 C   0  0  0  0  0  0  0  0  0  0  0  0
   57.8540   32.2860   43.1180 C   0  0  0  0  0  0  0  0  0  0  0  0
   57.3640   31.2290   43.8830 C   0  0  0  0  0  0  0  0  0  0  0  0
   56.6910   29.8130   43.0940 Cl  0  0  0  0  0  0  0  0  0  0  0  0
   57.4160   31.2920   45.2770 C   0  0  0  0  0  0  0  0  0  0  0  0
   57.9550   32.4190   45.9200 C   0  0  0  0  0  0  0  0  0  0  0  0
   58.0820   32.4220   47.4230 C   0  0  0  0  0  0  0  0  0  0  0  0
   59.3740   31.7760   47.8010 C   0  0  0  0  0  0  0  0  0  0  0  0
   59.5620   31.3900   48.9860 O   0  0  0  0  0  0  0  0  0  0  0  0
   60.3350   31.4830   46.7830 N   0  0  0  0  0  0  0  0  0  0  0  0
   61.0580   30.2200   46.7330 C   0  0  0  0  0  0  0  0  0  0  0  0
   60.0740   29.0940   46.5670 C   0  0  0  0  0  0  0  0  0  0  0  0
   59.7170   28.6580   45.2820 C   0  0  0  0  0  0  0  0  0  0  0  0
   58.7250   27.6880   45.1150 C   0  0  0  0  0  0  0  0  0  0  0  0
   58.0720   27.1480   46.2320 C   0  0  0  0  0  0  0  0  0  0  0  0
   56.8240   25.9200   46.0400 S   0  0  0  0  0  0  0  0  0  0  0  0
   55.2650   26.6680   46.0000 N   0  0  0  0  0  0  0  0  0  0  0  0
   56.8920   24.9570   47.1920 O   0  0  0  0  0  0  0  0  0  0  0  0
   57.0310   25.1630   44.7570 O   0  0  0  0  0  0  0  0  0  0  0  0
   58.4210   27.5870   47.5150 C   0  0  0  0  0  0  0  0  0  0  0  0
   59.4120   28.5580   47.6830 C   0  0  0  0  0  0  0  0  0  0  0  0
   60.2872   34.5972   47.4577 H   0  0  0  0  0  0  0  0  0  0  0  0
   60.9086   33.7057   46.0275 H   0  0  0  0  0  0  0  0  0  0  0  0
   60.8894   35.5019   46.0275 H   0  0  0  0  0  0  0  0  0  0  0  0
   58.7963   34.2346   43.1305 H   0  0  0  0  0  0  0  0  0  0  0  0
   57.8041   32.2377   42.0202 H   0  0  0  0  0  0  0  0  0  0  0  0
   57.0322   30.4531   45.8761 H   0  0  0  0  0  0  0  0  0  0  0  0
   58.0651   33.4578   47.7928 H   0  0  0  0  0  0  0  0  0  0  0  0
   57.2435   31.8668   47.8688 H   0  0  0  0  0  0  0  0  0  0  0  0
   61.7549   30.2283   45.8820 H   0  0  0  0  0  0  0  0  0  0  0  0
   61.6252   30.0812   47.6652 H   0  0  0  0  0  0  0  0  0  0  0  0
   60.2209   29.0822   44.4010 H   0  0  0  0  0  0  0  0  0  0  0  0
   58.4557   27.3472   44.1044 H   0  0  0  0  0  0  0  0  0  0  0  0
   55.1550   27.1000   45.0560 H   0  0  0  0  0  0  0  0  0  0  0  0
   57.9128   27.1656   48.3948 H   0  0  0  0  0  0  0  0  0  0  0  0
   59.6744   28.9037   48.6938 H   0  0  0  0  0  0  0  0  0  0  0  0
  1  2  1  0
  2  3  1  0
  3  4  2  0
  4  5  1  0
  5  6  2  0
  6  7  1  0
  6  8  1  0
  8  9  2  0
  9 10  1  0
 10 11  1  0
 11 12  2  0
 11 13  1  0
 13 14  1  0
 14 15  1  0
 15 16  2  0
 16 17  1  0
 17 18  2  0
 18 19  1  0
 19 20  1  0
 19 21  2  0
 19 22  2  0
 18 23  1  0
 23 24  2  0
  9  3  1  0
 24 15  1  0
  1 25  1  0
  1 26  1  0
  1 27  1  0
  4 28  1  0
  5 29  1  0
  8 30  1  0
 10 31  1  0
 10 32  1  0
 14 33  1  0
 14 34  1  0
 16 35  1  0
 17 36  1  0
 20 37  1  0
 23 38  1  0
 24 39  1  0
M  CHG  2  13  -1  20  -1
M  END
>  <UniqueID>  (20) 
19

>  <SMILES>  (20) 
COc1ccc(Cl)cc1CC(=O)[N-]Cc1ccc(S([NH-])(=O)=O)cc1

>  <Energy>  (20) 
30.83892628714947

>  <Genealogy>  (20) 
COc1ccc(Cl)cc1CC(=O)[N-]Cc1ccc(S([NH-])(=O)=O)cc1 (protonated)
COc1ccc(Cl)cc1CC(=O)[N-]Cc1ccc(S([NH-])(=O)=O)cc1 (3D coordinates assigned)
COc1ccc(Cl)cc1CC(=O)[N-]Cc1ccc(S([NH-])(=O)=O)cc1 (optimized conformer: 30.83892628714947 kcal/mol)

>  <smiles>  (20) 
COc1ccc(Cl)cc1CC(=O)NCc1ccc(S(N)(=O)=O)cc1

>  <score_type>  (20) 
oracle

>  <origin>  (20) 
adg

>  <m_score__min__energy>  (20) 
-11.52

>  <m_primary>  (20) 
energy

$$$$
20:0
     RDKit          3D

 55 58  0  0  0  0  0  0  0  0999 V2000
   54.3350   26.7170   46.7610 H   0  0  0  0  0  0  0  0  0  0  0  0
   54.8660   26.3180   45.9970 O   0  0  0  0  0  0  0  0  0  0  0  0
   55.8730   25.3900   46.2430 C   0  0  0  0  0  0  0  0  0  0  0  0
   55.7130   24.3040   47.0180 N   0  0  0  0  0  0  0  0  0  0  0  0
   56.9070   23.6820   46.9070 C   0  0  0  0  0  0  0  0  0  0  0  0
   57.1640   22.5970   47.4930 O   0  0  0  0  0  0  0  0  0  0  0  0
   57.7990   24.3060   46.1110 N   0  0  0  0  0  0  0  0  0  0  0  0
   57.1420   25.4100   45.7090 C   0  0  0  0  0  0  0  0  0  0  0  0
   57.6990   26.3720   44.7410 C   0  0  0  0  0  0  0  0  0  0  0  0
   57.6518   26.1137   43.6728 H   0  0  0  0  0  0  0  0  0  0  0  0
   58.2630   27.5490   45.0820 C   0  0  0  0  0  0  0  0  0  0  0  0
   59.4820   27.7240   45.7220 C   0  0  0  0  0  0  0  0  0  0  0  0
   60.1517   26.9315   46.0874 H   0  0  0  0  0  0  0  0  0  0  0  0
   59.6910   29.0860   45.8110 C   0  0  0  0  0  0  0  0  0  0  0  0
   60.8960   29.7200   46.4370 C   0  0  0  0  0  0  0  0  0  0  0  0
   60.8074   29.6734   47.5324 H   0  0  0  0  0  0  0  0  0  0  0  0
   61.8007   29.1811   46.1190 H   0  0  0  0  0  0  0  0  0  0  0  0
   60.9643   30.7708   46.1190 H   0  0  0  0  0  0  0  0  0  0  0  0
   58.6530   29.7600   45.2660 N   0  0  0  0  0  0  0  0  0  0  0  0
   58.5540   31.1910   45.1360 C   0  0  0  0  0  0  0  0  0  0  0  0
   57.9550   31.7550   44.0010 C   0  0  0  0  0  0  0  0  0  0  0  0
   57.5656   31.1028   43.2054 H   0  0  0  0  0  0  0  0  0  0  0  0
   57.8510   33.1420   43.8770 C   0  0  0  0  0  0  0  0  0  0  0  0
   57.3710   33.5790   42.9889 H   0  0  0  0  0  0  0  0  0  0  0  0
   58.3550   33.9760   44.8780 C   0  0  0  0  0  0  0  0  0  0  0  0
   58.2592   35.0675   44.7807 H   0  0  0  0  0  0  0  0  0  0  0  0
   58.9840   33.4270   46.0090 C   0  0  0  0  0  0  0  0  0  0  0  0
   59.5090   34.3150   47.0670 C   0  0  0  0  0  0  0  0  0  0  0  0
   58.8840   35.3760   47.3450 O   0  0  0  0  0  0  0  0  0  0  0  0
   60.7250   34.0050   47.7750 N   0  0  0  0  0  0  0  0  0  0  0  0
   60.8890   34.4730   49.1570 C   0  0  0  0  0  0  0  0  0  0  0  0
   61.3600   35.4671   49.1499 H   0  0  0  0  0  0  0  0  0  0  0  0
   59.9002   34.5276   49.6358 H   0  0  0  0  0  0  0  0  0  0  0  0
   61.7720   33.5010   49.9470 C   0  0  0  0  0  0  0  0  0  0  0  0
   62.0639   33.9769   50.8948 H   0  0  0  0  0  0  0  0  0  0  0  0
   61.1922   32.5831   50.1241 H   0  0  0  0  0  0  0  0  0  0  0  0
   62.9900   33.1330   49.2050 N   0  0  0  0  0  0  0  0  0  0  0  0
   64.0290   32.3680   49.8560 C   0  0  0  0  0  0  0  0  0  0  0  0
   65.1500   32.2170   49.2930 O   0  0  0  0  0  0  0  0  0  0  0  0
   63.8180   31.7530   51.2110 C   0  0  0  0  0  0  0  0  0  0  0  0
   64.0700   32.4874   51.9902 H   0  0  0  0  0  0  0  0  0  0  0  0
   62.7653   31.4522   51.3172 H   0  0  0  0  0  0  0  0  0  0  0  0
   64.4643   30.8693   51.3172 H   0  0  0  0  0  0  0  0  0  0  0  0
   63.1820   33.6290   47.8340 C   0  0  0  0  0  0  0  0  0  0  0  0
   63.4739   34.6890   47.8689 H   0  0  0  0  0  0  0  0  0  0  0  0
   63.9707   33.0374   47.3461 H   0  0  0  0  0  0  0  0  0  0  0  0
   61.8840   33.4880   47.0320 C   0  0  0  0  0  0  0  0  0  0  0  0
   61.9836   34.0497   46.0915 H   0  0  0  0  0  0  0  0  0  0  0  0
   61.7164   32.4184   46.8374 H   0  0  0  0  0  0  0  0  0  0  0  0
   59.0670   32.0300   46.1370 C   0  0  0  0  0  0  0  0  0  0  0  0
   59.5378   31.5908   47.0289 H   0  0  0  0  0  0  0  0  0  0  0  0
   57.7750   28.8310   44.8110 C   0  0  0  0  0  0  0  0  0  0  0  0
   56.6010   29.1280   44.2310 C   0  0  0  0  0  0  0  0  0  0  0  0
   56.3190   30.1784   44.0664 H   0  0  0  0  0  0  0  0  0  0  0  0
   55.9212   28.3209   43.9204 H   0  0  0  0  0  0  0  0  0  0  0  0
  1  2  1  0
  2  3  1  0
  3  4  1  0
  4  5  1  0
  5  6  2  0
  5  7  1  0
  7  8  1  0
  8  9  1  0
  9 10  1  0
  9 11  2  0
 11 12  1  0
 12 13  1  0
 12 14  2  0
 14 15  1  0
 15 16  1  0
 15 17  1  0
 15 18  1  0
 14 19  1  0
 19 20  1  0
 20 21  2  0
 21 22  1  0
 21 23  1  0
 23 24  1  0
 23 25  2  0
 25 26  1  0
 25 27  1  0
 27 28  1  0
 28 29  2  0
 28 30  1  0
 30 31  1  0
 31 32  1  0
 31 33  1  0
 31 34  1  0
 34 35  1  0
 34 36  1  0
 34 37  1  0
 37 38  1  0
 38 39  2  0
 38 40  1  0
 40 41  1  0
 40 42  1  0
 40 43  1  0
 37 44  1  0
 44 45  1  0
 44 46  1  0
 44 47  1  0
 47 48  1  0
 47 49  1  0
 27 50  2  0
 50 51  1  0
 19 52  1  0
 52 53  2  0
 53 54  1  0
 53 55  1  0
  8  3  2  0
 52 11  1  0
 50 20  1  0
 47 30  1  0
M  CHG  2   4  -1   7  -1
M  END
>  <UniqueID>  (21) 
20

>  <SMILES>  (21) 
C=c1/c(=C/c2[n-]c(=O)[n-]c2O)cc(C)n1-c1cccc(C(=O)N2CCN(C(C)=O)CC2)c1

>  <Energy>  (21) 
130.93525530369155

>  <Genealogy>  (21) 
C=c1c(=Cc2[n-]c(=O)[n-]c2O)cc(C)n1-c1cccc(C(=O)N2CCN(C(C)=O)CC2)c1 (protonated)
C=c1/c(=C/c2[n-]c(=O)[n-]c2O)cc(C)n1-c1cccc(C(=O)N2CCN(C(C)=O)CC2)c1 (cis-trans isomerization)
C=c1/c(=C/c2[n-]c(=O)[n-]c2O)cc(C)n1-c1cccc(C(=O)N2CCN(C(C)=O)CC2)c1 (3D coordinates assigned)
C=c1/c(=C/c2[n-]c(=O)[n-]c2O)cc(C)n1-c1cccc(C(=O)N2CCN(C(C)=O)CC2)c1 (nonaromatic ring conformer: 130.93525530369155 kcal/mol)

>  <smiles>  (21) 
C=c1c(=Cc2[nH]c(=O)[nH]c2O)cc(C)n1-c1cccc(C(=O)N2CCN(C(C)=O)CC2)c1

>  <score_type>  (21) 
oracle

>  <origin>  (21) 
adg

>  <m_score__min__energy>  (21) 
-14.949999999999999

>  <m_primary>  (21) 
energy

$$$$
21:0
     RDKit          3D

 46 48  0  0  0  0  0  0  0  0999 V2000
   59.8077   25.1989   45.5924 H   0  0  0  0  0  0  0  0  0  0  0  0
   58.7610   25.5160   45.7100 C   0  0  0  0  0  0  0  0  0  0  0  0
   58.4480   26.8380   45.7100 N   0  0  0  0  0  0  0  0  0  0  0  0
   57.1720   27.2920   45.8560 C   0  0  0  0  0  0  0  0  0  0  0  0
   56.9880   28.5840   45.8510 N   0  0  0  0  0  0  0  0  0  0  0  0
   56.3430   29.4040   44.8630 C   0  0  0  0  0  0  0  0  0  0  0  0
   55.1540   29.1530   44.5210 O   0  0  0  0  0  0  0  0  0  0  0  0
   57.0270   30.6070   44.3370 C   0  0  0  0  0  0  0  0  0  0  0  0
   56.9980   30.9010   42.9610 C   0  0  0  0  0  0  0  0  0  0  0  0
   56.4633   30.2321   42.2706 H   0  0  0  0  0  0  0  0  0  0  0  0
   57.6440   32.0370   42.4660 C   0  0  0  0  0  0  0  0  0  0  0  0
   57.6172   32.2571   41.3886 H   0  0  0  0  0  0  0  0  0  0  0  0
   58.3230   32.8930   43.3340 C   0  0  0  0  0  0  0  0  0  0  0  0
   58.8306   33.7853   42.9388 H   0  0  0  0  0  0  0  0  0  0  0  0
   58.3600   32.6190   44.7080 C   0  0  0  0  0  0  0  0  0  0  0  0
   59.2000   33.7140   45.8100 S   0  0  0  0  0  0  0  0  0  0  0  0
   58.2710   34.1050   46.9260 O   0  0  0  0  0  0  0  0  0  0  0  0
   59.5870   34.9630   45.0680 O   0  0  0  0  0  0  0  0  0  0  0  0
   60.6350   32.9700   46.4790 N   0  0  0  0  0  0  0  0  0  0  0  0
   61.7940   33.8770   46.3430 C   0  0  0  0  0  0  0  0  0  0  0  0
   61.4662   34.9056   46.5540 H   0  0  0  0  0  0  0  0  0  0  0  0
   62.1789   33.7836   45.3168 H   0  0  0  0  0  0  0  0  0  0  0  0
   62.9270   33.5120   47.3070 C   0  0  0  0  0  0  0  0  0  0  0  0
   63.7504   34.2320   47.1909 H   0  0  0  0  0  0  0  0  0  0  0  0
   63.2841   32.4972   47.0773 H   0  0  0  0  0  0  0  0  0  0  0  0
   62.4390   33.5500   48.6920 N   0  0  0  0  0  0  0  0  0  0  0  0
   63.3630   33.8060   49.7710 C   0  0  0  0  0  0  0  0  0  0  0  0
   64.6050   33.7250   49.5660 O   0  0  0  0  0  0  0  0  0  0  0  0
   62.8840   34.1420   51.1500 C   0  0  0  0  0  0  0  0  0  0  0  0
   63.5483   33.6760   51.8926 H   0  0  0  0  0  0  0  0  0  0  0  0
   62.8917   35.2337   51.2850 H   0  0  0  0  0  0  0  0  0  0  0  0
   61.8602   33.7631   51.2850 H   0  0  0  0  0  0  0  0  0  0  0  0
   61.0080   33.3450   48.9470 C   0  0  0  0  0  0  0  0  0  0  0  0
   60.4973   34.3192   48.9559 H   0  0  0  0  0  0  0  0  0  0  0  0
   60.8847   32.8473   49.9202 H   0  0  0  0  0  0  0  0  0  0  0  0
   60.3950   32.4610   47.8510 C   0  0  0  0  0  0  0  0  0  0  0  0
   59.3090   32.4038   48.0164 H   0  0  0  0  0  0  0  0  0  0  0  0
   60.8794   31.4759   47.9205 H   0  0  0  0  0  0  0  0  0  0  0  0
   57.7200   31.4730   45.2030 C   0  0  0  0  0  0  0  0  0  0  0  0
   57.7603   31.2490   46.2792 H   0  0  0  0  0  0  0  0  0  0  0  0
   56.1210   26.3440   45.9650 C   0  0  0  0  0  0  0  0  0  0  0  0
   54.7810   26.7120   46.0000 O   0  0  0  0  0  0  0  0  0  0  0  0
   56.4340   24.9810   45.9840 C   0  0  0  0  0  0  0  0  0  0  0  0
   55.6319   24.2369   46.0983 H   0  0  0  0  0  0  0  0  0  0  0  0
   57.7560   24.5610   45.8590 C   0  0  0  0  0  0  0  0  0  0  0  0
   58.0041   23.4895   45.8776 H   0  0  0  0  0  0  0  0  0  0  0  0
  1  2  1  0
  2  3  1  0
  3  4  1  0
  4  5  2  0
  5  6  1  0
  6  7  2  0
  6  8  1  0
  8  9  2  0
  9 10  1  0
  9 11  1  0
 11 12  1  0
 11 13  2  0
 13 14  1  0
 13 15  1  0
 15 16  1  0
 16 17  2  0
 16 18  2  0
 16 19  1  0
 19 20  1  0
 20 21  1  0
 20 22  1  0
 20 23  1  0
 23 24  1  0
 23 25  1  0
 23 26  1  0
 26 27  1  0
 27 28  2  0
 27 29  1  0
 29 30  1  0
 29 31  1  0
 29 32  1  0
 26 33  1  0
 33 34  1  0
 33 35  1  0
 33 36  1  0
 36 37  1  0
 36 38  1  0
 15 39  2  0
 39 40  1  0
  4 41  1  0
 41 42  1  0
 41 43  2  0
 43 44  1  0
 43 45  1  0
 45 46  1  0
 45  2  2  0
 39  8  1  0
 36 19  1  0
M  CHG  2   3  -1  42  -1
M  END
>  <UniqueID>  (22) 
21

>  <SMILES>  (22) 
CC(=O)N1CCN(S(=O)(=O)c2cccc(C(=O)/N=c3/[n-]cccc3[O-])c2)CC1

>  <Energy>  (22) 
64.48820488905172

>  <Genealogy>  (22) 
CC(=O)N1CCN(S(=O)(=O)c2cccc(C(=O)N=c3[n-]cccc3[O-])c2)CC1 (protonated)
CC(=O)N1CCN(S(=O)(=O)c2cccc(C(=O)/N=c3/[n-]cccc3[O-])c2)CC1 (cis-trans isomerization)
CC(=O)N1CCN(S(=O)(=O)c2cccc(C(=O)/N=c3/[n-]cccc3[O-])c2)CC1 (3D coordinates assigned)
CC(=O)N1CCN(S(=O)(=O)c2cccc(C(=O)/N=c3/[n-]cccc3[O-])c2)CC1 (nonaromatic ring conformer: 64.48820488905172 kcal/mol)

>  <smiles>  (22) 
CC(=O)N1CCN(S(=O)(=O)c2cccc(C(=O)N=c3[nH]cccc3O)c2)CC1

>  <score_type>  (22) 
oracle

>  <origin>  (22) 
adg

>  <m_score__min__energy>  (22) 
-15.15

>  <m_primary>  (22) 
energy

$$$$
22:0
     RDKit          3D

 49 51  0  0  0  0  0  0  0  0999 V2000
   56.6170   23.7250   47.5820 C   0  0  0  0  0  0  0  0  0  0  0  0
   57.7370   24.5920   47.4360 O   0  0  0  0  0  0  0  0  0  0  0  0
   57.7440   25.6750   46.5530 C   0  0  0  0  0  0  0  0  0  0  0  0
   57.7790   25.4390   45.1780 C   0  0  0  0  0  0  0  0  0  0  0  0
   57.7850   26.5200   44.2950 C   0  0  0  0  0  0  0  0  0  0  0  0
   57.7390   27.8310   44.7860 C   0  0  0  0  0  0  0  0  0  0  0  0
   57.7680   28.9370   43.8670 N   0  0  0  0  0  0  0  0  0  0  0  0
   56.7900   29.9910   43.8470 C   0  0  0  0  0  0  0  0  0  0  0  0
   55.7180   29.8760   44.5000 O   0  0  0  0  0  0  0  0  0  0  0  0
   57.0320   31.2100   43.0480 C   0  0  0  0  0  0  0  0  0  0  0  0
   56.6400   31.2530   41.8530 O   0  0  0  0  0  0  0  0  0  0  0  0
   57.7700   32.3230   43.5720 N   0  0  0  0  0  0  0  0  0  0  0  0
   58.1120   32.5400   44.9480 C   0  0  0  0  0  0  0  0  0  0  0  0
   57.7620   33.7260   45.6160 C   0  0  0  0  0  0  0  0  0  0  0  0
   58.1330   33.9190   46.9490 C   0  0  0  0  0  0  0  0  0  0  0  0
   58.8770   32.9410   47.6300 C   0  0  0  0  0  0  0  0  0  0  0  0
   59.2440   33.1310   49.0110 N   0  0  0  0  0  0  0  0  0  0  0  0
   60.2850   34.1000   49.3720 C   0  0  0  0  0  0  0  0  0  0  0  0
   60.8530   33.7930   50.7690 C   0  0  0  0  0  0  0  0  0  0  0  0
   60.9680   32.3380   51.0090 N   0  0  0  0  0  0  0  0  0  0  0  0
   61.9940   31.7210   50.1510 C   0  0  0  0  0  0  0  0  0  0  0  0
   59.6680   31.6220   50.9160 C   0  0  0  0  0  0  0  0  0  0  0  0
   58.6050   32.3600   50.0820 C   0  0  0  0  0  0  0  0  0  0  0  0
   59.2370   31.7640   46.9540 C   0  0  0  0  0  0  0  0  0  0  0  0
   58.8670   31.5720   45.6190 C   0  0  0  0  0  0  0  0  0  0  0  0
   57.7270   28.0250   46.1780 C   0  0  0  0  0  0  0  0  0  0  0  0
   57.7250   26.9550   47.0170 N   0  0  0  0  0  0  0  0  0  0  0  0
   56.4127   23.5668   48.6512 H   0  0  0  0  0  0  0  0  0  0  0  0
   55.7368   24.1794   47.1038 H   0  0  0  0  0  0  0  0  0  0  0  0
   56.8363   22.7590   47.1038 H   0  0  0  0  0  0  0  0  0  0  0  0
   57.8017   24.4088   44.7930 H   0  0  0  0  0  0  0  0  0  0  0  0
   57.8260   26.3418   43.2103 H   0  0  0  0  0  0  0  0  0  0  0  0
   58.4850   28.9200   43.1070 H   0  0  0  0  0  0  0  0  0  0  0  0
   57.1937   34.5054   45.0872 H   0  0  0  0  0  0  0  0  0  0  0  0
   57.8405   34.8432   47.4690 H   0  0  0  0  0  0  0  0  0  0  0  0
   61.0978   34.0491   48.6325 H   0  0  0  0  0  0  0  0  0  0  0  0
   59.8422   35.1069   49.3837 H   0  0  0  0  0  0  0  0  0  0  0  0
   61.8509   34.2478   50.8552 H   0  0  0  0  0  0  0  0  0  0  0  0
   60.1623   34.2089   51.5173 H   0  0  0  0  0  0  0  0  0  0  0  0
   62.7671   31.2561   50.7804 H   0  0  0  0  0  0  0  0  0  0  0  0
   61.5277   30.9534   49.5159 H   0  0  0  0  0  0  0  0  0  0  0  0
   62.4534   32.4928   49.5159 H   0  0  0  0  0  0  0  0  0  0  0  0
   59.8468   30.6387   50.4565 H   0  0  0  0  0  0  0  0  0  0  0  0
   59.2728   31.5456   51.9397 H   0  0  0  0  0  0  0  0  0  0  0  0
   57.9166   31.6251   49.6391 H   0  0  0  0  0  0  0  0  0  0  0  0
   58.0507   33.0484   50.7369 H   0  0  0  0  0  0  0  0  0  0  0  0
   59.8139   30.9878   47.4780 H   0  0  0  0  0  0  0  0  0  0  0  0
   59.1713   30.6547   45.0936 H   0  0  0  0  0  0  0  0  0  0  0  0
   57.7192   29.0450   46.5897 H   0  0  0  0  0  0  0  0  0  0  0  0
  1  2  1  0
  2  3  1  0
  3  4  2  0
  4  5  1  0
  5  6  2  0
  6  7  1  0
  7  8  1  0
  8  9  2  0
  8 10  1  0
 10 11  2  0
 10 12  1  0
 12 13  1  0
 13 14  2  0
 14 15  1  0
 15 16  2  0
 16 17  1  0
 17 18  1  0
 18 19  1  0
 19 20  1  0
 20 21  1  0
 20 22  1  0
 22 23  1  0
 16 24  1  0
 24 25  2  0
  6 26  1  0
 26 27  2  0
 27  3  1  0
 25 13  1  0
 23 17  1  0
  1 28  1  0
  1 29  1  0
  1 30  1  0
  4 31  1  0
  5 32  1  0
  7 33  1  0
 14 34  1  0
 15 35  1  0
 18 36  1  0
 18 37  1  0
 19 38  1  0
 19 39  1  0
 21 40  1  0
 21 41  1  0
 21 42  1  0
 22 43  1  0
 22 44  1  0
 23 45  1  0
 23 46  1  0
 24 47  1  0
 25 48  1  0
 26 49  1  0
M  CHG  1  12  -1
M  END
>  <UniqueID>  (23) 
22

>  <SMILES>  (23) 
COc1ccc(NC(=O)C(=O)[N-]c2ccc(N3CCN(C)CC3)cc2)cn1

>  <Energy>  (23) 
68.51433476677586

>  <Genealogy>  (23) 
COc1ccc(NC(=O)C(=O)[N-]c2ccc(N3CCN(C)CC3)cc2)cn1 (protonated)
COc1ccc(NC(=O)C(=O)[N-]c2ccc(N3CCN(C)CC3)cc2)cn1 (3D coordinates assigned)
COc1ccc(NC(=O)C(=O)[N-]c2ccc(N3CCN(C)CC3)cc2)cn1 (nonaromatic ring conformer: 68.51433476677586 kcal/mol)

>  <smiles>  (23) 
COc1ccc(NC(=O)C(=O)Nc2ccc(N3CCN(C)CC3)cc2)cn1

>  <score_type>  (23) 
oracle

>  <origin>  (23) 
adg

>  <m_score__min__energy>  (23) 
-9.4100000000000001

>  <m_primary>  (23) 
energy

$$$$
23:0
     RDKit          3D

 63 66  0  0  0  0  0  0  0  0999 V2000
   54.6690   29.3630   45.6190 H   0  0  0  0  0  0  0  0  0  0  0  0
   55.1410   29.3260   44.6880 N   0  0  0  0  0  0  0  0  0  0  0  0
   56.5060   29.6960   44.5360 C   0  0  0  0  0  0  0  0  0  0  0  0
   56.8560   30.4030   43.5520 O   0  0  0  0  0  0  0  0  0  0  0  0
   57.4900   29.3250   45.5640 C   0  0  0  0  0  0  0  0  0  0  0  0
   57.4780   27.9850   45.9740 C   0  0  0  0  0  0  0  0  0  0  0  0
   56.8266   27.2653   45.4566 H   0  0  0  0  0  0  0  0  0  0  0  0
   58.2570   27.5640   46.9980 N   0  0  0  0  0  0  0  0  0  0  0  0
   59.0610   28.4140   47.6830 C   0  0  0  0  0  0  0  0  0  0  0  0
   59.8440   27.9200   48.7300 C   0  0  0  0  0  0  0  0  0  0  0  0
   59.8045   26.8511   48.9867 H   0  0  0  0  0  0  0  0  0  0  0  0
   60.6770   28.7790   49.4520 C   0  0  0  0  0  0  0  0  0  0  0  0
   61.2965   28.3793   50.2684 H   0  0  0  0  0  0  0  0  0  0  0  0
   60.7300   30.1490   49.1440 C   0  0  0  0  0  0  0  0  0  0  0  0
   61.5800   31.0690   49.9460 C   0  0  0  0  0  0  0  0  0  0  0  0
   60.9930   32.0160   50.8030 C   0  0  0  0  0  0  0  0  0  0  0  0
   59.8974   32.1006   50.8539 H   0  0  0  0  0  0  0  0  0  0  0  0
   61.7890   32.8500   51.5900 C   0  0  0  0  0  0  0  0  0  0  0  0
   61.3180   33.5961   52.2469 H   0  0  0  0  0  0  0  0  0  0  0  0
   63.1860   32.7410   51.5470 C   0  0  0  0  0  0  0  0  0  0  0  0
   63.9780   33.5530   52.3570 O   0  0  0  0  0  0  0  0  0  0  0  0
   64.9870   33.4620   52.3750 H   0  0  0  0  0  0  0  0  0  0  0  0
   63.7940   31.8130   50.6930 C   0  0  0  0  0  0  0  0  0  0  0  0
   65.1980   31.7320   50.6800 O   0  0  0  0  0  0  0  0  0  0  0  0
   66.0490   32.6710   50.0290 C   0  0  0  0  0  0  0  0  0  0  0  0
   66.5863   33.2638   50.7839 H   0  0  0  0  0  0  0  0  0  0  0  0
   66.7744   32.1340   49.4002 H   0  0  0  0  0  0  0  0  0  0  0  0
   65.4434   33.3402   49.4002 H   0  0  0  0  0  0  0  0  0  0  0  0
   62.9860   30.9810   49.8910 C   0  0  0  0  0  0  0  0  0  0  0  0
   63.4586   30.2542   49.2140 H   0  0  0  0  0  0  0  0  0  0  0  0
   59.9410   30.6420   48.0910 C   0  0  0  0  0  0  0  0  0  0  0  0
   59.9684   31.7152   47.8512 H   0  0  0  0  0  0  0  0  0  0  0  0
   59.1130   29.7820   47.3350 C   0  0  0  0  0  0  0  0  0  0  0  0
   58.3620   30.2470   46.2250 C   0  0  0  0  0  0  0  0  0  0  0  0
   58.5720   31.4790   45.8310 N   0  0  0  0  0  0  0  0  0  0  0  0
   57.6940   32.6410   45.6680 C   0  0  1  0  0  0  0  0  0  0  0  0
   56.7215   32.3080   45.2763 H   0  0  0  0  0  0  0  0  0  0  0  0
   57.4960   33.3100   47.0370 C   0  0  0  0  0  0  0  0  0  0  0  0
   57.0761   32.5692   47.7333 H   0  0  0  0  0  0  0  0  0  0  0  0
   56.8179   34.1643   46.8944 H   0  0  0  0  0  0  0  0  0  0  0  0
   58.8130   33.8540   47.6300 C   0  0  0  0  0  0  0  0  0  0  0  0
   59.3068   33.0387   48.1791 H   0  0  0  0  0  0  0  0  0  0  0  0
   58.5420   34.7010   48.2774 H   0  0  0  0  0  0  0  0  0  0  0  0
   59.8130   34.4040   46.5680 C   0  0  1  0  0  0  0  0  0  0  0  0
   60.2739   35.3022   47.0048 H   0  0  0  0  0  0  0  0  0  0  0  0
   60.9900   33.4240   46.2670 C   0  0  0  0  0  0  0  0  0  0  0  0
   60.5814   32.4989   45.8344 H   0  0  0  0  0  0  0  0  0  0  0  0
   61.6763   33.9193   45.5644 H   0  0  0  0  0  0  0  0  0  0  0  0
   61.7490   33.0860   47.4900 N   0  0  0  0  0  0  0  0  0  0  0  0
   61.7650   34.2190   48.4340 C   0  0  0  0  0  0  0  0  0  0  0  0
   61.7596   33.8369   49.4655 H   0  0  0  0  0  0  0  0  0  0  0  0
   62.6717   34.8199   48.2703 H   0  0  0  0  0  0  0  0  0  0  0  0
   60.8756   34.8452   48.2703 H   0  0  0  0  0  0  0  0  0  0  0  0
   63.1350   32.7280   47.1410 C   0  0  0  0  0  0  0  0  0  0  0  0
   63.7178   32.5775   48.0617 H   0  0  0  0  0  0  0  0  0  0  0  0
   63.1364   31.8000   46.5504 H   0  0  0  0  0  0  0  0  0  0  0  0
   63.5856   33.5392   46.5504 H   0  0  0  0  0  0  0  0  0  0  0  0
   59.0730   34.8130   45.2780 C   0  0  0  0  0  0  0  0  0  0  0  0
   59.8129   35.1741   44.5485 H   0  0  0  0  0  0  0  0  0  0  0  0
   58.3480   35.5952   45.5473 H   0  0  0  0  0  0  0  0  0  0  0  0
   58.2830   33.6480   44.6430 C   0  0  0  0  0  0  0  0  0  0  0  0
   58.9591   33.0994   43.9708 H   0  0  0  0  0  0  0  0  0  0  0  0
   57.4282   34.0974   44.1164 H   0  0  0  0  0  0  0  0  0  0  0  0
  1  2  1  0
  2  3  1  0
  3  4  2  0
  3  5  1  0
  5  6  2  0
  6  7  1  0
  6  8  1  0
  8  9  1  0
  9 10  2  0
 10 11  1  0
 10 12  1  0
 12 13  1  0
 12 14  2  0
 14 15  1  0
 15 16  2  0
 16 17  1  0
 16 18  1  0
 18 19  1  0
 18 20  2  0
 20 21  1  0
 21 22  1  0
 20 23  1  0
 23 24  1  0
 24 25  1  0
 25 26  1  0
 25 27  1  0
 25 28  1  0
 23 29  2  0
 29 30  1  0
 14 31  1  0
 31 32  1  0
 31 33  2  0
 33 34  1  0
 34 35  2  0
 35 36  1  0
 36 37  1  6
 36 38  1  0
 38 39  1  0
 38 40  1  0
 38 41  1  0
 41 42  1  0
 41 43  1  0
 41 44  1  0
 44 45  1  1
 44 46  1  0
 46 47  1  0
 46 48  1  0
 46 49  1  0
 49 50  1  0
 50 51  1  0
 50 52  1  0
 50 53  1  0
 49 54  1  0
 54 55  1  0
 54 56  1  0
 54 57  1  0
 44 58  1  0
 58 59  1  0
 58 60  1  0
 58 61  1  0
 61 62  1  0
 61 63  1  0
 34  5  1  0
 61 36  1  0
 33  9  1  0
 29 15  1  0
M  CHG  2   2  -1   8  -1
M  END
>  <UniqueID>  (24) 
23

>  <SMILES>  (24) 
COc1cc(-c2ccc3[n-]cc(C([NH-])=O)/c(=N\C4CCC(CN(C)C)CC4)c3c2)ccc1O

>  <Energy>  (24) 
98.50174307893421

>  <Genealogy>  (24) 
COc1cc(-c2ccc3[n-]cc(C([NH-])=O)c(=NC4CCC(CN(C)C)CC4)c3c2)ccc1O (protonated)
COc1cc(-c2ccc3[n-]cc(C([NH-])=O)/c(=N\C4CCC(CN(C)C)CC4)c3c2)ccc1O (cis-trans isomerization)
COc1cc(-c2ccc3[n-]cc(C([NH-])=O)/c(=N\C4CCC(CN(C)C)CC4)c3c2)ccc1O (3D coordinates assigned)
COc1cc(-c2ccc3[n-]cc(C([NH-])=O)/c(=N\C4CCC(CN(C)C)CC4)c3c2)ccc1O (nonaromatic ring conformer: 98.50174307893421 kcal/mol)

>  <smiles>  (24) 
COc1cc(-c2ccc3[nH]cc(C(N)=O)c(=NC4CCC(CN(C)C)CC4)c3c2)ccc1O

>  <score_type>  (24) 
oracle

>  <origin>  (24) 
adg

>  <m_score__min__energy>  (24) 
-12.69

>  <m_primary>  (24) 
energy

$$$$
24:0
     RDKit          3D

 48 49  0  0  0  0  0  0  0  0999 V2000
   57.0810   23.6330   47.1290 C   0  0  0  0  0  0  0  0  0  0  0  0
   56.3640   24.8560   47.4760 N   0  0  0  0  0  0  0  0  0  0  0  0
   56.4880   26.0150   46.1840 S   0  0  0  0  0  0  0  0  0  0  0  0
   56.8390   25.2720   44.9260 O   0  0  0  0  0  0  0  0  0  0  0  0
   55.1670   26.7100   45.9970 O   0  0  0  0  0  0  0  0  0  0  0  0
   57.7520   27.2140   46.5270 C   0  0  0  0  0  0  0  0  0  0  0  0
   58.7580   26.8860   47.4530 C   0  0  0  0  0  0  0  0  0  0  0  0
   59.7640   27.7990   47.7690 C   0  0  0  0  0  0  0  0  0  0  0  0
   59.7850   29.0520   47.1620 C   0  0  0  0  0  0  0  0  0  0  0  0
   58.8050   29.3940   46.2320 C   0  0  0  0  0  0  0  0  0  0  0  0
   57.7780   28.4900   45.9010 C   0  0  0  0  0  0  0  0  0  0  0  0
   56.7890   28.9120   44.8360 C   0  0  0  0  0  0  0  0  0  0  0  0
   57.2290   30.2230   44.1780 C   0  0  0  0  0  0  0  0  0  0  0  0
   56.6070   31.3590   44.8500 N   0  0  0  0  0  0  0  0  0  0  0  0
   57.2840   32.5570   45.2530 C   0  0  0  0  0  0  0  0  0  0  0  0
   57.1310   32.9730   46.4320 O   0  0  0  0  0  0  0  0  0  0  0  0
   58.1250   33.3600   44.2990 C   0  0  0  0  0  0  0  0  0  0  0  0
   59.4320   33.6500   44.8830 N   0  0  0  0  0  0  0  0  0  0  0  0
   59.6660   34.3710   46.1010 C   0  0  0  0  0  0  0  0  0  0  0  0
   58.9140   35.3410   46.3830 O   0  0  0  0  0  0  0  0  0  0  0  0
   60.7350   33.9970   47.0450 C   0  0  0  0  0  0  0  0  0  0  0  0
   61.9960   33.6190   46.5580 C   0  0  0  0  0  0  0  0  0  0  0  0
   63.0150   33.2620   47.4440 C   0  0  0  0  0  0  0  0  0  0  0  0
   62.7810   33.2590   48.8260 C   0  0  0  0  0  0  0  0  0  0  0  0
   64.0720   32.8270   49.9420 S   0  0  0  0  0  0  0  0  0  0  0  0
   63.8700   33.6960   51.4210 N   0  0  0  0  0  0  0  0  0  0  0  0
   64.0330   31.3510   50.2200 O   0  0  0  0  0  0  0  0  0  0  0  0
   65.4050   33.1670   49.3370 O   0  0  0  0  0  0  0  0  0  0  0  0
   61.5180   33.6200   49.3140 C   0  0  0  0  0  0  0  0  0  0  0  0
   60.4970   33.9780   48.4280 C   0  0  0  0  0  0  0  0  0  0  0  0
   57.3858   23.1131   48.0492 H   0  0  0  0  0  0  0  0  0  0  0  0
   56.4240   22.9779   46.5381 H   0  0  0  0  0  0  0  0  0  0  0  0
   57.9736   23.8863   46.5381 H   0  0  0  0  0  0  0  0  0  0  0  0
   58.7515   25.8969   47.9343 H   0  0  0  0  0  0  0  0  0  0  0  0
   60.5417   27.5289   48.4986 H   0  0  0  0  0  0  0  0  0  0  0  0
   60.5760   29.7727   47.4168 H   0  0  0  0  0  0  0  0  0  0  0  0
   58.8344   30.3826   45.7506 H   0  0  0  0  0  0  0  0  0  0  0  0
   56.7270   28.1260   44.0690 H   0  0  0  0  0  0  0  0  0  0  0  0
   55.8064   29.0646   45.3063 H   0  0  0  0  0  0  0  0  0  0  0  0
   58.3230   30.3147   44.2471 H   0  0  0  0  0  0  0  0  0  0  0  0
   56.9180   30.2165   43.1229 H   0  0  0  0  0  0  0  0  0  0  0  0
   58.2634   32.7878   43.3698 H   0  0  0  0  0  0  0  0  0  0  0  0
   57.6124   34.3103   44.0887 H   0  0  0  0  0  0  0  0  0  0  0  0
   62.1825   33.6039   45.4740 H   0  0  0  0  0  0  0  0  0  0  0  0
   64.0053   32.9820   47.0556 H   0  0  0  0  0  0  0  0  0  0  0  0
   63.2720   34.5260   51.2090 H   0  0  0  0  0  0  0  0  0  0  0  0
   61.3290   33.6218   50.3976 H   0  0  0  0  0  0  0  0  0  0  0  0
   59.5034   34.2458   48.8166 H   0  0  0  0  0  0  0  0  0  0  0  0
  1  2  1  0
  2  3  1  0
  3  4  2  0
  3  5  2  0
  3  6  1  0
  6  7  2  0
  7  8  1  0
  8  9  2  0
  9 10  1  0
 10 11  2  0
 11 12  1  0
 12 13  1  0
 13 14  1  0
 14 15  1  0
 15 16  2  0
 15 17  1  0
 17 18  1  0
 18 19  1  0
 19 20  2  0
 19 21  1  0
 21 22  2  0
 22 23  1  0
 23 24  2  0
 24 25  1  0
 25 26  1  0
 25 27  2  0
 25 28  2  0
 24 29  1  0
 29 30  2  0
 11  6  1  0
 30 21  1  0
  1 31  1  0
  1 32  1  0
  1 33  1  0
  7 34  1  0
  8 35  1  0
  9 36  1  0
 10 37  1  0
 12 38  1  0
 12 39  1  0
 13 40  1  0
 13 41  1  0
 17 42  1  0
 17 43  1  0
 22 44  1  0
 23 45  1  0
 26 46  1  0
 29 47  1  0
 30 48  1  0
M  CHG  4   2  -1  14  -1  18  -1  26  -1
M  END
>  <UniqueID>  (25) 
24

>  <SMILES>  (25) 
C[N-]S(=O)(=O)c1ccccc1CC[N-]C(=O)C[N-]C(=O)c1ccc(S([NH-])(=O)=O)cc1

>  <Energy>  (25) 
49.09243116205291

>  <Genealogy>  (25) 
C[N-]S(=O)(=O)c1ccccc1CC[N-]C(=O)C[N-]C(=O)c1ccc(S([NH-])(=O)=O)cc1 (protonated)
C[N-]S(=O)(=O)c1ccccc1CC[N-]C(=O)C[N-]C(=O)c1ccc(S([NH-])(=O)=O)cc1 (3D coordinates assigned)
C[N-]S(=O)(=O)c1ccccc1CC[N-]C(=O)C[N-]C(=O)c1ccc(S([NH-])(=O)=O)cc1 (optimized conformer: 49.09243116205291 kcal/mol)

>  <smiles>  (25) 
CNS(=O)(=O)c1ccccc1CCNC(=O)CNC(=O)c1ccc(S(N)(=O)=O)cc1

>  <score_type>  (25) 
oracle

>  <origin>  (25) 
adg

>  <m_score__min__energy>  (25) 
-14.539999999999999

>  <m_primary>  (25) 
energy

$$$$
25:0
     RDKit          3D

 39 41  0  0  0  0  0  0  0  0999 V2000
   63.5110   33.8050   47.8600 C   0  0  0  0  0  0  0  0  0  0  0  0
   61.9870   32.8900   47.9080 S   0  0  0  0  0  0  0  0  0  0  0  0
   61.7590   32.3900   49.3050 O   0  0  0  0  0  0  0  0  0  0  0  0
   62.0810   31.7300   46.9560 O   0  0  0  0  0  0  0  0  0  0  0  0
   60.6880   33.9350   47.4360 N   0  0  0  0  0  0  0  0  0  0  0  0
   59.6940   33.6350   46.4440 C   0  0  0  0  0  0  0  0  0  0  0  0
   59.3060   34.5850   45.4850 C   0  0  0  0  0  0  0  0  0  0  0  0
   58.3330   34.2740   44.5370 C   0  0  0  0  0  0  0  0  0  0  0  0
   57.7410   33.0130   44.5270 C   0  0  0  0  0  0  0  0  0  0  0  0
   58.1180   32.0390   45.4650 C   0  0  0  0  0  0  0  0  0  0  0  0
   57.4740   30.7050   45.4070 C   0  0  0  0  0  0  0  0  0  0  0  0
   58.0030   29.5070   45.8480 C   0  0  0  0  0  0  0  0  0  0  0  0
   57.0420   28.5690   45.5180 C   0  0  0  0  0  0  0  0  0  0  0  0
   57.1100   27.1030   45.7350 C   0  0  0  0  0  0  0  0  0  0  0  0
   55.9520   26.3480   45.9990 C   0  0  0  0  0  0  0  0  0  0  0  0
   56.0370   24.9700   46.2250 C   0  0  0  0  0  0  0  0  0  0  0  0
   57.2790   24.3140   46.1880 C   0  0  0  0  0  0  0  0  0  0  0  0
   57.3670   22.8570   46.4430 C   0  0  0  0  0  0  0  0  0  0  0  0
   57.3880   22.3540   47.7780 N   0  0  0  0  0  0  0  0  0  0  0  0
   57.4160   22.0450   45.4790 O   0  0  0  0  0  0  0  0  0  0  0  0
   58.4350   25.0660   45.9150 C   0  0  0  0  0  0  0  0  0  0  0  0
   58.3510   26.4430   45.6910 C   0  0  0  0  0  0  0  0  0  0  0  0
   56.0090   29.1870   44.9120 N   0  0  0  0  0  0  0  0  0  0  0  0
   56.2730   30.4820   44.8390 N   0  0  0  0  0  0  0  0  0  0  0  0
   59.0900   32.3580   46.4390 C   0  0  0  0  0  0  0  0  0  0  0  0
   59.4320   31.4130   47.4120 O   0  0  0  0  0  0  0  0  0  0  0  0
   63.8492   34.0081   48.8868 H   0  0  0  0  0  0  0  0  0  0  0  0
   64.2756   33.2164   47.3317 H   0  0  0  0  0  0  0  0  0  0  0  0
   63.3509   34.7565   47.3317 H   0  0  0  0  0  0  0  0  0  0  0  0
   59.7731   35.5809   45.4822 H   0  0  0  0  0  0  0  0  0  0  0  0
   58.0314   35.0269   43.7940 H   0  0  0  0  0  0  0  0  0  0  0  0
   56.9711   32.7784   43.7772 H   0  0  0  0  0  0  0  0  0  0  0  0
   58.9683   29.3380   46.3476 H   0  0  0  0  0  0  0  0  0  0  0  0
   54.9715   26.8457   46.0279 H   0  0  0  0  0  0  0  0  0  0  0  0
   55.1229   24.3947   46.4336 H   0  0  0  0  0  0  0  0  0  0  0  0
   57.6610   22.9660   48.5780 H   0  0  0  0  0  0  0  0  0  0  0  0
   59.4142   24.5663   45.8774 H   0  0  0  0  0  0  0  0  0  0  0  0
   59.2652   27.0165   45.4781 H   0  0  0  0  0  0  0  0  0  0  0  0
   60.2100   31.5390   48.0470 H   0  0  0  0  0  0  0  0  0  0  0  0
  1  2  1  0
  2  3  2  0
  2  4  2  0
  2  5  1  0
  5  6  1  0
  6  7  2  0
  7  8  1  0
  8  9  2  0
  9 10  1  0
 10 11  1  0
 11 12  2  0
 12 13  1  0
 13 14  1  0
 14 15  2  0
 15 16  1  0
 16 17  2  0
 17 18  1  0
 18 19  1  0
 18 20  2  0
 17 21  1  0
 21 22  2  0
 13 23  2  0
 23 24  1  0
 10 25  2  0
 25 26  1  0
 25  6  1  0
 24 11  1  0
 22 14  1  0
  1 27  1  0
  1 28  1  0
  1 29  1  0
  7 30  1  0
  8 31  1  0
  9 32  1  0
 12 33  1  0
 15 34  1  0
 16 35  1  0
 19 36  1  0
 21 37  1  0
 22 38  1  0
 26 39  1  0
M  CHG  3   5  -1  19  -1  24  -1
M  END
>  <UniqueID>  (26) 
25

>  <SMILES>  (26) 
CS(=O)(=O)[N-]c1cccc(-c2cc(-c3ccc(C([NH-])=O)cc3)n[n-]2)c1O

>  <Energy>  (26) 
76.4846970436931

>  <Genealogy>  (26) 
CS(=O)(=O)[N-]c1cccc(-c2cc(-c3ccc(C([NH-])=O)cc3)n[n-]2)c1O (protonated)
CS(=O)(=O)[N-]c1cccc(-c2cc(-c3ccc(C([NH-])=O)cc3)n[n-]2)c1O (3D coordinates assigned)
CS(=O)(=O)[N-]c1cccc(-c2cc(-c3ccc(C([NH-])=O)cc3)n[n-]2)c1O (optimized conformer: 76.4846970436931 kcal/mol)

>  <smiles>  (26) 
CS(=O)(=O)Nc1cccc(-c2cc(-c3ccc(C(N)=O)cc3)n[nH]2)c1O

>  <score_type>  (26) 
oracle

>  <origin>  (26) 
adg

>  <m_score__min__energy>  (26) 
-13.529999999999999

>  <m_primary>  (26) 
energy

$$$$
26:0
     RDKit          3D

 57 59  0  0  0  0  0  0  0  0999 V2000
   56.8740   29.7360   43.7810 C   0  0  0  0  0  0  0  0  0  0  0  0
   56.6370   30.4570   44.9710 O   0  0  0  0  0  0  0  0  0  0  0  0
   57.8620   30.6840   45.6350 C   0  0  0  0  0  0  0  0  0  0  0  0
   58.2270   32.1390   45.5030 C   0  0  0  0  0  0  0  0  0  0  0  0
   57.4710   32.9850   44.6730 C   0  0  0  0  0  0  0  0  0  0  0  0
   57.8000   34.3380   44.5550 C   0  0  0  0  0  0  0  0  0  0  0  0
   58.8840   34.8580   45.2610 C   0  0  0  0  0  0  0  0  0  0  0  0
   59.6350   34.0340   46.1000 C   0  0  0  0  0  0  0  0  0  0  0  0
   59.3000   32.6730   46.2470 C   0  0  0  0  0  0  0  0  0  0  0  0
   60.0360   31.8230   47.0900 O   0  0  0  0  0  0  0  0  0  0  0  0
   61.2530   32.1410   47.7120 C   0  0  0  0  0  0  0  0  0  0  0  0
   62.4750   31.6660   47.1990 C   0  0  0  0  0  0  0  0  0  0  0  0
   63.6780   31.9710   47.8390 C   0  0  0  0  0  0  0  0  0  0  0  0
   63.6750   32.7570   48.9920 C   0  0  0  0  0  0  0  0  0  0  0  0
   62.4720   33.2600   49.4950 C   0  0  0  0  0  0  0  0  0  0  0  0
   61.2570   32.9830   48.8450 C   0  0  0  0  0  0  0  0  0  0  0  0
   59.7450   33.6340   49.5010 S   0  0  0  0  0  0  0  0  0  0  0  0
   59.8700   33.8550   50.9870 O   0  0  0  0  0  0  0  0  0  0  0  0
   59.4600   34.9550   48.8370 O   0  0  0  0  0  0  0  0  0  0  0  0
   58.4040   32.5610   49.2210 N   0  0  0  0  0  0  0  0  0  0  0  0
   58.1640   31.7210   50.3990 C   0  0  0  0  0  0  0  0  0  0  0  0
   58.6160   30.2780   50.1360 C   0  0  0  0  0  0  0  0  0  0  0  0
   58.6020   29.9590   48.7040 N   0  0  0  0  0  0  0  0  0  0  0  0
   59.0770   28.7230   48.1340 C   0  0  0  0  0  0  0  0  0  0  0  0
   58.2390   28.0330   47.2450 C   0  0  0  0  0  0  0  0  0  0  0  0
   58.6630   26.8500   46.6390 C   0  0  0  0  0  0  0  0  0  0  0  0
   59.9250   26.3340   46.9250 C   0  0  0  0  0  0  0  0  0  0  0  0
   60.7610   26.9890   47.8310 C   0  0  0  0  0  0  0  0  0  0  0  0
   60.3440   28.1820   48.4570 C   0  0  0  0  0  0  0  0  0  0  0  0
   61.1560   28.8360   49.3980 O   0  0  0  0  0  0  0  0  0  0  0  0
   61.3130   28.4320   50.7530 C   0  0  0  0  0  0  0  0  0  0  0  0
   57.2086   28.7180   44.0295 H   0  0  0  0  0  0  0  0  0  0  0  0
   55.9458   29.6836   43.1930 H   0  0  0  0  0  0  0  0  0  0  0  0
   57.6523   30.2445   43.1930 H   0  0  0  0  0  0  0  0  0  0  0  0
   57.7588   30.4244   46.6989 H   0  0  0  0  0  0  0  0  0  0  0  0
   58.6496   30.0604   45.1868 H   0  0  0  0  0  0  0  0  0  0  0  0
   56.6154   32.5795   44.1131 H   0  0  0  0  0  0  0  0  0  0  0  0
   57.2029   34.9937   43.9042 H   0  0  0  0  0  0  0  0  0  0  0  0
   59.1479   35.9207   45.1563 H   0  0  0  0  0  0  0  0  0  0  0  0
   60.4929   34.4488   46.6495 H   0  0  0  0  0  0  0  0  0  0  0  0
   62.4822   31.0502   46.2875 H   0  0  0  0  0  0  0  0  0  0  0  0
   64.6279   31.5917   47.4343 H   0  0  0  0  0  0  0  0  0  0  0  0
   64.6213   32.9811   49.5060 H   0  0  0  0  0  0  0  0  0  0  0  0
   62.4761   33.8768   50.4058 H   0  0  0  0  0  0  0  0  0  0  0  0
   58.6410   31.9500   48.4060 H   0  0  0  0  0  0  0  0  0  0  0  0
   58.7273   32.1262   51.2525 H   0  0  0  0  0  0  0  0  0  0  0  0
   57.0864   31.7199   50.6196 H   0  0  0  0  0  0  0  0  0  0  0  0
   59.6385   30.1488   50.5203 H   0  0  0  0  0  0  0  0  0  0  0  0
   57.9155   29.6002   50.6458 H   0  0  0  0  0  0  0  0  0  0  0  0
   58.4160   30.7520   48.0490 H   0  0  0  0  0  0  0  0  0  0  0  0
   57.2370   28.4290   47.0234 H   0  0  0  0  0  0  0  0  0  0  0  0
   58.0007   26.3246   45.9352 H   0  0  0  0  0  0  0  0  0  0  0  0
   60.2634   25.4086   46.4360 H   0  0  0  0  0  0  0  0  0  0  0  0
   61.7529   26.5713   48.0585 H   0  0  0  0  0  0  0  0  0  0  0  0
   60.9957   29.2486   51.4182 H   0  0  0  0  0  0  0  0  0  0  0  0
   60.6952   27.5422   50.9442 H   0  0  0  0  0  0  0  0  0  0  0  0
   62.3695   28.1929   50.9442 H   0  0  0  0  0  0  0  0  0  0  0  0
  1  2  1  0
  2  3  1  0
  3  4  1  0
  4  5  2  0
  5  6  1  0
  6  7  2  0
  7  8  1  0
  8  9  2  0
  9 10  1  0
 10 11  1  0
 11 12  2  0
 12 13  1  0
 13 14  2  0
 14 15  1  0
 15 16  2  0
 16 17  1  0
 17 18  2  0
 17 19  2  0
 17 20  1  0
 20 21  1  0
 21 22  1  0
 22 23  1  0
 23 24  1  0
 24 25  2  0
 25 26  1  0
 26 27  2  0
 27 28  1  0
 28 29  2  0
 29 30  1  0
 30 31  1  0
  9  4  1  0
 16 11  1  0
 29 24  1  0
  1 32  1  0
  1 33  1  0
  1 34  1  0
  3 35  1  0
  3 36  1  0
  5 37  1  0
  6 38  1  0
  7 39  1  0
  8 40  1  0
 12 41  1  0
 13 42  1  0
 14 43  1  0
 15 44  1  0
 20 45  1  0
 21 46  1  0
 21 47  1  0
 22 48  1  0
 22 49  1  0
 23 50  1  0
 25 51  1  0
 26 52  1  0
 27 53  1  0
 28 54  1  0
 31 55  1  0
 31 56  1  0
 31 57  1  0
M  END
>  <UniqueID>  (27) 
26

>  <SMILES>  (27) 
COCc1ccccc1Oc1ccccc1S(=O)(=O)NCCNc1ccccc1OC

>  <Energy>  (27) 
64.89084879892297

>  <Genealogy>  (27) 
COCc1ccccc1Oc1ccccc1S(=O)(=O)NCCNc1ccccc1OC (3D coordinates assigned)
COCc1ccccc1Oc1ccccc1S(=O)(=O)NCCNc1ccccc1OC (optimized conformer: 64.89084879892297 kcal/mol)

>  <smiles>  (27) 
COCc1ccccc1Oc1ccccc1S(=O)(=O)NCCNc1ccccc1OC

>  <score_type>  (27) 
oracle

>  <origin>  (27) 
adg

>  <m_score__min__energy>  (27) 
-7.4000000000000004

>  <m_primary>  (27) 
energy

$$$$
27:0
     RDKit          3D

 46 49  0  0  0  0  0  0  0  0999 V2000
   63.4100   33.8420   49.0680 C   0  0  0  0  0  0  0  0  0  0  0  0
   62.3760   32.7920   49.1240 N   0  0  0  0  0  0  0  0  0  0  0  0
   62.2480   31.9090   48.0870 C   0  0  0  0  0  0  0  0  0  0  0  0
   63.0010   32.0010   47.0780 O   0  0  0  0  0  0  0  0  0  0  0  0
   61.2820   30.8970   48.1410 C   0  0  0  0  0  0  0  0  0  0  0  0
   61.1080   29.9870   47.0850 C   0  0  0  0  0  0  0  0  0  0  0  0
   60.1330   28.9850   47.1610 C   0  0  0  0  0  0  0  0  0  0  0  0
   59.9410   28.0200   46.0510 C   0  0  0  0  0  0  0  0  0  0  0  0
   60.7630   27.0750   45.8940 O   0  0  0  0  0  0  0  0  0  0  0  0
   58.8220   28.1670   45.1600 N   0  0  0  0  0  0  0  0  0  0  0  0
   58.1990   29.2720   44.8820 C   0  0  0  0  0  0  0  0  0  0  0  0
   57.1880   29.3750   43.9870 N   0  0  0  0  0  0  0  0  0  0  0  0
   56.7240   30.6500   43.9050 C   0  0  0  0  0  0  0  0  0  0  0  0
   57.3780   31.5610   44.7290 C   0  0  0  0  0  0  0  0  0  0  0  0
   57.0240   33.0050   44.8920 C   0  0  0  0  0  0  0  0  0  0  0  0
   58.0460   33.6920   45.7560 C   0  0  0  0  0  0  0  0  0  0  0  0
   58.9790   34.5740   45.1830 C   0  0  0  0  0  0  0  0  0  0  0  0
   59.9510   35.1840   45.9810 C   0  0  0  0  0  0  0  0  0  0  0  0
   60.0060   34.9120   47.3510 C   0  0  0  0  0  0  0  0  0  0  0  0
   59.0900   34.0260   47.9250 C   0  0  0  0  0  0  0  0  0  0  0  0
   59.1500   33.7560   49.2530 F   0  0  0  0  0  0  0  0  0  0  0  0
   58.1160   33.4140   47.1300 C   0  0  0  0  0  0  0  0  0  0  0  0
   58.5580   30.7430   45.6100 S   0  0  0  0  0  0  0  0  0  0  0  0
   59.3410   28.9170   48.3130 C   0  0  0  0  0  0  0  0  0  0  0  0
   59.5170   29.8010   49.3320 N   0  0  0  0  0  0  0  0  0  0  0  0
   60.4660   30.7930   49.2850 C   0  0  0  0  0  0  0  0  0  0  0  0
   60.6390   31.6750   50.3300 N   0  0  0  0  0  0  0  0  0  0  0  0
   59.8020   31.5650   51.5410 C   0  0  0  0  0  0  0  0  0  0  0  0
   61.5990   32.6580   50.2470 C   0  0  0  0  0  0  0  0  0  0  0  0
   61.7760   33.4480   51.2180 O   0  0  0  0  0  0  0  0  0  0  0  0
   63.6947   34.1311   50.0904 H   0  0  0  0  0  0  0  0  0  0  0  0
   64.2932   33.4588   48.5359 H   0  0  0  0  0  0  0  0  0  0  0  0
   63.0133   34.7192   48.5359 H   0  0  0  0  0  0  0  0  0  0  0  0
   61.7435   30.0623   46.1903 H   0  0  0  0  0  0  0  0  0  0  0  0
   55.8969   30.9389   43.2398 H   0  0  0  0  0  0  0  0  0  0  0  0
   56.9991   33.4876   43.9038 H   0  0  0  0  0  0  0  0  0  0  0  0
   56.0366   33.0825   45.3705 H   0  0  0  0  0  0  0  0  0  0  0  0
   58.9439   34.7845   44.1039 H   0  0  0  0  0  0  0  0  0  0  0  0
   60.6741   35.8795   45.5300 H   0  0  0  0  0  0  0  0  0  0  0  0
   60.7702   35.3953   47.9774 H   0  0  0  0  0  0  0  0  0  0  0  0
   57.4013   32.7114   47.5835 H   0  0  0  0  0  0  0  0  0  0  0  0
   58.5671   28.1396   48.3954 H   0  0  0  0  0  0  0  0  0  0  0  0
   58.8890   29.6820   50.1550 H   0  0  0  0  0  0  0  0  0  0  0  0
   60.4376   31.6485   52.4349 H   0  0  0  0  0  0  0  0  0  0  0  0
   59.0553   32.3727   51.5453 H   0  0  0  0  0  0  0  0  0  0  0  0
   59.2894   30.5918   51.5453 H   0  0  0  0  0  0  0  0  0  0  0  0
  1  2  1  0
  2  3  1  0
  3  4  2  0
  3  5  1  0
  5  6  2  0
  6  7  1  0
  7  8  1  0
  8  9  2  0
  8 10  1  0
 10 11  2  3
 11 12  1  0
 12 13  1  0
 13 14  2  0
 14 15  1  0
 15 16  1  0
 16 17  2  0
 17 18  1  0
 18 19  2  0
 19 20  1  0
 20 21  1  0
 20 22  2  0
 14 23  1  0
  7 24  2  0
 24 25  1  0
 25 26  2  0
 26 27  1  0
 27 28  1  0
 27 29  1  0
 29 30  2  0
 29  2  1  0
 26  5  1  0
 23 11  1  0
 22 16  1  0
  1 31  1  0
  1 32  1  0
  1 33  1  0
  6 34  1  0
 13 35  1  0
 15 36  1  0
 15 37  1  0
 17 38  1  0
 18 39  1  0
 19 40  1  0
 22 41  1  0
 24 42  1  0
 25 43  1  0
 28 44  1  0
 28 45  1  0
 28 46  1  0
M  CHG  2  12  -1  25   1
M  END
>  <UniqueID>  (28) 
27

>  <SMILES>  (28) 
Cn1c(=O)c2cc(C(=O)N=c3[n-]cc(Cc4cccc(F)c4)s3)c[nH+]c2n(C)c1=O

>  <Energy>  (28) 
96.04436552922482

>  <Genealogy>  (28) 
Cn1c(=O)c2cc(C(=O)N=c3[n-]cc(Cc4cccc(F)c4)s3)c[nH+]c2n(C)c1=O (protonated)
Cn1c(=O)c2cc(C(=O)N=c3[n-]cc(Cc4cccc(F)c4)s3)c[nH+]c2n(C)c1=O (3D coordinates assigned)
Cn1c(=O)c2cc(C(=O)N=c3[n-]cc(Cc4cccc(F)c4)s3)c[nH+]c2n(C)c1=O (optimized conformer: 96.04436552922482 kcal/mol)

>  <smiles>  (28) 
Cn1c(=O)c2cc(C(=O)N=c3[nH]cc(Cc4cccc(F)c4)s3)cnc2n(C)c1=O

>  <score_type>  (28) 
oracle

>  <origin>  (28) 
adg

>  <m_score__min__energy>  (28) 
-8.8100000000000005

>  <m_primary>  (28) 
energy

$$$$
28:0
     RDKit          3D

 48 50  0  0  0  0  0  0  0  0999 V2000
   59.9100   29.4790   51.3680 C   0  0  0  0  0  0  0  0  0  0  0  0
   60.4620   29.8490   50.0260 C   0  0  0  0  0  0  0  0  0  0  0  0
   61.6620   30.4530   49.8790 N   0  0  0  0  0  0  0  0  0  0  0  0
   61.7970   30.6200   48.5500 C   0  0  0  0  0  0  0  0  0  0  0  0
   60.6820   30.1190   47.9150 C   0  0  0  0  0  0  0  0  0  0  0  0
   60.4880   30.1060   46.4920 N   0  0  0  0  0  0  0  0  0  0  0  0
   60.7090   29.0840   45.8120 O   0  0  0  0  0  0  0  0  0  0  0  0
   60.0060   31.2300   45.8610 O   0  0  0  0  0  0  0  0  0  0  0  0
   59.8270   29.6350   48.8460 N   0  0  0  0  0  0  0  0  0  0  0  0
   58.5460   28.9450   48.6510 C   0  0  0  0  0  0  0  0  0  0  0  0
   58.6490   27.9080   47.5350 C   0  0  0  0  0  0  0  0  0  0  0  0
   57.6950   28.1940   46.5170 O   0  0  0  0  0  0  0  0  0  0  0  0
   57.6850   27.4860   45.3140 C   0  0  0  0  0  0  0  0  0  0  0  0
   58.0590   28.1450   44.1210 C   0  0  0  0  0  0  0  0  0  0  0  0
   58.3710   29.5540   44.1540 N   0  0  0  0  0  0  0  0  0  0  0  0
   57.1970   30.8190   43.9670 S   0  0  0  0  0  0  0  0  0  0  0  0
   55.8820   30.3570   44.5290 O   0  0  0  0  0  0  0  0  0  0  0  0
   57.0220   31.1180   42.5040 O   0  0  0  0  0  0  0  0  0  0  0  0
   57.7510   32.2780   44.7820 C   0  0  0  0  0  0  0  0  0  0  0  0
   58.5180   33.2200   44.0820 C   0  0  0  0  0  0  0  0  0  0  0  0
   58.9680   34.3760   44.7270 C   0  0  0  0  0  0  0  0  0  0  0  0
   58.6540   34.5960   46.0710 C   0  0  0  0  0  0  0  0  0  0  0  0
   57.8850   33.6620   46.7710 C   0  0  0  0  0  0  0  0  0  0  0  0
   57.4320   32.5050   46.1290 C   0  0  0  0  0  0  0  0  0  0  0  0
   58.1090   27.4120   42.9230 C   0  0  0  0  0  0  0  0  0  0  0  0
   57.7760   26.0590   42.9060 C   0  0  0  0  0  0  0  0  0  0  0  0
   57.3780   25.4180   44.0770 C   0  0  0  0  0  0  0  0  0  0  0  0
   57.3170   26.1200   45.2930 C   0  0  0  0  0  0  0  0  0  0  0  0
   56.8700   25.4130   46.5200 C   0  0  0  0  0  0  0  0  0  0  0  0
   57.7100   25.0320   47.3760 O   0  0  0  0  0  0  0  0  0  0  0  0
   55.5240   25.1390   46.7380 O   0  0  0  0  0  0  0  0  0  0  0  0
   60.5468   29.9059   52.1568 H   0  0  0  0  0  0  0  0  0  0  0  0
   58.8888   29.8757   51.4665 H   0  0  0  0  0  0  0  0  0  0  0  0
   59.8889   28.3836   51.4665 H   0  0  0  0  0  0  0  0  0  0  0  0
   62.6607   31.0831   48.0504 H   0  0  0  0  0  0  0  0  0  0  0  0
   58.2630   28.4402   49.5865 H   0  0  0  0  0  0  0  0  0  0  0  0
   57.7858   29.6888   48.3700 H   0  0  0  0  0  0  0  0  0  0  0  0
   59.6609   27.9351   47.1044 H   0  0  0  0  0  0  0  0  0  0  0  0
   58.4474   26.9092   47.9495 H   0  0  0  0  0  0  0  0  0  0  0  0
   59.3530   29.8630   44.3290 H   0  0  0  0  0  0  0  0  0  0  0  0
   58.7661   33.0494   43.0240 H   0  0  0  0  0  0  0  0  0  0  0  0
   59.5700   35.1134   44.1758 H   0  0  0  0  0  0  0  0  0  0  0  0
   59.0121   35.5042   46.5779 H   0  0  0  0  0  0  0  0  0  0  0  0
   57.6358   33.8372   47.8280 H   0  0  0  0  0  0  0  0  0  0  0  0
   56.8249   31.7723   46.6809 H   0  0  0  0  0  0  0  0  0  0  0  0
   58.4136   27.9105   41.9909 H   0  0  0  0  0  0  0  0  0  0  0  0
   57.8277   25.4944   41.9634 H   0  0  0  0  0  0  0  0  0  0  0  0
   57.1088   24.3518   44.0497 H   0  0  0  0  0  0  0  0  0  0  0  0
  1  2  1  0
  2  3  2  0
  3  4  1  0
  4  5  2  0
  5  6  1  0
  6  7  2  0
  6  8  1  0
  5  9  1  0
  9 10  1  0
 10 11  1  0
 11 12  1  0
 12 13  1  0
 13 14  1  0
 14 15  1  0
 15 16  1  0
 16 17  2  0
 16 18  2  0
 16 19  1  0
 19 20  2  0
 20 21  1  0
 21 22  2  0
 22 23  1  0
 23 24  2  0
 14 25  2  0
 25 26  1  0
 26 27  2  0
 27 28  1  0
 28 29  1  0
 29 30  2  0
 29 31  1  0
  9  2  1  0
 28 13  2  0
 24 19  1  0
  1 32  1  0
  1 33  1  0
  1 34  1  0
  4 35  1  0
 10 36  1  0
 10 37  1  0
 11 38  1  0
 11 39  1  0
 15 40  1  0
 20 41  1  0
 21 42  1  0
 22 43  1  0
 23 44  1  0
 24 45  1  0
 25 46  1  0
 26 47  1  0
 27 48  1  0
M  CHG  3   6   1   8  -1  31  -1
M  END
>  <UniqueID>  (29) 
28

>  <SMILES>  (29) 
Cc1ncc([N+](=O)[O-])n1CCOc1c(NS(=O)(=O)c2ccccc2)cccc1C(=O)[O-]

>  <Energy>  (29) 
89.5092537709078

>  <Genealogy>  (29) 
Cc1ncc([N+](=O)[O-])n1CCOc1c(NS(=O)(=O)c2ccccc2)cccc1C(=O)[O-] (protonated)
Cc1ncc([N+](=O)[O-])n1CCOc1c(NS(=O)(=O)c2ccccc2)cccc1C(=O)[O-] (3D coordinates assigned)
Cc1ncc([N+](=O)[O-])n1CCOc1c(NS(=O)(=O)c2ccccc2)cccc1C(=O)[O-] (optimized conformer: 89.5092537709078 kcal/mol)

>  <smiles>  (29) 
Cc1ncc([N+](=O)[O-])n1CCOc1c(NS(=O)(=O)c2ccccc2)cccc1C(=O)O

>  <score_type>  (29) 
oracle

>  <origin>  (29) 
adg

>  <m_score__min__energy>  (29) 
-12.300000000000001

>  <m_primary>  (29) 
energy

$$$$
29:0
     RDKit          3D

 51 54  0  0  0  0  0  0  0  0999 V2000
   58.7710   26.3030   44.8860 O   0  0  0  0  0  0  0  0  0  0  0  0
   57.6400   26.4150   45.4310 C   0  0  0  0  0  0  0  0  0  0  0  0
   57.2900   27.6410   46.0770 N   0  0  0  0  0  0  0  0  0  0  0  0
   58.2490   29.0730   45.9360 S   0  0  0  0  0  0  0  0  0  0  0  0
   57.3350   30.2480   45.7210 O   0  0  0  0  0  0  0  0  0  0  0  0
   59.1760   28.9580   44.7590 O   0  0  0  0  0  0  0  0  0  0  0  0
   59.1880   29.2980   47.4240 C   0  0  0  0  0  0  0  0  0  0  0  0
   58.8530   28.5290   48.5510 C   0  0  0  0  0  0  0  0  0  0  0  0
   59.5620   28.6660   49.7440 C   0  0  0  0  0  0  0  0  0  0  0  0
   60.6150   29.5730   49.8300 C   0  0  0  0  0  0  0  0  0  0  0  0
   60.9640   30.3450   48.7220 C   0  0  0  0  0  0  0  0  0  0  0  0
   60.2720   30.2110   47.5050 C   0  0  0  0  0  0  0  0  0  0  0  0
   60.6790   31.1020   46.3510 C   0  0  0  0  0  0  0  0  0  0  0  0
   59.9720   32.4310   46.3740 C   0  0  0  0  0  0  0  0  0  0  0  0
   58.6120   32.5350   46.3510 N   0  0  0  0  0  0  0  0  0  0  0  0
   58.2120   33.8210   46.3360 C   0  0  0  0  0  0  0  0  0  0  0  0
   57.0000   34.1620   46.3130 O   0  0  0  0  0  0  0  0  0  0  0  0
   59.5000   34.8950   46.3490 S   0  0  0  0  0  0  0  0  0  0  0  0
   60.6440   33.6590   46.3900 C   0  0  0  0  0  0  0  0  0  0  0  0
   62.1280   33.8790   46.4320 C   0  0  0  0  0  0  0  0  0  0  0  0
   62.6750   33.6500   47.8150 C   0  0  0  0  0  0  0  0  0  0  0  0
   63.9530   33.0960   47.9960 C   0  0  0  0  0  0  0  0  0  0  0  0
   64.4400   32.8500   49.2830 C   0  0  0  0  0  0  0  0  0  0  0  0
   63.6670   33.1690   50.4000 C   0  0  0  0  0  0  0  0  0  0  0  0
   64.1720   32.9270   51.6760 O   0  0  0  0  0  0  0  0  0  0  0  0
   62.3930   33.7240   50.2280 C   0  0  0  0  0  0  0  0  0  0  0  0
   61.8980   33.9600   48.9420 C   0  0  0  0  0  0  0  0  0  0  0  0
   56.6820   25.2840   45.4160 C   0  0  0  0  0  0  0  0  0  0  0  0
   57.1390   23.9900   45.0960 C   0  0  0  0  0  0  0  0  0  0  0  0
   56.2520   22.9110   45.0480 C   0  0  0  0  0  0  0  0  0  0  0  0
   54.8970   23.1040   45.3170 C   0  0  0  0  0  0  0  0  0  0  0  0
   54.0150   22.0280   45.2640 O   0  0  0  0  0  0  0  0  0  0  0  0
   54.4250   24.3770   45.6380 C   0  0  0  0  0  0  0  0  0  0  0  0
   55.3060   25.4650   45.6920 C   0  0  0  0  0  0  0  0  0  0  0  0
   54.7950   26.7160   46.0170 O   0  0  0  0  0  0  0  0  0  0  0  0
   58.0220   27.8107   48.4917 H   0  0  0  0  0  0  0  0  0  0  0  0
   59.2890   28.0567   50.6182 H   0  0  0  0  0  0  0  0  0  0  0  0
   61.1720   29.6808   50.7724 H   0  0  0  0  0  0  0  0  0  0  0  0
   61.7901   31.0670   48.8010 H   0  0  0  0  0  0  0  0  0  0  0  0
   61.7634   31.2779   46.4061 H   0  0  0  0  0  0  0  0  0  0  0  0
   60.4002   30.5903   45.4181 H   0  0  0  0  0  0  0  0  0  0  0  0
   62.6137   33.1810   45.7343 H   0  0  0  0  0  0  0  0  0  0  0  0
   62.3331   34.9210   46.1453 H   0  0  0  0  0  0  0  0  0  0  0  0
   64.5737   32.8545   47.1206 H   0  0  0  0  0  0  0  0  0  0  0  0
   65.4364   32.4032   49.4157 H   0  0  0  0  0  0  0  0  0  0  0  0
   64.1530   33.6400   52.3930 H   0  0  0  0  0  0  0  0  0  0  0  0
   61.7804   33.9748   51.1065 H   0  0  0  0  0  0  0  0  0  0  0  0
   60.8942   34.3909   48.8127 H   0  0  0  0  0  0  0  0  0  0  0  0
   58.2056   23.8273   44.8816 H   0  0  0  0  0  0  0  0  0  0  0  0
   56.6236   21.9065   44.7973 H   0  0  0  0  0  0  0  0  0  0  0  0
   53.3561   24.5272   45.8497 H   0  0  0  0  0  0  0  0  0  0  0  0
  1  2  2  0
  2  3  1  0
  3  4  1  0
  4  5  2  0
  4  6  2  0
  4  7  1  0
  7  8  2  0
  8  9  1  0
  9 10  2  0
 10 11  1  0
 11 12  2  0
 12 13  1  0
 13 14  1  0
 14 15  1  0
 15 16  1  0
 16 17  2  0
 16 18  1  0
 18 19  1  0
 19 20  1  0
 20 21  1  0
 21 22  2  0
 22 23  1  0
 23 24  2  0
 24 25  1  0
 24 26  1  0
 26 27  2  0
  2 28  1  0
 28 29  2  0
 29 30  1  0
 30 31  2  0
 31 32  1  0
 31 33  1  0
 33 34  2  0
 34 35  1  0
 12  7  1  0
 19 14  2  0
 27 21  1  0
 34 28  1  0
  8 36  1  0
  9 37  1  0
 10 38  1  0
 11 39  1  0
 13 40  1  0
 13 41  1  0
 20 42  1  0
 20 43  1  0
 22 44  1  0
 23 45  1  0
 25 46  1  0
 26 47  1  0
 27 48  1  0
 29 49  1  0
 30 50  1  0
 33 51  1  0
M  CHG  4   3  -1  15  -1  32  -1  35  -1
M  END
>  <UniqueID>  (30) 
29

>  <SMILES>  (30) 
O=C([N-]S(=O)(=O)c1ccccc1Cc1[n-]c(=O)sc1Cc1ccc(O)cc1)c1ccc([O-])cc1[O-]

>  <Energy>  (30) 
86.48949257253683

>  <Genealogy>  (30) 
O=C([N-]S(=O)(=O)c1ccccc1Cc1[n-]c(=O)sc1Cc1ccc(O)cc1)c1ccc([O-])cc1[O-] (protonated)
O=C([N-]S(=O)(=O)c1ccccc1Cc1[n-]c(=O)sc1Cc1ccc(O)cc1)c1ccc([O-])cc1[O-] (3D coordinates assigned)
O=C([N-]S(=O)(=O)c1ccccc1Cc1[n-]c(=O)sc1Cc1ccc(O)cc1)c1ccc([O-])cc1[O-] (optimized conformer: 86.48949257253683 kcal/mol)

>  <smiles>  (30) 
O=C(NS(=O)(=O)c1ccccc1Cc1[nH]c(=O)sc1Cc1ccc(O)cc1)c1ccc(O)cc1O

>  <score_type>  (30) 
oracle

>  <origin>  (30) 
adg

>  <m_score__min__energy>  (30) 
-18.129999999999999

>  <m_primary>  (30) 
energy

$$$$
30:0
     RDKit          3D

 48 49  0  0  0  0  0  0  0  0999 V2000
   51.9630   30.2250   55.0370 C   0  0  0  0  0  0  0  0  0  0  0  0
   50.9770   29.6300   54.0310 C   0  0  0  0  0  0  0  0  0  0  0  0
   51.6760   28.9220   52.8440 C   0  0  1  0  0  0  0  0  0  0  0  0
   50.9850   27.5840   52.5280 C   0  0  0  0  0  0  0  0  0  0  0  0
   51.6840   29.8310   51.5790 C   0  0  0  0  0  0  0  0  0  0  0  0
   52.2670   31.2440   51.8100 C   0  0  1  0  0  0  0  0  0  0  0  0
   53.6250   31.3490   51.2620 N   0  0  0  0  0  0  0  0  0  0  0  0
   54.7750   30.8570   51.9600 C   0  0  0  0  0  0  0  0  0  0  0  0
   54.6790   30.4880   53.1610 O   0  0  0  0  0  0  0  0  0  0  0  0
   56.0140   30.7260   51.2530 N   0  0  0  0  0  0  0  0  0  0  0  0
   57.2770   31.2830   51.6400 C   0  0  0  0  0  0  0  0  0  0  0  0
   57.9910   30.8100   52.7560 C   0  0  0  0  0  0  0  0  0  0  0  0
   59.2070   31.4020   53.1130 C   0  0  0  0  0  0  0  0  0  0  0  0
   59.7180   32.4640   52.3630 C   0  0  0  0  0  0  0  0  0  0  0  0
   59.0210   32.9420   51.2490 C   0  0  0  0  0  0  0  0  0  0  0  0
   59.5590   34.0180   50.5260 O   0  0  0  0  0  0  0  0  0  0  0  0
   60.1810   33.9230   49.2730 C   0  0  0  0  0  0  0  0  0  0  0  0
   61.5330   33.5520   49.1410 C   0  0  0  0  0  0  0  0  0  0  0  0
   62.1240   33.4850   47.8760 C   0  0  0  0  0  0  0  0  0  0  0  0
   61.3760   33.7990   46.7370 C   0  0  0  0  0  0  0  0  0  0  0  0
   60.0380   34.1860   46.8630 C   0  0  0  0  0  0  0  0  0  0  0  0
   59.4460   34.2530   48.1280 C   0  0  0  0  0  0  0  0  0  0  0  0
   57.7830   32.3670   50.9120 C   0  0  0  0  0  0  0  0  0  0  0  0
   51.3600   32.3120   51.2520 C   0  0  0  0  0  0  0  0  0  0  0  0
   50.8570   33.1960   51.9960 O   0  0  0  0  0  0  0  0  0  0  0  0
   51.0760   32.3280   49.8910 O   0  0  0  0  0  0  0  0  0  0  0  0
   51.6153   30.0152   56.0593 H   0  0  0  0  0  0  0  0  0  0  0  0
   52.9556   29.7750   54.8877 H   0  0  0  0  0  0  0  0  0  0  0  0
   52.0275   31.3129   54.8877 H   0  0  0  0  0  0  0  0  0  0  0  0
   50.3437   28.8972   54.5525 H   0  0  0  0  0  0  0  0  0  0  0  0
   50.3877   30.4615   53.6171 H   0  0  0  0  0  0  0  0  0  0  0  0
   52.7177   28.7229   53.1361 H   0  0  0  0  0  0  0  0  0  0  0  0
   50.7226   27.0759   53.4677 H   0  0  0  0  0  0  0  0  0  0  0  0
   50.0712   27.7719   51.9452 H   0  0  0  0  0  0  0  0  0  0  0  0
   51.6672   26.9477   51.9452 H   0  0  0  0  0  0  0  0  0  0  0  0
   52.2842   29.3342   50.8025 H   0  0  0  0  0  0  0  0  0  0  0  0
   50.6328   29.9698   51.2862 H   0  0  0  0  0  0  0  0  0  0  0  0
   52.3321   31.4075   52.8958 H   0  0  0  0  0  0  0  0  0  0  0  0
   53.7490   31.6050   50.2550 H   0  0  0  0  0  0  0  0  0  0  0  0
   57.5925   29.9734   53.3487 H   0  0  0  0  0  0  0  0  0  0  0  0
   59.7624   31.0303   53.9867 H   0  0  0  0  0  0  0  0  0  0  0  0
   60.6737   32.9267   52.6503 H   0  0  0  0  0  0  0  0  0  0  0  0
   62.1261   33.3141   50.0364 H   0  0  0  0  0  0  0  0  0  0  0  0
   63.1777   33.1852   47.7765 H   0  0  0  0  0  0  0  0  0  0  0  0
   61.8402   33.7416   45.7414 H   0  0  0  0  0  0  0  0  0  0  0  0
   59.4514   34.4376   45.9671 H   0  0  0  0  0  0  0  0  0  0  0  0
   58.3962   34.5670   48.2242 H   0  0  0  0  0  0  0  0  0  0  0  0
   57.2060   32.7727   50.0679 H   0  0  0  0  0  0  0  0  0  0  0  0
  1  2  1  0
  2  3  1  0
  3  4  1  0
  3  5  1  0
  5  6  1  0
  6  7  1  0
  7  8  1  0
  8  9  2  0
  8 10  1  0
 10 11  1  0
 11 12  2  0
 12 13  1  0
 13 14  2  0
 14 15  1  0
 15 16  1  0
 16 17  1  0
 17 18  2  0
 18 19  1  0
 19 20  2  0
 20 21  1  0
 21 22  2  0
 15 23  2  0
  6 24  1  0
 24 25  2  0
 24 26  1  0
 23 11  1  0
 22 17  1  0
  1 27  1  0
  1 28  1  0
  1 29  1  0
  2 30  1  0
  2 31  1  0
  3 32  1  1
  4 33  1  0
  4 34  1  0
  4 35  1  0
  5 36  1  0
  5 37  1  0
  6 38  1  1
  7 39  1  0
 12 40  1  0
 13 41  1  0
 14 42  1  0
 18 43  1  0
 19 44  1  0
 20 45  1  0
 21 46  1  0
 22 47  1  0
 23 48  1  0
M  CHG  2  10  -1  26  -1
M  END
>  <UniqueID>  (31) 
30

>  <SMILES>  (31) 
CC[C@@H](C)C[C@@H](NC(=O)[N-]c1cccc(Oc2ccccc2)c1)C(=O)[O-]

>  <Energy>  (31) 
52.41197070195812

>  <Genealogy>  (31) 
CCC(C)CC(NC(=O)[N-]c1cccc(Oc2ccccc2)c1)C(=O)[O-] (protonated)
CC[C@@H](C)C[C@@H](NC(=O)[N-]c1cccc(Oc2ccccc2)c1)C(=O)[O-] (chirality)
CC[C@@H](C)C[C@@H](NC(=O)[N-]c1cccc(Oc2ccccc2)c1)C(=O)[O-] (3D coordinates assigned)
CC[C@@H](C)C[C@@H](NC(=O)[N-]c1cccc(Oc2ccccc2)c1)C(=O)[O-] (optimized conformer: 52.41197070195812 kcal/mol)

>  <smiles>  (31) 
CCC(C)CC(NC(=O)Nc1cccc(Oc2ccccc2)c1)C(=O)O

>  <score_type>  (31) 
oracle

>  <origin>  (31) 
adg

>  <m_score__min__energy>  (31) 
-13.210000000000001

>  <m_primary>  (31) 
energy

$$$$
31:0
     RDKit          3D

 40 42  0  0  0  0  0  0  0  0999 V2000
   55.9410   29.7710   42.6320 C   0  0  0  0  0  0  0  0  0  0  0  0
   56.6670   30.5980   43.3890 C   0  0  0  0  0  0  0  0  0  0  0  0
   58.0920   30.2880   43.7550 C   0  0  0  0  0  0  0  0  0  0  0  0
   58.2370   30.1680   45.2080 N   0  0  0  0  0  0  0  0  0  0  0  0
   58.3710   29.0500   45.9530 C   0  0  0  0  0  0  0  0  0  0  0  0
   58.4550   27.6510   45.4170 C   0  0  0  0  0  0  0  0  0  0  0  0
   57.2100   26.8880   45.7400 C   0  0  0  0  0  0  0  0  0  0  0  0
   57.1980   25.6330   46.2240 N   0  0  0  0  0  0  0  0  0  0  0  0
   55.8820   25.3710   46.3790 C   0  0  0  0  0  0  0  0  0  0  0  0
   55.4570   24.2750   46.8260 O   0  0  0  0  0  0  0  0  0  0  0  0
   55.0570   26.3780   46.0210 N   0  0  0  0  0  0  0  0  0  0  0  0
   55.9130   27.3300   45.6200 C   0  0  0  0  0  0  0  0  0  0  0  0
   55.5180   28.5820   45.1680 O   0  0  0  0  0  0  0  0  0  0  0  0
   58.4430   29.3410   47.2660 N   0  0  0  0  0  0  0  0  0  0  0  0
   58.3380   30.6570   47.3790 N   0  0  0  0  0  0  0  0  0  0  0  0
   58.2130   31.1490   46.1330 C   0  0  0  0  0  0  0  0  0  0  0  0
   58.0180   32.9000   45.7800 S   0  0  0  0  0  0  0  0  0  0  0  0
   58.5280   33.4520   47.4430 C   0  0  0  0  0  0  0  0  0  0  0  0
   59.7350   34.3440   47.3500 C   0  0  0  0  0  0  0  0  0  0  0  0
   59.5900   35.4940   46.8540 O   0  0  0  0  0  0  0  0  0  0  0  0
   61.0560   33.9590   47.9070 C   0  0  0  0  0  0  0  0  0  0  0  0
   62.0490   33.3570   47.1110 C   0  0  0  0  0  0  0  0  0  0  0  0
   63.2790   32.9940   47.6680 C   0  0  0  0  0  0  0  0  0  0  0  0
   63.5310   33.2210   49.0230 C   0  0  0  0  0  0  0  0  0  0  0  0
   65.2100   32.7190   49.7830 Br  0  0  0  0  0  0  0  0  0  0  0  0
   62.5570   33.8260   49.8200 C   0  0  0  0  0  0  0  0  0  0  0  0
   61.3300   34.1990   49.2660 C   0  0  0  0  0  0  0  0  0  0  0  0
   54.9007   30.0256   42.3812 H   0  0  0  0  0  0  0  0  0  0  0  0
   56.3834   28.8354   42.2594 H   0  0  0  0  0  0  0  0  0  0  0  0
   56.2106   31.5299   43.7541 H   0  0  0  0  0  0  0  0  0  0  0  0
   58.3885   29.3399   43.2826 H   0  0  0  0  0  0  0  0  0  0  0  0
   58.7352   31.1071   43.4010 H   0  0  0  0  0  0  0  0  0  0  0  0
   58.5825   27.6892   44.3251 H   0  0  0  0  0  0  0  0  0  0  0  0
   59.3128   27.1437   45.8827 H   0  0  0  0  0  0  0  0  0  0  0  0
   57.7015   34.0075   47.9102 H   0  0  0  0  0  0  0  0  0  0  0  0
   58.7808   32.5705   48.0505 H   0  0  0  0  0  0  0  0  0  0  0  0
   61.8560   33.1711   46.0442 H   0  0  0  0  0  0  0  0  0  0  0  0
   64.0505   32.5283   47.0373 H   0  0  0  0  0  0  0  0  0  0  0  0
   62.7563   34.0092   50.8862 H   0  0  0  0  0  0  0  0  0  0  0  0
   60.5716   34.6845   49.8977 H   0  0  0  0  0  0  0  0  0  0  0  0
  1  2  2  0
  2  3  1  0
  3  4  1  0
  4  5  1  0
  5  6  1  0
  6  7  1  0
  7  8  1  0
  8  9  1  0
  9 10  2  0
  9 11  1  0
 11 12  1  0
 12 13  1  0
  5 14  2  0
 14 15  1  0
 15 16  2  0
 16 17  1  0
 17 18  1  0
 18 19  1  0
 19 20  2  0
 19 21  1  0
 21 22  2  0
 22 23  1  0
 23 24  2  0
 24 25  1  0
 24 26  1  0
 26 27  2  0
 16  4  1  0
 27 21  1  0
 12  7  2  0
  1 28  1  0
  1 29  1  0
  2 30  1  0
  3 31  1  0
  3 32  1  0
  6 33  1  0
  6 34  1  0
 18 35  1  0
 18 36  1  0
 22 37  1  0
 23 38  1  0
 26 39  1  0
 27 40  1  0
M  CHG  3   8  -1  11  -1  13  -1
M  END
>  <UniqueID>  (32) 
31

>  <SMILES>  (32) 
C=CCn1c(Cc2[n-]c(=O)[n-]c2[O-])nnc1SCC(=O)c1ccc(Br)cc1

>  <Energy>  (32) 
95.96510076053657

>  <Genealogy>  (32) 
C=CCn1c(Cc2[n-]c(=O)[n-]c2[O-])nnc1SCC(=O)c1ccc(Br)cc1 (protonated)
C=CCn1c(Cc2[n-]c(=O)[n-]c2[O-])nnc1SCC(=O)c1ccc(Br)cc1 (3D coordinates assigned)
C=CCn1c(Cc2[n-]c(=O)[n-]c2[O-])nnc1SCC(=O)c1ccc(Br)cc1 (optimized conformer: 95.96510076053657 kcal/mol)

>  <smiles>  (32) 
C=CCn1c(Cc2[nH]c(=O)[nH]c2O)nnc1SCC(=O)c1ccc(Br)cc1

>  <score_type>  (32) 
oracle

>  <origin>  (32) 
adg

>  <m_score__min__energy>  (32) 
-16.68

>  <m_primary>  (32) 
energy

$$$$
32:0
     RDKit          3D

 44 47  0  0  1  0  0  0  0  0999 V2000
   56.8640   26.7550   45.9850 C   0  0  0  0  0  0  0  0  0  0  0  0
   55.9500   27.7960   45.6220 O   0  0  0  0  0  0  0  0  0  0  0  0
   56.5350   28.9030   45.0170 C   0  0  0  0  0  0  0  0  0  0  0  0
   57.8520   29.2520   45.1810 C   0  0  0  0  0  0  0  0  0  0  0  0
   58.3790   30.3550   44.5610 C   0  0  0  0  0  0  0  0  0  0  0  0
   57.5970   31.1680   43.7390 C   0  0  0  0  0  0  0  0  0  0  0  0
   58.1970   32.3780   43.0690 C   0  0  0  0  0  0  0  0  0  0  0  0
   58.0430   33.4650   44.0110 N   0  0  0  0  0  0  0  0  0  0  0  0
   58.3560   33.3950   45.2500 C   0  0  0  0  0  0  0  0  0  0  0  0
   59.6750   33.4750   45.6220 C   0  0  0  0  0  0  0  0  0  0  0  0
   60.0690   33.3990   46.9660 C   0  0  0  0  0  0  0  0  0  0  0  0
   61.4750   33.4890   47.3020 C   0  0  0  0  0  0  0  0  0  0  0  0
   62.4130   33.7930   46.3680 N   0  0  0  0  0  0  0  0  0  0  0  0
   63.6380   33.8290   46.9040 C   0  0  0  0  0  0  0  0  0  0  0  0
   63.4920   33.5390   48.2240 C   0  0  0  0  0  0  0  0  0  0  0  0
   62.1560   33.3370   48.4290 N   0  0  0  0  0  0  0  0  0  0  0  0
   59.0510   33.2410   47.8690 C   0  0  0  0  0  0  0  0  0  0  0  0
   59.2320   33.1580   49.3090 C   0  0  0  0  0  0  0  0  0  0  0  0
   58.9940   32.0860   50.1600 C   0  0  0  0  0  0  0  0  0  0  0  0
   59.3590   32.5460   51.4090 C   0  0  0  0  0  0  0  0  0  0  0  0
   59.7850   33.7780   51.3580 O   0  0  0  0  0  0  0  0  0  0  0  0
   59.7280   34.1830   50.1290 C   0  0  0  0  0  0  0  0  0  0  0  0
   57.7180   33.1650   47.4360 C   0  0  0  0  0  0  0  0  0  0  0  0
   57.3780   33.2410   46.1430 N   0  0  0  0  0  0  0  0  0  0  0  0
   56.2680   30.8310   43.5630 C   0  0  0  0  0  0  0  0  0  0  0  0
   55.7310   29.7030   44.1980 C   0  0  0  0  0  0  0  0  0  0  0  0
   56.9246   26.6860   47.0812 H   0  0  0  0  0  0  0  0  0  0  0  0
   56.5098   25.7971   45.5763 H   0  0  0  0  0  0  0  0  0  0  0  0
   57.8597   26.9823   45.5763 H   0  0  0  0  0  0  0  0  0  0  0  0
   58.4975   28.6343   45.8227 H   0  0  0  0  0  0  0  0  0  0  0  0
   59.4393   30.6044   44.7143 H   0  0  0  0  0  0  0  0  0  0  0  0
   59.2617   32.2072   42.8514 H   0  0  0  0  0  0  0  0  0  0  0  0
   57.7026   32.5982   42.1113 H   0  0  0  0  0  0  0  0  0  0  0  0
   60.4435   33.6021   44.8453 H   0  0  0  0  0  0  0  0  0  0  0  0
   64.5792   34.0500   46.3794 H   0  0  0  0  0  0  0  0  0  0  0  0
   64.2909   33.4788   48.9778 H   0  0  0  0  0  0  0  0  0  0  0  0
   61.7880   33.0990   49.3470 H   0  0  0  0  0  0  0  0  0  0  0  0
   58.6021   31.0924   49.8970 H   0  0  0  0  0  0  0  0  0  0  0  0
   59.2984   31.9492   52.3310 H   0  0  0  0  0  0  0  0  0  0  0  0
   60.0247   35.1830   49.7796 H   0  0  0  0  0  0  0  0  0  0  0  0
   56.9236   33.0384   48.1862 H   0  0  0  0  0  0  0  0  0  0  0  0
   56.3800   33.1820   45.8440 H   0  0  0  0  0  0  0  0  0  0  0  0
   55.6275   31.4525   42.9200 H   0  0  0  0  0  0  0  0  0  0  0  0
   54.6717   29.4453   44.0517 H   0  0  0  0  0  0  0  0  0  0  0  0
  1  2  1  0
  2  3  1  0
  3  4  2  0
  4  5  1  0
  5  6  2  0
  6  7  1  0
  7  8  1  0
  8  9  2  0
  9 10  1  0
 10 11  2  0
 11 12  1  0
 12 13  2  0
 13 14  1  0
 14 15  2  0
 15 16  1  0
 11 17  1  0
 17 18  1  0
 18 19  1  0
 19 20  2  0
 20 21  1  0
 21 22  1  0
 17 23  2  0
 23 24  1  0
  6 25  1  0
 25 26  2  0
 26  3  1  0
 24  9  1  0
 16 12  1  0
 22 18  2  0
  1 27  1  0
  1 28  1  0
  1 29  1  0
  4 30  1  0
  5 31  1  0
  7 32  1  0
  7 33  1  0
 10 34  1  0
 14 35  1  0
 15 36  1  0
 16 37  1  0
 19 38  1  0
 20 39  1  0
 22 40  1  0
 23 41  1  0
 24 42  1  0
 25 43  1  0
 26 44  1  0
M  END
>  <smiles>  (33) 
COc1ccc(CN=c2cc(-c3ncc[nH]3)c(-c3ccoc3)c[nH]2)cc1

>  <score_type>  (33) 
oracle

>  <origin>  (33) 
adg

>  <m_score__min__energy>  (33) 
-7.3499999999999996

>  <m_primary>  (33) 
energy

$$$$
33:0
     RDKit          3D

 48 50  0  0  0  0  0  0  0  0999 V2000
   57.7200   27.3240   47.3650 C   0  0  0  0  0  0  0  0  0  0  0  0
   57.9650   27.4280   46.0490 C   0  0  0  0  0  0  0  0  0  0  0  0
   58.7120   28.4280   45.4190 C   0  0  0  0  0  0  0  0  0  0  0  0
   59.2780   29.5090   45.9890 C   0  0  0  0  0  0  0  0  0  0  0  0
   58.7640   30.8860   45.8190 C   0  0  0  0  0  0  0  0  0  0  0  0
   57.4170   31.0960   45.4870 C   0  0  0  0  0  0  0  0  0  0  0  0
   56.5650   30.0140   45.2820 O   0  0  0  0  0  0  0  0  0  0  0  0
   56.9410   32.3620   45.3540 N   0  0  0  0  0  0  0  0  0  0  0  0
   57.7440   33.4390   45.5510 C   0  0  0  0  0  0  0  0  0  0  0  0
   57.2820   34.6000   45.4170 O   0  0  0  0  0  0  0  0  0  0  0  0
   59.0440   33.2620   45.8990 N   0  0  0  0  0  0  0  0  0  0  0  0
   59.5680   32.0180   46.0460 C   0  0  0  0  0  0  0  0  0  0  0  0
   60.7710   31.8940   46.4040 O   0  0  0  0  0  0  0  0  0  0  0  0
   58.7290   28.1100   44.0670 C   0  0  0  0  0  0  0  0  0  0  0  0
   58.0010   26.9460   43.9260 C   0  0  0  0  0  0  0  0  0  0  0  0
   57.7700   26.2330   42.6280 C   0  0  0  0  0  0  0  0  0  0  0  0
   57.5400   26.5300   45.1260 N   0  0  0  0  0  0  0  0  0  0  0  0
   56.7500   25.3500   45.3570 C   0  0  0  0  0  0  0  0  0  0  0  0
   57.3110   24.0830   45.1510 C   0  0  0  0  0  0  0  0  0  0  0  0
   56.5460   22.9320   45.3590 C   0  0  0  0  0  0  0  0  0  0  0  0
   55.2060   23.0350   45.7580 C   0  0  0  0  0  0  0  0  0  0  0  0
   54.4090   21.8130   45.9770 C   0  0  0  0  0  0  0  0  0  0  0  0
   54.9730   20.7960   46.4600 O   0  0  0  0  0  0  0  0  0  0  0  0
   53.0170   21.7350   45.6430 N   0  0  0  0  0  0  0  0  0  0  0  0
   51.9120   22.2580   46.4470 C   0  0  0  0  0  0  0  0  0  0  0  0
   51.0980   23.3040   45.6750 C   0  0  0  0  0  0  0  0  0  0  0  0
   51.7860   23.7240   44.3770 C   0  0  0  0  0  0  0  0  0  0  0  0
   54.6500   24.3040   45.9820 C   0  0  0  0  0  0  0  0  0  0  0  0
   55.4130   25.4570   45.7740 C   0  0  0  0  0  0  0  0  0  0  0  0
   54.8380   26.7070   45.9770 O   0  0  0  0  0  0  0  0  0  0  0  0
   57.1152   26.4886   47.7475 H   0  0  0  0  0  0  0  0  0  0  0  0
   58.1241   28.0742   48.0607 H   0  0  0  0  0  0  0  0  0  0  0  0
   60.1705   29.3602   46.6146 H   0  0  0  0  0  0  0  0  0  0  0  0
   55.8970   29.7360   45.9910 H   0  0  0  0  0  0  0  0  0  0  0  0
   59.2258   28.6756   43.2650 H   0  0  0  0  0  0  0  0  0  0  0  0
   57.4367   25.2042   42.8291 H   0  0  0  0  0  0  0  0  0  0  0  0
   56.9975   26.7626   42.0512 H   0  0  0  0  0  0  0  0  0  0  0  0
   58.7063   26.2090   42.0512 H   0  0  0  0  0  0  0  0  0  0  0  0
   58.3576   23.9937   44.8243 H   0  0  0  0  0  0  0  0  0  0  0  0
   56.9976   21.9403   45.2089 H   0  0  0  0  0  0  0  0  0  0  0  0
   51.2495   21.4259   46.7275 H   0  0  0  0  0  0  0  0  0  0  0  0
   52.3349   22.7415   47.3400 H   0  0  0  0  0  0  0  0  0  0  0  0
   50.1129   22.8788   45.4328 H   0  0  0  0  0  0  0  0  0  0  0  0
   51.0020   24.1960   46.3116 H   0  0  0  0  0  0  0  0  0  0  0  0
   52.7031   24.2838   44.6126 H   0  0  0  0  0  0  0  0  0  0  0  0
   52.0431   22.8287   43.7919 H   0  0  0  0  0  0  0  0  0  0  0  0
   51.1071   24.3619   43.7919 H   0  0  0  0  0  0  0  0  0  0  0  0
   53.6080   24.3920   46.3232 H   0  0  0  0  0  0  0  0  0  0  0  0
  1  2  2  0
  2  3  1  0
  3  4  2  3
  4  5  1  0
  5  6  2  0
  6  7  1  0
  6  8  1  0
  8  9  1  0
  9 10  2  0
  9 11  1  0
 11 12  1  0
 12 13  2  0
  3 14  1  0
 14 15  2  0
 15 16  1  0
 15 17  1  0
 17 18  1  0
 18 19  2  0
 19 20  1  0
 20 21  2  0
 21 22  1  0
 22 23  2  0
 22 24  1  0
 24 25  1  0
 25 26  1  0
 26 27  1  0
 21 28  1  0
 28 29  2  0
 29 30  1  0
 17  2  1  0
 29 18  1  0
 12  5  1  0
  1 31  1  0
  1 32  1  0
  4 33  1  0
  7 34  1  0
 14 35  1  0
 16 36  1  0
 16 37  1  0
 16 38  1  0
 19 39  1  0
 20 40  1  0
 25 41  1  0
 25 42  1  0
 26 43  1  0
 26 44  1  0
 27 45  1  0
 27 46  1  0
 27 47  1  0
 28 48  1  0
M  CHG  4   8  -1  11  -1  24  -1  30  -1
M  END
>  <UniqueID>  (34) 
32

>  <SMILES>  (34) 
C=c1c(=Cc2c(O)[n-]c(=O)[n-]c2=O)cc(C)n1-c1ccc(C(=O)[N-]CCC)cc1[O-]

>  <Energy>  (34) 
94.38386763873511

>  <Genealogy>  (34) 
C=c1c(=Cc2c(O)[n-]c(=O)[n-]c2=O)cc(C)n1-c1ccc(C(=O)[N-]CCC)cc1[O-] (protonated)
C=c1c(=Cc2c(O)[n-]c(=O)[n-]c2=O)cc(C)n1-c1ccc(C(=O)[N-]CCC)cc1[O-] (3D coordinates assigned)
C=c1c(=Cc2c(O)[n-]c(=O)[n-]c2=O)cc(C)n1-c1ccc(C(=O)[N-]CCC)cc1[O-] (optimized conformer: 94.38386763873511 kcal/mol)

>  <smiles>  (34) 
C=c1c(=Cc2c(O)[nH]c(=O)[nH]c2=O)cc(C)n1-c1ccc(C(=O)NCCC)cc1O

>  <score_type>  (34) 
oracle

>  <origin>  (34) 
adg

>  <m_score__min__energy>  (34) 
-15.75

>  <m_primary>  (34) 
energy

$$$$
34:0
     RDKit          3D

 32 34  0  0  0  0  0  0  0  0999 V2000
   57.3830   33.4580   44.8690 C   0  0  0  0  0  0  0  0  0  0  0  0
   58.5780   32.9360   45.6090 C   0  0  0  0  0  0  0  0  0  0  0  0
   59.6300   33.7670   46.0270 C   0  0  0  0  0  0  0  0  0  0  0  0
   60.6440   33.0940   46.6960 C   0  0  0  0  0  0  0  0  0  0  0  0
   60.2360   31.4660   46.7670 S   0  0  0  0  0  0  0  0  0  0  0  0
   58.7690   31.5940   45.9540 C   0  0  0  0  0  0  0  0  0  0  0  0
   57.8690   30.4640   45.6660 C   0  0  0  0  0  0  0  0  0  0  0  0
   58.0840   29.1440   46.0030 C   0  0  0  0  0  0  0  0  0  0  0  0
   56.9680   28.4970   45.5080 C   0  0  0  0  0  0  0  0  0  0  0  0
   56.6590   27.0610   45.6260 C   0  0  0  0  0  0  0  0  0  0  0  0
   55.5390   26.7130   46.0840 O   0  0  0  0  0  0  0  0  0  0  0  0
   57.6150   26.0490   45.2920 N   0  0  0  0  0  0  0  0  0  0  0  0
   57.2940   24.7500   44.7820 C   0  0  0  0  0  0  0  0  0  0  0  0
   57.0490   24.3740   43.1580 S   0  0  0  0  0  0  0  0  0  0  0  0
   56.6100   22.7730   43.4150 C   0  0  0  0  0  0  0  0  0  0  0  0
   56.6310   22.5200   44.7810 C   0  0  0  0  0  0  0  0  0  0  0  0
   57.0010   23.6320   45.5630 C   0  0  0  0  0  0  0  0  0  0  0  0
   57.0920   23.6090   47.0420 C   0  0  0  0  0  0  0  0  0  0  0  0
   57.0210   24.8120   47.8110 N   0  0  0  0  0  0  0  0  0  0  0  0
   57.2390   22.5110   47.6430 O   0  0  0  0  0  0  0  0  0  0  0  0
   56.1430   29.3950   44.9360 N   0  0  0  0  0  0  0  0  0  0  0  0
   56.7160   30.5580   45.0440 O   0  0  0  0  0  0  0  0  0  0  0  0
   56.6217   33.7905   45.5900 H   0  0  0  0  0  0  0  0  0  0  0  0
   57.6848   34.3063   44.2370 H   0  0  0  0  0  0  0  0  0  0  0  0
   56.9658   32.6602   44.2370 H   0  0  0  0  0  0  0  0  0  0  0  0
   59.6491   34.8511   45.8416 H   0  0  0  0  0  0  0  0  0  0  0  0
   61.5569   33.5486   47.1083 H   0  0  0  0  0  0  0  0  0  0  0  0
   58.9408   28.7094   46.5388 H   0  0  0  0  0  0  0  0  0  0  0  0
   56.3492   22.0458   42.6319 H   0  0  0  0  0  0  0  0  0  0  0  0
   56.3812   21.5397   45.2130 H   0  0  0  0  0  0  0  0  0  0  0  0
   57.0060   25.7530   47.3640 H   0  0  0  0  0  0  0  0  0  0  0  0
   57.0450   24.7640   48.8550 H   0  0  0  0  0  0  0  0  0  0  0  0
  1  2  1  0
  2  3  1  0
  3  4  2  0
  4  5  1  0
  5  6  1  0
  6  7  1  0
  7  8  2  0
  8  9  1  0
  9 10  1  0
 10 11  2  0
 10 12  1  0
 12 13  1  0
 13 14  1  0
 14 15  1  0
 15 16  2  0
 16 17  1  0
 17 18  1  0
 18 19  1  0
 18 20  2  0
  9 21  2  0
 21 22  1  0
  6  2  2  0
 22  7  1  0
 17 13  2  0
  1 23  1  0
  1 24  1  0
  1 25  1  0
  3 26  1  0
  4 27  1  0
  8 28  1  0
 15 29  1  0
 16 30  1  0
 19 31  1  0
 19 32  1  0
M  CHG  1  12  -1
M  END
>  <UniqueID>  (35) 
33

>  <SMILES>  (35) 
Cc1ccsc1-c1cc(C(=O)[N-]c2sccc2C(N)=O)no1

>  <Energy>  (35) 
120.565495763747

>  <Genealogy>  (35) 
Cc1ccsc1-c1cc(C(=O)[N-]c2sccc2C(N)=O)no1 (protonated)
Cc1ccsc1-c1cc(C(=O)[N-]c2sccc2C(N)=O)no1 (3D coordinates assigned)
Cc1ccsc1-c1cc(C(=O)[N-]c2sccc2C(N)=O)no1 (optimized conformer: 120.565495763747 kcal/mol)

>  <smiles>  (35) 
Cc1ccsc1-c1cc(C(=O)Nc2sccc2C(N)=O)no1

>  <score_type>  (35) 
oracle

>  <origin>  (35) 
adg

>  <m_score__min__energy>  (35) 
-9.7400000000000002

>  <m_primary>  (35) 
energy

$$$$
35:0
     RDKit          3D

 75 78  0  0  0  0  0  0  0  0999 V2000
   51.5910   26.3650   55.2030 C   0  0  0  0  0  0  0  0  0  0  0  0
   51.5010   26.1880   53.6940 C   0  0  0  0  0  0  0  0  0  0  0  0
   51.0030   27.7070   52.9010 S   0  0  0  0  0  0  0  0  0  0  0  0
   49.9890   28.4080   53.7620 O   0  0  0  0  0  0  0  0  0  0  0  0
   50.3690   27.3940   51.5730 O   0  0  0  0  0  0  0  0  0  0  0  0
   52.3960   28.7620   52.6730 C   0  0  0  0  0  0  0  0  0  0  0  0
   52.4170   29.7030   51.6340 C   0  0  0  0  0  0  0  0  0  0  0  0
   53.5160   30.5530   51.4760 C   0  0  0  0  0  0  0  0  0  0  0  0
   54.6140   30.4610   52.3490 C   0  0  0  0  0  0  0  0  0  0  0  0
   55.7730   31.4190   52.2230 C   0  0  0  0  0  0  0  0  0  0  0  0
   57.0620   30.6600   52.2530 C   0  0  0  0  0  0  0  0  0  0  0  0
   57.1040   29.4930   51.7680 O   0  0  0  0  0  0  0  0  0  0  0  0
   58.2550   31.3150   52.7020 N   0  0  0  0  0  0  0  0  0  0  0  0
   59.0560   32.1760   51.8880 C   0  0  0  0  0  0  0  0  0  0  0  0
   60.4080   32.4270   52.1750 C   0  0  0  0  0  0  0  0  0  0  0  0
   61.1960   33.1410   51.2650 C   0  0  0  0  0  0  0  0  0  0  0  0
   60.6430   33.6100   50.0640 C   0  0  0  0  0  0  0  0  0  0  0  0
   61.5330   34.1830   49.0010 C   0  0  0  0  0  0  0  0  0  0  0  0
   61.4240   33.3630   47.8420 O   0  0  0  0  0  0  0  0  0  0  0  0
   60.3790   33.4140   46.9130 C   0  0  0  0  0  0  0  0  0  0  0  0
   59.8060   34.6340   46.4780 C   0  0  0  0  0  0  0  0  0  0  0  0
   58.7180   34.6370   45.5820 C   0  0  0  0  0  0  0  0  0  0  0  0
   58.1860   33.4290   45.1040 C   0  0  0  0  0  0  0  0  0  0  0  0
   58.7760   32.2370   45.5250 C   0  0  0  0  0  0  0  0  0  0  0  0
   59.8440   32.2260   46.3940 C   0  0  0  0  0  0  0  0  0  0  0  0
   60.1920   30.8910   46.5760 C   0  0  0  0  0  0  0  0  0  0  0  0
   61.3110   30.2910   47.3860 C   0  0  0  0  0  0  0  0  0  0  0  0
   60.7950   29.2140   48.3500 C   0  0  0  0  0  0  0  0  0  0  0  0
   60.0420   29.8330   49.4650 N   0  0  0  0  0  0  0  0  0  0  0  0
   60.2980   29.1170   50.7260 C   0  0  0  0  0  0  0  0  0  0  0  0
   58.5970   29.8350   49.1840 C   0  0  0  0  0  0  0  0  0  0  0  0
   59.2970   30.1560   45.8050 C   0  0  0  0  0  0  0  0  0  0  0  0
   58.4370   30.9810   45.1730 N   0  0  0  0  0  0  0  0  0  0  0  0
   57.1460   30.4870   44.1240 S   0  0  0  0  0  0  0  0  0  0  0  0
   57.3520   28.7790   43.6740 C   0  0  0  0  0  0  0  0  0  0  0  0
   55.8320   30.6470   44.8360 O   0  0  0  0  0  0  0  0  0  0  0  0
   57.1380   31.3480   42.8910 O   0  0  0  0  0  0  0  0  0  0  0  0
   59.2780   33.4090   49.8110 C   0  0  0  0  0  0  0  0  0  0  0  0
   58.4870   32.7100   50.7270 C   0  0  0  0  0  0  0  0  0  0  0  0
   54.6070   29.4870   53.3600 C   0  0  0  0  0  0  0  0  0  0  0  0
   53.5000   28.6490   53.5260 C   0  0  0  0  0  0  0  0  0  0  0  0
   51.1466   25.4911   55.7018 H   0  0  0  0  0  0  0  0  0  0  0  0
   52.6463   26.4588   55.4989 H   0  0  0  0  0  0  0  0  0  0  0  0
   51.0451   27.2730   55.4989 H   0  0  0  0  0  0  0  0  0  0  0  0
   52.4858   25.8866   53.3077 H   0  0  0  0  0  0  0  0  0  0  0  0
   50.7488   25.4156   53.4758 H   0  0  0  0  0  0  0  0  0  0  0  0
   51.5659   29.7729   50.9406 H   0  0  0  0  0  0  0  0  0  0  0  0
   53.5214   31.2966   50.6654 H   0  0  0  0  0  0  0  0  0  0  0  0
   55.6931   31.9661   51.2720 H   0  0  0  0  0  0  0  0  0  0  0  0
   55.7500   32.1300   53.0620 H   0  0  0  0  0  0  0  0  0  0  0  0
   60.8475   32.0623   53.1151 H   0  0  0  0  0  0  0  0  0  0  0  0
   62.2545   33.3354   51.4927 H   0  0  0  0  0  0  0  0  0  0  0  0
   61.2160   35.2090   48.7627 H   0  0  0  0  0  0  0  0  0  0  0  0
   62.5754   34.2103   49.3513 H   0  0  0  0  0  0  0  0  0  0  0  0
   60.2139   35.5882   46.8429 H   0  0  0  0  0  0  0  0  0  0  0  0
   58.2826   35.5927   45.2549 H   0  0  0  0  0  0  0  0  0  0  0  0
   57.3275   33.4225   44.4163 H   0  0  0  0  0  0  0  0  0  0  0  0
   62.0432   29.8370   46.7021 H   0  0  0  0  0  0  0  0  0  0  0  0
   61.7738   31.0924   47.9807 H   0  0  0  0  0  0  0  0  0  0  0  0
   60.1326   28.5266   47.8036 H   0  0  0  0  0  0  0  0  0  0  0  0
   61.6543   28.6651   48.7627 H   0  0  0  0  0  0  0  0  0  0  0  0
   60.0627   29.7750   51.5755 H   0  0  0  0  0  0  0  0  0  0  0  0
   59.6655   28.2182   50.7722 H   0  0  0  0  0  0  0  0  0  0  0  0
   61.3570   28.8230   50.7722 H   0  0  0  0  0  0  0  0  0  0  0  0
   58.0391   29.8358   50.1320 H   0  0  0  0  0  0  0  0  0  0  0  0
   58.3373   30.7335   48.6050 H   0  0  0  0  0  0  0  0  0  0  0  0
   58.3348   28.9372   48.6050 H   0  0  0  0  0  0  0  0  0  0  0  0
   59.2915   29.0591   45.7226 H   0  0  0  0  0  0  0  0  0  0  0  0
   57.4259   28.1663   44.5845 H   0  0  0  0  0  0  0  0  0  0  0  0
   56.4871   28.4495   43.0795 H   0  0  0  0  0  0  0  0  0  0  0  0
   58.2704   28.6646   43.0795 H   0  0  0  0  0  0  0  0  0  0  0  0
   58.8282   33.8032   48.8878 H   0  0  0  0  0  0  0  0  0  0  0  0
   57.4120   32.5791   50.5341 H   0  0  0  0  0  0  0  0  0  0  0  0
   55.4769   29.3825   54.0251 H   0  0  0  0  0  0  0  0  0  0  0  0
   53.4968   27.8982   54.3299 H   0  0  0  0  0  0  0  0  0  0  0  0
  1  2  1  0
  2  3  1  0
  3  4  2  0
  3  5  2  0
  3  6  1  0
  6  7  2  0
  7  8  1  0
  8  9  2  0
  9 10  1  0
 10 11  1  0
 11 12  2  0
 11 13  1  0
 13 14  1  0
 14 15  2  0
 15 16  1  0
 16 17  2  0
 17 18  1  0
 18 19  1  0
 19 20  1  0
 20 21  2  0
 21 22  1  0
 22 23  2  0
 23 24  1  0
 24 25  2  0
 25 26  1  0
 26 27  1  0
 27 28  1  0
 28 29  1  0
 29 30  1  0
 29 31  1  0
 26 32  2  0
 32 33  1  0
 33 34  1  0
 34 35  1  0
 34 36  2  0
 34 37  2  0
 17 38  1  0
 38 39  2  0
  9 40  1  0
 40 41  2  0
 41  6  1  0
 39 14  1  0
 25 20  1  0
 33 24  1  0
  1 42  1  0
  1 43  1  0
  1 44  1  0
  2 45  1  0
  2 46  1  0
  7 47  1  0
  8 48  1  0
 10 49  1  0
 10 50  1  0
 15 51  1  0
 16 52  1  0
 18 53  1  0
 18 54  1  0
 21 55  1  0
 22 56  1  0
 23 57  1  0
 27 58  1  0
 27 59  1  0
 28 60  1  0
 28 61  1  0
 30 62  1  0
 30 63  1  0
 30 64  1  0
 31 65  1  0
 31 66  1  0
 31 67  1  0
 32 68  1  0
 35 69  1  0
 35 70  1  0
 35 71  1  0
 38 72  1  0
 39 73  1  0
 40 74  1  0
 41 75  1  0
M  CHG  1  13  -1
M  END
>  <UniqueID>  (36) 
34

>  <SMILES>  (36) 
CCS(=O)(=O)c1ccc(CC(=O)[N-]c2ccc(COc3cccc4c3c(CCN(C)C)cn4S(C)(=O)=O)cc2)cc1

>  <Energy>  (36) 
103.90460202651623

>  <Genealogy>  (36) 
CCS(=O)(=O)c1ccc(CC(=O)[N-]c2ccc(COc3cccc4c3c(CCN(C)C)cn4S(C)(=O)=O)cc2)cc1 (protonated)
CCS(=O)(=O)c1ccc(CC(=O)[N-]c2ccc(COc3cccc4c3c(CCN(C)C)cn4S(C)(=O)=O)cc2)cc1 (3D coordinates assigned)
CCS(=O)(=O)c1ccc(CC(=O)[N-]c2ccc(COc3cccc4c3c(CCN(C)C)cn4S(C)(=O)=O)cc2)cc1 (optimized conformer: 103.90460202651623 kcal/mol)

>  <smiles>  (36) 
CCS(=O)(=O)c1ccc(CC(=O)Nc2ccc(COc3cccc4c3c(CCN(C)C)cn4S(C)(=O)=O)cc2)cc1

>  <score_type>  (36) 
oracle

>  <origin>  (36) 
adg

>  <m_score__min__energy>  (36) 
-11.75

>  <m_primary>  (36) 
energy

$$$$
36:0
     RDKit          3D

 60 63  0  0  0  0  0  0  0  0999 V2000
   57.1430   24.1210   48.2370 O   0  0  0  0  0  0  0  0  0  0  0  0
   57.3870   25.0070   47.3720 C   0  0  0  0  0  0  0  0  0  0  0  0
   58.7460   25.6400   47.3150 C   0  0  0  0  0  0  0  0  0  0  0  0
   58.7430   26.9300   48.0020 N   0  0  0  0  0  0  0  0  0  0  0  0
   59.9550   27.5650   48.4500 C   0  0  0  0  0  0  0  0  0  0  0  0
   61.0730   27.0530   48.1600 O   0  0  0  0  0  0  0  0  0  0  0  0
   59.9120   28.8240   49.2280 C   0  0  0  0  0  0  0  0  0  0  0  0
   61.0060   29.2300   50.0080 C   0  0  0  0  0  0  0  0  0  0  0  0
   60.9620   30.4350   50.7180 C   0  0  0  0  0  0  0  0  0  0  0  0
   59.8370   31.2650   50.6450 C   0  0  0  0  0  0  0  0  0  0  0  0
   59.8580   32.5170   51.3500 N   0  0  0  0  0  0  0  0  0  0  0  0
   58.7530   33.0130   52.5890 S   0  0  0  0  0  0  0  0  0  0  0  0
   59.5150   33.2010   53.8700 O   0  0  0  0  0  0  0  0  0  0  0  0
   58.1190   34.3260   52.2290 O   0  0  0  0  0  0  0  0  0  0  0  0
   57.5260   31.7830   52.8350 C   0  0  0  0  0  0  0  0  0  0  0  0
   56.2970   31.7320   52.1960 C   0  0  0  0  0  0  0  0  0  0  0  0
   55.4990   30.6660   52.6270 C   0  0  0  0  0  0  0  0  0  0  0  0
   56.0990   29.8810   53.6030 C   0  0  0  0  0  0  0  0  0  0  0  0
   57.6220   30.5140   53.9340 S   0  0  0  0  0  0  0  0  0  0  0  0
   58.7370   30.8600   49.8700 C   0  0  0  0  0  0  0  0  0  0  0  0
   58.7770   29.6510   49.1660 C   0  0  0  0  0  0  0  0  0  0  0  0
   56.3570   25.4480   46.4820 N   0  0  0  0  0  0  0  0  0  0  0  0
   56.6120   26.3070   45.3320 C   0  0  0  0  0  0  0  0  0  0  0  0
   56.8060   27.7480   45.7910 C   0  0  0  0  0  0  0  0  0  0  0  0
   55.7620   28.6010   45.2440 N   0  0  0  0  0  0  0  0  0  0  0  0
   56.0080   29.7120   44.3700 C   0  0  0  0  0  0  0  0  0  0  0  0
   55.0550   30.4890   44.0960 O   0  0  0  0  0  0  0  0  0  0  0  0
   57.3800   30.0130   43.8160 C   0  0  0  0  0  0  0  0  0  0  0  0
   58.2350   30.6900   44.8110 N   0  0  0  0  0  0  0  0  0  0  0  0
   59.3590   30.0480   45.2560 C   0  0  0  0  0  0  0  0  0  0  0  0
   60.1530   30.6140   46.2010 N   0  0  0  0  0  0  0  0  0  0  0  0
   59.8720   31.8340   46.7200 C   0  0  0  0  0  0  0  0  0  0  0  0
   60.7020   32.3860   47.7050 C   0  0  0  0  0  0  0  0  0  0  0  0
   60.4130   33.6480   48.2310 C   0  0  0  0  0  0  0  0  0  0  0  0
   59.3000   34.3620   47.7760 C   0  0  0  0  0  0  0  0  0  0  0  0
   58.4640   33.8140   46.8000 C   0  0  0  0  0  0  0  0  0  0  0  0
   58.7460   32.5440   46.2630 C   0  0  0  0  0  0  0  0  0  0  0  0
   57.9350   31.9470   45.2830 C   0  0  0  0  0  0  0  0  0  0  0  0
   56.9240   32.5670   44.8490 O   0  0  0  0  0  0  0  0  0  0  0  0
   59.4753   24.9742   47.7997 H   0  0  0  0  0  0  0  0  0  0  0  0
   59.0180   25.8005   46.2613 H   0  0  0  0  0  0  0  0  0  0  0  0
   57.8370   27.4460   48.0570 H   0  0  0  0  0  0  0  0  0  0  0  0
   61.9039   28.5968   50.0615 H   0  0  0  0  0  0  0  0  0  0  0  0
   61.8194   30.7329   51.3393 H   0  0  0  0  0  0  0  0  0  0  0  0
   55.9814   32.4548   51.4292 H   0  0  0  0  0  0  0  0  0  0  0  0
   54.4922   30.4687   52.2303 H   0  0  0  0  0  0  0  0  0  0  0  0
   55.6536   28.9950   54.0791 H   0  0  0  0  0  0  0  0  0  0  0  0
   57.8409   31.4957   49.8164 H   0  0  0  0  0  0  0  0  0  0  0  0
   57.9124   29.3452   48.5586 H   0  0  0  0  0  0  0  0  0  0  0  0
   57.5203   25.9638   44.8151 H   0  0  0  0  0  0  0  0  0  0  0  0
   55.7525   26.2585   44.6472 H   0  0  0  0  0  0  0  0  0  0  0  0
   56.7666   27.7866   46.8896 H   0  0  0  0  0  0  0  0  0  0  0  0
   57.7826   28.1070   45.4342 H   0  0  0  0  0  0  0  0  0  0  0  0
   57.8591   29.0687   43.5182 H   0  0  0  0  0  0  0  0  0  0  0  0
   57.2612   30.6846   42.9529 H   0  0  0  0  0  0  0  0  0  0  0  0
   59.6220   29.0627   44.8436 H   0  0  0  0  0  0  0  0  0  0  0  0
   61.5791   31.8271   48.0633 H   0  0  0  0  0  0  0  0  0  0  0  0
   61.0631   34.0812   49.0054 H   0  0  0  0  0  0  0  0  0  0  0  0
   59.0820   35.3584   48.1879 H   0  0  0  0  0  0  0  0  0  0  0  0
   57.5848   34.3755   46.4510 H   0  0  0  0  0  0  0  0  0  0  0  0
  1  2  2  0
  2  3  1  0
  3  4  1  0
  4  5  1  0
  5  6  2  0
  5  7  1  0
  7  8  2  0
  8  9  1  0
  9 10  2  0
 10 11  1  0
 11 12  1  0
 12 13  2  0
 12 14  2  0
 12 15  1  0
 15 16  2  0
 16 17  1  0
 17 18  2  0
 18 19  1  0
 10 20  1  0
 20 21  2  0
  2 22  1  0
 22 23  1  0
 23 24  1  0
 24 25  1  0
 25 26  1  0
 26 27  2  0
 26 28  1  0
 28 29  1  0
 29 30  1  0
 30 31  2  0
 31 32  1  0
 32 33  2  0
 33 34  1  0
 34 35  2  0
 35 36  1  0
 36 37  2  0
 37 38  1  0
 38 39  2  0
 21  7  1  0
 38 29  1  0
 19 15  1  0
 37 32  1  0
  3 40  1  0
  3 41  1  0
  4 42  1  0
  8 43  1  0
  9 44  1  0
 16 45  1  0
 17 46  1  0
 18 47  1  0
 20 48  1  0
 21 49  1  0
 23 50  1  0
 23 51  1  0
 24 52  1  0
 24 53  1  0
 28 54  1  0
 28 55  1  0
 30 56  1  0
 33 57  1  0
 34 58  1  0
 35 59  1  0
 36 60  1  0
M  CHG  3  11  -1  22  -1  25  -1
M  END
>  <UniqueID>  (37) 
35

>  <SMILES>  (37) 
O=C(CNC(=O)c1ccc([N-]S(=O)(=O)c2cccs2)cc1)[N-]CC[N-]C(=O)Cn1cnc2ccccc2c1=O

>  <Energy>  (37) 
90.96776217498157

>  <Genealogy>  (37) 
O=C(CNC(=O)c1ccc([N-]S(=O)(=O)c2cccs2)cc1)[N-]CC[N-]C(=O)Cn1cnc2ccccc2c1=O (protonated)
O=C(CNC(=O)c1ccc([N-]S(=O)(=O)c2cccs2)cc1)[N-]CC[N-]C(=O)Cn1cnc2ccccc2c1=O (3D coordinates assigned)
O=C(CNC(=O)c1ccc([N-]S(=O)(=O)c2cccs2)cc1)[N-]CC[N-]C(=O)Cn1cnc2ccccc2c1=O (optimized conformer: 90.96776217498157 kcal/mol)

>  <smiles>  (37) 
O=C(CNC(=O)c1ccc(NS(=O)(=O)c2cccs2)cc1)NCCNC(=O)Cn1cnc2ccccc2c1=O

>  <score_type>  (37) 
oracle

>  <origin>  (37) 
adg

>  <m_score__min__energy>  (37) 
-13.02

>  <m_primary>  (37) 
energy

$$$$
37:0
     RDKit          3D

 62 65  0  0  0  0  0  0  0  0999 V2000
   66.3960   32.3210   50.6870 C   0  0  0  0  0  0  0  0  0  0  0  0
   64.9550   32.6950   50.3520 C   0  0  0  0  0  0  0  0  0  0  0  0
   64.7710   32.7760   48.9390 O   0  0  0  0  0  0  0  0  0  0  0  0
   63.5340   32.7840   48.2740 C   0  0  0  0  0  0  0  0  0  0  0  0
   62.5240   31.8350   48.5240 C   0  0  0  0  0  0  0  0  0  0  0  0
   61.3190   31.8830   47.8130 C   0  0  0  0  0  0  0  0  0  0  0  0
   61.1120   32.8660   46.8280 C   0  0  0  0  0  0  0  0  0  0  0  0
   59.8840   32.9430   46.0870 N   0  0  0  0  0  0  0  0  0  0  0  0
   59.0980   34.1410   45.9460 C   0  0  0  0  0  0  0  0  0  0  0  0
   59.3900   35.1800   46.5960 O   0  0  0  0  0  0  0  0  0  0  0  0
   57.9350   34.1590   44.9950 C   0  0  0  0  0  0  0  0  0  0  0  0
   57.6420   32.7900   44.4680 C   0  0  0  0  0  0  0  0  0  0  0  0
   57.3890   31.7270   45.2590 N   0  0  0  0  0  0  0  0  0  0  0  0
   57.2130   30.5840   44.5440 C   0  0  0  0  0  0  0  0  0  0  0  0
   56.8910   29.2850   45.1770 C   0  0  0  0  0  0  0  0  0  0  0  0
   55.6990   28.8790   45.1430 O   0  0  0  0  0  0  0  0  0  0  0  0
   57.8800   28.4990   45.8750 N   0  0  0  0  0  0  0  0  0  0  0  0
   59.0440   29.0580   46.5490 C   0  0  0  0  0  0  0  0  0  0  0  0
   59.9510   27.8750   46.8740 C   0  0  0  0  0  0  0  0  0  0  0  0
   59.4390   26.7200   46.0230 C   0  0  0  0  0  0  0  0  0  0  0  0
   57.9760   27.0500   45.7330 C   0  0  1  0  0  0  0  0  0  0  0  0
   57.0400   26.3480   46.7340 C   0  0  0  0  0  0  0  0  0  0  0  0
   56.2360   25.3200   46.0770 N   0  0  0  0  0  0  0  0  0  0  0  0
   54.9180   25.3920   45.9720 N   0  0  0  0  0  0  0  0  0  0  0  0
   54.5160   24.3520   45.2160 C   0  0  0  0  0  0  0  0  0  0  0  0
   53.0930   24.0750   44.8700 C   0  0  0  0  0  0  0  0  0  0  0  0
   55.6060   23.5890   44.8340 C   0  0  0  0  0  0  0  0  0  0  0  0
   56.6830   24.2370   45.4020 C   0  0  0  0  0  0  0  0  0  0  0  0
   58.1190   23.8510   45.2270 C   0  0  0  0  0  0  0  0  0  0  0  0
   57.3340   30.7380   43.1620 C   0  0  0  0  0  0  0  0  0  0  0  0
   57.6710   32.3550   42.8440 S   0  0  0  0  0  0  0  0  0  0  0  0
   62.1100   33.8250   46.6030 C   0  0  0  0  0  0  0  0  0  0  0  0
   63.3100   33.7810   47.3170 C   0  0  0  0  0  0  0  0  0  0  0  0
   66.5219   32.2883   51.7793 H   0  0  0  0  0  0  0  0  0  0  0  0
   66.6268   31.3332   50.2616 H   0  0  0  0  0  0  0  0  0  0  0  0
   67.0781   33.0719   50.2616 H   0  0  0  0  0  0  0  0  0  0  0  0
   64.2788   31.9299   50.7611 H   0  0  0  0  0  0  0  0  0  0  0  0
   64.7321   33.6769   50.7948 H   0  0  0  0  0  0  0  0  0  0  0  0
   62.6825   31.0528   49.2810 H   0  0  0  0  0  0  0  0  0  0  0  0
   60.5291   31.1476   48.0258 H   0  0  0  0  0  0  0  0  0  0  0  0
   59.4640   32.0480   45.7470 H   0  0  0  0  0  0  0  0  0  0  0  0
   57.0469   34.5375   45.5223 H   0  0  0  0  0  0  0  0  0  0  0  0
   58.1909   34.8101   44.1462 H   0  0  0  0  0  0  0  0  0  0  0  0
   59.5637   29.7678   45.8886 H   0  0  0  0  0  0  0  0  0  0  0  0
   58.7577   29.6075   47.4579 H   0  0  0  0  0  0  0  0  0  0  0  0
   60.9944   28.1089   46.6160 H   0  0  0  0  0  0  0  0  0  0  0  0
   59.9319   27.6301   47.9462 H   0  0  0  0  0  0  0  0  0  0  0  0
   60.0109   26.6488   45.0860 H   0  0  0  0  0  0  0  0  0  0  0  0
   59.5472   25.7532   46.5364 H   0  0  0  0  0  0  0  0  0  0  0  0
   57.6728   26.7073   44.7327 H   0  0  0  0  0  0  0  0  0  0  0  0
   57.6460   25.8791   47.5232 H   0  0  0  0  0  0  0  0  0  0  0  0
   56.3606   27.1004   47.1608 H   0  0  0  0  0  0  0  0  0  0  0  0
   52.5066   23.9609   45.7936 H   0  0  0  0  0  0  0  0  0  0  0  0
   52.6895   24.9115   44.2805 H   0  0  0  0  0  0  0  0  0  0  0  0
   53.0327   23.1483   44.2805 H   0  0  0  0  0  0  0  0  0  0  0  0
   55.6119   22.6767   44.2195 H   0  0  0  0  0  0  0  0  0  0  0  0
   58.5877   23.7250   46.2141 H   0  0  0  0  0  0  0  0  0  0  0  0
   58.1790   22.9048   44.6692 H   0  0  0  0  0  0  0  0  0  0  0  0
   58.6453   24.6396   44.6692 H   0  0  0  0  0  0  0  0  0  0  0  0
   57.2275   29.9408   42.4116 H   0  0  0  0  0  0  0  0  0  0  0  0
   61.9468   34.6181   45.8585 H   0  0  0  0  0  0  0  0  0  0  0  0
   64.0860   34.5367   47.1255 H   0  0  0  0  0  0  0  0  0  0  0  0
  1  2  1  0
  2  3  1  0
  3  4  1  0
  4  5  2  0
  5  6  1  0
  6  7  2  0
  7  8  1  0
  8  9  1  0
  9 10  2  0
  9 11  1  0
 11 12  1  0
 12 13  2  0
 13 14  1  0
 14 15  1  0
 15 16  2  0
 15 17  1  0
 17 18  1  0
 18 19  1  0
 19 20  1  0
 20 21  1  0
 21 22  1  0
 22 23  1  0
 23 24  1  0
 24 25  2  0
 25 26  1  0
 25 27  1  0
 27 28  2  0
 28 29  1  0
 14 30  2  0
 30 31  1  0
  7 32  1  0
 32 33  2  0
 33  4  1  0
 31 12  1  0
 21 17  1  0
 28 23  1  0
  1 34  1  0
  1 35  1  0
  1 36  1  0
  2 37  1  0
  2 38  1  0
  5 39  1  0
  6 40  1  0
  8 41  1  0
 11 42  1  0
 11 43  1  0
 18 44  1  0
 18 45  1  0
 19 46  1  0
 19 47  1  0
 20 48  1  0
 20 49  1  0
 21 50  1  6
 22 51  1  0
 22 52  1  0
 26 53  1  0
 26 54  1  0
 26 55  1  0
 27 56  1  0
 29 57  1  0
 29 58  1  0
 29 59  1  0
 30 60  1  0
 32 61  1  0
 33 62  1  0
M  END
>  <UniqueID>  (38) 
36

>  <SMILES>  (38) 
CCOc1ccc(NC(=O)Cc2nc(C(=O)N3CCC[C@H]3Cn3nc(C)cc3C)cs2)cc1

>  <Energy>  (38) 
119.35568155268119

>  <Genealogy>  (38) 
CCOc1ccc(NC(=O)Cc2nc(C(=O)N3CCC[C@H]3Cn3nc(C)cc3C)cs2)cc1 (chirality)
CCOc1ccc(NC(=O)Cc2nc(C(=O)N3CCC[C@H]3Cn3nc(C)cc3C)cs2)cc1 (3D coordinates assigned)
CCOc1ccc(NC(=O)Cc2nc(C(=O)N3CCC[C@H]3Cn3nc(C)cc3C)cs2)cc1 (nonaromatic ring conformer: 119.35568155268119 kcal/mol)

>  <smiles>  (38) 
CCOc1ccc(NC(=O)Cc2nc(C(=O)N3CCCC3Cn3nc(C)cc3C)cs2)cc1

>  <score_type>  (38) 
oracle

>  <origin>  (38) 
adg

>  <m_score__min__energy>  (38) 
-10.16

>  <m_primary>  (38) 
energy

$$$$
38:0
     RDKit          3D

 53 58  0  0  0  0  0  0  0  0999 V2000
   61.6134   29.4767   44.8711 H   0  0  0  0  0  0  0  0  0  0  0  0
   60.6960   29.3340   45.4610 C   0  0  0  0  0  0  0  0  0  0  0  0
   59.7610   28.4370   45.0550 N   0  0  0  0  0  0  0  0  0  0  0  0
   58.6040   28.2340   45.7450 C   0  0  0  0  0  0  0  0  0  0  0  0
   57.6490   27.2170   45.2660 C   0  0  0  0  0  0  0  0  0  0  0  0
   57.8420   26.6370   44.1620 O   0  0  0  0  0  0  0  0  0  0  0  0
   56.4960   26.9080   46.0660 N   0  0  0  0  0  0  0  0  0  0  0  0
   55.7260   25.8680   45.9340 C   0  0  0  0  0  0  0  0  0  0  0  0
   54.4070   25.9250   45.6410 N   0  0  0  0  0  0  0  0  0  0  0  0
   53.8550   24.6820   45.5950 C   0  0  0  0  0  0  0  0  0  0  0  0
   52.7905   24.5173   45.3722 H   0  0  0  0  0  0  0  0  0  0  0  0
   54.7340   23.6350   45.8500 C   0  0  0  0  0  0  0  0  0  0  0  0
   54.4795   22.5648   45.8542 H   0  0  0  0  0  0  0  0  0  0  0  0
   56.2550   24.2900   46.1510 S   0  0  0  0  0  0  0  0  0  0  0  0
   58.3590   28.9750   46.9130 C   0  0  0  0  0  0  0  0  0  0  0  0
   57.4182   28.8403   47.4669 H   0  0  0  0  0  0  0  0  0  0  0  0
   59.3210   29.8870   47.3680 C   0  0  0  0  0  0  0  0  0  0  0  0
   59.0860   30.6560   48.6040 C   0  0  0  0  0  0  0  0  0  0  0  0
   58.8990   32.0260   48.7670 C   0  0  0  0  0  0  0  0  0  0  0  0
   59.0600   33.1020   47.7680 C   0  0  0  0  0  0  0  0  0  0  0  0
   58.7080   32.8570   46.4760 N   0  0  0  0  0  0  0  0  0  0  0  0
   58.8120   33.8120   45.5150 C   0  0  0  0  0  0  0  0  0  0  0  0
   58.4800   33.5170   44.2920 N   0  0  0  0  0  0  0  0  0  0  0  0
   57.7620   32.3550   43.8420 C   0  0  0  0  0  0  0  0  0  0  0  0
   57.0690   31.5880   44.7890 C   0  0  0  0  0  0  0  0  0  0  0  0
   57.1038   31.8691   45.8519 H   0  0  0  0  0  0  0  0  0  0  0  0
   56.3340   30.4680   44.3900 C   0  0  0  0  0  0  0  0  0  0  0  0
   55.8020   29.8654   45.1409 H   0  0  0  0  0  0  0  0  0  0  0  0
   56.2730   30.1120   43.0430 C   0  0  0  0  0  0  0  0  0  0  0  0
   55.7071   29.2207   42.7344 H   0  0  0  0  0  0  0  0  0  0  0  0
   56.9310   30.8880   42.0860 C   0  0  0  0  0  0  0  0  0  0  0  0
   56.8734   30.6140   41.0222 H   0  0  0  0  0  0  0  0  0  0  0  0
   57.6630   32.0130   42.4790 C   0  0  0  0  0  0  0  0  0  0  0  0
   58.1634   32.6333   41.7208 H   0  0  0  0  0  0  0  0  0  0  0  0
   59.2940   35.0430   45.8430 N   0  0  0  0  0  0  0  0  0  0  0  0
   59.6400   35.3440   47.1210 C   0  0  0  0  0  0  0  0  0  0  0  0
   60.0202   36.3465   47.3670 H   0  0  0  0  0  0  0  0  0  0  0  0
   59.5130   34.3820   48.1200 C   0  0  0  0  0  0  0  0  0  0  0  0
   59.7629   34.6212   49.1642 H   0  0  0  0  0  0  0  0  0  0  0  0
   58.5470   32.2710   50.0440 N   0  0  0  0  0  0  0  0  0  0  0  0
   58.5160   31.1180   50.6950 N   0  0  0  0  0  0  0  0  0  0  0  0
   58.1230   31.0380   52.1090 C   0  0  0  0  0  0  0  0  0  0  0  0
   59.1332   31.2165   52.5060 H   0  0  0  0  0  0  0  0  0  0  0  0
   56.7250   31.5600   52.4110 C   0  0  0  0  0  0  0  0  0  0  0  0
   56.5311   32.1036   53.3474 H   0  0  0  0  0  0  0  0  0  0  0  0
   56.0058   32.2067   51.8869 H   0  0  0  0  0  0  0  0  0  0  0  0
   57.0040   30.0600   52.4430 C   0  0  0  0  0  0  0  0  0  0  0  0
   57.0115   29.5221   53.4025 H   0  0  0  0  0  0  0  0  0  0  0  0
   56.5697   29.1769   51.9517 H   0  0  0  0  0  0  0  0  0  0  0  0
   58.8430   30.1150   49.8500 C   0  0  0  0  0  0  0  0  0  0  0  0
   58.9049   29.0483   50.1113 H   0  0  0  0  0  0  0  0  0  0  0  0
   60.4940   30.0750   46.6260 C   0  0  0  0  0  0  0  0  0  0  0  0
   61.2501   30.8012   46.9591 H   0  0  0  0  0  0  0  0  0  0  0  0
  1  2  1  0
  2  3  2  0
  3  4  1  0
  4  5  1  0
  5  6  2  0
  5  7  1  0
  7  8  2  0
  8  9  1  0
  9 10  1  0
 10 11  1  0
 10 12  2  0
 12 13  1  0
 12 14  1  0
  4 15  2  0
 15 16  1  0
 15 17  1  0
 17 18  1  0
 18 19  1  0
 19 20  1  0
 20 21  2  0
 21 22  1  0
 22 23  2  3
 23 24  1  0
 24 25  2  0
 25 26  1  0
 25 27  1  0
 27 28  1  0
 27 29  2  0
 29 30  1  0
 29 31  1  0
 31 32  1  0
 31 33  2  0
 33 34  1  0
 22 35  1  0
 35 36  1  0
 36 37  1  0
 36 38  2  0
 38 39  1  0
 19 40  2  0
 40 41  1  0
 41 42  1  0
 42 43  1  0
 42 44  1  0
 44 45  1  0
 44 46  1  0
 44 47  1  0
 47 48  1  0
 47 49  1  0
 41 50  1  0
 50 51  1  0
 17 52  2  0
 52 53  1  0
 52  2  1  0
 14  8  1  0
 50 18  2  0
 38 20  1  0
 47 42  1  0
 33 24  1  0
M  CHG  2   9  -1  35  -1
M  END
>  <UniqueID>  (39) 
37

>  <SMILES>  (39) 
O=C(/N=c1\[n-]ccs1)c1cc(-c2cn(C3CC3)nc2-c2cc[n-]c(=Nc3ccccc3)n2)ccn1

>  <Energy>  (39) 
406.27930743194787

>  <Genealogy>  (39) 
O=C(N=c1[n-]ccs1)c1cc(-c2cn(C3CC3)nc2-c2cc[n-]c(=Nc3ccccc3)n2)ccn1 (protonated)
O=C(/N=c1\[n-]ccs1)c1cc(-c2cn(C3CC3)nc2-c2cc[n-]c(=Nc3ccccc3)n2)ccn1 (cis-trans isomerization)
O=C(/N=c1\[n-]ccs1)c1cc(-c2cn(C3CC3)nc2-c2cc[n-]c(=Nc3ccccc3)n2)ccn1 (3D coordinates assigned)
O=C(/N=c1\[n-]ccs1)c1cc(-c2cn(C3CC3)nc2-c2cc[n-]c(=Nc3ccccc3)n2)ccn1 (nonaromatic ring conformer: 406.27930743194787 kcal/mol)

>  <smiles>  (39) 
O=C(N=c1[nH]ccs1)c1cc(-c2cn(C3CC3)nc2-c2cc[nH]c(=Nc3ccccc3)n2)ccn1

>  <score_type>  (39) 
oracle

>  <origin>  (39) 
adg

>  <m_score__min__energy>  (39) 
-12.369999999999999

>  <m_primary>  (39) 
energy

$$$$
39:0
     RDKit          3D

 46 48  0  0  0  0  0  0  0  0999 V2000
   57.0530   30.1740   43.7690 O   0  0  0  0  0  0  0  0  0  0  0  0
   57.1300   29.6480   44.9110 C   0  0  0  0  0  0  0  0  0  0  0  0
   57.1360   28.1460   45.0360 C   0  0  0  0  0  0  0  0  0  0  0  0
   55.8910   27.6590   45.6230 N   0  0  0  0  0  0  0  0  0  0  0  0
   55.6730   26.2950   45.9940 C   0  0  0  0  0  0  0  0  0  0  0  0
   54.4990   25.8410   45.9940 O   0  0  0  0  0  0  0  0  0  0  0  0
   56.7740   25.4790   46.4130 N   0  0  0  0  0  0  0  0  0  0  0  0
   57.0300   24.1180   46.0380 C   0  0  0  0  0  0  0  0  0  0  0  0
   58.2210   23.7370   45.3900 C   0  0  0  0  0  0  0  0  0  0  0  0
   58.4490   22.3970   45.0640 C   0  0  0  0  0  0  0  0  0  0  0  0
   57.5020   21.4250   45.3930 C   0  0  0  0  0  0  0  0  0  0  0  0
   56.3290   21.7890   46.0580 C   0  0  0  0  0  0  0  0  0  0  0  0
   56.0930   23.1310   46.3870 C   0  0  0  0  0  0  0  0  0  0  0  0
   54.9230   23.4940   47.0560 O   0  0  0  0  0  0  0  0  0  0  0  0
   57.3780   30.4960   46.0400 N   0  0  0  0  0  0  0  0  0  0  0  0
   58.5460   30.4770   46.8700 C   0  0  0  0  0  0  0  0  0  0  0  0
   58.9290   29.2990   47.5320 C   0  0  0  0  0  0  0  0  0  0  0  0
   60.0170   29.2990   48.4060 C   0  0  0  0  0  0  0  0  0  0  0  0
   60.7210   30.4800   48.6440 C   0  0  0  0  0  0  0  0  0  0  0  0
   60.3350   31.6640   48.0120 C   0  0  0  0  0  0  0  0  0  0  0  0
   59.2460   31.6760   47.1260 C   0  0  0  0  0  0  0  0  0  0  0  0
   58.8820   32.9060   46.4750 N   0  0  0  0  0  0  0  0  0  0  0  0
   57.5130   33.4230   46.5500 C   0  0  0  0  0  0  0  0  0  0  0  0
   57.1570   34.1050   45.2250 C   0  0  0  0  0  0  0  0  0  0  0  0
   58.1340   35.0680   44.8770 O   0  0  0  0  0  0  0  0  0  0  0  0
   59.3720   34.4300   44.6280 C   0  0  0  0  0  0  0  0  0  0  0  0
   59.9130   33.7710   45.8990 C   0  0  0  0  0  0  0  0  0  0  0  0
   57.2584   27.7035   44.0364 H   0  0  0  0  0  0  0  0  0  0  0  0
   57.9680   27.8550   45.6941 H   0  0  0  0  0  0  0  0  0  0  0  0
   58.9753   24.4974   45.1393 H   0  0  0  0  0  0  0  0  0  0  0  0
   59.3760   22.1077   44.5474 H   0  0  0  0  0  0  0  0  0  0  0  0
   57.6799   20.3722   45.1283 H   0  0  0  0  0  0  0  0  0  0  0  0
   55.5884   21.0205   46.3243 H   0  0  0  0  0  0  0  0  0  0  0  0
   54.6710   24.4650   47.1940 H   0  0  0  0  0  0  0  0  0  0  0  0
   58.3670   28.3691   47.3602 H   0  0  0  0  0  0  0  0  0  0  0  0
   60.3196   28.3678   48.9073 H   0  0  0  0  0  0  0  0  0  0  0  0
   61.5808   30.4784   49.3301 H   0  0  0  0  0  0  0  0  0  0  0  0
   60.8882   32.5940   48.2098 H   0  0  0  0  0  0  0  0  0  0  0  0
   56.8160   32.5924   46.7348 H   0  0  0  0  0  0  0  0  0  0  0  0
   57.4380   34.1509   47.3713 H   0  0  0  0  0  0  0  0  0  0  0  0
   57.1012   33.3449   44.4318 H   0  0  0  0  0  0  0  0  0  0  0  0
   56.1873   34.6117   45.3387 H   0  0  0  0  0  0  0  0  0  0  0  0
   59.2312   33.6600   43.8552 H   0  0  0  0  0  0  0  0  0  0  0  0
   60.0952   35.1867   44.2897 H   0  0  0  0  0  0  0  0  0  0  0  0
   60.8002   33.1697   45.6515 H   0  0  0  0  0  0  0  0  0  0  0  0
   60.1892   34.5482   46.6268 H   0  0  0  0  0  0  0  0  0  0  0  0
  1  2  2  0
  2  3  1  0
  3  4  1  0
  4  5  1  0
  5  6  2  0
  5  7  1  0
  7  8  1  0
  8  9  2  0
  9 10  1  0
 10 11  2  0
 11 12  1  0
 12 13  2  0
 13 14  1  0
  2 15  1  0
 15 16  1  0
 16 17  2  0
 17 18  1  0
 18 19  2  0
 19 20  1  0
 20 21  2  0
 21 22  1  0
 22 23  1  0
 23 24  1  0
 24 25  1  0
 25 26  1  0
 26 27  1  0
 13  8  1  0
 21 16  1  0
 27 22  1  0
  3 28  1  0
  3 29  1  0
  9 30  1  0
 10 31  1  0
 11 32  1  0
 12 33  1  0
 14 34  1  0
 17 35  1  0
 18 36  1  0
 19 37  1  0
 20 38  1  0
 23 39  1  0
 23 40  1  0
 24 41  1  0
 24 42  1  0
 26 43  1  0
 26 44  1  0
 27 45  1  0
 27 46  1  0
M  CHG  3   4  -1   7  -1  15  -1
M  END
>  <UniqueID>  (40) 
38

>  <SMILES>  (40) 
O=C(C[N-]C(=O)[N-]c1ccccc1O)[N-]c1ccccc1N1CCOCC1

>  <Energy>  (40) 
59.400907545306424

>  <Genealogy>  (40) 
O=C(C[N-]C(=O)[N-]c1ccccc1O)[N-]c1ccccc1N1CCOCC1 (protonated)
O=C(C[N-]C(=O)[N-]c1ccccc1O)[N-]c1ccccc1N1CCOCC1 (3D coordinates assigned)
O=C(C[N-]C(=O)[N-]c1ccccc1O)[N-]c1ccccc1N1CCOCC1 (nonaromatic ring conformer: 59.400907545306424 kcal/mol)

>  <smiles>  (40) 
O=C(CNC(=O)Nc1ccccc1O)Nc1ccccc1N1CCOCC1

>  <score_type>  (40) 
oracle

>  <origin>  (40) 
adg

>  <m_score__min__energy>  (40) 
-12.699999999999999

>  <m_primary>  (40) 
energy

$$$$
40:0
     RDKit          3D

 35 36  0  0  0  0  0  0  0  0999 V2000
   62.4550   33.4540   46.7380 C   0  0  0  0  0  0  0  0  0  0  0  0
   61.4450   34.4550   46.7940 O   0  0  0  0  0  0  0  0  0  0  0  0
   60.0860   34.2140   46.5440 C   0  0  0  0  0  0  0  0  0  0  0  0
   59.5930   34.5720   45.2820 C   0  0  0  0  0  0  0  0  0  0  0  0
   58.2500   34.3780   44.9580 C   0  0  0  0  0  0  0  0  0  0  0  0
   57.3850   33.8080   45.8890 C   0  0  0  0  0  0  0  0  0  0  0  0
   57.8620   33.4190   47.1420 C   0  0  0  0  0  0  0  0  0  0  0  0
   59.2140   33.6050   47.4860 C   0  0  0  0  0  0  0  0  0  0  0  0
   59.6910   33.1120   48.8280 C   0  0  0  0  0  0  0  0  0  0  0  0
   59.6930   31.6540   48.8670 N   0  0  0  0  0  0  0  0  0  0  0  0
   60.4410   30.8250   47.9720 C   0  0  0  0  0  0  0  0  0  0  0  0
   61.6760   30.6490   48.1490 O   0  0  0  0  0  0  0  0  0  0  0  0
   59.7620   30.1700   46.8460 C   0  0  0  0  0  0  0  0  0  0  0  0
   58.4250   30.3140   46.5220 C   0  0  0  0  0  0  0  0  0  0  0  0
   58.2300   29.5350   45.4010 C   0  0  0  0  0  0  0  0  0  0  0  0
   56.7160   29.3160   44.5450 S   0  0  0  0  0  0  0  0  0  0  0  0
   57.0380   28.8490   42.9120 N   0  0  0  0  0  0  0  0  0  0  0  0
   55.9420   30.6040   44.5560 O   0  0  0  0  0  0  0  0  0  0  0  0
   55.9040   28.2510   45.2270 O   0  0  0  0  0  0  0  0  0  0  0  0
   59.4390   28.9490   45.0870 C   0  0  0  0  0  0  0  0  0  0  0  0
   60.3720   29.3430   45.9720 N   0  0  0  0  0  0  0  0  0  0  0  0
   62.7442   33.1674   47.7599 H   0  0  0  0  0  0  0  0  0  0  0  0
   62.0685   32.5725   46.2054 H   0  0  0  0  0  0  0  0  0  0  0  0
   63.3330   33.8484   46.2054 H   0  0  0  0  0  0  0  0  0  0  0  0
   60.2734   35.0114   44.5377 H   0  0  0  0  0  0  0  0  0  0  0  0
   57.8744   34.6751   43.9677 H   0  0  0  0  0  0  0  0  0  0  0  0
   56.3241   33.6641   45.6365 H   0  0  0  0  0  0  0  0  0  0  0  0
   57.1737   32.9622   47.8683 H   0  0  0  0  0  0  0  0  0  0  0  0
   60.7121   33.4800   49.0065 H   0  0  0  0  0  0  0  0  0  0  0  0
   59.0104   33.4871   49.6065 H   0  0  0  0  0  0  0  0  0  0  0  0
   57.6747   30.9223   47.0482 H   0  0  0  0  0  0  0  0  0  0  0  0
   57.0040   27.8050   42.8790 H   0  0  0  0  0  0  0  0  0  0  0  0
   58.0240   29.1250   42.7040 H   0  0  0  0  0  0  0  0  0  0  0  0
   59.6130   28.2652   44.2431 H   0  0  0  0  0  0  0  0  0  0  0  0
   61.3760   29.0560   45.9750 H   0  0  0  0  0  0  0  0  0  0  0  0
  1  2  1  0
  2  3  1  0
  3  4  2  0
  4  5  1  0
  5  6  2  0
  6  7  1  0
  7  8  2  0
  8  9  1  0
  9 10  1  0
 10 11  1  0
 11 12  2  0
 11 13  1  0
 13 14  2  0
 14 15  1  0
 15 16  1  0
 16 17  1  0
 16 18  2  0
 16 19  2  0
 15 20  2  0
 20 21  1  0
  8  3  1  0
 21 13  1  0
  1 22  1  0
  1 23  1  0
  1 24  1  0
  4 25  1  0
  5 26  1  0
  6 27  1  0
  7 28  1  0
  9 29  1  0
  9 30  1  0
 14 31  1  0
 17 32  1  0
 17 33  1  0
 20 34  1  0
 21 35  1  0
M  CHG  1  10  -1
M  END
>  <UniqueID>  (41) 
39

>  <SMILES>  (41) 
COc1ccccc1C[N-]C(=O)c1cc(S(N)(=O)=O)c[nH]1

>  <Energy>  (41) 
63.333455815303076

>  <Genealogy>  (41) 
COc1ccccc1C[N-]C(=O)c1cc(S(N)(=O)=O)c[nH]1 (protonated)
COc1ccccc1C[N-]C(=O)c1cc(S(N)(=O)=O)c[nH]1 (3D coordinates assigned)
COc1ccccc1C[N-]C(=O)c1cc(S(N)(=O)=O)c[nH]1 (optimized conformer: 63.333455815303076 kcal/mol)

>  <smiles>  (41) 
COc1ccccc1CNC(=O)c1cc(S(N)(=O)=O)c[nH]1

>  <score_type>  (41) 
oracle

>  <origin>  (41) 
adg

>  <m_score__min__energy>  (41) 
-8.9299999999999997

>  <m_primary>  (41) 
energy

$$$$
41:0
     RDKit          3D

 49 52  0  0  0  0  0  0  0  0999 V2000
   54.9960   25.1400   45.5830 C   0  0  0  0  0  0  0  0  0  0  0  0
   55.2300   26.5000   45.9520 O   0  0  0  0  0  0  0  0  0  0  0  0
   56.5040   27.0740   46.0900 C   0  0  0  0  0  0  0  0  0  0  0  0
   57.5580   26.4060   46.7410 C   0  0  0  0  0  0  0  0  0  0  0  0
   58.8150   27.0000   46.8460 C   0  0  0  0  0  0  0  0  0  0  0  0
   59.0460   28.2690   46.3010 C   0  0  0  0  0  0  0  0  0  0  0  0
   60.3950   28.8810   46.3420 C   0  0  0  0  0  0  0  0  0  0  0  0
   61.0800   28.9020   45.2770 O   0  0  0  0  0  0  0  0  0  0  0  0
   60.8830   29.5470   47.5390 N   0  0  1  0  0  0  0  0  0  0  0  0
   61.4140   30.9000   47.2930 C   0  0  0  0  0  0  0  0  0  0  0  0
   60.2930   31.5820   48.0720 C   0  0  1  0  0  0  0  0  0  0  0  0
   59.4740   32.5060   47.1740 C   0  0  0  0  0  0  0  0  0  0  0  0
   58.0730   32.4190   47.0240 C   0  0  0  0  0  0  0  0  0  0  0  0
   57.4020   33.2630   46.1310 C   0  0  0  0  0  0  0  0  0  0  0  0
   58.1100   34.1980   45.3760 C   0  0  0  0  0  0  0  0  0  0  0  0
   57.4550   35.0060   44.5030 F   0  0  0  0  0  0  0  0  0  0  0  0
   59.4910   34.3190   45.5330 C   0  0  0  0  0  0  0  0  0  0  0  0
   60.1700   33.4870   46.4310 C   0  0  0  0  0  0  0  0  0  0  0  0
   61.5170   33.6120   46.5490 F   0  0  0  0  0  0  0  0  0  0  0  0
   59.8120   30.1540   48.3490 C   0  0  0  0  0  0  0  0  0  0  0  0
   57.9940   28.9470   45.6670 C   0  0  0  0  0  0  0  0  0  0  0  0
   56.7250   28.3480   45.5440 C   0  0  0  0  0  0  0  0  0  0  0  0
   55.6670   28.9580   44.8490 O   0  0  0  0  0  0  0  0  0  0  0  0
   55.7840   29.7180   43.6360 C   0  0  0  0  0  0  0  0  0  0  0  0
   56.5930   31.0290   43.7830 C   0  0  0  0  0  0  0  0  0  0  0  0
   58.1000   31.0290   43.5520 C   0  0  0  0  0  0  0  0  0  0  0  0
   57.1680   31.5640   42.4760 C   0  0  0  0  0  0  0  0  0  0  0  0
   54.8905   24.5269   46.4902 H   0  0  0  0  0  0  0  0  0  0  0  0
   54.0735   25.0752   44.9873 H   0  0  0  0  0  0  0  0  0  0  0  0
   55.8438   24.7706   44.9873 H   0  0  0  0  0  0  0  0  0  0  0  0
   57.3887   25.4075   47.1703 H   0  0  0  0  0  0  0  0  0  0  0  0
   59.6298   26.4688   47.3598 H   0  0  0  0  0  0  0  0  0  0  0  0
   61.5330   28.9500   48.1040 H   0  0  0  0  0  0  0  0  0  0  0  0
   61.4325   31.1733   46.2277 H   0  0  0  0  0  0  0  0  0  0  0  0
   62.4555   31.1149   47.5743 H   0  0  0  0  0  0  0  0  0  0  0  0
   60.3986   32.2877   48.9091 H   0  0  0  0  0  0  0  0  0  0  0  0
   57.5050   31.6834   47.6125 H   0  0  0  0  0  0  0  0  0  0  0  0
   56.3098   33.1883   46.0241 H   0  0  0  0  0  0  0  0  0  0  0  0
   60.0467   35.0687   44.9507 H   0  0  0  0  0  0  0  0  0  0  0  0
   58.8030   29.9506   47.9610 H   0  0  0  0  0  0  0  0  0  0  0  0
   59.6929   29.8307   49.3937 H   0  0  0  0  0  0  0  0  0  0  0  0
   58.1617   29.9559   45.2621 H   0  0  0  0  0  0  0  0  0  0  0  0
   56.2802   29.0894   42.8819 H   0  0  0  0  0  0  0  0  0  0  0  0
   54.7634   30.0078   43.3455 H   0  0  0  0  0  0  0  0  0  0  0  0
   55.9643   31.3992   44.6063 H   0  0  0  0  0  0  0  0  0  0  0  0
   58.7427   31.7208   44.1163 H   0  0  0  0  0  0  0  0  0  0  0  0
   58.8915   30.2658   43.5855 H   0  0  0  0  0  0  0  0  0  0  0  0
   57.1367   32.6426   42.2623 H   0  0  0  0  0  0  0  0  0  0  0  0
   57.0066   31.3478   41.4096 H   0  0  0  0  0  0  0  0  0  0  0  0
  1  2  1  0
  2  3  1  0
  3  4  2  0
  4  5  1  0
  5  6  2  0
  6  7  1  0
  7  8  2  0
  7  9  1  0
  9 10  1  0
 10 11  1  0
 11 12  1  0
 12 13  2  0
 13 14  1  0
 14 15  2  0
 15 16  1  0
 15 17  1  0
 17 18  2  0
 18 19  1  0
 11 20  1  0
  6 21  1  0
 21 22  2  0
 22 23  1  0
 23 24  1  0
 24 25  1  0
 25 26  1  0
 26 27  1  0
 22  3  1  0
 27 25  1  0
 20  9  1  0
 18 12  1  0
  1 28  1  0
  1 29  1  0
  1 30  1  0
  4 31  1  0
  5 32  1  0
  9 33  1  1
 10 34  1  0
 10 35  1  0
 11 36  1  1
 13 37  1  0
 14 38  1  0
 17 39  1  0
 20 40  1  0
 20 41  1  0
 21 42  1  0
 24 43  1  0
 24 44  1  0
 25 45  1  0
 26 46  1  0
 26 47  1  0
 27 48  1  0
 27 49  1  0
M  CHG  1   9   1
M  END
>  <UniqueID>  (42) 
40

>  <SMILES>  (42) 
COc1ccc(C(=O)[NH+]2CC(c3ccc(F)cc3F)C2)cc1OCC1CC1

>  <Energy>  (42) 
401.75511579439876

>  <Genealogy>  (42) 
COc1ccc(C(=O)[NH+]2CC(c3ccc(F)cc3F)C2)cc1OCC1CC1 (protonated)
COc1ccc(C(=O)[NH+]2CC(c3ccc(F)cc3F)C2)cc1OCC1CC1 (3D coordinates assigned)
COc1ccc(C(=O)[NH+]2CC(c3ccc(F)cc3F)C2)cc1OCC1CC1 (nonaromatic ring conformer: 401.75511579439876 kcal/mol)

>  <smiles>  (42) 
COc1ccc(C(=O)N2CC(c3ccc(F)cc3F)C2)cc1OCC1CC1

>  <score_type>  (42) 
oracle

>  <origin>  (42) 
adg

>  <m_score__min__energy>  (42) 
-7.29

>  <m_primary>  (42) 
energy

$$$$
42:0
     RDKit          3D

 45 47  0  0  0  0  0  0  0  0999 V2000
   55.1720   26.7080   46.0230 O   0  0  0  0  0  0  0  0  0  0  0  0
   56.4180   26.6380   45.8540 C   0  0  0  0  0  0  0  0  0  0  0  0
   57.2260   25.7480   46.7580 C   0  0  0  0  0  0  0  0  0  0  0  0
   58.8430   25.3350   46.0110 S   0  0  0  0  0  0  0  0  0  0  0  0
   58.2630   23.8950   45.1080 C   0  0  0  0  0  0  0  0  0  0  0  0
   58.9270   22.6690   45.2360 C   0  0  0  0  0  0  0  0  0  0  0  0
   58.4650   21.5470   44.5430 C   0  0  0  0  0  0  0  0  0  0  0  0
   57.3350   21.6430   43.7260 C   0  0  0  0  0  0  0  0  0  0  0  0
   56.6600   22.8630   43.6030 C   0  0  0  0  0  0  0  0  0  0  0  0
   55.5310   22.9450   42.7900 O   0  0  0  0  0  0  0  0  0  0  0  0
   57.1220   23.9880   44.3000 C   0  0  0  0  0  0  0  0  0  0  0  0
   57.0290   27.4950   44.8800 N   0  0  0  0  0  0  0  0  0  0  0  0
   57.2620   28.9030   45.0020 C   0  0  0  0  0  0  0  0  0  0  0  0
   56.4340   29.7920   44.3060 C   0  0  0  0  0  0  0  0  0  0  0  0
   56.6490   31.1710   44.3880 C   0  0  0  0  0  0  0  0  0  0  0  0
   57.7050   31.6760   45.1590 C   0  0  0  0  0  0  0  0  0  0  0  0
   57.9790   33.4190   45.2620 S   0  0  0  0  0  0  0  0  0  0  0  0
   58.7830   33.8590   44.0710 O   0  0  0  0  0  0  0  0  0  0  0  0
   56.6530   34.1270   45.2160 O   0  0  0  0  0  0  0  0  0  0  0  0
   58.8210   33.8870   46.7200 N   0  0  0  0  0  0  0  0  0  0  0  0
   60.2640   33.6830   46.6100 C   0  0  0  0  0  0  0  0  0  0  0  0
   60.7820   33.5040   48.0290 C   0  0  0  0  0  0  0  0  0  0  0  0
   59.5640   33.1190   48.8570 C   0  0  0  0  0  0  0  0  0  0  0  0
   58.4010   33.0960   47.8760 C   0  0  0  0  0  0  0  0  0  0  0  0
   58.5610   30.7850   45.8210 C   0  0  0  0  0  0  0  0  0  0  0  0
   58.3450   29.4070   45.7390 C   0  0  0  0  0  0  0  0  0  0  0  0
   57.3946   26.2661   47.7136 H   0  0  0  0  0  0  0  0  0  0  0  0
   56.6673   24.8136   46.9153 H   0  0  0  0  0  0  0  0  0  0  0  0
   59.8132   22.5890   45.8827 H   0  0  0  0  0  0  0  0  0  0  0  0
   58.9917   20.5862   44.6406 H   0  0  0  0  0  0  0  0  0  0  0  0
   56.9758   20.7588   43.1791 H   0  0  0  0  0  0  0  0  0  0  0  0
   55.5780   23.3310   41.8560 H   0  0  0  0  0  0  0  0  0  0  0  0
   56.5878   24.9456   44.2125 H   0  0  0  0  0  0  0  0  0  0  0  0
   55.6092   29.4030   43.6909 H   0  0  0  0  0  0  0  0  0  0  0  0
   55.9871   31.8621   43.8455 H   0  0  0  0  0  0  0  0  0  0  0  0
   60.4767   32.7851   46.0113 H   0  0  0  0  0  0  0  0  0  0  0  0
   60.7504   34.5350   46.1125 H   0  0  0  0  0  0  0  0  0  0  0  0
   61.5395   32.7072   48.0648 H   0  0  0  0  0  0  0  0  0  0  0  0
   61.2626   34.4180   48.4079 H   0  0  0  0  0  0  0  0  0  0  0  0
   59.7048   32.1269   49.3107 H   0  0  0  0  0  0  0  0  0  0  0  0
   59.3899   33.8252   49.6822 H   0  0  0  0  0  0  0  0  0  0  0  0
   58.1814   32.0624   47.5703 H   0  0  0  0  0  0  0  0  0  0  0  0
   57.4876   33.5073   48.3303 H   0  0  0  0  0  0  0  0  0  0  0  0
   59.4068   31.1725   46.4079 H   0  0  0  0  0  0  0  0  0  0  0  0
   59.0266   28.7142   46.2542 H   0  0  0  0  0  0  0  0  0  0  0  0
  1  2  2  0
  2  3  1  0
  3  4  1  0
  4  5  1  0
  5  6  2  0
  6  7  1  0
  7  8  2  0
  8  9  1  0
  9 10  1  0
  9 11  2  0
  2 12  1  0
 12 13  1  0
 13 14  2  0
 14 15  1  0
 15 16  2  0
 16 17  1  0
 17 18  2  0
 17 19  2  0
 17 20  1  0
 20 21  1  0
 21 22  1  0
 22 23  1  0
 23 24  1  0
 16 25  1  0
 25 26  2  0
 11  5  1  0
 26 13  1  0
 24 20  1  0
  3 27  1  0
  3 28  1  0
  6 29  1  0
  7 30  1  0
  8 31  1  0
 10 32  1  0
 11 33  1  0
 14 34  1  0
 15 35  1  0
 21 36  1  0
 21 37  1  0
 22 38  1  0
 22 39  1  0
 23 40  1  0
 23 41  1  0
 24 42  1  0
 24 43  1  0
 25 44  1  0
 26 45  1  0
M  CHG  1  12  -1
M  END
>  <UniqueID>  (43) 
41

>  <SMILES>  (43) 
O=C(CSc1cccc(O)c1)[N-]c1ccc(S(=O)(=O)N2CCCC2)cc1

>  <Energy>  (43) 
48.17231689313

>  <Genealogy>  (43) 
O=C(CSc1cccc(O)c1)[N-]c1ccc(S(=O)(=O)N2CCCC2)cc1 (protonated)
O=C(CSc1cccc(O)c1)[N-]c1ccc(S(=O)(=O)N2CCCC2)cc1 (3D coordinates assigned)
O=C(CSc1cccc(O)c1)[N-]c1ccc(S(=O)(=O)N2CCCC2)cc1 (nonaromatic ring conformer: 48.17231689313 kcal/mol)

>  <smiles>  (43) 
O=C(CSc1cccc(O)c1)Nc1ccc(S(=O)(=O)N2CCCC2)cc1

>  <score_type>  (43) 
oracle

>  <origin>  (43) 
adg

>  <m_score__min__energy>  (43) 
-10.66

>  <m_primary>  (43) 
energy

$$$$
43:0
     RDKit          3D

 39 40  0  0  0  0  0  0  0  0999 V2000
   61.1960   33.8490   46.9840 C   0  0  0  0  0  0  0  0  0  0  0  0
   59.9420   34.1530   47.7460 C   0  0  0  0  0  0  0  0  0  0  0  0
   60.0360   34.5910   48.9220 O   0  0  0  0  0  0  0  0  0  0  0  0
   58.6400   33.9240   47.1920 N   0  0  0  0  0  0  0  0  0  0  0  0
   58.3240   33.1150   46.0510 C   0  0  0  0  0  0  0  0  0  0  0  0
   58.4890   33.5910   44.7400 C   0  0  0  0  0  0  0  0  0  0  0  0
   58.1290   32.7930   43.6520 C   0  0  0  0  0  0  0  0  0  0  0  0
   57.5980   31.5170   43.8610 C   0  0  0  0  0  0  0  0  0  0  0  0
   57.4250   31.0300   45.1690 C   0  0  0  0  0  0  0  0  0  0  0  0
   56.8470   29.7430   45.4320 N   0  0  0  0  0  0  0  0  0  0  0  0
   57.0880   28.5280   44.7080 C   0  0  0  0  0  0  0  0  0  0  0  0
   57.0140   28.5260   43.4490 O   0  0  0  0  0  0  0  0  0  0  0  0
   57.4630   27.2770   45.4230 C   0  0  0  0  0  0  0  0  0  0  0  0
   58.8240   26.9370   45.5340 C   0  0  0  0  0  0  0  0  0  0  0  0
   59.2170   25.7720   46.1900 C   0  0  0  0  0  0  0  0  0  0  0  0
   58.2640   24.9240   46.7470 C   0  0  0  0  0  0  0  0  0  0  0  0
   56.8970   25.2330   46.6570 C   0  0  0  0  0  0  0  0  0  0  0  0
   55.8960   24.3760   47.2270 N   0  0  0  0  0  0  0  0  0  0  0  0
   54.6420   23.5470   46.3630 S   0  0  0  0  0  0  0  0  0  0  0  0
   53.8740   22.3310   47.4120 C   0  0  0  0  0  0  0  0  0  0  0  0
   55.2500   22.8470   45.1810 O   0  0  0  0  0  0  0  0  0  0  0  0
   53.6200   24.5320   45.8660 O   0  0  0  0  0  0  0  0  0  0  0  0
   56.4940   26.4150   45.9960 C   0  0  0  0  0  0  0  0  0  0  0  0
   55.1370   26.7400   45.9180 O   0  0  0  0  0  0  0  0  0  0  0  0
   57.7630   31.8470   46.2550 C   0  0  0  0  0  0  0  0  0  0  0  0
   62.0153   33.6504   47.6906 H   0  0  0  0  0  0  0  0  0  0  0  0
   61.0350   32.9639   46.3511 H   0  0  0  0  0  0  0  0  0  0  0  0
   61.4582   34.7096   46.3511 H   0  0  0  0  0  0  0  0  0  0  0  0
   58.9032   34.5957   44.5697 H   0  0  0  0  0  0  0  0  0  0  0  0
   58.2637   33.1697   42.6273 H   0  0  0  0  0  0  0  0  0  0  0  0
   57.3149   30.8926   43.0008 H   0  0  0  0  0  0  0  0  0  0  0  0
   59.5868   27.5987   45.0978 H   0  0  0  0  0  0  0  0  0  0  0  0
   60.2852   25.5214   46.2680 H   0  0  0  0  0  0  0  0  0  0  0  0
   58.5838   24.0056   47.2611 H   0  0  0  0  0  0  0  0  0  0  0  0
   54.0422   22.5972   48.4660 H   0  0  0  0  0  0  0  0  0  0  0  0
   52.7933   22.3018   47.2091 H   0  0  0  0  0  0  0  0  0  0  0  0
   54.3120   21.3426   47.2091 H   0  0  0  0  0  0  0  0  0  0  0  0
   54.4150   26.2060   46.3850 H   0  0  0  0  0  0  0  0  0  0  0  0
   57.5861   31.4894   47.2801 H   0  0  0  0  0  0  0  0  0  0  0  0
  1  2  1  0
  2  3  2  0
  2  4  1  0
  4  5  1  0
  5  6  2  0
  6  7  1  0
  7  8  2  0
  8  9  1  0
  9 10  1  0
 10 11  1  0
 11 12  2  0
 11 13  1  0
 13 14  2  0
 14 15  1  0
 15 16  2  0
 16 17  1  0
 17 18  1  0
 18 19  1  0
 19 20  1  0
 19 21  2  0
 19 22  2  0
 17 23  2  0
 23 24  1  0
  9 25  2  0
 25  5  1  0
 23 13  1  0
  1 26  1  0
  1 27  1  0
  1 28  1  0
  6 29  1  0
  7 30  1  0
  8 31  1  0
 14 32  1  0
 15 33  1  0
 16 34  1  0
 20 35  1  0
 20 36  1  0
 20 37  1  0
 24 38  1  0
 25 39  1  0
M  CHG  3   4  -1  10  -1  18  -1
M  END
>  <UniqueID>  (44) 
42

>  <SMILES>  (44) 
CC(=O)[N-]c1cccc([N-]C(=O)c2cccc([N-]S(C)(=O)=O)c2O)c1

>  <Energy>  (44) 
49.01060737155361

>  <Genealogy>  (44) 
CC(=O)[N-]c1cccc([N-]C(=O)c2cccc([N-]S(C)(=O)=O)c2O)c1 (protonated)
CC(=O)[N-]c1cccc([N-]C(=O)c2cccc([N-]S(C)(=O)=O)c2O)c1 (3D coordinates assigned)
CC(=O)[N-]c1cccc([N-]C(=O)c2cccc([N-]S(C)(=O)=O)c2O)c1 (optimized conformer: 49.01060737155361 kcal/mol)

>  <smiles>  (44) 
CC(=O)Nc1cccc(NC(=O)c2cccc(NS(C)(=O)=O)c2O)c1

>  <score_type>  (44) 
oracle

>  <origin>  (44) 
adg

>  <m_score__min__energy>  (44) 
-12.9

>  <m_primary>  (44) 
energy

$$$$
44:0
     RDKit          3D

 54 58  0  0  0  0  0  0  0  0999 V2000
   56.2780   29.2690   42.8630 O   0  0  0  0  0  0  0  0  0  0  0  0
   56.0610   29.9030   43.9270 C   0  0  0  0  0  0  0  0  0  0  0  0
   55.1600   29.3980   44.8560 O   0  0  0  0  0  0  0  0  0  0  0  0
   56.7260   31.2220   44.1730 C   0  0  0  0  0  0  0  0  0  0  0  0
   58.1350   31.0120   44.7480 C   0  0  0  0  0  0  0  0  0  0  0  0
   58.3730   31.8250   46.0070 C   0  0  0  0  0  0  0  0  0  0  0  0
   58.4780   33.2260   45.8920 C   0  0  0  0  0  0  0  0  0  0  0  0
   58.8140   34.0160   46.9930 C   0  0  0  0  0  0  0  0  0  0  0  0
   58.8910   35.3970   46.8530 O   0  0  0  0  0  0  0  0  0  0  0  0
   59.0890   33.4210   48.2240 C   0  0  0  0  0  0  0  0  0  0  0  0
   59.4410   34.2150   49.3140 O   0  0  0  0  0  0  0  0  0  0  0  0
   59.0160   32.0310   48.3520 C   0  0  0  0  0  0  0  0  0  0  0  0
   58.6360   31.2230   47.2680 C   0  0  0  0  0  0  0  0  0  0  0  0
   58.6450   29.7560   47.4720 C   0  0  0  0  0  0  0  0  0  0  0  0
   57.7750   28.9790   46.6880 C   0  0  0  0  0  0  0  0  0  0  0  0
   57.7480   27.5890   46.8180 C   0  0  0  0  0  0  0  0  0  0  0  0
   56.8780   26.8380   46.0360 O   0  0  0  0  0  0  0  0  0  0  0  0
   58.5950   26.9570   47.7300 C   0  0  0  0  0  0  0  0  0  0  0  0
   58.5750   25.5740   47.8600 O   0  0  0  0  0  0  0  0  0  0  0  0
   59.4690   27.7140   48.5120 C   0  0  0  0  0  0  0  0  0  0  0  0
   59.5070   29.1150   48.3970 C   0  0  0  0  0  0  0  0  0  0  0  0
   60.4570   29.8630   49.2530 C   0  0  0  0  0  0  0  0  0  0  0  0
   60.4940   29.9510   50.6520 C   0  0  0  0  0  0  0  0  0  0  0  0
   59.5600   29.3480   51.6230 C   0  0  0  0  0  0  0  0  0  0  0  0
   60.0620   28.4330   52.5620 C   0  0  0  0  0  0  0  0  0  0  0  0
   59.2110   27.8450   53.5010 C   0  0  0  0  0  0  0  0  0  0  0  0
   57.8540   28.1770   53.5210 C   0  0  0  0  0  0  0  0  0  0  0  0
   57.0070   27.5840   54.4490 O   0  0  0  0  0  0  0  0  0  0  0  0
   57.3500   29.1120   52.6130 C   0  0  0  0  0  0  0  0  0  0  0  0
   58.1990   29.7110   51.6750 C   0  0  0  0  0  0  0  0  0  0  0  0
   57.6830   30.6840   50.8250 O   0  0  0  0  0  0  0  0  0  0  0  0
   61.5150   30.6970   51.0320 O   0  0  0  0  0  0  0  0  0  0  0  0
   62.1260   31.1250   49.9560 C   0  0  0  0  0  0  0  0  0  0  0  0
   63.2500   31.9440   49.8980 C   0  0  0  0  0  0  0  0  0  0  0  0
   63.7550   32.2840   48.6300 C   0  0  0  0  0  0  0  0  0  0  0  0
   64.8740   33.1010   48.5270 O   0  0  0  0  0  0  0  0  0  0  0  0
   63.1320   31.7960   47.4610 C   0  0  0  0  0  0  0  0  0  0  0  0
   62.0020   30.9610   47.5500 C   0  0  0  0  0  0  0  0  0  0  0  0
   61.4160   30.4530   46.3980 O   0  0  0  0  0  0  0  0  0  0  0  0
   61.5110   30.6530   48.8240 C   0  0  0  0  0  0  0  0  0  0  0  0
   56.8002   31.7732   43.2239 H   0  0  0  0  0  0  0  0  0  0  0  0
   56.1269   31.7944   44.8965 H   0  0  0  0  0  0  0  0  0  0  0  0
   58.2640   29.9459   44.9863 H   0  0  0  0  0  0  0  0  0  0  0  0
   58.8595   31.3463   43.9909 H   0  0  0  0  0  0  0  0  0  0  0  0
   58.2922   33.7045   44.9191 H   0  0  0  0  0  0  0  0  0  0  0  0
   59.4620   35.2270   49.2480 H   0  0  0  0  0  0  0  0  0  0  0  0
   59.2600   31.5626   49.3169 H   0  0  0  0  0  0  0  0  0  0  0  0
   57.1084   29.4710   45.9644 H   0  0  0  0  0  0  0  0  0  0  0  0
   60.1357   27.2088   49.2264 H   0  0  0  0  0  0  0  0  0  0  0  0
   61.1319   28.1775   52.5584 H   0  0  0  0  0  0  0  0  0  0  0  0
   59.6098   27.1197   54.2255 H   0  0  0  0  0  0  0  0  0  0  0  0
   56.2829   29.3781   52.6354 H   0  0  0  0  0  0  0  0  0  0  0  0
   63.7290   32.3143   50.8164 H   0  0  0  0  0  0  0  0  0  0  0  0
   63.5322   32.0701   46.4737 H   0  0  0  0  0  0  0  0  0  0  0  0
  1  2  2  0
  2  3  1  0
  2  4  1  0
  4  5  1  0
  5  6  1  0
  6  7  2  0
  7  8  1  0
  8  9  1  0
  8 10  2  0
 10 11  1  0
 10 12  1  0
 12 13  2  0
 13 14  1  0
 14 15  2  0
 15 16  1  0
 16 17  1  0
 16 18  2  0
 18 19  1  0
 18 20  1  0
 20 21  2  0
 21 22  1  0
 22 23  2  0
 23 24  1  0
 24 25  2  0
 25 26  1  0
 26 27  2  0
 27 28  1  0
 27 29  1  0
 29 30  2  0
 30 31  1  0
 23 32  1  0
 32 33  1  0
 33 34  2  0
 34 35  1  0
 35 36  1  0
 35 37  2  0
 37 38  1  0
 38 39  1  0
 38 40  2  0
 13  6  1  0
 21 14  1  0
 40 22  1  0
 30 24  1  0
 40 33  1  0
  4 41  1  0
  4 42  1  0
  5 43  1  0
  5 44  1  0
  7 45  1  0
 11 46  1  0
 12 47  1  0
 15 48  1  0
 20 49  1  0
 25 50  1  0
 26 51  1  0
 29 52  1  0
 34 53  1  0
 37 54  1  0
M  CHG  8   3  -1   9  -1  17  -1  19  -1  28  -1  31  -1  36  -1  39  -1
M  END
>  <UniqueID>  (45) 
43

>  <SMILES>  (45) 
O=C([O-])CCc1cc([O-])c(O)cc1-c1cc([O-])c([O-])cc1-c1c(-c2ccc([O-])cc2[O-])oc2cc([O-])cc([O-])c12

>  <Energy>  (45) 
109.46062863403235

>  <Genealogy>  (45) 
O=C([O-])CCc1cc([O-])c(O)cc1-c1cc([O-])c([O-])cc1-c1c(-c2ccc([O-])cc2[O-])oc2cc([O-])cc([O-])c12 (protonated)
O=C([O-])CCc1cc([O-])c(O)cc1-c1cc([O-])c([O-])cc1-c1c(-c2ccc([O-])cc2[O-])oc2cc([O-])cc([O-])c12 (3D coordinates assigned)
O=C([O-])CCc1cc([O-])c(O)cc1-c1cc([O-])c([O-])cc1-c1c(-c2ccc([O-])cc2[O-])oc2cc([O-])cc([O-])c12 (optimized conformer: 109.46062863403235 kcal/mol)

>  <smiles>  (45) 
O=C(O)CCc1cc(O)c(O)cc1-c1cc(O)c(O)cc1-c1c(-c2ccc(O)cc2O)oc2cc(O)cc(O)c12

>  <score_type>  (45) 
oracle

>  <origin>  (45) 
adg

>  <m_score__min__energy>  (45) 
-16.379999999999999

>  <m_primary>  (45) 
energy

$$$$
45:0
     RDKit          3D

 51 54  0  0  0  0  0  0  0  0999 V2000
   59.5589   27.8123   45.7202 H   0  0  0  0  0  0  0  0  0  0  0  0
   58.7290   27.8990   46.4370 C   0  0  0  0  0  0  0  0  0  0  0  0
   59.0770   27.9840   47.8720 C   0  0  0  0  0  0  0  0  0  0  0  0
   59.9650   27.2260   48.3440 O   0  0  0  0  0  0  0  0  0  0  0  0
   58.5430   29.0210   48.7100 N   0  0  0  0  0  0  0  0  0  0  0  0
   59.1070   29.5850   49.7440 C   0  0  0  0  0  0  0  0  0  0  0  0
   58.3220   30.1970   50.8440 C   0  0  0  0  0  0  0  0  0  0  0  0
   57.5910   29.4610   51.5580 O   0  0  0  0  0  0  0  0  0  0  0  0
   58.3960   31.5970   51.1460 N   0  0  0  0  0  0  0  0  0  0  0  0
   59.5010   32.2630   51.2960 C   0  0  0  0  0  0  0  0  0  0  0  0
   60.3498   31.8126   51.8314 H   0  0  0  0  0  0  0  0  0  0  0  0
   59.6130   33.6450   50.7370 C   0  0  0  0  0  0  0  0  0  0  0  0
   58.8762   34.2954   51.2311 H   0  0  0  0  0  0  0  0  0  0  0  0
   60.6321   34.0181   50.9168 H   0  0  0  0  0  0  0  0  0  0  0  0
   59.3550   33.6410   49.2650 C   0  0  0  0  0  0  0  0  0  0  0  0
   58.5200   32.7490   48.6680 N   0  0  0  0  0  0  0  0  0  0  0  0
   58.5430   33.1440   47.3880 C   0  0  0  0  0  0  0  0  0  0  0  0
   57.8580   32.5840   46.3120 C   0  0  0  0  0  0  0  0  0  0  0  0
   57.2085   31.7062   46.4446 H   0  0  0  0  0  0  0  0  0  0  0  0
   58.0270   33.1820   45.0490 C   0  0  0  0  0  0  0  0  0  0  0  0
   57.5035   32.7690   44.1741 H   0  0  0  0  0  0  0  0  0  0  0  0
   58.8660   34.3110   44.8980 C   0  0  0  0  0  0  0  0  0  0  0  0
   58.9915   34.7708   43.9066 H   0  0  0  0  0  0  0  0  0  0  0  0
   59.5410   34.8490   46.0100 C   0  0  0  0  0  0  0  0  0  0  0  0
   60.1954   35.7273   45.9086 H   0  0  0  0  0  0  0  0  0  0  0  0
   59.3510   34.2300   47.2430 C   0  0  0  0  0  0  0  0  0  0  0  0
   59.8790   34.5750   48.4250 N   0  0  0  0  0  0  0  0  0  0  0  0
   60.6010   29.4820   49.8850 C   0  0  0  0  0  0  0  0  0  0  0  0
   60.8719   29.5753   50.9470 H   0  0  0  0  0  0  0  0  0  0  0  0
   60.9294   28.5074   49.4948 H   0  0  0  0  0  0  0  0  0  0  0  0
   61.2800   30.5750   49.1020 C   0  0  0  0  0  0  0  0  0  0  0  0
   60.9570   30.7860   47.7510 C   0  0  0  0  0  0  0  0  0  0  0  0
   60.1849   30.1683   47.2690 H   0  0  0  0  0  0  0  0  0  0  0  0
   61.6140   31.7790   47.0170 C   0  0  0  0  0  0  0  0  0  0  0  0
   61.3536   31.9446   45.9612 H   0  0  0  0  0  0  0  0  0  0  0  0
   62.6020   32.5620   47.6240 C   0  0  0  0  0  0  0  0  0  0  0  0
   63.4250   33.8050   46.7000 Cl  0  0  0  0  0  0  0  0  0  0  0  0
   62.9380   32.3470   48.9650 C   0  0  0  0  0  0  0  0  0  0  0  0
   63.7180   32.9596   49.4408 H   0  0  0  0  0  0  0  0  0  0  0  0
   62.2840   31.3550   49.7010 C   0  0  0  0  0  0  0  0  0  0  0  0
   62.5561   31.1841   50.7530 H   0  0  0  0  0  0  0  0  0  0  0  0
   57.4830   27.9190   45.9380 C   0  0  0  0  0  0  0  0  0  0  0  0
   56.8039   27.1111   46.2481 H   0  0  0  0  0  0  0  0  0  0  0  0
   56.9470   28.9310   45.0100 C   0  0  0  0  0  0  0  0  0  0  0  0
   55.6610   29.1670   44.8760 O   0  0  0  0  0  0  0  0  0  0  0  0
   55.4950   30.0830   43.9500 C   0  0  0  0  0  0  0  0  0  0  0  0
   54.5246   30.4893   43.6287 H   0  0  0  0  0  0  0  0  0  0  0  0
   56.7200   30.4590   43.4410 C   0  0  0  0  0  0  0  0  0  0  0  0
   56.9085   31.2041   42.6541 H   0  0  0  0  0  0  0  0  0  0  0  0
   57.6600   29.7130   44.1170 C   0  0  0  0  0  0  0  0  0  0  0  0
   58.7508   29.7341   43.9766 H   0  0  0  0  0  0  0  0  0  0  0  0
  1  2  1  0
  2  3  1  0
  3  4  2  0
  3  5  1  0
  5  6  2  3
  6  7  1  0
  7  8  2  0
  7  9  1  0
  9 10  2  0
 10 11  1  0
 10 12  1  0
 12 13  1  0
 12 14  1  0
 12 15  1  0
 15 16  2  0
 16 17  1  0
 17 18  2  0
 18 19  1  0
 18 20  1  0
 20 21  1  0
 20 22  2  0
 22 23  1  0
 22 24  1  0
 24 25  1  0
 24 26  2  0
 26 27  1  0
  6 28  1  0
 28 29  1  0
 28 30  1  0
 28 31  1  0
 31 32  2  0
 32 33  1  0
 32 34  1  0
 34 35  1  0
 34 36  2  0
 36 37  1  0
 36 38  1  0
 38 39  1  0
 38 40  2  0
 40 41  1  0
  2 42  2  3
 42 43  1  0
 42 44  1  0
 44 45  1  0
 45 46  1  0
 46 47  1  0
 46 48  2  0
 48 49  1  0
 48 50  1  0
 50 51  1  0
 27 15  1  0
 40 31  1  0
 50 44  2  0
 26 17  1  0
M  CHG  1  27  -1
M  END
>  <UniqueID>  (46) 
44

>  <SMILES>  (46) 
O=C(C=Cc1ccco1)N=C(Cc1ccc(Cl)cc1)C(=O)/N=C/Cc1nc2ccccc2[n-]1

>  <Energy>  (46) 
128.26849258056257

>  <Genealogy>  (46) 
O=C(C=Cc1ccco1)N=C(Cc1ccc(Cl)cc1)C(=O)N=CCc1nc2ccccc2[n-]1 (protonated)
O=C(C=Cc1ccco1)N=C(Cc1ccc(Cl)cc1)C(=O)/N=C/Cc1nc2ccccc2[n-]1 (cis-trans isomerization)
O=C(C=Cc1ccco1)N=C(Cc1ccc(Cl)cc1)C(=O)/N=C/Cc1nc2ccccc2[n-]1 (3D coordinates assigned)
O=C(C=Cc1ccco1)N=C(Cc1ccc(Cl)cc1)C(=O)/N=C/Cc1nc2ccccc2[n-]1 (optimized conformer: 128.26849258056257 kcal/mol)

>  <smiles>  (46) 
O=C(C=Cc1ccco1)N=C(Cc1ccc(Cl)cc1)C(=O)N=CCc1nc2ccccc2[nH]1

>  <score_type>  (46) 
oracle

>  <origin>  (46) 
adg

>  <m_score__min__energy>  (46) 
-10.4

>  <m_primary>  (46) 
energy

$$$$
46:0
     RDKit          3D

 49 51  0  0  0  0  0  0  0  0999 V2000
   60.5940   29.0760   44.8820 O   0  0  0  0  0  0  0  0  0  0  0  0
   59.4260   28.6100   44.9730 C   0  0  0  0  0  0  0  0  0  0  0  0
   59.2390   27.1390   45.2030 C   0  0  0  0  0  0  0  0  0  0  0  0
   58.5740   26.8610   46.5580 C   0  0  0  0  0  0  0  0  0  0  0  0
   57.2850   26.0980   46.4030 C   0  0  0  0  0  0  0  0  0  0  0  0
   57.1520   24.7610   46.7670 C   0  0  0  0  0  0  0  0  0  0  0  0
   55.5460   24.4080   46.4950 S   0  0  0  0  0  0  0  0  0  0  0  0
   54.9840   25.8670   45.9360 N   0  0  0  0  0  0  0  0  0  0  0  0
   56.0720   26.6770   45.9570 C   0  0  0  0  0  0  0  0  0  0  0  0
   55.9920   27.8820   45.6000 O   0  0  0  0  0  0  0  0  0  0  0  0
   58.2830   29.4820   44.9610 N   0  0  0  0  0  0  0  0  0  0  0  0
   58.3720   30.9140   44.8830 C   0  0  0  0  0  0  0  0  0  0  0  0
   58.0280   31.6050   43.7100 C   0  0  0  0  0  0  0  0  0  0  0  0
   58.1050   33.0000   43.6680 C   0  0  0  0  0  0  0  0  0  0  0  0
   58.5140   33.7150   44.7960 C   0  0  0  0  0  0  0  0  0  0  0  0
   58.8440   33.0370   45.9770 C   0  0  0  0  0  0  0  0  0  0  0  0
   59.3320   33.9240   47.4210 S   0  0  0  0  0  0  0  0  0  0  0  0
   58.9220   35.3600   47.2520 O   0  0  0  0  0  0  0  0  0  0  0  0
   58.6150   33.3720   48.6210 O   0  0  0  0  0  0  0  0  0  0  0  0
   61.0680   33.8500   47.6430 N   0  0  0  0  0  0  0  0  0  0  0  0
   61.8580   33.6480   46.4130 C   0  0  0  0  0  0  0  0  0  0  0  0
   63.3730   33.8360   46.6090 C   0  0  0  0  0  0  0  0  0  0  0  0
   63.9900   32.8750   47.6390 C   0  0  0  0  0  0  0  0  0  0  0  0
   64.0100   33.3850   49.0900 C   0  0  0  0  0  0  0  0  0  0  0  0
   62.6190   33.7080   49.6550 C   0  0  0  0  0  0  0  0  0  0  0  0
   61.4840   33.0740   48.8270 C   0  0  0  0  0  0  0  0  0  0  0  0
   58.7620   31.6390   46.0190 C   0  0  0  0  0  0  0  0  0  0  0  0
   58.6044   26.7301   44.4029 H   0  0  0  0  0  0  0  0  0  0  0  0
   60.2296   26.6609   45.2005 H   0  0  0  0  0  0  0  0  0  0  0  0
   59.2643   26.2712   47.1789 H   0  0  0  0  0  0  0  0  0  0  0  0
   58.3442   27.8274   47.0305 H   0  0  0  0  0  0  0  0  0  0  0  0
   57.9331   24.0873   47.1491 H   0  0  0  0  0  0  0  0  0  0  0  0
   57.3530   29.0660   45.1930 H   0  0  0  0  0  0  0  0  0  0  0  0
   57.6970   31.0469   42.8217 H   0  0  0  0  0  0  0  0  0  0  0  0
   57.8428   33.5362   42.7440 H   0  0  0  0  0  0  0  0  0  0  0  0
   58.5772   34.8125   44.7571 H   0  0  0  0  0  0  0  0  0  0  0  0
   61.6797   32.6249   46.0506 H   0  0  0  0  0  0  0  0  0  0  0  0
   61.5310   34.4130   45.6934 H   0  0  0  0  0  0  0  0  0  0  0  0
   63.8706   33.6734   45.6415 H   0  0  0  0  0  0  0  0  0  0  0  0
   63.5220   34.8559   46.9932 H   0  0  0  0  0  0  0  0  0  0  0  0
   63.4136   31.9384   47.6167 H   0  0  0  0  0  0  0  0  0  0  0  0
   65.0434   32.7538   47.3465 H   0  0  0  0  0  0  0  0  0  0  0  0
   64.4698   32.6115   49.7227 H   0  0  0  0  0  0  0  0  0  0  0  0
   64.5811   34.3252   49.0903 H   0  0  0  0  0  0  0  0  0  0  0  0
   62.5594   33.3269   50.6852 H   0  0  0  0  0  0  0  0  0  0  0  0
   62.4890   34.7997   49.6196 H   0  0  0  0  0  0  0  0  0  0  0  0
   61.8225   32.0848   48.4851 H   0  0  0  0  0  0  0  0  0  0  0  0
   60.6072   33.0303   49.4898 H   0  0  0  0  0  0  0  0  0  0  0  0
   59.0053   31.1057   46.9498 H   0  0  0  0  0  0  0  0  0  0  0  0
  1  2  2  0
  2  3  1  0
  3  4  1  0
  4  5  1  0
  5  6  2  0
  6  7  1  0
  7  8  1  0
  8  9  1  0
  9 10  2  0
  2 11  1  0
 11 12  1  0
 12 13  2  0
 13 14  1  0
 14 15  2  0
 15 16  1  0
 16 17  1  0
 17 18  2  0
 17 19  2  0
 17 20  1  0
 20 21  1  0
 21 22  1  0
 22 23  1  0
 23 24  1  0
 24 25  1  0
 25 26  1  0
 16 27  2  0
  9  5  1  0
 27 12  1  0
 26 20  1  0
  3 28  1  0
  3 29  1  0
  4 30  1  0
  4 31  1  0
  6 32  1  0
 11 33  1  0
 13 34  1  0
 14 35  1  0
 15 36  1  0
 21 37  1  0
 21 38  1  0
 22 39  1  0
 22 40  1  0
 23 41  1  0
 23 42  1  0
 24 43  1  0
 24 44  1  0
 25 45  1  0
 25 46  1  0
 26 47  1  0
 26 48  1  0
 27 49  1  0
M  CHG  1   8  -1
M  END
>  <UniqueID>  (47) 
45

>  <SMILES>  (47) 
O=C(CCc1cs[n-]c1=O)Nc1cccc(S(=O)(=O)N2CCCCCC2)c1

>  <Energy>  (47) 
89.06225797891267

>  <Genealogy>  (47) 
O=C(CCc1cs[n-]c1=O)Nc1cccc(S(=O)(=O)N2CCCCCC2)c1 (protonated)
O=C(CCc1cs[n-]c1=O)Nc1cccc(S(=O)(=O)N2CCCCCC2)c1 (3D coordinates assigned)
O=C(CCc1cs[n-]c1=O)Nc1cccc(S(=O)(=O)N2CCCCCC2)c1 (nonaromatic ring conformer: 89.06225797891267 kcal/mol)

>  <smiles>  (47) 
O=C(CCc1cs[nH]c1=O)Nc1cccc(S(=O)(=O)N2CCCCCC2)c1

>  <score_type>  (47) 
oracle

>  <origin>  (47) 
adg

>  <m_score__min__energy>  (47) 
-9.7799999999999994

>  <m_primary>  (47) 
energy

$$$$
47:0
     RDKit          3D

 58 61  0  0  0  0  0  0  0  0999 V2000
   58.5020   21.5270   43.8980 C   0  0  0  0  0  0  0  0  0  0  0  0
   57.0310   21.8500   43.8280 C   0  0  0  0  0  0  0  0  0  0  0  0
   56.2990   21.1080   43.1200 O   0  0  0  0  0  0  0  0  0  0  0  0
   56.4450   23.0360   44.5260 C   0  0  0  0  0  0  0  0  0  0  0  0
   55.1170   23.4320   44.2540 C   0  0  0  0  0  0  0  0  0  0  0  0
   54.5690   24.5600   44.8710 C   0  0  0  0  0  0  0  0  0  0  0  0
   55.3380   25.3200   45.7630 C   0  0  0  0  0  0  0  0  0  0  0  0
   54.7690   26.4520   46.3400 O   0  0  0  0  0  0  0  0  0  0  0  0
   56.6700   24.9460   46.0550 C   0  0  0  0  0  0  0  0  0  0  0  0
   57.5460   25.8060   46.9460 C   0  0  0  0  0  0  0  0  0  0  0  0
   59.1390   26.2650   46.1490 S   0  0  0  0  0  0  0  0  0  0  0  0
   58.5490   27.7540   45.3220 C   0  0  0  0  0  0  0  0  0  0  0  0
   57.3050   27.8530   44.7680 N   0  0  0  0  0  0  0  0  0  0  0  0
   57.3370   29.0720   44.1940 C   0  0  0  0  0  0  0  0  0  0  0  0
   56.3310   29.7190   43.4790 C   0  0  0  0  0  0  0  0  0  0  0  0
   56.6370   30.9840   42.9390 C   0  0  0  0  0  0  0  0  0  0  0  0
   57.9290   31.5390   43.1320 C   0  0  0  0  0  0  0  0  0  0  0  0
   58.8750   30.8700   43.8590 N   0  0  0  0  0  0  0  0  0  0  0  0
   58.5530   29.6570   44.3800 C   0  0  0  0  0  0  0  0  0  0  0  0
   59.3400   28.8420   45.0920 N   0  0  0  0  0  0  0  0  0  0  0  0
   60.7360   29.0520   45.4750 C   0  0  0  0  0  0  0  0  0  0  0  0
   60.8210   29.5680   46.9160 C   0  0  0  0  0  0  0  0  0  0  0  0
   59.8610   30.7510   47.1160 C   0  0  0  0  0  0  0  0  0  0  0  0
   58.9300   30.5770   48.2820 C   0  0  0  0  0  0  0  0  0  0  0  0
   58.5260   29.4320   48.6290 O   0  0  0  0  0  0  0  0  0  0  0  0
   58.5040   31.7430   48.9970 N   0  0  0  0  0  0  0  0  0  0  0  0
   59.0310   33.0830   48.7780 C   0  0  0  0  0  0  0  0  0  0  0  0
   58.6800   33.5760   47.3990 C   0  0  0  0  0  0  0  0  0  0  0  0
   57.3930   33.3510   46.8750 C   0  0  0  0  0  0  0  0  0  0  0  0
   57.0500   33.8390   45.6100 C   0  0  0  0  0  0  0  0  0  0  0  0
   57.9870   34.5510   44.8570 C   0  0  0  0  0  0  0  0  0  0  0  0
   59.2660   34.7790   45.3630 C   0  0  0  0  0  0  0  0  0  0  0  0
   59.6170   34.3000   46.6330 C   0  0  0  0  0  0  0  0  0  0  0  0
   60.8900   34.5500   47.1260 O   0  0  0  0  0  0  0  0  0  0  0  0
   57.2120   23.8020   45.4360 C   0  0  0  0  0  0  0  0  0  0  0  0
   58.8127   21.4588   44.9510 H   0  0  0  0  0  0  0  0  0  0  0  0
   58.6906   20.5660   43.3970 H   0  0  0  0  0  0  0  0  0  0  0  0
   59.0759   22.3205   43.3970 H   0  0  0  0  0  0  0  0  0  0  0  0
   54.5078   22.8468   43.5495 H   0  0  0  0  0  0  0  0  0  0  0  0
   53.5306   24.8524   44.6558 H   0  0  0  0  0  0  0  0  0  0  0  0
   56.9984   26.7273   47.1936 H   0  0  0  0  0  0  0  0  0  0  0  0
   57.7825   25.2181   47.8452 H   0  0  0  0  0  0  0  0  0  0  0  0
   55.3400   29.2616   43.3420 H   0  0  0  0  0  0  0  0  0  0  0  0
   55.8771   31.5395   42.3698 H   0  0  0  0  0  0  0  0  0  0  0  0
   58.1721   32.5175   42.6923 H   0  0  0  0  0  0  0  0  0  0  0  0
   61.2805   28.0993   45.3981 H   0  0  0  0  0  0  0  0  0  0  0  0
   61.1834   29.7975   44.8012 H   0  0  0  0  0  0  0  0  0  0  0  0
   60.5479   28.7579   47.6083 H   0  0  0  0  0  0  0  0  0  0  0  0
   61.8493   29.9037   47.1159 H   0  0  0  0  0  0  0  0  0  0  0  0
   60.4582   31.6601   47.2800 H   0  0  0  0  0  0  0  0  0  0  0  0
   59.2380   30.8184   46.2119 H   0  0  0  0  0  0  0  0  0  0  0  0
   58.6016   33.7662   49.5256 H   0  0  0  0  0  0  0  0  0  0  0  0
   60.1264   33.0514   48.8733 H   0  0  0  0  0  0  0  0  0  0  0  0
   56.6533   32.7885   47.4635 H   0  0  0  0  0  0  0  0  0  0  0  0
   56.0416   33.6621   45.2076 H   0  0  0  0  0  0  0  0  0  0  0  0
   57.7148   34.9328   43.8619 H   0  0  0  0  0  0  0  0  0  0  0  0
   60.0016   35.3361   44.7642 H   0  0  0  0  0  0  0  0  0  0  0  0
   58.2451   23.5002   45.6631 H   0  0  0  0  0  0  0  0  0  0  0  0
  1  2  1  0
  2  3  2  0
  2  4  1  0
  4  5  2  0
  5  6  1  0
  6  7  2  0
  7  8  1  0
  7  9  1  0
  9 10  1  0
 10 11  1  0
 11 12  1  0
 12 13  2  0
 13 14  1  0
 14 15  2  0
 15 16  1  0
 16 17  2  0
 17 18  1  0
 18 19  2  0
 19 20  1  0
 20 21  1  0
 21 22  1  0
 22 23  1  0
 23 24  1  0
 24 25  2  0
 24 26  1  0
 26 27  1  0
 27 28  1  0
 28 29  2  0
 29 30  1  0
 30 31  2  0
 31 32  1  0
 32 33  2  0
 33 34  1  0
  9 35  2  0
 35  4  1  0
 20 12  1  0
 33 28  1  0
 19 14  1  0
  1 36  1  0
  1 37  1  0
  1 38  1  0
  5 39  1  0
  6 40  1  0
 10 41  1  0
 10 42  1  0
 15 43  1  0
 16 44  1  0
 17 45  1  0
 21 46  1  0
 21 47  1  0
 22 48  1  0
 22 49  1  0
 23 50  1  0
 23 51  1  0
 27 52  1  0
 27 53  1  0
 29 54  1  0
 30 55  1  0
 31 56  1  0
 32 57  1  0
 35 58  1  0
M  CHG  3   8  -1  26  -1  34  -1
M  END
>  <UniqueID>  (48) 
46

>  <SMILES>  (48) 
CC(=O)c1ccc([O-])c(CSc2nc3cccnc3n2CCCC(=O)[N-]Cc2ccccc2[O-])c1

>  <Energy>  (48) 
97.91163479647294

>  <Genealogy>  (48) 
CC(=O)c1ccc([O-])c(CSc2nc3cccnc3n2CCCC(=O)[N-]Cc2ccccc2[O-])c1 (protonated)
CC(=O)c1ccc([O-])c(CSc2nc3cccnc3n2CCCC(=O)[N-]Cc2ccccc2[O-])c1 (3D coordinates assigned)
CC(=O)c1ccc([O-])c(CSc2nc3cccnc3n2CCCC(=O)[N-]Cc2ccccc2[O-])c1 (optimized conformer: 97.91163479647294 kcal/mol)

>  <smiles>  (48) 
CC(=O)c1ccc(O)c(CSc2nc3cccnc3n2CCCC(=O)NCc2ccccc2O)c1

>  <score_type>  (48) 
oracle

>  <origin>  (48) 
adg

>  <m_score__min__energy>  (48) 
-16.02

>  <m_primary>  (48) 
energy

$$$$
48:0
     RDKit          3D

 45 48  0  0  0  0  0  0  0  0999 V2000
   57.5331   27.3605   43.7975 H   0  0  0  0  0  0  0  0  0  0  0  0
   57.5990   27.5120   44.8850 C   0  0  0  0  0  0  0  0  0  0  0  0
   57.5040   26.4160   45.6730 C   0  0  0  0  0  0  0  0  0  0  0  0
   58.6760   25.5960   46.0910 C   0  0  0  0  0  0  0  0  0  0  0  0
   59.8560   25.9880   45.8970 O   0  0  0  0  0  0  0  0  0  0  0  0
   58.4720   24.3650   46.7860 N   0  0  0  0  0  0  0  0  0  0  0  0
   57.1700   23.9450   47.1880 C   0  0  0  0  0  0  0  0  0  0  0  0
   57.0220   22.8490   47.7880 O   0  0  0  0  0  0  0  0  0  0  0  0
   56.0370   24.7750   46.9230 N   0  0  0  0  0  0  0  0  0  0  0  0
   55.0920   24.4780   47.2560 H   0  0  0  0  0  0  0  0  0  0  0  0
   56.1760   26.0000   46.1940 C   0  0  0  0  0  0  0  0  0  0  0  0
   55.1520   26.7070   45.9890 O   0  0  0  0  0  0  0  0  0  0  0  0
   57.7840   28.8950   45.3680 C   0  0  0  0  0  0  0  0  0  0  0  0
   58.4680   29.2530   46.5150 C   0  0  0  0  0  0  0  0  0  0  0  0
   58.9294   28.5724   47.2456 H   0  0  0  0  0  0  0  0  0  0  0  0
   58.4580   30.6320   46.5630 C   0  0  0  0  0  0  0  0  0  0  0  0
   58.8881   31.2653   47.3529 H   0  0  0  0  0  0  0  0  0  0  0  0
   57.8010   31.0630   45.4230 C   0  0  0  0  0  0  0  0  0  0  0  0
   57.4600   32.4680   45.1110 C   0  0  0  0  0  0  0  0  0  0  0  0
   56.4489   32.6706   44.7280 H   0  0  0  0  0  0  0  0  0  0  0  0
   58.2860   33.5150   45.2580 C   0  0  0  0  0  0  0  0  0  0  0  0
   58.2347   34.3080   44.4974 H   0  0  0  0  0  0  0  0  0  0  0  0
   59.2580   33.6920   46.3550 C   0  0  0  0  0  0  0  0  0  0  0  0
   58.8460   33.9810   47.6200 N   0  0  0  0  0  0  0  0  0  0  0  0
   59.7280   34.1050   48.6450 C   0  0  0  0  0  0  0  0  0  0  0  0
   59.3000   34.3850   49.7960 O   0  0  0  0  0  0  0  0  0  0  0  0
   61.0990   33.9180   48.4080 C   0  0  0  0  0  0  0  0  0  0  0  0
   62.0650   34.0320   49.4250 C   0  0  0  0  0  0  0  0  0  0  0  0
   61.7572   34.2821   50.4510 H   0  0  0  0  0  0  0  0  0  0  0  0
   63.4170   33.8270   49.1300 C   0  0  0  0  0  0  0  0  0  0  0  0
   64.1713   33.9179   49.9254 H   0  0  0  0  0  0  0  0  0  0  0  0
   63.8130   33.5070   47.8280 C   0  0  0  0  0  0  0  0  0  0  0  0
   64.8777   33.3467   47.6026 H   0  0  0  0  0  0  0  0  0  0  0  0
   62.8600   33.3900   46.8110 C   0  0  0  0  0  0  0  0  0  0  0  0
   63.1750   33.1363   45.7880 H   0  0  0  0  0  0  0  0  0  0  0  0
   61.5050   33.5960   47.0960 C   0  0  0  0  0  0  0  0  0  0  0  0
   60.5790   33.4850   46.1080 N   0  0  0  0  0  0  0  0  0  0  0  0
   57.3940   29.9990   44.6930 N   0  0  0  0  0  0  0  0  0  0  0  0
   56.5940   30.0320   43.4620 C   0  0  0  0  0  0  0  0  0  0  0  0
   56.9931   29.2946   42.7500 H   0  0  0  0  0  0  0  0  0  0  0  0
   56.6465   31.0414   43.0280 H   0  0  0  0  0  0  0  0  0  0  0  0
   55.1390   29.6990   43.7680 C   0  0  0  0  0  0  0  0  0  0  0  0
   54.9919   29.6653   44.8576 H   0  0  0  0  0  0  0  0  0  0  0  0
   54.4870   30.4711   43.3337 H   0  0  0  0  0  0  0  0  0  0  0  0
   54.8877   28.7201   43.3337 H   0  0  0  0  0  0  0  0  0  0  0  0
  1  2  1  0
  2  3  2  3
  3  4  1  0
  4  5  2  0
  4  6  1  0
  6  7  1  0
  7  8  2  0
  7  9  1  0
  9 10  1  0
  9 11  1  0
 11 12  2  0
  2 13  1  0
 13 14  2  0
 14 15  1  0
 14 16  1  0
 16 17  1  0
 16 18  2  0
 18 19  1  0
 19 20  1  0
 19 21  2  0
 21 22  1  0
 21 23  1  0
 23 24  2  0
 24 25  1  0
 25 26  2  0
 25 27  1  0
 27 28  2  0
 28 29  1  0
 28 30  1  0
 30 31  1  0
 30 32  2  0
 32 33  1  0
 32 34  1  0
 34 35  1  0
 34 36  2  0
 36 37  1  0
 18 38  1  0
 38 39  1  0
 39 40  1  0
 39 41  1  0
 39 42  1  0
 42 43  1  0
 42 44  1  0
 42 45  1  0
 11  3  1  0
 38 13  1  0
 37 23  1  0
 36 27  1  0
M  CHG  2   6  -1  37  -1
M  END
>  <UniqueID>  (49) 
47

>  <SMILES>  (49) 
CCn1c(C=C2C(=O)[N-]C(=O)NC2=O)ccc1/C=C\c1nc(=O)c2ccccc2[n-]1

>  <Energy>  (49) 
90.70349475703092

>  <Genealogy>  (49) 
CCn1c(C=Cc2nc(=O)c3ccccc3[n-]2)ccc1C=C1C(=O)[N-]C(=O)NC1=O (protonated)
CCn1c(C=C2C(=O)[N-]C(=O)NC2=O)ccc1/C=C\c1nc(=O)c2ccccc2[n-]1 (cis-trans isomerization)
CCn1c(C=C2C(=O)[N-]C(=O)NC2=O)ccc1/C=C\c1nc(=O)c2ccccc2[n-]1 (3D coordinates assigned)
CCn1c(C=C2C(=O)[N-]C(=O)NC2=O)ccc1/C=C\c1nc(=O)c2ccccc2[n-]1 (nonaromatic ring conformer: 90.70349475703092 kcal/mol)

>  <smiles>  (49) 
CCn1c(C=Cc2nc(=O)c3ccccc3[nH]2)ccc1C=C1C(=O)NC(=O)NC1=O

>  <score_type>  (49) 
oracle

>  <origin>  (49) 
adg

>  <m_score__min__energy>  (49) 
-12.890000000000001

>  <m_primary>  (49) 
energy

$$$$
49:0
     RDKit          3D

 36 38  0  0  0  0  0  0  0  0999 V2000
   55.1886   30.8582   43.9555 H   0  0  0  0  0  0  0  0  0  0  0  0
   55.8990   30.2180   44.4990 C   0  0  0  0  0  0  0  0  0  0  0  0
   55.5340   28.9630   44.8630 N   0  0  0  0  0  0  0  0  0  0  0  0
   56.3900   28.1420   45.5280 C   0  0  0  0  0  0  0  0  0  0  0  0
   56.0330   26.9480   45.8990 N   0  0  0  0  0  0  0  0  0  0  0  0
   56.7320   25.7180   45.6410 C   0  0  0  0  0  0  0  0  0  0  0  0
   57.9600   25.4980   46.2780 C   0  0  0  0  0  0  0  0  0  0  0  0
   58.3552   26.2497   46.9772 H   0  0  0  0  0  0  0  0  0  0  0  0
   58.6870   24.3290   46.0310 C   0  0  0  0  0  0  0  0  0  0  0  0
   59.6419   24.1563   46.5490 H   0  0  0  0  0  0  0  0  0  0  0  0
   58.2020   23.3800   45.1270 C   0  0  0  0  0  0  0  0  0  0  0  0
   58.7702   22.4568   44.9404 H   0  0  0  0  0  0  0  0  0  0  0  0
   56.9940   23.6050   44.4600 C   0  0  0  0  0  0  0  0  0  0  0  0
   56.4010   22.4290   43.3000 Cl  0  0  0  0  0  0  0  0  0  0  0  0
   56.2640   24.7740   44.7060 C   0  0  0  0  0  0  0  0  0  0  0  0
   55.3222   24.9559   44.1676 H   0  0  0  0  0  0  0  0  0  0  0  0
   57.6290   28.5920   45.8530 N   0  0  0  0  0  0  0  0  0  0  0  0
   58.0450   29.8400   45.5140 C   0  0  0  0  0  0  0  0  0  0  0  0
   59.2060   30.2040   45.8370 O   0  0  0  0  0  0  0  0  0  0  0  0
   57.1780   30.7040   44.8120 C   0  0  0  0  0  0  0  0  0  0  0  0
   57.5720   32.0830   44.4140 C   0  0  0  0  0  0  0  0  0  0  0  0
   58.4200   32.2650   43.4980 O   0  0  0  0  0  0  0  0  0  0  0  0
   56.9850   33.2140   45.0680 N   0  0  0  0  0  0  0  0  0  0  0  0
   57.6740   34.4850   45.2600 C   0  0  0  0  0  0  0  0  0  0  0  0
   57.0220   35.1707   45.8210 H   0  0  0  0  0  0  0  0  0  0  0  0
   57.9139   34.9157   44.2767 H   0  0  0  0  0  0  0  0  0  0  0  0
   58.9420   34.2740   46.0230 C   0  0  0  0  0  0  0  0  0  0  0  0
   59.4440   35.1610   46.9080 N   0  0  0  0  0  0  0  0  0  0  0  0
   60.5100   34.5900   47.3900 O   0  0  0  0  0  0  0  0  0  0  0  0
   60.6670   33.4080   46.8440 C   0  0  0  0  0  0  0  0  0  0  0  0
   61.7730   32.4630   47.1730 C   0  0  0  0  0  0  0  0  0  0  0  0
   61.8710   32.3793   48.2654 H   0  0  0  0  0  0  0  0  0  0  0  0
   61.5484   31.4735   46.7481 H   0  0  0  0  0  0  0  0  0  0  0  0
   62.7153   32.8392   46.7481 H   0  0  0  0  0  0  0  0  0  0  0  0
   59.6850   33.1530   45.9650 N   0  0  0  0  0  0  0  0  0  0  0  0
   59.5310   32.2960   45.3890 H   0  0  0  0  0  0  0  0  0  0  0  0
  1  2  1  0
  2  3  1  0
  3  4  1  0
  4  5  2  0
  5  6  1  0
  6  7  2  0
  7  8  1  0
  7  9  1  0
  9 10  1  0
  9 11  2  0
 11 12  1  0
 11 13  1  0
 13 14  1  0
 13 15  2  0
 15 16  1  0
  4 17  1  0
 17 18  1  0
 18 19  2  0
 18 20  1  0
 20 21  1  0
 21 22  2  0
 21 23  1  0
 23 24  1  0
 24 25  1  0
 24 26  1  0
 24 27  1  0
 27 28  2  0
 28 29  1  0
 29 30  1  0
 30 31  1  0
 31 32  1  0
 31 33  1  0
 31 34  1  0
 30 35  2  0
 35 36  1  0
 20  2  2  0
 35 27  1  0
 15  6  1  0
M  CHG  4   3  -1  17  -1  23  -1  35   1
M  END
>  <UniqueID>  (50) 
48

>  <SMILES>  (50) 
Cc1[nH+]c(C[N-]C(=O)c2c[n-]/c(=N\c3cccc(Cl)c3)[n-]c2=O)no1

>  <Energy>  (50) 
78.58881585928938

>  <Genealogy>  (50) 
Cc1[nH+]c(C[N-]C(=O)c2c[n-]c(=Nc3cccc(Cl)c3)[n-]c2=O)no1 (protonated)
Cc1[nH+]c(C[N-]C(=O)c2c[n-]/c(=N\c3cccc(Cl)c3)[n-]c2=O)no1 (cis-trans isomerization)
Cc1[nH+]c(C[N-]C(=O)c2c[n-]/c(=N\c3cccc(Cl)c3)[n-]c2=O)no1 (3D coordinates assigned)
Cc1[nH+]c(C[N-]C(=O)c2c[n-]/c(=N\c3cccc(Cl)c3)[n-]c2=O)no1 (optimized conformer: 78.58881585928938 kcal/mol)

>  <smiles>  (50) 
Cc1nc(CNC(=O)c2c[nH]c(=Nc3cccc(Cl)c3)[nH]c2=O)no1

>  <score_type>  (50) 
oracle

>  <origin>  (50) 
adg

>  <m_score__min__energy>  (50) 
-11.609999999999999

>  <m_primary>  (50) 
energy

$$$$
50:0
     RDKit          3D

 35 36  0  0  0  0  0  0  0  0999 V2000
   55.6680   24.0660   46.6510 C   0  0  0  0  0  0  0  0  0  0  0  0
   56.1600   25.3810   46.1470 C   0  0  0  0  0  0  0  0  0  0  0  0
   55.3460   26.3290   45.9870 O   0  0  0  0  0  0  0  0  0  0  0  0
   57.5660   25.5800   45.9620 N   0  0  0  0  0  0  0  0  0  0  0  0
   58.3490   26.6700   46.4770 C   0  0  0  0  0  0  0  0  0  0  0  0
   58.9910   26.5740   47.7260 C   0  0  0  0  0  0  0  0  0  0  0  0
   59.7380   27.6440   48.2240 C   0  0  0  0  0  0  0  0  0  0  0  0
   59.8430   28.8260   47.4910 C   0  0  0  0  0  0  0  0  0  0  0  0
   59.1920   28.9450   46.2620 C   0  0  0  0  0  0  0  0  0  0  0  0
   58.4290   27.8810   45.7500 C   0  0  0  0  0  0  0  0  0  0  0  0
   57.7740   28.0460   44.4020 C   0  0  0  0  0  0  0  0  0  0  0  0
   57.4560   29.4500   44.1720 N   0  0  0  0  0  0  0  0  0  0  0  0
   56.1960   30.0460   44.5000 C   0  0  0  0  0  0  0  0  0  0  0  0
   55.1490   29.3480   44.5180 O   0  0  0  0  0  0  0  0  0  0  0  0
   56.1220   31.4270   44.8700 N   0  0  0  0  0  0  0  0  0  0  0  0
   57.2440   32.2820   45.1240 C   0  0  0  0  0  0  0  0  0  0  0  0
   57.8260   32.9740   44.0540 C   0  0  0  0  0  0  0  0  0  0  0  0
   58.9340   33.7990   44.2650 C   0  0  0  0  0  0  0  0  0  0  0  0
   59.4800   33.9260   45.5440 C   0  0  0  0  0  0  0  0  0  0  0  0
   58.9250   33.2190   46.6150 C   0  0  0  0  0  0  0  0  0  0  0  0
   59.6870   33.3670   48.3590 Br  0  0  0  0  0  0  0  0  0  0  0  0
   57.8150   32.3920   46.4070 C   0  0  0  0  0  0  0  0  0  0  0  0
   55.6699   24.0710   47.7510 H   0  0  0  0  0  0  0  0  0  0  0  0
   54.6445   23.8934   46.2868 H   0  0  0  0  0  0  0  0  0  0  0  0
   56.3269   23.2640   46.2868 H   0  0  0  0  0  0  0  0  0  0  0  0
   58.9037   25.6488   48.3146 H   0  0  0  0  0  0  0  0  0  0  0  0
   60.2445   27.5543   49.1963 H   0  0  0  0  0  0  0  0  0  0  0  0
   60.4387   29.6643   47.8814 H   0  0  0  0  0  0  0  0  0  0  0  0
   59.2768   29.8800   45.6888 H   0  0  0  0  0  0  0  0  0  0  0  0
   58.4605   27.6945   43.6177 H   0  0  0  0  0  0  0  0  0  0  0  0
   56.8459   27.4561   44.3763 H   0  0  0  0  0  0  0  0  0  0  0  0
   57.4084   32.8673   43.0419 H   0  0  0  0  0  0  0  0  0  0  0  0
   59.3770   34.3495   43.4219 H   0  0  0  0  0  0  0  0  0  0  0  0
   60.3471   34.5825   45.7089 H   0  0  0  0  0  0  0  0  0  0  0  0
   57.3873   31.8263   47.2479 H   0  0  0  0  0  0  0  0  0  0  0  0
  1  2  1  0
  2  3  2  0
  2  4  1  0
  4  5  1  0
  5  6  2  0
  6  7  1  0
  7  8  2  0
  8  9  1  0
  9 10  2  0
 10 11  1  0
 11 12  1  0
 12 13  1  0
 13 14  2  0
 13 15  1  0
 15 16  1  0
 16 17  2  0
 17 18  1  0
 18 19  2  0
 19 20  1  0
 20 21  1  0
 20 22  2  0
 10  5  1  0
 22 16  1  0
  1 23  1  0
  1 24  1  0
  1 25  1  0
  6 26  1  0
  7 27  1  0
  8 28  1  0
  9 29  1  0
 11 30  1  0
 11 31  1  0
 17 32  1  0
 18 33  1  0
 19 34  1  0
 22 35  1  0
M  CHG  3   4  -1  12  -1  15  -1
M  END
>  <UniqueID>  (51) 
49

>  <SMILES>  (51) 
CC(=O)[N-]c1ccccc1C[N-]C(=O)[N-]c1cccc(Br)c1

>  <Energy>  (51) 
38.252762628927734

>  <Genealogy>  (51) 
CC(=O)[N-]c1ccccc1C[N-]C(=O)[N-]c1cccc(Br)c1 (protonated)
CC(=O)[N-]c1ccccc1C[N-]C(=O)[N-]c1cccc(Br)c1 (3D coordinates assigned)
CC(=O)[N-]c1ccccc1C[N-]C(=O)[N-]c1cccc(Br)c1 (optimized conformer: 38.252762628927734 kcal/mol)

>  <smiles>  (51) 
CC(=O)Nc1ccccc1CNC(=O)Nc1cccc(Br)c1

>  <score_type>  (51) 
oracle

>  <origin>  (51) 
adg

>  <m_score__min__energy>  (51) 
-12.720000000000001

>  <m_primary>  (51) 
energy

$$$$
51:0
     RDKit          3D

 54 56  0  0  0  0  0  0  0  0999 V2000
   55.8720   29.7860   43.3400 C   0  0  0  0  0  0  0  0  0  0  0  0
   56.1210   29.2800   44.7550 C   0  0  0  0  0  0  0  0  0  0  0  0
   57.5650   28.9020   44.9420 C   0  0  0  0  0  0  0  0  0  0  0  0
   58.1400   27.6630   44.6870 C   0  0  0  0  0  0  0  0  0  0  0  0
   57.4210   26.4100   44.2840 C   0  0  0  0  0  0  0  0  0  0  0  0
   57.0300   25.6310   45.5010 C   0  0  0  0  0  0  0  0  0  0  0  0
   57.7430   24.6090   46.0060 N   0  0  0  0  0  0  0  0  0  0  0  0
   56.9830   24.1800   47.0370 C   0  0  0  0  0  0  0  0  0  0  0  0
   57.3220   23.2190   47.7760 O   0  0  0  0  0  0  0  0  0  0  0  0
   55.8280   24.8590   47.2130 N   0  0  0  0  0  0  0  0  0  0  0  0
   55.8720   25.7700   46.2280 C   0  0  0  0  0  0  0  0  0  0  0  0
   54.8710   26.7050   45.9940 O   0  0  0  0  0  0  0  0  0  0  0  0
   59.4650   27.7070   44.9310 N   0  0  0  0  0  0  0  0  0  0  0  0
   59.7550   28.9630   45.3170 C   0  0  0  0  0  0  0  0  0  0  0  0
   61.1380   29.4250   45.6570 C   0  0  0  0  0  0  0  0  0  0  0  0
   58.6050   29.7410   45.3280 C   0  0  0  0  0  0  0  0  0  0  0  0
   58.5050   31.1980   45.7010 C   0  0  0  0  0  0  0  0  0  0  0  0
   58.9880   31.4490   47.1200 C   0  0  0  0  0  0  0  0  0  0  0  0
   58.6690   30.5010   48.1060 C   0  0  0  0  0  0  0  0  0  0  0  0
   59.0680   30.6830   49.4260 C   0  0  0  0  0  0  0  0  0  0  0  0
   59.8010   31.8080   49.7870 C   0  0  0  0  0  0  0  0  0  0  0  0
   60.1640   32.7650   48.8250 C   0  0  0  0  0  0  0  0  0  0  0  0
   60.9200   33.9310   49.1940 N   0  0  0  0  0  0  0  0  0  0  0  0
   62.6400   34.0230   49.3990 S   0  0  0  0  0  0  0  0  0  0  0  0
   63.0110   35.3290   50.0450 O   0  0  0  0  0  0  0  0  0  0  0  0
   63.0750   32.9000   50.2970 O   0  0  0  0  0  0  0  0  0  0  0  0
   63.4500   33.8460   47.8160 C   0  0  0  0  0  0  0  0  0  0  0  0
   63.3900   32.4040   47.3300 C   0  0  0  0  0  0  0  0  0  0  0  0
   59.7840   32.5770   47.4720 C   0  0  0  0  0  0  0  0  0  0  0  0
   60.2090   33.5770   46.4180 C   0  0  0  0  0  0  0  0  0  0  0  0
   55.3867   30.7722   43.3834 H   0  0  0  0  0  0  0  0  0  0  0  0
   56.8306   29.8722   42.8074 H   0  0  0  0  0  0  0  0  0  0  0  0
   55.2189   29.0790   42.8074 H   0  0  0  0  0  0  0  0  0  0  0  0
   55.8600   30.0722   45.4722 H   0  0  0  0  0  0  0  0  0  0  0  0
   55.4989   28.3888   44.9248 H   0  0  0  0  0  0  0  0  0  0  0  0
   56.5176   26.6752   43.7152 H   0  0  0  0  0  0  0  0  0  0  0  0
   58.0872   25.7958   43.6603 H   0  0  0  0  0  0  0  0  0  0  0  0
   60.1380   26.9140   44.8370 H   0  0  0  0  0  0  0  0  0  0  0  0
   61.2533   29.4635   46.7503 H   0  0  0  0  0  0  0  0  0  0  0  0
   61.8730   28.7236   45.2353 H   0  0  0  0  0  0  0  0  0  0  0  0
   61.3038   30.4273   45.2353 H   0  0  0  0  0  0  0  0  0  0  0  0
   59.1206   31.7872   45.0054 H   0  0  0  0  0  0  0  0  0  0  0  0
   57.4478   31.4958   45.6407 H   0  0  0  0  0  0  0  0  0  0  0  0
   58.0963   29.6031   47.8308 H   0  0  0  0  0  0  0  0  0  0  0  0
   58.8027   29.9343   50.1870 H   0  0  0  0  0  0  0  0  0  0  0  0
   60.0995   31.9500   50.8362 H   0  0  0  0  0  0  0  0  0  0  0  0
   62.9496   34.4942   47.0815 H   0  0  0  0  0  0  0  0  0  0  0  0
   64.5056   34.1341   47.9285 H   0  0  0  0  0  0  0  0  0  0  0  0
   63.3618   31.7261   48.1959 H   0  0  0  0  0  0  0  0  0  0  0  0
   62.4851   32.2595   46.7216 H   0  0  0  0  0  0  0  0  0  0  0  0
   64.2798   32.1848   46.7216 H   0  0  0  0  0  0  0  0  0  0  0  0
   60.5944   34.4838   46.9071 H   0  0  0  0  0  0  0  0  0  0  0  0
   60.9973   33.1356   45.7905 H   0  0  0  0  0  0  0  0  0  0  0  0
   59.3441   33.8382   45.7905 H   0  0  0  0  0  0  0  0  0  0  0  0
  1  2  1  0
  2  3  1  0
  3  4  2  0
  4  5  1  0
  5  6  1  0
  6  7  1  0
  7  8  1  0
  8  9  2  0
  8 10  1  0
 10 11  1  0
 11 12  1  0
  4 13  1  0
 13 14  1  0
 14 15  1  0
 14 16  2  0
 16 17  1  0
 17 18  1  0
 18 19  2  0
 19 20  1  0
 20 21  2  0
 21 22  1  0
 22 23  1  0
 23 24  1  0
 24 25  2  0
 24 26  2  0
 24 27  1  0
 27 28  1  0
 22 29  2  0
 29 30  1  0
 16  3  1  0
 29 18  1  0
 11  6  2  0
  1 31  1  0
  1 32  1  0
  1 33  1  0
  2 34  1  0
  2 35  1  0
  5 36  1  0
  5 37  1  0
 13 38  1  0
 15 39  1  0
 15 40  1  0
 15 41  1  0
 17 42  1  0
 17 43  1  0
 19 44  1  0
 20 45  1  0
 21 46  1  0
 27 47  1  0
 27 48  1  0
 28 49  1  0
 28 50  1  0
 28 51  1  0
 30 52  1  0
 30 53  1  0
 30 54  1  0
M  CHG  4   7  -1  10  -1  12  -1  23  -1
M  END
>  <UniqueID>  (52) 
50

>  <SMILES>  (52) 
CCc1c(Cc2[n-]c(=O)[n-]c2[O-])[nH]c(C)c1Cc1cccc([N-]S(=O)(=O)CC)c1C

>  <Energy>  (52) 
101.63947014931192

>  <Genealogy>  (52) 
CCc1c(Cc2[n-]c(=O)[n-]c2[O-])[nH]c(C)c1Cc1cccc([N-]S(=O)(=O)CC)c1C (protonated)
CCc1c(Cc2[n-]c(=O)[n-]c2[O-])[nH]c(C)c1Cc1cccc([N-]S(=O)(=O)CC)c1C (3D coordinates assigned)
CCc1c(Cc2[n-]c(=O)[n-]c2[O-])[nH]c(C)c1Cc1cccc([N-]S(=O)(=O)CC)c1C (optimized conformer: 101.63947014931192 kcal/mol)

>  <smiles>  (52) 
CCc1c(Cc2[nH]c(=O)[nH]c2O)[nH]c(C)c1Cc1cccc(NS(=O)(=O)CC)c1C

>  <score_type>  (52) 
oracle

>  <origin>  (52) 
adg

>  <m_score__min__energy>  (52) 
-16.609999999999999

>  <m_primary>  (52) 
energy

$$$$
52:0
     RDKit          3D

 36 38  0  0  0  0  0  0  0  0999 V2000
   56.3260   30.1950   44.1090 C   0  0  0  0  0  0  0  0  0  0  0  0
   57.4930   29.2550   44.1160 C   0  0  0  0  0  0  0  0  0  0  0  0
   57.4750   28.0590   43.4940 N   0  0  0  0  0  0  0  0  0  0  0  0
   58.6840   27.5140   43.7080 C   0  0  0  0  0  0  0  0  0  0  0  0
   59.4310   28.3990   44.4590 C   0  0  0  0  0  0  0  0  0  0  0  0
   60.7770   28.1600   44.9040 N   0  0  0  0  0  0  0  0  0  0  0  0
   61.6840   28.9570   44.5880 O   0  0  0  0  0  0  0  0  0  0  0  0
   61.0860   27.1020   45.7260 O   0  0  0  0  0  0  0  0  0  0  0  0
   58.6850   29.5030   44.7170 N   0  0  0  0  0  0  0  0  0  0  0  0
   59.0280   30.6750   45.5320 C   0  0  0  0  0  0  0  0  0  0  0  0
   59.5360   30.2650   46.9190 C   0  0  0  0  0  0  0  0  0  0  0  0
   58.7060   29.2510   47.4840 O   0  0  0  0  0  0  0  0  0  0  0  0
   59.0900   27.9080   47.6020 C   0  0  0  0  0  0  0  0  0  0  0  0
   60.2180   27.6100   48.0810 O   0  0  0  0  0  0  0  0  0  0  0  0
   58.1700   26.8410   47.1560 C   0  0  0  0  0  0  0  0  0  0  0  0
   58.5980   25.4850   47.1240 C   0  0  0  0  0  0  0  0  0  0  0  0
   57.7300   24.4670   46.6860 C   0  0  0  0  0  0  0  0  0  0  0  0
   56.4500   24.8350   46.2860 C   0  0  0  0  0  0  0  0  0  0  0  0
   55.4720   24.0370   45.8330 N   0  0  0  0  0  0  0  0  0  0  0  0
   54.4700   24.9230   45.5990 C   0  0  0  0  0  0  0  0  0  0  0  0
   53.3480   24.5680   45.1550 O   0  0  0  0  0  0  0  0  0  0  0  0
   54.7660   26.2190   45.8750 N   0  0  0  0  0  0  0  0  0  0  0  0
   56.0320   26.1300   46.3100 C   0  0  0  0  0  0  0  0  0  0  0  0
   56.8580   27.1660   46.7380 C   0  0  0  0  0  0  0  0  0  0  0  0
   56.0367   30.4280   45.1444 H   0  0  0  0  0  0  0  0  0  0  0  0
   56.6057   31.1229   43.5887 H   0  0  0  0  0  0  0  0  0  0  0  0
   55.4789   29.7240   43.5887 H   0  0  0  0  0  0  0  0  0  0  0  0
   56.6840   27.6350   42.9570 H   0  0  0  0  0  0  0  0  0  0  0  0
   59.0209   26.5311   43.3468 H   0  0  0  0  0  0  0  0  0  0  0  0
   59.8133   31.2497   45.0191 H   0  0  0  0  0  0  0  0  0  0  0  0
   58.1203   31.2826   45.6624 H   0  0  0  0  0  0  0  0  0  0  0  0
   60.5628   29.8811   46.8279 H   0  0  0  0  0  0  0  0  0  0  0  0
   59.5133   31.1461   47.5771 H   0  0  0  0  0  0  0  0  0  0  0  0
   59.6185   25.2290   47.4450 H   0  0  0  0  0  0  0  0  0  0  0  0
   58.0533   23.4159   46.6610 H   0  0  0  0  0  0  0  0  0  0  0  0
   56.5010   28.2064   46.7508 H   0  0  0  0  0  0  0  0  0  0  0  0
  1  2  1  0
  2  3  2  0
  3  4  1  0
  4  5  2  0
  5  6  1  0
  6  7  2  0
  6  8  1  0
  5  9  1  0
  9 10  1  0
 10 11  1  0
 11 12  1  0
 12 13  1  0
 13 14  2  0
 13 15  1  0
 15 16  2  0
 16 17  1  0
 17 18  2  0
 18 19  1  0
 19 20  1  0
 20 21  2  0
 20 22  1  0
 22 23  1  0
 23 24  2  0
  9  2  1  0
 24 15  1  0
 23 18  1  0
  1 25  1  0
  1 26  1  0
  1 27  1  0
  3 28  1  0
  4 29  1  0
 10 30  1  0
 10 31  1  0
 11 32  1  0
 11 33  1  0
 16 34  1  0
 17 35  1  0
 24 36  1  0
M  CHG  5   3   1   6   1   8  -1  19  -1  22  -1
M  END
>  <UniqueID>  (53) 
51

>  <SMILES>  (53) 
Cc1[nH+]cc([N+](=O)[O-])n1CCOC(=O)c1ccc2[n-]c(=O)[n-]c2c1

>  <Energy>  (53) 
101.8095936438072

>  <Genealogy>  (53) 
Cc1[nH+]cc([N+](=O)[O-])n1CCOC(=O)c1ccc2[n-]c(=O)[n-]c2c1 (protonated)
Cc1[nH+]cc([N+](=O)[O-])n1CCOC(=O)c1ccc2[n-]c(=O)[n-]c2c1 (3D coordinates assigned)
Cc1[nH+]cc([N+](=O)[O-])n1CCOC(=O)c1ccc2[n-]c(=O)[n-]c2c1 (optimized conformer: 101.8095936438072 kcal/mol)

>  <smiles>  (53) 
Cc1ncc([N+](=O)[O-])n1CCOC(=O)c1ccc2[nH]c(=O)[nH]c2c1

>  <score_type>  (53) 
oracle

>  <origin>  (53) 
adg

>  <m_score__min__energy>  (53) 
-10.34

>  <m_primary>  (53) 
energy

$$$$
53:0
     RDKit          3D

 43 45  0  0  0  0  0  0  0  0999 V2000
   58.1670   28.7610   47.0600 O   0  0  0  0  0  0  0  0  0  0  0  0
   57.5710   27.8790   46.3850 C   0  0  0  0  0  0  0  0  0  0  0  0
   57.2370   26.5650   47.0240 C   0  0  0  0  0  0  0  0  0  0  0  0
   56.5030   25.7240   46.0750 N   0  0  0  0  0  0  0  0  0  0  0  0
   55.2400   25.3930   46.3580 N   0  0  0  0  0  0  0  0  0  0  0  0
   54.5140   24.5900   45.5420 C   0  0  0  0  0  0  0  0  0  0  0  0
   53.3240   24.3010   45.8360 O   0  0  0  0  0  0  0  0  0  0  0  0
   55.1100   24.0950   44.3810 C   0  0  0  0  0  0  0  0  0  0  0  0
   54.4720   23.3470   43.5950 O   0  0  0  0  0  0  0  0  0  0  0  0
   56.3950   24.4270   44.1070 N   0  0  0  0  0  0  0  0  0  0  0  0
   57.0990   25.2340   44.9420 C   0  0  0  0  0  0  0  0  0  0  0  0
   58.2960   25.5150   44.6650 O   0  0  0  0  0  0  0  0  0  0  0  0
   57.2110   28.1210   45.0170 N   0  0  0  0  0  0  0  0  0  0  0  0
   57.2240   29.4180   44.3990 C   0  0  0  0  0  0  0  0  0  0  0  0
   56.9730   29.5770   43.0240 C   0  0  0  0  0  0  0  0  0  0  0  0
   57.0280   30.8460   42.4410 C   0  0  0  0  0  0  0  0  0  0  0  0
   57.3440   31.9620   43.2160 C   0  0  0  0  0  0  0  0  0  0  0  0
   57.6120   31.8170   44.5830 C   0  0  0  0  0  0  0  0  0  0  0  0
   58.0390   33.2300   45.5440 S   0  0  0  0  0  0  0  0  0  0  0  0
   57.1580   33.3030   46.7600 O   0  0  0  0  0  0  0  0  0  0  0  0
   57.8070   34.4610   44.7110 O   0  0  0  0  0  0  0  0  0  0  0  0
   59.7250   33.1240   46.0070 N   0  0  0  0  0  0  0  0  0  0  0  0
   59.9880   31.9570   46.8790 C   0  0  0  0  0  0  0  0  0  0  0  0
   60.0590   32.3300   48.3700 C   0  0  0  0  0  0  0  0  0  0  0  0
   59.1940   33.4090   48.6460 O   0  0  0  0  0  0  0  0  0  0  0  0
   59.6810   34.5950   48.0410 C   0  0  0  0  0  0  0  0  0  0  0  0
   60.2060   34.3840   46.6000 C   0  0  0  0  0  0  0  0  0  0  0  0
   57.5620   30.5430   45.1670 C   0  0  0  0  0  0  0  0  0  0  0  0
   58.1662   26.0562   47.3200 H   0  0  0  0  0  0  0  0  0  0  0  0
   56.6120   26.7413   47.9119 H   0  0  0  0  0  0  0  0  0  0  0  0
   56.9910   27.2920   44.4180 H   0  0  0  0  0  0  0  0  0  0  0  0
   56.7326   28.6996   42.4056 H   0  0  0  0  0  0  0  0  0  0  0  0
   56.8214   30.9652   41.3672 H   0  0  0  0  0  0  0  0  0  0  0  0
   57.3828   32.9587   42.7522 H   0  0  0  0  0  0  0  0  0  0  0  0
   59.1799   31.2241   46.7383 H   0  0  0  0  0  0  0  0  0  0  0  0
   60.9673   31.5449   46.5940 H   0  0  0  0  0  0  0  0  0  0  0  0
   59.7609   31.4617   48.9759 H   0  0  0  0  0  0  0  0  0  0  0  0
   61.0896   32.6253   48.6164 H   0  0  0  0  0  0  0  0  0  0  0  0
   58.8636   35.3304   48.0093 H   0  0  0  0  0  0  0  0  0  0  0  0
   60.5312   34.9412   48.6471 H   0  0  0  0  0  0  0  0  0  0  0  0
   59.8659   35.2219   45.9737 H   0  0  0  0  0  0  0  0  0  0  0  0
   61.3040   34.3358   46.6463 H   0  0  0  0  0  0  0  0  0  0  0  0
   57.7897   30.4244   46.2366 H   0  0  0  0  0  0  0  0  0  0  0  0
  1  2  2  0
  2  3  1  0
  3  4  1  0
  4  5  1  0
  5  6  1  0
  6  7  2  0
  6  8  1  0
  8  9  2  0
  8 10  1  0
 10 11  1  0
 11 12  2  0
  2 13  1  0
 13 14  1  0
 14 15  2  0
 15 16  1  0
 16 17  2  0
 17 18  1  0
 18 19  1  0
 19 20  2  0
 19 21  2  0
 19 22  1  0
 22 23  1  0
 23 24  1  0
 24 25  1  0
 25 26  1  0
 26 27  1  0
 18 28  2  0
 11  4  1  0
 28 14  1  0
 27 22  1  0
  3 29  1  0
  3 30  1  0
 13 31  1  0
 15 32  1  0
 16 33  1  0
 17 34  1  0
 23 35  1  0
 23 36  1  0
 24 37  1  0
 24 38  1  0
 26 39  1  0
 26 40  1  0
 27 41  1  0
 27 42  1  0
 28 43  1  0
M  CHG  2   5  -1  10  -1
M  END
>  <UniqueID>  (54) 
52

>  <SMILES>  (54) 
O=C(Cn1[n-]c(=O)c(=O)[n-]c1=O)Nc1cccc(S(=O)(=O)N2CCOCC2)c1

>  <Energy>  (54) 
60.15778286389289

>  <Genealogy>  (54) 
O=C(Cn1[n-]c(=O)c(=O)[n-]c1=O)Nc1cccc(S(=O)(=O)N2CCOCC2)c1 (protonated)
O=C(Cn1[n-]c(=O)c(=O)[n-]c1=O)Nc1cccc(S(=O)(=O)N2CCOCC2)c1 (3D coordinates assigned)
O=C(Cn1[n-]c(=O)c(=O)[n-]c1=O)Nc1cccc(S(=O)(=O)N2CCOCC2)c1 (nonaromatic ring conformer: 60.15778286389289 kcal/mol)

>  <smiles>  (54) 
O=C(Cn1[nH]c(=O)c(=O)[nH]c1=O)Nc1cccc(S(=O)(=O)N2CCOCC2)c1

>  <score_type>  (54) 
oracle

>  <origin>  (54) 
adg

>  <m_score__min__energy>  (54) 
-11.85

>  <m_primary>  (54) 
energy

$$$$
54:0
     RDKit          3D

 67 70  0  0  1  0  0  0  0  0999 V2000
   63.7610   32.8440   47.4420 C   0  0  0  0  0  0  0  0  0  0  0  0
   62.6290   33.0940   48.4190 C   0  0  0  0  0  0  0  0  0  0  0  0
   63.1080   33.9680   49.5430 C   0  0  0  0  0  0  0  0  0  0  0  0
   61.4600   33.7150   47.7480 C   0  0  0  0  0  0  0  0  0  0  0  0
   60.9900   33.5130   46.4440 C   0  0  0  0  0  0  0  0  0  0  0  0
   59.8800   34.3050   46.2740 C   0  0  0  0  0  0  0  0  0  0  0  0
   59.1770   34.3780   45.1780 N   0  0  0  0  0  0  0  0  0  0  0  0
   57.9450   33.7230   45.0860 C   0  0  0  0  0  0  0  0  0  0  0  0
   56.9100   34.4320   44.8700 O   0  0  0  0  0  0  0  0  0  0  0  0
   57.7270   32.2960   45.2150 C   0  0  0  0  0  0  0  0  0  0  0  0
   57.0100   31.6660   44.2250 C   0  0  0  0  0  0  0  0  0  0  0  0
   56.7410   30.3240   44.2550 C   0  0  0  0  0  0  0  0  0  0  0  0
   57.1880   29.5030   45.3160 C   0  0  0  0  0  0  0  0  0  0  0  0
   56.8500   28.1470   45.2710 N   0  0  0  0  0  0  0  0  0  0  0  0
   57.5410   27.0600   45.8510 C   0  0  0  0  0  0  0  0  0  0  0  0
   58.5950   27.2630   46.4910 O   0  0  0  0  0  0  0  0  0  0  0  0
   57.0810   25.6670   45.7460 C   0  0  0  0  0  0  0  0  0  0  0  0
   57.9740   24.6260   45.6370 C   0  0  0  0  0  0  0  0  0  0  0  0
   57.5460   23.3220   45.5120 C   0  0  0  0  0  0  0  0  0  0  0  0
   56.1980   22.9730   45.4870 C   0  0  0  0  0  0  0  0  0  0  0  0
   55.8800   21.5570   45.3130 C   0  0  0  0  0  0  0  0  0  0  0  0
   55.4570   20.9370   46.5090 N   0  0  0  0  0  0  0  0  0  0  0  0
   56.1650   19.7970   46.9670 C   0  0  0  0  0  0  0  0  0  0  0  0
   57.3720   20.2860   47.7550 C   0  0  0  0  0  0  0  0  0  0  0  0
   57.1320   21.3130   48.6850 N   0  0  0  0  0  0  0  0  0  0  0  0
   57.5020   21.1160   50.0360 C   0  0  0  0  0  0  0  0  0  0  0  0
   56.1780   22.3130   48.3930 C   0  0  0  0  0  0  0  0  0  0  0  0
   55.0230   21.8170   47.5480 C   0  0  0  0  0  0  0  0  0  0  0  0
   55.3010   24.0110   45.5980 C   0  0  0  0  0  0  0  0  0  0  0  0
   55.7340   25.3370   45.7250 C   0  0  0  0  0  0  0  0  0  0  0  0
   54.7830   26.3630   45.8380 O   0  0  0  0  0  0  0  0  0  0  0  0
   57.8980   30.1590   46.2820 C   0  0  0  0  0  0  0  0  0  0  0  0
   58.1730   31.5210   46.2540 C   0  0  0  0  0  0  0  0  0  0  0  0
   59.6830   34.9690   47.4360 N   0  0  0  0  0  0  0  0  0  0  0  0
   60.6160   34.6150   48.2950 N   0  0  0  0  0  0  0  0  0  0  0  0
   64.6874   32.6394   47.9987 H   0  0  0  0  0  0  0  0  0  0  0  0
   63.5148   31.9786   46.8092 H   0  0  0  0  0  0  0  0  0  0  0  0
   63.9022   33.7326   46.8092 H   0  0  0  0  0  0  0  0  0  0  0  0
   62.3062   32.1234   48.8237 H   0  0  0  0  0  0  0  0  0  0  0  0
   62.8520   33.5008   50.5054 H   0  0  0  0  0  0  0  0  0  0  0  0
   64.1990   34.0899   49.4733 H   0  0  0  0  0  0  0  0  0  0  0  0
   62.6238   34.9532   49.4733 H   0  0  0  0  0  0  0  0  0  0  0  0
   61.4300   32.8416   45.6919 H   0  0  0  0  0  0  0  0  0  0  0  0
   56.6391   32.2621   43.3782 H   0  0  0  0  0  0  0  0  0  0  0  0
   56.1634   29.8737   43.4343 H   0  0  0  0  0  0  0  0  0  0  0  0
   55.9660   27.8900   44.7450 H   0  0  0  0  0  0  0  0  0  0  0  0
   59.0531   24.8392   45.6499 H   0  0  0  0  0  0  0  0  0  0  0  0
   58.2993   22.5248   45.4286 H   0  0  0  0  0  0  0  0  0  0  0  0
   55.0759   21.4670   44.5678 H   0  0  0  0  0  0  0  0  0  0  0  0
   56.8000   21.0502   44.9864 H   0  0  0  0  0  0  0  0  0  0  0  0
   55.5165   19.1887   47.6146 H   0  0  0  0  0  0  0  0  0  0  0  0
   56.4859   19.1764   46.1174 H   0  0  0  0  0  0  0  0  0  0  0  0
   57.7853   19.4266   48.3033 H   0  0  0  0  0  0  0  0  0  0  0  0
   58.0550   20.7183   47.0089 H   0  0  0  0  0  0  0  0  0  0  0  0
   56.7236   21.5304   50.6935 H   0  0  0  0  0  0  0  0  0  0  0  0
   57.6130   20.0394   50.2325 H   0  0  0  0  0  0  0  0  0  0  0  0
   58.4572   21.6250   50.2325 H   0  0  0  0  0  0  0  0  0  0  0  0
   55.7755   22.6979   49.3416 H   0  0  0  0  0  0  0  0  0  0  0  0
   56.6931   23.0922   47.8120 H   0  0  0  0  0  0  0  0  0  0  0  0
   54.3148   21.2794   48.1956 H   0  0  0  0  0  0  0  0  0  0  0  0
   54.5483   22.6902   47.0765 H   0  0  0  0  0  0  0  0  0  0  0  0
   54.2225   23.7949   45.5868 H   0  0  0  0  0  0  0  0  0  0  0  0
   54.3930   26.5650   46.7390 H   0  0  0  0  0  0  0  0  0  0  0  0
   58.2748   29.5734   47.1335 H   0  0  0  0  0  0  0  0  0  0  0  0
   58.7514   31.9794   47.0697 H   0  0  0  0  0  0  0  0  0  0  0  0
   58.9310   35.6370   47.6170 H   0  0  0  0  0  0  0  0  0  0  0  0
   60.6970   34.9830   49.2760 H   0  0  0  0  0  0  0  0  0  0  0  0
  1  2  1  0
  2  3  1  0
  2  4  1  0
  4  5  2  0
  5  6  1  0
  6  7  2  0
  7  8  1  0
  8  9  2  0
  8 10  1  0
 10 11  2  0
 11 12  1  0
 12 13  2  0
 13 14  1  0
 14 15  1  0
 15 16  2  0
 15 17  1  0
 17 18  2  0
 18 19  1  0
 19 20  2  0
 20 21  1  0
 21 22  1  0
 22 23  1  0
 23 24  1  0
 24 25  1  0
 25 26  1  0
 25 27  1  0
 27 28  1  0
 20 29  1  0
 29 30  2  0
 30 31  1  0
 13 32  1  0
 32 33  2  0
  6 34  1  0
 34 35  1  0
 35  4  1  0
 33 10  1  0
 30 17  1  0
 28 22  1  0
  1 36  1  0
  1 37  1  0
  1 38  1  0
  2 39  1  0
  3 40  1  0
  3 41  1  0
  3 42  1  0
  5 43  1  0
 11 44  1  0
 12 45  1  0
 14 46  1  0
 18 47  1  0
 19 48  1  0
 21 49  1  0
 21 50  1  0
 23 51  1  0
 23 52  1  0
 24 53  1  0
 24 54  1  0
 26 55  1  0
 26 56  1  0
 26 57  1  0
 27 58  1  0
 27 59  1  0
 28 60  1  0
 28 61  1  0
 29 62  1  0
 31 63  1  0
 32 64  1  0
 33 65  1  0
 34 66  1  0
 35 67  1  0
M  END
>  <smiles>  (55) 
CC(C)c1cc(=NC(=O)c2ccc(NC(=O)c3ccc(CN4CCN(C)CC4)cc3O)cc2)[nH][nH]1

>  <score_type>  (55) 
oracle

>  <origin>  (55) 
adg

>  <m_score__min__energy>  (55) 
-10.970000000000001

>  <m_primary>  (55) 
energy

$$$$
55:0
     RDKit          3D

 47 50  0  0  1  0  0  0  0  0999 V2000
   56.5770   30.8190   54.5420 C   0  0  0  0  0  0  0  0  0  0  0  0
   56.9420   30.9550   53.1160 C   0  0  0  0  0  0  0  0  0  0  0  0
   57.9890   30.2850   52.4850 C   0  0  0  0  0  0  0  0  0  0  0  0
   59.8640   32.7670   47.7460 C   0  0  0  0  0  0  0  0  0  0  0  0
   60.6150   33.8270   47.7080 N   0  0  0  0  0  0  0  0  0  0  0  0
   58.9450   30.9910   48.9780 C   0  0  0  0  0  0  0  0  0  0  0  0
   58.3160   30.5720   47.8460 N   0  0  0  0  0  0  0  0  0  0  0  0
   58.4450   31.2220   46.6790 C   0  0  0  0  0  0  0  0  0  0  0  0
   57.7780   30.7670   45.5080 N   0  0  0  0  0  0  0  0  0  0  0  0
   57.2640   31.6720   44.4910 C   0  0  0  0  0  0  0  0  0  0  0  0
   56.8000   30.8200   43.3590 C   0  0  0  0  0  0  0  0  0  0  0  0
   56.4690   29.5180   44.0490 C   0  0  2  0  0  0  0  0  0  0  0  0
   55.1610   29.6450   44.6850 N   0  0  0  0  0  0  0  0  0  0  0  0
   57.5130   29.3960   45.1540 C   0  0  0  0  0  0  0  0  0  0  0  0
   59.2300   32.3310   46.6380 N   0  0  0  0  0  0  0  0  0  0  0  0
   58.0170   30.6700   51.1560 C   0  0  0  0  0  0  0  0  0  0  0  0
   58.8100   30.3040   50.2170 N   0  0  0  0  0  0  0  0  0  0  0  0
   61.9590   33.6470   48.1940 C   0  0  0  0  0  0  0  0  0  0  0  0
   62.8930   33.2690   47.2670 C   0  0  0  0  0  0  0  0  0  0  0  0
   64.1790   33.0840   47.6710 N   0  0  0  0  0  0  0  0  0  0  0  0
   64.4920   33.2800   48.9740 C   0  0  0  0  0  0  0  0  0  0  0  0
   65.6840   33.1030   49.3190 O   0  0  0  0  0  0  0  0  0  0  0  0
   63.5550   33.6560   49.8840 N   0  0  0  0  0  0  0  0  0  0  0  0
   62.2680   33.8510   49.5300 C   0  0  0  0  0  0  0  0  0  0  0  0
   61.3770   34.2000   50.3490 O   0  0  0  0  0  0  0  0  0  0  0  0
   59.7290   32.1030   48.9220 N   0  0  0  0  0  0  0  0  0  0  0  0
   57.0130   31.5440   51.0080 N   0  0  0  0  0  0  0  0  0  0  0  0
   56.3800   31.7110   52.1650 N   0  0  0  0  0  0  0  0  0  0  0  0
   57.4239   31.1346   55.1690 H   0  0  0  0  0  0  0  0  0  0  0  0
   55.7041   31.4522   54.7591 H   0  0  0  0  0  0  0  0  0  0  0  0
   56.3313   29.7690   54.7591 H   0  0  0  0  0  0  0  0  0  0  0  0
   58.6764   29.5713   52.9625 H   0  0  0  0  0  0  0  0  0  0  0  0
   56.4249   32.2584   44.8936 H   0  0  0  0  0  0  0  0  0  0  0  0
   58.0381   32.3812   44.1628 H   0  0  0  0  0  0  0  0  0  0  0  0
   55.9114   31.2510   42.8745 H   0  0  0  0  0  0  0  0  0  0  0  0
   57.5425   30.7151   42.5542 H   0  0  0  0  0  0  0  0  0  0  0  0
   56.4613   28.6629   43.3570 H   0  0  0  0  0  0  0  0  0  0  0  0
   55.2590   30.0830   45.6370 H   0  0  0  0  0  0  0  0  0  0  0  0
   54.5090   30.1730   44.0630 H   0  0  0  0  0  0  0  0  0  0  0  0
   57.1146   28.8365   46.0132 H   0  0  0  0  0  0  0  0  0  0  0  0
   58.4140   28.8497   44.8383 H   0  0  0  0  0  0  0  0  0  0  0  0
   62.6090   33.1177   46.2151 H   0  0  0  0  0  0  0  0  0  0  0  0
   64.9240   32.7960   47.0060 H   0  0  0  0  0  0  0  0  0  0  0  0
   63.8050   33.8070   50.8960 H   0  0  0  0  0  0  0  0  0  0  0  0
   60.2330   32.4590   49.7810 H   0  0  0  0  0  0  0  0  0  0  0  0
   56.7290   32.0450   50.1370 H   0  0  0  0  0  0  0  0  0  0  0  0
   55.5500   32.3320   52.3740 H   0  0  0  0  0  0  0  0  0  0  0  0
  1  2  1  0
  2  3  2  0
  3  4  1  0
  4  5  2  0
  5  6  1  0
  6  7  2  0
  7  8  1  0
  8  9  1  0
  9 10  1  0
 10 11  1  0
 11 12  1  0
 12 13  1  0
 12 14  1  0
  8 15  2  0
 15 16  1  0
 16 17  2  0
 17 18  1  0
 18 19  2  0
 19 20  1  0
 20 21  1  0
 21 22  2  0
 21 23  1  0
 23 24  1  0
 24 25  2  0
 16 26  1  0
  4 27  1  0
 27 28  1  0
 28  2  1  0
 26  6  1  0
 14  9  1  0
 24 18  1  0
  1 29  1  0
  1 30  1  0
  1 31  1  0
  3 32  1  0
 10 33  1  0
 10 34  1  0
 11 35  1  0
 11 36  1  0
 12 37  1  6
 13 38  1  0
 13 39  1  0
 14 40  1  0
 14 41  1  0
 19 42  1  0
 20 43  1  0
 23 44  1  0
 26 45  1  0
 27 46  1  0
 28 47  1  0
M  END
>  <smiles>  (56) 
Cc1cc(=Nc2nc(N3CCC(N)C3)nc(=Nc3c[nH]c(=O)[nH]c3=O)[nH]2)[nH][nH]1

>  <score_type>  (56) 
oracle

>  <origin>  (56) 
adg

>  <m_score__min__energy>  (56) 
-7.8600000000000003

>  <m_primary>  (56) 
energy

$$$$
56:0
     RDKit          3D

 50 52  0  0  0  0  0  0  0  0999 V2000
   59.6730   29.6150   50.0370 C   0  0  0  0  0  0  0  0  0  0  0  0
   60.0070   28.7430   49.0840 C   0  0  0  0  0  0  0  0  0  0  0  0
   59.5170   28.8030   47.6850 C   0  0  0  0  0  0  0  0  0  0  0  0
   60.1670   29.5480   46.6830 C   0  0  0  0  0  0  0  0  0  0  0  0
   59.6740   29.5600   45.3760 C   0  0  0  0  0  0  0  0  0  0  0  0
   58.5170   28.8330   45.0400 C   0  0  0  0  0  0  0  0  0  0  0  0
   57.9830   28.8320   43.7380 O   0  0  0  0  0  0  0  0  0  0  0  0
   57.0080   29.7500   43.2440 C   0  0  0  0  0  0  0  0  0  0  0  0
   56.0880   30.1810   44.3540 C   0  0  0  0  0  0  0  0  0  0  0  0
   55.3420   29.3250   44.8970 O   0  0  0  0  0  0  0  0  0  0  0  0
   56.0950   31.5190   44.8680 N   0  0  0  0  0  0  0  0  0  0  0  0
   57.2680   32.3050   45.1110 C   0  0  0  0  0  0  0  0  0  0  0  0
   57.8690   33.0490   44.0840 C   0  0  0  0  0  0  0  0  0  0  0  0
   58.9960   33.8310   44.3540 C   0  0  0  0  0  0  0  0  0  0  0  0
   59.5300   33.8710   45.6450 C   0  0  0  0  0  0  0  0  0  0  0  0
   58.9430   33.1210   46.6730 C   0  0  0  0  0  0  0  0  0  0  0  0
   59.6300   33.1410   48.2960 S   0  0  0  0  0  0  0  0  0  0  0  0
   58.6660   32.4650   49.2310 O   0  0  0  0  0  0  0  0  0  0  0  0
   59.7740   34.5680   48.7490 O   0  0  0  0  0  0  0  0  0  0  0  0
   61.1750   32.3220   48.4040 N   0  0  0  0  0  0  0  0  0  0  0  0
   62.0030   32.7530   49.5460 C   0  0  0  0  0  0  0  0  0  0  0  0
   62.9300   33.9220   49.1930 C   0  0  0  0  0  0  0  0  0  0  0  0
   63.7060   33.6150   48.0560 O   0  0  0  0  0  0  0  0  0  0  0  0
   62.8550   33.4740   46.9400 C   0  0  0  0  0  0  0  0  0  0  0  0
   61.9050   32.2800   47.1210 C   0  0  0  0  0  0  0  0  0  0  0  0
   57.7930   32.3620   46.4060 C   0  0  0  0  0  0  0  0  0  0  0  0
   57.8740   28.0780   46.0350 C   0  0  0  0  0  0  0  0  0  0  0  0
   56.7300   27.3330   45.7470 O   0  0  0  0  0  0  0  0  0  0  0  0
   58.3760   28.0620   47.3410 C   0  0  0  0  0  0  0  0  0  0  0  0
   60.0796   29.5020   51.0528 H   0  0  0  0  0  0  0  0  0  0  0  0
   58.9911   30.4469   49.8068 H   0  0  0  0  0  0  0  0  0  0  0  0
   60.6913   27.9251   49.3536 H   0  0  0  0  0  0  0  0  0  0  0  0
   61.0700   30.1251   46.9311 H   0  0  0  0  0  0  0  0  0  0  0  0
   60.1950   30.1431   44.6024 H   0  0  0  0  0  0  0  0  0  0  0  0
   57.5173   30.6332   42.8311 H   0  0  0  0  0  0  0  0  0  0  0  0
   56.4159   29.2559   42.4596 H   0  0  0  0  0  0  0  0  0  0  0  0
   57.4532   33.0169   43.0661 H   0  0  0  0  0  0  0  0  0  0  0  0
   59.4636   34.4162   43.5485 H   0  0  0  0  0  0  0  0  0  0  0  0
   60.4130   34.4926   45.8546 H   0  0  0  0  0  0  0  0  0  0  0  0
   61.3385   33.0650   50.3652 H   0  0  0  0  0  0  0  0  0  0  0  0
   62.6358   31.9023   49.8391 H   0  0  0  0  0  0  0  0  0  0  0  0
   62.3224   34.8151   48.9854 H   0  0  0  0  0  0  0  0  0  0  0  0
   63.6039   34.1088   50.0421 H   0  0  0  0  0  0  0  0  0  0  0  0
   62.2608   34.3922   46.8222 H   0  0  0  0  0  0  0  0  0  0  0  0
   63.4731   33.2986   46.0472 H   0  0  0  0  0  0  0  0  0  0  0  0
   61.1734   32.2847   46.2995 H   0  0  0  0  0  0  0  0  0  0  0  0
   62.5162   31.3654   47.1162 H   0  0  0  0  0  0  0  0  0  0  0  0
   57.3018   31.8088   47.2200 H   0  0  0  0  0  0  0  0  0  0  0  0
   56.2760   27.3690   44.8430 H   0  0  0  0  0  0  0  0  0  0  0  0
   57.8689   27.4598   48.1092 H   0  0  0  0  0  0  0  0  0  0  0  0
  1  2  2  0
  2  3  1  0
  3  4  2  0
  4  5  1  0
  5  6  2  0
  6  7  1  0
  7  8  1  0
  8  9  1  0
  9 10  2  0
  9 11  1  0
 11 12  1  0
 12 13  2  0
 13 14  1  0
 14 15  2  0
 15 16  1  0
 16 17  1  0
 17 18  2  0
 17 19  2  0
 17 20  1  0
 20 21  1  0
 21 22  1  0
 22 23  1  0
 23 24  1  0
 24 25  1  0
 16 26  2  0
  6 27  1  0
 27 28  1  0
 27 29  2  0
 29  3  1  0
 26 12  1  0
 25 20  1  0
  1 30  1  0
  1 31  1  0
  2 32  1  0
  4 33  1  0
  5 34  1  0
  8 35  1  0
  8 36  1  0
 13 37  1  0
 14 38  1  0
 15 39  1  0
 21 40  1  0
 21 41  1  0
 22 42  1  0
 22 43  1  0
 24 44  1  0
 24 45  1  0
 25 46  1  0
 25 47  1  0
 26 48  1  0
 28 49  1  0
 29 50  1  0
M  CHG  1  11  -1
M  END
>  <UniqueID>  (57) 
53

>  <SMILES>  (57) 
C=Cc1ccc(OCC(=O)[N-]c2cccc(S(=O)(=O)N3CCOCC3)c2)c(O)c1

>  <Energy>  (57) 
60.711856603506526

>  <Genealogy>  (57) 
C=Cc1ccc(OCC(=O)[N-]c2cccc(S(=O)(=O)N3CCOCC3)c2)c(O)c1 (protonated)
C=Cc1ccc(OCC(=O)[N-]c2cccc(S(=O)(=O)N3CCOCC3)c2)c(O)c1 (3D coordinates assigned)
C=Cc1ccc(OCC(=O)[N-]c2cccc(S(=O)(=O)N3CCOCC3)c2)c(O)c1 (nonaromatic ring conformer: 60.711856603506526 kcal/mol)

>  <smiles>  (57) 
C=Cc1ccc(OCC(=O)Nc2cccc(S(=O)(=O)N3CCOCC3)c2)c(O)c1

>  <score_type>  (57) 
oracle

>  <origin>  (57) 
adg

>  <m_score__min__energy>  (57) 
-11.710000000000001

>  <m_primary>  (57) 
energy

$$$$
57:0
     RDKit          3D

 34 35  0  0  0  0  0  0  0  0999 V2000
   57.3460   31.2250   43.0970 C   0  0  0  0  0  0  0  0  0  0  0  0
   57.6630   31.6740   44.5010 C   0  0  0  0  0  0  0  0  0  0  0  0
   57.1150   32.8830   44.9650 C   0  0  0  0  0  0  0  0  0  0  0  0
   57.3670   33.3280   46.2630 C   0  0  0  0  0  0  0  0  0  0  0  0
   58.1640   32.5700   47.1180 C   0  0  0  0  0  0  0  0  0  0  0  0
   58.7170   31.3670   46.6770 C   0  0  0  0  0  0  0  0  0  0  0  0
   58.4850   30.9070   45.3680 C   0  0  0  0  0  0  0  0  0  0  0  0
   59.1180   29.5960   44.9530 C   0  0  0  0  0  0  0  0  0  0  0  0
   58.0960   28.6430   44.5350 N   0  0  0  0  0  0  0  0  0  0  0  0
   56.9580   28.2980   45.3340 C   0  0  0  0  0  0  0  0  0  0  0  0
   55.8890   28.9580   45.2420 O   0  0  0  0  0  0  0  0  0  0  0  0
   57.0590   27.1780   46.3180 C   0  0  0  0  0  0  0  0  0  0  0  0
   56.1120   26.0780   45.9410 C   0  0  0  0  0  0  0  0  0  0  0  0
   56.5870   24.7890   45.6570 C   0  0  0  0  0  0  0  0  0  0  0  0
   55.6780   23.7760   45.3410 C   0  0  0  0  0  0  0  0  0  0  0  0
   56.1000   22.6170   45.0810 O   0  0  0  0  0  0  0  0  0  0  0  0
   54.3030   24.0560   45.3170 C   0  0  0  0  0  0  0  0  0  0  0  0
   53.3610   23.0760   45.0060 O   0  0  0  0  0  0  0  0  0  0  0  0
   53.8700   25.3520   45.6160 C   0  0  0  0  0  0  0  0  0  0  0  0
   54.7730   26.3220   45.9220 N   0  0  0  0  0  0  0  0  0  0  0  0
   56.7119   30.3269   43.1336 H   0  0  0  0  0  0  0  0  0  0  0  0
   56.8137   32.0283   42.5665 H   0  0  0  0  0  0  0  0  0  0  0  0
   58.2811   30.9923   42.5665 H   0  0  0  0  0  0  0  0  0  0  0  0
   56.4807   33.4845   44.2973 H   0  0  0  0  0  0  0  0  0  0  0  0
   56.9360   34.2781   46.6116 H   0  0  0  0  0  0  0  0  0  0  0  0
   58.3578   32.9204   48.1426 H   0  0  0  0  0  0  0  0  0  0  0  0
   59.3409   30.7721   47.3602 H   0  0  0  0  0  0  0  0  0  0  0  0
   59.8081   29.7767   44.1157 H   0  0  0  0  0  0  0  0  0  0  0  0
   59.6635   29.1777   45.8117 H   0  0  0  0  0  0  0  0  0  0  0  0
   58.0875   26.7880   46.3219 H   0  0  0  0  0  0  0  0  0  0  0  0
   56.7984   27.5519   47.3191 H   0  0  0  0  0  0  0  0  0  0  0  0
   57.6662   24.5775   45.6829 H   0  0  0  0  0  0  0  0  0  0  0  0
   53.6270   22.1150   44.8230 H   0  0  0  0  0  0  0  0  0  0  0  0
   52.7956   25.5875   45.6036 H   0  0  0  0  0  0  0  0  0  0  0  0
  1  2  1  0
  2  3  2  0
  3  4  1  0
  4  5  2  0
  5  6  1  0
  6  7  2  0
  7  8  1  0
  8  9  1  0
  9 10  1  0
 10 11  2  0
 10 12  1  0
 12 13  1  0
 13 14  2  0
 14 15  1  0
 15 16  2  0
 15 17  1  0
 17 18  1  0
 17 19  2  0
 19 20  1  0
  7  2  1  0
 20 13  1  0
  1 21  1  0
  1 22  1  0
  1 23  1  0
  3 24  1  0
  4 25  1  0
  5 26  1  0
  6 27  1  0
  8 28  1  0
  8 29  1  0
 12 30  1  0
 12 31  1  0
 14 32  1  0
 18 33  1  0
 19 34  1  0
M  CHG  2   9  -1  20  -1
M  END
>  <UniqueID>  (58) 
54

>  <SMILES>  (58) 
Cc1ccccc1C[N-]C(=O)Cc1cc(=O)c(O)c[n-]1

>  <Energy>  (58) 
32.83213168978546

>  <Genealogy>  (58) 
Cc1ccccc1C[N-]C(=O)Cc1cc(=O)c(O)c[n-]1 (protonated)
Cc1ccccc1C[N-]C(=O)Cc1cc(=O)c(O)c[n-]1 (3D coordinates assigned)
Cc1ccccc1C[N-]C(=O)Cc1cc(=O)c(O)c[n-]1 (optimized conformer: 32.83213168978546 kcal/mol)

>  <smiles>  (58) 
Cc1ccccc1CNC(=O)Cc1cc(=O)c(O)c[nH]1

>  <score_type>  (58) 
oracle

>  <origin>  (58) 
adg

>  <m_score__min__energy>  (58) 
-10.99

>  <m_primary>  (58) 
energy

$$$$
58:0
     RDKit          3D

 42 44  0  0  0  0  0  0  0  0999 V2000
   58.6210   32.1150   52.2270 C   0  0  0  0  0  0  0  0  0  0  0  0
   58.9470   32.9530   51.0360 C   0  0  0  0  0  0  0  0  0  0  0  0
   59.4630   34.1940   51.1100 N   0  0  0  0  0  0  0  0  0  0  0  0
   59.6500   34.5550   49.8740 O   0  0  0  0  0  0  0  0  0  0  0  0
   59.2840   33.5890   49.0610 C   0  0  0  0  0  0  0  0  0  0  0  0
   59.3750   33.6910   47.5550 C   0  0  1  0  0  0  0  0  0  0  0  0
   60.7500   34.1850   47.0450 C   0  0  0  0  0  0  0  0  0  0  0  0
   61.9440   33.6680   47.8150 C   0  0  0  0  0  0  0  0  0  0  0  0
   62.6130   32.5060   47.3910 C   0  0  0  0  0  0  0  0  0  0  0  0
   63.7130   32.0250   48.1070 C   0  0  0  0  0  0  0  0  0  0  0  0
   64.1430   32.6860   49.2610 C   0  0  0  0  0  0  0  0  0  0  0  0
   65.5250   32.0810   50.1570 Cl  0  0  0  0  0  0  0  0  0  0  0  0
   63.4650   33.8260   49.7050 C   0  0  0  0  0  0  0  0  0  0  0  0
   62.3650   34.3110   48.9920 C   0  0  0  0  0  0  0  0  0  0  0  0
   58.8700   32.4610   46.8150 C   0  0  0  0  0  0  0  0  0  0  0  0
   58.0490   32.6360   45.6870 C   0  0  0  0  0  0  0  0  0  0  0  0
   57.6010   31.5380   44.9480 C   0  0  0  0  0  0  0  0  0  0  0  0
   57.9820   30.2390   45.3110 C   0  0  0  0  0  0  0  0  0  0  0  0
   57.4780   29.0550   44.5340 C   0  0  0  0  0  0  0  0  0  0  0  0
   56.1140   28.6730   45.0080 C   0  0  0  0  0  0  0  0  0  0  0  0
   55.1480   29.4680   44.8640 O   0  0  0  0  0  0  0  0  0  0  0  0
   55.9150   27.4590   45.6530 O   0  0  0  0  0  0  0  0  0  0  0  0
   58.8010   30.0530   46.4330 C   0  0  0  0  0  0  0  0  0  0  0  0
   59.2490   31.1500   47.1720 C   0  0  0  0  0  0  0  0  0  0  0  0
   58.8290   32.5350   49.7650 N   0  0  0  0  0  0  0  0  0  0  0  0
   58.8410   32.6805   53.1445 H   0  0  0  0  0  0  0  0  0  0  0  0
   57.5538   31.8490   52.2072 H   0  0  0  0  0  0  0  0  0  0  0  0
   59.2279   31.1978   52.2072 H   0  0  0  0  0  0  0  0  0  0  0  0
   58.6632   34.4889   47.2969 H   0  0  0  0  0  0  0  0  0  0  0  0
   60.8580   33.8693   45.9968 H   0  0  0  0  0  0  0  0  0  0  0  0
   60.7507   35.2771   47.1764 H   0  0  0  0  0  0  0  0  0  0  0  0
   62.2692   31.9733   46.4921 H   0  0  0  0  0  0  0  0  0  0  0  0
   64.2414   31.1242   47.7614 H   0  0  0  0  0  0  0  0  0  0  0  0
   63.7983   34.3421   50.6175 H   0  0  0  0  0  0  0  0  0  0  0  0
   61.8265   35.1995   49.3534 H   0  0  0  0  0  0  0  0  0  0  0  0
   57.7553   33.6513   45.3821 H   0  0  0  0  0  0  0  0  0  0  0  0
   56.9466   31.6938   44.0777 H   0  0  0  0  0  0  0  0  0  0  0  0
   57.4328   29.3134   43.4657 H   0  0  0  0  0  0  0  0  0  0  0  0
   58.1623   28.2072   44.6854 H   0  0  0  0  0  0  0  0  0  0  0  0
   59.0929   29.0359   46.7336 H   0  0  0  0  0  0  0  0  0  0  0  0
   59.9040   30.9902   48.0412 H   0  0  0  0  0  0  0  0  0  0  0  0
   58.4590   31.6200   49.4290 H   0  0  0  0  0  0  0  0  0  0  0  0
  1  2  1  0
  2  3  2  0
  3  4  1  0
  4  5  1  0
  5  6  1  0
  6  7  1  0
  7  8  1  0
  8  9  2  0
  9 10  1  0
 10 11  2  0
 11 12  1  0
 11 13  1  0
 13 14  2  0
  6 15  1  0
 15 16  2  0
 16 17  1  0
 17 18  2  0
 18 19  1  0
 19 20  1  0
 20 21  2  0
 20 22  1  0
 18 23  1  0
 23 24  2  0
  5 25  2  0
 25  2  1  0
 14  8  1  0
 24 15  1  0
  1 26  1  0
  1 27  1  0
  1 28  1  0
  6 29  1  6
  7 30  1  0
  7 31  1  0
  9 32  1  0
 10 33  1  0
 13 34  1  0
 14 35  1  0
 16 36  1  0
 17 37  1  0
 19 38  1  0
 19 39  1  0
 23 40  1  0
 24 41  1  0
 25 42  1  0
M  CHG  2  22  -1  25   1
M  END
>  <UniqueID>  (59) 
55

>  <SMILES>  (59) 
Cc1noc([C@@H](Cc2ccc(Cl)cc2)c2ccc(CC(=O)[O-])cc2)[nH+]1

>  <Energy>  (59) 
77.58726841993251

>  <Genealogy>  (59) 
Cc1noc(C(Cc2ccc(Cl)cc2)c2ccc(CC(=O)[O-])cc2)[nH+]1 (protonated)
Cc1noc([C@@H](Cc2ccc(Cl)cc2)c2ccc(CC(=O)[O-])cc2)[nH+]1 (chirality)
Cc1noc([C@@H](Cc2ccc(Cl)cc2)c2ccc(CC(=O)[O-])cc2)[nH+]1 (3D coordinates assigned)
Cc1noc([C@@H](Cc2ccc(Cl)cc2)c2ccc(CC(=O)[O-])cc2)[nH+]1 (optimized conformer: 77.58726841993251 kcal/mol)

>  <smiles>  (59) 
Cc1noc(C(Cc2ccc(Cl)cc2)c2ccc(CC(=O)O)cc2)n1

>  <score_type>  (59) 
oracle

>  <origin>  (59) 
adg

>  <m_score__min__energy>  (59) 
-9.6899999999999995

>  <m_primary>  (59) 
energy

$$$$
59:0
     RDKit          3D

 54 56  0  0  0  0  0  0  0  0999 V2000
   56.9600   34.5100   44.8820 C   0  0  0  0  0  0  0  0  0  0  0  0
   58.0190   34.1900   45.8960 C   0  0  0  0  0  0  0  0  0  0  0  0
   59.2520   34.8590   45.8680 C   0  0  0  0  0  0  0  0  0  0  0  0
   60.2230   34.5900   46.8370 C   0  0  0  0  0  0  0  0  0  0  0  0
   59.9650   33.6670   47.8630 C   0  0  0  0  0  0  0  0  0  0  0  0
   61.0110   33.3850   48.9190 C   0  0  0  0  0  0  0  0  0  0  0  0
   62.1490   32.5760   48.4050 N   0  0  0  0  0  0  0  0  0  0  0  0
   62.6990   31.6300   49.4030 C   0  0  0  0  0  0  0  0  0  0  0  0
   61.6650   30.5750   49.8250 C   0  0  0  0  0  0  0  0  0  0  0  0
   60.8070   30.1920   48.6970 N   0  0  0  0  0  0  0  0  0  0  0  0
   59.5990   29.4440   48.9640 C   0  0  0  0  0  0  0  0  0  0  0  0
   59.4080   28.9600   50.1130 O   0  0  0  0  0  0  0  0  0  0  0  0
   58.5490   29.2190   47.9190 C   0  0  0  0  0  0  0  0  0  0  0  0
   58.8150   27.9670   47.2230 N   0  0  0  0  0  0  0  0  0  0  0  0
   57.8290   27.1700   46.5560 C   0  0  0  0  0  0  0  0  0  0  0  0
   57.2110   26.2950   47.2170 O   0  0  0  0  0  0  0  0  0  0  0  0
   57.4950   27.3520   45.0980 C   0  0  0  0  0  0  0  0  0  0  0  0
   57.5530   28.8100   44.7220 C   0  0  0  0  0  0  0  0  0  0  0  0
   58.7950   29.4430   44.5410 C   0  0  0  0  0  0  0  0  0  0  0  0
   58.8540   30.7990   44.2040 C   0  0  0  0  0  0  0  0  0  0  0  0
   57.6770   31.5360   44.0560 C   0  0  0  0  0  0  0  0  0  0  0  0
   56.4380   30.9200   44.2470 C   0  0  0  0  0  0  0  0  0  0  0  0
   56.3710   29.5620   44.5810 C   0  0  0  0  0  0  0  0  0  0  0  0
   55.1580   28.9850   44.7700 F   0  0  0  0  0  0  0  0  0  0  0  0
   61.3110   30.4200   47.3350 C   0  0  0  0  0  0  0  0  0  0  0  0
   61.7800   31.8790   47.1410 C   0  0  0  0  0  0  0  0  0  0  0  0
   58.7240   33.0090   47.8980 C   0  0  0  0  0  0  0  0  0  0  0  0
   57.7560   33.2730   46.9250 C   0  0  0  0  0  0  0  0  0  0  0  0
   56.0305   34.7909   45.3988 H   0  0  0  0  0  0  0  0  0  0  0  0
   57.2964   35.3466   44.2520 H   0  0  0  0  0  0  0  0  0  0  0  0
   56.7769   33.6271   44.2520 H   0  0  0  0  0  0  0  0  0  0  0  0
   59.4556   35.5987   45.0797 H   0  0  0  0  0  0  0  0  0  0  0  0
   61.1945   35.1043   46.7954 H   0  0  0  0  0  0  0  0  0  0  0  0
   61.4016   34.3437   49.2910 H   0  0  0  0  0  0  0  0  0  0  0  0
   60.5262   32.8033   49.7169 H   0  0  0  0  0  0  0  0  0  0  0  0
   62.9180   33.2460   48.1660 H   0  0  0  0  0  0  0  0  0  0  0  0
   63.5699   31.1193   48.9663 H   0  0  0  0  0  0  0  0  0  0  0  0
   62.9827   32.2051   50.2968 H   0  0  0  0  0  0  0  0  0  0  0  0
   62.1925   29.6829   50.1937 H   0  0  0  0  0  0  0  0  0  0  0  0
   61.0312   31.0047   50.6147 H   0  0  0  0  0  0  0  0  0  0  0  0
   57.5601   29.1690   48.3981 H   0  0  0  0  0  0  0  0  0  0  0  0
   58.5663   30.0495   47.1979 H   0  0  0  0  0  0  0  0  0  0  0  0
   58.2188   26.7917   44.4880 H   0  0  0  0  0  0  0  0  0  0  0  0
   56.4766   26.9778   44.9166 H   0  0  0  0  0  0  0  0  0  0  0  0
   59.7251   28.8689   44.6650 H   0  0  0  0  0  0  0  0  0  0  0  0
   59.8291   31.2859   44.0552 H   0  0  0  0  0  0  0  0  0  0  0  0
   57.7257   32.6020   43.7889 H   0  0  0  0  0  0  0  0  0  0  0  0
   55.5123   31.5035   44.1347 H   0  0  0  0  0  0  0  0  0  0  0  0
   62.1592   29.7445   47.1501 H   0  0  0  0  0  0  0  0  0  0  0  0
   60.4923   30.2239   46.6270 H   0  0  0  0  0  0  0  0  0  0  0  0
   62.6598   31.8734   46.4808 H   0  0  0  0  0  0  0  0  0  0  0  0
   60.9292   32.4299   46.7135 H   0  0  0  0  0  0  0  0  0  0  0  0
   58.5131   32.2818   48.6959 H   0  0  0  0  0  0  0  0  0  0  0  0
   56.7839   32.7598   46.9661 H   0  0  0  0  0  0  0  0  0  0  0  0
  1  2  1  0
  2  3  2  0
  3  4  1  0
  4  5  2  0
  5  6  1  0
  6  7  1  0
  7  8  1  0
  8  9  1  0
  9 10  1  0
 10 11  1  0
 11 12  2  0
 11 13  1  0
 13 14  1  0
 14 15  1  0
 15 16  2  0
 15 17  1  0
 17 18  1  0
 18 19  2  0
 19 20  1  0
 20 21  2  0
 21 22  1  0
 22 23  2  0
 23 24  1  0
 10 25  1  0
 25 26  1  0
  5 27  1  0
 27 28  2  0
 28  2  1  0
 26  7  1  0
 23 18  1  0
  1 29  1  0
  1 30  1  0
  1 31  1  0
  3 32  1  0
  4 33  1  0
  6 34  1  0
  6 35  1  0
  7 36  1  0
  8 37  1  0
  8 38  1  0
  9 39  1  0
  9 40  1  0
 13 41  1  0
 13 42  1  0
 17 43  1  0
 17 44  1  0
 19 45  1  0
 20 46  1  0
 21 47  1  0
 22 48  1  0
 25 49  1  0
 25 50  1  0
 26 51  1  0
 26 52  1  0
 27 53  1  0
 28 54  1  0
M  CHG  2   7   1  14  -1
M  END
>  <UniqueID>  (60) 
56

>  <SMILES>  (60) 
Cc1ccc(C[NH+]2CCN(C(=O)C[N-]C(=O)Cc3ccccc3F)CC2)cc1

>  <Energy>  (60) 
61.497624803893686

>  <Genealogy>  (60) 
Cc1ccc(C[NH+]2CCN(C(=O)C[N-]C(=O)Cc3ccccc3F)CC2)cc1 (protonated)
Cc1ccc(C[NH+]2CCN(C(=O)C[N-]C(=O)Cc3ccccc3F)CC2)cc1 (3D coordinates assigned)
Cc1ccc(C[NH+]2CCN(C(=O)C[N-]C(=O)Cc3ccccc3F)CC2)cc1 (nonaromatic ring conformer: 61.497624803893686 kcal/mol)

>  <smiles>  (60) 
Cc1ccc(CN2CCN(C(=O)CNC(=O)Cc3ccccc3F)CC2)cc1

>  <score_type>  (60) 
oracle

>  <origin>  (60) 
adg

>  <m_score__min__energy>  (60) 
-8.9299999999999997

>  <m_primary>  (60) 
energy

$$$$
60:0
     RDKit          3D

 47 50  0  0  0  0  0  0  0  0999 V2000
   56.5300   29.6030   44.1520 C   0  0  0  0  0  0  0  0  0  0  0  0
   57.6640   29.1570   44.7170 C   0  0  0  0  0  0  0  0  0  0  0  0
   58.1120   27.8280   44.7850 C   0  0  0  0  0  0  0  0  0  0  0  0
   57.4840   26.6680   44.5100 C   0  0  0  0  0  0  0  0  0  0  0  0
   56.9810   25.7080   45.5030 C   0  0  0  0  0  0  0  0  0  0  0  0
   57.7210   24.7080   46.0120 N   0  0  0  0  0  0  0  0  0  0  0  0
   56.9180   24.1750   46.9590 C   0  0  0  0  0  0  0  0  0  0  0  0
   57.2590   23.1870   47.6580 O   0  0  0  0  0  0  0  0  0  0  0  0
   55.7260   24.7930   47.1060 N   0  0  0  0  0  0  0  0  0  0  0  0
   55.7870   25.7700   46.1880 C   0  0  0  0  0  0  0  0  0  0  0  0
   54.7870   26.7160   46.0000 O   0  0  0  0  0  0  0  0  0  0  0  0
   59.4220   27.8830   45.2310 C   0  0  0  0  0  0  0  0  0  0  0  0
   59.7030   29.2090   45.4860 C   0  0  0  0  0  0  0  0  0  0  0  0
   61.0120   29.7150   46.0130 C   0  0  0  0  0  0  0  0  0  0  0  0
   58.6400   29.9840   45.1750 N   0  0  0  0  0  0  0  0  0  0  0  0
   58.5810   31.4160   45.2970 C   0  0  0  0  0  0  0  0  0  0  0  0
   57.8490   32.1770   44.3740 C   0  0  0  0  0  0  0  0  0  0  0  0
   57.7880   33.5660   44.5000 C   0  0  0  0  0  0  0  0  0  0  0  0
   58.4650   34.2060   45.5420 C   0  0  0  0  0  0  0  0  0  0  0  0
   59.2200   33.4590   46.4610 C   0  0  0  0  0  0  0  0  0  0  0  0
   59.9200   34.1400   47.5680 C   0  0  0  0  0  0  0  0  0  0  0  0
   59.2930   34.9900   48.2550 O   0  0  0  0  0  0  0  0  0  0  0  0
   61.2980   33.8570   47.8750 N   0  0  0  0  0  0  0  0  0  0  0  0
   61.9010   34.1980   49.1530 C   0  0  0  0  0  0  0  0  0  0  0  0
   63.4070   34.1120   48.9370 C   0  0  0  0  0  0  0  0  0  0  0  0
   63.6040   33.3550   47.6280 C   0  0  0  0  0  0  0  0  0  0  0  0
   62.2820   33.4590   46.8800 C   0  0  0  0  0  0  0  0  0  0  0  0
   59.2570   32.0610   46.3420 C   0  0  0  0  0  0  0  0  0  0  0  0
   56.2938   30.6773   44.1665 H   0  0  0  0  0  0  0  0  0  0  0  0
   55.8375   28.8940   43.6748 H   0  0  0  0  0  0  0  0  0  0  0  0
   57.3346   26.4175   43.4494 H   0  0  0  0  0  0  0  0  0  0  0  0
   60.1073   27.0319   45.3576 H   0  0  0  0  0  0  0  0  0  0  0  0
   60.9921   29.7073   47.1128 H   0  0  0  0  0  0  0  0  0  0  0  0
   61.8260   29.0668   45.6565 H   0  0  0  0  0  0  0  0  0  0  0  0
   61.1784   30.7422   45.6565 H   0  0  0  0  0  0  0  0  0  0  0  0
   57.3212   31.6778   43.5481 H   0  0  0  0  0  0  0  0  0  0  0  0
   57.2062   34.1578   43.7780 H   0  0  0  0  0  0  0  0  0  0  0  0
   58.4062   35.2998   45.6427 H   0  0  0  0  0  0  0  0  0  0  0  0
   61.6144   35.2170   49.4521 H   0  0  0  0  0  0  0  0  0  0  0  0
   61.5670   33.5200   49.9522 H   0  0  0  0  0  0  0  0  0  0  0  0
   63.8404   35.1204   48.8638 H   0  0  0  0  0  0  0  0  0  0  0  0
   63.9047   33.6020   49.7750 H   0  0  0  0  0  0  0  0  0  0  0  0
   64.4130   33.8128   47.0398 H   0  0  0  0  0  0  0  0  0  0  0  0
   63.8841   32.3065   47.8072 H   0  0  0  0  0  0  0  0  0  0  0  0
   62.3500   34.2150   46.0839 H   0  0  0  0  0  0  0  0  0  0  0  0
   62.0114   32.5076   46.3988 H   0  0  0  0  0  0  0  0  0  0  0  0
   59.8214   31.4662   47.0752 H   0  0  0  0  0  0  0  0  0  0  0  0
  1  2  2  0
  2  3  1  0
  3  4  2  3
  4  5  1  0
  5  6  1  0
  6  7  1  0
  7  8  2  0
  7  9  1  0
  9 10  1  0
 10 11  1  0
  3 12  1  0
 12 13  2  0
 13 14  1  0
 13 15  1  0
 15 16  1  0
 16 17  2  0
 17 18  1  0
 18 19  2  0
 19 20  1  0
 20 21  1  0
 21 22  2  0
 21 23  1  0
 23 24  1  0
 24 25  1  0
 25 26  1  0
 26 27  1  0
 20 28  2  0
 15  2  1  0
 28 16  1  0
 10  5  2  0
 27 23  1  0
  1 29  1  0
  1 30  1  0
  4 31  1  0
 12 32  1  0
 14 33  1  0
 14 34  1  0
 14 35  1  0
 17 36  1  0
 18 37  1  0
 19 38  1  0
 24 39  1  0
 24 40  1  0
 25 41  1  0
 25 42  1  0
 26 43  1  0
 26 44  1  0
 27 45  1  0
 27 46  1  0
 28 47  1  0
M  CHG  3   6  -1   9  -1  11  -1
M  END
>  <UniqueID>  (61) 
57

>  <SMILES>  (61) 
C=c1c(=Cc2[n-]c(=O)[n-]c2[O-])cc(C)n1-c1cccc(C(=O)N2CCCC2)c1

>  <Energy>  (61) 
129.7678205365689

>  <Genealogy>  (61) 
C=c1c(=Cc2[n-]c(=O)[n-]c2[O-])cc(C)n1-c1cccc(C(=O)N2CCCC2)c1 (protonated)
C=c1c(=Cc2[n-]c(=O)[n-]c2[O-])cc(C)n1-c1cccc(C(=O)N2CCCC2)c1 (3D coordinates assigned)
C=c1c(=Cc2[n-]c(=O)[n-]c2[O-])cc(C)n1-c1cccc(C(=O)N2CCCC2)c1 (nonaromatic ring conformer: 129.7678205365689 kcal/mol)

>  <smiles>  (61) 
C=c1c(=Cc2[nH]c(=O)[nH]c2O)cc(C)n1-c1cccc(C(=O)N2CCCC2)c1

>  <score_type>  (61) 
oracle

>  <origin>  (61) 
adg

>  <m_score__min__energy>  (61) 
-17.100000000000001

>  <m_primary>  (61) 
energy

$$$$
61:0
     RDKit          3D

 43 46  0  0  0  0  0  0  0  0999 V2000
   57.7820   32.3470   41.5470 C   0  0  0  0  0  0  0  0  0  0  0  0
   57.2450   32.0990   42.8410 O   0  0  0  0  0  0  0  0  0  0  0  0
   57.8710   32.4580   44.0470 C   0  0  0  0  0  0  0  0  0  0  0  0
   57.9000   33.7900   44.5010 C   0  0  0  0  0  0  0  0  0  0  0  0
   58.5380   34.1170   45.6990 C   0  0  0  0  0  0  0  0  0  0  0  0
   59.1470   33.1220   46.4770 C   0  0  0  0  0  0  0  0  0  0  0  0
   59.8410   33.4860   47.7330 C   0  0  0  0  0  0  0  0  0  0  0  0
   59.1290   33.8680   48.7510 N   0  0  0  0  0  0  0  0  0  0  0  0
   59.6980   34.1710   49.9750 O   0  0  0  0  0  0  0  0  0  0  0  0
   60.9990   33.7120   50.3420 C   0  0  0  0  0  0  0  0  0  0  0  0
   61.8910   33.6100   49.1380 C   0  0  0  0  0  0  0  0  0  0  0  0
   63.2850   33.5920   49.2920 C   0  0  0  0  0  0  0  0  0  0  0  0
   64.1130   33.4600   48.1750 C   0  0  0  0  0  0  0  0  0  0  0  0
   63.5560   33.3420   46.9010 C   0  0  0  0  0  0  0  0  0  0  0  0
   62.1670   33.3440   46.7390 C   0  0  0  0  0  0  0  0  0  0  0  0
   61.3210   33.4530   47.8600 C   0  0  0  0  0  0  0  0  0  0  0  0
   59.1190   31.7890   46.0320 C   0  0  0  0  0  0  0  0  0  0  0  0
   58.4870   31.4580   44.8220 C   0  0  0  0  0  0  0  0  0  0  0  0
   58.5280   30.0520   44.3760 C   0  0  0  0  0  0  0  0  0  0  0  0
   59.0320   29.0970   45.1610 C   0  0  0  0  0  0  0  0  0  0  0  0
   59.4670   29.3820   46.5860 C   0  0  0  0  0  0  0  0  0  0  0  0
   60.7510   28.6050   46.8950 C   0  0  0  0  0  0  0  0  0  0  0  0
   58.3500   28.9500   47.5440 C   0  0  0  0  0  0  0  0  0  0  0  0
   59.7270   30.7780   46.7860 O   0  0  0  0  0  0  0  0  0  0  0  0
   58.7767   32.8064   41.6447 H   0  0  0  0  0  0  0  0  0  0  0  0
   57.8688   31.3978   40.9979 H   0  0  0  0  0  0  0  0  0  0  0  0
   57.1157   33.0286   40.9979 H   0  0  0  0  0  0  0  0  0  0  0  0
   57.4162   34.5795   43.9072 H   0  0  0  0  0  0  0  0  0  0  0  0
   58.5631   35.1640   46.0354 H   0  0  0  0  0  0  0  0  0  0  0  0
   61.4414   34.4192   51.0590 H   0  0  0  0  0  0  0  0  0  0  0  0
   60.9047   32.7140   50.7949 H   0  0  0  0  0  0  0  0  0  0  0  0
   63.7273   33.6821   50.2951 H   0  0  0  0  0  0  0  0  0  0  0  0
   65.2058   33.4490   48.2997 H   0  0  0  0  0  0  0  0  0  0  0  0
   64.2109   33.2472   46.0223 H   0  0  0  0  0  0  0  0  0  0  0  0
   61.7331   33.2601   45.7317 H   0  0  0  0  0  0  0  0  0  0  0  0
   58.1376   29.7869   43.3823 H   0  0  0  0  0  0  0  0  0  0  0  0
   59.1346   28.0763   44.7639 H   0  0  0  0  0  0  0  0  0  0  0  0
   60.8793   28.5273   47.9847 H   0  0  0  0  0  0  0  0  0  0  0  0
   60.6827   27.5965   46.4611 H   0  0  0  0  0  0  0  0  0  0  0  0
   61.6127   29.1333   46.4611 H   0  0  0  0  0  0  0  0  0  0  0  0
   58.6872   29.0804   48.5829 H   0  0  0  0  0  0  0  0  0  0  0  0
   57.4569   29.5676   47.3681 H   0  0  0  0  0  0  0  0  0  0  0  0
   58.1048   27.8922   47.3681 H   0  0  0  0  0  0  0  0  0  0  0  0
  1  2  1  0
  2  3  1  0
  3  4  2  0
  4  5  1  0
  5  6  2  0
  6  7  1  0
  7  8  2  0
  8  9  1  0
  9 10  1  0
 10 11  1  0
 11 12  2  0
 12 13  1  0
 13 14  2  0
 14 15  1  0
 15 16  2  0
  6 17  1  0
 17 18  2  0
 18 19  1  0
 19 20  2  0
 20 21  1  0
 21 22  1  0
 21 23  1  0
 21 24  1  0
 18  3  1  0
 16  7  1  0
 24 17  1  0
 16 11  1  0
  1 25  1  0
  1 26  1  0
  1 27  1  0
  4 28  1  0
  5 29  1  0
 10 30  1  0
 10 31  1  0
 12 32  1  0
 13 33  1  0
 14 34  1  0
 15 35  1  0
 19 36  1  0
 20 37  1  0
 22 38  1  0
 22 39  1  0
 22 40  1  0
 23 41  1  0
 23 42  1  0
 23 43  1  0
M  END
>  <UniqueID>  (62) 
58

>  <SMILES>  (62) 
COc1ccc(C2=NOCc3ccccc32)c2c1C=CC(C)(C)O2

>  <Energy>  (62) 
54.94744533519518

>  <Genealogy>  (62) 
COc1ccc(C2=NOCc3ccccc32)c2c1C=CC(C)(C)O2 (3D coordinates assigned)
COc1ccc(C2=NOCc3ccccc32)c2c1C=CC(C)(C)O2 (nonaromatic ring conformer: 54.94744533519518 kcal/mol)

>  <smiles>  (62) 
COc1ccc(C2=NOCc3ccccc32)c2c1C=CC(C)(C)O2

>  <score_type>  (62) 
oracle

>  <origin>  (62) 
adg

>  <m_score__min__energy>  (62) 
-8.0500000000000007

>  <m_primary>  (62) 
energy

$$$$
62:0
     RDKit          3D

 48 50  0  0  0  0  0  0  0  0999 V2000
   60.1260   29.0270   44.6130 C   0  0  0  0  0  0  0  0  0  0  0  0
   59.4770   28.8650   45.7770 C   0  0  0  0  0  0  0  0  0  0  0  0
   58.6720   27.7810   46.1690 C   0  0  0  0  0  0  0  0  0  0  0  0
   58.2060   26.7290   45.4690 C   0  0  0  0  0  0  0  0  0  0  0  0
   57.5210   25.5590   46.0490 C   0  0  0  0  0  0  0  0  0  0  0  0
   58.2080   24.3610   46.3360 C   0  0  0  0  0  0  0  0  0  0  0  0
   59.5690   24.2110   46.0740 O   0  0  0  0  0  0  0  0  0  0  0  0
   57.5310   23.3160   46.8780 N   0  0  0  0  0  0  0  0  0  0  0  0
   56.2020   23.3910   47.1350 C   0  0  0  0  0  0  0  0  0  0  0  0
   55.6040   22.4070   47.6410 O   0  0  0  0  0  0  0  0  0  0  0  0
   55.5150   24.5240   46.8410 N   0  0  0  0  0  0  0  0  0  0  0  0
   56.1400   25.6020   46.3010 C   0  0  0  0  0  0  0  0  0  0  0  0
   55.4720   26.6380   46.0400 O   0  0  0  0  0  0  0  0  0  0  0  0
   58.3720   27.9840   47.5070 C   0  0  0  0  0  0  0  0  0  0  0  0
   58.9460   29.1860   47.8680 C   0  0  0  0  0  0  0  0  0  0  0  0
   58.8950   29.7870   49.2390 C   0  0  0  0  0  0  0  0  0  0  0  0
   59.6020   29.7250   46.8180 N   0  0  0  0  0  0  0  0  0  0  0  0
   60.3410   30.9570   46.8420 C   0  0  0  0  0  0  0  0  0  0  0  0
   61.6650   30.9520   47.3030 C   0  0  0  0  0  0  0  0  0  0  0  0
   62.4090   32.1320   47.3270 C   0  0  0  0  0  0  0  0  0  0  0  0
   61.8360   33.3270   46.8900 C   0  0  0  0  0  0  0  0  0  0  0  0
   60.5160   33.3460   46.4330 C   0  0  0  0  0  0  0  0  0  0  0  0
   59.7550   32.1670   46.4090 C   0  0  0  0  0  0  0  0  0  0  0  0
   58.0780   32.2270   45.8380 S   0  0  0  0  0  0  0  0  0  0  0  0
   57.4030   30.9170   46.1330 O   0  0  0  0  0  0  0  0  0  0  0  0
   57.3270   33.3150   46.5560 O   0  0  0  0  0  0  0  0  0  0  0  0
   58.0230   32.5210   44.1270 N   0  0  0  0  0  0  0  0  0  0  0  0
   57.8670   31.2560   43.4110 C   0  0  0  0  0  0  0  0  0  0  0  0
   56.3960   30.8380   43.4010 C   0  0  0  0  0  0  0  0  0  0  0  0
   56.2070   29.4760   44.0000 C   0  0  0  0  0  0  0  0  0  0  0  0
   57.0070   28.5440   43.7220 O   0  0  0  0  0  0  0  0  0  0  0  0
   55.1500   29.2390   44.8700 O   0  0  0  0  0  0  0  0  0  0  0  0
   60.7253   29.9328   44.4389 H   0  0  0  0  0  0  0  0  0  0  0  0
   60.0585   28.2539   43.8334 H   0  0  0  0  0  0  0  0  0  0  0  0
   58.3476   26.7437   44.3783 H   0  0  0  0  0  0  0  0  0  0  0  0
   59.9230   23.7750   45.2320 H   0  0  0  0  0  0  0  0  0  0  0  0
   57.7883   27.3152   48.1566 H   0  0  0  0  0  0  0  0  0  0  0  0
   58.9628   28.9882   49.9922 H   0  0  0  0  0  0  0  0  0  0  0  0
   59.7373   30.4830   49.3658 H   0  0  0  0  0  0  0  0  0  0  0  0
   57.9475   30.3311   49.3658 H   0  0  0  0  0  0  0  0  0  0  0  0
   62.1201   30.0118   47.6479 H   0  0  0  0  0  0  0  0  0  0  0  0
   63.4472   32.1204   47.6904 H   0  0  0  0  0  0  0  0  0  0  0  0
   62.4249   34.2559   46.9054 H   0  0  0  0  0  0  0  0  0  0  0  0
   60.0702   34.2912   46.0897 H   0  0  0  0  0  0  0  0  0  0  0  0
   58.2180   31.3779   42.3757 H   0  0  0  0  0  0  0  0  0  0  0  0
   58.4594   30.4795   43.9171 H   0  0  0  0  0  0  0  0  0  0  0  0
   55.8131   31.5679   43.9820 H   0  0  0  0  0  0  0  0  0  0  0  0
   56.0537   30.8058   42.3561 H   0  0  0  0  0  0  0  0  0  0  0  0
  1  2  2  0
  2  3  1  0
  3  4  2  3
  4  5  1  0
  5  6  2  0
  6  7  1  0
  6  8  1  0
  8  9  1  0
  9 10  2  0
  9 11  1  0
 11 12  1  0
 12 13  2  0
  3 14  1  0
 14 15  2  0
 15 16  1  0
 15 17  1  0
 17 18  1  0
 18 19  2  0
 19 20  1  0
 20 21  2  0
 21 22  1  0
 22 23  2  0
 23 24  1  0
 24 25  2  0
 24 26  2  0
 24 27  1  0
 27 28  1  0
 28 29  1  0
 29 30  1  0
 30 31  2  0
 30 32  1  0
 17  2  1  0
 23 18  1  0
 12  5  1  0
  1 33  1  0
  1 34  1  0
  4 35  1  0
  7 36  1  0
 14 37  1  0
 16 38  1  0
 16 39  1  0
 16 40  1  0
 19 41  1  0
 20 42  1  0
 21 43  1  0
 22 44  1  0
 28 45  1  0
 28 46  1  0
 29 47  1  0
 29 48  1  0
M  CHG  4   8  -1  11  -1  27  -1  32  -1
M  END
>  <UniqueID>  (63) 
59

>  <SMILES>  (63) 
C=c1c(=Cc2c(O)[n-]c(=O)[n-]c2=O)cc(C)n1-c1ccccc1S(=O)(=O)[N-]CCC(=O)[O-]

>  <Energy>  (63) 
92.20077977213819

>  <Genealogy>  (63) 
C=c1c(=Cc2c(O)[n-]c(=O)[n-]c2=O)cc(C)n1-c1ccccc1S(=O)(=O)[N-]CCC(=O)[O-] (protonated)
C=c1c(=Cc2c(O)[n-]c(=O)[n-]c2=O)cc(C)n1-c1ccccc1S(=O)(=O)[N-]CCC(=O)[O-] (3D coordinates assigned)
C=c1c(=Cc2c(O)[n-]c(=O)[n-]c2=O)cc(C)n1-c1ccccc1S(=O)(=O)[N-]CCC(=O)[O-] (optimized conformer: 92.20077977213819 kcal/mol)

>  <smiles>  (63) 
C=c1c(=Cc2c(O)[nH]c(=O)[nH]c2=O)cc(C)n1-c1ccccc1S(=O)(=O)NCCC(=O)O

>  <score_type>  (63) 
oracle

>  <origin>  (63) 
adg

>  <m_score__min__energy>  (63) 
-17.510000000000002

>  <m_primary>  (63) 
energy

$$$$
63:0
     RDKit          3D

 43 45  0  0  0  0  0  0  0  0999 V2000
   54.8690   23.8430   44.9150 C   0  0  0  0  0  0  0  0  0  0  0  0
   53.9680   24.8500   45.6080 C   0  0  0  0  0  0  0  0  0  0  0  0
   54.7180   26.0140   45.9390 O   0  0  0  0  0  0  0  0  0  0  0  0
   56.0810   25.9740   46.2480 C   0  0  0  0  0  0  0  0  0  0  0  0
   56.9930   26.6170   45.4070 C   0  0  0  0  0  0  0  0  0  0  0  0
   58.3660   26.6040   45.7250 C   0  0  0  0  0  0  0  0  0  0  0  0
   59.2580   27.2450   45.0230 N   0  0  0  0  0  0  0  0  0  0  0  0
   59.6460   28.6200   45.1650 C   0  0  0  0  0  0  0  0  0  0  0  0
   60.8430   28.9170   45.4290 O   0  0  0  0  0  0  0  0  0  0  0  0
   58.6210   29.6840   45.1170 C   0  0  0  0  0  0  0  0  0  0  0  0
   57.4160   29.4170   44.4510 C   0  0  0  0  0  0  0  0  0  0  0  0
   56.4400   30.4100   44.3490 C   0  0  0  0  0  0  0  0  0  0  0  0
   55.3640   30.1770   43.7380 O   0  0  0  0  0  0  0  0  0  0  0  0
   56.6480   31.6290   44.9070 N   0  0  0  0  0  0  0  0  0  0  0  0
   57.7890   31.9260   45.5810 C   0  0  0  0  0  0  0  0  0  0  0  0
   57.9380   33.1900   46.1620 C   0  0  0  0  0  0  0  0  0  0  0  0
   59.0870   33.4980   46.8920 C   0  0  0  0  0  0  0  0  0  0  0  0
   60.1000   32.5490   47.0560 C   0  0  0  0  0  0  0  0  0  0  0  0
   61.2560   32.9080   47.8280 N   0  0  0  0  0  0  0  0  0  0  0  0
   62.9090   32.7390   47.3230 S   0  0  0  0  0  0  0  0  0  0  0  0
   64.0160   33.1130   48.6680 C   0  0  0  0  0  0  0  0  0  0  0  0
   63.1710   33.7040   46.2010 O   0  0  0  0  0  0  0  0  0  0  0  0
   63.1510   31.3430   46.8210 O   0  0  0  0  0  0  0  0  0  0  0  0
   59.9570   31.2770   46.4730 C   0  0  0  0  0  0  0  0  0  0  0  0
   58.8120   30.9560   45.7150 C   0  0  0  0  0  0  0  0  0  0  0  0
   58.7820   25.9370   46.8850 C   0  0  0  0  0  0  0  0  0  0  0  0
   57.8420   25.2940   47.6910 C   0  0  0  0  0  0  0  0  0  0  0  0
   56.5240   25.3270   47.3610 N   0  0  0  0  0  0  0  0  0  0  0  0
   55.4021   23.2472   45.6705 H   0  0  0  0  0  0  0  0  0  0  0  0
   54.2594   23.1773   44.2863 H   0  0  0  0  0  0  0  0  0  0  0  0
   55.5981   24.3751   44.2863 H   0  0  0  0  0  0  0  0  0  0  0  0
   53.1421   25.1256   44.9358 H   0  0  0  0  0  0  0  0  0  0  0  0
   53.5613   24.4039   46.5276 H   0  0  0  0  0  0  0  0  0  0  0  0
   56.6408   27.1312   44.5006 H   0  0  0  0  0  0  0  0  0  0  0  0
   57.2399   28.4252   44.0090 H   0  0  0  0  0  0  0  0  0  0  0  0
   57.1462   33.9442   46.0429 H   0  0  0  0  0  0  0  0  0  0  0  0
   59.1963   34.4958   47.3420 H   0  0  0  0  0  0  0  0  0  0  0  0
   63.5021   32.9394   49.6250 H   0  0  0  0  0  0  0  0  0  0  0  0
   64.9022   32.4644   48.6047 H   0  0  0  0  0  0  0  0  0  0  0  0
   64.3272   34.1662   48.6047 H   0  0  0  0  0  0  0  0  0  0  0  0
   60.7472   30.5241   46.6099 H   0  0  0  0  0  0  0  0  0  0  0  0
   59.8471   25.9204   47.1595 H   0  0  0  0  0  0  0  0  0  0  0  0
   58.1683   24.7593   48.5953 H   0  0  0  0  0  0  0  0  0  0  0  0
  1  2  1  0
  2  3  1  0
  3  4  1  0
  4  5  2  0
  5  6  1  0
  6  7  2  3
  7  8  1  0
  8  9  2  0
  8 10  1  0
 10 11  2  0
 11 12  1  0
 12 13  2  0
 12 14  1  0
 14 15  1  0
 15 16  2  0
 16 17  1  0
 17 18  2  0
 18 19  1  0
 19 20  1  0
 20 21  1  0
 20 22  2  0
 20 23  2  0
 18 24  1  0
 24 25  2  0
  6 26  1  0
 26 27  2  0
 27 28  1  0
 28  4  1  0
 25 10  1  0
 25 15  1  0
  1 29  1  0
  1 30  1  0
  1 31  1  0
  2 32  1  0
  2 33  1  0
  5 34  1  0
 11 35  1  0
 16 36  1  0
 17 37  1  0
 21 38  1  0
 21 39  1  0
 21 40  1  0
 24 41  1  0
 26 42  1  0
 27 43  1  0
M  CHG  3  14  -1  19  -1  28  -1
M  END
>  <UniqueID>  (64) 
60

>  <SMILES>  (64) 
CCOc1cc(=NC(=O)c2cc(=O)[n-]c3ccc([N-]S(C)(=O)=O)cc23)cc[n-]1

>  <Energy>  (64) 
55.68548408648092

>  <Genealogy>  (64) 
CCOc1cc(=NC(=O)c2cc(=O)[n-]c3ccc([N-]S(C)(=O)=O)cc23)cc[n-]1 (protonated)
CCOc1cc(=NC(=O)c2cc(=O)[n-]c3ccc([N-]S(C)(=O)=O)cc23)cc[n-]1 (3D coordinates assigned)
CCOc1cc(=NC(=O)c2cc(=O)[n-]c3ccc([N-]S(C)(=O)=O)cc23)cc[n-]1 (optimized conformer: 55.68548408648092 kcal/mol)

>  <smiles>  (64) 
CCOc1cc(=NC(=O)c2cc(=O)[nH]c3ccc(NS(C)(=O)=O)cc23)cc[nH]1

>  <score_type>  (64) 
oracle

>  <origin>  (64) 
adg

>  <m_score__min__energy>  (64) 
-12.539999999999999

>  <m_primary>  (64) 
energy

$$$$
64:0
     RDKit          3D

 32 34  0  0  0  0  0  0  0  0999 V2000
   60.3624   36.1662   47.0318 H   0  0  0  0  0  0  0  0  0  0  0  0
   59.6600   35.3800   46.7180 C   0  0  0  0  0  0  0  0  0  0  0  0
   59.2310   35.0190   45.1320 S   0  0  0  0  0  0  0  0  0  0  0  0
   58.1620   33.7770   45.5120 C   0  0  0  0  0  0  0  0  0  0  0  0
   57.4440   32.9220   44.5180 C   0  0  0  0  0  0  0  0  0  0  0  0
   57.8226   33.1397   43.5084 H   0  0  0  0  0  0  0  0  0  0  0  0
   56.3665   33.1382   44.5650 H   0  0  0  0  0  0  0  0  0  0  0  0
   57.6710   31.4800   44.8320 C   0  0  0  0  0  0  0  0  0  0  0  0
   56.7430   30.5160   44.6330 N   0  0  0  0  0  0  0  0  0  0  0  0
   57.1830   29.2920   44.9220 N   0  0  0  0  0  0  0  0  0  0  0  0
   58.4690   29.2710   45.3310 C   0  0  0  0  0  0  0  0  0  0  0  0
   59.0610   28.1710   45.6900 N   0  0  0  0  0  0  0  0  0  0  0  0
   58.4220   26.9550   46.1030 C   0  0  0  0  0  0  0  0  0  0  0  0
   59.0410   26.1780   46.8770 O   0  0  0  0  0  0  0  0  0  0  0  0
   57.0610   26.6720   45.7410 N   0  0  0  0  0  0  0  0  0  0  0  0
   56.4340   27.4860   45.5490 H   0  0  0  0  0  0  0  0  0  0  0  0
   56.4900   25.3510   45.7520 C   0  0  0  0  0  0  0  0  0  0  0  0
   57.3010   24.2100   45.6020 C   0  0  0  0  0  0  0  0  0  0  0  0
   58.3900   24.3235   45.4960 H   0  0  0  0  0  0  0  0  0  0  0  0
   56.7310   22.9340   45.5870 C   0  0  0  0  0  0  0  0  0  0  0  0
   57.3727   22.0472   45.4781 H   0  0  0  0  0  0  0  0  0  0  0  0
   55.3490   22.7830   45.7100 C   0  0  0  0  0  0  0  0  0  0  0  0
   54.9030   21.7775   45.7030 H   0  0  0  0  0  0  0  0  0  0  0  0
   54.5320   23.9080   45.8420 C   0  0  0  0  0  0  0  0  0  0  0  0
   53.4425   23.7869   45.9329 H   0  0  0  0  0  0  0  0  0  0  0  0
   55.0950   25.1880   45.8590 C   0  0  0  0  0  0  0  0  0  0  0  0
   54.2640   26.2960   45.9900 O   0  0  0  0  0  0  0  0  0  0  0  0
   59.1290   30.8280   45.3710 S   0  0  0  0  0  0  0  0  0  0  0  0
   58.1440   33.6130   46.8910 C   0  0  0  0  0  0  0  0  0  0  0  0
   57.5376   32.8510   47.4026 H   0  0  0  0  0  0  0  0  0  0  0  0
   58.9760   34.5160   47.5640 C   0  0  0  0  0  0  0  0  0  0  0  0
   59.0784   34.5391   48.6590 H   0  0  0  0  0  0  0  0  0  0  0  0
  1  2  1  0
  2  3  1  0
  3  4  1  0
  4  5  1  0
  5  6  1  0
  5  7  1  0
  5  8  1  0
  8  9  2  0
  9 10  1  0
 10 11  1  0
 11 12  2  0
 12 13  1  0
 13 14  2  0
 13 15  1  0
 15 16  1  0
 15 17  1  0
 17 18  2  0
 18 19  1  0
 18 20  1  0
 20 21  1  0
 20 22  2  0
 22 23  1  0
 22 24  1  0
 24 25  1  0
 24 26  2  0
 26 27  1  0
 11 28  1  0
  4 29  2  0
 29 30  1  0
 29 31  1  0
 31 32  1  0
 31  2  2  0
 28  8  1  0
 26 17  1  0
M  CHG  2  10  -1  27  -1
M  END
>  <UniqueID>  (65) 
61

>  <SMILES>  (65) 
O=C(/N=c1/[n-]nc(Cc2cccs2)s1)Nc1ccccc1[O-]

>  <Energy>  (65) 
100.62098488753986

>  <Genealogy>  (65) 
O=C(N=c1[n-]nc(Cc2cccs2)s1)Nc1ccccc1[O-] (protonated)
O=C(/N=c1/[n-]nc(Cc2cccs2)s1)Nc1ccccc1[O-] (cis-trans isomerization)
O=C(/N=c1/[n-]nc(Cc2cccs2)s1)Nc1ccccc1[O-] (3D coordinates assigned)
O=C(/N=c1/[n-]nc(Cc2cccs2)s1)Nc1ccccc1[O-] (optimized conformer: 100.62098488753986 kcal/mol)

>  <smiles>  (65) 
O=C(N=c1[nH]nc(Cc2cccs2)s1)Nc1ccccc1O

>  <score_type>  (65) 
oracle

>  <origin>  (65) 
adg

>  <m_score__min__energy>  (65) 
-13.220000000000001

>  <m_primary>  (65) 
energy

$$$$
65:0
     RDKit          3D

 54 56  0  0  0  0  0  0  0  0999 V2000
   58.3210   32.6270   41.4850 C   0  0  0  0  0  0  0  0  0  0  0  0
   58.1520   32.5960   42.9590 C   0  0  0  0  0  0  0  0  0  0  0  0
   58.6310   33.5690   43.8040 C   0  0  0  0  0  0  0  0  0  0  0  0
   58.4160   33.4370   45.1580 C   0  0  0  0  0  0  0  0  0  0  0  0
   58.9500   34.5140   46.0520 C   0  0  0  0  0  0  0  0  0  0  0  0
   57.7520   32.3800   45.6700 N   0  0  0  0  0  0  0  0  0  0  0  0
   57.2930   31.4390   44.8250 C   0  0  0  0  0  0  0  0  0  0  0  0
   56.6460   30.3900   45.2090 N   0  0  0  0  0  0  0  0  0  0  0  0
   56.7470   29.2270   44.3920 C   0  0  0  0  0  0  0  0  0  0  0  0
   56.1110   29.3630   42.8810 S   0  0  0  0  0  0  0  0  0  0  0  0
   57.3380   28.0190   44.7930 N   0  0  0  0  0  0  0  0  0  0  0  0
   57.9350   27.7300   46.0660 C   0  0  0  0  0  0  0  0  0  0  0  0
   58.8770   28.8010   46.4470 C   0  0  0  0  0  0  0  0  0  0  0  0
   60.1460   28.9490   45.9460 C   0  0  0  0  0  0  0  0  0  0  0  0
   60.9980   29.9770   46.3150 C   0  0  0  0  0  0  0  0  0  0  0  0
   60.5030   30.8780   47.2410 C   0  0  0  0  0  0  0  0  0  0  0  0
   61.5670   32.2040   47.7350 Cl  0  0  0  0  0  0  0  0  0  0  0  0
   59.2380   30.7800   47.7780 C   0  0  0  0  0  0  0  0  0  0  0  0
   58.8410   31.7930   48.7400 C   0  0  0  0  0  0  0  0  0  0  0  0
   58.6550   33.0030   48.4400 O   0  0  0  0  0  0  0  0  0  0  0  0
   58.6540   31.3940   50.0940 N   0  0  0  0  0  0  0  0  0  0  0  0
   58.8520   30.0010   50.5200 C   0  0  0  0  0  0  0  0  0  0  0  0
   58.1430   29.7120   51.8030 C   0  0  0  0  0  0  0  0  0  0  0  0
   58.4000   30.6580   52.8440 N   0  0  0  0  0  0  0  0  0  0  0  0
   57.2290   30.8940   53.6730 C   0  0  0  0  0  0  0  0  0  0  0  0
   59.0040   31.8700   52.3800 C   0  0  0  0  0  0  0  0  0  0  0  0
   58.2570   32.3230   51.1370 C   0  0  0  0  0  0  0  0  0  0  0  0
   58.4270   29.7410   47.3800 C   0  0  0  0  0  0  0  0  0  0  0  0
   57.4900   31.5440   43.4790 N   0  0  0  0  0  0  0  0  0  0  0  0
   59.3760   32.8205   41.2409 H   0  0  0  0  0  0  0  0  0  0  0  0
   58.0182   31.6583   41.0608 H   0  0  0  0  0  0  0  0  0  0  0  0
   57.6941   33.4251   41.0608 H   0  0  0  0  0  0  0  0  0  0  0  0
   59.1762   34.4374   43.4058 H   0  0  0  0  0  0  0  0  0  0  0  0
   58.8058   34.2231   47.1030 H   0  0  0  0  0  0  0  0  0  0  0  0
   60.0228   34.6559   45.8547 H   0  0  0  0  0  0  0  0  0  0  0  0
   58.4135   35.4538   45.8547 H   0  0  0  0  0  0  0  0  0  0  0  0
   57.5890   32.2770   46.6960 H   0  0  0  0  0  0  0  0  0  0  0  0
   57.3480   27.2320   44.0860 H   0  0  0  0  0  0  0  0  0  0  0  0
   57.1452   27.6538   46.8279 H   0  0  0  0  0  0  0  0  0  0  0  0
   58.4844   26.7797   45.9952 H   0  0  0  0  0  0  0  0  0  0  0  0
   60.5057   28.2123   45.2126 H   0  0  0  0  0  0  0  0  0  0  0  0
   62.0105   30.0716   45.8957 H   0  0  0  0  0  0  0  0  0  0  0  0
   58.4643   29.3304   49.7390 H   0  0  0  0  0  0  0  0  0  0  0  0
   59.9285   29.8393   50.6779 H   0  0  0  0  0  0  0  0  0  0  0  0
   57.0611   29.7039   51.6044 H   0  0  0  0  0  0  0  0  0  0  0  0
   58.5198   28.7419   52.1592 H   0  0  0  0  0  0  0  0  0  0  0  0
   57.5133   30.8367   54.7341 H   0  0  0  0  0  0  0  0  0  0  0  0
   56.8213   31.8924   53.4560 H   0  0  0  0  0  0  0  0  0  0  0  0
   56.4664   30.1315   53.4560 H   0  0  0  0  0  0  0  0  0  0  0  0
   58.9349   32.6433   53.1593 H   0  0  0  0  0  0  0  0  0  0  0  0
   60.0658   31.7020   52.1468 H   0  0  0  0  0  0  0  0  0  0  0  0
   57.1704   32.2765   51.3017 H   0  0  0  0  0  0  0  0  0  0  0  0
   58.4936   33.3640   50.8719 H   0  0  0  0  0  0  0  0  0  0  0  0
   57.4146   29.6491   47.8001 H   0  0  0  0  0  0  0  0  0  0  0  0
  1  2  1  0
  2  3  1  0
  3  4  2  0
  4  5  1  0
  4  6  1  0
  6  7  1  0
  7  8  2  3
  8  9  1  0
  9 10  2  0
  9 11  1  0
 11 12  1  0
 12 13  1  0
 13 14  2  0
 14 15  1  0
 15 16  2  0
 16 17  1  0
 16 18  1  0
 18 19  1  0
 19 20  2  0
 19 21  1  0
 21 22  1  0
 22 23  1  0
 23 24  1  0
 24 25  1  0
 24 26  1  0
 26 27  1  0
 18 28  2  0
  7 29  1  0
 29  2  2  0
 28 13  1  0
 27 21  1  0
  1 30  1  0
  1 31  1  0
  1 32  1  0
  3 33  1  0
  5 34  1  0
  5 35  1  0
  5 36  1  0
  6 37  1  0
 11 38  1  0
 12 39  1  0
 12 40  1  0
 14 41  1  0
 15 42  1  0
 22 43  1  0
 22 44  1  0
 23 45  1  0
 23 46  1  0
 25 47  1  0
 25 48  1  0
 25 49  1  0
 26 50  1  0
 26 51  1  0
 27 52  1  0
 27 53  1  0
 28 54  1  0
M  END
>  <smiles>  (66) 
Cc1cc(C)[nH]c(=NC(=S)NCc2ccc(Cl)c(C(=O)N3CCN(C)CC3)c2)n1

>  <score_type>  (66) 
oracle

>  <origin>  (66) 
adg

>  <m_score__min__energy>  (66) 
-8.9399999999999995

>  <m_primary>  (66) 
energy

$$$$
66:0
     RDKit          3D

 47 50  0  0  1  0  0  0  0  0999 V2000
   59.1000   23.0440   45.2090 C   0  0  0  0  0  0  0  0  0  0  0  0
   58.8800   24.3870   45.8190 C   0  0  0  0  0  0  0  0  0  0  0  0
   57.5940   24.7990   46.1780 C   0  0  0  0  0  0  0  0  0  0  0  0
   57.3800   26.0400   46.7410 C   0  0  0  0  0  0  0  0  0  0  0  0
   58.4890   26.8800   46.9450 C   0  0  0  0  0  0  0  0  0  0  0  0
   58.3130   28.1570   47.4180 N   0  0  0  0  0  0  0  0  0  0  0  0
   59.1520   29.0770   47.5130 C   0  0  0  0  0  0  0  0  0  0  0  0
   60.0130   28.9980   48.5760 N   0  0  0  0  0  0  0  0  0  0  0  0
   61.0270   29.8430   48.7530 C   0  0  0  0  0  0  0  0  0  0  0  0
   61.2010   30.8350   47.8130 C   0  0  0  0  0  0  0  0  0  0  0  0
   62.3000   31.7870   47.9540 C   0  0  0  0  0  0  0  0  0  0  0  0
   62.6420   32.8340   47.1180 C   0  0  0  0  0  0  0  0  0  0  0  0
   63.7140   33.4040   47.6780 N   0  0  0  0  0  0  0  0  0  0  0  0
   64.0730   32.7980   48.7970 N   0  0  0  0  0  0  0  0  0  0  0  0
   65.1670   33.0940   49.7030 C   0  0  0  0  0  0  0  0  0  0  0  0
   63.2060   31.7780   49.0020 C   0  0  0  0  0  0  0  0  0  0  0  0
   60.3470   30.9310   46.7470 C   0  0  0  0  0  0  0  0  0  0  0  0
   59.2650   30.0300   46.5630 C   0  0  0  0  0  0  0  0  0  0  0  0
   58.3550   30.4110   45.5230 C   0  0  0  0  0  0  0  0  0  0  0  0
   58.5260   31.2340   44.4960 N   0  0  0  0  0  0  0  0  0  0  0  0
   57.6870   31.4400   43.4750 C   0  0  0  0  0  0  0  0  0  0  0  0
   58.0190   32.4020   42.3900 C   0  0  0  0  0  0  0  0  0  0  0  0
   56.5370   30.7490   43.4670 N   0  0  0  0  0  0  0  0  0  0  0  0
   56.2830   29.8800   44.4880 C   0  0  0  0  0  0  0  0  0  0  0  0
   55.1830   29.1970   44.5120 N   0  0  0  0  0  0  0  0  0  0  0  0
   57.1660   29.7140   45.4890 N   0  0  0  0  0  0  0  0  0  0  0  0
   59.7760   26.4510   46.5780 C   0  0  0  0  0  0  0  0  0  0  0  0
   59.9320   25.2310   46.0310 N   0  0  0  0  0  0  0  0  0  0  0  0
   59.2227   22.2952   46.0054 H   0  0  0  0  0  0  0  0  0  0  0  0
   58.2335   22.7779   44.5858 H   0  0  0  0  0  0  0  0  0  0  0  0
   60.0061   23.0683   44.5858 H   0  0  0  0  0  0  0  0  0  0  0  0
   56.7412   24.1250   46.0095 H   0  0  0  0  0  0  0  0  0  0  0  0
   56.3675   26.3642   47.0232 H   0  0  0  0  0  0  0  0  0  0  0  0
   59.9000   28.2460   49.3090 H   0  0  0  0  0  0  0  0  0  0  0  0
   61.7007   29.7522   49.6178 H   0  0  0  0  0  0  0  0  0  0  0  0
   62.1380   33.1348   46.1877 H   0  0  0  0  0  0  0  0  0  0  0  0
   64.8184   32.9997   50.7420 H   0  0  0  0  0  0  0  0  0  0  0  0
   65.9906   32.3864   49.5269 H   0  0  0  0  0  0  0  0  0  0  0  0
   65.5214   34.1203   49.5269 H   0  0  0  0  0  0  0  0  0  0  0  0
   63.2188   31.0721   49.8456 H   0  0  0  0  0  0  0  0  0  0  0  0
   60.5042   31.7318   46.0095 H   0  0  0  0  0  0  0  0  0  0  0  0
   58.3476   33.3542   42.8321 H   0  0  0  0  0  0  0  0  0  0  0  0
   58.8265   31.9886   41.7678 H   0  0  0  0  0  0  0  0  0  0  0  0
   57.1284   32.5746   41.7678 H   0  0  0  0  0  0  0  0  0  0  0  0
   55.1450   28.2180   44.8710 H   0  0  0  0  0  0  0  0  0  0  0  0
   56.9200   29.0370   46.2430 H   0  0  0  0  0  0  0  0  0  0  0  0
   60.6463   27.1050   46.7360 H   0  0  0  0  0  0  0  0  0  0  0  0
  1  2  1  0
  2  3  2  0
  3  4  1  0
  4  5  2  0
  5  6  1  0
  6  7  2  0
  7  8  1  0
  8  9  1  0
  9 10  2  0
 10 11  1  0
 11 12  1  0
 12 13  2  0
 13 14  1  0
 14 15  1  0
 14 16  1  0
 10 17  1  0
 17 18  2  0
 18 19  1  0
 19 20  2  0
 20 21  1  0
 21 22  1  0
 21 23  2  0
 23 24  1  0
 24 25  2  3
 24 26  1  0
  5 27  1  0
 27 28  2  0
 28  2  1  0
 18  7  1  0
 26 19  1  0
 16 11  2  0
  1 29  1  0
  1 30  1  0
  1 31  1  0
  3 32  1  0
  4 33  1  0
  8 34  1  0
  9 35  1  0
 12 36  1  0
 15 37  1  0
 15 38  1  0
 15 39  1  0
 16 40  1  0
 17 41  1  0
 22 42  1  0
 22 43  1  0
 22 44  1  0
 25 45  1  0
 26 46  1  0
 27 47  1  0
M  END
>  <smiles>  (67) 
Cc1ccc(N=c2[nH]cc(-c3cnn(C)c3)cc2-c2nc(C)nc(=N)[nH]2)cn1

>  <score_type>  (67) 
oracle

>  <origin>  (67) 
adg

>  <m_score__min__energy>  (67) 
-7.9100000000000001

>  <m_primary>  (67) 
energy

$$$$
67:0
     RDKit          3D

 42 44  0  0  0  0  0  0  0  0999 V2000
   56.7870   29.2130   43.5830 C   0  0  0  0  0  0  0  0  0  0  0  0
   57.3450   28.4790   44.7570 C   0  0  0  0  0  0  0  0  0  0  0  0
   57.0990   27.1770   45.0240 N   0  0  0  0  0  0  0  0  0  0  0  0
   57.9900   26.7400   45.9070 N   0  0  0  0  0  0  0  0  0  0  0  0
   58.0930   25.3650   46.3170 C   0  0  0  0  0  0  0  0  0  0  0  0
   58.7490   24.5600   45.6030 O   0  0  0  0  0  0  0  0  0  0  0  0
   57.3310   24.8370   47.5050 C   0  0  0  0  0  0  0  0  0  0  0  0
   56.4900   23.5960   47.1620 C   0  0  0  0  0  0  0  0  0  0  0  0
   55.0920   23.9570   46.6440 C   0  0  0  0  0  0  0  0  0  0  0  0
   55.1800   25.0500   45.6260 C   0  0  0  0  0  0  0  0  0  0  0  0
   55.6780   24.8220   44.4920 O   0  0  0  0  0  0  0  0  0  0  0  0
   54.7560   26.3340   45.9460 O   0  0  0  0  0  0  0  0  0  0  0  0
   58.7900   27.7800   46.2290 C   0  0  0  0  0  0  0  0  0  0  0  0
   58.4220   28.8750   45.5270 C   0  0  0  0  0  0  0  0  0  0  0  0
   59.5600   29.7990   45.2220 C   0  0  1  0  0  0  0  0  0  0  0  0
   59.2870   31.1970   45.7370 C   0  0  0  0  0  0  0  0  0  0  0  0
   60.1020   31.7770   46.7270 C   0  0  0  0  0  0  0  0  0  0  0  0
   59.8380   33.0680   47.1940 C   0  0  0  0  0  0  0  0  0  0  0  0
   58.7620   33.7920   46.6770 C   0  0  0  0  0  0  0  0  0  0  0  0
   58.5090   35.0450   47.1320 F   0  0  0  0  0  0  0  0  0  0  0  0
   57.9460   33.2270   45.6910 C   0  0  0  0  0  0  0  0  0  0  0  0
   56.9020   33.9290   45.1890 F   0  0  0  0  0  0  0  0  0  0  0  0
   58.2080   31.9360   45.2220 C   0  0  0  0  0  0  0  0  0  0  0  0
   60.7740   29.1180   45.9220 C   0  0  0  0  0  0  0  0  0  0  0  0
   60.2200   27.8270   46.4480 C   0  0  0  0  0  0  0  0  0  0  0  0
   60.9170   26.9120   46.9560 O   0  0  0  0  0  0  0  0  0  0  0  0
   56.1563   30.0426   43.9352 H   0  0  0  0  0  0  0  0  0  0  0  0
   57.6117   29.6122   42.9744 H   0  0  0  0  0  0  0  0  0  0  0  0
   56.1818   28.5251   42.9744 H   0  0  0  0  0  0  0  0  0  0  0  0
   56.3970   26.5760   44.5360 H   0  0  0  0  0  0  0  0  0  0  0  0
   58.0492   24.5692   48.2939 H   0  0  0  0  0  0  0  0  0  0  0  0
   56.6409   25.6267   47.8369 H   0  0  0  0  0  0  0  0  0  0  0  0
   57.0146   23.0178   46.3871 H   0  0  0  0  0  0  0  0  0  0  0  0
   56.3632   23.0131   48.0862 H   0  0  0  0  0  0  0  0  0  0  0  0
   54.6353   23.0685   46.1835 H   0  0  0  0  0  0  0  0  0  0  0  0
   54.4769   24.3034   47.4877 H   0  0  0  0  0  0  0  0  0  0  0  0
   59.7347   29.9413   44.1453 H   0  0  0  0  0  0  0  0  0  0  0  0
   60.9520   31.2110   47.1359 H   0  0  0  0  0  0  0  0  0  0  0  0
   60.4785   33.5137   47.9693 H   0  0  0  0  0  0  0  0  0  0  0  0
   57.5656   31.4960   44.4451 H   0  0  0  0  0  0  0  0  0  0  0  0
   61.5842   28.9301   45.2021 H   0  0  0  0  0  0  0  0  0  0  0  0
   61.2080   29.7442   46.7154 H   0  0  0  0  0  0  0  0  0  0  0  0
  1  2  1  0
  2  3  2  0
  3  4  1  0
  4  5  1  0
  5  6  2  0
  5  7  1  0
  7  8  1  0
  8  9  1  0
  9 10  1  0
 10 11  2  0
 10 12  1  0
  4 13  1  0
 13 14  2  0
 14 15  1  0
 15 16  1  0
 16 17  2  0
 17 18  1  0
 18 19  2  0
 19 20  1  0
 19 21  1  0
 21 22  1  0
 21 23  2  0
 15 24  1  0
 24 25  1  0
 25 26  2  0
 14  2  1  0
 23 16  1  0
 25 13  1  0
  1 27  1  0
  1 28  1  0
  1 29  1  0
  3 30  1  0
  7 31  1  0
  7 32  1  0
  8 33  1  0
  8 34  1  0
  9 35  1  0
  9 36  1  0
 15 37  1  6
 17 38  1  0
 18 39  1  0
 23 40  1  0
 24 41  1  0
 24 42  1  0
M  CHG  2   3   1  12  -1
M  END
>  <UniqueID>  (68) 
62

>  <SMILES>  (68) 
Cc1[nH+]n(C(=O)CCCC(=O)[O-])c2c1[C@@H](c1ccc(F)c(F)c1)CC2=O

>  <Energy>  (68) 
103.12884132856749

>  <Genealogy>  (68) 
Cc1[nH+]n(C(=O)CCCC(=O)[O-])c2c1C(c1ccc(F)c(F)c1)CC2=O (protonated)
Cc1[nH+]n(C(=O)CCCC(=O)[O-])c2c1[C@@H](c1ccc(F)c(F)c1)CC2=O (chirality)
Cc1[nH+]n(C(=O)CCCC(=O)[O-])c2c1[C@@H](c1ccc(F)c(F)c1)CC2=O (3D coordinates assigned)
Cc1[nH+]n(C(=O)CCCC(=O)[O-])c2c1[C@@H](c1ccc(F)c(F)c1)CC2=O (nonaromatic ring conformer: 103.12884132856749 kcal/mol)

>  <smiles>  (68) 
Cc1nn(C(=O)CCCC(=O)O)c2c1C(c1ccc(F)c(F)c1)CC2=O

>  <score_type>  (68) 
oracle

>  <origin>  (68) 
adg

>  <m_score__min__energy>  (68) 
-9.2400000000000002

>  <m_primary>  (68) 
energy

$$$$
68:0
     RDKit          3D

 50 53  0  0  0  0  0  0  0  0999 V2000
   55.4393   27.5791   53.5118 H   0  0  0  0  0  0  0  0  0  0  0  0
   54.6280   28.2560   53.2060 C   0  0  0  0  0  0  0  0  0  0  0  0
   53.5791   27.9491   53.3311 H   0  0  0  0  0  0  0  0  0  0  0  0
   54.9180   29.4570   52.6800 C   0  0  0  0  0  0  0  0  0  0  0  0
   54.0060   30.4320   52.2420 C   0  0  0  0  0  0  0  0  0  0  0  0
   52.6750   30.3720   52.0420 C   0  0  0  0  0  0  0  0  0  0  0  0
   52.0644   29.9484   52.8530 H   0  0  0  0  0  0  0  0  0  0  0  0
   51.9670   30.8230   50.8350 C   0  0  0  0  0  0  0  0  0  0  0  0
   51.8180   30.0650   49.7350 N   0  0  0  0  0  0  0  0  0  0  0  0
   51.0120   30.8130   48.9480 C   0  0  0  0  0  0  0  0  0  0  0  0
   50.6500   30.4410   47.8020 O   0  0  0  0  0  0  0  0  0  0  0  0
   50.6160   31.9840   49.4920 N   0  0  0  0  0  0  0  0  0  0  0  0
   51.2170   31.9680   50.6920 C   0  0  0  0  0  0  0  0  0  0  0  0
   51.0570   32.9650   51.6470 O   0  0  0  0  0  0  0  0  0  0  0  0
   54.7470   31.5810   52.0160 C   0  0  0  0  0  0  0  0  0  0  0  0
   54.3565   32.5630   51.7107 H   0  0  0  0  0  0  0  0  0  0  0  0
   56.0670   31.2580   52.2470 C   0  0  0  0  0  0  0  0  0  0  0  0
   57.2140   32.2120   52.0980 C   0  0  0  0  0  0  0  0  0  0  0  0
   57.5737   32.5112   53.0935 H   0  0  0  0  0  0  0  0  0  0  0  0
   58.0292   31.7218   51.5456 H   0  0  0  0  0  0  0  0  0  0  0  0
   56.8806   33.1029   51.5456 H   0  0  0  0  0  0  0  0  0  0  0  0
   56.1740   29.9710   52.6490 N   0  0  0  0  0  0  0  0  0  0  0  0
   57.3970   29.3000   53.0050 C   0  0  0  0  0  0  0  0  0  0  0  0
   58.4740   29.2640   52.1130 C   0  0  0  0  0  0  0  0  0  0  0  0
   58.3930   29.7643   51.1367 H   0  0  0  0  0  0  0  0  0  0  0  0
   59.6550   28.5940   52.4570 C   0  0  0  0  0  0  0  0  0  0  0  0
   60.8070   28.5760   51.4900 C   0  0  0  0  0  0  0  0  0  0  0  0
   61.7545   28.5612   52.0487 H   0  0  0  0  0  0  0  0  0  0  0  0
   60.7405   27.6788   50.8571 H   0  0  0  0  0  0  0  0  0  0  0  0
   60.7685   29.4749   50.8571 H   0  0  0  0  0  0  0  0  0  0  0  0
   59.7470   27.9930   53.7300 C   0  0  0  0  0  0  0  0  0  0  0  0
   60.9420   27.3210   54.1470 N   0  0  0  0  0  0  0  0  0  0  0  0
   61.9760   28.0550   54.8770 C   0  0  0  0  0  0  0  0  0  0  0  0
   61.7578   29.1318   54.8233 H   0  0  0  0  0  0  0  0  0  0  0  0
   61.9759   27.7120   55.9222 H   0  0  0  0  0  0  0  0  0  0  0  0
   63.3740   27.7930   54.2750 C   0  0  0  0  0  0  0  0  0  0  0  0
   63.5907   28.5892   53.5476 H   0  0  0  0  0  0  0  0  0  0  0  0
   64.0820   27.7789   55.1167 H   0  0  0  0  0  0  0  0  0  0  0  0
   63.5060   26.4910   53.5890 N   0  0  0  0  0  0  0  0  0  0  0  0
   63.3200   26.6250   52.5660 H   0  0  0  0  0  0  0  0  0  0  0  0
   62.5740   25.4790   54.1010 C   0  0  0  0  0  0  0  0  0  0  0  0
   62.7714   24.5184   53.6027 H   0  0  0  0  0  0  0  0  0  0  0  0
   62.7177   25.3761   55.1867 H   0  0  0  0  0  0  0  0  0  0  0  0
   61.1280   25.9030   53.8270 C   0  0  0  0  0  0  0  0  0  0  0  0
   60.8971   25.7380   52.7642 H   0  0  0  0  0  0  0  0  0  0  0  0
   60.4548   25.3036   54.4576 H   0  0  0  0  0  0  0  0  0  0  0  0
   58.6800   28.0350   54.5780 N   0  0  0  0  0  0  0  0  0  0  0  0
   58.7500   27.5760   55.5140 H   0  0  0  0  0  0  0  0  0  0  0  0
   57.5230   28.6670   54.2450 C   0  0  0  0  0  0  0  0  0  0  0  0
   56.6825   28.6802   54.9545 H   0  0  0  0  0  0  0  0  0  0  0  0
  1  2  1  0
  2  3  1  0
  2  4  2  0
  4  5  1  0
  5  6  2  0
  6  7  1  0
  6  8  1  0
  8  9  1  0
  9 10  1  0
 10 11  2  0
 10 12  1  0
 12 13  1  0
 13 14  1  0
  5 15  1  0
 15 16  1  0
 15 17  2  0
 17 18  1  0
 18 19  1  0
 18 20  1  0
 18 21  1  0
 17 22  1  0
 22 23  1  0
 23 24  2  0
 24 25  1  0
 24 26  1  0
 26 27  1  0
 27 28  1  0
 27 29  1  0
 27 30  1  0
 26 31  2  0
 31 32  1  0
 32 33  1  0
 33 34  1  0
 33 35  1  0
 33 36  1  0
 36 37  1  0
 36 38  1  0
 36 39  1  0
 39 40  1  0
 39 41  1  0
 41 42  1  0
 41 43  1  0
 41 44  1  0
 44 45  1  0
 44 46  1  0
 31 47  1  0
 47 48  1  0
 47 49  2  0
 49 50  1  0
 22  4  1  0
 49 23  1  0
 13  8  2  0
 44 32  1  0
M  CHG  4   9  -1  12  -1  14  -1  47   1
M  END
>  <UniqueID>  (69) 
63

>  <SMILES>  (69) 
C=c1/c(=C\c2[n-]c(=O)[n-]c2[O-])cc(C)n1-c1c[nH+]c(N2CCNCC2)c(C)c1

>  <Energy>  (69) 
137.96137880014047

>  <Genealogy>  (69) 
C=c1c(=Cc2[n-]c(=O)[n-]c2[O-])cc(C)n1-c1c[nH+]c(N2CCNCC2)c(C)c1 (protonated)
C=c1/c(=C\c2[n-]c(=O)[n-]c2[O-])cc(C)n1-c1c[nH+]c(N2CCNCC2)c(C)c1 (cis-trans isomerization)
C=c1/c(=C\c2[n-]c(=O)[n-]c2[O-])cc(C)n1-c1c[nH+]c(N2CCNCC2)c(C)c1 (3D coordinates assigned)
C=c1/c(=C\c2[n-]c(=O)[n-]c2[O-])cc(C)n1-c1c[nH+]c(N2CCNCC2)c(C)c1 (nonaromatic ring conformer: 137.96137880014047 kcal/mol)

>  <smiles>  (69) 
C=c1c(=Cc2[nH]c(=O)[nH]c2O)cc(C)n1-c1cnc(N2CCNCC2)c(C)c1

>  <score_type>  (69) 
oracle

>  <origin>  (69) 
adg

>  <m_score__min__energy>  (69) 
-14.699999999999999

>  <m_primary>  (69) 
energy

$$$$
69:0
     RDKit          3D

 54 57  0  0  0  0  0  0  0  0999 V2000
   56.6480   30.8260   42.6920 C   0  0  0  0  0  0  0  0  0  0  0  0
   57.4270   29.8020   43.3780 N   0  0  0  0  0  0  0  0  0  0  0  0
   56.8550   28.9780   44.4050 C   0  0  0  0  0  0  0  0  0  0  0  0
   55.6730   29.1970   44.7900 O   0  0  0  0  0  0  0  0  0  0  0  0
   57.6960   27.9070   45.0850 C   0  0  1  0  0  0  0  0  0  0  0  0
   59.0530   28.4410   45.5860 C   0  0  0  0  0  0  0  0  0  0  0  0
   59.3610   27.6660   46.7870 N   0  0  0  0  0  0  0  0  0  0  0  0
   60.4580   28.2160   47.6150 C   0  0  0  0  0  0  0  0  0  0  0  0
   60.0070   29.1310   48.7910 C   0  0  0  0  0  0  0  0  0  0  0  0
   60.1730   30.5800   48.5310 N   0  0  0  0  0  0  0  0  0  0  0  0
   58.9320   31.3560   48.7060 C   0  0  0  0  0  0  0  0  0  0  0  0
   58.6140   32.0500   47.3860 C   0  0  0  0  0  0  0  0  0  0  0  0
   59.5800   31.4730   46.3730 C   0  0  0  0  0  0  0  0  0  0  0  0
   60.7110   30.8910   47.2010 C   0  0  0  0  0  0  0  0  0  0  0  0
   58.0840   27.4390   47.4670 C   0  0  0  0  0  0  0  0  0  0  0  0
   57.0190   27.3690   46.3680 C   0  0  2  0  0  0  0  0  0  0  0  0
   56.6830   25.9680   46.0240 C   0  0  0  0  0  0  0  0  0  0  0  0
   55.9700   25.2270   46.7520 O   0  0  0  0  0  0  0  0  0  0  0  0
   57.1960   25.5610   44.7680 N   0  0  0  0  0  0  0  0  0  0  0  0
   57.2070   24.2140   44.2580 C   0  0  0  0  0  0  0  0  0  0  0  0
   56.2680   23.8010   43.2940 C   0  0  0  0  0  0  0  0  0  0  0  0
   56.2770   22.4880   42.8130 C   0  0  0  0  0  0  0  0  0  0  0  0
   57.2180   21.5730   43.2920 C   0  0  0  0  0  0  0  0  0  0  0  0
   58.1480   21.9680   44.2560 C   0  0  0  0  0  0  0  0  0  0  0  0
   58.1420   23.2800   44.7410 C   0  0  0  0  0  0  0  0  0  0  0  0
   57.8740   26.6810   44.1320 C   0  0  0  0  0  0  0  0  0  0  0  0
   56.1567   31.4718   43.4346 H   0  0  0  0  0  0  0  0  0  0  0  0
   57.3146   31.4331   42.0619 H   0  0  0  0  0  0  0  0  0  0  0  0
   55.8850   30.3456   42.0619 H   0  0  0  0  0  0  0  0  0  0  0  0
   58.4320   29.6830   43.1180 H   0  0  0  0  0  0  0  0  0  0  0  0
   59.8304   28.2910   44.8223 H   0  0  0  0  0  0  0  0  0  0  0  0
   59.0133   29.5199   45.7967 H   0  0  0  0  0  0  0  0  0  0  0  0
   61.0213   27.3712   48.0380 H   0  0  0  0  0  0  0  0  0  0  0  0
   61.0558   28.8521   46.9457 H   0  0  0  0  0  0  0  0  0  0  0  0
   58.9431   28.9361   48.9913 H   0  0  0  0  0  0  0  0  0  0  0  0
   60.6534   28.8873   49.6470 H   0  0  0  0  0  0  0  0  0  0  0  0
   58.1071   30.6822   48.9806 H   0  0  0  0  0  0  0  0  0  0  0  0
   59.0589   32.1005   49.5058 H   0  0  0  0  0  0  0  0  0  0  0  0
   57.5760   31.8445   47.0856 H   0  0  0  0  0  0  0  0  0  0  0  0
   58.7176   33.1421   47.4677 H   0  0  0  0  0  0  0  0  0  0  0  0
   59.0926   30.6874   45.7769 H   0  0  0  0  0  0  0  0  0  0  0  0
   59.9358   32.2318   45.6605 H   0  0  0  0  0  0  0  0  0  0  0  0
   61.0903   29.9742   46.7260 H   0  0  0  0  0  0  0  0  0  0  0  0
   61.5417   31.6079   47.2783 H   0  0  0  0  0  0  0  0  0  0  0  0
   58.1143   26.4939   48.0289 H   0  0  0  0  0  0  0  0  0  0  0  0
   57.8651   28.2424   48.1857 H   0  0  0  0  0  0  0  0  0  0  0  0
   56.1256   27.9138   46.7073 H   0  0  0  0  0  0  0  0  0  0  0  0
   55.5221   24.5160   42.9165 H   0  0  0  0  0  0  0  0  0  0  0  0
   55.5423   22.1751   42.0565 H   0  0  0  0  0  0  0  0  0  0  0  0
   57.2263   20.5416   42.9098 H   0  0  0  0  0  0  0  0  0  0  0  0
   58.8866   21.2461   44.6346 H   0  0  0  0  0  0  0  0  0  0  0  0
   58.8729   23.5835   45.5049 H   0  0  0  0  0  0  0  0  0  0  0  0
   58.9422   26.4536   44.0008 H   0  0  0  0  0  0  0  0  0  0  0  0
   57.4538   26.8869   43.1365 H   0  0  0  0  0  0  0  0  0  0  0  0
  1  2  1  0
  2  3  1  0
  3  4  2  0
  5  3  1  6
  5  6  1  0
  6  7  1  0
  7  8  1  0
  8  9  1  0
  9 10  1  0
 10 11  1  0
 11 12  1  0
 12 13  1  0
 13 14  1  0
  7 15  1  0
 15 16  1  0
 16 17  1  0
 17 18  2  0
 17 19  1  0
 19 20  1  0
 20 21  2  0
 21 22  1  0
 22 23  2  0
 23 24  1  0
 24 25  2  0
 19 26  1  0
 16  5  1  0
 25 20  1  0
 26  5  1  0
 14 10  1  0
  1 27  1  0
  1 28  1  0
  1 29  1  0
  2 30  1  0
  6 31  1  0
  6 32  1  0
  8 33  1  0
  8 34  1  0
  9 35  1  0
  9 36  1  0
 11 37  1  0
 11 38  1  0
 12 39  1  0
 12 40  1  0
 13 41  1  0
 13 42  1  0
 14 43  1  0
 14 44  1  0
 15 45  1  0
 15 46  1  0
 16 47  1  1
 21 48  1  0
 22 49  1  0
 23 50  1  0
 24 51  1  0
 25 52  1  0
 26 53  1  0
 26 54  1  0
M  END
>  <UniqueID>  (70) 
64

>  <SMILES>  (70) 
CNC(=O)[C@@]12CN(CCN3CCCC3)C[C@@H]1C(=O)N(c1ccccc1)C2

>  <Energy>  (70) 
80.94360485275479

>  <Genealogy>  (70) 
CNC(=O)[C@@]12CN(CCN3CCCC3)C[C@@H]1C(=O)N(c1ccccc1)C2 (chirality)
CNC(=O)[C@@]12CN(CCN3CCCC3)C[C@@H]1C(=O)N(c1ccccc1)C2 (3D coordinates assigned)
CNC(=O)[C@@]12CN(CCN3CCCC3)C[C@@H]1C(=O)N(c1ccccc1)C2 (nonaromatic ring conformer: 80.94360485275479 kcal/mol)

>  <smiles>  (70) 
CNC(=O)C12CN(CCN3CCCC3)CC1C(=O)N(c1ccccc1)C2

>  <score_type>  (70) 
oracle

>  <origin>  (70) 
adg

>  <m_score__min__energy>  (70) 
-8.3499999999999996

>  <m_primary>  (70) 
energy

$$$$
70:0
     RDKit          3D

 46 48  0  0  0  0  0  0  0  0999 V2000
   59.4580   28.0911   43.4067 H   0  0  0  0  0  0  0  0  0  0  0  0
   58.7120   28.3200   44.1820 C   0  0  0  0  0  0  0  0  0  0  0  0
   57.4180   28.2150   43.8440 C   0  0  0  0  0  0  0  0  0  0  0  0
   57.0080   27.2028   43.7126 H   0  0  0  0  0  0  0  0  0  0  0  0
   56.4850   29.3750   43.6310 C   0  0  0  0  0  0  0  0  0  0  0  0
   56.6605   29.8001   42.6318 H   0  0  0  0  0  0  0  0  0  0  0  0
   55.4493   29.0147   43.7175 H   0  0  0  0  0  0  0  0  0  0  0  0
   56.7060   30.4110   44.6380 N   0  0  0  0  0  0  0  0  0  0  0  0
   56.3590   30.2660   45.6150 H   0  0  0  0  0  0  0  0  0  0  0  0
   57.4490   31.5990   44.3340 C   0  0  0  0  0  0  0  0  0  0  0  0
   57.6140   31.9430   43.1310 O   0  0  0  0  0  0  0  0  0  0  0  0
   58.0300   32.4120   45.4230 C   0  0  0  0  0  0  0  0  0  0  0  0
   57.9990   31.9400   46.7000 N   0  0  0  0  0  0  0  0  0  0  0  0
   58.5380   32.6250   47.7420 C   0  0  0  0  0  0  0  0  0  0  0  0
   58.4810   32.0880   49.0320 C   0  0  0  0  0  0  0  0  0  0  0  0
   58.0026   31.1118   49.2000 H   0  0  0  0  0  0  0  0  0  0  0  0
   59.0310   32.7900   50.1080 C   0  0  0  0  0  0  0  0  0  0  0  0
   58.9550   32.1140   51.7250 Cl  0  0  0  0  0  0  0  0  0  0  0  0
   59.6430   34.0300   49.8970 C   0  0  0  0  0  0  0  0  0  0  0  0
   60.0742   34.5795   50.7468 H   0  0  0  0  0  0  0  0  0  0  0  0
   59.7090   34.5740   48.6110 C   0  0  0  0  0  0  0  0  0  0  0  0
   60.1928   35.5489   48.4514 H   0  0  0  0  0  0  0  0  0  0  0  0
   59.1580   33.8770   47.5210 C   0  0  0  0  0  0  0  0  0  0  0  0
   59.2040   34.3830   46.2090 C   0  0  0  0  0  0  0  0  0  0  0  0
   59.7520   35.4920   45.9620 O   0  0  0  0  0  0  0  0  0  0  0  0
   58.6400   33.6480   45.1600 C   0  0  0  0  0  0  0  0  0  0  0  0
   58.6748   34.0382   44.1321 H   0  0  0  0  0  0  0  0  0  0  0  0
   59.2150   28.7190   45.5140 C   0  0  0  0  0  0  0  0  0  0  0  0
   58.7480   28.1140   46.6890 C   0  0  0  0  0  0  0  0  0  0  0  0
   57.9627   27.3457   46.6329 H   0  0  0  0  0  0  0  0  0  0  0  0
   59.2730   28.4800   47.9310 C   0  0  0  0  0  0  0  0  0  0  0  0
   58.8838   28.0084   48.8454 H   0  0  0  0  0  0  0  0  0  0  0  0
   60.2940   29.4450   48.0270 C   0  0  0  0  0  0  0  0  0  0  0  0
   60.8420   29.8190   49.3170 N   0  0  0  0  0  0  0  0  0  0  0  0
   61.8420   30.8870   49.4180 C   0  0  0  0  0  0  0  0  0  0  0  0
   62.0432   31.1019   50.4779 H   0  0  0  0  0  0  0  0  0  0  0  0
   62.7720   30.5662   48.9259 H   0  0  0  0  0  0  0  0  0  0  0  0
   61.4608   31.7940   48.9259 H   0  0  0  0  0  0  0  0  0  0  0  0
   60.4250   29.1160   50.5340 C   0  0  0  0  0  0  0  0  0  0  0  0
   60.7599   29.6806   51.4166 H   0  0  0  0  0  0  0  0  0  0  0  0
   59.3286   29.0281   50.5493 H   0  0  0  0  0  0  0  0  0  0  0  0
   60.8736   28.1117   50.5493 H   0  0  0  0  0  0  0  0  0  0  0  0
   60.7790   30.0250   46.8370 C   0  0  0  0  0  0  0  0  0  0  0  0
   61.5822   30.7751   46.8853 H   0  0  0  0  0  0  0  0  0  0  0  0
   60.2500   29.6570   45.5960 C   0  0  0  0  0  0  0  0  0  0  0  0
   60.6509   30.1087   44.6766 H   0  0  0  0  0  0  0  0  0  0  0  0
  1  2  1  0
  2  3  2  0
  3  4  1  0
  3  5  1  0
  5  6  1  0
  5  7  1  0
  5  8  1  0
  8  9  1  0
  8 10  1  0
 10 11  2  0
 10 12  1  0
 12 13  1  0
 13 14  1  0
 14 15  2  0
 15 16  1  0
 15 17  1  0
 17 18  1  0
 17 19  2  0
 19 20  1  0
 19 21  1  0
 21 22  1  0
 21 23  2  0
 23 24  1  0
 24 25  2  0
 24 26  1  0
 26 27  1  0
  2 28  1  0
 28 29  2  0
 29 30  1  0
 29 31  1  0
 31 32  1  0
 31 33  2  0
 33 34  1  0
 34 35  1  0
 35 36  1  0
 35 37  1  0
 35 38  1  0
 34 39  1  0
 39 40  1  0
 39 41  1  0
 39 42  1  0
 33 43  1  0
 43 44  1  0
 43 45  2  0
 45 46  1  0
 26 12  2  0
 45 28  1  0
 23 14  1  0
M  CHG  1  13  -1
M  END
>  <UniqueID>  (71) 
65

>  <SMILES>  (71) 
CN(C)c1ccc(/C=C\CNC(=O)c2cc(=O)c3ccc(Cl)cc3[n-]2)cc1

>  <Energy>  (71) 
58.00688451910991

>  <Genealogy>  (71) 
CN(C)c1ccc(C=CCNC(=O)c2cc(=O)c3ccc(Cl)cc3[n-]2)cc1 (protonated)
CN(C)c1ccc(/C=C\CNC(=O)c2cc(=O)c3ccc(Cl)cc3[n-]2)cc1 (cis-trans isomerization)
CN(C)c1ccc(/C=C\CNC(=O)c2cc(=O)c3ccc(Cl)cc3[n-]2)cc1 (3D coordinates assigned)
CN(C)c1ccc(/C=C\CNC(=O)c2cc(=O)c3ccc(Cl)cc3[n-]2)cc1 (optimized conformer: 58.00688451910991 kcal/mol)

>  <smiles>  (71) 
CN(C)c1ccc(C=CCNC(=O)c2cc(=O)c3ccc(Cl)cc3[nH]2)cc1

>  <score_type>  (71) 
oracle

>  <origin>  (71) 
adg

>  <m_score__min__energy>  (71) 
-10.710000000000001

>  <m_primary>  (71) 
energy

$$$$
71:0
     RDKit          3D

 31 33  0  0  0  0  0  0  0  0999 V2000
   60.0140   28.4320   44.7160 O   0  0  0  0  0  0  0  0  0  0  0  0
   59.2900   28.8020   45.6800 C   0  0  0  0  0  0  0  0  0  0  0  0
   59.9170   29.0560   46.9950 C   0  0  0  0  0  0  0  0  0  0  0  0
   60.3810   30.3390   47.3370 C   0  0  0  0  0  0  0  0  0  0  0  0
   61.0000   30.5610   48.5710 C   0  0  0  0  0  0  0  0  0  0  0  0
   61.1490   29.5090   49.4840 C   0  0  0  0  0  0  0  0  0  0  0  0
   61.7700   29.7230   50.7130 O   0  0  0  0  0  0  0  0  0  0  0  0
   60.6670   28.2350   49.1600 C   0  0  0  0  0  0  0  0  0  0  0  0
   60.8040   27.1860   50.0620 O   0  0  0  0  0  0  0  0  0  0  0  0
   60.0480   28.0110   47.9260 C   0  0  0  0  0  0  0  0  0  0  0  0
   57.8370   28.9580   45.4570 C   0  0  0  0  0  0  0  0  0  0  0  0
   57.2010   30.1080   45.0360 C   0  0  0  0  0  0  0  0  0  0  0  0
   55.8870   29.8580   44.8800 N   0  0  0  0  0  0  0  0  0  0  0  0
   55.6530   28.5940   45.2000 N   0  0  0  0  0  0  0  0  0  0  0  0
   56.8170   28.0230   45.5690 C   0  0  0  0  0  0  0  0  0  0  0  0
   56.9160   26.6260   46.0350 C   0  0  0  0  0  0  0  0  0  0  0  0
   58.1840   26.0670   46.2610 C   0  0  0  0  0  0  0  0  0  0  0  0
   58.3050   24.7620   46.7450 C   0  0  0  0  0  0  0  0  0  0  0  0
   57.1610   23.9990   46.9950 C   0  0  0  0  0  0  0  0  0  0  0  0
   57.2820   22.7040   47.4840 O   0  0  0  0  0  0  0  0  0  0  0  0
   55.8950   24.5360   46.7460 C   0  0  0  0  0  0  0  0  0  0  0  0
   55.7670   25.8410   46.2560 C   0  0  0  0  0  0  0  0  0  0  0  0
   54.4990   26.3410   45.9780 O   0  0  0  0  0  0  0  0  0  0  0  0
   60.2562   31.1723   46.6298 H   0  0  0  0  0  0  0  0  0  0  0  0
   61.3711   31.5647   48.8256 H   0  0  0  0  0  0  0  0  0  0  0  0
   61.8940   28.9700   51.3820 H   0  0  0  0  0  0  0  0  0  0  0  0
   59.6611   27.0105   47.6824 H   0  0  0  0  0  0  0  0  0  0  0  0
   57.6904   31.0766   44.8561 H   0  0  0  0  0  0  0  0  0  0  0  0
   59.0874   26.6600   46.0558 H   0  0  0  0  0  0  0  0  0  0  0  0
   59.3016   24.3346   46.9295 H   0  0  0  0  0  0  0  0  0  0  0  0
   54.9960   23.9311   46.9357 H   0  0  0  0  0  0  0  0  0  0  0  0
  1  2  2  0
  2  3  1  0
  3  4  2  0
  4  5  1  0
  5  6  2  0
  6  7  1  0
  6  8  1  0
  8  9  1  0
  8 10  2  0
  2 11  1  0
 11 12  1  0
 12 13  2  0
 13 14  1  0
 14 15  1  0
 15 16  1  0
 16 17  2  0
 17 18  1  0
 18 19  2  0
 19 20  1  0
 19 21  1  0
 21 22  2  0
 22 23  1  0
 10  3  1  0
 15 11  2  0
 22 16  1  0
  4 24  1  0
  5 25  1  0
  7 26  1  0
 10 27  1  0
 12 28  1  0
 17 29  1  0
 18 30  1  0
 21 31  1  0
M  CHG  4   9  -1  14  -1  20  -1  23  -1
M  END
>  <UniqueID>  (72) 
66

>  <SMILES>  (72) 
O=C(c1ccc(O)c([O-])c1)c1cn[n-]c1-c1ccc([O-])cc1[O-]

>  <Energy>  (72) 
73.4105545773118

>  <Genealogy>  (72) 
O=C(c1ccc(O)c([O-])c1)c1cn[n-]c1-c1ccc([O-])cc1[O-] (protonated)
O=C(c1ccc(O)c([O-])c1)c1cn[n-]c1-c1ccc([O-])cc1[O-] (3D coordinates assigned)
O=C(c1ccc(O)c([O-])c1)c1cn[n-]c1-c1ccc([O-])cc1[O-] (optimized conformer: 73.4105545773118 kcal/mol)

>  <smiles>  (72) 
O=C(c1ccc(O)c(O)c1)c1cn[nH]c1-c1ccc(O)cc1O

>  <score_type>  (72) 
oracle

>  <origin>  (72) 
adg

>  <m_score__min__energy>  (72) 
-15.539999999999999

>  <m_primary>  (72) 
energy

$$$$
72:0
     RDKit          3D

 63 66  0  0  0  0  0  0  0  0999 V2000
   60.3730   31.6220   49.2630 H   0  0  0  0  0  0  0  0  0  0  0  0
   60.1020   30.7970   48.7400 O   0  0  0  0  0  0  0  0  0  0  0  0
   59.4310   30.8930   47.5210 C   0  0  0  0  0  0  0  0  0  0  0  0
   59.0280   29.7340   46.8440 C   0  0  0  0  0  0  0  0  0  0  0  0
   59.2330   28.7458   47.2815 H   0  0  0  0  0  0  0  0  0  0  0  0
   58.3660   29.8270   45.6140 C   0  0  0  0  0  0  0  0  0  0  0  0
   57.8900   28.3560   44.7720 S   0  0  0  0  0  0  0  0  0  0  0  0
   56.9510   28.7250   43.6580 O   0  0  0  0  0  0  0  0  0  0  0  0
   59.0950   27.6780   44.1780 O   0  0  0  0  0  0  0  0  0  0  0  0
   57.0660   27.2950   45.8820 N   0  0  0  0  0  0  0  0  0  0  0  0
   56.6930   26.0140   45.2730 C   0  0  2  0  0  0  0  0  0  0  0  0
   56.4848   26.1565   44.2023 H   0  0  0  0  0  0  0  0  0  0  0  0
   55.4680   25.5030   45.9780 C   0  0  0  0  0  0  0  0  0  0  0  0
   54.3440   26.0130   45.7230 O   0  0  0  0  0  0  0  0  0  0  0  0
   55.5840   24.3870   46.8730 N   0  0  0  0  0  0  0  0  0  0  0  0
   54.8370   23.1600   46.8330 C   0  0  0  0  0  0  0  0  0  0  0  0
   53.5140   23.1410   46.3510 C   0  0  0  0  0  0  0  0  0  0  0  0
   53.0454   24.0754   46.0084 H   0  0  0  0  0  0  0  0  0  0  0  0
   52.7920   21.9480   46.3040 C   0  0  0  0  0  0  0  0  0  0  0  0
   51.7634   21.9434   45.9142 H   0  0  0  0  0  0  0  0  0  0  0  0
   53.3720   20.7630   46.7500 C   0  0  0  0  0  0  0  0  0  0  0  0
   52.8042   19.8221   46.7025 H   0  0  0  0  0  0  0  0  0  0  0  0
   54.6720   20.7670   47.2570 C   0  0  0  0  0  0  0  0  0  0  0  0
   55.1187   19.8272   47.6136 H   0  0  0  0  0  0  0  0  0  0  0  0
   55.4200   21.9600   47.3180 C   0  0  0  0  0  0  0  0  0  0  0  0
   56.8010   21.9180   47.8750 C   0  0  0  0  0  0  0  0  0  0  0  0
   57.1260   22.6790   48.8250 O   0  0  0  0  0  0  0  0  0  0  0  0
   57.7650   21.0570   47.3600 O   0  0  0  0  0  0  0  0  0  0  0  0
   57.8470   24.9930   45.3860 C   0  0  0  0  0  0  0  0  0  0  0  0
   58.7729   25.4610   45.0204 H   0  0  0  0  0  0  0  0  0  0  0  0
   57.9407   24.7002   46.4422 H   0  0  0  0  0  0  0  0  0  0  0  0
   57.5780   23.7480   44.5780 C   0  0  0  0  0  0  0  0  0  0  0  0
   56.5370   23.7220   43.6330 C   0  0  0  0  0  0  0  0  0  0  0  0
   55.8944   24.6050   43.5009 H   0  0  0  0  0  0  0  0  0  0  0  0
   56.3160   22.5780   42.8610 C   0  0  0  0  0  0  0  0  0  0  0  0
   55.4991   22.5622   42.1245 H   0  0  0  0  0  0  0  0  0  0  0  0
   57.1310   21.4540   43.0230 C   0  0  0  0  0  0  0  0  0  0  0  0
   56.9544   20.5544   42.4151 H   0  0  0  0  0  0  0  0  0  0  0  0
   58.1710   21.4730   43.9580 C   0  0  0  0  0  0  0  0  0  0  0  0
   58.8110   20.5875   44.0860 H   0  0  0  0  0  0  0  0  0  0  0  0
   58.3980   22.6160   44.7300 C   0  0  0  0  0  0  0  0  0  0  0  0
   59.2214   22.6299   45.4593 H   0  0  0  0  0  0  0  0  0  0  0  0
   58.1160   31.0880   45.0550 C   0  0  0  0  0  0  0  0  0  0  0  0
   57.5993   31.1668   44.0871 H   0  0  0  0  0  0  0  0  0  0  0  0
   58.5220   32.2450   45.7250 C   0  0  0  0  0  0  0  0  0  0  0  0
   58.3463   33.2309   45.2698 H   0  0  0  0  0  0  0  0  0  0  0  0
   59.1530   32.1560   46.9760 C   0  0  0  0  0  0  0  0  0  0  0  0
   59.6260   33.3340   47.6420 N   0  0  0  0  0  0  0  0  0  0  0  0
   60.8640   33.6250   47.9310 C   0  0  0  0  0  0  0  0  0  0  0  0
   61.9250   33.8230   46.8620 C   0  0  0  0  0  0  0  0  0  0  0  0
   61.7149   33.1481   46.0191 H   0  0  0  0  0  0  0  0  0  0  0  0
   61.8976   34.8731   46.5355 H   0  0  0  0  0  0  0  0  0  0  0  0
   63.3050   33.5260   47.3980 C   0  0  0  0  0  0  0  0  0  0  0  0
   64.1630   33.0970   46.6420 O   0  0  0  0  0  0  0  0  0  0  0  0
   63.6560   33.7740   48.8420 C   0  0  0  0  0  0  0  0  0  0  0  0
   63.7804   32.8073   49.3519 H   0  0  0  0  0  0  0  0  0  0  0  0
   64.5892   34.3553   48.8781 H   0  0  0  0  0  0  0  0  0  0  0  0
   62.5600   34.5740   49.5500 C   0  0  0  0  0  0  0  0  0  0  0  0
   62.7951   34.6301   50.6231 H   0  0  0  0  0  0  0  0  0  0  0  0
   62.5236   35.5788   49.1038 H   0  0  0  0  0  0  0  0  0  0  0  0
   61.1840   33.9200   49.3750 C   0  0  0  0  0  0  0  0  0  0  0  0
   61.1676   32.9762   49.9398 H   0  0  0  0  0  0  0  0  0  0  0  0
   60.4281   34.6273   49.7470 H   0  0  0  0  0  0  0  0  0  0  0  0
  1  2  1  0
  2  3  1  0
  3  4  2  0
  4  5  1  0
  4  6  1  0
  6  7  1  0
  7  8  2  0
  7  9  2  0
  7 10  1  0
 10 11  1  0
 11 12  1  6
 11 13  1  0
 13 14  2  0
 13 15  1  0
 15 16  1  0
 16 17  2  0
 17 18  1  0
 17 19  1  0
 19 20  1  0
 19 21  2  0
 21 22  1  0
 21 23  1  0
 23 24  1  0
 23 25  2  0
 25 26  1  0
 26 27  2  0
 26 28  1  0
 11 29  1  0
 29 30  1  0
 29 31  1  0
 29 32  1  0
 32 33  2  0
 33 34  1  0
 33 35  1  0
 35 36  1  0
 35 37  2  0
 37 38  1  0
 37 39  1  0
 39 40  1  0
 39 41  2  0
 41 42  1  0
  6 43  2  0
 43 44  1  0
 43 45  1  0
 45 46  1  0
 45 47  2  0
 47 48  1  0
 48 49  2  0
 49 50  1  0
 50 51  1  0
 50 52  1  0
 50 53  1  0
 53 54  2  0
 53 55  1  0
 55 56  1  0
 55 57  1  0
 55 58  1  0
 58 59  1  0
 58 60  1  0
 58 61  1  0
 61 62  1  0
 61 63  1  0
 47  3  1  0
 61 49  1  0
 25 16  1  0
 41 32  1  0
M  CHG  3  10  -1  15  -1  28  -1
M  END
>  <UniqueID>  (73) 
67

>  <SMILES>  (73) 
O=C1CCC/C(=N/c2ccc(S(=O)(=O)[N-][C@@H](Cc3ccccc3)C(=O)[N-]c3ccccc3C(=O)[O-])cc2O)C1

>  <Energy>  (73) 
76.14422145441252

>  <Genealogy>  (73) 
O=C1CCCC(=Nc2ccc(S(=O)(=O)[N-]C(Cc3ccccc3)C(=O)[N-]c3ccccc3C(=O)[O-])cc2O)C1 (protonated)
O=C1CCCC(=Nc2ccc(S(=O)(=O)[N-][C@@H](Cc3ccccc3)C(=O)[N-]c3ccccc3C(=O)[O-])cc2O)C1 (chirality)
O=C1CCC/C(=N/c2ccc(S(=O)(=O)[N-][C@@H](Cc3ccccc3)C(=O)[N-]c3ccccc3C(=O)[O-])cc2O)C1 (cis-trans isomerization)
O=C1CCC/C(=N/c2ccc(S(=O)(=O)[N-][C@@H](Cc3ccccc3)C(=O)[N-]c3ccccc3C(=O)[O-])cc2O)C1 (3D coordinates assigned)
O=C1CCC/C(=N/c2ccc(S(=O)(=O)[N-][C@@H](Cc3ccccc3)C(=O)[N-]c3ccccc3C(=O)[O-])cc2O)C1 (nonaromatic ring conformer: 76.14422145441252 kcal/mol)

>  <smiles>  (73) 
O=C1CCCC(=Nc2ccc(S(=O)(=O)NC(Cc3ccccc3)C(=O)Nc3ccccc3C(=O)O)cc2O)C1

>  <score_type>  (73) 
oracle

>  <origin>  (73) 
adg

>  <m_score__min__energy>  (73) 
-15.76

>  <m_primary>  (73) 
energy

$$$$
73:0
     RDKit          3D

 40 42  0  0  0  0  0  0  0  0999 V2000
   58.0110   21.5360   43.8240 C   0  0  0  0  0  0  0  0  0  0  0  0
   56.9080   22.4750   43.9950 N   0  0  0  0  0  0  0  0  0  0  0  0
   56.7720   23.3650   44.9950 C   0  0  0  0  0  0  0  0  0  0  0  0
   55.6160   24.0810   44.7690 C   0  0  0  0  0  0  0  0  0  0  0  0
   55.0610   25.1520   45.6180 C   0  0  0  0  0  0  0  0  0  0  0  0
   53.8130   25.3120   45.6680 O   0  0  0  0  0  0  0  0  0  0  0  0
   55.9020   26.0540   46.3480 N   0  0  0  0  0  0  0  0  0  0  0  0
   56.9440   26.8710   45.7940 C   0  0  0  0  0  0  0  0  0  0  0  0
   58.2880   26.4580   45.8040 C   0  0  0  0  0  0  0  0  0  0  0  0
   59.2800   27.2880   45.2760 C   0  0  0  0  0  0  0  0  0  0  0  0
   58.9450   28.5380   44.7520 C   0  0  0  0  0  0  0  0  0  0  0  0
   57.6130   28.9750   44.7690 C   0  0  0  0  0  0  0  0  0  0  0  0
   57.1940   30.5760   44.1540 S   0  0  0  0  0  0  0  0  0  0  0  0
   55.8920   31.0150   44.7650 O   0  0  0  0  0  0  0  0  0  0  0  0
   57.0020   30.4980   42.6640 O   0  0  0  0  0  0  0  0  0  0  0  0
   58.4270   31.7640   44.5260 N   0  0  0  0  0  0  0  0  0  0  0  0
   58.6110   31.9110   45.9770 C   0  0  0  0  0  0  0  0  0  0  0  0
   58.0000   33.2370   46.4180 C   0  0  0  0  0  0  0  0  0  0  0  0
   57.4430   33.8740   45.1620 C   0  0  0  0  0  0  0  0  0  0  0  0
   58.0530   33.0880   44.0170 C   0  0  0  0  0  0  0  0  0  0  0  0
   56.6180   28.1380   45.2950 C   0  0  0  0  0  0  0  0  0  0  0  0
   55.0840   23.5550   43.6040 C   0  0  0  0  0  0  0  0  0  0  0  0
   55.8980   22.5810   43.1480 N   0  0  0  0  0  0  0  0  0  0  0  0
   58.3808   21.2211   44.8110 H   0  0  0  0  0  0  0  0  0  0  0  0
   57.6598   20.6555   43.2660 H   0  0  0  0  0  0  0  0  0  0  0  0
   58.8242   22.0232   43.2660 H   0  0  0  0  0  0  0  0  0  0  0  0
   57.4609   23.4976   45.8423 H   0  0  0  0  0  0  0  0  0  0  0  0
   58.5588   25.4799   46.2282 H   0  0  0  0  0  0  0  0  0  0  0  0
   60.3286   26.9556   45.2731 H   0  0  0  0  0  0  0  0  0  0  0  0
   59.7281   29.1816   44.3247 H   0  0  0  0  0  0  0  0  0  0  0  0
   58.1110   31.0818   46.4990 H   0  0  0  0  0  0  0  0  0  0  0  0
   59.6834   31.8939   46.2214 H   0  0  0  0  0  0  0  0  0  0  0  0
   57.1959   33.0639   47.1484 H   0  0  0  0  0  0  0  0  0  0  0  0
   58.7454   33.8842   46.9033 H   0  0  0  0  0  0  0  0  0  0  0  0
   56.3460   33.7957   45.1430 H   0  0  0  0  0  0  0  0  0  0  0  0
   57.6842   34.9455   45.1012 H   0  0  0  0  0  0  0  0  0  0  0  0
   57.3195   32.9821   43.2041 H   0  0  0  0  0  0  0  0  0  0  0  0
   58.9373   33.6102   43.6228 H   0  0  0  0  0  0  0  0  0  0  0  0
   55.5727   28.4798   45.3157 H   0  0  0  0  0  0  0  0  0  0  0  0
   54.1475   23.8795   43.1268 H   0  0  0  0  0  0  0  0  0  0  0  0
  1  2  1  0
  2  3  1  0
  3  4  2  0
  4  5  1  0
  5  6  2  0
  5  7  1  0
  7  8  1  0
  8  9  2  0
  9 10  1  0
 10 11  2  0
 11 12  1  0
 12 13  1  0
 13 14  2  0
 13 15  2  0
 13 16  1  0
 16 17  1  0
 17 18  1  0
 18 19  1  0
 19 20  1  0
 12 21  2  0
  4 22  1  0
 22 23  2  0
 23  2  1  0
 21  8  1  0
 20 16  1  0
  1 24  1  0
  1 25  1  0
  1 26  1  0
  3 27  1  0
  9 28  1  0
 10 29  1  0
 11 30  1  0
 17 31  1  0
 17 32  1  0
 18 33  1  0
 18 34  1  0
 19 35  1  0
 19 36  1  0
 20 37  1  0
 20 38  1  0
 21 39  1  0
 22 40  1  0
M  CHG  1   7  -1
M  END
>  <UniqueID>  (74) 
68

>  <SMILES>  (74) 
Cn1cc(C(=O)[N-]c2cccc(S(=O)(=O)N3CCCC3)c2)cn1

>  <Energy>  (74) 
75.44371962263925

>  <Genealogy>  (74) 
Cn1cc(C(=O)[N-]c2cccc(S(=O)(=O)N3CCCC3)c2)cn1 (protonated)
Cn1cc(C(=O)[N-]c2cccc(S(=O)(=O)N3CCCC3)c2)cn1 (3D coordinates assigned)
Cn1cc(C(=O)[N-]c2cccc(S(=O)(=O)N3CCCC3)c2)cn1 (nonaromatic ring conformer: 75.44371962263925 kcal/mol)

>  <smiles>  (74) 
Cn1cc(C(=O)Nc2cccc(S(=O)(=O)N3CCCC3)c2)cn1

>  <score_type>  (74) 
oracle

>  <origin>  (74) 
adg

>  <m_score__min__energy>  (74) 
-10.75

>  <m_primary>  (74) 
energy

$$$$
74:0
     RDKit          3D

 46 48  0  0  1  0  0  0  0  0999 V2000
   57.8610   32.7620   47.9140 C   0  0  0  0  0  0  0  0  0  0  0  0
   59.2590   33.0980   47.4960 C   0  0  0  0  0  0  0  0  0  0  0  0
   59.5880   34.5060   47.9370 C   0  0  0  0  0  0  0  0  0  0  0  0
   59.5040   33.0140   46.0180 C   0  0  2  0  0  0  0  0  0  0  0  0
   60.0220   34.2890   45.4050 C   0  0  0  0  0  0  0  0  0  0  0  0
   58.8610   35.0280   45.0800 O   0  0  0  0  0  0  0  0  0  0  0  0
   57.7940   34.1430   44.9960 C   0  0  0  0  0  0  0  0  0  0  0  0
   56.6050   34.4440   44.7360 O   0  0  0  0  0  0  0  0  0  0  0  0
   58.2820   32.8330   45.2560 N   0  0  0  0  0  0  0  0  0  0  0  0
   57.7170   31.5870   44.8680 C   0  0  0  0  0  0  0  0  0  0  0  0
   57.2540   31.3630   43.5920 C   0  0  0  0  0  0  0  0  0  0  0  0
   56.7030   30.1300   43.2320 C   0  0  0  0  0  0  0  0  0  0  0  0
   56.6340   29.1530   44.1720 N   0  0  0  0  0  0  0  0  0  0  0  0
   57.0930   29.3910   45.4180 C   0  0  0  0  0  0  0  0  0  0  0  0
   57.0220   28.4500   46.3050 N   0  0  0  0  0  0  0  0  0  0  0  0
   57.1980   27.0930   45.9800 C   0  0  0  0  0  0  0  0  0  0  0  0
   56.1340   26.5040   45.5990 O   0  0  0  0  0  0  0  0  0  0  0  0
   58.3850   26.2900   46.0070 C   0  0  0  0  0  0  0  0  0  0  0  0
   59.5860   26.6320   46.3690 C   0  0  0  0  0  0  0  0  0  0  0  0
   60.0310   27.8750   46.9190 C   0  0  0  0  0  0  0  0  0  0  0  0
   60.4150   28.8550   45.9930 C   0  0  0  0  0  0  0  0  0  0  0  0
   60.9420   30.0480   46.4060 C   0  0  0  0  0  0  0  0  0  0  0  0
   61.1340   30.3720   47.7300 C   0  0  0  0  0  0  0  0  0  0  0  0
   61.6480   31.5390   48.1550 F   0  0  0  0  0  0  0  0  0  0  0  0
   60.7640   29.4170   48.6520 C   0  0  0  0  0  0  0  0  0  0  0  0
   60.2260   28.1980   48.2310 C   0  0  0  0  0  0  0  0  0  0  0  0
   57.6270   30.5860   45.7630 N   0  0  0  0  0  0  0  0  0  0  0  0
   57.8002   32.7474   49.0122 H   0  0  0  0  0  0  0  0  0  0  0  0
   57.1680   33.5192   47.5184 H   0  0  0  0  0  0  0  0  0  0  0  0
   57.5878   31.7726   47.5184 H   0  0  0  0  0  0  0  0  0  0  0  0
   59.8996   32.3435   47.9759 H   0  0  0  0  0  0  0  0  0  0  0  0
   59.5990   34.5529   49.0359 H   0  0  0  0  0  0  0  0  0  0  0  0
   60.5768   34.7905   47.5480 H   0  0  0  0  0  0  0  0  0  0  0  0
   58.8276   35.1992   47.5480 H   0  0  0  0  0  0  0  0  0  0  0  0
   60.2157   32.1772   45.9609 H   0  0  0  0  0  0  0  0  0  0  0  0
   60.6443   34.8408   46.1249 H   0  0  0  0  0  0  0  0  0  0  0  0
   60.6556   34.1009   44.5257 H   0  0  0  0  0  0  0  0  0  0  0  0
   57.3184   32.1666   42.8436 H   0  0  0  0  0  0  0  0  0  0  0  0
   56.3338   29.9553   42.2106 H   0  0  0  0  0  0  0  0  0  0  0  0
   56.2240   28.2190   43.9250 H   0  0  0  0  0  0  0  0  0  0  0  0
   58.2639   25.2473   45.6782 H   0  0  0  0  0  0  0  0  0  0  0  0
   60.3621   25.8642   46.2345 H   0  0  0  0  0  0  0  0  0  0  0  0
   60.2906   28.6616   44.9173 H   0  0  0  0  0  0  0  0  0  0  0  0
   61.2267   30.7857   45.6413 H   0  0  0  0  0  0  0  0  0  0  0  0
   60.8930   29.6155   49.7262 H   0  0  0  0  0  0  0  0  0  0  0  0
   59.9449   27.4601   48.9968 H   0  0  0  0  0  0  0  0  0  0  0  0
  1  2  1  0
  2  3  1  0
  2  4  1  0
  4  5  1  0
  5  6  1  0
  6  7  1  0
  7  8  2  0
  7  9  1  0
  9 10  1  0
 10 11  1  0
 11 12  2  0
 12 13  1  0
 13 14  1  0
 14 15  2  0
 15 16  1  0
 16 17  2  0
 16 18  1  0
 18 19  2  0
 19 20  1  0
 20 21  2  0
 21 22  1  0
 22 23  2  0
 23 24  1  0
 23 25  1  0
 25 26  2  0
 14 27  1  0
  9  4  1  0
 27 10  2  0
 26 20  1  0
  1 28  1  0
  1 29  1  0
  1 30  1  0
  2 31  1  0
  3 32  1  0
  3 33  1  0
  3 34  1  0
  4 35  1  1
  5 36  1  0
  5 37  1  0
 11 38  1  0
 12 39  1  0
 13 40  1  0
 18 41  1  0
 19 42  1  0
 21 43  1  0
 22 44  1  0
 25 45  1  0
 26 46  1  0
M  END
>  <smiles>  (75) 
CC(C)C1COC(=O)N1c1cc[nH]c(=NC(=O)C=Cc2ccc(F)cc2)n1

>  <score_type>  (75) 
oracle

>  <origin>  (75) 
adg

>  <m_score__min__energy>  (75) 
-9.0099999999999998

>  <m_primary>  (75) 
energy

$$$$
75:0
     RDKit          3D

 39 40  0  0  0  0  0  0  0  0999 V2000
   54.7030   28.5820   44.4920 H   0  0  0  0  0  0  0  0  0  0  0  0
   55.6120   28.9800   44.6840 O   0  0  0  0  0  0  0  0  0  0  0  0
   56.6560   28.2620   45.2790 C   0  0  0  0  0  0  0  0  0  0  0  0
   56.3360   27.0880   45.9770 C   0  0  0  0  0  0  0  0  0  0  0  0
   55.0160   26.6560   46.0470 O   0  0  0  0  0  0  0  0  0  0  0  0
   57.3370   26.3500   46.6120 C   0  0  0  0  0  0  0  0  0  0  0  0
   57.0778   25.4326   47.1609 H   0  0  0  0  0  0  0  0  0  0  0  0
   58.6640   26.7730   46.5520 C   0  0  0  0  0  0  0  0  0  0  0  0
   59.4496   26.1903   47.0553 H   0  0  0  0  0  0  0  0  0  0  0  0
   58.9970   27.9350   45.8540 C   0  0  0  0  0  0  0  0  0  0  0  0
   60.0469   28.2599   45.8070 H   0  0  0  0  0  0  0  0  0  0  0  0
   58.0020   28.6960   45.2090 C   0  0  0  0  0  0  0  0  0  0  0  0
   58.3790   29.8810   44.4020 C   0  0  0  0  0  0  0  0  0  0  0  0
   58.5466   29.7528   43.3224 H   0  0  0  0  0  0  0  0  0  0  0  0
   58.5240   31.1030   44.9350 C   0  0  0  0  0  0  0  0  0  0  0  0
   59.4763   31.3546   45.4248 H   0  0  0  0  0  0  0  0  0  0  0  0
   57.4590   32.1250   44.8920 C   0  0  0  0  0  0  0  0  0  0  0  0
   56.2620   31.7540   44.7640 O   0  0  0  0  0  0  0  0  0  0  0  0
   57.7510   33.5640   45.0020 C   0  0  0  0  0  0  0  0  0  0  0  0
   58.0264   34.1183   44.0927 H   0  0  0  0  0  0  0  0  0  0  0  0
   57.6960   34.2060   46.1330 N   0  0  0  0  0  0  0  0  0  0  0  0
   58.8100   34.3820   47.0670 C   0  0  0  0  0  0  0  0  0  0  0  0
   58.4363   34.8459   47.9918 H   0  0  0  0  0  0  0  0  0  0  0  0
   59.5679   35.0260   46.5970 H   0  0  0  0  0  0  0  0  0  0  0  0
   59.4420   33.0500   47.4000 C   0  0  0  0  0  0  0  0  0  0  0  0
   58.6730   32.0810   48.0670 C   0  0  0  0  0  0  0  0  0  0  0  0
   57.6187   32.2890   48.3020 H   0  0  0  0  0  0  0  0  0  0  0  0
   59.2350   30.8570   48.4340 C   0  0  0  0  0  0  0  0  0  0  0  0
   58.6254   30.1083   48.9611 H   0  0  0  0  0  0  0  0  0  0  0  0
   60.5680   30.5830   48.1330 C   0  0  0  0  0  0  0  0  0  0  0  0
   61.0104   29.6197   48.4269 H   0  0  0  0  0  0  0  0  0  0  0  0
   61.3430   31.5290   47.4590 C   0  0  0  0  0  0  0  0  0  0  0  0
   62.3915   31.3021   47.2155 H   0  0  0  0  0  0  0  0  0  0  0  0
   60.7920   32.7730   47.0880 C   0  0  0  0  0  0  0  0  0  0  0  0
   61.5580   33.7480   46.4290 O   0  0  0  0  0  0  0  0  0  0  0  0
   62.9790   33.8110   46.4490 C   0  0  0  0  0  0  0  0  0  0  0  0
   63.3307   33.8266   47.4911 H   0  0  0  0  0  0  0  0  0  0  0  0
   63.3923   32.9303   45.9357 H   0  0  0  0  0  0  0  0  0  0  0  0
   63.3128   34.7248   45.9357 H   0  0  0  0  0  0  0  0  0  0  0  0
  1  2  1  0
  2  3  1  0
  3  4  2  0
  4  5  1  0
  4  6  1  0
  6  7  1  0
  6  8  2  0
  8  9  1  0
  8 10  1  0
 10 11  1  0
 10 12  2  0
 12 13  1  0
 13 14  1  0
 13 15  2  0
 15 16  1  0
 15 17  1  0
 17 18  2  0
 17 19  1  0
 19 20  1  0
 19 21  2  3
 21 22  1  0
 22 23  1  0
 22 24  1  0
 22 25  1  0
 25 26  2  0
 26 27  1  0
 26 28  1  0
 28 29  1  0
 28 30  2  0
 30 31  1  0
 30 32  1  0
 32 33  1  0
 32 34  2  0
 34 35  1  0
 35 36  1  0
 36 37  1  0
 36 38  1  0
 36 39  1  0
 12  3  1  0
 34 25  1  0
M  CHG  1   5  -1
M  END
>  <UniqueID>  (76) 
69

>  <SMILES>  (76) 
COc1ccccc1CN=CC(=O)/C=C/c1cccc([O-])c1O

>  <Energy>  (76) 
46.66834233629406

>  <Genealogy>  (76) 
COc1ccccc1CN=CC(=O)C=Cc1cccc([O-])c1O (protonated)
COc1ccccc1CN=CC(=O)/C=C/c1cccc([O-])c1O (cis-trans isomerization)
COc1ccccc1CN=CC(=O)/C=C/c1cccc([O-])c1O (3D coordinates assigned)
COc1ccccc1CN=CC(=O)/C=C/c1cccc([O-])c1O (optimized conformer: 46.66834233629406 kcal/mol)

>  <smiles>  (76) 
COc1ccccc1CN=CC(=O)C=Cc1cccc(O)c1O

>  <score_type>  (76) 
oracle

>  <origin>  (76) 
adg

>  <m_score__min__energy>  (76) 
-12.109999999999999

>  <m_primary>  (76) 
energy

$$$$
76:0
     RDKit          3D

 55 58  0  0  0  0  0  0  0  0999 V2000
   57.6640   21.0780   46.2310 C   0  0  0  0  0  0  0  0  0  0  0  0
   57.3890   21.7280   44.8650 C   0  0  0  0  0  0  0  0  0  0  0  0
   55.9490   22.3170   44.8090 C   0  0  0  0  0  0  0  0  0  0  0  0
   55.9060   23.6980   44.1490 C   0  0  0  0  0  0  0  0  0  0  0  0
   56.8330   24.5980   44.8520 N   0  0  0  0  0  0  0  0  0  0  0  0
   56.3210   25.7610   45.5350 C   0  0  0  0  0  0  0  0  0  0  0  0
   55.1820   25.7110   46.0790 O   0  0  0  0  0  0  0  0  0  0  0  0
   57.1090   27.0090   45.6330 C   0  0  0  0  0  0  0  0  0  0  0  0
   58.4190   26.9760   46.1830 C   0  0  0  0  0  0  0  0  0  0  0  0
   59.1860   28.1510   46.2850 C   0  0  0  0  0  0  0  0  0  0  0  0
   58.6130   29.3380   45.8410 C   0  0  0  0  0  0  0  0  0  0  0  0
   59.1580   30.5630   45.8490 N   0  0  0  0  0  0  0  0  0  0  0  0
   58.1620   31.3280   45.3290 C   0  0  0  0  0  0  0  0  0  0  0  0
   58.3050   32.8100   45.1280 C   0  0  0  0  0  0  0  0  0  0  0  0
   58.2980   33.5750   46.4590 C   0  0  0  0  0  0  0  0  0  0  0  0
   59.6210   34.2540   46.7230 C   0  0  0  0  0  0  0  0  0  0  0  0
   59.6860   35.5120   46.6620 O   0  0  0  0  0  0  0  0  0  0  0  0
   60.8050   33.4940   47.0360 N   0  0  0  0  0  0  0  0  0  0  0  0
   60.7190   32.2140   47.7510 C   0  0  0  0  0  0  0  0  0  0  0  0
   61.9950   31.9930   48.5670 C   0  0  0  0  0  0  0  0  0  0  0  0
   63.1430   32.1300   47.7500 O   0  0  0  0  0  0  0  0  0  0  0  0
   63.2510   33.4690   47.2980 C   0  0  0  0  0  0  0  0  0  0  0  0
   62.0750   33.8370   46.3830 C   0  0  0  0  0  0  0  0  0  0  0  0
   57.0360   30.6430   44.9940 N   0  0  0  0  0  0  0  0  0  0  0  0
   57.3520   29.3850   45.3360 C   0  0  0  0  0  0  0  0  0  0  0  0
   56.5580   28.2470   45.2220 C   0  0  0  0  0  0  0  0  0  0  0  0
   58.2100   24.1460   45.1220 C   0  0  0  0  0  0  0  0  0  0  0  0
   58.4880   22.7640   44.5090 C   0  0  0  0  0  0  0  0  0  0  0  0
   57.3706   21.7715   47.0328 H   0  0  0  0  0  0  0  0  0  0  0  0
   57.0819   20.1488   46.3187 H   0  0  0  0  0  0  0  0  0  0  0  0
   58.7362   20.8487   46.3187 H   0  0  0  0  0  0  0  0  0  0  0  0
   57.4362   20.9508   44.0880 H   0  0  0  0  0  0  0  0  0  0  0  0
   55.3094   21.6311   44.2341 H   0  0  0  0  0  0  0  0  0  0  0  0
   55.5933   22.4297   45.8438 H   0  0  0  0  0  0  0  0  0  0  0  0
   56.2059   23.6114   43.0942 H   0  0  0  0  0  0  0  0  0  0  0  0
   54.8846   24.1026   44.2038 H   0  0  0  0  0  0  0  0  0  0  0  0
   58.8380   26.0210   46.5329 H   0  0  0  0  0  0  0  0  0  0  0  0
   60.2039   28.1316   46.7016 H   0  0  0  0  0  0  0  0  0  0  0  0
   59.2549   33.0079   44.6098 H   0  0  0  0  0  0  0  0  0  0  0  0
   57.4470   33.1562   44.5330 H   0  0  0  0  0  0  0  0  0  0  0  0
   57.5064   34.3381   46.4269 H   0  0  0  0  0  0  0  0  0  0  0  0
   58.1176   32.8518   47.2679 H   0  0  0  0  0  0  0  0  0  0  0  0
   59.8510   32.2300   48.4265 H   0  0  0  0  0  0  0  0  0  0  0  0
   60.6054   31.3969   47.0234 H   0  0  0  0  0  0  0  0  0  0  0  0
   62.0382   32.7355   49.3774 H   0  0  0  0  0  0  0  0  0  0  0  0
   61.9766   30.9745   48.9822 H   0  0  0  0  0  0  0  0  0  0  0  0
   63.2550   34.1429   48.1674 H   0  0  0  0  0  0  0  0  0  0  0  0
   64.1853   33.5718   46.7265 H   0  0  0  0  0  0  0  0  0  0  0  0
   62.0983   34.9171   46.1762 H   0  0  0  0  0  0  0  0  0  0  0  0
   62.1604   33.2752   45.4411 H   0  0  0  0  0  0  0  0  0  0  0  0
   55.5340   28.3077   44.8248 H   0  0  0  0  0  0  0  0  0  0  0  0
   58.9142   24.8740   44.6929 H   0  0  0  0  0  0  0  0  0  0  0  0
   58.3367   24.0682   46.2119 H   0  0  0  0  0  0  0  0  0  0  0  0
   58.5364   22.8660   43.4148 H   0  0  0  0  0  0  0  0  0  0  0  0
   59.4400   22.3989   44.9219 H   0  0  0  0  0  0  0  0  0  0  0  0
  1  2  1  0
  2  3  1  0
  3  4  1  0
  4  5  1  0
  5  6  1  0
  6  7  2  0
  6  8  1  0
  8  9  2  0
  9 10  1  0
 10 11  2  0
 11 12  1  0
 12 13  1  0
 13 14  1  0
 14 15  1  0
 15 16  1  0
 16 17  2  0
 16 18  1  0
 18 19  1  0
 19 20  1  0
 20 21  1  0
 21 22  1  0
 22 23  1  0
 13 24  2  0
 24 25  1  0
 25 26  2  0
  5 27  1  0
 27 28  1  0
 28  2  1  0
 26  8  1  0
 25 11  1  0
 23 18  1  0
  1 29  1  0
  1 30  1  0
  1 31  1  0
  2 32  1  0
  3 33  1  0
  3 34  1  0
  4 35  1  0
  4 36  1  0
  9 37  1  0
 10 38  1  0
 14 39  1  0
 14 40  1  0
 15 41  1  0
 15 42  1  0
 19 43  1  0
 19 44  1  0
 20 45  1  0
 20 46  1  0
 22 47  1  0
 22 48  1  0
 23 49  1  0
 23 50  1  0
 26 51  1  0
 27 52  1  0
 27 53  1  0
 28 54  1  0
 28 55  1  0
M  CHG  1  12  -1
M  END
>  <UniqueID>  (77) 
70

>  <SMILES>  (77) 
CC1CCN(C(=O)c2ccc3[n-]c(CCC(=O)N4CCOCC4)nc3c2)CC1

>  <Energy>  (77) 
97.04827768521571

>  <Genealogy>  (77) 
CC1CCN(C(=O)c2ccc3[n-]c(CCC(=O)N4CCOCC4)nc3c2)CC1 (protonated)
CC1CCN(C(=O)c2ccc3[n-]c(CCC(=O)N4CCOCC4)nc3c2)CC1 (3D coordinates assigned)
CC1CCN(C(=O)c2ccc3[n-]c(CCC(=O)N4CCOCC4)nc3c2)CC1 (nonaromatic ring conformer: 97.04827768521571 kcal/mol)

>  <smiles>  (77) 
CC1CCN(C(=O)c2ccc3[nH]c(CCC(=O)N4CCOCC4)nc3c2)CC1

>  <score_type>  (77) 
oracle

>  <origin>  (77) 
adg

>  <m_score__min__energy>  (77) 
-9.9800000000000004

>  <m_primary>  (77) 
energy

$$$$
77:0
     RDKit          3D

 53 56  0  0  0  0  0  0  0  0999 V2000
   56.8390   26.6330   45.2550 O   0  0  0  0  0  0  0  0  0  0  0  0
   57.8610   27.1240   44.6990 C   0  0  0  0  0  0  0  0  0  0  0  0
   57.7180   28.0160   43.5040 C   0  0  0  0  0  0  0  0  0  0  0  0
   57.3640   29.4190   43.9080 C   0  0  0  0  0  0  0  0  0  0  0  0
   58.3700   30.7630   43.7370 S   0  0  0  0  0  0  0  0  0  0  0  0
   57.2460   31.7930   44.4500 C   0  0  0  0  0  0  0  0  0  0  0  0
   57.4230   33.0270   44.6130 O   0  0  0  0  0  0  0  0  0  0  0  0
   56.1190   31.1540   44.8310 N   0  0  0  0  0  0  0  0  0  0  0  0
   56.1880   29.8300   44.5330 C   0  0  0  0  0  0  0  0  0  0  0  0
   55.1470   28.9570   44.8390 O   0  0  0  0  0  0  0  0  0  0  0  0
   59.1690   26.7680   45.1530 N   0  0  0  0  0  0  0  0  0  0  0  0
   59.5310   26.7180   46.5610 C   0  0  0  0  0  0  0  0  0  0  0  0
   59.6520   28.1160   47.0930 C   0  0  0  0  0  0  0  0  0  0  0  0
   59.7920   29.1970   46.2080 C   0  0  0  0  0  0  0  0  0  0  0  0
   59.8480   30.5060   46.6940 C   0  0  0  0  0  0  0  0  0  0  0  0
   59.7480   30.7540   48.0720 C   0  0  0  0  0  0  0  0  0  0  0  0
   59.7610   32.1650   48.6000 C   0  0  0  0  0  0  0  0  0  0  0  0
   61.1010   32.7670   48.4390 N   0  0  0  0  0  0  0  0  0  0  0  0
   62.1750   31.7400   48.3570 C   0  0  0  0  0  0  0  0  0  0  0  0
   63.1060   31.7100   49.5780 C   0  0  0  0  0  0  0  0  0  0  0  0
   63.6320   33.0530   49.8540 N   0  0  0  0  0  0  0  0  0  0  0  0
   64.9310   33.2460   50.4550 C   0  0  0  0  0  0  0  0  0  0  0  0
   65.1130   34.1120   51.5510 C   0  0  0  0  0  0  0  0  0  0  0  0
   66.3870   34.2670   52.1030 C   0  0  0  0  0  0  0  0  0  0  0  0
   67.4680   33.5740   51.5620 C   0  0  0  0  0  0  0  0  0  0  0  0
   67.2610   32.7350   50.4660 C   0  0  0  0  0  0  0  0  0  0  0  0
   66.0130   32.5920   49.9440 N   0  0  0  0  0  0  0  0  0  0  0  0
   62.7980   34.2190   49.5450 C   0  0  0  0  0  0  0  0  0  0  0  0
   61.3250   33.8110   49.4630 C   0  0  0  0  0  0  0  0  0  0  0  0
   59.5960   29.6740   48.9560 C   0  0  0  0  0  0  0  0  0  0  0  0
   59.5460   28.3640   48.4700 C   0  0  0  0  0  0  0  0  0  0  0  0
   58.6697   28.0314   42.9527 H   0  0  0  0  0  0  0  0  0  0  0  0
   56.9081   27.6223   42.8724 H   0  0  0  0  0  0  0  0  0  0  0  0
   58.7535   26.1779   47.1211 H   0  0  0  0  0  0  0  0  0  0  0  0
   60.4925   26.1961   46.6755 H   0  0  0  0  0  0  0  0  0  0  0  0
   59.8580   29.0124   45.1256 H   0  0  0  0  0  0  0  0  0  0  0  0
   59.9709   31.3455   45.9939 H   0  0  0  0  0  0  0  0  0  0  0  0
   59.0255   32.7657   48.0449 H   0  0  0  0  0  0  0  0  0  0  0  0
   59.5063   32.1462   49.6699 H   0  0  0  0  0  0  0  0  0  0  0  0
   61.7018   30.7519   48.2587 H   0  0  0  0  0  0  0  0  0  0  0  0
   62.7979   32.0000   47.4885 H   0  0  0  0  0  0  0  0  0  0  0  0
   62.5437   31.3539   50.4538 H   0  0  0  0  0  0  0  0  0  0  0  0
   63.9476   31.0334   49.3684 H   0  0  0  0  0  0  0  0  0  0  0  0
   64.2576   34.6626   51.9695 H   0  0  0  0  0  0  0  0  0  0  0  0
   66.5365   34.9354   52.9638 H   0  0  0  0  0  0  0  0  0  0  0  0
   68.4733   33.6869   51.9939 H   0  0  0  0  0  0  0  0  0  0  0  0
   68.1075   32.1891   50.0241 H   0  0  0  0  0  0  0  0  0  0  0  0
   62.9221   34.9738   50.3355 H   0  0  0  0  0  0  0  0  0  0  0  0
   63.1089   34.6348   48.5752 H   0  0  0  0  0  0  0  0  0  0  0  0
   61.0077   33.4233   50.4423 H   0  0  0  0  0  0  0  0  0  0  0  0
   60.7393   34.6983   49.1809 H   0  0  0  0  0  0  0  0  0  0  0  0
   59.5158   29.8595   50.0373 H   0  0  0  0  0  0  0  0  0  0  0  0
   59.4231   27.5244   49.1699 H   0  0  0  0  0  0  0  0  0  0  0  0
  1  2  2  0
  2  3  1  0
  3  4  1  0
  4  5  1  0
  5  6  1  0
  6  7  2  0
  6  8  1  0
  8  9  1  0
  9 10  1  0
  2 11  1  0
 11 12  1  0
 12 13  1  0
 13 14  2  0
 14 15  1  0
 15 16  2  0
 16 17  1  0
 17 18  1  0
 18 19  1  0
 19 20  1  0
 20 21  1  0
 21 22  1  0
 22 23  2  0
 23 24  1  0
 24 25  2  0
 25 26  1  0
 26 27  2  0
 21 28  1  0
 28 29  1  0
 16 30  1  0
 30 31  2  0
  9  4  2  0
 31 13  1  0
 29 18  1  0
 27 22  1  0
  3 32  1  0
  3 33  1  0
 12 34  1  0
 12 35  1  0
 14 36  1  0
 15 37  1  0
 17 38  1  0
 17 39  1  0
 19 40  1  0
 19 41  1  0
 20 42  1  0
 20 43  1  0
 23 44  1  0
 24 45  1  0
 25 46  1  0
 26 47  1  0
 28 48  1  0
 28 49  1  0
 29 50  1  0
 29 51  1  0
 30 52  1  0
 31 53  1  0
M  CHG  3   8  -1  10  -1  11  -1
M  END
>  <UniqueID>  (78) 
71

>  <SMILES>  (78) 
O=C(Cc1sc(=O)[n-]c1[O-])[N-]Cc1ccc(CN2CCN(c3ccccn3)CC2)cc1

>  <Energy>  (78) 
93.21259068642755

>  <Genealogy>  (78) 
O=C(Cc1sc(=O)[n-]c1[O-])[N-]Cc1ccc(CN2CCN(c3ccccn3)CC2)cc1 (protonated)
O=C(Cc1sc(=O)[n-]c1[O-])[N-]Cc1ccc(CN2CCN(c3ccccn3)CC2)cc1 (3D coordinates assigned)
O=C(Cc1sc(=O)[n-]c1[O-])[N-]Cc1ccc(CN2CCN(c3ccccn3)CC2)cc1 (nonaromatic ring conformer: 93.21259068642755 kcal/mol)

>  <smiles>  (78) 
O=C(Cc1sc(=O)[nH]c1O)NCc1ccc(CN2CCN(c3ccccn3)CC2)cc1

>  <score_type>  (78) 
oracle

>  <origin>  (78) 
adg

>  <m_score__min__energy>  (78) 
-17.949999999999999

>  <m_primary>  (78) 
energy

$$$$
78:0
     RDKit          3D

 55 58  0  0  0  0  0  0  0  0999 V2000
   54.2760   26.6500   46.7440 H   0  0  0  0  0  0  0  0  0  0  0  0
   54.9700   26.4530   46.0340 O   0  0  0  0  0  0  0  0  0  0  0  0
   56.1290   25.7190   46.2950 C   0  0  0  0  0  0  0  0  0  0  0  0
   56.0390   24.6240   47.0940 N   0  0  0  0  0  0  0  0  0  0  0  0
   57.1300   23.8690   47.3820 C   0  0  0  0  0  0  0  0  0  0  0  0
   57.0180   22.8630   48.1280 O   0  0  0  0  0  0  0  0  0  0  0  0
   58.3400   24.1960   46.8620 N   0  0  0  0  0  0  0  0  0  0  0  0
   58.4880   25.2790   46.0560 C   0  0  0  0  0  0  0  0  0  0  0  0
   59.6230   25.5430   45.5780 O   0  0  0  0  0  0  0  0  0  0  0  0
   57.3770   26.0900   45.7610 C   0  0  0  0  0  0  0  0  0  0  0  0
   57.5030   27.2420   44.8470 C   0  0  0  0  0  0  0  0  0  0  0  0
   57.1854   27.0933   43.8044 H   0  0  0  0  0  0  0  0  0  0  0  0
   57.9730   28.4590   45.1790 C   0  0  0  0  0  0  0  0  0  0  0  0
   57.5390   29.6200   44.5580 C   0  0  0  0  0  0  0  0  0  0  0  0
   56.7654   29.6960   43.7797 H   0  0  0  0  0  0  0  0  0  0  0  0
   58.2610   30.6610   45.1010 C   0  0  0  0  0  0  0  0  0  0  0  0
   58.1360   32.0960   44.6890 C   0  0  0  0  0  0  0  0  0  0  0  0
   58.0807   32.7313   45.5853 H   0  0  0  0  0  0  0  0  0  0  0  0
   59.0125   32.3831   44.0896 H   0  0  0  0  0  0  0  0  0  0  0  0
   57.2230   32.2272   44.0896 H   0  0  0  0  0  0  0  0  0  0  0  0
   59.1170   30.2000   46.0390 N   0  0  0  0  0  0  0  0  0  0  0  0
   60.0080   31.0120   46.8210 C   0  0  0  0  0  0  0  0  0  0  0  0
   61.3880   30.7730   46.7810 C   0  0  0  0  0  0  0  0  0  0  0  0
   61.7856   29.9601   46.1556 H   0  0  0  0  0  0  0  0  0  0  0  0
   62.2610   31.5640   47.5330 C   0  0  0  0  0  0  0  0  0  0  0  0
   63.3435   31.3729   47.4931 H   0  0  0  0  0  0  0  0  0  0  0  0
   61.7650   32.6010   48.3390 C   0  0  0  0  0  0  0  0  0  0  0  0
   62.6960   33.4400   49.1260 C   0  0  0  0  0  0  0  0  0  0  0  0
   63.0050   34.5840   48.6920 O   0  0  0  0  0  0  0  0  0  0  0  0
   63.2710   32.9690   50.3610 N   0  0  0  0  0  0  0  0  0  0  0  0
   63.6990   31.5710   50.4950 C   0  0  0  0  0  0  0  0  0  0  0  0
   62.8463   30.9636   50.8327 H   0  0  0  0  0  0  0  0  0  0  0  0
   64.0581   31.2171   49.5173 H   0  0  0  0  0  0  0  0  0  0  0  0
   64.8440   31.4450   51.5160 C   0  0  0  0  0  0  0  0  0  0  0  0
   64.4172   31.4305   52.5297 H   0  0  0  0  0  0  0  0  0  0  0  0
   65.3905   30.5142   51.3038 H   0  0  0  0  0  0  0  0  0  0  0  0
   65.7970   32.5710   51.4140 N   0  0  0  0  0  0  0  0  0  0  0  0
   66.5630   32.5260   50.1550 C   0  0  0  0  0  0  0  0  0  0  0  0
   67.6375   32.4629   50.3816 H   0  0  0  0  0  0  0  0  0  0  0  0
   66.2588   31.6442   49.5720 H   0  0  0  0  0  0  0  0  0  0  0  0
   66.3641   33.4374   49.5720 H   0  0  0  0  0  0  0  0  0  0  0  0
   65.1690   33.9010   51.6320 C   0  0  0  0  0  0  0  0  0  0  0  0
   65.3752   34.2160   52.6656 H   0  0  0  0  0  0  0  0  0  0  0  0
   65.6028   34.5844   50.8872 H   0  0  0  0  0  0  0  0  0  0  0  0
   63.6430   33.9150   51.4160 C   0  0  0  0  0  0  0  0  0  0  0  0
   63.1412   33.6302   52.3525 H   0  0  0  0  0  0  0  0  0  0  0  0
   63.3330   34.9267   51.1155 H   0  0  0  0  0  0  0  0  0  0  0  0
   60.3840   32.8550   48.3560 C   0  0  0  0  0  0  0  0  0  0  0  0
   59.9874   33.6805   48.9654 H   0  0  0  0  0  0  0  0  0  0  0  0
   59.5100   32.0650   47.6030 C   0  0  0  0  0  0  0  0  0  0  0  0
   58.1800   32.3340   47.6210 F   0  0  0  0  0  0  0  0  0  0  0  0
   58.9420   28.8550   46.1190 C   0  0  0  0  0  0  0  0  0  0  0  0
   59.5850   28.0840   47.0110 C   0  0  0  0  0  0  0  0  0  0  0  0
   60.3250   28.5304   47.6915 H   0  0  0  0  0  0  0  0  0  0  0  0
   59.3717   27.0061   47.0611 H   0  0  0  0  0  0  0  0  0  0  0  0
  1  2  1  0
  2  3  1  0
  3  4  1  0
  4  5  1  0
  5  6  2  0
  5  7  1  0
  7  8  1  0
  8  9  2  0
  8 10  1  0
 10 11  1  0
 11 12  1  0
 11 13  2  0
 13 14  1  0
 14 15  1  0
 14 16  2  0
 16 17  1  0
 17 18  1  0
 17 19  1  0
 17 20  1  0
 16 21  1  0
 21 22  1  0
 22 23  2  0
 23 24  1  0
 23 25  1  0
 25 26  1  0
 25 27  2  0
 27 28  1  0
 28 29  2  0
 28 30  1  0
 30 31  1  0
 31 32  1  0
 31 33  1  0
 31 34  1  0
 34 35  1  0
 34 36  1  0
 34 37  1  0
 37 38  1  0
 38 39  1  0
 38 40  1  0
 38 41  1  0
 37 42  1  0
 42 43  1  0
 42 44  1  0
 42 45  1  0
 45 46  1  0
 45 47  1  0
 27 48  1  0
 48 49  1  0
 48 50  2  0
 50 51  1  0
 21 52  1  0
 52 53  2  0
 53 54  1  0
 53 55  1  0
 10  3  2  0
 52 13  1  0
 50 22  1  0
 45 30  1  0
M  CHG  2   4  -1   7  -1
M  END
>  <UniqueID>  (79) 
72

>  <SMILES>  (79) 
C=c1/c(=C\c2c(O)[n-]c(=O)[n-]c2=O)cc(C)n1-c1ccc(C(=O)N2CCN(C)CC2)cc1F

>  <Energy>  (79) 
120.94274364096407

>  <Genealogy>  (79) 
C=c1c(=Cc2c(O)[n-]c(=O)[n-]c2=O)cc(C)n1-c1ccc(C(=O)N2CCN(C)CC2)cc1F (protonated)
C=c1/c(=C\c2c(O)[n-]c(=O)[n-]c2=O)cc(C)n1-c1ccc(C(=O)N2CCN(C)CC2)cc1F (cis-trans isomerization)
C=c1/c(=C\c2c(O)[n-]c(=O)[n-]c2=O)cc(C)n1-c1ccc(C(=O)N2CCN(C)CC2)cc1F (3D coordinates assigned)
C=c1/c(=C\c2c(O)[n-]c(=O)[n-]c2=O)cc(C)n1-c1ccc(C(=O)N2CCN(C)CC2)cc1F (nonaromatic ring conformer: 120.94274364096407 kcal/mol)

>  <smiles>  (79) 
C=c1c(=Cc2c(O)[nH]c(=O)[nH]c2=O)cc(C)n1-c1ccc(C(=O)N2CCN(C)CC2)cc1F

>  <score_type>  (79) 
oracle

>  <origin>  (79) 
adg

>  <m_score__min__energy>  (79) 
-13.43

>  <m_primary>  (79) 
energy

$$$$
79:0
     RDKit          3D

 43 45  0  0  0  0  0  0  0  0999 V2000
   53.2410   22.2410   45.6730 N   0  0  0  0  0  0  0  0  0  0  0  0
   54.0250   23.5480   44.8610 S   0  0  0  0  0  0  0  0  0  0  0  0
   53.4530   23.7010   43.4780 O   0  0  0  0  0  0  0  0  0  0  0  0
   53.7880   24.8210   45.6240 O   0  0  0  0  0  0  0  0  0  0  0  0
   55.7510   23.2180   44.7540 C   0  0  0  0  0  0  0  0  0  0  0  0
   56.2190   22.2350   43.8710 C   0  0  0  0  0  0  0  0  0  0  0  0
   57.5860   21.9610   43.7860 C   0  0  0  0  0  0  0  0  0  0  0  0
   58.4920   22.6540   44.5950 C   0  0  0  0  0  0  0  0  0  0  0  0
   58.0330   23.6260   45.5000 C   0  0  0  0  0  0  0  0  0  0  0  0
   58.9310   24.3800   46.3280 N   0  0  0  0  0  0  0  0  0  0  0  0
   59.4220   25.6990   46.0600 C   0  0  0  0  0  0  0  0  0  0  0  0
   60.4390   26.1440   46.6570 O   0  0  0  0  0  0  0  0  0  0  0  0
   58.7070   26.5660   45.0730 C   0  0  0  0  0  0  0  0  0  0  0  0
   57.4420   27.1530   45.7000 C   0  0  0  0  0  0  0  0  0  0  0  0
   57.4540   28.6480   45.6110 C   0  0  0  0  0  0  0  0  0  0  0  0
   58.7940   29.6260   45.8940 S   0  0  0  0  0  0  0  0  0  0  0  0
   57.9620   31.0390   45.4980 C   0  0  0  0  0  0  0  0  0  0  0  0
   58.5320   32.3560   45.5100 N   0  0  0  0  0  0  0  0  0  0  0  0
   58.0620   33.4430   44.6720 C   0  0  0  0  0  0  0  0  0  0  0  0
   59.0440   34.5850   44.9020 C   0  0  0  0  0  0  0  0  0  0  0  0
   59.7960   34.2400   46.1860 C   0  0  0  0  0  0  0  0  0  0  0  0
   59.6250   32.7400   46.3840 C   0  0  0  0  0  0  0  0  0  0  0  0
   56.6830   30.7890   45.1340 N   0  0  0  0  0  0  0  0  0  0  0  0
   56.4010   29.4610   45.1950 C   0  0  0  0  0  0  0  0  0  0  0  0
   55.1480   28.9650   44.8570 O   0  0  0  0  0  0  0  0  0  0  0  0
   56.6620   23.9160   45.5600 C   0  0  0  0  0  0  0  0  0  0  0  0
   53.6590   21.3580   45.3070 H   0  0  0  0  0  0  0  0  0  0  0  0
   55.5078   21.6779   43.2434 H   0  0  0  0  0  0  0  0  0  0  0  0
   57.9505   21.1988   43.0815 H   0  0  0  0  0  0  0  0  0  0  0  0
   59.5680   22.4374   44.5226 H   0  0  0  0  0  0  0  0  0  0  0  0
   59.3715   27.3855   44.7618 H   0  0  0  0  0  0  0  0  0  0  0  0
   58.4247   25.9576   44.2012 H   0  0  0  0  0  0  0  0  0  0  0  0
   56.5612   26.7662   45.1665 H   0  0  0  0  0  0  0  0  0  0  0  0
   57.4036   26.8613   46.7599 H   0  0  0  0  0  0  0  0  0  0  0  0
   58.0632   33.1416   43.6141 H   0  0  0  0  0  0  0  0  0  0  0  0
   57.0306   33.7342   44.9200 H   0  0  0  0  0  0  0  0  0  0  0  0
   59.7447   34.6627   44.0576 H   0  0  0  0  0  0  0  0  0  0  0  0
   58.5260   35.5518   44.9853 H   0  0  0  0  0  0  0  0  0  0  0  0
   60.8617   34.4928   46.0842 H   0  0  0  0  0  0  0  0  0  0  0  0
   59.4065   34.8062   47.0449 H   0  0  0  0  0  0  0  0  0  0  0  0
   60.5461   32.2078   46.1043 H   0  0  0  0  0  0  0  0  0  0  0  0
   59.4158   32.4881   47.4341 H   0  0  0  0  0  0  0  0  0  0  0  0
   56.2986   24.6968   46.2444 H   0  0  0  0  0  0  0  0  0  0  0  0
  1  2  1  0
  2  3  2  0
  2  4  2  0
  2  5  1  0
  5  6  2  0
  6  7  1  0
  7  8  2  0
  8  9  1  0
  9 10  1  0
 10 11  1  0
 11 12  2  0
 11 13  1  0
 13 14  1  0
 14 15  1  0
 15 16  1  0
 16 17  1  0
 17 18  1  0
 18 19  1  0
 19 20  1  0
 20 21  1  0
 21 22  1  0
 17 23  2  0
 23 24  1  0
 24 25  1  0
  9 26  2  0
 26  5  1  0
 24 15  2  0
 22 18  1  0
  1 27  1  0
  6 28  1  0
  7 29  1  0
  8 30  1  0
 13 31  1  0
 13 32  1  0
 14 33  1  0
 14 34  1  0
 19 35  1  0
 19 36  1  0
 20 37  1  0
 20 38  1  0
 21 39  1  0
 21 40  1  0
 22 41  1  0
 22 42  1  0
 26 43  1  0
M  CHG  3   1  -1  10  -1  25  -1
M  END
>  <UniqueID>  (80) 
73

>  <SMILES>  (80) 
[NH-]S(=O)(=O)c1cccc([N-]C(=O)CCc2sc(N3CCCC3)nc2[O-])c1

>  <Energy>  (80) 
71.62042173914898

>  <Genealogy>  (80) 
[NH-]S(=O)(=O)c1cccc([N-]C(=O)CCc2sc(N3CCCC3)nc2[O-])c1 (protonated)
[NH-]S(=O)(=O)c1cccc([N-]C(=O)CCc2sc(N3CCCC3)nc2[O-])c1 (3D coordinates assigned)
[NH-]S(=O)(=O)c1cccc([N-]C(=O)CCc2sc(N3CCCC3)nc2[O-])c1 (nonaromatic ring conformer: 71.62042173914898 kcal/mol)

>  <smiles>  (80) 
NS(=O)(=O)c1cccc(NC(=O)CCc2sc(N3CCCC3)nc2O)c1

>  <score_type>  (80) 
oracle

>  <origin>  (80) 
adg

>  <m_score__min__energy>  (80) 
-16

>  <m_primary>  (80) 
energy

$$$$
80:0
     RDKit          3D

 30 31  0  0  0  0  0  0  0  0999 V2000
   53.6650   24.2930   44.9520 C   0  0  0  0  0  0  0  0  0  0  0  0
   55.1460   24.4560   45.1820 C   0  0  0  0  0  0  0  0  0  0  0  0
   56.0380   23.4370   44.8000 C   0  0  0  0  0  0  0  0  0  0  0  0
   55.5460   22.2610   44.2360 O   0  0  0  0  0  0  0  0  0  0  0  0
   57.4240   23.6010   44.9760 C   0  0  0  0  0  0  0  0  0  0  0  0
   58.3600   22.5260   44.5810 C   0  0  0  0  0  0  0  0  0  0  0  0
   59.4200   22.3160   45.2290 O   0  0  0  0  0  0  0  0  0  0  0  0
   57.9100   24.7950   45.5320 C   0  0  0  0  0  0  0  0  0  0  0  0
   57.0350   25.8250   45.9110 C   0  0  0  0  0  0  0  0  0  0  0  0
   57.5950   27.0720   46.4930 C   0  0  0  0  0  0  0  0  0  0  0  0
   58.0100   27.0610   47.6840 O   0  0  0  0  0  0  0  0  0  0  0  0
   57.6080   28.3470   45.7400 C   0  0  0  0  0  0  0  0  0  0  0  0
   57.0530   28.3800   44.4470 C   0  0  0  0  0  0  0  0  0  0  0  0
   56.9990   29.5770   43.7290 C   0  0  0  0  0  0  0  0  0  0  0  0
   57.4910   30.7540   44.2930 C   0  0  0  0  0  0  0  0  0  0  0  0
   58.0490   30.7370   45.5720 C   0  0  0  0  0  0  0  0  0  0  0  0
   58.1250   29.5420   46.3000 C   0  0  0  0  0  0  0  0  0  0  0  0
   58.7390   29.5730   47.5520 O   0  0  0  0  0  0  0  0  0  0  0  0
   55.6500   25.6620   45.7080 C   0  0  0  0  0  0  0  0  0  0  0  0
   54.7730   26.7030   46.0010 O   0  0  0  0  0  0  0  0  0  0  0  0
   53.1475   24.2360   45.9210 H   0  0  0  0  0  0  0  0  0  0  0  0
   53.2852   25.1548   44.3836 H   0  0  0  0  0  0  0  0  0  0  0  0
   53.4817   23.3693   44.3836 H   0  0  0  0  0  0  0  0  0  0  0  0
   58.1269   21.8997   43.7073 H   0  0  0  0  0  0  0  0  0  0  0  0
   58.9931   24.9253   45.6728 H   0  0  0  0  0  0  0  0  0  0  0  0
   56.6588   27.4562   43.9985 H   0  0  0  0  0  0  0  0  0  0  0  0
   56.5678   29.5914   42.7172 H   0  0  0  0  0  0  0  0  0  0  0  0
   57.4391   31.6969   43.7289 H   0  0  0  0  0  0  0  0  0  0  0  0
   58.4323   31.6693   46.0123 H   0  0  0  0  0  0  0  0  0  0  0  0
   58.8090   28.7640   48.1550 H   0  0  0  0  0  0  0  0  0  0  0  0
  1  2  1  0
  2  3  2  0
  3  4  1  0
  3  5  1  0
  5  6  1  0
  6  7  2  0
  5  8  2  0
  8  9  1  0
  9 10  1  0
 10 11  2  0
 10 12  1  0
 12 13  2  0
 13 14  1  0
 14 15  2  0
 15 16  1  0
 16 17  2  0
 17 18  1  0
  9 19  2  0
 19 20  1  0
 19  2  1  0
 17 12  1  0
  1 21  1  0
  1 22  1  0
  1 23  1  0
  6 24  1  0
  8 25  1  0
 13 26  1  0
 14 27  1  0
 15 28  1  0
 16 29  1  0
 18 30  1  0
M  CHG  2   4  -1  20  -1
M  END
>  <UniqueID>  (81) 
74

>  <SMILES>  (81) 
Cc1c([O-])c(C=O)cc(C(=O)c2ccccc2O)c1[O-]

>  <Energy>  (81) 
43.2276326007704

>  <Genealogy>  (81) 
Cc1c([O-])c(C=O)cc(C(=O)c2ccccc2O)c1[O-] (protonated)
Cc1c([O-])c(C=O)cc(C(=O)c2ccccc2O)c1[O-] (3D coordinates assigned)
Cc1c([O-])c(C=O)cc(C(=O)c2ccccc2O)c1[O-] (optimized conformer: 43.2276326007704 kcal/mol)

>  <smiles>  (81) 
Cc1c(O)c(C=O)cc(C(=O)c2ccccc2O)c1O

>  <score_type>  (81) 
oracle

>  <origin>  (81) 
adg

>  <m_score__min__energy>  (81) 
-13.32

>  <m_primary>  (81) 
energy

$$$$
81:0
     RDKit          3D

 45 48  0  0  0  0  0  0  0  0999 V2000
   59.3220   27.6430   46.6410 C   0  0  0  0  0  0  0  0  0  0  0  0
   58.5600   28.1390   45.6540 C   0  0  0  0  0  0  0  0  0  0  0  0
   57.8830   27.4170   44.6570 C   0  0  0  0  0  0  0  0  0  0  0  0
   57.6660   26.0950   44.5110 C   0  0  0  0  0  0  0  0  0  0  0  0
   57.1040   25.2010   45.5360 C   0  0  0  0  0  0  0  0  0  0  0  0
   57.7750   24.1830   46.1070 N   0  0  0  0  0  0  0  0  0  0  0  0
   56.9290   23.7520   47.0680 C   0  0  0  0  0  0  0  0  0  0  0  0
   57.1990   22.7830   47.8230 O   0  0  0  0  0  0  0  0  0  0  0  0
   55.7760   24.4480   47.1610 N   0  0  0  0  0  0  0  0  0  0  0  0
   55.9070   25.3700   46.1940 C   0  0  0  0  0  0  0  0  0  0  0  0
   54.9470   26.3430   45.9280 O   0  0  0  0  0  0  0  0  0  0  0  0
   57.3930   28.3570   43.7640 C   0  0  0  0  0  0  0  0  0  0  0  0
   57.7300   29.5980   44.2620 C   0  0  0  0  0  0  0  0  0  0  0  0
   57.3640   30.9040   43.6250 C   0  0  0  0  0  0  0  0  0  0  0  0
   58.4260   29.4690   45.4120 N   0  0  0  0  0  0  0  0  0  0  0  0
   58.9830   30.5570   46.1710 C   0  0  0  0  0  0  0  0  0  0  0  0
   60.3660   30.6380   46.3790 C   0  0  0  0  0  0  0  0  0  0  0  0
   60.9070   31.7060   47.1000 C   0  0  0  0  0  0  0  0  0  0  0  0
   60.0730   32.7180   47.6100 C   0  0  0  0  0  0  0  0  0  0  0  0
   60.6600   33.8410   48.3710 C   0  0  0  0  0  0  0  0  0  0  0  0
   59.9930   34.8990   48.5280 O   0  0  0  0  0  0  0  0  0  0  0  0
   61.9520   33.7430   48.9770 N   0  0  0  0  0  0  0  0  0  0  0  0
   62.9790   32.7200   49.2580 C   0  0  0  0  0  0  0  0  0  0  0  0
   63.8370   33.5870   50.1170 C   0  0  0  0  0  0  0  0  0  0  0  0
   62.7940   34.6120   49.8180 C   0  0  0  0  0  0  0  0  0  0  0  0
   58.6860   32.6240   47.4050 C   0  0  0  0  0  0  0  0  0  0  0  0
   58.1470   31.5550   46.6850 C   0  0  0  0  0  0  0  0  0  0  0  0
   59.7995   28.3230   47.3618 H   0  0  0  0  0  0  0  0  0  0  0  0
   59.4691   26.5565   46.7292 H   0  0  0  0  0  0  0  0  0  0  0  0
   57.9317   25.6457   43.5428 H   0  0  0  0  0  0  0  0  0  0  0  0
   54.0390   26.3250   46.3770 H   0  0  0  0  0  0  0  0  0  0  0  0
   56.8406   28.1521   42.8351 H   0  0  0  0  0  0  0  0  0  0  0  0
   57.1555   31.6481   44.4078 H   0  0  0  0  0  0  0  0  0  0  0  0
   58.1987   31.2537   42.9998 H   0  0  0  0  0  0  0  0  0  0  0  0
   56.4691   30.7690   42.9998 H   0  0  0  0  0  0  0  0  0  0  0  0
   61.0281   29.8587   45.9736 H   0  0  0  0  0  0  0  0  0  0  0  0
   61.9926   31.7558   47.2700 H   0  0  0  0  0  0  0  0  0  0  0  0
   62.5760   31.8517   49.7999 H   0  0  0  0  0  0  0  0  0  0  0  0
   63.4593   32.2418   48.3916 H   0  0  0  0  0  0  0  0  0  0  0  0
   63.9151   33.2825   51.1711 H   0  0  0  0  0  0  0  0  0  0  0  0
   64.9140   33.7404   49.9539 H   0  0  0  0  0  0  0  0  0  0  0  0
   62.2726   34.9622   50.7210 H   0  0  0  0  0  0  0  0  0  0  0  0
   63.1363   35.5580   49.3731 H   0  0  0  0  0  0  0  0  0  0  0  0
   58.0199   33.3977   47.8144 H   0  0  0  0  0  0  0  0  0  0  0  0
   57.0608   31.4974   46.5213 H   0  0  0  0  0  0  0  0  0  0  0  0
  1  2  2  0
  2  3  1  0
  3  4  2  3
  4  5  1  0
  5  6  1  0
  6  7  1  0
  7  8  2  0
  7  9  1  0
  9 10  1  0
 10 11  1  0
  3 12  1  0
 12 13  2  0
 13 14  1  0
 13 15  1  0
 15 16  1  0
 16 17  2  0
 17 18  1  0
 18 19  2  0
 19 20  1  0
 20 21  2  0
 20 22  1  0
 22 23  1  0
 23 24  1  0
 24 25  1  0
 19 26  1  0
 26 27  2  0
 15  2  1  0
 27 16  1  0
 10  5  2  0
 25 22  1  0
  1 28  1  0
  1 29  1  0
  4 30  1  0
 11 31  1  0
 12 32  1  0
 14 33  1  0
 14 34  1  0
 14 35  1  0
 17 36  1  0
 18 37  1  0
 23 38  1  0
 23 39  1  0
 24 40  1  0
 24 41  1  0
 25 42  1  0
 25 43  1  0
 26 44  1  0
 27 45  1  0
M  CHG  2   6  -1   9  -1
M  END
>  <UniqueID>  (82) 
75

>  <SMILES>  (82) 
C=c1c(=Cc2[n-]c(=O)[n-]c2O)cc(C)n1-c1ccc(C(=O)N2CCC2)cc1

>  <Energy>  (82) 
168.88815891349375

>  <Genealogy>  (82) 
C=c1c(=Cc2[n-]c(=O)[n-]c2O)cc(C)n1-c1ccc(C(=O)N2CCC2)cc1 (protonated)
C=c1c(=Cc2[n-]c(=O)[n-]c2O)cc(C)n1-c1ccc(C(=O)N2CCC2)cc1 (3D coordinates assigned)
C=c1c(=Cc2[n-]c(=O)[n-]c2O)cc(C)n1-c1ccc(C(=O)N2CCC2)cc1 (nonaromatic ring conformer: 168.88815891349375 kcal/mol)

>  <smiles>  (82) 
C=c1c(=Cc2[nH]c(=O)[nH]c2O)cc(C)n1-c1ccc(C(=O)N2CCC2)cc1

>  <score_type>  (82) 
oracle

>  <origin>  (82) 
adg

>  <m_score__min__energy>  (82) 
-12.82

>  <m_primary>  (82) 
energy

$$$$
82:0
     RDKit          3D

 45 47  0  0  0  0  0  0  0  0999 V2000
   56.8310   19.6520   46.2760 C   0  0  0  0  0  0  0  0  0  0  0  0
   55.8800   20.6560   45.9280 O   0  0  0  0  0  0  0  0  0  0  0  0
   56.1150   21.6150   44.9360 C   0  0  0  0  0  0  0  0  0  0  0  0
   56.2680   21.2230   43.6370 N   0  0  0  0  0  0  0  0  0  0  0  0
   56.4890   22.1120   42.6350 C   0  0  0  0  0  0  0  0  0  0  0  0
   56.5640   23.4730   42.9140 C   0  0  0  0  0  0  0  0  0  0  0  0
   56.4150   23.9110   44.2300 C   0  0  0  0  0  0  0  0  0  0  0  0
   56.1900   22.9870   45.2680 C   0  0  0  0  0  0  0  0  0  0  0  0
   56.0180   23.4740   46.6610 C   0  0  0  0  0  0  0  0  0  0  0  0
   54.9590   23.2300   47.3030 O   0  0  0  0  0  0  0  0  0  0  0  0
   57.0630   24.2310   47.2900 N   0  0  0  0  0  0  0  0  0  0  0  0
   57.6620   25.4270   46.7090 C   0  0  0  0  0  0  0  0  0  0  0  0
   56.6500   26.5200   46.5550 C   0  0  0  0  0  0  0  0  0  0  0  0
   55.4560   26.2410   46.2560 O   0  0  0  0  0  0  0  0  0  0  0  0
   57.0850   27.8820   46.6250 N   0  0  0  0  0  0  0  0  0  0  0  0
   57.1270   28.8050   45.5270 C   0  0  0  0  0  0  0  0  0  0  0  0
   55.9510   29.2050   44.8640 C   0  0  0  0  0  0  0  0  0  0  0  0
   56.0120   30.1340   43.8220 C   0  0  0  0  0  0  0  0  0  0  0  0
   57.2390   30.6860   43.4450 C   0  0  0  0  0  0  0  0  0  0  0  0
   58.4070   30.3040   44.1040 C   0  0  0  0  0  0  0  0  0  0  0  0
   58.3570   29.3700   45.1470 C   0  0  0  0  0  0  0  0  0  0  0  0
   59.8880   28.8710   45.9480 S   0  0  0  0  0  0  0  0  0  0  0  0
   59.9660   30.3700   46.9300 C   0  0  0  0  0  0  0  0  0  0  0  0
   58.8930   30.7220   47.7570 C   0  0  0  0  0  0  0  0  0  0  0  0
   58.9430   31.9020   48.5070 C   0  0  0  0  0  0  0  0  0  0  0  0
   60.0610   32.7390   48.4260 C   0  0  0  0  0  0  0  0  0  0  0  0
   60.1200   34.2230   49.3600 Cl  0  0  0  0  0  0  0  0  0  0  0  0
   61.1430   32.3790   47.6140 C   0  0  0  0  0  0  0  0  0  0  0  0
   61.0990   31.1940   46.8700 C   0  0  0  0  0  0  0  0  0  0  0  0
   56.9015   19.5776   47.3712 H   0  0  0  0  0  0  0  0  0  0  0  0
   56.5105   18.6843   45.8626 H   0  0  0  0  0  0  0  0  0  0  0  0
   57.8146   19.9196   45.8626 H   0  0  0  0  0  0  0  0  0  0  0  0
   56.6089   21.7558   41.6012 H   0  0  0  0  0  0  0  0  0  0  0  0
   56.7391   24.1968   42.1044 H   0  0  0  0  0  0  0  0  0  0  0  0
   56.4737   24.9855   44.4582 H   0  0  0  0  0  0  0  0  0  0  0  0
   58.4718   25.7778   47.3657 H   0  0  0  0  0  0  0  0  0  0  0  0
   58.0530   25.1718   45.7130 H   0  0  0  0  0  0  0  0  0  0  0  0
   54.9808   28.7847   45.1674 H   0  0  0  0  0  0  0  0  0  0  0  0
   55.0921   30.4314   43.2974 H   0  0  0  0  0  0  0  0  0  0  0  0
   57.2836   31.4218   42.6285 H   0  0  0  0  0  0  0  0  0  0  0  0
   59.3721   30.7380   43.8035 H   0  0  0  0  0  0  0  0  0  0  0  0
   58.0092   30.0699   47.8173 H   0  0  0  0  0  0  0  0  0  0  0  0
   58.1014   32.1722   49.1618 H   0  0  0  0  0  0  0  0  0  0  0  0
   62.0293   33.0284   47.5605 H   0  0  0  0  0  0  0  0  0  0  0  0
   61.9533   30.9092   46.2383 H   0  0  0  0  0  0  0  0  0  0  0  0
  1  2  1  0
  2  3  1  0
  3  4  2  0
  4  5  1  0
  5  6  2  0
  6  7  1  0
  7  8  2  0
  8  9  1  0
  9 10  2  0
  9 11  1  0
 11 12  1  0
 12 13  1  0
 13 14  2  0
 13 15  1  0
 15 16  1  0
 16 17  2  0
 17 18  1  0
 18 19  2  0
 19 20  1  0
 20 21  2  0
 21 22  1  0
 22 23  1  0
 23 24  2  0
 24 25  1  0
 25 26  2  0
 26 27  1  0
 26 28  1  0
 28 29  2  0
  8  3  1  0
 21 16  1  0
 29 23  1  0
  1 30  1  0
  1 31  1  0
  1 32  1  0
  5 33  1  0
  6 34  1  0
  7 35  1  0
 12 36  1  0
 12 37  1  0
 17 38  1  0
 18 39  1  0
 19 40  1  0
 20 41  1  0
 24 42  1  0
 25 43  1  0
 28 44  1  0
 29 45  1  0
M  CHG  2  11  -1  15  -1
M  END
>  <UniqueID>  (83) 
76

>  <SMILES>  (83) 
COc1ncccc1C(=O)[N-]CC(=O)[N-]c1ccccc1Sc1ccc(Cl)cc1

>  <Energy>  (83) 
44.792572427522785

>  <Genealogy>  (83) 
COc1ncccc1C(=O)[N-]CC(=O)[N-]c1ccccc1Sc1ccc(Cl)cc1 (protonated)
COc1ncccc1C(=O)[N-]CC(=O)[N-]c1ccccc1Sc1ccc(Cl)cc1 (3D coordinates assigned)
COc1ncccc1C(=O)[N-]CC(=O)[N-]c1ccccc1Sc1ccc(Cl)cc1 (optimized conformer: 44.792572427522785 kcal/mol)

>  <smiles>  (83) 
COc1ncccc1C(=O)NCC(=O)Nc1ccccc1Sc1ccc(Cl)cc1

>  <score_type>  (83) 
oracle

>  <origin>  (83) 
adg

>  <m_score__min__energy>  (83) 
-12.119999999999999

>  <m_primary>  (83) 
energy

$$$$
83:0
     RDKit          3D

 52 55  0  0  0  0  0  0  0  0999 V2000
   57.1780   30.0080   43.2380 O   0  0  0  0  0  0  0  0  0  0  0  0
   56.6520   30.2610   44.3540 C   0  0  0  0  0  0  0  0  0  0  0  0
   56.3980   31.6330   44.6980 N   0  0  0  0  0  0  0  0  0  0  0  0
   57.2600   32.5680   44.9750 C   0  0  0  0  0  0  0  0  0  0  0  0
   57.9650   33.1940   44.0070 N   0  0  0  0  0  0  0  0  0  0  0  0
   58.8050   34.1330   44.5140 C   0  0  0  0  0  0  0  0  0  0  0  0
   58.7640   34.2640   45.8980 C   0  0  0  0  0  0  0  0  0  0  0  0
   59.6300   35.1640   46.7220 C   0  0  0  0  0  0  0  0  0  0  0  0
   60.7370   34.3710   47.3630 C   0  0  0  0  0  0  0  0  0  0  0  0
   60.7720   34.2010   48.7570 C   0  0  0  0  0  0  0  0  0  0  0  0
   61.8230   33.4970   49.3550 C   0  0  0  0  0  0  0  0  0  0  0  0
   62.8500   32.9680   48.5660 C   0  0  0  0  0  0  0  0  0  0  0  0
   64.1720   32.0930   49.3170 Cl  0  0  0  0  0  0  0  0  0  0  0  0
   62.8260   33.1460   47.1770 C   0  0  0  0  0  0  0  0  0  0  0  0
   61.7770   33.8470   46.5760 C   0  0  0  0  0  0  0  0  0  0  0  0
   57.6600   33.1530   46.5090 S   0  0  0  0  0  0  0  0  0  0  0  0
   56.2690   29.1870   45.2230 N   0  0  0  0  0  0  0  0  0  0  0  0
   57.0870   28.0630   45.5700 C   0  0  0  0  0  0  0  0  0  0  0  0
   58.4720   28.1860   45.4320 C   0  0  0  0  0  0  0  0  0  0  0  0
   59.3130   27.1270   45.7710 C   0  0  0  0  0  0  0  0  0  0  0  0
   58.7760   25.9300   46.2390 C   0  0  0  0  0  0  0  0  0  0  0  0
   57.3870   25.7670   46.3520 C   0  0  0  0  0  0  0  0  0  0  0  0
   56.7490   24.2370   46.9720 S   0  0  0  0  0  0  0  0  0  0  0  0
   57.6650   23.1220   46.5490 O   0  0  0  0  0  0  0  0  0  0  0  0
   56.6970   24.2710   48.4760 O   0  0  0  0  0  0  0  0  0  0  0  0
   55.1460   23.9610   46.3370 N   0  0  0  0  0  0  0  0  0  0  0  0
   54.6550   22.6390   46.7610 C   0  0  0  0  0  0  0  0  0  0  0  0
   53.3160   22.3110   46.0700 C   0  0  0  0  0  0  0  0  0  0  0  0
   52.8420   23.4060   45.3100 O   0  0  0  0  0  0  0  0  0  0  0  0
   53.7740   23.7170   44.2920 C   0  0  0  0  0  0  0  0  0  0  0  0
   55.1650   24.0500   44.8680 C   0  0  0  0  0  0  0  0  0  0  0  0
   56.5300   26.8340   45.9870 C   0  0  0  0  0  0  0  0  0  0  0  0
   55.1400   26.6910   45.9980 O   0  0  0  0  0  0  0  0  0  0  0  0
   59.4659   34.7421   43.8798 H   0  0  0  0  0  0  0  0  0  0  0  0
   60.0656   35.9409   46.0765 H   0  0  0  0  0  0  0  0  0  0  0  0
   59.0190   35.6306   47.5087 H   0  0  0  0  0  0  0  0  0  0  0  0
   59.9702   34.6229   49.3808 H   0  0  0  0  0  0  0  0  0  0  0  0
   61.8417   33.3594   50.4462 H   0  0  0  0  0  0  0  0  0  0  0  0
   63.6354   32.7327   46.5572 H   0  0  0  0  0  0  0  0  0  0  0  0
   61.7652   33.9889   45.4853 H   0  0  0  0  0  0  0  0  0  0  0  0
   58.9018   29.1250   45.0532 H   0  0  0  0  0  0  0  0  0  0  0  0
   60.4027   27.2369   45.6687 H   0  0  0  0  0  0  0  0  0  0  0  0
   59.4466   25.1054   46.5224 H   0  0  0  0  0  0  0  0  0  0  0  0
   55.3979   21.8738   46.4916 H   0  0  0  0  0  0  0  0  0  0  0  0
   54.4990   22.6507   47.8498 H   0  0  0  0  0  0  0  0  0  0  0  0
   53.4602   21.4486   45.4026 H   0  0  0  0  0  0  0  0  0  0  0  0
   52.5727   22.0842   46.8485 H   0  0  0  0  0  0  0  0  0  0  0  0
   53.8659   22.8527   43.6179 H   0  0  0  0  0  0  0  0  0  0  0  0
   53.4072   24.6030   43.7531 H   0  0  0  0  0  0  0  0  0  0  0  0
   55.9021   23.3365   44.4710 H   0  0  0  0  0  0  0  0  0  0  0  0
   55.4364   25.0752   44.5758 H   0  0  0  0  0  0  0  0  0  0  0  0
   54.6620   25.8840   46.3760 H   0  0  0  0  0  0  0  0  0  0  0  0
  1  2  2  0
  2  3  1  0
  3  4  2  3
  4  5  1  0
  5  6  1  0
  6  7  2  0
  7  8  1  0
  8  9  1  0
  9 10  2  0
 10 11  1  0
 11 12  2  0
 12 13  1  0
 12 14  1  0
 14 15  2  0
  7 16  1  0
  2 17  1  0
 17 18  1  0
 18 19  2  0
 19 20  1  0
 20 21  2  0
 21 22  1  0
 22 23  1  0
 23 24  2  0
 23 25  2  0
 23 26  1  0
 26 27  1  0
 27 28  1  0
 28 29  1  0
 29 30  1  0
 30 31  1  0
 22 32  2  0
 32 33  1  0
 16  4  1  0
 32 18  1  0
 15  9  1  0
 31 26  1  0
  6 34  1  0
  8 35  1  0
  8 36  1  0
 10 37  1  0
 11 38  1  0
 14 39  1  0
 15 40  1  0
 19 41  1  0
 20 42  1  0
 21 43  1  0
 27 44  1  0
 27 45  1  0
 28 46  1  0
 28 47  1  0
 30 48  1  0
 30 49  1  0
 31 50  1  0
 31 51  1  0
 33 52  1  0
M  CHG  2   5  -1  17  -1
M  END
>  <UniqueID>  (84) 
77

>  <SMILES>  (84) 
O=C(N=c1[n-]cc(Cc2ccc(Cl)cc2)s1)[N-]c1cccc(S(=O)(=O)N2CCOCC2)c1O

>  <Energy>  (84) 
101.32514885788292

>  <Genealogy>  (84) 
O=C(N=c1[n-]cc(Cc2ccc(Cl)cc2)s1)[N-]c1cccc(S(=O)(=O)N2CCOCC2)c1O (protonated)
O=C(N=c1[n-]cc(Cc2ccc(Cl)cc2)s1)[N-]c1cccc(S(=O)(=O)N2CCOCC2)c1O (3D coordinates assigned)
O=C(N=c1[n-]cc(Cc2ccc(Cl)cc2)s1)[N-]c1cccc(S(=O)(=O)N2CCOCC2)c1O (nonaromatic ring conformer: 101.32514885788292 kcal/mol)

>  <smiles>  (84) 
O=C(N=c1[nH]cc(Cc2ccc(Cl)cc2)s1)Nc1cccc(S(=O)(=O)N2CCOCC2)c1O

>  <score_type>  (84) 
oracle

>  <origin>  (84) 
adg

>  <m_score__min__energy>  (84) 
-15.58

>  <m_primary>  (84) 
energy

$$$$
84:0
     RDKit          3D

 55 56  0  0  0  0  0  0  0  0999 V2000
   56.4990   30.2370   43.6250 C   0  0  0  0  0  0  0  0  0  0  0  0
   57.0160   30.8150   44.8760 N   0  0  0  0  0  0  0  0  0  0  0  0
   57.8260   29.8200   45.6000 C   0  0  0  0  0  0  0  0  0  0  0  0
   57.7910   32.0480   44.6110 C   0  0  0  0  0  0  0  0  0  0  0  0
   57.0750   33.2660   45.2090 C   0  0  0  0  0  0  0  0  0  0  0  0
   57.7540   33.7380   46.5050 C   0  0  0  0  0  0  0  0  0  0  0  0
   59.1390   34.3350   46.2230 C   0  0  0  0  0  0  0  0  0  0  0  0
   60.1570   33.2890   46.0610 N   0  0  0  0  0  0  0  0  0  0  0  0
   61.0090   32.9460   47.5470 S   0  0  0  0  0  0  0  0  0  0  0  0
   61.4020   34.2410   48.2050 O   0  0  0  0  0  0  0  0  0  0  0  0
   62.2660   32.1830   47.2220 O   0  0  0  0  0  0  0  0  0  0  0  0
   60.0320   31.9840   48.6540 C   0  0  0  0  0  0  0  0  0  0  0  0
   60.3460   30.6380   48.8850 C   0  0  0  0  0  0  0  0  0  0  0  0
   59.6610   29.9180   49.8660 C   0  0  0  0  0  0  0  0  0  0  0  0
   58.6600   30.5360   50.6280 C   0  0  0  0  0  0  0  0  0  0  0  0
   58.0040   29.8330   51.6890 N   0  0  0  0  0  0  0  0  0  0  0  0
   56.6950   30.1650   52.1670 C   0  0  0  0  0  0  0  0  0  0  0  0
   56.4130   31.3760   52.3760 O   0  0  0  0  0  0  0  0  0  0  0  0
   55.7270   29.1270   52.4150 N   0  0  0  0  0  0  0  0  0  0  0  0
   54.3280   29.3510   52.6500 C   0  0  0  0  0  0  0  0  0  0  0  0
   53.6050   28.6050   53.5980 C   0  0  0  0  0  0  0  0  0  0  0  0
   52.2380   28.8330   53.7780 C   0  0  0  0  0  0  0  0  0  0  0  0
   51.5780   29.7920   53.0060 C   0  0  0  0  0  0  0  0  0  0  0  0
   52.2810   30.5270   52.0450 C   0  0  0  0  0  0  0  0  0  0  0  0
   51.4560   31.7210   51.0480 S   0  0  0  0  0  0  0  0  0  0  0  0
   50.2690   32.5470   51.9960 N   0  0  0  0  0  0  0  0  0  0  0  0
   52.4460   32.7180   50.5130 O   0  0  0  0  0  0  0  0  0  0  0  0
   50.7910   31.0360   49.8870 O   0  0  0  0  0  0  0  0  0  0  0  0
   53.6500   30.2950   51.8620 C   0  0  0  0  0  0  0  0  0  0  0  0
   58.3010   31.8610   50.3520 C   0  0  0  0  0  0  0  0  0  0  0  0
   58.9940   32.5870   49.3780 C   0  0  0  0  0  0  0  0  0  0  0  0
   55.7826   29.4360   43.8598 H   0  0  0  0  0  0  0  0  0  0  0  0
   55.9946   31.0203   43.0401 H   0  0  0  0  0  0  0  0  0  0  0  0
   57.3335   29.8227   43.0401 H   0  0  0  0  0  0  0  0  0  0  0  0
   57.7058   29.9676   46.6834 H   0  0  0  0  0  0  0  0  0  0  0  0
   57.4920   28.8077   45.3286 H   0  0  0  0  0  0  0  0  0  0  0  0
   58.8850   29.9417   45.3286 H   0  0  0  0  0  0  0  0  0  0  0  0
   58.7884   31.9543   45.0652 H   0  0  0  0  0  0  0  0  0  0  0  0
   57.8835   32.1856   43.5236 H   0  0  0  0  0  0  0  0  0  0  0  0
   57.0931   34.0865   44.4766 H   0  0  0  0  0  0  0  0  0  0  0  0
   56.0408   32.9763   45.4467 H   0  0  0  0  0  0  0  0  0  0  0  0
   57.1240   34.5036   46.9813 H   0  0  0  0  0  0  0  0  0  0  0  0
   57.8788   32.8692   47.1680 H   0  0  0  0  0  0  0  0  0  0  0  0
   59.0894   34.9307   45.2996 H   0  0  0  0  0  0  0  0  0  0  0  0
   59.4240   34.9619   47.0808 H   0  0  0  0  0  0  0  0  0  0  0  0
   61.1330   30.1480   48.2929 H   0  0  0  0  0  0  0  0  0  0  0  0
   59.9082   28.8606   50.0416 H   0  0  0  0  0  0  0  0  0  0  0  0
   56.0300   28.1400   52.2710 H   0  0  0  0  0  0  0  0  0  0  0  0
   54.1171   27.8397   54.1997 H   0  0  0  0  0  0  0  0  0  0  0  0
   51.6801   28.2555   54.5299 H   0  0  0  0  0  0  0  0  0  0  0  0
   50.5026   29.9699   53.1540 H   0  0  0  0  0  0  0  0  0  0  0  0
   50.5260   33.5560   51.9890 H   0  0  0  0  0  0  0  0  0  0  0  0
   54.1996   30.8579   51.0932 H   0  0  0  0  0  0  0  0  0  0  0  0
   57.4727   32.3316   50.9020 H   0  0  0  0  0  0  0  0  0  0  0  0
   58.7237   33.6346   49.1794 H   0  0  0  0  0  0  0  0  0  0  0  0
  1  2  1  0
  2  3  1  0
  2  4  1  0
  4  5  1  0
  5  6  1  0
  6  7  1  0
  7  8  1  0
  8  9  1  0
  9 10  2  0
  9 11  2  0
  9 12  1  0
 12 13  2  0
 13 14  1  0
 14 15  2  0
 15 16  1  0
 16 17  1  0
 17 18  2  0
 17 19  1  0
 19 20  1  0
 20 21  2  0
 21 22  1  0
 22 23  2  0
 23 24  1  0
 24 25  1  0
 25 26  1  0
 25 27  2  0
 25 28  2  0
 24 29  2  0
 15 30  1  0
 30 31  2  0
 31 12  1  0
 29 20  1  0
  1 32  1  0
  1 33  1  0
  1 34  1  0
  3 35  1  0
  3 36  1  0
  3 37  1  0
  4 38  1  0
  4 39  1  0
  5 40  1  0
  5 41  1  0
  6 42  1  0
  6 43  1  0
  7 44  1  0
  7 45  1  0
 13 46  1  0
 14 47  1  0
 19 48  1  0
 21 49  1  0
 22 50  1  0
 23 51  1  0
 26 52  1  0
 29 53  1  0
 30 54  1  0
 31 55  1  0
M  CHG  3   8  -1  16  -1  26  -1
M  END
>  <UniqueID>  (85) 
78

>  <SMILES>  (85) 
CN(C)CCCC[N-]S(=O)(=O)c1ccc([N-]C(=O)Nc2cccc(S([NH-])(=O)=O)c2)cc1

>  <Energy>  (85) 
56.875179722310975

>  <Genealogy>  (85) 
CN(C)CCCC[N-]S(=O)(=O)c1ccc([N-]C(=O)Nc2cccc(S([NH-])(=O)=O)c2)cc1 (protonated)
CN(C)CCCC[N-]S(=O)(=O)c1ccc([N-]C(=O)Nc2cccc(S([NH-])(=O)=O)c2)cc1 (3D coordinates assigned)
CN(C)CCCC[N-]S(=O)(=O)c1ccc([N-]C(=O)Nc2cccc(S([NH-])(=O)=O)c2)cc1 (optimized conformer: 56.875179722310975 kcal/mol)

>  <smiles>  (85) 
CN(C)CCCCNS(=O)(=O)c1ccc(NC(=O)Nc2cccc(S(N)(=O)=O)c2)cc1

>  <score_type>  (85) 
oracle

>  <origin>  (85) 
adg

>  <m_score__min__energy>  (85) 
-13.57

>  <m_primary>  (85) 
energy

$$$$
85:0
     RDKit          3D

 70 74  0  0  0  0  0  0  0  0999 V2000
   63.8480   34.9000   51.1860 O   0  0  0  0  0  0  0  0  0  0  0  0
   63.5700   33.6930   50.9520 C   0  0  0  0  0  0  0  0  0  0  0  0
   64.1610   33.0540   49.8130 N   0  0  0  0  0  0  0  0  0  0  0  0
   63.2590   32.1650   48.6270 S   0  0  0  0  0  0  0  0  0  0  0  0
   62.8300   30.8600   49.2370 O   0  0  0  0  0  0  0  0  0  0  0  0
   64.0990   31.8660   47.4190 O   0  0  0  0  0  0  0  0  0  0  0  0
   61.8300   33.0850   48.1650 C   0  0  0  0  0  0  0  0  0  0  0  0
   60.7740   33.2560   49.0750 C   0  0  0  0  0  0  0  0  0  0  0  0
   59.6610   34.0270   48.7230 C   0  0  0  0  0  0  0  0  0  0  0  0
   59.5990   34.6370   47.4610 C   0  0  0  0  0  0  0  0  0  0  0  0
   58.5210   35.3910   47.1260 F   0  0  0  0  0  0  0  0  0  0  0  0
   60.6480   34.4680   46.5490 C   0  0  0  0  0  0  0  0  0  0  0  0
   61.7570   33.6880   46.8970 C   0  0  0  0  0  0  0  0  0  0  0  0
   62.6060   32.9940   51.8240 C   0  0  0  0  0  0  0  0  0  0  0  0
   61.7960   33.7130   52.7080 C   0  0  0  0  0  0  0  0  0  0  0  0
   60.8590   33.0430   53.4910 C   0  0  0  0  0  0  0  0  0  0  0  0
   60.7190   31.6560   53.3720 C   0  0  0  0  0  0  0  0  0  0  0  0
   59.8550   31.0660   54.0790 O   0  0  0  0  0  0  0  0  0  0  0  0
   61.5050   30.9530   52.4940 N   0  0  0  0  0  0  0  0  0  0  0  0
   61.3240   29.5050   52.3090 C   0  0  0  0  0  0  0  0  0  0  0  0
   60.6540   29.2280   50.9900 C   0  0  0  0  0  0  0  0  0  0  0  0
   59.6320   30.0670   50.5180 C   0  0  0  0  0  0  0  0  0  0  0  0
   59.0450   29.8310   49.2710 C   0  0  0  0  0  0  0  0  0  0  0  0
   59.4890   28.7730   48.4640 C   0  0  0  0  0  0  0  0  0  0  0  0
   58.8660   28.5430   47.1900 N   0  0  0  0  0  0  0  0  0  0  0  0
   58.0030   27.4250   46.9240 C   0  0  0  0  0  0  0  0  0  0  0  0
   58.0230   26.4150   47.6810 O   0  0  0  0  0  0  0  0  0  0  0  0
   57.1220   27.3970   45.6990 C   0  0  2  0  0  0  0  0  0  0  0  0
   56.8300   25.9700   45.2460 C   0  0  0  0  0  0  0  0  0  0  0  0
   57.7750   25.7130   44.0960 C   0  0  0  0  0  0  0  0  0  0  0  0
   58.2070   27.0870   43.6040 C   0  0  0  0  0  0  0  0  0  0  0  0
   57.7850   28.1000   44.5870 N   0  0  0  0  0  0  0  0  0  0  0  0
   56.7240   29.2880   43.8570 S   0  0  0  0  0  0  0  0  0  0  0  0
   55.3710   29.2130   44.5080 O   0  0  0  0  0  0  0  0  0  0  0  0
   56.5550   28.9700   42.3980 O   0  0  0  0  0  0  0  0  0  0  0  0
   57.3660   30.9270   44.0270 C   0  0  0  0  0  0  0  0  0  0  0  0
   57.7760   31.6480   42.8940 C   0  0  0  0  0  0  0  0  0  0  0  0
   58.2960   32.9380   43.0290 C   0  0  0  0  0  0  0  0  0  0  0  0
   58.3990   33.5210   44.2950 C   0  0  0  0  0  0  0  0  0  0  0  0
   57.9800   32.8160   45.4250 C   0  0  0  0  0  0  0  0  0  0  0  0
   57.4650   31.5220   45.2930 C   0  0  0  0  0  0  0  0  0  0  0  0
   60.5010   27.9240   48.9440 C   0  0  0  0  0  0  0  0  0  0  0  0
   61.0810   28.1540   50.1940 C   0  0  0  0  0  0  0  0  0  0  0  0
   62.4300   31.6070   51.7230 C   0  0  0  0  0  0  0  0  0  0  0  0
   60.8222   32.7826   50.0668 H   0  0  0  0  0  0  0  0  0  0  0  0
   58.8336   34.1551   49.4364 H   0  0  0  0  0  0  0  0  0  0  0  0
   60.6006   34.9476   45.5602 H   0  0  0  0  0  0  0  0  0  0  0  0
   62.5749   33.5462   46.1753 H   0  0  0  0  0  0  0  0  0  0  0  0
   61.8985   34.8055   52.7850 H   0  0  0  0  0  0  0  0  0  0  0  0
   60.2313   33.6023   54.2004 H   0  0  0  0  0  0  0  0  0  0  0  0
   62.3066   29.0109   52.3280 H   0  0  0  0  0  0  0  0  0  0  0  0
   60.6917   29.1162   53.1208 H   0  0  0  0  0  0  0  0  0  0  0  0
   59.2915   30.9138   51.1320 H   0  0  0  0  0  0  0  0  0  0  0  0
   58.2289   30.4799   48.9202 H   0  0  0  0  0  0  0  0  0  0  0  0
   59.1380   29.1620   46.3940 H   0  0  0  0  0  0  0  0  0  0  0  0
   56.1766   27.8905   45.9685 H   0  0  0  0  0  0  0  0  0  0  0  0
   57.0183   25.2601   46.0649 H   0  0  0  0  0  0  0  0  0  0  0  0
   55.7788   25.8424   44.9481 H   0  0  0  0  0  0  0  0  0  0  0  0
   58.6471   25.1361   44.4376 H   0  0  0  0  0  0  0  0  0  0  0  0
   57.2942   25.1283   43.2979 H   0  0  0  0  0  0  0  0  0  0  0  0
   59.3012   27.1126   43.4938 H   0  0  0  0  0  0  0  0  0  0  0  0
   57.7424   27.2970   42.6293 H   0  0  0  0  0  0  0  0  0  0  0  0
   57.6874   31.1952   41.8954 H   0  0  0  0  0  0  0  0  0  0  0  0
   58.6243   33.4946   42.1388 H   0  0  0  0  0  0  0  0  0  0  0  0
   58.8103   34.5357   44.4012 H   0  0  0  0  0  0  0  0  0  0  0  0
   58.0549   33.2786   46.4202 H   0  0  0  0  0  0  0  0  0  0  0  0
   57.1365   30.9692   46.1855 H   0  0  0  0  0  0  0  0  0  0  0  0
   60.8381   27.0741   48.3324 H   0  0  0  0  0  0  0  0  0  0  0  0
   61.8781   27.4885   50.5569 H   0  0  0  0  0  0  0  0  0  0  0  0
   63.0446   31.0341   51.0131 H   0  0  0  0  0  0  0  0  0  0  0  0
  1  2  2  0
  2  3  1  0
  3  4  1  0
  4  5  2  0
  4  6  2  0
  4  7  1  0
  7  8  2  0
  8  9  1  0
  9 10  2  0
 10 11  1  0
 10 12  1  0
 12 13  2  0
  2 14  1  0
 14 15  1  0
 15 16  2  0
 16 17  1  0
 17 18  2  0
 17 19  1  0
 19 20  1  0
 20 21  1  0
 21 22  2  0
 22 23  1  0
 23 24  2  0
 24 25  1  0
 25 26  1  0
 26 27  2  0
 26 28  1  0
 28 29  1  0
 29 30  1  0
 30 31  1  0
 31 32  1  0
 32 33  1  0
 33 34  2  0
 33 35  2  0
 33 36  1  0
 36 37  2  0
 37 38  1  0
 38 39  2  0
 39 40  1  0
 40 41  2  0
 24 42  1  0
 42 43  2  0
 19 44  1  0
 13  7  1  0
 44 14  2  0
 43 21  1  0
 32 28  1  0
 41 36  1  0
  8 45  1  0
  9 46  1  0
 12 47  1  0
 13 48  1  0
 15 49  1  0
 16 50  1  0
 20 51  1  0
 20 52  1  0
 22 53  1  0
 23 54  1  0
 25 55  1  0
 28 56  1  1
 29 57  1  0
 29 58  1  0
 30 59  1  0
 30 60  1  0
 31 61  1  0
 31 62  1  0
 37 63  1  0
 38 64  1  0
 39 65  1  0
 40 66  1  0
 41 67  1  0
 42 68  1  0
 43 69  1  0
 44 70  1  0
M  CHG  1   3  -1
M  END
>  <UniqueID>  (86) 
79

>  <SMILES>  (86) 
O=C([N-]S(=O)(=O)c1ccc(F)cc1)c1ccc(=O)n(Cc2ccc(NC(=O)[C@@H]3CCCN3S(=O)(=O)c3ccccc3)cc2)c1

>  <Energy>  (86) 
90.71233971254408

>  <Genealogy>  (86) 
O=C([N-]S(=O)(=O)c1ccc(F)cc1)c1ccc(=O)n(Cc2ccc(NC(=O)C3CCCN3S(=O)(=O)c3ccccc3)cc2)c1 (protonated)
O=C([N-]S(=O)(=O)c1ccc(F)cc1)c1ccc(=O)n(Cc2ccc(NC(=O)[C@@H]3CCCN3S(=O)(=O)c3ccccc3)cc2)c1 (chirality)
O=C([N-]S(=O)(=O)c1ccc(F)cc1)c1ccc(=O)n(Cc2ccc(NC(=O)[C@@H]3CCCN3S(=O)(=O)c3ccccc3)cc2)c1 (3D coordinates assigned)
O=C([N-]S(=O)(=O)c1ccc(F)cc1)c1ccc(=O)n(Cc2ccc(NC(=O)[C@@H]3CCCN3S(=O)(=O)c3ccccc3)cc2)c1 (nonaromatic ring conformer: 90.71233971254408 kcal/mol)

>  <smiles>  (86) 
O=C(NS(=O)(=O)c1ccc(F)cc1)c1ccc(=O)n(Cc2ccc(NC(=O)C3CCCN3S(=O)(=O)c3ccccc3)cc2)c1

>  <score_type>  (86) 
oracle

>  <origin>  (86) 
adg

>  <m_score__min__energy>  (86) 
-12.119999999999999

>  <m_primary>  (86) 
energy

$$$$
86:0
     RDKit          3D

 41 43  0  0  0  0  0  0  0  0999 V2000
   58.6750   28.4190   47.3320 C   0  0  0  0  0  0  0  0  0  0  0  0
   58.1420   28.8370   46.1710 C   0  0  0  0  0  0  0  0  0  0  0  0
   57.7590   28.0240   45.0950 C   0  0  0  0  0  0  0  0  0  0  0  0
   57.8550   26.6780   45.0210 C   0  0  0  0  0  0  0  0  0  0  0  0
   57.2210   25.7170   45.9510 C   0  0  0  0  0  0  0  0  0  0  0  0
   57.8070   24.6310   46.4880 N   0  0  0  0  0  0  0  0  0  0  0  0
   56.8190   24.0640   47.2140 C   0  0  0  0  0  0  0  0  0  0  0  0
   56.9870   23.0090   47.8780 O   0  0  0  0  0  0  0  0  0  0  0  0
   55.6360   24.7140   47.1650 N   0  0  0  0  0  0  0  0  0  0  0  0
   55.9080   25.7530   46.3590 C   0  0  0  0  0  0  0  0  0  0  0  0
   54.9720   26.7150   46.0020 O   0  0  0  0  0  0  0  0  0  0  0  0
   57.2930   28.8850   44.1100 C   0  0  0  0  0  0  0  0  0  0  0  0
   57.4070   30.1650   44.6120 C   0  0  0  0  0  0  0  0  0  0  0  0
   57.0210   31.4070   43.8670 C   0  0  0  0  0  0  0  0  0  0  0  0
   57.9020   30.1400   45.8710 N   0  0  0  0  0  0  0  0  0  0  0  0
   58.2000   31.3200   46.6980 C   0  0  0  0  0  0  0  0  0  0  0  0
   59.3720   32.1010   46.1040 C   0  0  0  0  0  0  0  0  0  0  0  0
   58.9440   33.4560   45.7490 N   0  0  0  0  0  0  0  0  0  0  0  0
   59.7640   34.6100   46.7560 S   0  0  0  0  0  0  0  0  0  0  0  0
   60.0180   35.8640   45.9680 O   0  0  0  0  0  0  0  0  0  0  0  0
   58.9060   34.9540   47.9420 O   0  0  0  0  0  0  0  0  0  0  0  0
   61.2990   33.9630   47.3090 C   0  0  0  0  0  0  0  0  0  0  0  0
   61.5430   33.4080   48.5560 C   0  0  0  0  0  0  0  0  0  0  0  0
   62.8520   32.9330   48.6930 C   0  0  0  0  0  0  0  0  0  0  0  0
   63.6310   33.1100   47.5560 C   0  0  0  0  0  0  0  0  0  0  0  0
   62.6910   33.8550   46.3770 S   0  0  0  0  0  0  0  0  0  0  0  0
   58.9390   29.1497   48.1107 H   0  0  0  0  0  0  0  0  0  0  0  0
   58.8472   27.3462   47.5035 H   0  0  0  0  0  0  0  0  0  0  0  0
   58.4557   26.2610   44.1993 H   0  0  0  0  0  0  0  0  0  0  0  0
   56.9071   28.6010   43.1198 H   0  0  0  0  0  0  0  0  0  0  0  0
   56.7736   32.2031   44.5847 H   0  0  0  0  0  0  0  0  0  0  0  0
   57.8607   31.7313   43.2348 H   0  0  0  0  0  0  0  0  0  0  0  0
   56.1454   31.1981   43.2348 H   0  0  0  0  0  0  0  0  0  0  0  0
   57.3132   31.9696   46.7365 H   0  0  0  0  0  0  0  0  0  0  0  0
   58.4680   30.9882   47.7120 H   0  0  0  0  0  0  0  0  0  0  0  0
   60.1840   32.1578   46.8439 H   0  0  0  0  0  0  0  0  0  0  0  0
   59.7266   31.5861   45.1989 H   0  0  0  0  0  0  0  0  0  0  0  0
   59.2470   33.6470   44.7660 H   0  0  0  0  0  0  0  0  0  0  0  0
   60.7875   33.3475   49.3532 H   0  0  0  0  0  0  0  0  0  0  0  0
   63.2288   32.4638   49.6138 H   0  0  0  0  0  0  0  0  0  0  0  0
   64.6844   32.8131   47.4457 H   0  0  0  0  0  0  0  0  0  0  0  0
  1  2  2  0
  2  3  1  0
  3  4  2  3
  4  5  1  0
  5  6  1  0
  6  7  1  0
  7  8  2  0
  7  9  1  0
  9 10  1  0
 10 11  1  0
  3 12  1  0
 12 13  2  0
 13 14  1  0
 13 15  1  0
 15 16  1  0
 16 17  1  0
 17 18  1  0
 18 19  1  0
 19 20  2  0
 19 21  2  0
 19 22  1  0
 22 23  2  0
 23 24  1  0
 24 25  2  0
 25 26  1  0
 15  2  1  0
 26 22  1  0
 10  5  2  0
  1 27  1  0
  1 28  1  0
  4 29  1  0
 12 30  1  0
 14 31  1  0
 14 32  1  0
 14 33  1  0
 16 34  1  0
 16 35  1  0
 17 36  1  0
 17 37  1  0
 18 38  1  0
 23 39  1  0
 24 40  1  0
 25 41  1  0
M  CHG  3   6  -1   9  -1  11  -1
M  END
>  <UniqueID>  (87) 
80

>  <SMILES>  (87) 
C=c1c(=Cc2[n-]c(=O)[n-]c2[O-])cc(C)n1CCNS(=O)(=O)c1cccs1

>  <Energy>  (87) 
125.38015801110002

>  <Genealogy>  (87) 
C=c1c(=Cc2[n-]c(=O)[n-]c2[O-])cc(C)n1CCNS(=O)(=O)c1cccs1 (protonated)
C=c1c(=Cc2[n-]c(=O)[n-]c2[O-])cc(C)n1CCNS(=O)(=O)c1cccs1 (3D coordinates assigned)
C=c1c(=Cc2[n-]c(=O)[n-]c2[O-])cc(C)n1CCNS(=O)(=O)c1cccs1 (optimized conformer: 125.38015801110002 kcal/mol)

>  <smiles>  (87) 
C=c1c(=Cc2[nH]c(=O)[nH]c2O)cc(C)n1CCNS(=O)(=O)c1cccs1

>  <score_type>  (87) 
oracle

>  <origin>  (87) 
adg

>  <m_score__min__energy>  (87) 
-16.379999999999999

>  <m_primary>  (87) 
energy

$$$$
87:0
     RDKit          3D

 54 57  0  0  0  0  0  0  0  0999 V2000
   62.3110   33.7100   51.6690 C   0  0  0  0  0  0  0  0  0  0  0  0
   62.0010   34.2860   50.4040 O   0  0  0  0  0  0  0  0  0  0  0  0
   61.4410   33.5830   49.3240 C   0  0  0  0  0  0  0  0  0  0  0  0
   60.1680   33.8910   48.8130 C   0  0  0  0  0  0  0  0  0  0  0  0
   59.6290   33.1670   47.7400 C   0  0  0  0  0  0  0  0  0  0  0  0
   60.3650   32.0950   47.1870 C   0  0  0  0  0  0  0  0  0  0  0  0
   61.6430   31.8060   47.6820 C   0  0  0  0  0  0  0  0  0  0  0  0
   62.1830   32.5400   48.7550 C   0  0  0  0  0  0  0  0  0  0  0  0
   63.4500   32.2560   49.2890 O   0  0  0  0  0  0  0  0  0  0  0  0
   64.6050   33.0690   49.1050 C   0  0  0  0  0  0  0  0  0  0  0  0
   59.8310   31.2900   46.0260 C   0  0  0  0  0  0  0  0  0  0  0  0
   58.4000   31.5330   45.8330 N   0  0  0  0  0  0  0  0  0  0  0  0
   57.5470   30.4940   45.3310 C   0  0  0  0  0  0  0  0  0  0  0  0
   56.6140   30.7950   44.5370 O   0  0  0  0  0  0  0  0  0  0  0  0
   57.7270   29.0850   45.7610 C   0  0  0  0  0  0  0  0  0  0  0  0
   58.1510   28.7840   47.0680 C   0  0  0  0  0  0  0  0  0  0  0  0
   58.2970   27.4570   47.4790 C   0  0  0  0  0  0  0  0  0  0  0  0
   58.0050   26.4040   46.5990 C   0  0  0  0  0  0  0  0  0  0  0  0
   58.1480   24.9730   47.0520 C   0  0  0  0  0  0  0  0  0  0  0  0
   57.6330   24.0460   46.0240 N   0  0  0  0  0  0  0  0  0  0  0  0
   56.2890   24.0190   45.7410 C   0  0  0  0  0  0  0  0  0  0  0  0
   55.4890   24.7890   46.3400 O   0  0  0  0  0  0  0  0  0  0  0  0
   55.7860   23.1350   44.7850 C   0  0  0  0  0  0  0  0  0  0  0  0
   56.6710   22.2820   44.1280 C   0  0  0  0  0  0  0  0  0  0  0  0
   56.2150   21.3840   43.1650 O   0  0  0  0  0  0  0  0  0  0  0  0
   57.9910   22.3280   44.4300 N   0  0  0  0  0  0  0  0  0  0  0  0
   58.4790   23.1880   45.3620 C   0  0  0  0  0  0  0  0  0  0  0  0
   59.7170   23.1830   45.6040 O   0  0  0  0  0  0  0  0  0  0  0  0
   57.5770   26.7010   45.2960 C   0  0  0  0  0  0  0  0  0  0  0  0
   57.4370   28.0290   44.8810 C   0  0  0  0  0  0  0  0  0  0  0  0
   57.9230   32.9110   45.8970 C   0  0  0  0  0  0  0  0  0  0  0  0
   58.2220   33.4770   47.2840 C   0  0  0  0  0  0  0  0  0  0  0  0
   61.9542   34.3729   52.4711 H   0  0  0  0  0  0  0  0  0  0  0  0
   61.8182   32.7304   51.7565 H   0  0  0  0  0  0  0  0  0  0  0  0
   63.4000   33.5817   51.7565 H   0  0  0  0  0  0  0  0  0  0  0  0
   59.5872   34.7108   49.2609 H   0  0  0  0  0  0  0  0  0  0  0  0
   62.2317   30.9959   47.2269 H   0  0  0  0  0  0  0  0  0  0  0  0
   65.0119   33.3554   50.0860 H   0  0  0  0  0  0  0  0  0  0  0  0
   65.3645   32.5053   48.5434 H   0  0  0  0  0  0  0  0  0  0  0  0
   64.3306   33.9742   48.5434 H   0  0  0  0  0  0  0  0  0  0  0  0
   60.3710   31.5760   45.1114 H   0  0  0  0  0  0  0  0  0  0  0  0
   59.9789   30.2218   46.2428 H   0  0  0  0  0  0  0  0  0  0  0  0
   58.3694   29.6003   47.7722 H   0  0  0  0  0  0  0  0  0  0  0  0
   58.6432   27.2361   48.4995 H   0  0  0  0  0  0  0  0  0  0  0  0
   59.2110   24.7563   47.2336 H   0  0  0  0  0  0  0  0  0  0  0  0
   57.5670   24.8348   47.9758 H   0  0  0  0  0  0  0  0  0  0  0  0
   54.7107   23.1120   44.5544 H   0  0  0  0  0  0  0  0  0  0  0  0
   56.6840   20.5010   43.0000 H   0  0  0  0  0  0  0  0  0  0  0  0
   57.3500   25.8833   44.5961 H   0  0  0  0  0  0  0  0  0  0  0  0
   57.0973   28.2484   43.8580 H   0  0  0  0  0  0  0  0  0  0  0  0
   58.4361   33.5147   45.1339 H   0  0  0  0  0  0  0  0  0  0  0  0
   56.8393   32.9381   45.7103 H   0  0  0  0  0  0  0  0  0  0  0  0
   58.0920   34.5689   47.2558 H   0  0  0  0  0  0  0  0  0  0  0  0
   57.5270   33.0074   47.9956 H   0  0  0  0  0  0  0  0  0  0  0  0
  1  2  1  0
  2  3  1  0
  3  4  2  0
  4  5  1  0
  5  6  2  0
  6  7  1  0
  7  8  2  0
  8  9  1  0
  9 10  1  0
  6 11  1  0
 11 12  1  0
 12 13  1  0
 13 14  2  0
 13 15  1  0
 15 16  2  0
 16 17  1  0
 17 18  2  0
 18 19  1  0
 19 20  1  0
 20 21  1  0
 21 22  2  0
 21 23  1  0
 23 24  2  0
 24 25  1  0
 24 26  1  0
 26 27  1  0
 27 28  2  0
 18 29  1  0
 29 30  2  0
 12 31  1  0
 31 32  1  0
  8  3  1  0
 30 15  1  0
 32  5  1  0
 27 20  1  0
  1 33  1  0
  1 34  1  0
  1 35  1  0
  4 36  1  0
  7 37  1  0
 10 38  1  0
 10 39  1  0
 10 40  1  0
 11 41  1  0
 11 42  1  0
 16 43  1  0
 17 44  1  0
 19 45  1  0
 19 46  1  0
 23 47  1  0
 25 48  1  0
 29 49  1  0
 30 50  1  0
 31 51  1  0
 31 52  1  0
 32 53  1  0
 32 54  1  0
M  CHG  1  26  -1
M  END
>  <UniqueID>  (88) 
81

>  <SMILES>  (88) 
COc1cc2c(cc1OC)CN(C(=O)c1ccc(Cn3c(=O)cc(O)[n-]c3=O)cc1)CC2

>  <Energy>  (88) 
67.46481080201269

>  <Genealogy>  (88) 
COc1cc2c(cc1OC)CN(C(=O)c1ccc(Cn3c(=O)cc(O)[n-]c3=O)cc1)CC2 (protonated)
COc1cc2c(cc1OC)CN(C(=O)c1ccc(Cn3c(=O)cc(O)[n-]c3=O)cc1)CC2 (3D coordinates assigned)
COc1cc2c(cc1OC)CN(C(=O)c1ccc(Cn3c(=O)cc(O)[n-]c3=O)cc1)CC2 (nonaromatic ring conformer: 67.46481080201269 kcal/mol)

>  <smiles>  (88) 
COc1cc2c(cc1OC)CN(C(=O)c1ccc(Cn3c(=O)cc(O)[nH]c3=O)cc1)CC2

>  <score_type>  (88) 
oracle

>  <origin>  (88) 
adg

>  <m_score__min__energy>  (88) 
-10.34

>  <m_primary>  (88) 
energy

$$$$
88:0
     RDKit          3D

 44 47  0  0  0  0  0  0  0  0999 V2000
   59.9940   29.3410   47.2130 C   0  0  0  0  0  0  0  0  0  0  0  0
   59.2650   29.7680   46.1700 C   0  0  0  0  0  0  0  0  0  0  0  0
   58.6520   28.9760   45.1850 C   0  0  0  0  0  0  0  0  0  0  0  0
   58.4500   27.6460   45.1180 C   0  0  0  0  0  0  0  0  0  0  0  0
   57.2740   26.9290   45.6330 C   0  0  0  0  0  0  0  0  0  0  0  0
   57.3030   25.6480   46.0410 N   0  0  0  0  0  0  0  0  0  0  0  0
   56.0060   25.3740   46.3020 C   0  0  0  0  0  0  0  0  0  0  0  0
   55.6230   24.2540   46.7290 O   0  0  0  0  0  0  0  0  0  0  0  0
   55.1510   26.3890   46.0570 N   0  0  0  0  0  0  0  0  0  0  0  0
   55.9660   27.3620   45.6210 C   0  0  0  0  0  0  0  0  0  0  0  0
   55.5230   28.6070   45.1920 O   0  0  0  0  0  0  0  0  0  0  0  0
   58.2310   29.8480   44.1940 C   0  0  0  0  0  0  0  0  0  0  0  0
   58.5290   31.1220   44.6280 C   0  0  0  0  0  0  0  0  0  0  0  0
   58.2220   32.3750   43.8630 C   0  0  0  0  0  0  0  0  0  0  0  0
   59.1570   31.0760   45.8250 N   0  0  0  0  0  0  0  0  0  0  0  0
   59.6370   32.2130   46.5660 C   0  0  0  0  0  0  0  0  0  0  0  0
   58.7370   33.1580   47.0770 C   0  0  0  0  0  0  0  0  0  0  0  0
   59.2080   34.2600   47.7940 C   0  0  0  0  0  0  0  0  0  0  0  0
   60.5790   34.4210   48.0140 C   0  0  0  0  0  0  0  0  0  0  0  0
   61.4940   33.4740   47.5240 C   0  0  0  0  0  0  0  0  0  0  0  0
   62.9470   33.6310   47.7450 C   0  0  0  0  0  0  0  0  0  0  0  0
   63.6450   34.2190   46.8770 O   0  0  0  0  0  0  0  0  0  0  0  0
   63.5930   33.0890   48.9000 N   0  0  0  0  0  0  0  0  0  0  0  0
   63.2910   32.1880   50.0290 C   0  0  0  0  0  0  0  0  0  0  0  0
   64.6890   32.1010   50.5420 C   0  0  0  0  0  0  0  0  0  0  0  0
   64.9780   33.0170   49.4000 C   0  0  0  0  0  0  0  0  0  0  0  0
   61.0130   32.3770   46.7880 C   0  0  0  0  0  0  0  0  0  0  0  0
   60.4230   30.0678   47.9185 H   0  0  0  0  0  0  0  0  0  0  0  0
   60.1624   28.2643   47.3623 H   0  0  0  0  0  0  0  0  0  0  0  0
   59.2336   27.0432   44.6357 H   0  0  0  0  0  0  0  0  0  0  0  0
   57.7507   29.5757   43.2426 H   0  0  0  0  0  0  0  0  0  0  0  0
   58.0211   33.1951   44.5680 H   0  0  0  0  0  0  0  0  0  0  0  0
   59.0822   32.6382   43.2300 H   0  0  0  0  0  0  0  0  0  0  0  0
   57.3375   32.2107   43.2300 H   0  0  0  0  0  0  0  0  0  0  0  0
   57.6567   33.0314   46.9129 H   0  0  0  0  0  0  0  0  0  0  0  0
   58.4984   35.0031   48.1866 H   0  0  0  0  0  0  0  0  0  0  0  0
   60.9438   35.2945   48.5742 H   0  0  0  0  0  0  0  0  0  0  0  0
   62.5990   32.6368   50.7568 H   0  0  0  0  0  0  0  0  0  0  0  0
   62.7851   31.2405   49.7917 H   0  0  0  0  0  0  0  0  0  0  0  0
   64.8543   32.5244   51.5437 H   0  0  0  0  0  0  0  0  0  0  0  0
   65.2203   31.1544   50.7198 H   0  0  0  0  0  0  0  0  0  0  0  0
   65.3623   33.9944   49.7269 H   0  0  0  0  0  0  0  0  0  0  0  0
   65.7515   32.6976   48.6861 H   0  0  0  0  0  0  0  0  0  0  0  0
   61.7219   31.6402   46.3823 H   0  0  0  0  0  0  0  0  0  0  0  0
  1  2  2  0
  2  3  1  0
  3  4  2  3
  4  5  1  0
  5  6  1  0
  6  7  1  0
  7  8  2  0
  7  9  1  0
  9 10  1  0
 10 11  1  0
  3 12  1  0
 12 13  2  0
 13 14  1  0
 13 15  1  0
 15 16  1  0
 16 17  2  0
 17 18  1  0
 18 19  2  0
 19 20  1  0
 20 21  1  0
 21 22  2  0
 21 23  1  0
 23 24  1  0
 24 25  1  0
 25 26  1  0
 20 27  2  0
 15  2  1  0
 27 16  1  0
 10  5  2  0
 26 23  1  0
  1 28  1  0
  1 29  1  0
  4 30  1  0
 12 31  1  0
 14 32  1  0
 14 33  1  0
 14 34  1  0
 17 35  1  0
 18 36  1  0
 19 37  1  0
 24 38  1  0
 24 39  1  0
 25 40  1  0
 25 41  1  0
 26 42  1  0
 26 43  1  0
 27 44  1  0
M  CHG  3   6  -1   9  -1  11  -1
M  END
>  <UniqueID>  (89) 
82

>  <SMILES>  (89) 
C=c1c(=Cc2[n-]c(=O)[n-]c2[O-])cc(C)n1-c1cccc(C(=O)N2CCC2)c1

>  <Energy>  (89) 
168.95107455810472

>  <Genealogy>  (89) 
C=c1c(=Cc2[n-]c(=O)[n-]c2[O-])cc(C)n1-c1cccc(C(=O)N2CCC2)c1 (protonated)
C=c1c(=Cc2[n-]c(=O)[n-]c2[O-])cc(C)n1-c1cccc(C(=O)N2CCC2)c1 (3D coordinates assigned)
C=c1c(=Cc2[n-]c(=O)[n-]c2[O-])cc(C)n1-c1cccc(C(=O)N2CCC2)c1 (nonaromatic ring conformer: 168.95107455810472 kcal/mol)

>  <smiles>  (89) 
C=c1c(=Cc2[nH]c(=O)[nH]c2O)cc(C)n1-c1cccc(C(=O)N2CCC2)c1

>  <score_type>  (89) 
oracle

>  <origin>  (89) 
adg

>  <m_score__min__energy>  (89) 
-16.449999999999999

>  <m_primary>  (89) 
energy

$$$$
89:0
     RDKit          3D

 52 54  0  0  0  0  0  0  0  0999 V2000
   57.8730   31.9960   42.3850 C   0  0  0  0  0  0  0  0  0  0  0  0
   57.7630   32.7750   44.0270 S   0  0  0  0  0  0  0  0  0  0  0  0
   57.7250   31.2180   44.9260 C   0  0  0  0  0  0  0  0  0  0  0  0
   56.6690   30.0660   44.4410 S   0  0  0  0  0  0  0  0  0  0  0  0
   58.4400   31.0420   46.1600 N   0  0  0  0  0  0  0  0  0  0  0  0
   59.2310   32.0750   46.7610 C   0  0  0  0  0  0  0  0  0  0  0  0
   58.5960   33.1330   47.4260 C   0  0  0  0  0  0  0  0  0  0  0  0
   59.3530   34.1200   48.0610 C   0  0  0  0  0  0  0  0  0  0  0  0
   60.7480   34.0490   48.0510 C   0  0  0  0  0  0  0  0  0  0  0  0
   61.3960   32.9860   47.4030 C   0  0  0  0  0  0  0  0  0  0  0  0
   63.1590   32.8700   47.4280 S   0  0  0  0  0  0  0  0  0  0  0  0
   63.5750   31.5920   46.7520 O   0  0  0  0  0  0  0  0  0  0  0  0
   63.7400   34.0160   46.6480 O   0  0  0  0  0  0  0  0  0  0  0  0
   63.7910   32.8930   49.0590 N   0  0  0  0  0  0  0  0  0  0  0  0
   63.4530   31.6250   49.7470 C   0  0  0  0  0  0  0  0  0  0  0  0
   63.5740   31.7620   51.2690 C   0  0  0  0  0  0  0  0  0  0  0  0
   62.6900   32.8250   51.8050 N   0  0  0  0  0  0  0  0  0  0  0  0
   61.6030   32.3340   52.6850 C   0  0  0  0  0  0  0  0  0  0  0  0
   60.3020   32.0690   51.9560 C   0  0  0  0  0  0  0  0  0  0  0  0
   59.1730   32.8610   52.2290 C   0  0  0  0  0  0  0  0  0  0  0  0
   57.9850   32.6690   51.5220 C   0  0  0  0  0  0  0  0  0  0  0  0
   57.9070   31.6790   50.5420 C   0  0  0  0  0  0  0  0  0  0  0  0
   59.0200   30.8760   50.2670 C   0  0  0  0  0  0  0  0  0  0  0  0
   58.9480   29.8730   49.2350 C   0  0  0  0  0  0  0  0  0  0  0  0
   58.8910   29.0630   48.4080 N   0  0  0  0  0  0  0  0  0  0  0  0
   60.2120   31.0650   50.9790 C   0  0  0  0  0  0  0  0  0  0  0  0
   62.2480   33.8250   50.8070 C   0  0  0  0  0  0  0  0  0  0  0  0
   63.3620   34.1130   49.7940 C   0  0  0  0  0  0  0  0  0  0  0  0
   60.6320   31.9980   46.7630 C   0  0  0  0  0  0  0  0  0  0  0  0
   58.0259   30.9130   42.5024 H   0  0  0  0  0  0  0  0  0  0  0  0
   56.9404   32.1766   41.8303 H   0  0  0  0  0  0  0  0  0  0  0  0
   58.7191   32.4277   41.8303 H   0  0  0  0  0  0  0  0  0  0  0  0
   58.2180   30.2030   46.7430 H   0  0  0  0  0  0  0  0  0  0  0  0
   57.4975   33.1861   47.4478 H   0  0  0  0  0  0  0  0  0  0  0  0
   58.8496   34.9551   48.5701 H   0  0  0  0  0  0  0  0  0  0  0  0
   61.3404   34.8285   48.5525 H   0  0  0  0  0  0  0  0  0  0  0  0
   64.8350   32.9320   48.9650 H   0  0  0  0  0  0  0  0  0  0  0  0
   62.4195   31.3457   49.4943 H   0  0  0  0  0  0  0  0  0  0  0  0
   64.1605   30.8518   49.4128 H   0  0  0  0  0  0  0  0  0  0  0  0
   63.2992   30.8039   51.7344 H   0  0  0  0  0  0  0  0  0  0  0  0
   64.6134   32.0356   51.5031 H   0  0  0  0  0  0  0  0  0  0  0  0
   61.9342   31.3968   53.1561 H   0  0  0  0  0  0  0  0  0  0  0  0
   61.4031   33.1263   53.4215 H   0  0  0  0  0  0  0  0  0  0  0  0
   59.2263   33.6380   53.0058 H   0  0  0  0  0  0  0  0  0  0  0  0
   57.1093   33.2988   51.7377 H   0  0  0  0  0  0  0  0  0  0  0  0
   56.9702   31.5294   49.9851 H   0  0  0  0  0  0  0  0  0  0  0  0
   61.0812   30.4237   50.7714 H   0  0  0  0  0  0  0  0  0  0  0  0
   61.3673   33.4374   50.2739 H   0  0  0  0  0  0  0  0  0  0  0  0
   61.9982   34.7593   51.3311 H   0  0  0  0  0  0  0  0  0  0  0  0
   62.9954   34.8526   49.0669 H   0  0  0  0  0  0  0  0  0  0  0  0
   64.2317   34.4914   50.3512 H   0  0  0  0  0  0  0  0  0  0  0  0
   61.1343   31.1585   46.2601 H   0  0  0  0  0  0  0  0  0  0  0  0
  1  2  1  0
  2  3  1  0
  3  4  2  0
  3  5  1  0
  5  6  1  0
  6  7  2  0
  7  8  1  0
  8  9  2  0
  9 10  1  0
 10 11  1  0
 11 12  2  0
 11 13  2  0
 11 14  1  0
 14 15  1  0
 15 16  1  0
 16 17  1  0
 17 18  1  0
 18 19  1  0
 19 20  2  0
 20 21  1  0
 21 22  2  0
 22 23  1  0
 23 24  1  0
 24 25  3  0
 23 26  2  0
 17 27  1  0
 27 28  1  0
 10 29  2  0
 29  6  1  0
 28 14  1  0
 26 19  1  0
  1 30  1  0
  1 31  1  0
  1 32  1  0
  5 33  1  0
  7 34  1  0
  8 35  1  0
  9 36  1  0
 14 37  1  0
 15 38  1  0
 15 39  1  0
 16 40  1  0
 16 41  1  0
 18 42  1  0
 18 43  1  0
 20 44  1  0
 21 45  1  0
 22 46  1  0
 26 47  1  0
 27 48  1  0
 27 49  1  0
 28 50  1  0
 28 51  1  0
 29 52  1  0
M  CHG  1  14   1
M  END
>  <UniqueID>  (90) 
83

>  <SMILES>  (90) 
CSC(=S)Nc1cccc(S(=O)(=O)[NH+]2CCN(Cc3cccc(C#N)c3)CC2)c1

>  <Energy>  (90) 
60.23411200910853

>  <Genealogy>  (90) 
CSC(=S)Nc1cccc(S(=O)(=O)[NH+]2CCN(Cc3cccc(C#N)c3)CC2)c1 (protonated)
CSC(=S)Nc1cccc(S(=O)(=O)[NH+]2CCN(Cc3cccc(C#N)c3)CC2)c1 (3D coordinates assigned)
CSC(=S)Nc1cccc(S(=O)(=O)[NH+]2CCN(Cc3cccc(C#N)c3)CC2)c1 (nonaromatic ring conformer: 60.23411200910853 kcal/mol)

>  <smiles>  (90) 
CSC(=S)Nc1cccc(S(=O)(=O)N2CCN(Cc3cccc(C#N)c3)CC2)c1

>  <score_type>  (90) 
oracle

>  <origin>  (90) 
adg

>  <m_score__min__energy>  (90) 
-9.0099999999999998

>  <m_primary>  (90) 
energy

$$$$
90:0
     RDKit          3D

 60 63  0  0  0  0  0  0  0  0999 V2000
   64.7300   32.4410   49.0730 O   0  0  0  0  0  0  0  0  0  0  0  0
   63.7950   32.9980   48.4350 C   0  0  0  0  0  0  0  0  0  0  0  0
   63.3190   32.4020   47.1530 C   0  0  0  0  0  0  0  0  0  0  0  0
   61.8230   31.2250   47.4980 Br  0  0  0  0  0  0  0  0  0  0  0  0
   63.2360   34.2010   48.8810 O   0  0  0  0  0  0  0  0  0  0  0  0
   62.5840   34.3510   50.1430 C   0  0  0  0  0  0  0  0  0  0  0  0
   61.1390   33.8510   50.0670 C   0  0  0  0  0  0  0  0  0  0  0  0
   60.3620   34.6410   49.1670 O   0  0  0  0  0  0  0  0  0  0  0  0
   59.6630   34.1550   48.0490 C   0  0  0  0  0  0  0  0  0  0  0  0
   59.7860   34.7210   46.7650 C   0  0  0  0  0  0  0  0  0  0  0  0
   59.0850   34.1780   45.6840 C   0  0  0  0  0  0  0  0  0  0  0  0
   58.2450   33.0640   45.8630 C   0  0  0  0  0  0  0  0  0  0  0  0
   57.5320   32.4620   44.7120 C   0  0  0  0  0  0  0  0  0  0  0  0
   57.6380   32.9760   43.5660 O   0  0  0  0  0  0  0  0  0  0  0  0
   56.6830   31.3220   44.9050 N   0  0  0  0  0  0  0  0  0  0  0  0
   56.3700   30.3550   43.8590 C   0  0  0  0  0  0  0  0  0  0  0  0
   57.1070   29.0650   44.0970 C   0  0  0  0  0  0  0  0  0  0  0  0
   57.4010   28.2130   43.0210 C   0  0  0  0  0  0  0  0  0  0  0  0
   58.0980   27.0220   43.2340 C   0  0  0  0  0  0  0  0  0  0  0  0
   58.5050   26.6690   44.5220 C   0  0  0  0  0  0  0  0  0  0  0  0
   58.2060   27.5020   45.6130 C   0  0  0  0  0  0  0  0  0  0  0  0
   58.6200   27.1220   46.9840 C   0  0  0  0  0  0  0  0  0  0  0  0
   59.6620   27.6280   47.4790 O   0  0  0  0  0  0  0  0  0  0  0  0
   57.8420   26.2210   47.7850 N   0  0  0  0  0  0  0  0  0  0  0  0
   57.0650   25.2930   47.3130 C   0  0  0  0  0  0  0  0  0  0  0  0
   57.3300   23.9810   47.4840 N   0  0  0  0  0  0  0  0  0  0  0  0
   56.3420   23.3660   46.8120 C   0  0  0  0  0  0  0  0  0  0  0  0
   55.5180   24.3190   46.2520 C   0  0  0  0  0  0  0  0  0  0  0  0
   54.3480   24.0670   45.4020 C   0  0  0  0  0  0  0  0  0  0  0  0
   53.2900   24.7240   45.5880 O   0  0  0  0  0  0  0  0  0  0  0  0
   54.4170   23.0910   44.3610 N   0  0  0  0  0  0  0  0  0  0  0  0
   55.1640   23.3160   43.1300 C   0  0  0  0  0  0  0  0  0  0  0  0
   56.3440   22.3800   42.9590 C   0  0  0  0  0  0  0  0  0  0  0  0
   56.5710   23.8260   43.3800 C   0  0  0  0  0  0  0  0  0  0  0  0
   55.9710   25.5460   46.5600 N   0  0  0  0  0  0  0  0  0  0  0  0
   57.4940   28.6940   45.3940 C   0  0  0  0  0  0  0  0  0  0  0  0
   58.1140   32.5130   47.1500 C   0  0  0  0  0  0  0  0  0  0  0  0
   58.8210   33.0540   48.2280 C   0  0  0  0  0  0  0  0  0  0  0  0
   63.0028   33.2053   46.4713 H   0  0  0  0  0  0  0  0  0  0  0  0
   64.1362   31.8275   46.6924 H   0  0  0  0  0  0  0  0  0  0  0  0
   63.1280   33.7697   50.9021 H   0  0  0  0  0  0  0  0  0  0  0  0
   62.5761   35.4173   50.4130 H   0  0  0  0  0  0  0  0  0  0  0  0
   61.1390   32.8075   49.7190 H   0  0  0  0  0  0  0  0  0  0  0  0
   60.6926   33.9277   51.0694 H   0  0  0  0  0  0  0  0  0  0  0  0
   60.4368   35.5945   46.6120 H   0  0  0  0  0  0  0  0  0  0  0  0
   59.1913   34.6258   44.6849 H   0  0  0  0  0  0  0  0  0  0  0  0
   55.2876   30.1590   43.8592 H   0  0  0  0  0  0  0  0  0  0  0  0
   56.6801   30.7682   42.8879 H   0  0  0  0  0  0  0  0  0  0  0  0
   57.0806   28.4850   42.0045 H   0  0  0  0  0  0  0  0  0  0  0  0
   58.3269   26.3606   42.3854 H   0  0  0  0  0  0  0  0  0  0  0  0
   59.0623   25.7344   44.6833 H   0  0  0  0  0  0  0  0  0  0  0  0
   56.2117   22.2774   46.7231 H   0  0  0  0  0  0  0  0  0  0  0  0
   54.3199   23.6243   42.4957 H   0  0  0  0  0  0  0  0  0  0  0  0
   56.5087   21.5649   43.6791 H   0  0  0  0  0  0  0  0  0  0  0  0
   56.7170   21.7379   42.1475 H   0  0  0  0  0  0  0  0  0  0  0  0
   56.8993   24.0561   44.4044 H   0  0  0  0  0  0  0  0  0  0  0  0
   57.1755   24.6624   42.9992 H   0  0  0  0  0  0  0  0  0  0  0  0
   57.2381   29.3411   46.2459 H   0  0  0  0  0  0  0  0  0  0  0  0
   57.4506   31.6502   47.3098 H   0  0  0  0  0  0  0  0  0  0  0  0
   58.7134   32.6083   49.2279 H   0  0  0  0  0  0  0  0  0  0  0  0
  1  2  2  0
  2  3  1  0
  3  4  1  0
  2  5  1  0
  5  6  1  0
  6  7  1  0
  7  8  1  0
  8  9  1  0
  9 10  2  0
 10 11  1  0
 11 12  2  0
 12 13  1  0
 13 14  2  0
 13 15  1  0
 15 16  1  0
 16 17  1  0
 17 18  2  0
 18 19  1  0
 19 20  2  0
 20 21  1  0
 21 22  1  0
 22 23  2  0
 22 24  1  0
 24 25  2  3
 25 26  1  0
 26 27  1  0
 27 28  2  0
 28 29  1  0
 29 30  2  0
 29 31  1  0
 31 32  1  0
 32 33  1  0
 33 34  1  0
 28 35  1  0
 21 36  2  0
 12 37  1  0
 37 38  2  0
 38  9  1  0
 36 17  1  0
 35 25  1  0
 34 32  1  0
  3 39  1  0
  3 40  1  0
  6 41  1  0
  6 42  1  0
  7 43  1  0
  7 44  1  0
 10 45  1  0
 11 46  1  0
 16 47  1  0
 16 48  1  0
 18 49  1  0
 19 50  1  0
 20 51  1  0
 27 52  1  0
 32 53  1  0
 33 54  1  0
 33 55  1  0
 34 56  1  0
 34 57  1  0
 36 58  1  0
 37 59  1  0
 38 60  1  0
M  CHG  4  15  -1  26  -1  31  -1  35  -1
M  END
>  <UniqueID>  (91) 
84

>  <SMILES>  (91) 
O=C(CBr)OCCOc1ccc(C(=O)[N-]Cc2cccc(C(=O)N=c3[n-]cc(C(=O)[N-]C4CC4)[n-]3)c2)cc1

>  <Energy>  (91) 
355.1375227789885

>  <Genealogy>  (91) 
O=C(CBr)OCCOc1ccc(C(=O)[N-]Cc2cccc(C(=O)N=c3[n-]cc(C(=O)[N-]C4CC4)[n-]3)c2)cc1 (protonated)
O=C(CBr)OCCOc1ccc(C(=O)[N-]Cc2cccc(C(=O)N=c3[n-]cc(C(=O)[N-]C4CC4)[n-]3)c2)cc1 (3D coordinates assigned)
O=C(CBr)OCCOc1ccc(C(=O)[N-]Cc2cccc(C(=O)N=c3[n-]cc(C(=O)[N-]C4CC4)[n-]3)c2)cc1 (nonaromatic ring conformer: 355.1375227789885 kcal/mol)

>  <smiles>  (91) 
O=C(CBr)OCCOc1ccc(C(=O)NCc2cccc(C(=O)N=c3[nH]cc(C(=O)NC4CC4)[nH]3)c2)cc1

>  <score_type>  (91) 
oracle

>  <origin>  (91) 
adg

>  <m_score__min__energy>  (91) 
-15.109999999999999

>  <m_primary>  (91) 
energy

$$$$
91:0
     RDKit          3D

 43 45  0  0  0  0  0  0  0  0999 V2000
   55.5970   28.5630   54.1170 C   0  0  0  0  0  0  0  0  0  0  0  0
   55.4660   30.0820   54.1830 C   0  0  0  0  0  0  0  0  0  0  0  0
   54.7870   30.5940   52.9830 N   0  0  0  0  0  0  0  0  0  0  0  0
   55.4740   31.6060   52.1690 C   0  0  0  0  0  0  0  0  0  0  0  0
   56.7220   31.0310   51.5800 C   0  0  0  0  0  0  0  0  0  0  0  0
   57.0570   29.7310   51.6710 N   0  0  0  0  0  0  0  0  0  0  0  0
   58.1880   29.5870   51.0050 N   0  0  0  0  0  0  0  0  0  0  0  0
   58.5000   30.8000   50.5120 C   0  0  0  0  0  0  0  0  0  0  0  0
   59.7450   31.0820   49.7350 C   0  0  0  0  0  0  0  0  0  0  0  0
   59.5250   32.2570   48.8220 C   0  0  0  0  0  0  0  0  0  0  0  0
   60.2300   33.4550   49.0290 C   0  0  0  0  0  0  0  0  0  0  0  0
   60.0010   34.5590   48.2010 C   0  0  0  0  0  0  0  0  0  0  0  0
   59.0600   34.4770   47.1700 C   0  0  0  0  0  0  0  0  0  0  0  0
   58.3450   33.2930   46.9670 C   0  0  0  0  0  0  0  0  0  0  0  0
   57.4280   33.2180   45.9720 F   0  0  0  0  0  0  0  0  0  0  0  0
   58.5720   32.1870   47.7930 C   0  0  0  0  0  0  0  0  0  0  0  0
   57.6040   31.7450   50.8550 N   0  0  0  0  0  0  0  0  0  0  0  0
   53.4690   30.1380   52.5930 C   0  0  0  0  0  0  0  0  0  0  0  0
   53.2850   28.9130   52.3500 O   0  0  0  0  0  0  0  0  0  0  0  0
   52.2860   31.0790   52.5430 C   0  0  0  0  0  0  0  0  0  0  0  0
   51.7930   31.2960   51.1410 C   0  0  0  0  0  0  0  0  0  0  0  0
   51.3950   32.4870   50.6610 N   0  0  0  0  0  0  0  0  0  0  0  0
   51.0050   32.1990   49.4000 C   0  0  0  0  0  0  0  0  0  0  0  0
   50.5640   33.0740   48.6100 O   0  0  0  0  0  0  0  0  0  0  0  0
   51.1230   30.8990   49.0520 N   0  0  0  0  0  0  0  0  0  0  0  0
   51.6180   30.3370   50.1660 C   0  0  0  0  0  0  0  0  0  0  0  0
   51.8940   28.9780   50.2840 O   0  0  0  0  0  0  0  0  0  0  0  0
   55.6323   28.1533   55.1373 H   0  0  0  0  0  0  0  0  0  0  0  0
   54.7317   28.1432   53.5831 H   0  0  0  0  0  0  0  0  0  0  0  0
   56.5214   28.2975   53.5831 H   0  0  0  0  0  0  0  0  0  0  0  0
   54.8821   30.3564   55.0739 H   0  0  0  0  0  0  0  0  0  0  0  0
   56.4721   30.5234   54.2376 H   0  0  0  0  0  0  0  0  0  0  0  0
   54.8071   31.9349   51.3584 H   0  0  0  0  0  0  0  0  0  0  0  0
   55.7383   32.4623   52.8069 H   0  0  0  0  0  0  0  0  0  0  0  0
   60.5655   31.3100   50.4313 H   0  0  0  0  0  0  0  0  0  0  0  0
   60.0028   30.1988   49.1321 H   0  0  0  0  0  0  0  0  0  0  0  0
   60.9644   33.5248   49.8449 H   0  0  0  0  0  0  0  0  0  0  0  0
   60.5614   35.4919   48.3610 H   0  0  0  0  0  0  0  0  0  0  0  0
   58.8822   35.3450   46.5180 H   0  0  0  0  0  0  0  0  0  0  0  0
   58.0020   31.2594   47.6359 H   0  0  0  0  0  0  0  0  0  0  0  0
   51.4690   30.6532   53.1440 H   0  0  0  0  0  0  0  0  0  0  0  0
   52.6108   32.0516   52.9412 H   0  0  0  0  0  0  0  0  0  0  0  0
   52.6480   28.6410   50.8700 H   0  0  0  0  0  0  0  0  0  0  0  0
  1  2  1  0
  2  3  1  0
  3  4  1  0
  4  5  1  0
  5  6  2  0
  6  7  1  0
  7  8  1  0
  8  9  1  0
  9 10  1  0
 10 11  2  0
 11 12  1  0
 12 13  2  0
 13 14  1  0
 14 15  1  0
 14 16  2  0
  8 17  2  0
  3 18  1  0
 18 19  2  0
 18 20  1  0
 20 21  1  0
 21 22  1  0
 22 23  1  0
 23 24  2  0
 23 25  1  0
 25 26  1  0
 26 27  1  0
 17  5  1  0
 26 21  2  0
 16 10  1  0
  1 28  1  0
  1 29  1  0
  1 30  1  0
  2 31  1  0
  2 32  1  0
  4 33  1  0
  4 34  1  0
  9 35  1  0
  9 36  1  0
 11 37  1  0
 12 38  1  0
 13 39  1  0
 16 40  1  0
 20 41  1  0
 20 42  1  0
 27 43  1  0
M  CHG  3   7  -1  22  -1  25  -1
M  END
>  <UniqueID>  (92) 
85

>  <SMILES>  (92) 
CCN(Cc1n[n-]c(Cc2cccc(F)c2)n1)C(=O)Cc1[n-]c(=O)[n-]c1O

>  <Energy>  (92) 
98.4860643603485

>  <Genealogy>  (92) 
CCN(Cc1n[n-]c(Cc2cccc(F)c2)n1)C(=O)Cc1[n-]c(=O)[n-]c1O (protonated)
CCN(Cc1n[n-]c(Cc2cccc(F)c2)n1)C(=O)Cc1[n-]c(=O)[n-]c1O (3D coordinates assigned)
CCN(Cc1n[n-]c(Cc2cccc(F)c2)n1)C(=O)Cc1[n-]c(=O)[n-]c1O (optimized conformer: 98.4860643603485 kcal/mol)

>  <smiles>  (92) 
CCN(Cc1n[nH]c(Cc2cccc(F)c2)n1)C(=O)Cc1[nH]c(=O)[nH]c1O

>  <score_type>  (92) 
oracle

>  <origin>  (92) 
adg

>  <m_score__min__energy>  (92) 
-14.630000000000001

>  <m_primary>  (92) 
energy

$$$$
92:0
     RDKit          3D

 59 63  0  0  0  0  0  0  0  0999 V2000
   56.0090   28.5300   45.2520 N   0  0  0  0  0  0  0  0  0  0  0  0
   57.3340   28.9350   44.2170 S   0  0  0  0  0  0  0  0  0  0  0  0
   58.5210   28.1070   44.6240 O   0  0  0  0  0  0  0  0  0  0  0  0
   56.9820   28.6180   42.7910 O   0  0  0  0  0  0  0  0  0  0  0  0
   57.7180   30.6600   44.3660 C   0  0  0  0  0  0  0  0  0  0  0  0
   57.2040   31.5500   43.4080 C   0  0  0  0  0  0  0  0  0  0  0  0
   57.5190   32.9100   43.4580 C   0  0  0  0  0  0  0  0  0  0  0  0
   58.3520   33.3980   44.4640 C   0  0  0  0  0  0  0  0  0  0  0  0
   58.8630   32.5300   45.4300 C   0  0  0  0  0  0  0  0  0  0  0  0
   58.5460   31.1620   45.4030 C   0  0  0  0  0  0  0  0  0  0  0  0
   59.1020   30.2930   46.4600 C   0  0  0  0  0  0  0  0  0  0  0  0
   58.3170   29.2890   47.0440 C   0  0  0  0  0  0  0  0  0  0  0  0
   58.8520   28.4650   48.0380 C   0  0  0  0  0  0  0  0  0  0  0  0
   60.1650   28.6550   48.4870 C   0  0  0  0  0  0  0  0  0  0  0  0
   60.6860   27.7660   49.4860 N   0  0  0  0  0  0  0  0  0  0  0  0
   60.8240   28.0510   50.8850 C   0  0  0  0  0  0  0  0  0  0  0  0
   60.2110   27.3490   51.7360 O   0  0  0  0  0  0  0  0  0  0  0  0
   61.7280   29.1360   51.3380 C   0  0  0  0  0  0  0  0  0  0  0  0
   63.0590   28.8520   51.6910 C   0  0  0  0  0  0  0  0  0  0  0  0
   63.9120   29.8730   52.1160 C   0  0  0  0  0  0  0  0  0  0  0  0
   63.4490   31.1850   52.2020 C   0  0  0  0  0  0  0  0  0  0  0  0
   62.1220   31.4890   51.8670 C   0  0  0  0  0  0  0  0  0  0  0  0
   61.6360   32.9160   51.9240 C   0  0  0  0  0  0  0  0  0  0  0  0
   61.0610   33.3870   50.6060 C   0  0  0  0  0  0  0  0  0  0  0  0
   59.8310   33.9690   50.5760 N   0  0  0  0  0  0  0  0  0  0  0  0
   59.2770   34.3950   49.4410 N   0  0  0  0  0  0  0  0  0  0  0  0
   59.9160   34.2810   48.2510 C   0  0  0  0  0  0  0  0  0  0  0  0
   59.3460   34.6820   47.2010 O   0  0  0  0  0  0  0  0  0  0  0  0
   61.2000   33.7220   48.2030 C   0  0  0  0  0  0  0  0  0  0  0  0
   61.7810   33.2550   49.4000 C   0  0  0  0  0  0  0  0  0  0  0  0
   63.1040   32.6850   49.3700 N   0  0  0  0  0  0  0  0  0  0  0  0
   63.7340   32.3180   48.1050 C   0  0  0  0  0  0  0  0  0  0  0  0
   63.4350   33.3840   47.0530 C   0  0  0  0  0  0  0  0  0  0  0  0
   61.9180   33.5490   46.8790 C   0  0  0  0  0  0  0  0  0  0  0  0
   61.2690   30.4640   51.4230 C   0  0  0  0  0  0  0  0  0  0  0  0
   60.9530   29.6610   47.9000 C   0  0  0  0  0  0  0  0  0  0  0  0
   60.4200   30.4810   46.9020 C   0  0  0  0  0  0  0  0  0  0  0  0
   55.1420   28.5810   44.6720 H   0  0  0  0  0  0  0  0  0  0  0  0
   56.5471   31.1721   42.6107 H   0  0  0  0  0  0  0  0  0  0  0  0
   57.1093   33.5968   42.7027 H   0  0  0  0  0  0  0  0  0  0  0  0
   58.6065   34.4677   44.4963 H   0  0  0  0  0  0  0  0  0  0  0  0
   59.5205   32.9211   46.2204 H   0  0  0  0  0  0  0  0  0  0  0  0
   57.2756   29.1492   46.7185 H   0  0  0  0  0  0  0  0  0  0  0  0
   58.2376   27.6617   48.4707 H   0  0  0  0  0  0  0  0  0  0  0  0
   63.4311   27.8185   51.6320 H   0  0  0  0  0  0  0  0  0  0  0  0
   64.9533   29.6409   52.3839 H   0  0  0  0  0  0  0  0  0  0  0  0
   64.1273   31.9848   52.5339 H   0  0  0  0  0  0  0  0  0  0  0  0
   60.8562   32.9922   52.6961 H   0  0  0  0  0  0  0  0  0  0  0  0
   62.5012   33.5540   52.1575 H   0  0  0  0  0  0  0  0  0  0  0  0
   63.6640   32.5800   50.2450 H   0  0  0  0  0  0  0  0  0  0  0  0
   64.8219   32.2398   48.2474 H   0  0  0  0  0  0  0  0  0  0  0  0
   63.3354   31.3502   47.7666 H   0  0  0  0  0  0  0  0  0  0  0  0
   63.8701   34.3422   47.3732 H   0  0  0  0  0  0  0  0  0  0  0  0
   63.8740   33.0734   46.0934 H   0  0  0  0  0  0  0  0  0  0  0  0
   61.7282   34.4353   46.2557 H   0  0  0  0  0  0  0  0  0  0  0  0
   61.5331   32.6336   46.4058 H   0  0  0  0  0  0  0  0  0  0  0  0
   60.2331   30.7017   51.1393 H   0  0  0  0  0  0  0  0  0  0  0  0
   61.9934   29.8030   48.2279 H   0  0  0  0  0  0  0  0  0  0  0  0
   61.0369   31.2778   46.4608 H   0  0  0  0  0  0  0  0  0  0  0  0
  1  2  1  0
  2  3  2  0
  2  4  2  0
  2  5  1  0
  5  6  2  0
  6  7  1  0
  7  8  2  0
  8  9  1  0
  9 10  2  0
 10 11  1  0
 11 12  2  0
 12 13  1  0
 13 14  2  0
 14 15  1  0
 15 16  1  0
 16 17  2  0
 16 18  1  0
 18 19  2  0
 19 20  1  0
 20 21  2  0
 21 22  1  0
 22 23  1  0
 23 24  1  0
 24 25  2  0
 25 26  1  0
 26 27  1  0
 27 28  2  0
 27 29  1  0
 29 30  2  0
 30 31  1  0
 31 32  1  0
 32 33  1  0
 33 34  1  0
 22 35  2  0
 14 36  1  0
 36 37  2  0
 10  5  1  0
 37 11  1  0
 35 18  1  0
 30 24  1  0
 34 29  1  0
  1 38  1  0
  6 39  1  0
  7 40  1  0
  8 41  1  0
  9 42  1  0
 12 43  1  0
 13 44  1  0
 19 45  1  0
 20 46  1  0
 21 47  1  0
 23 48  1  0
 23 49  1  0
 31 50  1  0
 32 51  1  0
 32 52  1  0
 33 53  1  0
 33 54  1  0
 34 55  1  0
 34 56  1  0
 35 57  1  0
 36 58  1  0
 37 59  1  0
M  CHG  3   1  -1  15  -1  26  -1
M  END
>  <UniqueID>  (93) 
86

>  <SMILES>  (93) 
[NH-]S(=O)(=O)c1ccccc1-c1ccc([N-]C(=O)c2cccc(Cc3n[n-]c(=O)c4c3NCCC4)c2)cc1

>  <Energy>  (93) 
80.38649893797172

>  <Genealogy>  (93) 
[NH-]S(=O)(=O)c1ccccc1-c1ccc([N-]C(=O)c2cccc(Cc3n[n-]c(=O)c4c3NCCC4)c2)cc1 (protonated)
[NH-]S(=O)(=O)c1ccccc1-c1ccc([N-]C(=O)c2cccc(Cc3n[n-]c(=O)c4c3NCCC4)c2)cc1 (3D coordinates assigned)
[NH-]S(=O)(=O)c1ccccc1-c1ccc([N-]C(=O)c2cccc(Cc3n[n-]c(=O)c4c3NCCC4)c2)cc1 (nonaromatic ring conformer: 80.38649893797172 kcal/mol)

>  <smiles>  (93) 
NS(=O)(=O)c1ccccc1-c1ccc(NC(=O)c2cccc(Cc3n[nH]c(=O)c4c3NCCC4)c2)cc1

>  <score_type>  (93) 
oracle

>  <origin>  (93) 
adg

>  <m_score__min__energy>  (93) 
-15.52

>  <m_primary>  (93) 
energy

$$$$
