0:0
     RDKit          3D

 33 34  0  0  0  0  0  0  0  0999 V2000
   58.1920   26.5900   47.2570 C   0  0  0  0  0  0  0  0  0  0  0  0
   57.1420   26.6610   46.1810 C   0  0  0  0  0  0  0  0  0  0  0  0
   57.3380   27.5000   45.1400 C   0  0  0  0  0  0  0  0  0  0  0  0
   57.3350   28.9780   45.2290 C   0  0  0  0  0  0  0  0  0  0  0  0
   56.2320   29.7290   44.8020 C   0  0  0  0  0  0  0  0  0  0  0  0
   55.0970   29.1060   44.2970 O   0  0  0  0  0  0  0  0  0  0  0  0
   56.2720   31.0820   44.8670 N   0  0  0  0  0  0  0  0  0  0  0  0
   57.3680   31.7380   45.3230 C   0  0  0  0  0  0  0  0  0  0  0  0
   57.3550   33.0000   45.3560 O   0  0  0  0  0  0  0  0  0  0  0  0
   58.4760   31.0380   45.7250 N   0  0  0  0  0  0  0  0  0  0  0  0
   59.6430   31.7430   46.1980 C   0  0  0  0  0  0  0  0  0  0  0  0
   59.8770   33.0700   45.8060 C   0  0  0  0  0  0  0  0  0  0  0  0
   61.0060   33.7540   46.2650 C   0  0  0  0  0  0  0  0  0  0  0  0
   61.9240   33.1150   47.1130 C   0  0  0  0  0  0  0  0  0  0  0  0
   63.1140   33.8610   47.6380 C   0  0  0  0  0  0  0  0  0  0  0  0
   61.6820   31.7940   47.5190 C   0  0  0  0  0  0  0  0  0  0  0  0
   60.5520   31.1100   47.0590 C   0  0  0  0  0  0  0  0  0  0  0  0
   58.4740   29.6680   45.6750 C   0  0  0  0  0  0  0  0  0  0  0  0
   59.4880   29.0150   46.0510 O   0  0  0  0  0  0  0  0  0  0  0  0
   55.8860   25.8940   46.3860 C   0  0  0  0  0  0  0  0  0  0  0  0
   54.7760   26.3350   45.9890 O   0  0  0  0  0  0  0  0  0  0  0  0
   55.9160   24.6870   47.0760 O   0  0  0  0  0  0  0  0  0  0  0  0
   57.7081   26.6227   48.2443 H   0  0  0  0  0  0  0  0  0  0  0  0
   58.7571   25.6516   47.1566 H   0  0  0  0  0  0  0  0  0  0  0  0
   58.8783   27.4438   47.1566 H   0  0  0  0  0  0  0  0  0  0  0  0
   57.5131   27.0508   44.1513 H   0  0  0  0  0  0  0  0  0  0  0  0
   59.1677   33.5747   45.1336 H   0  0  0  0  0  0  0  0  0  0  0  0
   61.1759   34.7973   45.9605 H   0  0  0  0  0  0  0  0  0  0  0  0
   63.0973   33.8506   48.7378 H   0  0  0  0  0  0  0  0  0  0  0  0
   64.0359   33.3789   47.2807 H   0  0  0  0  0  0  0  0  0  0  0  0
   63.0818   34.9008   47.2807 H   0  0  0  0  0  0  0  0  0  0  0  0
   62.3842   31.2939   48.2022 H   0  0  0  0  0  0  0  0  0  0  0  0
   60.3752   30.0709   47.3738 H   0  0  0  0  0  0  0  0  0  0  0  0
  1  2  1  0
  2  3  2  3
  3  4  1  0
  4  5  2  0
  5  6  1  0
  5  7  1  0
  7  8  1  0
  8  9  2  0
  8 10  1  0
 10 11  1  0
 11 12  2  0
 12 13  1  0
 13 14  2  0
 14 15  1  0
 14 16  1  0
 16 17  2  0
 10 18  1  0
 18 19  2  0
  2 20  1  0
 20 21  2  0
 20 22  1  0
 18  4  1  0
 17 11  1  0
  1 23  1  0
  1 24  1  0
  1 25  1  0
  3 26  1  0
 12 27  1  0
 13 28  1  0
 15 29  1  0
 15 30  1  0
 15 31  1  0
 16 32  1  0
 17 33  1  0
M  CHG  3   6  -1   7  -1  22  -1
M  END
>  <UniqueID>  (1) 
1

>  <SMILES>  (1) 
CC(=Cc1c([O-])[n-]c(=O)n(-c2ccc(C)cc2)c1=O)C(=O)[O-]

>  <Energy>  (1) 
53.88041793607406

>  <Genealogy>  (1) 
CC(=Cc1c([O-])[n-]c(=O)n(-c2ccc(C)cc2)c1=O)C(=O)[O-] (protonated)
CC(=Cc1c([O-])[n-]c(=O)n(-c2ccc(C)cc2)c1=O)C(=O)[O-] (3D coordinates assigned)
CC(=Cc1c([O-])[n-]c(=O)n(-c2ccc(C)cc2)c1=O)C(=O)[O-] (optimized conformer: 53.88041793607406 kcal/mol)

>  <smiles>  (1) 
CC(=Cc1c(O)[nH]c(=O)n(-c2ccc(C)cc2)c1=O)C(=O)O

>  <score_type>  (1) 
oracle

>  <origin>  (1) 
adg

>  <m_score__min__energy>  (1) 
-14.69

>  <m_primary>  (1) 
energy

$$$$
1:0
     RDKit          3D

 43 45  0  0  0  0  0  0  0  0999 V2000
   58.2910   32.6960   49.5430 O   0  0  0  0  0  0  0  0  0  0  0  0
   59.2470   33.2900   48.5470 S   0  0  0  0  0  0  0  0  0  0  0  0
   59.5050   34.7280   48.9020 O   0  0  0  0  0  0  0  0  0  0  0  0
   60.7350   32.4020   48.5540 N   0  0  0  0  0  0  0  0  0  0  0  0
   61.8090   32.7670   47.9240 C   0  0  0  0  0  0  0  0  0  0  0  0
   62.8550   31.8140   47.5020 C   0  0  0  0  0  0  0  0  0  0  0  0
   63.8940   32.7060   46.8040 C   0  0  0  0  0  0  0  0  0  0  0  0
   63.3830   34.1580   46.8810 C   0  0  0  0  0  0  0  0  0  0  0  0
   62.1100   34.1040   47.5690 N   0  0  0  0  0  0  0  0  0  0  0  0
   58.5450   33.2050   46.9350 C   0  0  0  0  0  0  0  0  0  0  0  0
   58.3450   34.3740   46.1900 C   0  0  0  0  0  0  0  0  0  0  0  0
   57.7850   34.3040   44.9120 C   0  0  0  0  0  0  0  0  0  0  0  0
   57.4090   33.0700   44.3760 C   0  0  0  0  0  0  0  0  0  0  0  0
   57.5750   31.8920   45.1260 C   0  0  0  0  0  0  0  0  0  0  0  0
   57.2170   30.6070   44.5880 N   0  0  0  0  0  0  0  0  0  0  0  0
   57.7030   29.3530   45.0920 C   0  0  0  0  0  0  0  0  0  0  0  0
   59.2500   29.2380   45.6460 S   0  0  0  0  0  0  0  0  0  0  0  0
   56.9550   28.1600   44.8100 N   0  0  0  0  0  0  0  0  0  0  0  0
   57.1530   26.9070   45.4860 C   0  0  0  0  0  0  0  0  0  0  0  0
   58.4350   26.3370   45.5080 C   0  0  0  0  0  0  0  0  0  0  0  0
   58.6540   25.1150   46.1500 C   0  0  0  0  0  0  0  0  0  0  0  0
   57.5920   24.4440   46.7610 C   0  0  0  0  0  0  0  0  0  0  0  0
   56.3060   24.9890   46.7200 C   0  0  0  0  0  0  0  0  0  0  0  0
   56.0780   26.2100   46.0750 C   0  0  0  0  0  0  0  0  0  0  0  0
   54.7830   26.7080   46.0030 O   0  0  0  0  0  0  0  0  0  0  0  0
   58.1610   31.9680   46.3990 C   0  0  0  0  0  0  0  0  0  0  0  0
   63.2956   31.3037   48.3712 H   0  0  0  0  0  0  0  0  0  0  0  0
   62.4693   31.0159   46.8506 H   0  0  0  0  0  0  0  0  0  0  0  0
   64.8649   32.6218   47.3142 H   0  0  0  0  0  0  0  0  0  0  0  0
   64.0292   32.3974   45.7569 H   0  0  0  0  0  0  0  0  0  0  0  0
   64.0933   34.7827   47.4424 H   0  0  0  0  0  0  0  0  0  0  0  0
   63.2778   34.5989   45.8787 H   0  0  0  0  0  0  0  0  0  0  0  0
   61.5210   34.9420   47.7680 H   0  0  0  0  0  0  0  0  0  0  0  0
   58.6294   35.3492   46.6120 H   0  0  0  0  0  0  0  0  0  0  0  0
   57.6397   35.2235   44.3260 H   0  0  0  0  0  0  0  0  0  0  0  0
   56.9816   33.0195   43.3637 H   0  0  0  0  0  0  0  0  0  0  0  0
   56.5600   30.5840   43.7760 H   0  0  0  0  0  0  0  0  0  0  0  0
   56.2680   28.1850   44.0230 H   0  0  0  0  0  0  0  0  0  0  0  0
   59.2723   26.8548   45.0172 H   0  0  0  0  0  0  0  0  0  0  0  0
   59.6644   24.6808   46.1742 H   0  0  0  0  0  0  0  0  0  0  0  0
   57.7680   23.4871   47.2741 H   0  0  0  0  0  0  0  0  0  0  0  0
   55.4697   24.4564   47.1964 H   0  0  0  0  0  0  0  0  0  0  0  0
   58.3204   31.0485   46.9814 H   0  0  0  0  0  0  0  0  0  0  0  0
  1  2  2  0
  2  3  2  0
  2  4  1  0
  4  5  2  3
  5  6  1  0
  6  7  1  0
  7  8  1  0
  8  9  1  0
  2 10  1  0
 10 11  2  0
 11 12  1  0
 12 13  2  0
 13 14  1  0
 14 15  1  0
 15 16  1  0
 16 17  2  0
 16 18  1  0
 18 19  1  0
 19 20  2  0
 20 21  1  0
 21 22  2  0
 22 23  1  0
 23 24  2  0
 24 25  1  0
 14 26  2  0
  9  5  1  0
 26 10  1  0
 24 19  1  0
  6 27  1  0
  6 28  1  0
  7 29  1  0
  7 30  1  0
  8 31  1  0
  8 32  1  0
  9 33  1  0
 11 34  1  0
 12 35  1  0
 13 36  1  0
 15 37  1  0
 18 38  1  0
 20 39  1  0
 21 40  1  0
 22 41  1  0
 23 42  1  0
 26 43  1  0
M  CHG  1  25  -1
M  END
>  <UniqueID>  (2) 
2

>  <SMILES>  (2) 
O=S(=O)(N=C1CCCN1)c1cccc(NC(=S)Nc2ccccc2[O-])c1

>  <Energy>  (2) 
64.90642042151993

>  <Genealogy>  (2) 
O=S(=O)(N=C1CCCN1)c1cccc(NC(=S)Nc2ccccc2[O-])c1 (protonated)
O=S(=O)(N=C1CCCN1)c1cccc(NC(=S)Nc2ccccc2[O-])c1 (3D coordinates assigned)
O=S(=O)(N=C1CCCN1)c1cccc(NC(=S)Nc2ccccc2[O-])c1 (nonaromatic ring conformer: 64.90642042151993 kcal/mol)

>  <smiles>  (2) 
O=S(=O)(N=C1CCCN1)c1cccc(NC(=S)Nc2ccccc2O)c1

>  <score_type>  (2) 
oracle

>  <origin>  (2) 
adg

>  <m_score__min__energy>  (2) 
-12.890000000000001

>  <m_primary>  (2) 
energy

$$$$
2:0
     RDKit          3D

 52 54  0  0  0  0  0  0  0  0999 V2000
   66.1070   26.0660   51.5450 C   0  0  0  0  0  0  0  0  0  0  0  0
   65.7850   27.1820   52.3680 O   0  0  0  0  0  0  0  0  0  0  0  0
   65.7390   28.5110   51.9200 C   0  0  0  0  0  0  0  0  0  0  0  0
   64.5370   29.2410   51.8450 C   0  0  0  0  0  0  0  0  0  0  0  0
   64.5420   30.5620   51.3850 C   0  0  0  0  0  0  0  0  0  0  0  0
   65.7440   31.1710   50.9990 C   0  0  0  0  0  0  0  0  0  0  0  0
   65.7510   32.8150   50.3690 S   0  0  0  0  0  0  0  0  0  0  0  0
   65.5710   33.7990   51.4910 O   0  0  0  0  0  0  0  0  0  0  0  0
   67.0760   33.0820   49.7120 O   0  0  0  0  0  0  0  0  0  0  0  0
   64.4840   33.0290   49.1960 N   0  0  0  0  0  0  0  0  0  0  0  0
   63.3930   33.8530   49.7270 C   0  0  0  0  0  0  0  0  0  0  0  0
   62.1200   33.0210   49.9260 C   0  0  0  0  0  0  0  0  0  0  0  0
   61.1600   33.1950   48.7790 C   0  0  0  0  0  0  0  0  0  0  0  0
   59.8290   33.5700   49.0190 C   0  0  0  0  0  0  0  0  0  0  0  0
   58.9470   33.7610   47.9530 C   0  0  0  0  0  0  0  0  0  0  0  0
   59.3860   33.5890   46.6340 C   0  0  0  0  0  0  0  0  0  0  0  0
   58.2560   33.8140   45.3030 S   0  0  0  0  0  0  0  0  0  0  0  0
   58.5720   35.0760   44.5490 O   0  0  0  0  0  0  0  0  0  0  0  0
   56.8600   33.9040   45.8520 O   0  0  0  0  0  0  0  0  0  0  0  0
   58.3560   32.4820   44.2320 O   0  0  0  0  0  0  0  0  0  0  0  0
   58.1040   31.1490   44.5900 C   0  0  0  0  0  0  0  0  0  0  0  0
   59.1220   30.2600   44.9830 C   0  0  0  0  0  0  0  0  0  0  0  0
   58.8120   28.9440   45.3360 C   0  0  0  0  0  0  0  0  0  0  0  0
   57.4860   28.4850   45.2980 C   0  0  0  0  0  0  0  0  0  0  0  0
   57.2110   27.0810   45.6730 C   0  0  0  0  0  0  0  0  0  0  0  0
   57.0040   26.7450   46.8690 O   0  0  0  0  0  0  0  0  0  0  0  0
   56.4660   29.3750   44.8980 C   0  0  0  0  0  0  0  0  0  0  0  0
   55.1370   28.9670   44.8400 O   0  0  0  0  0  0  0  0  0  0  0  0
   56.7820   30.6930   44.5500 C   0  0  0  0  0  0  0  0  0  0  0  0
   60.7190   33.2300   46.3880 C   0  0  0  0  0  0  0  0  0  0  0  0
   61.6020   33.0340   47.4540 C   0  0  0  0  0  0  0  0  0  0  0  0
   66.9400   30.4460   51.0720 C   0  0  0  0  0  0  0  0  0  0  0  0
   66.9350   29.1250   51.5310 C   0  0  0  0  0  0  0  0  0  0  0  0
   66.3562   25.2025   52.1792 H   0  0  0  0  0  0  0  0  0  0  0  0
   65.2439   25.8176   50.9099 H   0  0  0  0  0  0  0  0  0  0  0  0
   66.9698   26.3156   50.9099 H   0  0  0  0  0  0  0  0  0  0  0  0
   63.5904   28.7705   52.1494 H   0  0  0  0  0  0  0  0  0  0  0  0
   63.5989   31.1251   51.3259 H   0  0  0  0  0  0  0  0  0  0  0  0
   63.7005   34.2763   50.6946 H   0  0  0  0  0  0  0  0  0  0  0  0
   63.1774   34.6548   49.0055 H   0  0  0  0  0  0  0  0  0  0  0  0
   62.3959   31.9589   50.0028 H   0  0  0  0  0  0  0  0  0  0  0  0
   61.6239   33.3651   50.8455 H   0  0  0  0  0  0  0  0  0  0  0  0
   59.4787   33.7142   50.0517 H   0  0  0  0  0  0  0  0  0  0  0  0
   57.9034   34.0476   48.1500 H   0  0  0  0  0  0  0  0  0  0  0  0
   60.1668   30.6029   45.0124 H   0  0  0  0  0  0  0  0  0  0  0  0
   59.6157   28.2604   45.6470 H   0  0  0  0  0  0  0  0  0  0  0  0
   57.1867   26.3111   44.8877 H   0  0  0  0  0  0  0  0  0  0  0  0
   55.9802   31.3797   44.2408 H   0  0  0  0  0  0  0  0  0  0  0  0
   61.0708   33.1023   45.3536 H   0  0  0  0  0  0  0  0  0  0  0  0
   62.6467   32.7527   47.2554 H   0  0  0  0  0  0  0  0  0  0  0  0
   67.8862   30.9170   50.7674 H   0  0  0  0  0  0  0  0  0  0  0  0
   67.8793   28.5636   51.5868 H   0  0  0  0  0  0  0  0  0  0  0  0
  1  2  1  0
  2  3  1  0
  3  4  2  0
  4  5  1  0
  5  6  2  0
  6  7  1  0
  7  8  2  0
  7  9  2  0
  7 10  1  0
 10 11  1  0
 11 12  1  0
 12 13  1  0
 13 14  2  0
 14 15  1  0
 15 16  2  0
 16 17  1  0
 17 18  2  0
 17 19  2  0
 17 20  1  0
 20 21  1  0
 21 22  2  0
 22 23  1  0
 23 24  2  0
 24 25  1  0
 25 26  2  0
 24 27  1  0
 27 28  1  0
 27 29  2  0
 16 30  1  0
 30 31  2  0
  6 32  1  0
 32 33  2  0
 33  3  1  0
 31 13  1  0
 29 21  1  0
  1 34  1  0
  1 35  1  0
  1 36  1  0
  4 37  1  0
  5 38  1  0
 11 39  1  0
 11 40  1  0
 12 41  1  0
 12 42  1  0
 14 43  1  0
 15 44  1  0
 22 45  1  0
 23 46  1  0
 25 47  1  0
 29 48  1  0
 30 49  1  0
 31 50  1  0
 32 51  1  0
 33 52  1  0
M  CHG  2  10  -1  28  -1
M  END
>  <UniqueID>  (3) 
3

>  <SMILES>  (3) 
COc1ccc(S(=O)(=O)[N-]CCc2ccc(S(=O)(=O)Oc3ccc(C=O)c([O-])c3)cc2)cc1

>  <Energy>  (3) 
51.23420908846941

>  <Genealogy>  (3) 
COc1ccc(S(=O)(=O)[N-]CCc2ccc(S(=O)(=O)Oc3ccc(C=O)c([O-])c3)cc2)cc1 (protonated)
COc1ccc(S(=O)(=O)[N-]CCc2ccc(S(=O)(=O)Oc3ccc(C=O)c([O-])c3)cc2)cc1 (3D coordinates assigned)
COc1ccc(S(=O)(=O)[N-]CCc2ccc(S(=O)(=O)Oc3ccc(C=O)c([O-])c3)cc2)cc1 (optimized conformer: 51.23420908846941 kcal/mol)

>  <smiles>  (3) 
COc1ccc(S(=O)(=O)NCCc2ccc(S(=O)(=O)Oc3ccc(C=O)c(O)c3)cc2)cc1

>  <score_type>  (3) 
oracle

>  <origin>  (3) 
adg

>  <m_score__min__energy>  (3) 
-13.789999999999999

>  <m_primary>  (3) 
energy

$$$$
3:0
     RDKit          3D

 61 64  0  0  0  0  0  0  0  0999 V2000
   55.1806   31.6441   51.1969 H   0  0  0  0  0  0  0  0  0  0  0  0
   55.8270   30.8660   51.6290 C   0  0  0  0  0  0  0  0  0  0  0  0
   57.1280   30.7080   51.2650 N   0  0  0  0  0  0  0  0  0  0  0  0
   57.7160   29.6890   51.9290 C   0  0  0  0  0  0  0  0  0  0  0  0
   58.9450   29.3350   51.6980 N   0  0  0  0  0  0  0  0  0  0  0  0
   59.7210   29.6850   50.5440 C   0  0  0  0  0  0  0  0  0  0  0  0
   59.9500   28.8030   49.6730 O   0  0  0  0  0  0  0  0  0  0  0  0
   60.1100   31.1080   50.2560 C   0  0  0  0  0  0  0  0  0  0  0  0
   59.7466   31.7569   51.0665 H   0  0  0  0  0  0  0  0  0  0  0  0
   61.2056   31.1779   50.1876 H   0  0  0  0  0  0  0  0  0  0  0  0
   59.5030   31.5490   48.9540 C   0  0  0  0  0  0  0  0  0  0  0  0
   60.0050   31.0640   47.7360 C   0  0  0  0  0  0  0  0  0  0  0  0
   60.8706   30.3853   47.7313 H   0  0  0  0  0  0  0  0  0  0  0  0
   59.4080   31.4410   46.5280 C   0  0  0  0  0  0  0  0  0  0  0  0
   59.8099   31.0638   45.5761 H   0  0  0  0  0  0  0  0  0  0  0  0
   58.2980   32.2990   46.5280 C   0  0  0  0  0  0  0  0  0  0  0  0
   57.5300   32.7750   45.0170 S   0  0  0  0  0  0  0  0  0  0  0  0
   58.5940   33.0400   43.9910 O   0  0  0  0  0  0  0  0  0  0  0  0
   56.7140   34.0240   45.1980 O   0  0  0  0  0  0  0  0  0  0  0  0
   56.5020   31.5000   44.4540 N   0  0  0  0  0  0  0  0  0  0  0  0
   56.7140   30.1090   44.7170 C   0  0  0  0  0  0  0  0  0  0  0  0
   55.7110   29.3740   44.9240 O   0  0  0  0  0  0  0  0  0  0  0  0
   58.0360   29.5450   44.7510 N   0  0  0  0  0  0  0  0  0  0  0  0
   58.8490   30.1310   44.4580 H   0  0  0  0  0  0  0  0  0  0  0  0
   58.2830   28.1570   45.1550 C   0  0  0  0  0  0  0  0  0  0  0  0
   58.0052   27.4904   44.3253 H   0  0  0  0  0  0  0  0  0  0  0  0
   57.4240   27.8080   46.3870 C   0  0  0  0  0  0  0  0  0  0  0  0
   57.6598   28.5109   47.1996 H   0  0  0  0  0  0  0  0  0  0  0  0
   56.3635   27.8830   46.1048 H   0  0  0  0  0  0  0  0  0  0  0  0
   57.6990   26.3760   46.8680 C   0  0  0  0  0  0  0  0  0  0  0  0
   57.1171   26.1860   47.7819 H   0  0  0  0  0  0  0  0  0  0  0  0
   57.4057   25.6772   46.0707 H   0  0  0  0  0  0  0  0  0  0  0  0
   59.1880   26.1720   47.1710 C   0  0  0  0  0  0  0  0  0  0  0  0
   59.4774   26.8229   48.0093 H   0  0  0  0  0  0  0  0  0  0  0  0
   59.3523   25.1157   47.4301 H   0  0  0  0  0  0  0  0  0  0  0  0
   60.0480   26.5160   45.9480 C   0  0  0  0  0  0  0  0  0  0  0  0
   61.1103   26.4207   46.2170 H   0  0  0  0  0  0  0  0  0  0  0  0
   59.7927   25.8218   45.1338 H   0  0  0  0  0  0  0  0  0  0  0  0
   59.7780   27.9490   45.4710 C   0  0  0  0  0  0  0  0  0  0  0  0
   60.0796   28.6532   46.2604 H   0  0  0  0  0  0  0  0  0  0  0  0
   60.3570   28.1263   44.5527 H   0  0  0  0  0  0  0  0  0  0  0  0
   57.7940   32.7790   47.7430 C   0  0  0  0  0  0  0  0  0  0  0  0
   56.9264   33.4552   47.7468 H   0  0  0  0  0  0  0  0  0  0  0  0
   58.3880   32.4030   48.9510 C   0  0  0  0  0  0  0  0  0  0  0  0
   57.9811   32.7770   49.9021 H   0  0  0  0  0  0  0  0  0  0  0  0
   56.6380   28.9180   52.9770 S   0  0  0  0  0  0  0  0  0  0  0  0
   55.3780   29.9670   52.5900 C   0  0  0  0  0  0  0  0  0  0  0  0
   53.9840   29.8730   53.1230 C   0  0  0  0  0  0  0  0  0  0  0  0
   53.7269   28.8157   53.2844 H   0  0  0  0  0  0  0  0  0  0  0  0
   53.9248   30.4224   54.0741 H   0  0  0  0  0  0  0  0  0  0  0  0
   53.0140   30.4770   52.1450 C   0  0  0  0  0  0  0  0  0  0  0  0
   52.8590   29.9190   50.8630 C   0  0  0  0  0  0  0  0  0  0  0  0
   53.4660   29.0512   50.5656 H   0  0  0  0  0  0  0  0  0  0  0  0
   51.9360   30.4640   49.9660 C   0  0  0  0  0  0  0  0  0  0  0  0
   51.8251   30.0304   48.9612 H   0  0  0  0  0  0  0  0  0  0  0  0
   51.1530   31.5600   50.3440 C   0  0  0  0  0  0  0  0  0  0  0  0
   50.4301   31.9898   49.6350 H   0  0  0  0  0  0  0  0  0  0  0  0
   51.2890   32.1100   51.6240 C   0  0  0  0  0  0  0  0  0  0  0  0
   50.5060   33.1940   52.0000 O   0  0  0  0  0  0  0  0  0  0  0  0
   52.2130   31.5690   52.5230 C   0  0  0  0  0  0  0  0  0  0  0  0
   52.3138   31.9995   53.5302 H   0  0  0  0  0  0  0  0  0  0  0  0
  1  2  1  0
  2  3  1  0
  3  4  1  0
  4  5  2  0
  5  6  1  0
  6  7  2  0
  6  8  1  0
  8  9  1  0
  8 10  1  0
  8 11  1  0
 11 12  2  0
 12 13  1  0
 12 14  1  0
 14 15  1  0
 14 16  2  0
 16 17  1  0
 17 18  2  0
 17 19  2  0
 17 20  1  0
 20 21  1  0
 21 22  2  0
 21 23  1  0
 23 24  1  0
 23 25  1  0
 25 26  1  0
 25 27  1  0
 27 28  1  0
 27 29  1  0
 27 30  1  0
 30 31  1  0
 30 32  1  0
 30 33  1  0
 33 34  1  0
 33 35  1  0
 33 36  1  0
 36 37  1  0
 36 38  1  0
 36 39  1  0
 39 40  1  0
 39 41  1  0
 16 42  1  0
 42 43  1  0
 42 44  2  0
 44 45  1  0
  4 46  1  0
 46 47  1  0
 47 48  1  0
 48 49  1  0
 48 50  1  0
 48 51  1  0
 51 52  2  0
 52 53  1  0
 52 54  1  0
 54 55  1  0
 54 56  2  0
 56 57  1  0
 56 58  1  0
 58 59  1  0
 58 60  2  0
 60 61  1  0
 47  2  2  0
 60 51  1  0
 44 11  1  0
 39 25  1  0
M  CHG  3   3  -1  20  -1  59  -1
M  END
>  <UniqueID>  (4) 
4

>  <SMILES>  (4) 
O=C(Cc1ccc(S(=O)(=O)[N-]C(=O)NC2CCCCC2)cc1)/N=c1/[n-]cc(Cc2cccc([O-])c2)s1

>  <Energy>  (4) 
91.31196460147798

>  <Genealogy>  (4) 
O=C(Cc1ccc(S(=O)(=O)[N-]C(=O)NC2CCCCC2)cc1)N=c1[n-]cc(Cc2cccc([O-])c2)s1 (protonated)
O=C(Cc1ccc(S(=O)(=O)[N-]C(=O)NC2CCCCC2)cc1)/N=c1/[n-]cc(Cc2cccc([O-])c2)s1 (cis-trans isomerization)
O=C(Cc1ccc(S(=O)(=O)[N-]C(=O)NC2CCCCC2)cc1)/N=c1/[n-]cc(Cc2cccc([O-])c2)s1 (3D coordinates assigned)
O=C(Cc1ccc(S(=O)(=O)[N-]C(=O)NC2CCCCC2)cc1)/N=c1/[n-]cc(Cc2cccc([O-])c2)s1 (nonaromatic ring conformer: 91.31196460147798 kcal/mol)

>  <smiles>  (4) 
O=C(Cc1ccc(S(=O)(=O)NC(=O)NC2CCCCC2)cc1)N=c1[nH]cc(Cc2cccc(O)c2)s1

>  <score_type>  (4) 
oracle

>  <origin>  (4) 
adg

>  <m_score__min__energy>  (4) 
-17.239999999999998

>  <m_primary>  (4) 
energy

$$$$
4:0
     RDKit          3D

 43 45  0  0  0  0  0  0  0  0999 V2000
   59.1790   33.8440   48.4150 N   0  0  0  0  0  0  0  0  0  0  0  0
   59.8400   34.2450   46.8690 S   0  0  0  0  0  0  0  0  0  0  0  0
   61.3160   33.9660   46.8610 O   0  0  0  0  0  0  0  0  0  0  0  0
   59.6240   35.7090   46.6070 O   0  0  0  0  0  0  0  0  0  0  0  0
   59.0490   33.2820   45.6250 C   0  0  0  0  0  0  0  0  0  0  0  0
   58.7410   33.8440   44.3790 C   0  0  0  0  0  0  0  0  0  0  0  0
   58.0960   33.0790   43.4040 C   0  0  0  0  0  0  0  0  0  0  0  0
   57.7340   31.7570   43.6780 C   0  0  0  0  0  0  0  0  0  0  0  0
   58.0070   31.1930   44.9290 C   0  0  0  0  0  0  0  0  0  0  0  0
   57.6050   29.8370   45.1730 N   0  0  0  0  0  0  0  0  0  0  0  0
   58.1730   28.9190   46.1200 C   0  0  0  0  0  0  0  0  0  0  0  0
   59.2090   29.2730   46.7430 O   0  0  0  0  0  0  0  0  0  0  0  0
   57.6270   27.5550   46.3330 C   0  0  0  0  0  0  0  0  0  0  0  0
   58.3940   26.5830   47.0020 C   0  0  0  0  0  0  0  0  0  0  0  0
   57.8960   25.2920   47.1940 C   0  0  0  0  0  0  0  0  0  0  0  0
   56.6230   24.9580   46.7340 C   0  0  0  0  0  0  0  0  0  0  0  0
   55.8370   25.9150   46.0850 C   0  0  0  0  0  0  0  0  0  0  0  0
   54.5320   25.5610   45.6260 N   0  0  0  0  0  0  0  0  0  0  0  0
   54.0430   23.9060   45.5270 S   0  0  0  0  0  0  0  0  0  0  0  0
   52.7270   23.8280   44.8040 O   0  0  0  0  0  0  0  0  0  0  0  0
   53.8570   23.3490   46.9110 O   0  0  0  0  0  0  0  0  0  0  0  0
   55.2540   22.9720   44.6480 C   0  0  0  0  0  0  0  0  0  0  0  0
   55.5760   23.3090   43.3250 C   0  0  0  0  0  0  0  0  0  0  0  0
   56.5690   22.6020   42.6400 C   0  0  0  0  0  0  0  0  0  0  0  0
   57.2510   21.5600   43.2750 C   0  0  0  0  0  0  0  0  0  0  0  0
   56.9400   21.2240   44.5950 C   0  0  0  0  0  0  0  0  0  0  0  0
   55.9440   21.9250   45.2820 C   0  0  0  0  0  0  0  0  0  0  0  0
   55.6680   21.5960   46.5680 F   0  0  0  0  0  0  0  0  0  0  0  0
   56.3290   27.2160   45.8950 C   0  0  0  0  0  0  0  0  0  0  0  0
   55.5280   28.1620   45.2600 O   0  0  0  0  0  0  0  0  0  0  0  0
   58.6940   31.9520   45.8930 C   0  0  0  0  0  0  0  0  0  0  0  0
   59.1110   34.7310   48.9610 H   0  0  0  0  0  0  0  0  0  0  0  0
   59.0077   34.8901   44.1680 H   0  0  0  0  0  0  0  0  0  0  0  0
   57.8729   33.5173   42.4201 H   0  0  0  0  0  0  0  0  0  0  0  0
   57.2315   31.1564   42.9055 H   0  0  0  0  0  0  0  0  0  0  0  0
   59.3950   26.8423   47.3772 H   0  0  0  0  0  0  0  0  0  0  0  0
   58.5092   24.5378   47.7089 H   0  0  0  0  0  0  0  0  0  0  0  0
   56.2360   23.9390   46.8820 H   0  0  0  0  0  0  0  0  0  0  0  0
   55.0454   24.1324   42.8246 H   0  0  0  0  0  0  0  0  0  0  0  0
   56.8137   22.8660   41.6006 H   0  0  0  0  0  0  0  0  0  0  0  0
   58.0324   21.0047   42.7355 H   0  0  0  0  0  0  0  0  0  0  0  0
   57.4798   20.4063   45.0949 H   0  0  0  0  0  0  0  0  0  0  0  0
   58.9542   31.5005   46.8617 H   0  0  0  0  0  0  0  0  0  0  0  0
  1  2  1  0
  2  3  2  0
  2  4  2  0
  2  5  1  0
  5  6  2  0
  6  7  1  0
  7  8  2  0
  8  9  1  0
  9 10  1  0
 10 11  1  0
 11 12  2  0
 11 13  1  0
 13 14  2  0
 14 15  1  0
 15 16  2  0
 16 17  1  0
 17 18  1  0
 18 19  1  0
 19 20  2  0
 19 21  2  0
 19 22  1  0
 22 23  2  0
 23 24  1  0
 24 25  2  0
 25 26  1  0
 26 27  2  0
 27 28  1  0
 17 29  2  0
 29 30  1  0
  9 31  2  0
 31  5  1  0
 29 13  1  0
 27 22  1  0
  1 32  1  0
  6 33  1  0
  7 34  1  0
  8 35  1  0
 14 36  1  0
 15 37  1  0
 16 38  1  0
 23 39  1  0
 24 40  1  0
 25 41  1  0
 26 42  1  0
 31 43  1  0
M  CHG  4   1  -1  10  -1  18  -1  30  -1
M  END
>  <UniqueID>  (5) 
5

>  <SMILES>  (5) 
[NH-]S(=O)(=O)c1cccc([N-]C(=O)c2cccc([N-]S(=O)(=O)c3ccccc3F)c2[O-])c1

>  <Energy>  (5) 
61.339017779975755

>  <Genealogy>  (5) 
[NH-]S(=O)(=O)c1cccc([N-]C(=O)c2cccc([N-]S(=O)(=O)c3ccccc3F)c2[O-])c1 (protonated)
[NH-]S(=O)(=O)c1cccc([N-]C(=O)c2cccc([N-]S(=O)(=O)c3ccccc3F)c2[O-])c1 (3D coordinates assigned)
[NH-]S(=O)(=O)c1cccc([N-]C(=O)c2cccc([N-]S(=O)(=O)c3ccccc3F)c2[O-])c1 (optimized conformer: 61.339017779975755 kcal/mol)

>  <smiles>  (5) 
NS(=O)(=O)c1cccc(NC(=O)c2cccc(NS(=O)(=O)c3ccccc3F)c2O)c1

>  <score_type>  (5) 
oracle

>  <origin>  (5) 
adg

>  <m_score__min__energy>  (5) 
-17.100000000000001

>  <m_primary>  (5) 
energy

$$$$
5:0
     RDKit          3D

 73 75  0  0  0  0  0  0  0  0999 V2000
   63.3260   31.7480   47.2260 C   0  0  0  0  0  0  0  0  0  0  0  0
   62.0900   32.4260   47.7480 C   0  0  0  0  0  0  0  0  0  0  0  0
   62.0910   33.8130   47.9550 C   0  0  0  0  0  0  0  0  0  0  0  0
   60.9520   34.4570   48.4380 C   0  0  0  0  0  0  0  0  0  0  0  0
   59.8060   33.7230   48.7430 C   0  0  0  0  0  0  0  0  0  0  0  0
   59.7890   32.3300   48.5760 C   0  0  0  0  0  0  0  0  0  0  0  0
   58.5500   31.5580   48.9440 C   0  0  0  0  0  0  0  0  0  0  0  0
   60.9300   31.6780   48.0520 C   0  0  0  0  0  0  0  0  0  0  0  0
   60.9230   30.2580   47.8400 N   0  0  0  0  0  0  0  0  0  0  0  0
   60.8880   29.3290   48.9290 C   0  0  0  0  0  0  0  0  0  0  0  0
   60.9540   29.7430   50.1190 O   0  0  0  0  0  0  0  0  0  0  0  0
   60.7430   27.9320   48.6530 N   0  0  0  0  0  0  0  0  0  0  0  0
   60.1530   27.3810   47.4700 C   0  0  0  0  0  0  0  0  0  0  0  0
   60.4990   26.2490   47.0410 O   0  0  0  0  0  0  0  0  0  0  0  0
   59.1360   28.1770   46.7170 C   0  0  0  0  0  0  0  0  0  0  0  0
   59.7920   28.7050   45.1420 S   0  0  0  0  0  0  0  0  0  0  0  0
   61.2730   28.9530   45.2580 O   0  0  0  0  0  0  0  0  0  0  0  0
   59.5550   27.6290   44.1190 O   0  0  0  0  0  0  0  0  0  0  0  0
   58.9540   30.1520   44.6520 N   0  0  0  0  0  0  0  0  0  0  0  0
   57.7070   29.8410   43.9340 C   0  0  2  0  0  0  0  0  0  0  0  0
   56.9730   31.1530   43.6150 C   0  0  0  0  0  0  0  0  0  0  0  0
   57.5510   32.3180   44.3810 C   0  0  0  0  0  0  0  0  0  0  0  0
   58.5530   33.1170   43.8030 C   0  0  0  0  0  0  0  0  0  0  0  0
   59.0620   34.2210   44.4970 C   0  0  0  0  0  0  0  0  0  0  0  0
   58.5650   34.5400   45.7650 C   0  0  0  0  0  0  0  0  0  0  0  0
   57.5590   33.7590   46.3390 C   0  0  0  0  0  0  0  0  0  0  0  0
   57.0490   32.6540   45.6500 C   0  0  0  0  0  0  0  0  0  0  0  0
   56.8140   28.9210   44.7420 C   0  0  0  0  0  0  0  0  0  0  0  0
   55.7330   29.3620   45.2240 O   0  0  0  0  0  0  0  0  0  0  0  0
   57.1490   27.5310   44.8760 N   0  0  0  0  0  0  0  0  0  0  0  0
   56.3160   26.6000   45.6320 C   0  0  0  0  0  0  0  0  0  0  0  0
   56.6040   25.1850   45.2140 C   0  0  0  0  0  0  0  0  0  0  0  0
   56.8290   24.8700   43.8660 C   0  0  0  0  0  0  0  0  0  0  0  0
   57.0770   23.5490   43.4790 C   0  0  0  0  0  0  0  0  0  0  0  0
   57.0970   22.5180   44.4350 C   0  0  0  0  0  0  0  0  0  0  0  0
   57.4230   21.0990   44.0080 C   0  0  0  0  0  0  0  0  0  0  0  0
   57.3950   20.2100   45.1700 N   0  0  0  0  0  0  0  0  0  0  0  0
   56.4860   20.6150   42.9870 N   0  0  0  0  0  0  0  0  0  0  0  0
   56.8770   22.8390   45.7870 C   0  0  0  0  0  0  0  0  0  0  0  0
   56.6130   24.1570   46.1700 C   0  0  0  0  0  0  0  0  0  0  0  0
   63.9432   31.4094   48.0712 H   0  0  0  0  0  0  0  0  0  0  0  0
   63.0377   30.8818   46.6124 H   0  0  0  0  0  0  0  0  0  0  0  0
   63.9016   32.4567   46.6124 H   0  0  0  0  0  0  0  0  0  0  0  0
   62.9966   34.3973   47.7349 H   0  0  0  0  0  0  0  0  0  0  0  0
   60.9576   35.5479   48.5789 H   0  0  0  0  0  0  0  0  0  0  0  0
   58.9097   34.2395   49.1169 H   0  0  0  0  0  0  0  0  0  0  0  0
   58.4634   31.5040   50.0393 H   0  0  0  0  0  0  0  0  0  0  0  0
   57.6657   32.0652   48.5308 H   0  0  0  0  0  0  0  0  0  0  0  0
   58.6156   30.5407   48.5308 H   0  0  0  0  0  0  0  0  0  0  0  0
   60.7480   29.9010   46.8760 H   0  0  0  0  0  0  0  0  0  0  0  0
   58.2441   27.5560   46.5473 H   0  0  0  0  0  0  0  0  0  0  0  0
   58.8732   29.0667   47.3081 H   0  0  0  0  0  0  0  0  0  0  0  0
   58.7650   30.7350   45.5020 H   0  0  0  0  0  0  0  0  0  0  0  0
   57.9591   29.3157   43.0010 H   0  0  0  0  0  0  0  0  0  0  0  0
   57.0598   31.3569   42.5375 H   0  0  0  0  0  0  0  0  0  0  0  0
   55.9201   31.0370   43.9114 H   0  0  0  0  0  0  0  0  0  0  0  0
   58.9384   32.8738   42.8018 H   0  0  0  0  0  0  0  0  0  0  0  0
   59.8529   34.8377   44.0452 H   0  0  0  0  0  0  0  0  0  0  0  0
   58.9667   35.4066   46.3106 H   0  0  0  0  0  0  0  0  0  0  0  0
   57.1672   34.0136   47.3348 H   0  0  0  0  0  0  0  0  0  0  0  0
   56.2522   32.0457   46.1029 H   0  0  0  0  0  0  0  0  0  0  0  0
   58.0130   27.1670   44.4170 H   0  0  0  0  0  0  0  0  0  0  0  0
   56.5290   26.7118   46.7054 H   0  0  0  0  0  0  0  0  0  0  0  0
   55.2576   26.8237   45.4327 H   0  0  0  0  0  0  0  0  0  0  0  0
   56.8103   25.6671   43.1081 H   0  0  0  0  0  0  0  0  0  0  0  0
   57.2576   23.3150   42.4195 H   0  0  0  0  0  0  0  0  0  0  0  0
   58.4315   21.1013   43.5688 H   0  0  0  0  0  0  0  0  0  0  0  0
   57.1090   19.2580   44.8440 H   0  0  0  0  0  0  0  0  0  0  0  0
   58.3730   20.1140   45.5360 H   0  0  0  0  0  0  0  0  0  0  0  0
   56.7600   19.6570   42.6680 H   0  0  0  0  0  0  0  0  0  0  0  0
   55.5240   20.5530   43.4000 H   0  0  0  0  0  0  0  0  0  0  0  0
   56.9131   22.0463   46.5488 H   0  0  0  0  0  0  0  0  0  0  0  0
   56.4112   24.3900   47.2259 H   0  0  0  0  0  0  0  0  0  0  0  0
  1  2  1  0
  2  3  2  0
  3  4  1  0
  4  5  2  0
  5  6  1  0
  6  7  1  0
  6  8  2  0
  8  9  1  0
  9 10  1  0
 10 11  2  0
 10 12  1  0
 12 13  1  0
 13 14  2  0
 13 15  1  0
 15 16  1  0
 16 17  2  0
 16 18  2  0
 16 19  1  0
 19 20  1  0
 20 21  1  0
 21 22  1  0
 22 23  2  0
 23 24  1  0
 24 25  2  0
 25 26  1  0
 26 27  2  0
 20 28  1  0
 28 29  2  0
 28 30  1  0
 30 31  1  0
 31 32  1  0
 32 33  2  0
 33 34  1  0
 34 35  2  0
 35 36  1  0
 36 37  1  0
 36 38  1  0
 35 39  1  0
 39 40  2  0
  8  2  1  0
 27 22  1  0
 40 32  1  0
  1 41  1  0
  1 42  1  0
  1 43  1  0
  3 44  1  0
  4 45  1  0
  5 46  1  0
  7 47  1  0
  7 48  1  0
  7 49  1  0
  9 50  1  0
 15 51  1  0
 15 52  1  0
 19 53  1  0
 20 54  1  6
 21 55  1  0
 21 56  1  0
 23 57  1  0
 24 58  1  0
 25 59  1  0
 26 60  1  0
 27 61  1  0
 30 62  1  0
 31 63  1  0
 31 64  1  0
 33 65  1  0
 34 66  1  0
 36 67  1  0
 37 68  1  0
 37 69  1  0
 38 70  1  0
 38 71  1  0
 39 72  1  0
 40 73  1  0
M  CHG  1  12  -1
M  END
>  <UniqueID>  (6) 
6

>  <SMILES>  (6) 
Cc1cccc(C)c1NC(=O)[N-]C(=O)CS(=O)(=O)N[C@H](Cc1ccccc1)C(=O)NCc1ccc(C(N)N)cc1

>  <Energy>  (6) 
67.64029965918108

>  <Genealogy>  (6) 
Cc1cccc(C)c1NC(=O)[N-]C(=O)CS(=O)(=O)NC(Cc1ccccc1)C(=O)NCc1ccc(C(N)N)cc1 (protonated)
Cc1cccc(C)c1NC(=O)[N-]C(=O)CS(=O)(=O)N[C@H](Cc1ccccc1)C(=O)NCc1ccc(C(N)N)cc1 (chirality)
Cc1cccc(C)c1NC(=O)[N-]C(=O)CS(=O)(=O)N[C@H](Cc1ccccc1)C(=O)NCc1ccc(C(N)N)cc1 (3D coordinates assigned)
Cc1cccc(C)c1NC(=O)[N-]C(=O)CS(=O)(=O)N[C@H](Cc1ccccc1)C(=O)NCc1ccc(C(N)N)cc1 (optimized conformer: 67.64029965918108 kcal/mol)

>  <smiles>  (6) 
Cc1cccc(C)c1NC(=O)NC(=O)CS(=O)(=O)NC(Cc1ccccc1)C(=O)NCc1ccc(C(N)N)cc1

>  <score_type>  (6) 
oracle

>  <origin>  (6) 
adg

>  <m_score__min__energy>  (6) 
-10.949999999999999

>  <m_primary>  (6) 
energy

$$$$
6:0
     RDKit          3D

 47 49  0  0  0  0  0  0  0  0999 V2000
   55.8500   25.9420   46.0000 C   0  0  0  0  0  0  0  0  0  0  0  0
   57.0580   26.8010   46.2500 C   0  0  0  0  0  0  0  0  0  0  0  0
   58.1530   26.2810   46.9610 C   0  0  0  0  0  0  0  0  0  0  0  0
   59.2790   27.0720   47.2030 C   0  0  0  0  0  0  0  0  0  0  0  0
   59.3260   28.3840   46.7300 C   0  0  0  0  0  0  0  0  0  0  0  0
   58.2390   28.9150   46.0310 C   0  0  0  0  0  0  0  0  0  0  0  0
   57.0870   28.1400   45.8090 C   0  0  0  0  0  0  0  0  0  0  0  0
   55.9780   28.6770   45.0730 N   0  0  0  0  0  0  0  0  0  0  0  0
   56.0400   29.7180   44.0860 C   0  0  0  0  0  0  0  0  0  0  0  0
   55.8330   29.4210   42.8800 O   0  0  0  0  0  0  0  0  0  0  0  0
   56.2500   31.1590   44.4580 C   0  0  0  0  0  0  0  0  0  0  0  0
   57.7680   31.8120   43.6800 S   0  0  0  0  0  0  0  0  0  0  0  0
   58.2710   32.7820   45.1000 C   0  0  0  0  0  0  0  0  0  0  0  0
   58.8330   34.0060   44.9240 N   0  0  0  0  0  0  0  0  0  0  0  0
   59.2110   34.7560   45.9900 C   0  0  0  0  0  0  0  0  0  0  0  0
   59.7200   35.8920   45.8040 O   0  0  0  0  0  0  0  0  0  0  0  0
   59.0290   34.2700   47.2860 C   0  0  0  0  0  0  0  0  0  0  0  0
   58.4490   33.0040   47.4530 C   0  0  0  0  0  0  0  0  0  0  0  0
   58.2080   32.4340   48.7450 N   0  0  0  0  0  0  0  0  0  0  0  0
   59.3560   31.5450   49.6900 S   0  0  0  0  0  0  0  0  0  0  0  0
   60.0180   32.4600   50.6800 O   0  0  0  0  0  0  0  0  0  0  0  0
   58.6290   30.4690   50.4440 O   0  0  0  0  0  0  0  0  0  0  0  0
   60.5670   30.7940   48.6140 C   0  0  0  0  0  0  0  0  0  0  0  0
   61.6810   31.7590   48.3140 C   0  0  0  0  0  0  0  0  0  0  0  0
   61.6770   32.4950   47.1150 C   0  0  0  0  0  0  0  0  0  0  0  0
   62.7150   33.3880   46.8360 C   0  0  0  0  0  0  0  0  0  0  0  0
   63.7690   33.5440   47.7470 C   0  0  0  0  0  0  0  0  0  0  0  0
   63.7870   32.8020   48.9310 C   0  0  0  0  0  0  0  0  0  0  0  0
   62.7490   31.9120   49.2180 C   0  0  0  0  0  0  0  0  0  0  0  0
   58.0870   32.2920   46.3530 N   0  0  0  0  0  0  0  0  0  0  0  0
   55.4148   25.6325   46.9617 H   0  0  0  0  0  0  0  0  0  0  0  0
   55.1051   26.5144   45.4277 H   0  0  0  0  0  0  0  0  0  0  0  0
   56.1461   25.0505   45.4277 H   0  0  0  0  0  0  0  0  0  0  0  0
   58.1234   25.2449   47.3292 H   0  0  0  0  0  0  0  0  0  0  0  0
   60.1291   26.6602   47.7668 H   0  0  0  0  0  0  0  0  0  0  0  0
   60.2195   29.0006   46.9076 H   0  0  0  0  0  0  0  0  0  0  0  0
   58.2848   29.9465   45.6517 H   0  0  0  0  0  0  0  0  0  0  0  0
   55.3868   31.7494   44.1170 H   0  0  0  0  0  0  0  0  0  0  0  0
   56.3537   31.2306   45.5508 H   0  0  0  0  0  0  0  0  0  0  0  0
   59.3341   34.8674   48.1578 H   0  0  0  0  0  0  0  0  0  0  0  0
   60.9838   29.9026   49.1056 H   0  0  0  0  0  0  0  0  0  0  0  0
   60.0768   30.5143   47.6698 H   0  0  0  0  0  0  0  0  0  0  0  0
   60.8548   32.3672   46.3955 H   0  0  0  0  0  0  0  0  0  0  0  0
   62.7050   33.9685   45.9017 H   0  0  0  0  0  0  0  0  0  0  0  0
   64.5829   34.2513   47.5296 H   0  0  0  0  0  0  0  0  0  0  0  0
   64.6207   32.9190   49.6390 H   0  0  0  0  0  0  0  0  0  0  0  0
   62.7664   31.3302   50.1514 H   0  0  0  0  0  0  0  0  0  0  0  0
  1  2  1  0
  2  3  2  0
  3  4  1  0
  4  5  2  0
  5  6  1  0
  6  7  2  0
  7  8  1  0
  8  9  1  0
  9 10  2  0
  9 11  1  0
 11 12  1  0
 12 13  1  0
 13 14  2  0
 14 15  1  0
 15 16  2  0
 15 17  1  0
 17 18  2  0
 18 19  1  0
 19 20  1  0
 20 21  2  0
 20 22  2  0
 20 23  1  0
 23 24  1  0
 24 25  2  0
 25 26  1  0
 26 27  2  0
 27 28  1  0
 28 29  2  0
 18 30  1  0
  7  2  1  0
 30 13  1  0
 29 24  1  0
  1 31  1  0
  1 32  1  0
  1 33  1  0
  3 34  1  0
  4 35  1  0
  5 36  1  0
  6 37  1  0
 11 38  1  0
 11 39  1  0
 17 40  1  0
 23 41  1  0
 23 42  1  0
 25 43  1  0
 26 44  1  0
 27 45  1  0
 28 46  1  0
 29 47  1  0
M  CHG  3   8  -1  19  -1  30  -1
M  END
>  <UniqueID>  (7) 
7

>  <SMILES>  (7) 
Cc1ccccc1[N-]C(=O)CSc1nc(=O)cc([N-]S(=O)(=O)Cc2ccccc2)[n-]1

>  <Energy>  (7) 
50.870877920517465

>  <Genealogy>  (7) 
Cc1ccccc1[N-]C(=O)CSc1nc(=O)cc([N-]S(=O)(=O)Cc2ccccc2)[n-]1 (protonated)
Cc1ccccc1[N-]C(=O)CSc1nc(=O)cc([N-]S(=O)(=O)Cc2ccccc2)[n-]1 (3D coordinates assigned)
Cc1ccccc1[N-]C(=O)CSc1nc(=O)cc([N-]S(=O)(=O)Cc2ccccc2)[n-]1 (optimized conformer: 50.870877920517465 kcal/mol)

>  <smiles>  (7) 
Cc1ccccc1NC(=O)CSc1nc(=O)cc(NS(=O)(=O)Cc2ccccc2)[nH]1

>  <score_type>  (7) 
oracle

>  <origin>  (7) 
adg

>  <m_score__min__energy>  (7) 
-14.130000000000001

>  <m_primary>  (7) 
energy

$$$$
7:0
     RDKit          3D

 48 50  0  0  0  0  0  0  0  0999 V2000
   59.5190   26.6490   48.0700 O   0  0  0  0  0  0  0  0  0  0  0  0
   58.9670   27.4540   47.2690 C   0  0  0  0  0  0  0  0  0  0  0  0
   57.4860   27.3220   47.0020 C   0  0  0  0  0  0  0  0  0  0  0  0
   57.1540   26.0400   46.2780 C   0  0  0  0  0  0  0  0  0  0  0  0
   58.1680   25.1040   46.0100 C   0  0  0  0  0  0  0  0  0  0  0  0
   57.8760   23.9260   45.3150 C   0  0  0  0  0  0  0  0  0  0  0  0
   56.5740   23.6760   44.8770 C   0  0  0  0  0  0  0  0  0  0  0  0
   55.5620   24.6060   45.1250 C   0  0  0  0  0  0  0  0  0  0  0  0
   55.8460   25.7890   45.8170 C   0  0  0  0  0  0  0  0  0  0  0  0
   54.8270   26.7090   46.0410 O   0  0  0  0  0  0  0  0  0  0  0  0
   59.7530   28.5130   46.6720 N   0  0  0  0  0  0  0  0  0  0  0  0
   60.4760   29.4520   47.5440 C   0  0  0  0  0  0  0  0  0  0  0  0
   59.4890   30.3880   48.2470 C   0  0  0  0  0  0  0  0  0  0  0  0
   59.6190   31.7910   47.7190 C   0  0  0  0  0  0  0  0  0  0  0  0
   58.5220   32.6670   47.7590 C   0  0  0  0  0  0  0  0  0  0  0  0
   58.6340   33.9600   47.2390 C   0  0  0  0  0  0  0  0  0  0  0  0
   59.8360   34.3830   46.6670 C   0  0  0  0  0  0  0  0  0  0  0  0
   60.9290   33.5120   46.6110 C   0  0  0  0  0  0  0  0  0  0  0  0
   60.8210   32.2190   47.1300 C   0  0  0  0  0  0  0  0  0  0  0  0
   59.8200   28.6890   45.2110 C   0  0  0  0  0  0  0  0  0  0  0  0
   58.5530   29.3260   44.6830 C   0  0  0  0  0  0  0  0  0  0  0  0
   58.1850   30.5970   45.1600 C   0  0  0  0  0  0  0  0  0  0  0  0
   57.0260   31.2240   44.6950 C   0  0  0  0  0  0  0  0  0  0  0  0
   56.6690   32.4750   45.1840 O   0  0  0  0  0  0  0  0  0  0  0  0
   56.2260   30.5940   43.7400 C   0  0  0  0  0  0  0  0  0  0  0  0
   56.5870   29.3410   43.2440 C   0  0  0  0  0  0  0  0  0  0  0  0
   57.7470   28.7020   43.7010 C   0  0  0  0  0  0  0  0  0  0  0  0
   58.1440   27.1310   43.0100 Cl  0  0  0  0  0  0  0  0  0  0  0  0
   56.9494   27.3368   47.9621 H   0  0  0  0  0  0  0  0  0  0  0  0
   57.1799   28.1627   46.3620 H   0  0  0  0  0  0  0  0  0  0  0  0
   59.1962   25.2991   46.3486 H   0  0  0  0  0  0  0  0  0  0  0  0
   58.6732   23.1954   45.1131 H   0  0  0  0  0  0  0  0  0  0  0  0
   56.3452   22.7459   44.3362 H   0  0  0  0  0  0  0  0  0  0  0  0
   54.5381   24.4080   44.7752 H   0  0  0  0  0  0  0  0  0  0  0  0
   61.0403   28.8854   48.2993 H   0  0  0  0  0  0  0  0  0  0  0  0
   61.1655   30.0519   46.9318 H   0  0  0  0  0  0  0  0  0  0  0  0
   58.4639   30.0296   48.0716 H   0  0  0  0  0  0  0  0  0  0  0  0
   59.7122   30.3932   49.3241 H   0  0  0  0  0  0  0  0  0  0  0  0
   57.5712   32.3346   48.2011 H   0  0  0  0  0  0  0  0  0  0  0  0
   57.7744   34.6451   47.2804 H   0  0  0  0  0  0  0  0  0  0  0  0
   59.9231   35.4014   46.2605 H   0  0  0  0  0  0  0  0  0  0  0  0
   61.8744   33.8451   46.1580 H   0  0  0  0  0  0  0  0  0  0  0  0
   61.6799   31.5338   47.0773 H   0  0  0  0  0  0  0  0  0  0  0  0
   60.6764   29.3341   44.9653 H   0  0  0  0  0  0  0  0  0  0  0  0
   59.9361   27.7000   44.7438 H   0  0  0  0  0  0  0  0  0  0  0  0
   58.8157   31.1023   45.9063 H   0  0  0  0  0  0  0  0  0  0  0  0
   55.3108   31.0857   43.3785 H   0  0  0  0  0  0  0  0  0  0  0  0
   55.9558   28.8509   42.4881 H   0  0  0  0  0  0  0  0  0  0  0  0
  1  2  2  0
  2  3  1  0
  3  4  1  0
  4  5  2  0
  5  6  1  0
  6  7  2  0
  7  8  1  0
  8  9  2  0
  9 10  1  0
  2 11  1  0
 11 12  1  0
 12 13  1  0
 13 14  1  0
 14 15  2  0
 15 16  1  0
 16 17  2  0
 17 18  1  0
 18 19  2  0
 11 20  1  0
 20 21  1  0
 21 22  2  0
 22 23  1  0
 23 24  1  0
 23 25  2  0
 25 26  1  0
 26 27  2  0
 27 28  1  0
  9  4  1  0
 19 14  1  0
 27 21  1  0
  3 29  1  0
  3 30  1  0
  5 31  1  0
  6 32  1  0
  7 33  1  0
  8 34  1  0
 12 35  1  0
 12 36  1  0
 13 37  1  0
 13 38  1  0
 15 39  1  0
 16 40  1  0
 17 41  1  0
 18 42  1  0
 19 43  1  0
 20 44  1  0
 20 45  1  0
 22 46  1  0
 25 47  1  0
 26 48  1  0
M  CHG  2  10  -1  24  -1
M  END
>  <UniqueID>  (8) 
8

>  <SMILES>  (8) 
O=C(Cc1ccccc1[O-])N(CCc1ccccc1)Cc1cc([O-])ccc1Cl

>  <Energy>  (8) 
48.41918243053099

>  <Genealogy>  (8) 
O=C(Cc1ccccc1[O-])N(CCc1ccccc1)Cc1cc([O-])ccc1Cl (protonated)
O=C(Cc1ccccc1[O-])N(CCc1ccccc1)Cc1cc([O-])ccc1Cl (3D coordinates assigned)
O=C(Cc1ccccc1[O-])N(CCc1ccccc1)Cc1cc([O-])ccc1Cl (optimized conformer: 48.41918243053099 kcal/mol)

>  <smiles>  (8) 
O=C(Cc1ccccc1O)N(CCc1ccccc1)Cc1cc(O)ccc1Cl

>  <score_type>  (8) 
oracle

>  <origin>  (8) 
adg

>  <m_score__min__energy>  (8) 
-14.48

>  <m_primary>  (8) 
energy

$$$$
8:0
     RDKit          3D

 29 31  0  0  0  0  0  0  0  0999 V2000
   54.7720   26.7100   45.9940 O   0  0  0  0  0  0  0  0  0  0  0  0
   56.1200   26.4660   46.2340 C   0  0  0  0  0  0  0  0  0  0  0  0
   56.5000   25.2410   46.7940 C   0  0  0  0  0  0  0  0  0  0  0  0
   57.8510   24.9490   46.9960 C   0  0  0  0  0  0  0  0  0  0  0  0
   58.8290   25.8790   46.6330 C   0  0  0  0  0  0  0  0  0  0  0  0
   58.4560   27.1080   46.0800 C   0  0  0  0  0  0  0  0  0  0  0  0
   57.0990   27.4210   45.8960 C   0  0  0  0  0  0  0  0  0  0  0  0
   56.7360   28.7360   45.3280 C   0  0  0  0  0  0  0  0  0  0  0  0
   55.6440   28.9290   44.5600 N   0  0  0  0  0  0  0  0  0  0  0  0
   55.6250   30.2090   44.2200 N   0  0  0  0  0  0  0  0  0  0  0  0
   56.7060   30.7780   44.7830 C   0  0  0  0  0  0  0  0  0  0  0  0
   57.1170   32.3450   44.5410 S   0  0  0  0  0  0  0  0  0  0  0  0
   57.4350   29.8840   45.4820 N   0  0  0  0  0  0  0  0  0  0  0  0
   58.7120   30.0840   46.1150 C   0  0  0  0  0  0  0  0  0  0  0  0
   58.7710   30.6030   47.4180 C   0  0  0  0  0  0  0  0  0  0  0  0
   60.0030   30.7820   48.0520 C   0  0  0  0  0  0  0  0  0  0  0  0
   61.1860   30.4500   47.3900 C   0  0  0  0  0  0  0  0  0  0  0  0
   61.1410   29.9420   46.0890 C   0  0  0  0  0  0  0  0  0  0  0  0
   59.9080   29.7630   45.4430 C   0  0  0  0  0  0  0  0  0  0  0  0
   59.8690   29.2840   44.1340 O   0  0  0  0  0  0  0  0  0  0  0  0
   55.7322   24.5056   47.0761 H   0  0  0  0  0  0  0  0  0  0  0  0
   58.1451   23.9869   47.4408 H   0  0  0  0  0  0  0  0  0  0  0  0
   59.8932   25.6440   46.7824 H   0  0  0  0  0  0  0  0  0  0  0  0
   59.2293   27.8335   45.7875 H   0  0  0  0  0  0  0  0  0  0  0  0
   57.8419   30.8703   47.9428 H   0  0  0  0  0  0  0  0  0  0  0  0
   60.0407   31.1853   49.0747 H   0  0  0  0  0  0  0  0  0  0  0  0
   62.1545   30.5883   47.8928 H   0  0  0  0  0  0  0  0  0  0  0  0
   62.0750   29.6816   45.5695 H   0  0  0  0  0  0  0  0  0  0  0  0
   59.0820   29.4720   43.5240 H   0  0  0  0  0  0  0  0  0  0  0  0
  1  2  1  0
  2  3  2  0
  3  4  1  0
  4  5  2  0
  5  6  1  0
  6  7  2  0
  7  8  1  0
  8  9  2  0
  9 10  1  0
 10 11  1  0
 11 12  2  0
 11 13  1  0
 13 14  1  0
 14 15  2  0
 15 16  1  0
 16 17  2  0
 17 18  1  0
 18 19  2  0
 19 20  1  0
  7  2  1  0
 13  8  1  0
 19 14  1  0
  3 21  1  0
  4 22  1  0
  5 23  1  0
  6 24  1  0
 15 25  1  0
 16 26  1  0
 17 27  1  0
 18 28  1  0
 20 29  1  0
M  CHG  2   1  -1  10  -1
M  END
>  <UniqueID>  (9) 
9

>  <SMILES>  (9) 
[O-]c1ccccc1-c1n[n-]c(=S)n1-c1ccccc1O

>  <Energy>  (9) 
79.40343345480403

>  <Genealogy>  (9) 
[O-]c1ccccc1-c1n[n-]c(=S)n1-c1ccccc1O (protonated)
[O-]c1ccccc1-c1n[n-]c(=S)n1-c1ccccc1O (3D coordinates assigned)
[O-]c1ccccc1-c1n[n-]c(=S)n1-c1ccccc1O (optimized conformer: 79.40343345480403 kcal/mol)

>  <smiles>  (9) 
Oc1ccccc1-c1n[nH]c(=S)n1-c1ccccc1O

>  <score_type>  (9) 
oracle

>  <origin>  (9) 
adg

>  <m_score__min__energy>  (9) 
-12.02

>  <m_primary>  (9) 
energy

$$$$
9:0
     RDKit          3D

 56 58  0  0  0  0  0  0  0  0999 V2000
   58.1819   28.6899   44.0379 H   0  0  0  0  0  0  0  0  0  0  0  0
   57.4740   28.8670   44.8610 C   0  0  0  0  0  0  0  0  0  0  0  0
   56.4960   29.9610   44.6930 C   0  0  0  0  0  0  0  0  0  0  0  0
   55.3850   29.7080   44.1510 O   0  0  0  0  0  0  0  0  0  0  0  0
   56.8070   31.2690   45.0790 O   0  0  0  0  0  0  0  0  0  0  0  0
   58.0160   31.9330   44.7160 C   0  0  0  0  0  0  0  0  0  0  0  0
   58.2475   31.7022   43.6657 H   0  0  0  0  0  0  0  0  0  0  0  0
   58.8148   31.5783   45.3839 H   0  0  0  0  0  0  0  0  0  0  0  0
   57.9030   33.4220   44.8730 C   0  0  0  0  0  0  0  0  0  0  0  0
   57.0330   34.0300   44.1950 O   0  0  0  0  0  0  0  0  0  0  0  0
   58.7620   34.1930   45.7240 N   0  0  0  0  0  0  0  0  0  0  0  0
   59.5470   33.7860   46.8550 C   0  0  0  0  0  0  0  0  0  0  0  0
   58.8750   33.4810   48.0440 C   0  0  0  0  0  0  0  0  0  0  0  0
   57.7809   33.5837   48.0929 H   0  0  0  0  0  0  0  0  0  0  0  0
   59.5790   33.0480   49.1680 C   0  0  0  0  0  0  0  0  0  0  0  0
   59.0370   32.7937   50.0908 H   0  0  0  0  0  0  0  0  0  0  0  0
   60.9680   32.9370   49.1240 C   0  0  0  0  0  0  0  0  0  0  0  0
   61.5225   32.6258   50.0216 H   0  0  0  0  0  0  0  0  0  0  0  0
   61.6590   33.2210   47.9390 C   0  0  0  0  0  0  0  0  0  0  0  0
   63.4140   33.0540   47.9170 S   0  0  0  0  0  0  0  0  0  0  0  0
   63.9800   33.7740   46.7240 O   0  0  0  0  0  0  0  0  0  0  0  0
   63.7440   31.5920   47.7960 O   0  0  0  0  0  0  0  0  0  0  0  0
   64.1770   33.6680   49.3550 N   0  0  0  0  0  0  0  0  0  0  0  0
   64.9190   33.0090   50.2020 C   0  0  0  0  0  0  0  0  0  0  0  0
   64.5620   31.6290   50.4430 N   0  0  0  0  0  0  0  0  0  0  0  0
   63.8670   31.1950   49.7920 H   0  0  0  0  0  0  0  0  0  0  0  0
   65.0940   30.7670   51.5070 C   0  0  0  0  0  0  0  0  0  0  0  0
   64.4856   29.8522   51.5623 H   0  0  0  0  0  0  0  0  0  0  0  0
   65.0528   31.3257   52.4537 H   0  0  0  0  0  0  0  0  0  0  0  0
   66.5530   30.3780   51.2450 C   0  0  0  0  0  0  0  0  0  0  0  0
   66.6531   30.0712   50.1934 H   0  0  0  0  0  0  0  0  0  0  0  0
   66.8091   29.5573   51.9312 H   0  0  0  0  0  0  0  0  0  0  0  0
   67.5310   31.5400   51.5170 C   0  0  0  0  0  0  0  0  0  0  0  0
   68.5552   31.1393   51.4932 H   0  0  0  0  0  0  0  0  0  0  0  0
   67.2543   31.9580   52.4961 H   0  0  0  0  0  0  0  0  0  0  0  0
   67.4450   32.6980   50.5080 C   0  0  0  0  0  0  0  0  0  0  0  0
   67.3882   32.2765   49.4936 H   0  0  0  0  0  0  0  0  0  0  0  0
   68.3417   33.3208   50.6422 H   0  0  0  0  0  0  0  0  0  0  0  0
   66.2190   33.5980   50.7350 C   0  0  0  0  0  0  0  0  0  0  0  0
   66.3964   34.5598   50.2316 H   0  0  0  0  0  0  0  0  0  0  0  0
   66.0991   33.7090   51.8228 H   0  0  0  0  0  0  0  0  0  0  0  0
   60.9460   33.6290   46.7980 C   0  0  0  0  0  0  0  0  0  0  0  0
   61.4820   33.8262   45.8579 H   0  0  0  0  0  0  0  0  0  0  0  0
   57.5680   28.0690   45.9420 C   0  0  0  0  0  0  0  0  0  0  0  0
   57.7071   28.5581   46.9174 H   0  0  0  0  0  0  0  0  0  0  0  0
   57.5000   26.5850   45.9300 C   0  0  0  0  0  0  0  0  0  0  0  0
   58.6720   25.8020   45.9430 C   0  0  0  0  0  0  0  0  0  0  0  0
   59.6545   26.2939   45.9954 H   0  0  0  0  0  0  0  0  0  0  0  0
   58.5990   24.4080   45.8900 C   0  0  0  0  0  0  0  0  0  0  0  0
   59.5210   23.8093   45.8522 H   0  0  0  0  0  0  0  0  0  0  0  0
   57.3530   23.7750   45.8850 C   0  0  0  0  0  0  0  0  0  0  0  0
   57.2934   22.6778   45.8347 H   0  0  0  0  0  0  0  0  0  0  0  0
   56.1810   24.5380   45.9440 C   0  0  0  0  0  0  0  0  0  0  0  0
   55.2018   24.0372   45.9630 H   0  0  0  0  0  0  0  0  0  0  0  0
   56.2500   25.9370   45.9790 C   0  0  0  0  0  0  0  0  0  0  0  0
   55.0740   26.6800   46.0630 O   0  0  0  0  0  0  0  0  0  0  0  0
  1  2  1  0
  2  3  1  0
  3  4  2  0
  3  5  1  0
  5  6  1  0
  6  7  1  0
  6  8  1  0
  6  9  1  0
  9 10  2  0
  9 11  1  0
 11 12  1  0
 12 13  2  0
 13 14  1  0
 13 15  1  0
 15 16  1  0
 15 17  2  0
 17 18  1  0
 17 19  1  0
 19 20  1  0
 20 21  2  0
 20 22  2  0
 20 23  1  0
 23 24  2  0
 24 25  1  0
 25 26  1  0
 25 27  1  0
 27 28  1  0
 27 29  1  0
 27 30  1  0
 30 31  1  0
 30 32  1  0
 30 33  1  0
 33 34  1  0
 33 35  1  0
 33 36  1  0
 36 37  1  0
 36 38  1  0
 36 39  1  0
 39 40  1  0
 39 41  1  0
 19 42  2  0
 42 43  1  0
  2 44  2  3
 44 45  1  0
 44 46  1  0
 46 47  2  0
 47 48  1  0
 47 49  1  0
 49 50  1  0
 49 51  2  0
 51 52  1  0
 51 53  1  0
 53 54  1  0
 53 55  2  0
 55 56  1  0
 42 12  1  0
 55 46  1  0
 39 24  1  0
M  CHG  2  11  -1  56  -1
M  END
>  <UniqueID>  (10) 
10

>  <SMILES>  (10) 
O=C(COC(=O)C=Cc1ccccc1[O-])[N-]c1cccc(S(=O)(=O)/N=C2\CCCCCN2)c1

>  <Energy>  (10) 
73.80443015983268

>  <Genealogy>  (10) 
O=C(COC(=O)C=Cc1ccccc1[O-])[N-]c1cccc(S(=O)(=O)N=C2CCCCCN2)c1 (protonated)
O=C(COC(=O)C=Cc1ccccc1[O-])[N-]c1cccc(S(=O)(=O)/N=C2\CCCCCN2)c1 (cis-trans isomerization)
O=C(COC(=O)C=Cc1ccccc1[O-])[N-]c1cccc(S(=O)(=O)/N=C2\CCCCCN2)c1 (3D coordinates assigned)
O=C(COC(=O)C=Cc1ccccc1[O-])[N-]c1cccc(S(=O)(=O)/N=C2\CCCCCN2)c1 (nonaromatic ring conformer: 73.80443015983268 kcal/mol)

>  <smiles>  (10) 
O=C(COC(=O)C=Cc1ccccc1O)Nc1cccc(S(=O)(=O)N=C2CCCCCN2)c1

>  <score_type>  (10) 
oracle

>  <origin>  (10) 
adg

>  <m_score__min__energy>  (10) 
-12.06

>  <m_primary>  (10) 
energy

$$$$
10:0
     RDKit          3D

 55 57  0  0  0  0  0  0  0  0999 V2000
   60.1777   31.1562   45.3590 H   0  0  0  0  0  0  0  0  0  0  0  0
   59.9450   30.3210   46.0360 C   0  0  0  0  0  0  0  0  0  0  0  0
   60.7630   30.0390   46.9980 N   0  0  0  0  0  0  0  0  0  0  0  0
   60.6120   30.6250   48.2350 O   0  0  0  0  0  0  0  0  0  0  0  0
   60.9940   31.9750   48.4550 C   0  0  0  0  0  0  0  0  0  0  0  0
   62.0601   32.0959   48.2124 H   0  0  0  0  0  0  0  0  0  0  0  0
   60.8195   32.2317   49.5103 H   0  0  0  0  0  0  0  0  0  0  0  0
   60.1740   32.8950   47.5790 C   0  0  0  0  0  0  0  0  0  0  0  0
   58.7760   32.8810   47.7390 C   0  0  0  0  0  0  0  0  0  0  0  0
   58.3203   32.2160   48.4874 H   0  0  0  0  0  0  0  0  0  0  0  0
   57.9620   33.7020   46.9580 C   0  0  0  0  0  0  0  0  0  0  0  0
   56.8706   33.6817   47.0935 H   0  0  0  0  0  0  0  0  0  0  0  0
   58.5300   34.5490   46.0050 C   0  0  0  0  0  0  0  0  0  0  0  0
   57.8864   35.2007   45.3958 H   0  0  0  0  0  0  0  0  0  0  0  0
   59.9150   34.5700   45.8240 C   0  0  0  0  0  0  0  0  0  0  0  0
   60.3562   35.2406   45.0720 H   0  0  0  0  0  0  0  0  0  0  0  0
   60.7510   33.7410   46.5950 C   0  0  0  0  0  0  0  0  0  0  0  0
   62.2410   33.8070   46.3770 C   0  0  0  0  0  0  0  0  0  0  0  0
   62.7533   33.8297   47.3502 H   0  0  0  0  0  0  0  0  0  0  0  0
   62.5683   32.9225   45.8109 H   0  0  0  0  0  0  0  0  0  0  0  0
   62.4888   34.7170   45.8109 H   0  0  0  0  0  0  0  0  0  0  0  0
   58.7030   29.5440   45.8270 C   0  0  0  0  0  0  0  0  0  0  0  0
   58.4460   28.2570   46.3050 C   0  0  0  0  0  0  0  0  0  0  0  0
   59.4210   27.3400   46.9840 C   0  0  0  0  0  0  0  0  0  0  0  0
   59.3174   27.4374   48.0748 H   0  0  0  0  0  0  0  0  0  0  0  0
   59.2148   26.3010   46.6874 H   0  0  0  0  0  0  0  0  0  0  0  0
   60.4454   27.6095   46.6874 H   0  0  0  0  0  0  0  0  0  0  0  0
   57.1480   27.9460   45.9210 C   0  0  0  0  0  0  0  0  0  0  0  0
   56.3990   26.7190   46.2330 C   0  0  0  0  0  0  0  0  0  0  0  0
   55.1770   26.6440   45.9400 O   0  0  0  0  0  0  0  0  0  0  0  0
   57.0540   25.6270   46.8940 N   0  0  0  0  0  0  0  0  0  0  0  0
   58.0120   25.7710   47.2830 H   0  0  0  0  0  0  0  0  0  0  0  0
   56.4500   24.3010   47.0070 C   0  0  0  0  0  0  0  0  0  0  0  0
   57.0413   23.6891   47.7042 H   0  0  0  0  0  0  0  0  0  0  0  0
   55.4209   24.4026   47.3821 H   0  0  0  0  0  0  0  0  0  0  0  0
   56.4220   23.6350   45.6600 C   0  0  0  0  0  0  0  0  0  0  0  0
   57.4460   22.7410   45.3000 C   0  0  0  0  0  0  0  0  0  0  0  0
   58.2487   22.5105   46.0159 H   0  0  0  0  0  0  0  0  0  0  0  0
   57.4480   22.1440   44.0360 C   0  0  0  0  0  0  0  0  0  0  0  0
   58.2514   21.4454   43.7596 H   0  0  0  0  0  0  0  0  0  0  0  0
   56.4300   22.4340   43.1230 C   0  0  0  0  0  0  0  0  0  0  0  0
   56.4360   21.8540   41.8980 F   0  0  0  0  0  0  0  0  0  0  0  0
   55.4100   23.3270   43.4720 C   0  0  0  0  0  0  0  0  0  0  0  0
   54.6093   23.5547   42.7530 H   0  0  0  0  0  0  0  0  0  0  0  0
   55.4080   23.9300   44.7340 C   0  0  0  0  0  0  0  0  0  0  0  0
   54.6096   24.6376   45.0022 H   0  0  0  0  0  0  0  0  0  0  0  0
   56.6720   29.0460   45.2310 C   0  0  0  0  0  0  0  0  0  0  0  0
   55.3440   29.1770   44.7040 N   0  0  0  0  0  0  0  0  0  0  0  0
   54.9140   30.1120   44.5380 H   0  0  0  0  0  0  0  0  0  0  0  0
   54.7660   28.3340   44.5010 H   0  0  0  0  0  0  0  0  0  0  0  0
   57.6150   30.0130   45.1650 N   0  0  0  0  0  0  0  0  0  0  0  0
   57.4570   31.3280   44.5410 C   0  0  0  0  0  0  0  0  0  0  0  0
   57.3647   32.0962   45.3229 H   0  0  0  0  0  0  0  0  0  0  0  0
   58.3355   31.5450   43.9156 H   0  0  0  0  0  0  0  0  0  0  0  0
   56.5521   31.3308   43.9156 H   0  0  0  0  0  0  0  0  0  0  0  0
  1  2  1  0
  2  3  2  0
  3  4  1  0
  4  5  1  0
  5  6  1  0
  5  7  1  0
  5  8  1  0
  8  9  2  0
  9 10  1  0
  9 11  1  0
 11 12  1  0
 11 13  2  0
 13 14  1  0
 13 15  1  0
 15 16  1  0
 15 17  2  0
 17 18  1  0
 18 19  1  0
 18 20  1  0
 18 21  1  0
  2 22  1  0
 22 23  2  0
 23 24  1  0
 24 25  1  0
 24 26  1  0
 24 27  1  0
 23 28  1  0
 28 29  1  0
 29 30  2  0
 29 31  1  0
 31 32  1  0
 31 33  1  0
 33 34  1  0
 33 35  1  0
 33 36  1  0
 36 37  2  0
 37 38  1  0
 37 39  1  0
 39 40  1  0
 39 41  2  0
 41 42  1  0
 41 43  1  0
 43 44  1  0
 43 45  2  0
 45 46  1  0
 28 47  2  0
 47 48  1  0
 48 49  1  0
 48 50  1  0
 47 51  1  0
 51 52  1  0
 52 53  1  0
 52 54  1  0
 52 55  1  0
 17  8  1  0
 51 22  1  0
 45 36  1  0
M  END
>  <UniqueID>  (11) 
11

>  <SMILES>  (11) 
Cc1ccccc1CO/N=C/c1c(C)c(C(=O)NCc2ccc(F)cc2)c(N)n1C

>  <Energy>  (11) 
83.18933222390339

>  <Genealogy>  (11) 
Cc1ccccc1CO/N=C/c1c(C)c(C(=O)NCc2ccc(F)cc2)c(N)n1C (cis-trans isomerization)
Cc1ccccc1CO/N=C/c1c(C)c(C(=O)NCc2ccc(F)cc2)c(N)n1C (3D coordinates assigned)
Cc1ccccc1CO/N=C/c1c(C)c(C(=O)NCc2ccc(F)cc2)c(N)n1C (optimized conformer: 83.18933222390339 kcal/mol)

>  <smiles>  (11) 
Cc1ccccc1CON=Cc1c(C)c(C(=O)NCc2ccc(F)cc2)c(N)n1C

>  <score_type>  (11) 
oracle

>  <origin>  (11) 
adg

>  <m_score__min__energy>  (11) 
-8.7899999999999991

>  <m_primary>  (11) 
energy

$$$$
11:0
     RDKit          3D

 51 53  0  0  0  0  0  0  0  0999 V2000
   59.2700   34.9970   44.9600 C   0  0  0  0  0  0  0  0  0  0  0  0
   59.3840   33.9240   46.0510 C   0  0  0  0  0  0  0  0  0  0  0  0
   58.0770   33.8200   46.8490 C   0  0  0  0  0  0  0  0  0  0  0  0
   60.6060   34.1720   46.9610 C   0  0  0  0  0  0  0  0  0  0  0  0
   60.4130   33.5840   48.2960 N   0  0  0  0  0  0  0  0  0  0  0  0
   61.2890   32.4230   48.5140 C   0  0  0  0  0  0  0  0  0  0  0  0
   60.7250   31.1630   47.8990 C   0  0  0  0  0  0  0  0  0  0  0  0
   59.6970   30.4610   48.5500 C   0  0  0  0  0  0  0  0  0  0  0  0
   59.1590   29.3070   47.9780 C   0  0  0  0  0  0  0  0  0  0  0  0
   59.6410   28.8390   46.7480 C   0  0  0  0  0  0  0  0  0  0  0  0
   59.0800   27.6100   46.1580 C   0  0  0  0  0  0  0  0  0  0  0  0
   59.6940   26.3850   46.4690 C   0  0  0  0  0  0  0  0  0  0  0  0
   59.1560   25.1870   46.0010 C   0  0  0  0  0  0  0  0  0  0  0  0
   57.9990   25.2000   45.2210 C   0  0  0  0  0  0  0  0  0  0  0  0
   57.3810   26.4110   44.8960 C   0  0  0  0  0  0  0  0  0  0  0  0
   57.9210   27.6310   45.3420 C   0  0  0  0  0  0  0  0  0  0  0  0
   57.1290   29.1640   44.9040 S   0  0  0  0  0  0  0  0  0  0  0  0
   57.4730   30.2180   45.9220 O   0  0  0  0  0  0  0  0  0  0  0  0
   55.6400   28.9540   44.9030 O   0  0  0  0  0  0  0  0  0  0  0  0
   57.6030   29.7480   43.3370 N   0  0  0  0  0  0  0  0  0  0  0  0
   57.0990   31.1070   43.1540 C   0  0  0  0  0  0  0  0  0  0  0  0
   57.9230   31.9450   42.1900 C   0  0  0  0  0  0  0  0  0  0  0  0
   58.0600   32.1540   43.6900 C   0  0  0  0  0  0  0  0  0  0  0  0
   60.6740   29.5310   46.0990 C   0  0  0  0  0  0  0  0  0  0  0  0
   61.2070   30.6920   46.6660 C   0  0  0  0  0  0  0  0  0  0  0  0
   59.1649   35.9866   45.4286 H   0  0  0  0  0  0  0  0  0  0  0  0
   60.1748   34.9817   44.3347 H   0  0  0  0  0  0  0  0  0  0  0  0
   58.3886   34.7919   44.3347 H   0  0  0  0  0  0  0  0  0  0  0  0
   59.5486   32.9524   45.5623 H   0  0  0  0  0  0  0  0  0  0  0  0
   58.3023   33.8379   47.9255 H   0  0  0  0  0  0  0  0  0  0  0  0
   57.4248   34.6691   46.5967 H   0  0  0  0  0  0  0  0  0  0  0  0
   57.5673   32.8785   46.5967 H   0  0  0  0  0  0  0  0  0  0  0  0
   61.4949   33.7202   46.4966 H   0  0  0  0  0  0  0  0  0  0  0  0
   60.7343   35.2582   47.0778 H   0  0  0  0  0  0  0  0  0  0  0  0
   59.4180   33.2780   48.3970 H   0  0  0  0  0  0  0  0  0  0  0  0
   62.2707   32.6295   48.0627 H   0  0  0  0  0  0  0  0  0  0  0  0
   61.3749   32.2619   49.5987 H   0  0  0  0  0  0  0  0  0  0  0  0
   59.3140   30.8226   49.5157 H   0  0  0  0  0  0  0  0  0  0  0  0
   58.3542   28.7632   48.4942 H   0  0  0  0  0  0  0  0  0  0  0  0
   60.6048   26.3711   47.0856 H   0  0  0  0  0  0  0  0  0  0  0  0
   59.6434   24.2319   46.2465 H   0  0  0  0  0  0  0  0  0  0  0  0
   57.5713   24.2530   44.8602 H   0  0  0  0  0  0  0  0  0  0  0  0
   56.4652   26.4100   44.2867 H   0  0  0  0  0  0  0  0  0  0  0  0
   58.6460   29.7710   43.2940 H   0  0  0  0  0  0  0  0  0  0  0  0
   56.0267   30.8880   43.2641 H   0  0  0  0  0  0  0  0  0  0  0  0
   58.7435   31.4825   41.6217 H   0  0  0  0  0  0  0  0  0  0  0  0
   57.6945   32.5937   41.3316 H   0  0  0  0  0  0  0  0  0  0  0  0
   58.9798   31.8430   44.2069 H   0  0  0  0  0  0  0  0  0  0  0  0
   57.9718   33.0171   44.3663 H   0  0  0  0  0  0  0  0  0  0  0  0
   61.0659   29.1589   45.1409 H   0  0  0  0  0  0  0  0  0  0  0  0
   62.0067   31.2390   46.1451 H   0  0  0  0  0  0  0  0  0  0  0  0
  1  2  1  0
  2  3  1  0
  2  4  1  0
  4  5  1  0
  5  6  1  0
  6  7  1  0
  7  8  2  0
  8  9  1  0
  9 10  2  0
 10 11  1  0
 11 12  2  0
 12 13  1  0
 13 14  2  0
 14 15  1  0
 15 16  2  0
 16 17  1  0
 17 18  2  0
 17 19  2  0
 17 20  1  0
 20 21  1  0
 21 22  1  0
 22 23  1  0
 10 24  1  0
 24 25  2  0
 25  7  1  0
 16 11  1  0
 23 21  1  0
  1 26  1  0
  1 27  1  0
  1 28  1  0
  2 29  1  0
  3 30  1  0
  3 31  1  0
  3 32  1  0
  4 33  1  0
  4 34  1  0
  5 35  1  0
  6 36  1  0
  6 37  1  0
  8 38  1  0
  9 39  1  0
 12 40  1  0
 13 41  1  0
 14 42  1  0
 15 43  1  0
 20 44  1  0
 21 45  1  0
 22 46  1  0
 22 47  1  0
 23 48  1  0
 23 49  1  0
 24 50  1  0
 25 51  1  0
M  END
>  <UniqueID>  (12) 
12

>  <SMILES>  (12) 
CC(C)CNCc1ccc(-c2ccccc2S(=O)(=O)NC2CC2)cc1

>  <Energy>  (12) 
316.9638880506366

>  <Genealogy>  (12) 
CC(C)CNCc1ccc(-c2ccccc2S(=O)(=O)NC2CC2)cc1 (3D coordinates assigned)
CC(C)CNCc1ccc(-c2ccccc2S(=O)(=O)NC2CC2)cc1 (nonaromatic ring conformer: 316.9638880506366 kcal/mol)

>  <smiles>  (12) 
CC(C)CNCc1ccc(-c2ccccc2S(=O)(=O)NC2CC2)cc1

>  <score_type>  (12) 
oracle

>  <origin>  (12) 
adg

>  <m_score__min__energy>  (12) 
-8.8000000000000007

>  <m_primary>  (12) 
energy

$$$$
12:0
     RDKit          3D

 49 51  0  0  0  0  0  0  0  0999 V2000
   64.1800   33.4120   48.5640 C   0  0  0  0  0  0  0  0  0  0  0  0
   63.7510   32.9050   47.1840 C   0  0  0  0  0  0  0  0  0  0  0  0
   63.1000   34.0350   46.3790 C   0  0  0  0  0  0  0  0  0  0  0  0
   62.8200   31.7800   47.3300 N   0  0  0  0  0  0  0  0  0  0  0  0
   61.6010   31.8900   48.0830 C   0  0  0  0  0  0  0  0  0  0  0  0
   61.4130   32.8950   48.8240 O   0  0  0  0  0  0  0  0  0  0  0  0
   60.5650   30.8320   48.0180 C   0  0  0  0  0  0  0  0  0  0  0  0
   60.1010   30.2280   49.2000 C   0  0  0  0  0  0  0  0  0  0  0  0
   59.1220   29.2330   49.1500 C   0  0  0  0  0  0  0  0  0  0  0  0
   58.5850   28.8380   47.9250 C   0  0  0  0  0  0  0  0  0  0  0  0
   59.0170   29.4420   46.7330 C   0  0  0  0  0  0  0  0  0  0  0  0
   58.4420   29.0330   45.4300 C   0  0  0  0  0  0  0  0  0  0  0  0
   58.9090   27.8630   44.8050 C   0  0  0  0  0  0  0  0  0  0  0  0
   58.3860   27.4580   43.5770 C   0  0  0  0  0  0  0  0  0  0  0  0
   57.3930   28.2140   42.9560 C   0  0  0  0  0  0  0  0  0  0  0  0
   56.9240   29.3830   43.5590 C   0  0  0  0  0  0  0  0  0  0  0  0
   57.4480   29.8120   44.7950 C   0  0  0  0  0  0  0  0  0  0  0  0
   57.0230   31.0030   45.4100 O   0  0  0  0  0  0  0  0  0  0  0  0
   57.0510   32.3000   44.8150 C   0  0  0  0  0  0  0  0  0  0  0  0
   57.9660   33.2170   45.5820 C   0  0  0  0  0  0  0  0  0  0  0  0
   58.0140   33.1500   46.9850 C   0  0  0  0  0  0  0  0  0  0  0  0
   58.8570   34.0050   47.7020 C   0  0  0  0  0  0  0  0  0  0  0  0
   59.6490   34.9360   47.0270 C   0  0  0  0  0  0  0  0  0  0  0  0
   59.5980   35.0160   45.6320 C   0  0  0  0  0  0  0  0  0  0  0  0
   58.7580   34.1640   44.9100 C   0  0  0  0  0  0  0  0  0  0  0  0
   60.0090   30.4360   46.7880 C   0  0  0  0  0  0  0  0  0  0  0  0
   63.6791   32.8200   49.3441 H   0  0  0  0  0  0  0  0  0  0  0  0
   65.2702   33.3099   48.6695 H   0  0  0  0  0  0  0  0  0  0  0  0
   63.8989   34.4702   48.6695 H   0  0  0  0  0  0  0  0  0  0  0  0
   64.6425   32.5596   46.6401 H   0  0  0  0  0  0  0  0  0  0  0  0
   62.6723   34.7774   47.0689 H   0  0  0  0  0  0  0  0  0  0  0  0
   63.8584   34.5177   45.7452 H   0  0  0  0  0  0  0  0  0  0  0  0
   62.3020   33.6210   45.7452 H   0  0  0  0  0  0  0  0  0  0  0  0
   63.0850   30.8500   46.9340 H   0  0  0  0  0  0  0  0  0  0  0  0
   60.5120   30.5414   50.1710 H   0  0  0  0  0  0  0  0  0  0  0  0
   58.7735   28.7595   50.0797 H   0  0  0  0  0  0  0  0  0  0  0  0
   57.8190   28.0492   47.8923 H   0  0  0  0  0  0  0  0  0  0  0  0
   59.6933   27.2622   45.2886 H   0  0  0  0  0  0  0  0  0  0  0  0
   58.7578   26.5404   43.0977 H   0  0  0  0  0  0  0  0  0  0  0  0
   56.9785   27.8895   41.9902 H   0  0  0  0  0  0  0  0  0  0  0  0
   56.1388   29.9741   43.0650 H   0  0  0  0  0  0  0  0  0  0  0  0
   57.4108   32.2145   43.7790 H   0  0  0  0  0  0  0  0  0  0  0  0
   56.0342   32.7193   44.8321 H   0  0  0  0  0  0  0  0  0  0  0  0
   57.3864   32.4227   47.5209 H   0  0  0  0  0  0  0  0  0  0  0  0
   58.8962   33.9440   48.7996 H   0  0  0  0  0  0  0  0  0  0  0  0
   60.3129   35.6063   47.5926 H   0  0  0  0  0  0  0  0  0  0  0  0
   60.2207   35.7515   45.1015 H   0  0  0  0  0  0  0  0  0  0  0  0
   58.7165   34.2346   43.8131 H   0  0  0  0  0  0  0  0  0  0  0  0
   60.3550   30.9102   45.8577 H   0  0  0  0  0  0  0  0  0  0  0  0
  1  2  1  0
  2  3  1  0
  2  4  1  0
  4  5  1  0
  5  6  2  0
  5  7  1  0
  7  8  2  0
  8  9  1  0
  9 10  2  0
 10 11  1  0
 11 12  1  0
 12 13  2  0
 13 14  1  0
 14 15  2  0
 15 16  1  0
 16 17  2  0
 17 18  1  0
 18 19  1  0
 19 20  1  0
 20 21  2  0
 21 22  1  0
 22 23  2  0
 23 24  1  0
 24 25  2  0
 11 26  2  0
 26  7  1  0
 17 12  1  0
 25 20  1  0
  1 27  1  0
  1 28  1  0
  1 29  1  0
  2 30  1  0
  3 31  1  0
  3 32  1  0
  3 33  1  0
  4 34  1  0
  8 35  1  0
  9 36  1  0
 10 37  1  0
 13 38  1  0
 14 39  1  0
 15 40  1  0
 16 41  1  0
 19 42  1  0
 19 43  1  0
 21 44  1  0
 22 45  1  0
 23 46  1  0
 24 47  1  0
 25 48  1  0
 26 49  1  0
M  END
>  <UniqueID>  (13) 
13

>  <SMILES>  (13) 
CC(C)NC(=O)c1cccc(-c2ccccc2OCc2ccccc2)c1

>  <Energy>  (13) 
53.51225643432195

>  <Genealogy>  (13) 
CC(C)NC(=O)c1cccc(-c2ccccc2OCc2ccccc2)c1 (3D coordinates assigned)
CC(C)NC(=O)c1cccc(-c2ccccc2OCc2ccccc2)c1 (optimized conformer: 53.51225643432195 kcal/mol)

>  <smiles>  (13) 
CC(C)NC(=O)c1cccc(-c2ccccc2OCc2ccccc2)c1

>  <score_type>  (13) 
oracle

>  <origin>  (13) 
adg

>  <m_score__min__energy>  (13) 
-8.5199999999999996

>  <m_primary>  (13) 
energy

$$$$
13:0
     RDKit          3D

 39 41  0  0  0  0  0  0  0  0999 V2000
   64.9420   33.0230   49.4810 C   0  0  0  0  0  0  0  0  0  0  0  0
   63.6760   33.3910   48.7650 C   0  0  0  0  0  0  0  0  0  0  0  0
   62.5750   33.8840   49.4830 C   0  0  0  0  0  0  0  0  0  0  0  0
   61.3830   34.1910   48.8210 C   0  0  0  0  0  0  0  0  0  0  0  0
   61.2730   33.9920   47.4380 C   0  0  0  0  0  0  0  0  0  0  0  0
   59.7640   34.3660   46.6110 S   0  0  0  0  0  0  0  0  0  0  0  0
   59.2470   35.6820   47.1210 O   0  0  0  0  0  0  0  0  0  0  0  0
   59.9830   34.4690   45.1280 O   0  0  0  0  0  0  0  0  0  0  0  0
   58.5860   33.1300   46.9250 N   0  0  0  0  0  0  0  0  0  0  0  0
   58.8460   31.7200   46.8010 C   0  0  0  0  0  0  0  0  0  0  0  0
   59.8770   31.0890   47.5220 C   0  0  0  0  0  0  0  0  0  0  0  0
   60.0920   29.7150   47.3850 C   0  0  0  0  0  0  0  0  0  0  0  0
   59.2900   28.9590   46.5280 C   0  0  0  0  0  0  0  0  0  0  0  0
   58.2680   29.5760   45.7980 C   0  0  0  0  0  0  0  0  0  0  0  0
   57.2550   28.6400   44.7040 S   0  0  0  0  0  0  0  0  0  0  0  0
   56.4910   29.5450   43.7770 O   0  0  0  0  0  0  0  0  0  0  0  0
   58.1260   27.7290   43.8880 O   0  0  0  0  0  0  0  0  0  0  0  0
   56.1320   27.6870   45.6190 N   0  0  0  0  0  0  0  0  0  0  0  0
   56.4230   26.5150   46.0880 C   0  0  0  0  0  0  0  0  0  0  0  0
   55.5260   25.5400   46.3450 N   0  0  0  0  0  0  0  0  0  0  0  0
   56.1450   24.4230   46.8370 C   0  0  0  0  0  0  0  0  0  0  0  0
   57.5000   24.4690   46.9840 N   0  0  0  0  0  0  0  0  0  0  0  0
   57.9450   25.9860   46.4700 S   0  0  0  0  0  0  0  0  0  0  0  0
   58.0500   30.9530   45.9360 C   0  0  0  0  0  0  0  0  0  0  0  0
   62.3660   33.4880   46.7220 C   0  0  0  0  0  0  0  0  0  0  0  0
   63.5600   33.1820   47.3830 C   0  0  0  0  0  0  0  0  0  0  0  0
   64.7761   33.0712   50.5674 H   0  0  0  0  0  0  0  0  0  0  0  0
   65.2384   32.0015   49.2003 H   0  0  0  0  0  0  0  0  0  0  0  0
   65.7397   33.7264   49.2003 H   0  0  0  0  0  0  0  0  0  0  0  0
   62.6507   34.0292   50.5707 H   0  0  0  0  0  0  0  0  0  0  0  0
   60.5285   34.5901   49.3872 H   0  0  0  0  0  0  0  0  0  0  0  0
   57.6620   33.4440   47.3010 H   0  0  0  0  0  0  0  0  0  0  0  0
   60.5156   31.6793   48.1955 H   0  0  0  0  0  0  0  0  0  0  0  0
   60.8965   29.2270   47.9548 H   0  0  0  0  0  0  0  0  0  0  0  0
   59.4617   27.8772   46.4265 H   0  0  0  0  0  0  0  0  0  0  0  0
   55.5717   23.5228   47.1036 H   0  0  0  0  0  0  0  0  0  0  0  0
   57.2473   31.4377   45.3609 H   0  0  0  0  0  0  0  0  0  0  0  0
   62.2852   33.3323   45.6361 H   0  0  0  0  0  0  0  0  0  0  0  0
   64.4112   32.7759   46.8169 H   0  0  0  0  0  0  0  0  0  0  0  0
  1  2  1  0
  2  3  2  0
  3  4  1  0
  4  5  2  0
  5  6  1  0
  6  7  2  0
  6  8  2  0
  6  9  1  0
  9 10  1  0
 10 11  2  0
 11 12  1  0
 12 13  2  0
 13 14  1  0
 14 15  1  0
 15 16  2  0
 15 17  2  0
 15 18  1  0
 18 19  2  3
 19 20  1  0
 20 21  1  0
 21 22  2  0
 22 23  1  0
 14 24  2  0
  5 25  1  0
 25 26  2  0
 26  2  1  0
 24 10  1  0
 23 19  1  0
  1 27  1  0
  1 28  1  0
  1 29  1  0
  3 30  1  0
  4 31  1  0
  9 32  1  0
 11 33  1  0
 12 34  1  0
 13 35  1  0
 21 36  1  0
 24 37  1  0
 25 38  1  0
 26 39  1  0
M  CHG  1  20  -1
M  END
>  <UniqueID>  (14) 
14

>  <SMILES>  (14) 
Cc1ccc(S(=O)(=O)Nc2cccc(S(=O)(=O)N=c3[n-]cns3)c2)cc1

>  <Energy>  (14) 
83.71176199194795

>  <Genealogy>  (14) 
Cc1ccc(S(=O)(=O)Nc2cccc(S(=O)(=O)N=c3[n-]cns3)c2)cc1 (protonated)
Cc1ccc(S(=O)(=O)Nc2cccc(S(=O)(=O)N=c3[n-]cns3)c2)cc1 (3D coordinates assigned)
Cc1ccc(S(=O)(=O)Nc2cccc(S(=O)(=O)N=c3[n-]cns3)c2)cc1 (optimized conformer: 83.71176199194795 kcal/mol)

>  <smiles>  (14) 
Cc1ccc(S(=O)(=O)Nc2cccc(S(=O)(=O)N=c3[nH]cns3)c2)cc1

>  <score_type>  (14) 
oracle

>  <origin>  (14) 
adg

>  <m_score__min__energy>  (14) 
-11.539999999999999

>  <m_primary>  (14) 
energy

$$$$
14:0
     RDKit          3D

 46 48  0  0  0  0  0  0  0  0999 V2000
   68.1780   33.8180   51.3030 C   0  0  0  0  0  0  0  0  0  0  0  0
   66.7330   33.6070   50.9640 C   0  0  0  0  0  0  0  0  0  0  0  0
   66.3620   32.6360   50.0210 C   0  0  0  0  0  0  0  0  0  0  0  0
   65.0110   32.4130   49.7330 C   0  0  0  0  0  0  0  0  0  0  0  0
   64.0130   33.1580   50.3800 C   0  0  0  0  0  0  0  0  0  0  0  0
   62.6320   32.8920   50.0800 N   0  0  0  0  0  0  0  0  0  0  0  0
   62.0920   31.5840   49.8490 C   0  0  0  0  0  0  0  0  0  0  0  0
   62.7630   30.5570   50.1420 O   0  0  0  0  0  0  0  0  0  0  0  0
   60.7760   31.4670   49.3860 O   0  0  0  0  0  0  0  0  0  0  0  0
   60.2100   32.2270   48.3510 C   0  0  0  0  0  0  0  0  0  0  0  0
   60.9930   32.9970   47.4690 C   0  0  0  0  0  0  0  0  0  0  0  0
   60.3830   33.7470   46.4590 C   0  0  0  0  0  0  0  0  0  0  0  0
   58.9870   33.7580   46.3290 C   0  0  0  0  0  0  0  0  0  0  0  0
   58.3410   34.5280   45.2140 C   0  0  0  0  0  0  0  0  0  0  0  0
   57.2640   33.7630   44.6840 O   0  0  0  0  0  0  0  0  0  0  0  0
   57.4300   32.4660   44.1870 C   0  0  0  0  0  0  0  0  0  0  0  0
   58.0260   32.2740   43.0940 O   0  0  0  0  0  0  0  0  0  0  0  0
   56.8180   31.3550   44.8540 N   0  0  0  0  0  0  0  0  0  0  0  0
   57.3010   30.1630   45.0730 C   0  0  0  0  0  0  0  0  0  0  0  0
   58.6250   30.0650   45.3760 N   0  0  0  0  0  0  0  0  0  0  0  0
   59.2410   28.8770   45.6070 C   0  0  0  0  0  0  0  0  0  0  0  0
   58.5140   27.6910   45.5390 C   0  0  0  0  0  0  0  0  0  0  0  0
   57.1490   27.7450   45.2630 C   0  0  0  0  0  0  0  0  0  0  0  0
   56.5220   28.9760   45.0500 C   0  0  0  0  0  0  0  0  0  0  0  0
   55.1420   28.9900   44.8820 O   0  0  0  0  0  0  0  0  0  0  0  0
   58.2070   32.9930   47.2100 C   0  0  0  0  0  0  0  0  0  0  0  0
   58.8170   32.2450   48.2210 C   0  0  0  0  0  0  0  0  0  0  0  0
   64.3860   34.1010   51.3530 C   0  0  0  0  0  0  0  0  0  0  0  0
   65.7350   34.3230   51.6420 C   0  0  0  0  0  0  0  0  0  0  0  0
   68.2994   33.8357   52.3961 H   0  0  0  0  0  0  0  0  0  0  0  0
   68.7772   32.9978   50.8808 H   0  0  0  0  0  0  0  0  0  0  0  0
   68.5177   34.7753   50.8808 H   0  0  0  0  0  0  0  0  0  0  0  0
   67.1362   32.0480   49.5064 H   0  0  0  0  0  0  0  0  0  0  0  0
   64.7291   31.6483   48.9942 H   0  0  0  0  0  0  0  0  0  0  0  0
   61.9570   33.6900   50.1040 H   0  0  0  0  0  0  0  0  0  0  0  0
   62.0878   33.0083   47.5752 H   0  0  0  0  0  0  0  0  0  0  0  0
   61.0018   34.3317   45.7624 H   0  0  0  0  0  0  0  0  0  0  0  0
   57.9587   35.4845   45.5999 H   0  0  0  0  0  0  0  0  0  0  0  0
   59.0797   34.7262   44.4234 H   0  0  0  0  0  0  0  0  0  0  0  0
   60.3140   28.8514   45.8478 H   0  0  0  0  0  0  0  0  0  0  0  0
   59.0112   26.7233   45.7012 H   0  0  0  0  0  0  0  0  0  0  0  0
   56.5629   26.8155   45.2126 H   0  0  0  0  0  0  0  0  0  0  0  0
   57.1121   32.9820   47.1045 H   0  0  0  0  0  0  0  0  0  0  0  0
   58.1966   31.6655   48.9205 H   0  0  0  0  0  0  0  0  0  0  0  0
   63.6113   34.6678   51.8903 H   0  0  0  0  0  0  0  0  0  0  0  0
   66.0161   35.0634   52.4054 H   0  0  0  0  0  0  0  0  0  0  0  0
  1  2  1  0
  2  3  2  0
  3  4  1  0
  4  5  2  0
  5  6  1  0
  6  7  1  0
  7  8  2  0
  7  9  1  0
  9 10  1  0
 10 11  2  0
 11 12  1  0
 12 13  2  0
 13 14  1  0
 14 15  1  0
 15 16  1  0
 16 17  2  0
 16 18  1  0
 18 19  2  3
 19 20  1  0
 20 21  1  0
 21 22  2  0
 22 23  1  0
 23 24  2  0
 24 25  1  0
 13 26  1  0
 26 27  2  0
  5 28  1  0
 28 29  2  0
 29  2  1  0
 27 10  1  0
 24 19  1  0
  1 30  1  0
  1 31  1  0
  1 32  1  0
  3 33  1  0
  4 34  1  0
  6 35  1  0
 11 36  1  0
 12 37  1  0
 14 38  1  0
 14 39  1  0
 21 40  1  0
 22 41  1  0
 23 42  1  0
 26 43  1  0
 27 44  1  0
 28 45  1  0
 29 46  1  0
M  CHG  2  20  -1  25  -1
M  END
>  <UniqueID>  (15) 
15

>  <SMILES>  (15) 
Cc1ccc(NC(=O)Oc2ccc(COC(=O)N=c3[n-]cccc3[O-])cc2)cc1

>  <Energy>  (15) 
64.75844721088154

>  <Genealogy>  (15) 
Cc1ccc(NC(=O)Oc2ccc(COC(=O)N=c3[n-]cccc3[O-])cc2)cc1 (protonated)
Cc1ccc(NC(=O)Oc2ccc(COC(=O)N=c3[n-]cccc3[O-])cc2)cc1 (3D coordinates assigned)
Cc1ccc(NC(=O)Oc2ccc(COC(=O)N=c3[n-]cccc3[O-])cc2)cc1 (optimized conformer: 64.75844721088154 kcal/mol)

>  <smiles>  (15) 
Cc1ccc(NC(=O)Oc2ccc(COC(=O)N=c3[nH]cccc3O)cc2)cc1

>  <score_type>  (15) 
oracle

>  <origin>  (15) 
adg

>  <m_score__min__energy>  (15) 
-13.94

>  <m_primary>  (15) 
energy

$$$$
15:0
     RDKit          3D

 46 48  0  0  0  0  0  0  0  0999 V2000
   55.2150   26.7660   45.9420 O   0  0  0  0  0  0  0  0  0  0  0  0
   56.3900   26.6200   46.3700 C   0  0  0  0  0  0  0  0  0  0  0  0
   56.7310   25.4390   47.0200 O   0  0  0  0  0  0  0  0  0  0  0  0
   57.3930   27.6640   46.0930 C   0  0  0  0  0  0  0  0  0  0  0  0
   57.3640   28.5160   45.0580 C   0  0  0  0  0  0  0  0  0  0  0  0
   56.3690   29.5910   44.8590 C   0  0  0  0  0  0  0  0  0  0  0  0
   55.1390   29.3300   44.9230 O   0  0  0  0  0  0  0  0  0  0  0  0
   56.7720   30.9030   44.4480 N   0  0  0  0  0  0  0  0  0  0  0  0
   57.5510   31.8330   45.2140 C   0  0  0  0  0  0  0  0  0  0  0  0
   58.0410   32.9820   44.5820 C   0  0  0  0  0  0  0  0  0  0  0  0
   58.7700   33.9320   45.3020 C   0  0  0  0  0  0  0  0  0  0  0  0
   59.0010   33.7500   46.6680 C   0  0  0  0  0  0  0  0  0  0  0  0
   59.6860   34.6850   47.3700 N   0  0  0  0  0  0  0  0  0  0  0  0
   59.8970   34.5500   48.7030 C   0  0  0  0  0  0  0  0  0  0  0  0
   59.4210   33.4610   49.3790 N   0  0  0  0  0  0  0  0  0  0  0  0
   59.5790   33.3950   50.8410 C   0  0  0  0  0  0  0  0  0  0  0  0
   60.7760   32.5610   51.1750 C   0  0  0  0  0  0  0  0  0  0  0  0
   61.7400   33.0710   51.8060 O   0  0  0  0  0  0  0  0  0  0  0  0
   60.8560   31.2100   50.7040 N   0  0  0  0  0  0  0  0  0  0  0  0
   62.1190   30.6440   50.2410 C   0  0  0  0  0  0  0  0  0  0  0  0
   62.7300   31.5520   49.2080 C   0  0  0  0  0  0  0  0  0  0  0  0
   62.0760   31.7630   47.9830 C   0  0  0  0  0  0  0  0  0  0  0  0
   62.6080   32.6520   47.0430 C   0  0  0  0  0  0  0  0  0  0  0  0
   63.7890   33.3430   47.3240 C   0  0  0  0  0  0  0  0  0  0  0  0
   64.4350   33.1540   48.5490 C   0  0  0  0  0  0  0  0  0  0  0  0
   63.9070   32.2650   49.4900 C   0  0  0  0  0  0  0  0  0  0  0  0
   58.7240   32.4870   48.7060 C   0  0  0  0  0  0  0  0  0  0  0  0
   58.2750   31.4850   49.3300 O   0  0  0  0  0  0  0  0  0  0  0  0
   58.4970   32.6120   47.3240 C   0  0  0  0  0  0  0  0  0  0  0  0
   57.7650   31.6570   46.5930 C   0  0  0  0  0  0  0  0  0  0  0  0
   58.2360   27.7515   46.7942 H   0  0  0  0  0  0  0  0  0  0  0  0
   58.1464   28.4057   44.2927 H   0  0  0  0  0  0  0  0  0  0  0  0
   57.8506   33.1382   43.5099 H   0  0  0  0  0  0  0  0  0  0  0  0
   59.1626   34.8245   44.7927 H   0  0  0  0  0  0  0  0  0  0  0  0
   60.4573   35.3252   49.2462 H   0  0  0  0  0  0  0  0  0  0  0  0
   59.7159   34.4103   51.2414 H   0  0  0  0  0  0  0  0  0  0  0  0
   58.6807   32.9435   51.2874 H   0  0  0  0  0  0  0  0  0  0  0  0
   59.9730   30.7270   50.4200 H   0  0  0  0  0  0  0  0  0  0  0  0
   62.8083   30.5416   51.0921 H   0  0  0  0  0  0  0  0  0  0  0  0
   61.9349   29.6552   49.7955 H   0  0  0  0  0  0  0  0  0  0  0  0
   61.1413   31.2268   47.7618 H   0  0  0  0  0  0  0  0  0  0  0  0
   62.0959   32.8070   46.0819 H   0  0  0  0  0  0  0  0  0  0  0  0
   64.2107   34.0360   46.5811 H   0  0  0  0  0  0  0  0  0  0  0  0
   65.3601   33.7055   48.7730 H   0  0  0  0  0  0  0  0  0  0  0  0
   64.4153   32.1233   50.4552 H   0  0  0  0  0  0  0  0  0  0  0  0
   57.3591   30.7703   47.1020 H   0  0  0  0  0  0  0  0  0  0  0  0
  1  2  2  0
  2  3  1  0
  2  4  1  0
  4  5  2  3
  5  6  1  0
  6  7  2  0
  6  8  1  0
  8  9  1  0
  9 10  2  0
 10 11  1  0
 11 12  2  0
 12 13  1  0
 13 14  2  0
 14 15  1  0
 15 16  1  0
 16 17  1  0
 17 18  2  0
 17 19  1  0
 19 20  1  0
 20 21  1  0
 21 22  2  0
 22 23  1  0
 23 24  2  0
 24 25  1  0
 25 26  2  0
 15 27  1  0
 27 28  2  0
 27 29  1  0
 29 30  2  0
 30  9  1  0
 29 12  1  0
 26 21  1  0
  4 31  1  0
  5 32  1  0
 10 33  1  0
 11 34  1  0
 14 35  1  0
 16 36  1  0
 16 37  1  0
 19 38  1  0
 20 39  1  0
 20 40  1  0
 22 41  1  0
 23 42  1  0
 24 43  1  0
 25 44  1  0
 26 45  1  0
 30 46  1  0
M  CHG  2   3  -1   8  -1
M  END
>  <UniqueID>  (16) 
16

>  <SMILES>  (16) 
O=C([O-])C=CC(=O)[N-]c1ccc2ncn(CC(=O)NCc3ccccc3)c(=O)c2c1

>  <Energy>  (16) 
55.83696670276904

>  <Genealogy>  (16) 
O=C([O-])C=CC(=O)[N-]c1ccc2ncn(CC(=O)NCc3ccccc3)c(=O)c2c1 (protonated)
O=C([O-])C=CC(=O)[N-]c1ccc2ncn(CC(=O)NCc3ccccc3)c(=O)c2c1 (3D coordinates assigned)
O=C([O-])C=CC(=O)[N-]c1ccc2ncn(CC(=O)NCc3ccccc3)c(=O)c2c1 (optimized conformer: 55.83696670276904 kcal/mol)

>  <smiles>  (16) 
O=C(O)C=CC(=O)Nc1ccc2ncn(CC(=O)NCc3ccccc3)c(=O)c2c1

>  <score_type>  (16) 
oracle

>  <origin>  (16) 
adg

>  <m_score__min__energy>  (16) 
-13.26

>  <m_primary>  (16) 
energy

$$$$
16:0
     RDKit          3D

 58 61  0  0  0  0  0  0  0  0999 V2000
   67.3180   33.3560   51.5610 C   0  0  0  0  0  0  0  0  0  0  0  0
   67.0580   32.1710   50.8190 O   0  0  0  0  0  0  0  0  0  0  0  0
   65.8530   31.4490   50.8640 C   0  0  0  0  0  0  0  0  0  0  0  0
   65.7180   30.2780   51.6350 C   0  0  0  0  0  0  0  0  0  0  0  0
   64.4950   29.6040   51.6910 C   0  0  0  0  0  0  0  0  0  0  0  0
   63.3910   30.0870   50.9800 C   0  0  0  0  0  0  0  0  0  0  0  0
   61.8320   29.2820   51.0860 S   0  0  0  0  0  0  0  0  0  0  0  0
   60.9230   30.0010   52.0440 O   0  0  0  0  0  0  0  0  0  0  0  0
   62.0380   27.8790   51.5870 O   0  0  0  0  0  0  0  0  0  0  0  0
   61.1110   29.2600   49.5100 N   0  0  0  0  0  0  0  0  0  0  0  0
   60.7660   27.9820   48.8830 C   0  0  0  0  0  0  0  0  0  0  0  0
   60.0150   28.2200   47.6020 C   0  0  0  0  0  0  0  0  0  0  0  0
   58.6210   28.3760   47.6150 C   0  0  0  0  0  0  0  0  0  0  0  0
   57.9310   28.6500   46.4320 C   0  0  0  0  0  0  0  0  0  0  0  0
   58.6210   28.7830   45.2200 C   0  0  0  0  0  0  0  0  0  0  0  0
   57.8770   29.0600   44.0640 O   0  0  0  0  0  0  0  0  0  0  0  0
   56.4980   30.0710   44.0130 S   0  0  0  0  0  0  0  0  0  0  0  0
   55.1930   29.3280   44.8680 N   0  0  0  0  0  0  0  0  0  0  0  0
   56.8170   31.4010   44.6350 O   0  0  0  0  0  0  0  0  0  0  0  0
   56.0940   30.2810   42.5810 O   0  0  0  0  0  0  0  0  0  0  0  0
   60.0200   28.6370   45.2080 C   0  0  0  0  0  0  0  0  0  0  0  0
   60.7110   28.3640   46.3930 C   0  0  0  0  0  0  0  0  0  0  0  0
   60.8660   30.4960   48.8300 C   0  0  0  0  0  0  0  0  0  0  0  0
   61.8440   31.1100   47.5960 S   0  0  0  0  0  0  0  0  0  0  0  0
   60.8840   32.4620   47.3300 C   0  0  0  0  0  0  0  0  0  0  0  0
   61.0830   33.4820   46.4030 C   0  0  0  0  0  0  0  0  0  0  0  0
   60.1470   34.5260   46.3530 C   0  0  0  0  0  0  0  0  0  0  0  0
   59.0410   34.5320   47.2230 C   0  0  0  0  0  0  0  0  0  0  0  0
   58.8600   33.4930   48.1520 C   0  0  0  0  0  0  0  0  0  0  0  0
   59.7960   32.4530   48.1950 C   0  0  0  0  0  0  0  0  0  0  0  0
   59.7770   31.3420   49.0500 C   0  0  0  0  0  0  0  0  0  0  0  0
   58.5670   31.0790   50.2970 Cl  0  0  0  0  0  0  0  0  0  0  0  0
   63.5160   31.2500   50.2130 C   0  0  0  0  0  0  0  0  0  0  0  0
   64.7450   31.9180   50.1260 C   0  0  0  0  0  0  0  0  0  0  0  0
   64.8250   33.1570   49.3250 C   0  0  0  0  0  0  0  0  0  0  0  0
   63.7690   33.8300   48.8410 C   0  0  0  0  0  0  0  0  0  0  0  0
   62.6290   34.3260   49.6360 C   0  0  0  0  0  0  0  0  0  0  0  0
   61.6180   34.8430   49.0900 O   0  0  0  0  0  0  0  0  0  0  0  0
   62.6470   34.1700   51.0160 O   0  0  0  0  0  0  0  0  0  0  0  0
   67.2691   33.1330   52.6370 H   0  0  0  0  0  0  0  0  0  0  0  0
   68.3203   33.7333   51.3099 H   0  0  0  0  0  0  0  0  0  0  0  0
   66.5657   34.1183   51.3099 H   0  0  0  0  0  0  0  0  0  0  0  0
   66.5810   29.8914   52.1969 H   0  0  0  0  0  0  0  0  0  0  0  0
   64.4000   28.6904   52.2963 H   0  0  0  0  0  0  0  0  0  0  0  0
   61.6881   27.4230   48.6655 H   0  0  0  0  0  0  0  0  0  0  0  0
   60.1307   27.4040   49.5703 H   0  0  0  0  0  0  0  0  0  0  0  0
   58.0686   28.2821   48.5616 H   0  0  0  0  0  0  0  0  0  0  0  0
   56.8369   28.7623   46.4521 H   0  0  0  0  0  0  0  0  0  0  0  0
   55.5130   28.3700   45.1350 H   0  0  0  0  0  0  0  0  0  0  0  0
   60.5730   28.7380   44.2625 H   0  0  0  0  0  0  0  0  0  0  0  0
   61.8061   28.2617   46.3766 H   0  0  0  0  0  0  0  0  0  0  0  0
   61.9512   33.4695   45.7277 H   0  0  0  0  0  0  0  0  0  0  0  0
   60.2785   35.3443   45.6297 H   0  0  0  0  0  0  0  0  0  0  0  0
   58.3132   35.3554   47.1757 H   0  0  0  0  0  0  0  0  0  0  0  0
   57.9970   33.4970   48.8341 H   0  0  0  0  0  0  0  0  0  0  0  0
   62.6421   31.6438   49.6734 H   0  0  0  0  0  0  0  0  0  0  0  0
   65.8260   33.5586   49.1088 H   0  0  0  0  0  0  0  0  0  0  0  0
   63.7521   34.0287   47.7592 H   0  0  0  0  0  0  0  0  0  0  0  0
  1  2  1  0
  2  3  1  0
  3  4  2  0
  4  5  1  0
  5  6  2  0
  6  7  1  0
  7  8  2  0
  7  9  2  0
  7 10  1  0
 10 11  1  0
 11 12  1  0
 12 13  2  0
 13 14  1  0
 14 15  2  0
 15 16  1  0
 16 17  1  0
 17 18  1  0
 17 19  2  0
 17 20  2  0
 15 21  1  0
 21 22  2  0
 10 23  1  0
 23 24  1  0
 24 25  1  0
 25 26  2  0
 26 27  1  0
 27 28  2  0
 28 29  1  0
 29 30  2  0
 30 31  1  0
 31 32  1  0
  6 33  1  0
 33 34  2  0
 34 35  1  0
 35 36  2  3
 36 37  1  0
 37 38  2  0
 37 39  1  0
 34  3  1  0
 22 12  1  0
 31 23  2  0
 30 25  1  0
  1 40  1  0
  1 41  1  0
  1 42  1  0
  4 43  1  0
  5 44  1  0
 11 45  1  0
 11 46  1  0
 13 47  1  0
 14 48  1  0
 18 49  1  0
 21 50  1  0
 22 51  1  0
 26 52  1  0
 27 53  1  0
 28 54  1  0
 29 55  1  0
 33 56  1  0
 35 57  1  0
 36 58  1  0
M  CHG  2  18  -1  39  -1
M  END
>  <UniqueID>  (17) 
17

>  <SMILES>  (17) 
COc1ccc(S(=O)(=O)N(Cc2ccc(OS([NH-])(=O)=O)cc2)c2sc3ccccc3c2Cl)cc1C=CC(=O)[O-]

>  <Energy>  (17) 
102.64956496164227

>  <Genealogy>  (17) 
COc1ccc(S(=O)(=O)N(Cc2ccc(OS([NH-])(=O)=O)cc2)c2sc3ccccc3c2Cl)cc1C=CC(=O)[O-] (protonated)
COc1ccc(S(=O)(=O)N(Cc2ccc(OS([NH-])(=O)=O)cc2)c2sc3ccccc3c2Cl)cc1C=CC(=O)[O-] (3D coordinates assigned)
COc1ccc(S(=O)(=O)N(Cc2ccc(OS([NH-])(=O)=O)cc2)c2sc3ccccc3c2Cl)cc1C=CC(=O)[O-] (optimized conformer: 102.64956496164227 kcal/mol)

>  <smiles>  (17) 
COc1ccc(S(=O)(=O)N(Cc2ccc(OS(N)(=O)=O)cc2)c2sc3ccccc3c2Cl)cc1C=CC(=O)O

>  <score_type>  (17) 
oracle

>  <origin>  (17) 
adg

>  <m_score__min__energy>  (17) 
-16.010000000000002

>  <m_primary>  (17) 
energy

$$$$
17:0
     RDKit          3D

 57 59  0  0  0  0  0  0  0  0999 V2000
   57.3930   32.7070   40.4330 C   0  0  0  0  0  0  0  0  0  0  0  0
   58.2020   32.7110   41.5890 O   0  0  0  0  0  0  0  0  0  0  0  0
   57.5080   32.1320   42.6770 C   0  0  0  0  0  0  0  0  0  0  0  0
   58.0890   32.5950   43.9930 C   0  0  0  0  0  0  0  0  0  0  0  0
   58.4960   33.9250   44.1240 C   0  0  0  0  0  0  0  0  0  0  0  0
   59.0670   34.3710   45.3170 C   0  0  0  0  0  0  0  0  0  0  0  0
   59.4300   35.5750   45.4040 O   0  0  0  0  0  0  0  0  0  0  0  0
   59.2300   33.5080   46.3710 N   0  0  0  0  0  0  0  0  0  0  0  0
   59.8410   33.9490   47.6370 C   0  0  0  0  0  0  0  0  0  0  0  0
   61.0690   33.1320   47.9500 C   0  0  0  0  0  0  0  0  0  0  0  0
   62.3200   33.5220   47.4510 C   0  0  0  0  0  0  0  0  0  0  0  0
   63.4620   32.7810   47.7590 C   0  0  0  0  0  0  0  0  0  0  0  0
   63.3690   31.6540   48.5770 C   0  0  0  0  0  0  0  0  0  0  0  0
   62.1290   31.2450   49.0800 C   0  0  0  0  0  0  0  0  0  0  0  0
   62.0930   30.1170   49.9670 N   0  0  0  0  0  0  0  0  0  0  0  0
   60.9450   29.3340   50.3260 C   0  0  0  0  0  0  0  0  0  0  0  0
   60.5460   29.3070   51.5220 O   0  0  0  0  0  0  0  0  0  0  0  0
   60.1990   28.5970   49.2810 C   0  0  0  0  0  0  0  0  0  0  0  0
   60.4290   27.2250   49.0680 C   0  0  0  0  0  0  0  0  0  0  0  0
   59.7140   26.5310   48.0890 C   0  0  0  0  0  0  0  0  0  0  0  0
   58.7590   27.1900   47.3060 C   0  0  0  0  0  0  0  0  0  0  0  0
   57.8630   26.2940   46.0800 S   0  0  0  0  0  0  0  0  0  0  0  0
   57.9490   27.1210   44.5610 N   0  0  0  0  0  0  0  0  0  0  0  0
   56.4270   26.1710   46.5060 O   0  0  0  0  0  0  0  0  0  0  0  0
   58.4430   24.9180   45.9110 O   0  0  0  0  0  0  0  0  0  0  0  0
   58.5300   28.5580   47.5050 C   0  0  0  0  0  0  0  0  0  0  0  0
   59.2440   29.2580   48.4840 C   0  0  0  0  0  0  0  0  0  0  0  0
   60.9810   32.0000   48.7790 C   0  0  0  0  0  0  0  0  0  0  0  0
   58.8490   32.2000   46.2570 C   0  0  0  0  0  0  0  0  0  0  0  0
   58.2840   31.7090   45.0690 C   0  0  0  0  0  0  0  0  0  0  0  0
   57.9150   30.3290   44.9270 N   0  0  0  0  0  0  0  0  0  0  0  0
   56.3940   29.7420   44.3370 S   0  0  0  0  0  0  0  0  0  0  0  0
   56.6070   29.2400   42.6430 C   0  0  0  0  0  0  0  0  0  0  0  0
   55.9540   28.5540   45.1440 O   0  0  0  0  0  0  0  0  0  0  0  0
   55.3590   30.8290   44.4140 O   0  0  0  0  0  0  0  0  0  0  0  0
   56.3331   32.7018   40.7272 H   0  0  0  0  0  0  0  0  0  0  0  0
   57.6032   33.6062   39.8353 H   0  0  0  0  0  0  0  0  0  0  0  0
   57.6120   31.8099   39.8353 H   0  0  0  0  0  0  0  0  0  0  0  0
   56.4493   32.4264   42.6269 H   0  0  0  0  0  0  0  0  0  0  0  0
   57.6052   31.0381   42.6146 H   0  0  0  0  0  0  0  0  0  0  0  0
   58.3660   34.6232   43.2840 H   0  0  0  0  0  0  0  0  0  0  0  0
   60.1245   35.0084   47.5512 H   0  0  0  0  0  0  0  0  0  0  0  0
   59.1103   33.8135   48.4480 H   0  0  0  0  0  0  0  0  0  0  0  0
   62.4017   34.4153   46.8144 H   0  0  0  0  0  0  0  0  0  0  0  0
   64.4388   33.0863   47.3556 H   0  0  0  0  0  0  0  0  0  0  0  0
   64.2758   31.0840   48.8277 H   0  0  0  0  0  0  0  0  0  0  0  0
   61.1769   26.6955   49.6766 H   0  0  0  0  0  0  0  0  0  0  0  0
   59.9028   25.4587   47.9322 H   0  0  0  0  0  0  0  0  0  0  0  0
   57.0200   27.0150   44.0940 H   0  0  0  0  0  0  0  0  0  0  0  0
   58.0680   28.1370   44.7710 H   0  0  0  0  0  0  0  0  0  0  0  0
   57.7857   29.0839   46.8890 H   0  0  0  0  0  0  0  0  0  0  0  0
   59.0582   30.3320   48.6322 H   0  0  0  0  0  0  0  0  0  0  0  0
   60.0072   31.7025   49.1953 H   0  0  0  0  0  0  0  0  0  0  0  0
   58.9875   31.5204   47.1108 H   0  0  0  0  0  0  0  0  0  0  0  0
   57.0365   28.2278   42.6118 H   0  0  0  0  0  0  0  0  0  0  0  0
   55.6313   29.2402   42.1351 H   0  0  0  0  0  0  0  0  0  0  0  0
   57.2849   29.9418   42.1351 H   0  0  0  0  0  0  0  0  0  0  0  0
  1  2  1  0
  2  3  1  0
  3  4  1  0
  4  5  2  0
  5  6  1  0
  6  7  2  0
  6  8  1  0
  8  9  1  0
  9 10  1  0
 10 11  2  0
 11 12  1  0
 12 13  2  0
 13 14  1  0
 14 15  1  0
 15 16  1  0
 16 17  2  0
 16 18  1  0
 18 19  2  0
 19 20  1  0
 20 21  2  0
 21 22  1  0
 22 23  1  0
 22 24  2  0
 22 25  2  0
 21 26  1  0
 26 27  2  0
 14 28  2  0
  8 29  1  0
 29 30  2  0
 30 31  1  0
 31 32  1  0
 32 33  1  0
 32 34  2  0
 32 35  2  0
 30  4  1  0
 28 10  1  0
 27 18  1  0
  1 36  1  0
  1 37  1  0
  1 38  1  0
  3 39  1  0
  3 40  1  0
  5 41  1  0
  9 42  1  0
  9 43  1  0
 11 44  1  0
 12 45  1  0
 13 46  1  0
 19 47  1  0
 20 48  1  0
 23 49  1  0
 23 50  1  0
 26 51  1  0
 27 52  1  0
 28 53  1  0
 29 54  1  0
 33 55  1  0
 33 56  1  0
 33 57  1  0
M  CHG  2  15  -1  31  -1
M  END
>  <UniqueID>  (18) 
18

>  <SMILES>  (18) 
COCc1cc(=O)n(Cc2cccc([N-]C(=O)c3ccc(S(N)(=O)=O)cc3)c2)cc1[N-]S(C)(=O)=O

>  <Energy>  (18) 
65.65654747980604

>  <Genealogy>  (18) 
COCc1cc(=O)n(Cc2cccc([N-]C(=O)c3ccc(S(N)(=O)=O)cc3)c2)cc1[N-]S(C)(=O)=O (protonated)
COCc1cc(=O)n(Cc2cccc([N-]C(=O)c3ccc(S(N)(=O)=O)cc3)c2)cc1[N-]S(C)(=O)=O (3D coordinates assigned)
COCc1cc(=O)n(Cc2cccc([N-]C(=O)c3ccc(S(N)(=O)=O)cc3)c2)cc1[N-]S(C)(=O)=O (optimized conformer: 65.65654747980604 kcal/mol)

>  <smiles>  (18) 
COCc1cc(=O)n(Cc2cccc(NC(=O)c3ccc(S(N)(=O)=O)cc3)c2)cc1NS(C)(=O)=O

>  <score_type>  (18) 
oracle

>  <origin>  (18) 
adg

>  <m_score__min__energy>  (18) 
-12.92

>  <m_primary>  (18) 
energy

$$$$
18:0
     RDKit          3D

 50 53  0  0  0  0  0  0  0  0999 V2000
   56.9643   31.3476   41.8772 H   0  0  0  0  0  0  0  0  0  0  0  0
   56.8560   30.9180   42.8840 C   0  0  0  0  0  0  0  0  0  0  0  0
   56.2250   29.7660   43.1800 N   0  0  0  0  0  0  0  0  0  0  0  0
   56.3520   29.6830   44.5210 C   0  0  0  0  0  0  0  0  0  0  0  0
   55.8790   28.6870   45.2080 N   0  0  0  0  0  0  0  0  0  0  0  0
   56.6520   27.5620   45.6500 C   0  0  0  0  0  0  0  0  0  0  0  0
   58.0490   27.6460   45.6130 C   0  0  0  0  0  0  0  0  0  0  0  0
   58.5322   28.5703   45.2635 H   0  0  0  0  0  0  0  0  0  0  0  0
   58.8340   26.5610   46.0180 C   0  0  0  0  0  0  0  0  0  0  0  0
   59.9310   26.6409   46.0050 H   0  0  0  0  0  0  0  0  0  0  0  0
   58.2250   25.3760   46.4390 C   0  0  0  0  0  0  0  0  0  0  0  0
   58.8428   24.5266   46.7660 H   0  0  0  0  0  0  0  0  0  0  0  0
   56.8310   25.2690   46.4450 C   0  0  0  0  0  0  0  0  0  0  0  0
   56.3537   24.3304   46.7631 H   0  0  0  0  0  0  0  0  0  0  0  0
   56.0420   26.3540   46.0470 C   0  0  0  0  0  0  0  0  0  0  0  0
   54.6960   26.2030   45.9900 F   0  0  0  0  0  0  0  0  0  0  0  0
   57.0170   30.6890   45.0450 O   0  0  0  0  0  0  0  0  0  0  0  0
   57.3440   31.4710   44.0480 C   0  0  0  0  0  0  0  0  0  0  0  0
   58.0980   32.7620   44.1840 C   0  0  0  0  0  0  0  0  0  0  0  0
   57.4939   33.5743   43.7536 H   0  0  0  0  0  0  0  0  0  0  0  0
   59.0551   32.6570   43.6520 H   0  0  0  0  0  0  0  0  0  0  0  0
   58.3910   33.0810   45.6020 N   0  0  2  0  0  0  0  0  0  0  0  0
   57.6320   32.6610   46.1910 H   0  0  0  0  0  0  0  0  0  0  0  0
   58.3660   34.5490   45.8010 C   0  0  0  0  0  0  0  0  0  0  0  0
   58.8907   35.0256   44.9599 H   0  0  0  0  0  0  0  0  0  0  0  0
   57.3109   34.8556   45.8541 H   0  0  0  0  0  0  0  0  0  0  0  0
   59.0420   34.9920   47.1170 C   0  0  0  0  0  0  0  0  0  0  0  0
   60.0456   35.3780   46.8852 H   0  0  0  0  0  0  0  0  0  0  0  0
   58.4067   35.7645   47.5749 H   0  0  0  0  0  0  0  0  0  0  0  0
   59.1720   33.8910   48.0830 N   0  0  0  0  0  0  0  0  0  0  0  0
   58.2000   33.6280   48.3740 H   0  0  0  0  0  0  0  0  0  0  0  0
   59.9160   32.7130   47.5640 C   0  0  1  0  0  0  0  0  0  0  0  0
   61.4170   32.8850   47.9230 C   0  0  0  0  0  0  0  0  0  0  0  0
   62.3710   33.3170   46.9620 C   0  0  0  0  0  0  0  0  0  0  0  0
   62.0367   33.5717   45.9455 H   0  0  0  0  0  0  0  0  0  0  0  0
   63.7270   33.4240   47.2860 C   0  0  0  0  0  0  0  0  0  0  0  0
   64.4434   33.7805   46.5312 H   0  0  0  0  0  0  0  0  0  0  0  0
   64.1750   33.0820   48.5580 C   0  0  0  0  0  0  0  0  0  0  0  0
   65.2412   33.1780   48.8111 H   0  0  0  0  0  0  0  0  0  0  0  0
   63.2710   32.6180   49.5100 C   0  0  0  0  0  0  0  0  0  0  0  0
   63.6264   32.3371   50.5124 H   0  0  0  0  0  0  0  0  0  0  0  0
   61.9130   32.5080   49.1960 C   0  0  0  0  0  0  0  0  0  0  0  0
   61.2150   32.1208   49.9528 H   0  0  0  0  0  0  0  0  0  0  0  0
   59.3300   31.4370   48.2380 C   0  0  0  0  0  0  0  0  0  0  0  0
   59.3793   31.5444   49.3316 H   0  0  0  0  0  0  0  0  0  0  0  0
   58.2822   31.3075   47.9292 H   0  0  0  0  0  0  0  0  0  0  0  0
   59.9146   30.5579   47.9292 H   0  0  0  0  0  0  0  0  0  0  0  0
   59.7020   32.5330   46.0180 C   0  0  0  0  0  0  0  0  0  0  0  0
   60.5016   33.0623   45.4791 H   0  0  0  0  0  0  0  0  0  0  0  0
   59.7268   31.4591   45.7810 H   0  0  0  0  0  0  0  0  0  0  0  0
  1  2  1  0
  2  3  1  0
  3  4  1  0
  4  5  2  0
  5  6  1  0
  6  7  2  0
  7  8  1  0
  7  9  1  0
  9 10  1  0
  9 11  2  0
 11 12  1  0
 11 13  1  0
 13 14  1  0
 13 15  2  0
 15 16  1  0
  4 17  1  0
 17 18  1  0
 18 19  1  0
 19 20  1  0
 19 21  1  0
 19 22  1  0
 22 23  1  1
 22 24  1  0
 24 25  1  0
 24 26  1  0
 24 27  1  0
 27 28  1  0
 27 29  1  0
 27 30  1  0
 30 31  1  0
 30 32  1  0
 32 33  1  0
 33 34  2  0
 34 35  1  0
 34 36  1  0
 36 37  1  0
 36 38  2  0
 38 39  1  0
 38 40  1  0
 40 41  1  0
 40 42  2  0
 42 43  1  0
 32 44  1  1
 44 45  1  0
 44 46  1  0
 44 47  1  0
 32 48  1  0
 48 49  1  0
 48 50  1  0
 18  2  2  0
 48 22  1  0
 15  6  1  0
 42 33  1  0
M  CHG  2   3  -1  22   1
M  END
>  <UniqueID>  (19) 
19

>  <SMILES>  (19) 
C[C@@]1(c2ccccc2)C[N@H+](Cc2c[n-]/c(=N/c3ccccc3F)o2)CCN1

>  <Energy>  (19) 
108.80435570437888

>  <Genealogy>  (19) 
CC1(c2ccccc2)C[NH+](Cc2c[n-]c(=Nc3ccccc3F)o2)CCN1 (protonated)
C[C@@]1(c2ccccc2)C[N@H+](Cc2c[n-]c(=Nc3ccccc3F)o2)CCN1 (chirality)
C[C@@]1(c2ccccc2)C[N@H+](Cc2c[n-]/c(=N/c3ccccc3F)o2)CCN1 (cis-trans isomerization)
C[C@@]1(c2ccccc2)C[N@H+](Cc2c[n-]/c(=N/c3ccccc3F)o2)CCN1 (3D coordinates assigned)
C[C@@]1(c2ccccc2)C[N@H+](Cc2c[n-]/c(=N/c3ccccc3F)o2)CCN1 (nonaromatic ring conformer: 108.80435570437888 kcal/mol)

>  <smiles>  (19) 
CC1(c2ccccc2)CN(Cc2c[nH]c(=Nc3ccccc3F)o2)CCN1

>  <score_type>  (19) 
oracle

>  <origin>  (19) 
adg

>  <m_score__min__energy>  (19) 
-9.2300000000000004

>  <m_primary>  (19) 
energy

$$$$
19:0
     RDKit          3D

 54 56  0  0  0  0  0  0  0  0999 V2000
   63.1260   30.5090   52.6950 C   0  0  0  0  0  0  0  0  0  0  0  0
   63.0060   30.8610   51.2410 C   0  0  0  0  0  0  0  0  0  0  0  0
   63.9020   31.7700   50.6690 C   0  0  0  0  0  0  0  0  0  0  0  0
   63.7720   32.1360   49.3280 C   0  0  0  0  0  0  0  0  0  0  0  0
   62.7410   31.6040   48.5430 C   0  0  0  0  0  0  0  0  0  0  0  0
   62.6250   32.0100   47.1740 N   0  0  0  0  0  0  0  0  0  0  0  0
   62.6390   33.3760   46.7400 C   0  0  0  0  0  0  0  0  0  0  0  0
   63.7330   33.9960   46.7070 O   0  0  0  0  0  0  0  0  0  0  0  0
   61.3650   34.1090   46.4280 C   0  0  0  0  0  0  0  0  0  0  0  0
   60.2190   33.1140   46.2240 C   0  0  0  0  0  0  0  0  0  0  0  0
   58.8130   33.5370   47.2360 S   0  0  0  0  0  0  0  0  0  0  0  0
   57.6020   32.7630   46.7970 O   0  0  0  0  0  0  0  0  0  0  0  0
   58.5210   35.0050   47.0940 O   0  0  0  0  0  0  0  0  0  0  0  0
   59.1860   33.1730   48.9180 C   0  0  0  0  0  0  0  0  0  0  0  0
   58.4210   32.2280   49.6160 C   0  0  0  0  0  0  0  0  0  0  0  0
   58.7040   31.9470   50.9570 C   0  0  0  0  0  0  0  0  0  0  0  0
   59.7500   32.6080   51.6040 C   0  0  0  0  0  0  0  0  0  0  0  0
   60.5060   33.5620   50.9170 C   0  0  0  0  0  0  0  0  0  0  0  0
   60.2250   33.8460   49.5770 C   0  0  0  0  0  0  0  0  0  0  0  0
   61.8270   30.6870   49.1090 C   0  0  0  0  0  0  0  0  0  0  0  0
   60.7510   30.0690   48.2980 C   0  0  0  0  0  0  0  0  0  0  0  0
   59.7510   29.5590   48.8710 O   0  0  0  0  0  0  0  0  0  0  0  0
   60.8190   30.1020   46.8620 N   0  0  0  0  0  0  0  0  0  0  0  0
   59.8730   29.4490   46.0010 C   0  0  0  0  0  0  0  0  0  0  0  0
   60.2060   28.2720   45.3100 C   0  0  0  0  0  0  0  0  0  0  0  0
   59.2750   27.6650   44.4650 C   0  0  0  0  0  0  0  0  0  0  0  0
   58.0080   28.2290   44.2930 C   0  0  0  0  0  0  0  0  0  0  0  0
   57.6620   29.4180   44.9590 C   0  0  0  0  0  0  0  0  0  0  0  0
   56.3200   30.0190   44.7710 C   0  0  0  0  0  0  0  0  0  0  0  0
   55.1460   29.2110   44.8420 N   0  0  0  0  0  0  0  0  0  0  0  0
   56.2020   31.2540   44.5470 O   0  0  0  0  0  0  0  0  0  0  0  0
   58.6080   30.0250   45.8060 C   0  0  0  0  0  0  0  0  0  0  0  0
   61.9670   30.3290   50.4620 C   0  0  0  0  0  0  0  0  0  0  0  0
   62.8311   31.3740   53.3072 H   0  0  0  0  0  0  0  0  0  0  0  0
   62.4673   29.6577   52.9217 H   0  0  0  0  0  0  0  0  0  0  0  0
   64.1675   30.2373   52.9217 H   0  0  0  0  0  0  0  0  0  0  0  0
   64.7120   32.1980   51.2779 H   0  0  0  0  0  0  0  0  0  0  0  0
   64.4844   32.8473   48.8846 H   0  0  0  0  0  0  0  0  0  0  0  0
   61.1185   34.7809   47.2633 H   0  0  0  0  0  0  0  0  0  0  0  0
   61.5029   34.6919   45.5054 H   0  0  0  0  0  0  0  0  0  0  0  0
   59.9169   33.1260   45.1664 H   0  0  0  0  0  0  0  0  0  0  0  0
   60.5699   32.1128   46.5147 H   0  0  0  0  0  0  0  0  0  0  0  0
   57.5964   31.7063   49.1082 H   0  0  0  0  0  0  0  0  0  0  0  0
   58.1021   31.2049   51.5020 H   0  0  0  0  0  0  0  0  0  0  0  0
   59.9792   32.3778   52.6549 H   0  0  0  0  0  0  0  0  0  0  0  0
   61.3228   34.0899   51.4310 H   0  0  0  0  0  0  0  0  0  0  0  0
   60.8199   34.5986   49.0388 H   0  0  0  0  0  0  0  0  0  0  0  0
   61.4950   30.7660   46.4210 H   0  0  0  0  0  0  0  0  0  0  0  0
   61.2041   27.8269   45.4352 H   0  0  0  0  0  0  0  0  0  0  0  0
   59.5397   26.7395   43.9327 H   0  0  0  0  0  0  0  0  0  0  0  0
   57.2769   27.7398   43.6326 H   0  0  0  0  0  0  0  0  0  0  0  0
   54.4500   29.3410   45.6090 H   0  0  0  0  0  0  0  0  0  0  0  0
   58.3528   30.9626   46.3216 H   0  0  0  0  0  0  0  0  0  0  0  0
   61.2541   29.6241   50.9146 H   0  0  0  0  0  0  0  0  0  0  0  0
  1  2  1  0
  2  3  2  0
  3  4  1  0
  4  5  2  0
  5  6  1  0
  6  7  1  0
  7  8  2  0
  7  9  1  0
  9 10  1  0
 10 11  1  0
 11 12  2  0
 11 13  2  0
 11 14  1  0
 14 15  2  0
 15 16  1  0
 16 17  2  0
 17 18  1  0
 18 19  2  0
  5 20  1  0
 20 21  1  0
 21 22  2  0
 21 23  1  0
 23 24  1  0
 24 25  2  0
 25 26  1  0
 26 27  2  0
 27 28  1  0
 28 29  1  0
 29 30  1  0
 29 31  2  0
 28 32  2  0
 20 33  2  0
 33  2  1  0
 19 14  1  0
 32 24  1  0
  1 34  1  0
  1 35  1  0
  1 36  1  0
  3 37  1  0
  4 38  1  0
  9 39  1  0
  9 40  1  0
 10 41  1  0
 10 42  1  0
 15 43  1  0
 16 44  1  0
 17 45  1  0
 18 46  1  0
 19 47  1  0
 23 48  1  0
 25 49  1  0
 26 50  1  0
 27 51  1  0
 30 52  1  0
 32 53  1  0
 33 54  1  0
M  CHG  2   6  -1  30  -1
M  END
>  <UniqueID>  (20) 
20

>  <SMILES>  (20) 
Cc1ccc([N-]C(=O)CCS(=O)(=O)c2ccccc2)c(C(=O)Nc2cccc(C([NH-])=O)c2)c1

>  <Energy>  (20) 
57.651708017805994

>  <Genealogy>  (20) 
Cc1ccc([N-]C(=O)CCS(=O)(=O)c2ccccc2)c(C(=O)Nc2cccc(C([NH-])=O)c2)c1 (protonated)
Cc1ccc([N-]C(=O)CCS(=O)(=O)c2ccccc2)c(C(=O)Nc2cccc(C([NH-])=O)c2)c1 (3D coordinates assigned)
Cc1ccc([N-]C(=O)CCS(=O)(=O)c2ccccc2)c(C(=O)Nc2cccc(C([NH-])=O)c2)c1 (optimized conformer: 57.651708017805994 kcal/mol)

>  <smiles>  (20) 
Cc1ccc(NC(=O)CCS(=O)(=O)c2ccccc2)c(C(=O)Nc2cccc(C(N)=O)c2)c1

>  <score_type>  (20) 
oracle

>  <origin>  (20) 
adg

>  <m_score__min__energy>  (20) 
-13.34

>  <m_primary>  (20) 
energy

$$$$
20:0
     RDKit          3D

 22 23  0  0  0  0  0  0  0  0999 V2000
   59.2580   25.6480   47.0720 O   0  0  0  0  0  0  0  0  0  0  0  0
   58.2650   26.2600   46.5980 C   0  0  0  0  0  0  0  0  0  0  0  0
   58.3780   27.4080   45.8940 N   0  0  0  0  0  0  0  0  0  0  0  0
   57.1000   27.7100   45.5880 C   0  0  0  0  0  0  0  0  0  0  0  0
   56.6150   29.1110   44.6530 S   0  0  0  0  0  0  0  0  0  0  0  0
   55.1410   29.3510   44.8290 O   0  0  0  0  0  0  0  0  0  0  0  0
   56.8850   28.8580   43.1960 O   0  0  0  0  0  0  0  0  0  0  0  0
   57.5060   30.5220   45.2090 C   0  0  0  0  0  0  0  0  0  0  0  0
   57.3290   31.7580   44.5690 C   0  0  0  0  0  0  0  0  0  0  0  0
   58.0220   32.8870   45.0180 C   0  0  0  0  0  0  0  0  0  0  0  0
   58.8900   32.7880   46.1100 C   0  0  0  0  0  0  0  0  0  0  0  0
   59.0630   31.5600   46.7560 C   0  0  0  0  0  0  0  0  0  0  0  0
   58.3710   30.4300   46.3090 C   0  0  0  0  0  0  0  0  0  0  0  0
   56.2650   26.7500   46.1060 C   0  0  0  0  0  0  0  0  0  0  0  0
   54.8810   26.7130   45.9930 O   0  0  0  0  0  0  0  0  0  0  0  0
   56.9970   25.8290   46.7470 N   0  0  0  0  0  0  0  0  0  0  0  0
   56.6438   31.8393   43.7123 H   0  0  0  0  0  0  0  0  0  0  0  0
   57.8841   33.8537   44.5116 H   0  0  0  0  0  0  0  0  0  0  0  0
   59.4365   33.6759   46.4607 H   0  0  0  0  0  0  0  0  0  0  0  0
   59.7439   31.4828   47.6164 H   0  0  0  0  0  0  0  0  0  0  0  0
   58.5055   29.4661   46.8217 H   0  0  0  0  0  0  0  0  0  0  0  0
   56.6600   24.9750   47.2450 H   0  0  0  0  0  0  0  0  0  0  0  0
  1  2  2  0
  2  3  1  0
  3  4  1  0
  4  5  1  0
  5  6  2  0
  5  7  2  0
  5  8  1  0
  8  9  2  0
  9 10  1  0
 10 11  2  0
 11 12  1  0
 12 13  2  0
  4 14  2  0
 14 15  1  0
 14 16  1  0
 16  2  1  0
 13  8  1  0
  9 17  1  0
 10 18  1  0
 11 19  1  0
 12 20  1  0
 13 21  1  0
 16 22  1  0
M  CHG  2   3  -1  15  -1
M  END
>  <UniqueID>  (21) 
21

>  <SMILES>  (21) 
O=c1[n-]c(S(=O)(=O)c2ccccc2)c([O-])[nH]1

>  <Energy>  (21) 
55.853965469420395

>  <Genealogy>  (21) 
O=c1[n-]c(S(=O)(=O)c2ccccc2)c([O-])[nH]1 (protonated)
O=c1[n-]c(S(=O)(=O)c2ccccc2)c([O-])[nH]1 (3D coordinates assigned)
O=c1[n-]c(S(=O)(=O)c2ccccc2)c([O-])[nH]1 (optimized conformer: 55.853965469420395 kcal/mol)

>  <smiles>  (21) 
O=c1[nH]c(O)c(S(=O)(=O)c2ccccc2)[nH]1

>  <score_type>  (21) 
oracle

>  <origin>  (21) 
adg

>  <m_score__min__energy>  (21) 
-12.4

>  <m_primary>  (21) 
energy

$$$$
21:0
     RDKit          3D

 48 50  0  0  0  0  0  0  0  0999 V2000
   58.5120   31.7240   44.1320 O   0  0  0  0  0  0  0  0  0  0  0  0
   57.4060   31.8440   44.7260 C   0  0  0  0  0  0  0  0  0  0  0  0
   56.9560   33.1850   45.2330 C   0  0  0  0  0  0  0  0  0  0  0  0
   57.3440   33.4230   46.7040 C   0  0  0  0  0  0  0  0  0  0  0  0
   58.7740   33.0190   46.9980 C   0  0  0  0  0  0  0  0  0  0  0  0
   59.0240   31.8360   47.7230 C   0  0  0  0  0  0  0  0  0  0  0  0
   60.3360   31.4220   47.9780 C   0  0  0  0  0  0  0  0  0  0  0  0
   61.4130   32.1840   47.5200 C   0  0  0  0  0  0  0  0  0  0  0  0
   61.1800   33.3650   46.8060 C   0  0  0  0  0  0  0  0  0  0  0  0
   59.8690   33.7910   46.5430 C   0  0  0  0  0  0  0  0  0  0  0  0
   59.6410   35.2950   45.6460 Cl  0  0  0  0  0  0  0  0  0  0  0  0
   56.5360   30.7150   44.8670 N   0  0  0  0  0  0  0  0  0  0  0  0
   56.6380   29.5050   44.0590 C   0  0  0  0  0  0  0  0  0  0  0  0
   57.7470   28.5610   44.5940 C   0  0  2  0  0  0  0  0  0  0  0  0
   57.1520   27.2570   45.0820 C   0  0  0  0  0  0  0  0  0  0  0  0
   57.6950   25.9890   44.9560 C   0  0  0  0  0  0  0  0  0  0  0  0
   56.7970   25.1330   45.5600 C   0  0  0  0  0  0  0  0  0  0  0  0
   55.7680   25.9240   46.0210 C   0  0  0  0  0  0  0  0  0  0  0  0
   56.0070   27.1810   45.7240 O   0  0  0  0  0  0  0  0  0  0  0  0
   58.6400   29.2250   45.5980 N   0  0  0  0  0  0  0  0  0  0  0  0
   58.5560   28.6700   46.9820 C   0  0  0  0  0  0  0  0  0  0  0  0
   59.8000   27.8670   47.3860 C   0  0  0  0  0  0  0  0  0  0  0  0
   60.3070   27.1800   46.2650 O   0  0  0  0  0  0  0  0  0  0  0  0
   60.9100   28.1010   45.3830 C   0  0  0  0  0  0  0  0  0  0  0  0
   60.0430   29.3610   45.1210 C   0  0  0  0  0  0  0  0  0  0  0  0
   57.4191   33.9686   44.6154 H   0  0  0  0  0  0  0  0  0  0  0  0
   55.8582   33.2138   45.1693 H   0  0  0  0  0  0  0  0  0  0  0  0
   57.2254   34.4926   46.9317 H   0  0  0  0  0  0  0  0  0  0  0  0
   56.6854   32.8017   47.3287 H   0  0  0  0  0  0  0  0  0  0  0  0
   58.1806   31.2334   48.0913 H   0  0  0  0  0  0  0  0  0  0  0  0
   60.5195   30.4946   48.5403 H   0  0  0  0  0  0  0  0  0  0  0  0
   62.4437   31.8562   47.7203 H   0  0  0  0  0  0  0  0  0  0  0  0
   62.0307   33.9637   46.4484 H   0  0  0  0  0  0  0  0  0  0  0  0
   55.6742   28.9755   44.0837 H   0  0  0  0  0  0  0  0  0  0  0  0
   56.8964   29.7957   43.0300 H   0  0  0  0  0  0  0  0  0  0  0  0
   58.4119   28.3139   43.7532 H   0  0  0  0  0  0  0  0  0  0  0  0
   58.6463   25.7198   44.4737 H   0  0  0  0  0  0  0  0  0  0  0  0
   56.8851   24.0406   45.6542 H   0  0  0  0  0  0  0  0  0  0  0  0
   54.8799   25.5582   46.5571 H   0  0  0  0  0  0  0  0  0  0  0  0
   58.3020   30.2140   45.6670 H   0  0  0  0  0  0  0  0  0  0  0  0
   58.4345   29.5054   47.6872 H   0  0  0  0  0  0  0  0  0  0  0  0
   57.6988   27.9811   47.0073 H   0  0  0  0  0  0  0  0  0  0  0  0
   60.5682   28.5529   47.7726 H   0  0  0  0  0  0  0  0  0  0  0  0
   59.5271   27.1405   48.1655 H   0  0  0  0  0  0  0  0  0  0  0  0
   61.8692   28.4215   45.8157 H   0  0  0  0  0  0  0  0  0  0  0  0
   61.0397   27.5894   44.4179 H   0  0  0  0  0  0  0  0  0  0  0  0
   60.5051   30.2153   45.6373 H   0  0  0  0  0  0  0  0  0  0  0  0
   60.0020   29.5050   44.0312 H   0  0  0  0  0  0  0  0  0  0  0  0
  1  2  2  0
  2  3  1  0
  3  4  1  0
  4  5  1  0
  5  6  2  0
  6  7  1  0
  7  8  2  0
  8  9  1  0
  9 10  2  0
 10 11  1  0
  2 12  1  0
 12 13  1  0
 13 14  1  0
 14 15  1  0
 15 16  2  0
 16 17  1  0
 17 18  2  0
 18 19  1  0
 14 20  1  0
 20 21  1  0
 21 22  1  0
 22 23  1  0
 23 24  1  0
 24 25  1  0
 10  5  1  0
 19 15  1  0
 25 20  1  0
  3 26  1  0
  3 27  1  0
  4 28  1  0
  4 29  1  0
  6 30  1  0
  7 31  1  0
  8 32  1  0
  9 33  1  0
 13 34  1  0
 13 35  1  0
 14 36  1  6
 16 37  1  0
 17 38  1  0
 18 39  1  0
 20 40  1  0
 21 41  1  0
 21 42  1  0
 22 43  1  0
 22 44  1  0
 24 45  1  0
 24 46  1  0
 25 47  1  0
 25 48  1  0
M  CHG  2  12  -1  20   1
M  END
>  <UniqueID>  (22) 
22

>  <SMILES>  (22) 
O=C(CCc1ccccc1Cl)[N-]C[C@H](c1ccco1)[NH+]1CCOCC1

>  <Energy>  (22) 
90.20685301264054

>  <Genealogy>  (22) 
O=C(CCc1ccccc1Cl)[N-]CC(c1ccco1)[NH+]1CCOCC1 (protonated)
O=C(CCc1ccccc1Cl)[N-]C[C@H](c1ccco1)[NH+]1CCOCC1 (chirality)
O=C(CCc1ccccc1Cl)[N-]C[C@H](c1ccco1)[NH+]1CCOCC1 (3D coordinates assigned)
O=C(CCc1ccccc1Cl)[N-]C[C@H](c1ccco1)[NH+]1CCOCC1 (nonaromatic ring conformer: 90.20685301264054 kcal/mol)

>  <smiles>  (22) 
O=C(CCc1ccccc1Cl)NCC(c1ccco1)N1CCOCC1

>  <score_type>  (22) 
oracle

>  <origin>  (22) 
adg

>  <m_score__min__energy>  (22) 
-7.7000000000000002

>  <m_primary>  (22) 
energy

$$$$
22:0
     RDKit          3D

 51 54  0  0  0  0  0  0  0  0999 V2000
   65.1840   34.1600   51.6590 C   0  0  0  0  0  0  0  0  0  0  0  0
   63.7150   34.5500   51.7460 C   0  0  0  0  0  0  0  0  0  0  0  0
   62.9570   33.9440   50.6370 N   0  0  0  0  0  0  0  0  0  0  0  0
   63.5560   33.8530   49.4080 C   0  0  0  0  0  0  0  0  0  0  0  0
   62.8900   33.2680   48.3340 C   0  0  0  0  0  0  0  0  0  0  0  0
   63.6540   33.1830   46.7600 Cl  0  0  0  0  0  0  0  0  0  0  0  0
   61.6050   32.7650   48.5140 C   0  0  0  0  0  0  0  0  0  0  0  0
   60.9780   32.8500   49.7670 C   0  0  0  0  0  0  0  0  0  0  0  0
   59.5890   32.3430   49.9300 C   0  0  0  0  0  0  0  0  0  0  0  0
   59.3420   31.4120   50.7460 O   0  0  0  0  0  0  0  0  0  0  0  0
   58.5250   32.8940   49.1430 N   0  0  0  0  0  0  0  0  0  0  0  0
   58.6510   33.3380   47.7840 C   0  0  0  0  0  0  0  0  0  0  0  0
   59.2760   34.5620   47.5210 C   0  0  0  0  0  0  0  0  0  0  0  0
   59.3990   35.0180   46.2070 C   0  0  0  0  0  0  0  0  0  0  0  0
   58.8770   34.2700   45.1480 C   0  0  0  0  0  0  0  0  0  0  0  0
   58.2100   33.0580   45.4000 C   0  0  0  0  0  0  0  0  0  0  0  0
   57.5920   32.2810   44.2630 C   0  0  0  0  0  0  0  0  0  0  0  0
   57.2190   30.8830   44.6950 C   0  0  0  0  0  0  0  0  0  0  0  0
   55.9170   30.5130   44.5480 N   0  0  0  0  0  0  0  0  0  0  0  0
   55.4820   29.2970   44.8720 N   0  0  0  0  0  0  0  0  0  0  0  0
   56.3210   28.3480   45.3510 C   0  0  0  0  0  0  0  0  0  0  0  0
   55.8610   27.2170   45.6640 O   0  0  0  0  0  0  0  0  0  0  0  0
   57.6870   28.6370   45.4940 C   0  0  0  0  0  0  0  0  0  0  0  0
   58.1490   29.9330   45.1860 C   0  0  0  0  0  0  0  0  0  0  0  0
   59.5520   30.2360   45.3480 N   0  0  0  0  0  0  0  0  0  0  0  0
   60.5070   29.2590   45.8660 C   0  0  0  0  0  0  0  0  0  0  0  0
   60.0650   27.8350   45.5260 C   0  0  0  0  0  0  0  0  0  0  0  0
   58.6420   27.5940   46.0320 C   0  0  0  0  0  0  0  0  0  0  0  0
   58.0990   32.6000   46.7250 C   0  0  0  0  0  0  0  0  0  0  0  0
   61.6910   33.4490   50.8380 C   0  0  0  0  0  0  0  0  0  0  0  0
   61.1630   33.5180   51.9840 O   0  0  0  0  0  0  0  0  0  0  0  0
   65.5951   34.0509   52.6734 H   0  0  0  0  0  0  0  0  0  0  0  0
   65.2787   33.2056   51.1203 H   0  0  0  0  0  0  0  0  0  0  0  0
   65.7396   34.9417   51.1203 H   0  0  0  0  0  0  0  0  0  0  0  0
   63.3022   34.1973   52.7027 H   0  0  0  0  0  0  0  0  0  0  0  0
   63.6315   35.6448   51.6795 H   0  0  0  0  0  0  0  0  0  0  0  0
   64.5738   34.2462   49.2682 H   0  0  0  0  0  0  0  0  0  0  0  0
   61.0774   32.2980   47.6693 H   0  0  0  0  0  0  0  0  0  0  0  0
   59.6712   35.1661   48.3510 H   0  0  0  0  0  0  0  0  0  0  0  0
   59.9095   35.9711   46.0042 H   0  0  0  0  0  0  0  0  0  0  0  0
   58.9882   34.6304   44.1147 H   0  0  0  0  0  0  0  0  0  0  0  0
   56.6868   32.8043   43.9213 H   0  0  0  0  0  0  0  0  0  0  0  0
   58.3292   32.2088   43.4497 H   0  0  0  0  0  0  0  0  0  0  0  0
   59.9210   31.1960   45.1880 H   0  0  0  0  0  0  0  0  0  0  0  0
   61.4940   29.4469   45.4182 H   0  0  0  0  0  0  0  0  0  0  0  0
   60.5574   29.3609   46.9601 H   0  0  0  0  0  0  0  0  0  0  0  0
   60.0922   27.6958   44.4352 H   0  0  0  0  0  0  0  0  0  0  0  0
   60.7464   27.1201   46.0105 H   0  0  0  0  0  0  0  0  0  0  0  0
   58.3082   26.5985   45.7041 H   0  0  0  0  0  0  0  0  0  0  0  0
   58.6467   27.6588   47.1301 H   0  0  0  0  0  0  0  0  0  0  0  0
   57.5752   31.6554   46.9334 H   0  0  0  0  0  0  0  0  0  0  0  0
  1  2  1  0
  2  3  1  0
  3  4  1  0
  4  5  2  0
  5  6  1  0
  5  7  1  0
  7  8  2  0
  8  9  1  0
  9 10  2  0
  9 11  1  0
 11 12  1  0
 12 13  2  0
 13 14  1  0
 14 15  2  0
 15 16  1  0
 16 17  1  0
 17 18  1  0
 18 19  2  0
 19 20  1  0
 20 21  1  0
 21 22  2  0
 21 23  1  0
 23 24  2  0
 24 25  1  0
 25 26  1  0
 26 27  1  0
 27 28  1  0
 16 29  2  0
  8 30  1  0
 30 31  2  0
 30  3  1  0
 29 12  1  0
 24 18  1  0
 28 23  1  0
  1 32  1  0
  1 33  1  0
  1 34  1  0
  2 35  1  0
  2 36  1  0
  4 37  1  0
  7 38  1  0
 13 39  1  0
 14 40  1  0
 15 41  1  0
 17 42  1  0
 17 43  1  0
 25 44  1  0
 26 45  1  0
 26 46  1  0
 27 47  1  0
 27 48  1  0
 28 49  1  0
 28 50  1  0
 29 51  1  0
M  CHG  2  11  -1  20  -1
M  END
>  <UniqueID>  (23) 
23

>  <SMILES>  (23) 
CCn1cc(Cl)cc(C(=O)[N-]c2cccc(Cc3n[n-]c(=O)c4c3NCCC4)c2)c1=O

>  <Energy>  (23) 
63.32161390606799

>  <Genealogy>  (23) 
CCn1cc(Cl)cc(C(=O)[N-]c2cccc(Cc3n[n-]c(=O)c4c3NCCC4)c2)c1=O (protonated)
CCn1cc(Cl)cc(C(=O)[N-]c2cccc(Cc3n[n-]c(=O)c4c3NCCC4)c2)c1=O (3D coordinates assigned)
CCn1cc(Cl)cc(C(=O)[N-]c2cccc(Cc3n[n-]c(=O)c4c3NCCC4)c2)c1=O (nonaromatic ring conformer: 63.32161390606799 kcal/mol)

>  <smiles>  (23) 
CCn1cc(Cl)cc(C(=O)Nc2cccc(Cc3n[nH]c(=O)c4c3NCCC4)c2)c1=O

>  <score_type>  (23) 
oracle

>  <origin>  (23) 
adg

>  <m_score__min__energy>  (23) 
-13.18

>  <m_primary>  (23) 
energy

$$$$
23:0
     RDKit          3D

 45 47  0  0  0  0  0  0  0  0999 V2000
   65.5960   32.7150   49.7320 C   0  0  0  0  0  0  0  0  0  0  0  0
   64.3000   31.9610   49.7570 C   0  0  0  0  0  0  0  0  0  0  0  0
   64.0110   31.0860   50.8140 C   0  0  0  0  0  0  0  0  0  0  0  0
   62.7900   30.4080   50.8510 C   0  0  0  0  0  0  0  0  0  0  0  0
   61.8410   30.6160   49.8480 C   0  0  0  0  0  0  0  0  0  0  0  0
   62.0990   31.5230   48.8050 C   0  0  0  0  0  0  0  0  0  0  0  0
   61.1400   31.7590   47.7590 N   0  0  0  0  0  0  0  0  0  0  0  0
   60.6240   33.0560   47.4100 C   0  0  0  0  0  0  0  0  0  0  0  0
   61.0550   34.0930   47.9820 O   0  0  0  0  0  0  0  0  0  0  0  0
   59.5700   33.1880   46.3850 C   0  0  0  0  0  0  0  0  0  0  0  0
   59.4950   34.3820   45.6490 C   0  0  0  0  0  0  0  0  0  0  0  0
   58.4480   34.5970   44.7500 C   0  0  0  0  0  0  0  0  0  0  0  0
   57.4610   33.6250   44.5810 C   0  0  0  0  0  0  0  0  0  0  0  0
   57.5350   32.4240   45.2870 C   0  0  0  0  0  0  0  0  0  0  0  0
   58.5990   32.1770   46.1630 C   0  0  0  0  0  0  0  0  0  0  0  0
   58.6860   30.8820   46.7760 N   0  0  0  0  0  0  0  0  0  0  0  0
   59.1050   29.6750   46.1230 C   0  0  0  0  0  0  0  0  0  0  0  0
   60.1490   29.7060   45.4180 O   0  0  0  0  0  0  0  0  0  0  0  0
   58.3910   28.3860   46.3190 C   0  0  0  0  0  0  0  0  0  0  0  0
   59.0820   27.3160   46.9180 C   0  0  0  0  0  0  0  0  0  0  0  0
   58.4640   26.0830   47.1070 C   0  0  0  0  0  0  0  0  0  0  0  0
   57.1520   25.8860   46.6830 C   0  0  0  0  0  0  0  0  0  0  0  0
   56.4470   26.9240   46.0700 C   0  0  0  0  0  0  0  0  0  0  0  0
   55.1460   26.6850   45.6380 O   0  0  0  0  0  0  0  0  0  0  0  0
   57.0470   28.1890   45.8940 C   0  0  0  0  0  0  0  0  0  0  0  0
   56.2620   29.2910   45.2250 C   0  0  0  0  0  0  0  0  0  0  0  0
   63.3380   32.1780   48.7580 C   0  0  0  0  0  0  0  0  0  0  0  0
   65.9278   32.9081   50.7628 H   0  0  0  0  0  0  0  0  0  0  0  0
   66.3571   32.1187   49.2074 H   0  0  0  0  0  0  0  0  0  0  0  0
   65.4538   33.6713   49.2074 H   0  0  0  0  0  0  0  0  0  0  0  0
   64.7478   30.9330   51.6163 H   0  0  0  0  0  0  0  0  0  0  0  0
   62.5757   29.7085   51.6724 H   0  0  0  0  0  0  0  0  0  0  0  0
   60.8876   30.0680   49.8739 H   0  0  0  0  0  0  0  0  0  0  0  0
   60.8520   30.9390   47.1780 H   0  0  0  0  0  0  0  0  0  0  0  0
   60.2672   35.1541   45.7818 H   0  0  0  0  0  0  0  0  0  0  0  0
   58.4013   35.5334   44.1746 H   0  0  0  0  0  0  0  0  0  0  0  0
   56.6240   33.8059   43.8906 H   0  0  0  0  0  0  0  0  0  0  0  0
   56.7505   31.6644   45.1543 H   0  0  0  0  0  0  0  0  0  0  0  0
   60.1241   27.4559   47.2411 H   0  0  0  0  0  0  0  0  0  0  0  0
   59.0130   25.2626   47.5922 H   0  0  0  0  0  0  0  0  0  0  0  0
   56.6692   24.9089   46.8316 H   0  0  0  0  0  0  0  0  0  0  0  0
   55.8046   29.9331   45.9921 H   0  0  0  0  0  0  0  0  0  0  0  0
   56.9362   29.8926   44.5977 H   0  0  0  0  0  0  0  0  0  0  0  0
   55.4731   28.8504   44.5977 H   0  0  0  0  0  0  0  0  0  0  0  0
   63.5582   32.8684   47.9304 H   0  0  0  0  0  0  0  0  0  0  0  0
  1  2  1  0
  2  3  2  0
  3  4  1  0
  4  5  2  0
  5  6  1  0
  6  7  1  0
  7  8  1  0
  8  9  2  0
  8 10  1  0
 10 11  2  0
 11 12  1  0
 12 13  2  0
 13 14  1  0
 14 15  2  0
 15 16  1  0
 16 17  1  0
 17 18  2  0
 17 19  1  0
 19 20  2  0
 20 21  1  0
 21 22  2  0
 22 23  1  0
 23 24  1  0
 23 25  2  0
 25 26  1  0
  6 27  2  0
 27  2  1  0
 15 10  1  0
 25 19  1  0
  1 28  1  0
  1 29  1  0
  1 30  1  0
  3 31  1  0
  4 32  1  0
  5 33  1  0
  7 34  1  0
 11 35  1  0
 12 36  1  0
 13 37  1  0
 14 38  1  0
 20 39  1  0
 21 40  1  0
 22 41  1  0
 26 42  1  0
 26 43  1  0
 26 44  1  0
 27 45  1  0
M  CHG  2  16  -1  24  -1
M  END
>  <UniqueID>  (24) 
24

>  <SMILES>  (24) 
Cc1cccc(NC(=O)c2ccccc2[N-]C(=O)c2cccc([O-])c2C)c1

>  <Energy>  (24) 
65.52561734812696

>  <Genealogy>  (24) 
Cc1cccc(NC(=O)c2ccccc2[N-]C(=O)c2cccc([O-])c2C)c1 (protonated)
Cc1cccc(NC(=O)c2ccccc2[N-]C(=O)c2cccc([O-])c2C)c1 (3D coordinates assigned)
Cc1cccc(NC(=O)c2ccccc2[N-]C(=O)c2cccc([O-])c2C)c1 (optimized conformer: 65.52561734812696 kcal/mol)

>  <smiles>  (24) 
Cc1cccc(NC(=O)c2ccccc2NC(=O)c2cccc(O)c2C)c1

>  <score_type>  (24) 
oracle

>  <origin>  (24) 
adg

>  <m_score__min__energy>  (24) 
-12.15

>  <m_primary>  (24) 
energy

$$$$
24:0
     RDKit          3D

 49 51  0  0  0  0  0  0  0  0999 V2000
   58.5600   32.0940   49.7960 C   0  0  0  0  0  0  0  0  0  0  0  0
   59.0150   30.8670   49.1220 N   0  0  0  0  0  0  0  0  0  0  0  0
   58.6800   29.6740   49.9340 C   0  0  0  0  0  0  0  0  0  0  0  0
   59.2570   29.8010   51.3490 C   0  0  0  0  0  0  0  0  0  0  0  0
   58.3010   29.4450   52.3490 O   0  0  0  0  0  0  0  0  0  0  0  0
   56.9730   29.8950   52.4070 C   0  0  0  0  0  0  0  0  0  0  0  0
   56.6120   31.2420   52.2000 C   0  0  0  0  0  0  0  0  0  0  0  0
   55.2730   31.6330   52.2880 C   0  0  0  0  0  0  0  0  0  0  0  0
   54.2740   30.6890   52.5660 C   0  0  0  0  0  0  0  0  0  0  0  0
   52.8390   31.1180   52.7050 C   0  0  0  0  0  0  0  0  0  0  0  0
   52.1860   31.1790   51.3580 C   0  0  0  0  0  0  0  0  0  0  0  0
   52.2710   29.9730   50.1850 S   0  0  0  0  0  0  0  0  0  0  0  0
   51.2430   30.8010   49.1440 C   0  0  0  0  0  0  0  0  0  0  0  0
   50.8980   30.3830   48.0090 O   0  0  0  0  0  0  0  0  0  0  0  0
   50.8140   31.9720   49.6580 N   0  0  0  0  0  0  0  0  0  0  0  0
   51.3340   32.1790   50.8960 C   0  0  0  0  0  0  0  0  0  0  0  0
   51.0220   33.3120   51.6370 O   0  0  0  0  0  0  0  0  0  0  0  0
   54.6340   29.3480   52.7730 C   0  0  0  0  0  0  0  0  0  0  0  0
   55.9730   28.9570   52.6880 C   0  0  0  0  0  0  0  0  0  0  0  0
   60.4610   30.9490   48.7930 C   0  0  0  0  0  0  0  0  0  0  0  0
   60.6550   31.1200   47.2830 C   0  0  0  0  0  0  0  0  0  0  0  0
   59.9100   32.3190   46.7600 C   0  0  0  0  0  0  0  0  0  0  0  0
   60.3800   33.6160   47.0310 C   0  0  0  0  0  0  0  0  0  0  0  0
   59.6670   34.7310   46.5800 C   0  0  0  0  0  0  0  0  0  0  0  0
   58.4800   34.5600   45.8610 C   0  0  0  0  0  0  0  0  0  0  0  0
   58.0000   33.2740   45.5970 C   0  0  0  0  0  0  0  0  0  0  0  0
   58.7100   32.1550   46.0470 C   0  0  0  0  0  0  0  0  0  0  0  0
   58.6118   31.9544   50.8859 H   0  0  0  0  0  0  0  0  0  0  0  0
   59.2062   32.9345   49.5029 H   0  0  0  0  0  0  0  0  0  0  0  0
   57.5220   32.3100   49.5029 H   0  0  0  0  0  0  0  0  0  0  0  0
   57.5862   29.5762   49.9977 H   0  0  0  0  0  0  0  0  0  0  0  0
   59.1156   28.7857   49.4532 H   0  0  0  0  0  0  0  0  0  0  0  0
   60.1290   29.1364   51.4383 H   0  0  0  0  0  0  0  0  0  0  0  0
   59.5408   30.8518   51.5080 H   0  0  0  0  0  0  0  0  0  0  0  0
   57.3867   31.9878   51.9685 H   0  0  0  0  0  0  0  0  0  0  0  0
   55.0010   32.6883   52.1382 H   0  0  0  0  0  0  0  0  0  0  0  0
   52.3027   30.3945   53.3366 H   0  0  0  0  0  0  0  0  0  0  0  0
   52.8051   32.1159   53.1665 H   0  0  0  0  0  0  0  0  0  0  0  0
   53.8590   28.6020   53.0030 H   0  0  0  0  0  0  0  0  0  0  0  0
   56.2435   27.9022   52.8434 H   0  0  0  0  0  0  0  0  0  0  0  0
   60.9035   31.8100   49.3153 H   0  0  0  0  0  0  0  0  0  0  0  0
   60.9537   30.0192   49.1135 H   0  0  0  0  0  0  0  0  0  0  0  0
   61.7273   31.2467   47.0731 H   0  0  0  0  0  0  0  0  0  0  0  0
   60.2594   30.2242   46.7820 H   0  0  0  0  0  0  0  0  0  0  0  0
   61.3115   33.7540   47.5996 H   0  0  0  0  0  0  0  0  0  0  0  0
   60.0403   35.7440   46.7911 H   0  0  0  0  0  0  0  0  0  0  0  0
   57.9233   35.4385   45.5027 H   0  0  0  0  0  0  0  0  0  0  0  0
   57.0636   33.1414   45.0352 H   0  0  0  0  0  0  0  0  0  0  0  0
   58.3277   31.1441   45.8420 H   0  0  0  0  0  0  0  0  0  0  0  0
  1  2  1  0
  2  3  1  0
  3  4  1  0
  4  5  1  0
  5  6  1  0
  6  7  2  0
  7  8  1  0
  8  9  2  0
  9 10  1  0
 10 11  1  0
 11 12  1  0
 12 13  1  0
 13 14  2  0
 13 15  1  0
 15 16  1  0
 16 17  1  0
  9 18  1  0
 18 19  2  0
  2 20  1  0
 20 21  1  0
 21 22  1  0
 22 23  2  0
 23 24  1  0
 24 25  2  0
 25 26  1  0
 26 27  2  0
 19  6  1  0
 27 22  1  0
 16 11  2  0
  1 28  1  0
  1 29  1  0
  1 30  1  0
  3 31  1  0
  3 32  1  0
  4 33  1  0
  4 34  1  0
  7 35  1  0
  8 36  1  0
 10 37  1  0
 10 38  1  0
 18 39  1  0
 19 40  1  0
 20 41  1  0
 20 42  1  0
 21 43  1  0
 21 44  1  0
 23 45  1  0
 24 46  1  0
 25 47  1  0
 26 48  1  0
 27 49  1  0
M  CHG  2  15  -1  17  -1
M  END
>  <UniqueID>  (25) 
25

>  <SMILES>  (25) 
CN(CCOc1ccc(Cc2sc(=O)[n-]c2[O-])cc1)CCc1ccccc1

>  <Energy>  (25) 
79.07144869160587

>  <Genealogy>  (25) 
CN(CCOc1ccc(Cc2sc(=O)[n-]c2[O-])cc1)CCc1ccccc1 (protonated)
CN(CCOc1ccc(Cc2sc(=O)[n-]c2[O-])cc1)CCc1ccccc1 (3D coordinates assigned)
CN(CCOc1ccc(Cc2sc(=O)[n-]c2[O-])cc1)CCc1ccccc1 (optimized conformer: 79.07144869160587 kcal/mol)

>  <smiles>  (25) 
CN(CCOc1ccc(Cc2sc(=O)[nH]c2O)cc1)CCc1ccccc1

>  <score_type>  (25) 
oracle

>  <origin>  (25) 
adg

>  <m_score__min__energy>  (25) 
-15.17

>  <m_primary>  (25) 
energy

$$$$
25:0
     RDKit          3D

 47 50  0  0  0  0  0  0  0  0999 V2000
   59.8680   28.8070   44.5180 C   0  0  0  0  0  0  0  0  0  0  0  0
   59.5700   28.9840   45.9380 N   0  0  0  0  0  0  0  0  0  0  0  0
   60.4790   29.2500   46.8970 C   0  0  0  0  0  0  0  0  0  0  0  0
   59.8530   29.3540   48.1230 C   0  0  0  0  0  0  0  0  0  0  0  0
   58.5060   29.1480   47.8990 C   0  0  0  0  0  0  0  0  0  0  0  0
   58.3610   28.9200   46.5400 C   0  0  0  0  0  0  0  0  0  0  0  0
   57.0740   28.6630   45.8520 C   0  0  0  0  0  0  0  0  0  0  0  0
   56.5400   27.5250   45.9360 O   0  0  0  0  0  0  0  0  0  0  0  0
   56.4450   29.6580   45.0320 N   0  0  0  0  0  0  0  0  0  0  0  0
   57.0790   30.8410   44.5270 C   0  0  0  0  0  0  0  0  0  0  0  0
   57.1430   31.0430   43.1450 C   0  0  0  0  0  0  0  0  0  0  0  0
   57.7980   32.1630   42.6270 C   0  0  0  0  0  0  0  0  0  0  0  0
   58.3870   33.0920   43.4880 C   0  0  0  0  0  0  0  0  0  0  0  0
   58.3000   32.9230   44.8800 C   0  0  0  0  0  0  0  0  0  0  0  0
   58.9380   33.8940   45.7970 C   0  0  0  0  0  0  0  0  0  0  0  0
   59.0590   35.0990   45.4480 O   0  0  0  0  0  0  0  0  0  0  0  0
   59.4310   33.4800   47.0830 N   0  0  0  0  0  0  0  0  0  0  0  0
   58.4290   33.1730   48.1150 C   0  0  0  0  0  0  0  0  0  0  0  0
   59.0550   32.4910   49.3350 C   0  0  0  0  0  0  0  0  0  0  0  0
   60.2410   33.3060   49.8490 C   0  0  0  0  0  0  0  0  0  0  0  0
   61.2580   33.4950   48.7580 C   0  0  0  0  0  0  0  0  0  0  0  0
   62.6170   33.6280   49.0820 C   0  0  0  0  0  0  0  0  0  0  0  0
   63.5690   33.7980   48.0750 C   0  0  0  0  0  0  0  0  0  0  0  0
   63.1720   33.8370   46.7390 C   0  0  0  0  0  0  0  0  0  0  0  0
   61.8210   33.7230   46.4040 C   0  0  0  0  0  0  0  0  0  0  0  0
   60.8420   33.5830   47.4110 C   0  0  0  0  0  0  0  0  0  0  0  0
   57.6220   31.8050   45.3940 C   0  0  0  0  0  0  0  0  0  0  0  0
   60.8090   28.2481   44.4077 H   0  0  0  0  0  0  0  0  0  0  0  0
   59.0510   28.2476   44.0388 H   0  0  0  0  0  0  0  0  0  0  0  0
   59.9683   29.7921   44.0388 H   0  0  0  0  0  0  0  0  0  0  0  0
   61.5596   29.3669   46.7278 H   0  0  0  0  0  0  0  0  0  0  0  0
   60.3338   29.5608   49.0905 H   0  0  0  0  0  0  0  0  0  0  0  0
   57.7046   29.1622   48.6524 H   0  0  0  0  0  0  0  0  0  0  0  0
   56.6759   30.3173   42.4630 H   0  0  0  0  0  0  0  0  0  0  0  0
   57.8500   32.3136   41.5386 H   0  0  0  0  0  0  0  0  0  0  0  0
   58.9214   33.9599   43.0742 H   0  0  0  0  0  0  0  0  0  0  0  0
   57.9521   34.1103   48.4375 H   0  0  0  0  0  0  0  0  0  0  0  0
   57.6922   32.4821   47.6794 H   0  0  0  0  0  0  0  0  0  0  0  0
   58.3002   32.4074   50.1308 H   0  0  0  0  0  0  0  0  0  0  0  0
   59.4082   31.4909   49.0433 H   0  0  0  0  0  0  0  0  0  0  0  0
   59.8851   34.2903   50.1875 H   0  0  0  0  0  0  0  0  0  0  0  0
   60.7099   32.7662   50.6849 H   0  0  0  0  0  0  0  0  0  0  0  0
   62.9338   33.5981   50.1350 H   0  0  0  0  0  0  0  0  0  0  0  0
   64.6327   33.9012   48.3357 H   0  0  0  0  0  0  0  0  0  0  0  0
   63.9252   33.9579   45.9465 H   0  0  0  0  0  0  0  0  0  0  0  0
   61.5175   33.7425   45.3469 H   0  0  0  0  0  0  0  0  0  0  0  0
   57.5154   31.6832   46.4820 H   0  0  0  0  0  0  0  0  0  0  0  0
  1  2  1  0
  2  3  1  0
  3  4  2  0
  4  5  1  0
  5  6  2  0
  6  7  1  0
  7  8  2  0
  7  9  1  0
  9 10  1  0
 10 11  2  0
 11 12  1  0
 12 13  2  0
 13 14  1  0
 14 15  1  0
 15 16  2  0
 15 17  1  0
 17 18  1  0
 18 19  1  0
 19 20  1  0
 20 21  1  0
 21 22  2  0
 22 23  1  0
 23 24  2  0
 24 25  1  0
 25 26  2  0
 14 27  2  0
  6  2  1  0
 27 10  1  0
 26 17  1  0
 26 21  1  0
  1 28  1  0
  1 29  1  0
  1 30  1  0
  3 31  1  0
  4 32  1  0
  5 33  1  0
 11 34  1  0
 12 35  1  0
 13 36  1  0
 18 37  1  0
 18 38  1  0
 19 39  1  0
 19 40  1  0
 20 41  1  0
 20 42  1  0
 22 43  1  0
 23 44  1  0
 24 45  1  0
 25 46  1  0
 27 47  1  0
M  CHG  1   9  -1
M  END
>  <UniqueID>  (26) 
26

>  <SMILES>  (26) 
Cn1cccc1C(=O)[N-]c1cccc(C(=O)N2CCCc3ccccc32)c1

>  <Energy>  (26) 
88.87879200235002

>  <Genealogy>  (26) 
Cn1cccc1C(=O)[N-]c1cccc(C(=O)N2CCCc3ccccc32)c1 (protonated)
Cn1cccc1C(=O)[N-]c1cccc(C(=O)N2CCCc3ccccc32)c1 (3D coordinates assigned)
Cn1cccc1C(=O)[N-]c1cccc(C(=O)N2CCCc3ccccc32)c1 (nonaromatic ring conformer: 88.87879200235002 kcal/mol)

>  <smiles>  (26) 
Cn1cccc1C(=O)Nc1cccc(C(=O)N2CCCc3ccccc32)c1

>  <score_type>  (26) 
oracle

>  <origin>  (26) 
adg

>  <m_score__min__energy>  (26) 
-11.01

>  <m_primary>  (26) 
energy

$$$$
26:0
     RDKit          3D

 34 35  0  0  0  0  0  0  0  0999 V2000
   57.2650   34.1060   45.5780 C   0  0  0  0  0  0  0  0  0  0  0  0
   58.6640   34.4890   45.1100 C   0  0  0  0  0  0  0  0  0  0  0  0
   59.4770   34.8590   46.2210 O   0  0  0  0  0  0  0  0  0  0  0  0
   59.8950   33.9550   47.2040 C   0  0  0  0  0  0  0  0  0  0  0  0
   59.2210   33.7870   48.2560 O   0  0  0  0  0  0  0  0  0  0  0  0
   61.1250   33.1390   46.9690 C   0  0  0  0  0  0  0  0  0  0  0  0
   60.8200   31.6850   47.2220 C   0  0  0  0  0  0  0  0  0  0  0  0
   60.0960   30.9440   46.2800 C   0  0  0  0  0  0  0  0  0  0  0  0
   59.7470   29.6480   46.5280 N   0  0  0  0  0  0  0  0  0  0  0  0
   58.9860   28.9310   45.5370 C   0  0  0  0  0  0  0  0  0  0  0  0
   59.5430   28.0200   44.8670 O   0  0  0  0  0  0  0  0  0  0  0  0
   57.5870   29.3060   45.2370 C   0  0  0  0  0  0  0  0  0  0  0  0
   56.4330   28.5300   45.2780 C   0  0  0  0  0  0  0  0  0  0  0  0
   56.2800   27.1520   45.7810 C   0  0  0  0  0  0  0  0  0  0  0  0
   55.1300   26.6940   46.0080 O   0  0  0  0  0  0  0  0  0  0  0  0
   57.3890   26.3600   46.0480 O   0  0  0  0  0  0  0  0  0  0  0  0
   55.3990   29.2750   44.8340 N   0  0  0  0  0  0  0  0  0  0  0  0
   55.8220   30.4870   44.5100 N   0  0  0  0  0  0  0  0  0  0  0  0
   57.1440   30.5200   44.7470 C   0  0  0  0  0  0  0  0  0  0  0  0
   57.8640   31.5270   44.5180 O   0  0  0  0  0  0  0  0  0  0  0  0
   60.1300   29.0530   47.7020 C   0  0  0  0  0  0  0  0  0  0  0  0
   59.8540   27.8440   47.9330 O   0  0  0  0  0  0  0  0  0  0  0  0
   60.8220   29.7600   48.6310 N   0  0  0  0  0  0  0  0  0  0  0  0
   61.1660   31.0550   48.4260 C   0  0  0  0  0  0  0  0  0  0  0  0
   61.7920   31.6780   49.3250 O   0  0  0  0  0  0  0  0  0  0  0  0
   57.2356   34.0979   46.6776 H   0  0  0  0  0  0  0  0  0  0  0  0
   56.5377   34.8381   45.1971 H   0  0  0  0  0  0  0  0  0  0  0  0
   57.0120   33.1055   45.1971 H   0  0  0  0  0  0  0  0  0  0  0  0
   59.1217   33.6308   44.5961 H   0  0  0  0  0  0  0  0  0  0  0  0
   58.5881   35.3450   44.4233 H   0  0  0  0  0  0  0  0  0  0  0  0
   61.4573   33.2681   45.9284 H   0  0  0  0  0  0  0  0  0  0  0  0
   61.9208   33.4707   47.6522 H   0  0  0  0  0  0  0  0  0  0  0  0
   59.8049   31.4122   45.3282 H   0  0  0  0  0  0  0  0  0  0  0  0
   54.4030   28.9700   44.7640 H   0  0  0  0  0  0  0  0  0  0  0  0
  1  2  1  0
  2  3  1  0
  3  4  1  0
  4  5  2  0
  4  6  1  0
  6  7  1  0
  7  8  2  0
  8  9  1  0
  9 10  1  0
 10 11  2  0
 10 12  1  0
 12 13  2  0
 13 14  1  0
 14 15  2  0
 14 16  1  0
 13 17  1  0
 17 18  1  0
 18 19  1  0
 19 20  2  0
  9 21  1  0
 21 22  2  0
 21 23  1  0
 23 24  1  0
 24 25  2  0
 24  7  1  0
 19 12  1  0
  1 26  1  0
  1 27  1  0
  1 28  1  0
  2 29  1  0
  2 30  1  0
  6 31  1  0
  6 32  1  0
  8 33  1  0
 17 34  1  0
M  CHG  3  16  -1  18  -1  23  -1
M  END
>  <UniqueID>  (27) 
27

>  <SMILES>  (27) 
CCOC(=O)Cc1cn(C(=O)c2c(C(=O)[O-])[nH][n-]c2=O)c(=O)[n-]c1=O

>  <Energy>  (27) 
71.69036869803897

>  <Genealogy>  (27) 
CCOC(=O)Cc1cn(C(=O)c2c(C(=O)[O-])[nH][n-]c2=O)c(=O)[n-]c1=O (protonated)
CCOC(=O)Cc1cn(C(=O)c2c(C(=O)[O-])[nH][n-]c2=O)c(=O)[n-]c1=O (3D coordinates assigned)
CCOC(=O)Cc1cn(C(=O)c2c(C(=O)[O-])[nH][n-]c2=O)c(=O)[n-]c1=O (optimized conformer: 71.69036869803897 kcal/mol)

>  <smiles>  (27) 
CCOC(=O)Cc1cn(C(=O)c2c(C(=O)O)[nH][nH]c2=O)c(=O)[nH]c1=O

>  <score_type>  (27) 
oracle

>  <origin>  (27) 
adg

>  <m_score__min__energy>  (27) 
-12.449999999999999

>  <m_primary>  (27) 
energy

$$$$
27:0
     RDKit          3D

 35 37  0  0  1  0  0  0  0  0999 V2000
   59.3030   35.6680   45.0320 O   0  0  0  0  0  0  0  0  0  0  0  0
   58.9020   34.4490   45.3630 C   0  0  0  0  0  0  0  0  0  0  0  0
   58.0800   33.8700   44.4500 N   0  0  0  0  0  0  0  0  0  0  0  0
   57.7070   32.7300   44.1510 C   0  0  0  0  0  0  0  0  0  0  0  0
   56.9040   31.9300   44.8690 N   0  0  0  0  0  0  0  0  0  0  0  0
   56.8410   30.7920   44.1710 C   0  0  0  0  0  0  0  0  0  0  0  0
   55.9480   29.3450   44.6410 S   0  0  0  0  0  0  0  0  0  0  0  0
   57.0340   28.1200   45.3720 C   0  0  0  0  0  0  0  0  0  0  0  0
   58.4030   28.6840   45.6270 C   0  0  0  0  0  0  0  0  0  0  0  0
   59.5030   28.4470   44.8850 C   0  0  0  0  0  0  0  0  0  0  0  0
   60.6940   29.0380   45.2590 C   0  0  0  0  0  0  0  0  0  0  0  0
   60.7530   29.8550   46.3690 C   0  0  0  0  0  0  0  0  0  0  0  0
   59.6050   30.0870   47.1160 C   0  0  0  0  0  0  0  0  0  0  0  0
   58.4670   29.4950   46.7260 N   0  0  0  0  0  0  0  0  0  0  0  0
   57.5890   30.8760   43.0450 N   0  0  0  0  0  0  0  0  0  0  0  0
   58.1250   32.0740   43.0290 N   0  0  0  0  0  0  0  0  0  0  0  0
   59.4410   34.0270   46.6290 C   0  0  0  0  0  0  0  0  0  0  0  0
   60.8100   34.2360   46.8460 C   0  0  0  0  0  0  0  0  0  0  0  0
   61.4120   33.9080   48.0460 C   0  0  0  0  0  0  0  0  0  0  0  0
   60.6900   33.3560   49.0910 C   0  0  0  0  0  0  0  0  0  0  0  0
   59.3390   33.1470   48.8790 C   0  0  0  0  0  0  0  0  0  0  0  0
   58.7250   33.4780   47.6680 C   0  0  0  0  0  0  0  0  0  0  0  0
   57.4000   33.2640   47.5200 F   0  0  0  0  0  0  0  0  0  0  0  0
   56.6024   27.7828   46.3259 H   0  0  0  0  0  0  0  0  0  0  0  0
   57.1311   27.2796   44.6689 H   0  0  0  0  0  0  0  0  0  0  0  0
   59.4532   27.7961   43.9996 H   0  0  0  0  0  0  0  0  0  0  0  0
   61.6030   28.8557   44.6669 H   0  0  0  0  0  0  0  0  0  0  0  0
   61.7055   30.3210   46.6615 H   0  0  0  0  0  0  0  0  0  0  0  0
   59.6289   30.7380   48.0024 H   0  0  0  0  0  0  0  0  0  0  0  0
   57.7280   30.1610   42.3120 H   0  0  0  0  0  0  0  0  0  0  0  0
   58.7390   32.4170   42.2690 H   0  0  0  0  0  0  0  0  0  0  0  0
   61.4202   34.6719   46.0412 H   0  0  0  0  0  0  0  0  0  0  0  0
   62.4893   34.0895   48.1741 H   0  0  0  0  0  0  0  0  0  0  0  0
   61.1691   33.0955   50.0463 H   0  0  0  0  0  0  0  0  0  0  0  0
   58.7320   32.7087   49.6849 H   0  0  0  0  0  0  0  0  0  0  0  0
  1  2  2  0
  2  3  1  0
  3  4  2  0
  4  5  1  0
  5  6  2  0
  6  7  1  0
  7  8  1  0
  8  9  1  0
  9 10  2  0
 10 11  1  0
 11 12  2  0
 12 13  1  0
 13 14  2  0
  6 15  1  0
 15 16  1  0
  2 17  1  0
 17 18  2  0
 18 19  1  0
 19 20  2  0
 20 21  1  0
 21 22  2  0
 22 23  1  0
 16  4  1  0
 22 17  1  0
 14  9  1  0
  8 24  1  0
  8 25  1  0
 10 26  1  0
 11 27  1  0
 12 28  1  0
 13 29  1  0
 15 30  1  0
 16 31  1  0
 18 32  1  0
 19 33  1  0
 20 34  1  0
 21 35  1  0
M  END
>  <smiles>  (28) 
O=C(N=c1nc(SCc2ccccn2)[nH][nH]1)c1ccccc1F

>  <score_type>  (28) 
oracle

>  <origin>  (28) 
adg

>  <m_score__min__energy>  (28) 
-8.3399999999999999

>  <m_primary>  (28) 
energy

$$$$
28:0
     RDKit          3D

 71 75  0  0  0  0  0  0  0  0999 V2000
   60.9430   26.7460   49.2930 C   0  0  0  0  0  0  0  0  0  0  0  0
   59.8770   27.4910   48.5610 C   0  0  0  0  0  0  0  0  0  0  0  0
   59.1650   26.9540   47.1360 S   0  0  0  0  0  0  0  0  0  0  0  0
   58.2550   28.3400   46.8380 C   0  0  0  0  0  0  0  0  0  0  0  0
   57.4300   28.6100   45.6380 C   0  0  0  0  0  0  0  0  0  0  0  0
   56.2470   28.1800   45.5990 O   0  0  0  0  0  0  0  0  0  0  0  0
   57.8950   29.4270   44.5570 N   0  0  0  0  0  0  0  0  0  0  0  0
   58.1160   30.8440   44.6010 C   0  0  0  0  0  0  0  0  0  0  0  0
   58.8930   31.3730   45.6380 C   0  0  0  0  0  0  0  0  0  0  0  0
   59.1140   32.7550   45.7320 C   0  0  0  0  0  0  0  0  0  0  0  0
   60.1500   33.4000   47.0060 S   0  0  0  0  0  0  0  0  0  0  0  0
   59.5880   32.9910   48.3390 O   0  0  0  0  0  0  0  0  0  0  0  0
   60.1180   34.9030   46.9390 O   0  0  0  0  0  0  0  0  0  0  0  0
   61.8100   32.8520   46.8980 N   0  0  0  0  0  0  0  0  0  0  0  0
   62.0490   31.5590   47.5690 C   0  0  0  0  0  0  0  0  0  0  0  0
   62.4800   31.7250   49.0350 C   0  0  0  0  0  0  0  0  0  0  0  0
   63.5760   32.6080   49.1390 O   0  0  0  0  0  0  0  0  0  0  0  0
   63.1740   33.8950   48.7250 C   0  0  0  0  0  0  0  0  0  0  0  0
   62.7960   33.8980   47.2370 C   0  0  0  0  0  0  0  0  0  0  0  0
   58.5540   33.6120   44.7740 C   0  0  0  0  0  0  0  0  0  0  0  0
   57.7560   33.0930   43.7500 C   0  0  0  0  0  0  0  0  0  0  0  0
   57.5270   31.7150   43.6640 C   0  0  0  0  0  0  0  0  0  0  0  0
   56.7180   31.2400   42.6830 F   0  0  0  0  0  0  0  0  0  0  0  0
   58.5340   29.2650   47.8380 C   0  0  0  0  0  0  0  0  0  0  0  0
   59.4460   28.7990   48.8010 C   0  0  0  0  0  0  0  0  0  0  0  0
   59.9910   29.6920   49.8870 C   0  0  0  0  0  0  0  0  0  0  0  0
   59.4390   31.0530   49.7720 N   0  0  0  0  0  0  0  0  0  0  0  0
   59.1820   31.6110   51.0730 C   0  0  0  0  0  0  0  0  0  0  0  0
   58.3570   31.1020   52.0690 C   0  0  0  0  0  0  0  0  0  0  0  0
   57.5730   29.8230   52.0130 C   0  0  0  0  0  0  0  0  0  0  0  0
   58.4600   31.9040   53.1600 N   0  0  0  0  0  0  0  0  0  0  0  0
   57.7580   31.7200   54.4350 C   0  0  0  0  0  0  0  0  0  0  0  0
   59.2970   32.9040   52.8830 N   0  0  0  0  0  0  0  0  0  0  0  0
   59.6510   33.9760   53.7730 C   0  0  0  0  0  0  0  0  0  0  0  0
   60.7560   33.8520   54.6330 C   0  0  0  0  0  0  0  0  0  0  0  0
   61.0940   34.8970   55.4980 C   0  0  0  0  0  0  0  0  0  0  0  0
   60.3320   36.0710   55.5120 C   0  0  0  0  0  0  0  0  0  0  0  0
   59.2250   36.1970   54.6670 C   0  0  0  0  0  0  0  0  0  0  0  0
   58.8830   35.1530   53.8000 C   0  0  0  0  0  0  0  0  0  0  0  0
   59.7610   32.7330   51.6290 C   0  0  0  0  0  0  0  0  0  0  0  0
   60.5880   33.4960   51.0610 O   0  0  0  0  0  0  0  0  0  0  0  0
   60.7880   26.8544   50.3766 H   0  0  0  0  0  0  0  0  0  0  0  0
   60.8989   25.6811   49.0210 H   0  0  0  0  0  0  0  0  0  0  0  0
   61.9279   27.1534   49.0210 H   0  0  0  0  0  0  0  0  0  0  0  0
   59.3346   30.6986   46.3864 H   0  0  0  0  0  0  0  0  0  0  0  0
   61.1207   30.9697   47.5392 H   0  0  0  0  0  0  0  0  0  0  0  0
   62.8677   31.0533   47.0361 H   0  0  0  0  0  0  0  0  0  0  0  0
   61.6366   32.1273   49.6154 H   0  0  0  0  0  0  0  0  0  0  0  0
   62.7809   30.7423   49.4271 H   0  0  0  0  0  0  0  0  0  0  0  0
   62.3027   34.2086   49.3187 H   0  0  0  0  0  0  0  0  0  0  0  0
   64.0123   34.5910   48.8763 H   0  0  0  0  0  0  0  0  0  0  0  0
   62.3688   34.8797   46.9843 H   0  0  0  0  0  0  0  0  0  0  0  0
   63.7104   33.6922   46.6612 H   0  0  0  0  0  0  0  0  0  0  0  0
   58.7428   34.6943   44.8281 H   0  0  0  0  0  0  0  0  0  0  0  0
   57.3064   33.7704   43.0090 H   0  0  0  0  0  0  0  0  0  0  0  0
   58.0832   30.2678   47.8724 H   0  0  0  0  0  0  0  0  0  0  0  0
   59.7190   29.2743   50.8676 H   0  0  0  0  0  0  0  0  0  0  0  0
   61.0848   29.7455   49.7834 H   0  0  0  0  0  0  0  0  0  0  0  0
   58.5480   31.0580   49.2230 H   0  0  0  0  0  0  0  0  0  0  0  0
   60.1220   31.6650   49.2680 H   0  0  0  0  0  0  0  0  0  0  0  0
   57.3613   29.4776   53.0357 H   0  0  0  0  0  0  0  0  0  0  0  0
   56.6259   29.9965   51.4811 H   0  0  0  0  0  0  0  0  0  0  0  0
   58.1574   29.0577   51.4811 H   0  0  0  0  0  0  0  0  0  0  0  0
   58.4544   31.9025   55.2667 H   0  0  0  0  0  0  0  0  0  0  0  0
   56.9189   32.4285   54.4972 H   0  0  0  0  0  0  0  0  0  0  0  0
   57.3743   30.6910   54.4972 H   0  0  0  0  0  0  0  0  0  0  0  0
   61.3563   32.9303   54.6254 H   0  0  0  0  0  0  0  0  0  0  0  0
   61.9601   34.7964   56.1686 H   0  0  0  0  0  0  0  0  0  0  0  0
   60.6041   36.8949   56.1881 H   0  0  0  0  0  0  0  0  0  0  0  0
   58.6226   37.1173   54.6838 H   0  0  0  0  0  0  0  0  0  0  0  0
   58.0106   35.2538   53.1377 H   0  0  0  0  0  0  0  0  0  0  0  0
  1  2  1  0
  2  3  1  0
  3  4  1  0
  4  5  1  0
  5  6  2  0
  5  7  1  0
  7  8  1  0
  8  9  2  0
  9 10  1  0
 10 11  1  0
 11 12  2  0
 11 13  2  0
 11 14  1  0
 14 15  1  0
 15 16  1  0
 16 17  1  0
 17 18  1  0
 18 19  1  0
 10 20  2  0
 20 21  1  0
 21 22  2  0
 22 23  1  0
  4 24  2  0
 24 25  1  0
 25 26  1  0
 26 27  1  0
 27 28  1  0
 28 29  2  0
 29 30  1  0
 29 31  1  0
 31 32  1  0
 31 33  1  0
 33 34  1  0
 34 35  2  0
 35 36  1  0
 36 37  2  0
 37 38  1  0
 38 39  2  0
 33 40  1  0
 40 41  2  0
 25  2  2  0
 40 28  1  0
 22  8  1  0
 39 34  1  0
 19 14  1  0
  1 42  1  0
  1 43  1  0
  1 44  1  0
  9 45  1  0
 15 46  1  0
 15 47  1  0
 16 48  1  0
 16 49  1  0
 18 50  1  0
 18 51  1  0
 19 52  1  0
 19 53  1  0
 20 54  1  0
 21 55  1  0
 24 56  1  0
 26 57  1  0
 26 58  1  0
 27 59  1  0
 27 60  1  0
 30 61  1  0
 30 62  1  0
 30 63  1  0
 32 64  1  0
 32 65  1  0
 32 66  1  0
 35 67  1  0
 36 68  1  0
 37 69  1  0
 38 70  1  0
 39 71  1  0
M  CHG  2   7  -1  27   1
M  END
>  <UniqueID>  (29) 
28

>  <SMILES>  (29) 
Cc1sc(C(=O)[N-]c2cc(S(=O)(=O)N3CCOCC3)ccc2F)cc1C[NH2+]c1c(C)n(C)n(-c2ccccc2)c1=O

>  <Energy>  (29) 
154.59409037008476

>  <Genealogy>  (29) 
Cc1sc(C(=O)[N-]c2cc(S(=O)(=O)N3CCOCC3)ccc2F)cc1C[NH2+]c1c(C)n(C)n(-c2ccccc2)c1=O (protonated)
Cc1sc(C(=O)[N-]c2cc(S(=O)(=O)N3CCOCC3)ccc2F)cc1C[NH2+]c1c(C)n(C)n(-c2ccccc2)c1=O (3D coordinates assigned)
Cc1sc(C(=O)[N-]c2cc(S(=O)(=O)N3CCOCC3)ccc2F)cc1C[NH2+]c1c(C)n(C)n(-c2ccccc2)c1=O (nonaromatic ring conformer: 154.59409037008476 kcal/mol)

>  <smiles>  (29) 
Cc1sc(C(=O)Nc2cc(S(=O)(=O)N3CCOCC3)ccc2F)cc1CNc1c(C)n(C)n(-c2ccccc2)c1=O

>  <score_type>  (29) 
oracle

>  <origin>  (29) 
adg

>  <m_score__min__energy>  (29) 
-10.460000000000001

>  <m_primary>  (29) 
energy

$$$$
29:0
     RDKit          3D

 46 49  0  0  0  0  0  0  0  0999 V2000
   63.2809   34.0163   47.5187 H   0  0  0  0  0  0  0  0  0  0  0  0
   62.1880   33.8950   47.4880 C   0  0  0  0  0  0  0  0  0  0  0  0
   61.5110   34.1510   46.3400 N   0  0  0  0  0  0  0  0  0  0  0  0
   60.1600   34.0200   46.2590 C   0  0  0  0  0  0  0  0  0  0  0  0
   59.5100   34.3110   45.0540 C   0  0  0  0  0  0  0  0  0  0  0  0
   60.0961   34.6239   44.1773 H   0  0  0  0  0  0  0  0  0  0  0  0
   58.1230   34.2060   44.9600 C   0  0  0  0  0  0  0  0  0  0  0  0
   57.6187   34.4186   44.0058 H   0  0  0  0  0  0  0  0  0  0  0  0
   57.3740   33.8310   46.0770 C   0  0  0  0  0  0  0  0  0  0  0  0
   56.2788   33.7597   46.0027 H   0  0  0  0  0  0  0  0  0  0  0  0
   58.0080   33.5460   47.2880 C   0  0  0  0  0  0  0  0  0  0  0  0
   57.4070   33.2719   48.1675 H   0  0  0  0  0  0  0  0  0  0  0  0
   59.4140   33.6070   47.3920 C   0  0  0  0  0  0  0  0  0  0  0  0
   60.1110   33.3140   48.5920 C   0  0  0  0  0  0  0  0  0  0  0  0
   59.4340   32.8500   49.8270 C   0  0  0  0  0  0  0  0  0  0  0  0
   59.2170   33.6760   50.7520 O   0  0  0  0  0  0  0  0  0  0  0  0
   59.0020   31.4940   49.9980 N   0  0  0  0  0  0  0  0  0  0  0  0
   59.2280   30.4170   49.0780 C   0  0  0  0  0  0  0  0  0  0  0  0
   60.1630   29.4300   49.4110 C   0  0  0  0  0  0  0  0  0  0  0  0
   60.6923   29.4799   50.3740 H   0  0  0  0  0  0  0  0  0  0  0  0
   60.4270   28.3820   48.5260 C   0  0  0  0  0  0  0  0  0  0  0  0
   61.1479   27.5983   48.8019 H   0  0  0  0  0  0  0  0  0  0  0  0
   59.7760   28.3280   47.2900 C   0  0  0  0  0  0  0  0  0  0  0  0
   59.9854   27.5013   46.5952 H   0  0  0  0  0  0  0  0  0  0  0  0
   58.8570   29.3250   46.9340 C   0  0  0  0  0  0  0  0  0  0  0  0
   58.0990   29.3110   45.3470 S   0  0  0  0  0  0  0  0  0  0  0  0
   58.9580   30.0300   44.3440 O   0  0  0  0  0  0  0  0  0  0  0  0
   56.7710   30.0070   45.4340 O   0  0  0  0  0  0  0  0  0  0  0  0
   57.8530   27.6820   44.8130 N   0  0  0  0  0  0  0  0  0  0  0  0
   56.9180   26.9250   45.2930 C   0  0  0  0  0  0  0  0  0  0  0  0
   55.7120   27.3320   45.6110 O   0  0  0  0  0  0  0  0  0  0  0  0
   55.0100   26.3500   46.1010 N   0  0  0  0  0  0  0  0  0  0  0  0
   55.8030   25.2580   46.0990 C   0  0  0  0  0  0  0  0  0  0  0  0
   55.3890   23.9200   46.6160 C   0  0  0  0  0  0  0  0  0  0  0  0
   55.3935   23.9345   47.7159 H   0  0  0  0  0  0  0  0  0  0  0  0
   54.3762   23.6853   46.2565 H   0  0  0  0  0  0  0  0  0  0  0  0
   56.0923   23.1544   46.2565 H   0  0  0  0  0  0  0  0  0  0  0  0
   57.0380   25.5830   45.5660 C   0  0  0  0  0  0  0  0  0  0  0  0
   58.2570   24.7220   45.4640 C   0  0  0  0  0  0  0  0  0  0  0  0
   58.6136   24.4702   46.4737 H   0  0  0  0  0  0  0  0  0  0  0  0
   58.0088   23.7977   44.9217 H   0  0  0  0  0  0  0  0  0  0  0  0
   59.0451   25.2650   44.9217 H   0  0  0  0  0  0  0  0  0  0  0  0
   58.5840   30.3680   47.8300 C   0  0  0  0  0  0  0  0  0  0  0  0
   57.8625   31.1515   47.5549 H   0  0  0  0  0  0  0  0  0  0  0  0
   61.5030   33.4790   48.6280 C   0  0  0  0  0  0  0  0  0  0  0  0
   62.0554   33.2796   49.5581 H   0  0  0  0  0  0  0  0  0  0  0  0
  1  2  1  0
  2  3  2  0
  3  4  1  0
  4  5  2  0
  5  6  1  0
  5  7  1  0
  7  8  1  0
  7  9  2  0
  9 10  1  0
  9 11  1  0
 11 12  1  0
 11 13  2  0
 13 14  1  0
 14 15  1  0
 15 16  2  0
 15 17  1  0
 17 18  1  0
 18 19  2  0
 19 20  1  0
 19 21  1  0
 21 22  1  0
 21 23  2  0
 23 24  1  0
 23 25  1  0
 25 26  1  0
 26 27  2  0
 26 28  2  0
 26 29  1  0
 29 30  2  0
 30 31  1  0
 31 32  1  0
 32 33  1  0
 33 34  1  0
 34 35  1  0
 34 36  1  0
 34 37  1  0
 33 38  2  0
 38 39  1  0
 39 40  1  0
 39 41  1  0
 39 42  1  0
 25 43  2  0
 43 44  1  0
 14 45  2  0
 45 46  1  0
 45  2  1  0
 13  4  1  0
 43 18  1  0
 38 30  1  0
M  CHG  2  17  -1  32  -1
M  END
>  <UniqueID>  (30) 
29

>  <SMILES>  (30) 
Cc1[n-]o/c(=N\S(=O)(=O)c2cccc([N-]C(=O)c3ccnc4ccccc34)c2)c1C

>  <Energy>  (30) 
91.20115732782477

>  <Genealogy>  (30) 
Cc1[n-]oc(=NS(=O)(=O)c2cccc([N-]C(=O)c3ccnc4ccccc34)c2)c1C (protonated)
Cc1[n-]o/c(=N\S(=O)(=O)c2cccc([N-]C(=O)c3ccnc4ccccc34)c2)c1C (cis-trans isomerization)
Cc1[n-]o/c(=N\S(=O)(=O)c2cccc([N-]C(=O)c3ccnc4ccccc34)c2)c1C (3D coordinates assigned)
Cc1[n-]o/c(=N\S(=O)(=O)c2cccc([N-]C(=O)c3ccnc4ccccc34)c2)c1C (optimized conformer: 91.20115732782477 kcal/mol)

>  <smiles>  (30) 
Cc1[nH]oc(=NS(=O)(=O)c2cccc(NC(=O)c3ccnc4ccccc34)c2)c1C

>  <score_type>  (30) 
oracle

>  <origin>  (30) 
adg

>  <m_score__min__energy>  (30) 
-14.6

>  <m_primary>  (30) 
energy

$$$$
30:0
     RDKit          3D

 39 41  0  0  0  0  0  0  0  0999 V2000
   57.2350   24.7100   44.8570 O   0  0  0  0  0  0  0  0  0  0  0  0
   56.6990   25.7460   45.3020 N   0  0  0  0  0  0  0  0  0  0  0  0
   55.5120   25.6480   45.9910 O   0  0  0  0  0  0  0  0  0  0  0  0
   57.3090   27.0230   45.1010 C   0  0  0  0  0  0  0  0  0  0  0  0
   58.5360   27.2450   44.4830 C   0  0  0  0  0  0  0  0  0  0  0  0
   58.8800   28.6000   44.4250 C   0  0  0  0  0  0  0  0  0  0  0  0
   57.9200   29.4350   44.9990 C   0  0  0  0  0  0  0  0  0  0  0  0
   57.9990   30.8720   45.0860 N   0  0  0  0  0  0  0  0  0  0  0  0
   57.7570   31.6930   43.8890 C   0  0  0  0  0  0  0  0  0  0  0  0
   58.5370   33.0070   43.9790 C   0  0  0  0  0  0  0  0  0  0  0  0
   58.1450   33.8220   45.2370 C   0  0  0  0  0  0  0  0  0  0  0  0
   59.2100   34.8830   45.6130 C   0  0  0  0  0  0  0  0  0  0  0  0
   60.1950   34.4410   46.6750 C   0  0  0  0  0  0  0  0  0  0  0  0
   61.4150   33.8410   46.3150 C   0  0  0  0  0  0  0  0  0  0  0  0
   62.3230   33.4410   47.3000 C   0  0  0  0  0  0  0  0  0  0  0  0
   62.0170   33.6220   48.6510 C   0  0  0  0  0  0  0  0  0  0  0  0
   60.7970   34.1950   49.0200 C   0  0  0  0  0  0  0  0  0  0  0  0
   59.8870   34.5960   48.0390 C   0  0  0  0  0  0  0  0  0  0  0  0
   57.7230   32.9270   46.4330 C   0  0  0  0  0  0  0  0  0  0  0  0
   58.3290   31.5200   46.3660 C   0  0  0  0  0  0  0  0  0  0  0  0
   56.6440   28.4930   45.5760 S   0  0  0  0  0  0  0  0  0  0  0  0
   59.1690   26.4396   44.0822 H   0  0  0  0  0  0  0  0  0  0  0  0
   59.8122   28.9696   43.9730 H   0  0  0  0  0  0  0  0  0  0  0  0
   58.0825   31.1382   42.9967 H   0  0  0  0  0  0  0  0  0  0  0  0
   56.6825   31.9188   43.8214 H   0  0  0  0  0  0  0  0  0  0  0  0
   59.6126   32.7807   44.0219 H   0  0  0  0  0  0  0  0  0  0  0  0
   58.2958   33.6101   43.0912 H   0  0  0  0  0  0  0  0  0  0  0  0
   57.2413   34.3871   44.9650 H   0  0  0  0  0  0  0  0  0  0  0  0
   59.7762   35.1372   44.7048 H   0  0  0  0  0  0  0  0  0  0  0  0
   58.6616   35.7385   46.0342 H   0  0  0  0  0  0  0  0  0  0  0  0
   61.6560   33.6856   45.2530 H   0  0  0  0  0  0  0  0  0  0  0  0
   63.2803   32.9829   47.0106 H   0  0  0  0  0  0  0  0  0  0  0  0
   62.7362   33.3136   49.4241 H   0  0  0  0  0  0  0  0  0  0  0  0
   60.5530   34.3304   50.0840 H   0  0  0  0  0  0  0  0  0  0  0  0
   58.9232   35.0359   48.3349 H   0  0  0  0  0  0  0  0  0  0  0  0
   58.0536   33.4079   47.3655 H   0  0  0  0  0  0  0  0  0  0  0  0
   56.6290   32.8183   46.3951 H   0  0  0  0  0  0  0  0  0  0  0  0
   59.4223   31.5927   46.4627 H   0  0  0  0  0  0  0  0  0  0  0  0
   57.9128   30.9162   47.1859 H   0  0  0  0  0  0  0  0  0  0  0  0
  1  2  2  0
  2  3  1  0
  2  4  1  0
  4  5  2  0
  5  6  1  0
  6  7  2  0
  7  8  1  0
  8  9  1  0
  9 10  1  0
 10 11  1  0
 11 12  1  0
 12 13  1  0
 13 14  2  0
 14 15  1  0
 15 16  2  0
 16 17  1  0
 17 18  2  0
 11 19  1  0
 19 20  1  0
  7 21  1  0
 21  4  1  0
 20  8  1  0
 18 13  1  0
  5 22  1  0
  6 23  1  0
  9 24  1  0
  9 25  1  0
 10 26  1  0
 10 27  1  0
 11 28  1  0
 12 29  1  0
 12 30  1  0
 14 31  1  0
 15 32  1  0
 16 33  1  0
 17 34  1  0
 18 35  1  0
 19 36  1  0
 19 37  1  0
 20 38  1  0
 20 39  1  0
M  CHG  2   2   1   3  -1
M  END
>  <UniqueID>  (31) 
30

>  <SMILES>  (31) 
O=[N+]([O-])c1ccc(N2CCC(Cc3ccccc3)CC2)s1

>  <Energy>  (31) 
70.04926392715873

>  <Genealogy>  (31) 
O=[N+]([O-])c1ccc(N2CCC(Cc3ccccc3)CC2)s1 (3D coordinates assigned)
O=[N+]([O-])c1ccc(N2CCC(Cc3ccccc3)CC2)s1 (nonaromatic ring conformer: 70.04926392715873 kcal/mol)

>  <smiles>  (31) 
O=[N+]([O-])c1ccc(N2CCC(Cc3ccccc3)CC2)s1

>  <score_type>  (31) 
oracle

>  <origin>  (31) 
adg

>  <m_score__min__energy>  (31) 
-7.9000000000000004

>  <m_primary>  (31) 
energy

$$$$
31:0
     RDKit          3D

 44 46  0  0  0  0  0  0  0  0999 V2000
   57.7770   32.7980   44.0370 C   0  0  0  0  0  0  0  0  0  0  0  0
   58.2810   33.3370   45.3420 C   0  0  0  0  0  0  0  0  0  0  0  0
   58.9050   34.5900   45.3960 C   0  0  0  0  0  0  0  0  0  0  0  0
   59.4000   35.0590   46.6140 C   0  0  0  0  0  0  0  0  0  0  0  0
   59.2870   34.2990   47.7330 N   0  0  0  0  0  0  0  0  0  0  0  0
   58.7020   33.0680   47.7180 C   0  0  0  0  0  0  0  0  0  0  0  0
   58.6110   32.2850   48.9710 C   0  0  0  0  0  0  0  0  0  0  0  0
   58.5360   31.0270   48.9170 O   0  0  0  0  0  0  0  0  0  0  0  0
   58.6370   32.9470   50.2460 N   0  0  0  0  0  0  0  0  0  0  0  0
   58.3290   32.2830   51.4860 C   0  0  0  0  0  0  0  0  0  0  0  0
   57.2050   31.4430   51.5740 C   0  0  0  0  0  0  0  0  0  0  0  0
   56.8650   30.8100   52.7830 C   0  0  0  0  0  0  0  0  0  0  0  0
   55.6830   29.9200   52.8630 C   0  0  0  0  0  0  0  0  0  0  0  0
   55.5530   29.1350   53.8420 O   0  0  0  0  0  0  0  0  0  0  0  0
   54.6620   29.9880   51.8560 N   0  0  0  0  0  0  0  0  0  0  0  0
   53.3880   30.6360   51.9710 C   0  0  0  0  0  0  0  0  0  0  0  0
   52.7190   30.5900   53.2020 C   0  0  0  0  0  0  0  0  0  0  0  0
   51.4840   31.2240   53.3620 C   0  0  0  0  0  0  0  0  0  0  0  0
   50.9140   31.9260   52.2960 C   0  0  0  0  0  0  0  0  0  0  0  0
   51.5850   32.0010   51.0720 C   0  0  0  0  0  0  0  0  0  0  0  0
   51.0270   32.7150   50.0190 O   0  0  0  0  0  0  0  0  0  0  0  0
   52.8200   31.3640   50.9080 C   0  0  0  0  0  0  0  0  0  0  0  0
   57.6610   31.0410   53.9150 C   0  0  0  0  0  0  0  0  0  0  0  0
   58.7700   31.8860   53.8440 C   0  0  0  0  0  0  0  0  0  0  0  0
   59.1180   32.5090   52.6360 C   0  0  0  0  0  0  0  0  0  0  0  0
   60.3180   33.4140   52.5910 C   0  0  0  0  0  0  0  0  0  0  0  0
   58.1910   32.5660   46.5090 C   0  0  0  0  0  0  0  0  0  0  0  0
   57.0372   32.0068   44.2283 H   0  0  0  0  0  0  0  0  0  0  0  0
   57.3060   33.6093   43.4626 H   0  0  0  0  0  0  0  0  0  0  0  0
   58.6181   32.3824   43.4626 H   0  0  0  0  0  0  0  0  0  0  0  0
   59.0041   35.1996   44.4857 H   0  0  0  0  0  0  0  0  0  0  0  0
   59.8825   36.0461   46.6671 H   0  0  0  0  0  0  0  0  0  0  0  0
   58.9540   33.9420   50.2840 H   0  0  0  0  0  0  0  0  0  0  0  0
   56.5815   31.2782   50.6829 H   0  0  0  0  0  0  0  0  0  0  0  0
   53.1695   30.0508   54.0483 H   0  0  0  0  0  0  0  0  0  0  0  0
   50.9599   31.1706   54.3277 H   0  0  0  0  0  0  0  0  0  0  0  0
   49.9385   32.4189   52.4202 H   0  0  0  0  0  0  0  0  0  0  0  0
   53.3487   31.4322   49.9458 H   0  0  0  0  0  0  0  0  0  0  0  0
   57.4089   30.5517   54.8674 H   0  0  0  0  0  0  0  0  0  0  0  0
   59.3768   32.0651   54.7438 H   0  0  0  0  0  0  0  0  0  0  0  0
   60.6354   33.6534   53.6167 H   0  0  0  0  0  0  0  0  0  0  0  0
   61.1390   32.9083   52.0617 H   0  0  0  0  0  0  0  0  0  0  0  0
   60.0574   34.3424   52.0617 H   0  0  0  0  0  0  0  0  0  0  0  0
   57.7220   31.5714   46.4786 H   0  0  0  0  0  0  0  0  0  0  0  0
  1  2  1  0
  2  3  2  0
  3  4  1  0
  4  5  2  0
  5  6  1  0
  6  7  1  0
  7  8  2  0
  7  9  1  0
  9 10  1  0
 10 11  2  0
 11 12  1  0
 12 13  1  0
 13 14  2  0
 13 15  1  0
 15 16  1  0
 16 17  2  0
 17 18  1  0
 18 19  2  0
 19 20  1  0
 20 21  1  0
 20 22  2  0
 12 23  2  0
 23 24  1  0
 24 25  2  0
 25 26  1  0
  6 27  2  0
 27  2  1  0
 25 10  1  0
 22 16  1  0
  1 28  1  0
  1 29  1  0
  1 30  1  0
  3 31  1  0
  4 32  1  0
  9 33  1  0
 11 34  1  0
 17 35  1  0
 18 36  1  0
 19 37  1  0
 22 38  1  0
 23 39  1  0
 24 40  1  0
 26 41  1  0
 26 42  1  0
 26 43  1  0
 27 44  1  0
M  CHG  2  15  -1  21  -1
M  END
>  <UniqueID>  (32) 
31

>  <SMILES>  (32) 
Cc1ccnc(C(=O)Nc2cc(C(=O)[N-]c3cccc([O-])c3)ccc2C)c1

>  <Energy>  (32) 
55.47470900578835

>  <Genealogy>  (32) 
Cc1ccnc(C(=O)Nc2cc(C(=O)[N-]c3cccc([O-])c3)ccc2C)c1 (protonated)
Cc1ccnc(C(=O)Nc2cc(C(=O)[N-]c3cccc([O-])c3)ccc2C)c1 (3D coordinates assigned)
Cc1ccnc(C(=O)Nc2cc(C(=O)[N-]c3cccc([O-])c3)ccc2C)c1 (optimized conformer: 55.47470900578835 kcal/mol)

>  <smiles>  (32) 
Cc1ccnc(C(=O)Nc2cc(C(=O)Nc3cccc(O)c3)ccc2C)c1

>  <score_type>  (32) 
oracle

>  <origin>  (32) 
adg

>  <m_score__min__energy>  (32) 
-13.539999999999999

>  <m_primary>  (32) 
energy

$$$$
32:0
     RDKit          3D

 64 68  0  0  0  0  0  0  0  0999 V2000
   55.2110   26.0960   46.0130 O   0  0  0  0  0  0  0  0  0  0  0  0
   56.3340   25.5500   45.8320 C   0  0  0  0  0  0  0  0  0  0  0  0
   56.4030   24.2540   45.1360 C   0  0  0  0  0  0  0  0  0  0  0  0
   56.3990   24.2240   43.7320 C   0  0  0  0  0  0  0  0  0  0  0  0
   56.5250   23.0120   43.0500 C   0  0  0  0  0  0  0  0  0  0  0  0
   56.6430   21.8160   43.7670 C   0  0  0  0  0  0  0  0  0  0  0  0
   56.6220   21.8320   45.1640 C   0  0  0  0  0  0  0  0  0  0  0  0
   56.4940   23.0410   45.8550 C   0  0  0  0  0  0  0  0  0  0  0  0
   56.3880   23.0040   47.6120 Cl  0  0  0  0  0  0  0  0  0  0  0  0
   57.5720   26.2470   46.2280 C   0  0  0  0  0  0  0  0  0  0  0  0
   58.0520   26.1290   47.4970 N   0  0  0  0  0  0  0  0  0  0  0  0
   59.2220   26.7830   47.6580 C   0  0  0  0  0  0  0  0  0  0  0  0
   59.9070   26.7920   48.7600 N   0  0  0  0  0  0  0  0  0  0  0  0
   60.8470   27.8420   49.1500 C   0  0  0  0  0  0  0  0  0  0  0  0
   60.1110   29.0000   49.7670 C   0  0  0  0  0  0  0  0  0  0  0  0
   59.9770   29.0640   51.1630 C   0  0  0  0  0  0  0  0  0  0  0  0
   59.2280   30.0810   51.7550 C   0  0  0  0  0  0  0  0  0  0  0  0
   58.6170   31.0520   50.9610 C   0  0  0  0  0  0  0  0  0  0  0  0
   58.7900   31.0430   49.5730 C   0  0  0  0  0  0  0  0  0  0  0  0
   58.1430   32.0570   48.7980 N   0  0  0  0  0  0  0  0  0  0  0  0
   58.9900   33.2780   47.9070 S   0  0  0  0  0  0  0  0  0  0  0  0
   59.6780   34.1850   48.8880 O   0  0  0  0  0  0  0  0  0  0  0  0
   58.0290   34.0960   47.0930 O   0  0  0  0  0  0  0  0  0  0  0  0
   60.2470   32.5500   46.8610 C   0  0  0  0  0  0  0  0  0  0  0  0
   61.6220   32.7180   47.4450 C   0  0  0  0  0  0  0  0  0  0  0  0
   62.0280   31.9280   48.5340 C   0  0  0  0  0  0  0  0  0  0  0  0
   63.3060   32.0810   49.0790 C   0  0  0  0  0  0  0  0  0  0  0  0
   64.1900   33.0190   48.5390 C   0  0  0  0  0  0  0  0  0  0  0  0
   63.7980   33.8050   47.4540 C   0  0  0  0  0  0  0  0  0  0  0  0
   62.5220   33.6530   46.9030 C   0  0  0  0  0  0  0  0  0  0  0  0
   59.5290   30.0070   48.9680 C   0  0  0  0  0  0  0  0  0  0  0  0
   59.6540   29.9530   47.5840 O   0  0  0  0  0  0  0  0  0  0  0  0
   59.7220   27.5370   46.2470 S   0  0  0  0  0  0  0  0  0  0  0  0
   58.3650   27.0310   45.3770 C   0  0  0  0  0  0  0  0  0  0  0  0
   58.1030   27.3680   43.9330 C   0  0  0  0  0  0  0  0  0  0  0  0
   57.8190   28.8370   43.7650 C   0  0  0  0  0  0  0  0  0  0  0  0
   56.8460   29.2750   42.8480 C   0  0  0  0  0  0  0  0  0  0  0  0
   56.6200   30.6420   42.6620 C   0  0  0  0  0  0  0  0  0  0  0  0
   57.3680   31.5810   43.3780 C   0  0  0  0  0  0  0  0  0  0  0  0
   58.3440   31.1530   44.2840 C   0  0  0  0  0  0  0  0  0  0  0  0
   58.5710   29.7870   44.4760 C   0  0  0  0  0  0  0  0  0  0  0  0
   56.2959   25.1614   43.1658 H   0  0  0  0  0  0  0  0  0  0  0  0
   56.5315   22.9974   41.9501 H   0  0  0  0  0  0  0  0  0  0  0  0
   56.7524   20.8622   43.2301 H   0  0  0  0  0  0  0  0  0  0  0  0
   56.7066   20.8886   45.7232 H   0  0  0  0  0  0  0  0  0  0  0  0
   61.5618   27.4358   49.8807 H   0  0  0  0  0  0  0  0  0  0  0  0
   61.3812   28.1939   48.2552 H   0  0  0  0  0  0  0  0  0  0  0  0
   60.4659   28.3072   51.7941 H   0  0  0  0  0  0  0  0  0  0  0  0
   59.1190   30.1175   52.8490 H   0  0  0  0  0  0  0  0  0  0  0  0
   57.9954   31.8294   51.4294 H   0  0  0  0  0  0  0  0  0  0  0  0
   60.0372   31.4763   46.7461 H   0  0  0  0  0  0  0  0  0  0  0  0
   60.2227   33.0627   45.8881 H   0  0  0  0  0  0  0  0  0  0  0  0
   61.3367   31.1857   48.9596 H   0  0  0  0  0  0  0  0  0  0  0  0
   63.6163   31.4623   49.9340 H   0  0  0  0  0  0  0  0  0  0  0  0
   65.1954   33.1381   48.9692 H   0  0  0  0  0  0  0  0  0  0  0  0
   64.4939   34.5450   47.0319 H   0  0  0  0  0  0  0  0  0  0  0  0
   62.2207   34.2674   46.0418 H   0  0  0  0  0  0  0  0  0  0  0  0
   58.9873   27.1019   43.3353 H   0  0  0  0  0  0  0  0  0  0  0  0
   57.2239   26.8000   43.5944 H   0  0  0  0  0  0  0  0  0  0  0  0
   56.2614   28.5397   42.2757 H   0  0  0  0  0  0  0  0  0  0  0  0
   55.8518   30.9794   41.9506 H   0  0  0  0  0  0  0  0  0  0  0  0
   57.1892   32.6561   43.2290 H   0  0  0  0  0  0  0  0  0  0  0  0
   58.9336   31.8922   44.8461 H   0  0  0  0  0  0  0  0  0  0  0  0
   59.3418   29.4546   45.1869 H   0  0  0  0  0  0  0  0  0  0  0  0
  1  2  2  0
  2  3  1  0
  3  4  2  0
  4  5  1  0
  5  6  2  0
  6  7  1  0
  7  8  2  0
  8  9  1  0
  2 10  1  0
 10 11  1  0
 11 12  1  0
 12 13  2  3
 13 14  1  0
 14 15  1  0
 15 16  2  0
 16 17  1  0
 17 18  2  0
 18 19  1  0
 19 20  1  0
 20 21  1  0
 21 22  2  0
 21 23  2  0
 21 24  1  0
 24 25  1  0
 25 26  2  0
 26 27  1  0
 27 28  2  0
 28 29  1  0
 29 30  2  0
 19 31  2  0
 31 32  1  0
 12 33  1  0
 33 34  1  0
 34 35  1  0
 35 36  1  0
 36 37  2  0
 37 38  1  0
 38 39  2  0
 39 40  1  0
 40 41  2  0
  8  3  1  0
 34 10  2  0
 41 36  1  0
 31 15  1  0
 30 25  1  0
  4 42  1  0
  5 43  1  0
  6 44  1  0
  7 45  1  0
 14 46  1  0
 14 47  1  0
 16 48  1  0
 17 49  1  0
 18 50  1  0
 24 51  1  0
 24 52  1  0
 26 53  1  0
 27 54  1  0
 28 55  1  0
 29 56  1  0
 30 57  1  0
 35 58  1  0
 35 59  1  0
 37 60  1  0
 38 61  1  0
 39 62  1  0
 40 63  1  0
 41 64  1  0
M  CHG  3  11  -1  20  -1  32  -1
M  END
>  <UniqueID>  (33) 
32

>  <SMILES>  (33) 
O=C(c1ccccc1Cl)c1[n-]c(=NCc2cccc([N-]S(=O)(=O)Cc3ccccc3)c2[O-])sc1Cc1ccccc1

>  <Energy>  (33) 
106.1799141463083

>  <Genealogy>  (33) 
O=C(c1ccccc1Cl)c1[n-]c(=NCc2cccc([N-]S(=O)(=O)Cc3ccccc3)c2[O-])sc1Cc1ccccc1 (protonated)
O=C(c1ccccc1Cl)c1[n-]c(=NCc2cccc([N-]S(=O)(=O)Cc3ccccc3)c2[O-])sc1Cc1ccccc1 (3D coordinates assigned)
O=C(c1ccccc1Cl)c1[n-]c(=NCc2cccc([N-]S(=O)(=O)Cc3ccccc3)c2[O-])sc1Cc1ccccc1 (optimized conformer: 106.1799141463083 kcal/mol)

>  <smiles>  (33) 
O=C(c1ccccc1Cl)c1[nH]c(=NCc2cccc(NS(=O)(=O)Cc3ccccc3)c2O)sc1Cc1ccccc1

>  <score_type>  (33) 
oracle

>  <origin>  (33) 
adg

>  <m_score__min__energy>  (33) 
-19.309999999999999

>  <m_primary>  (33) 
energy

$$$$
33:0
     RDKit          3D

 65 68  0  0  0  0  0  0  0  0999 V2000
   58.2127   31.6515   46.3392 H   0  0  0  0  0  0  0  0  0  0  0  0
   58.2780   30.5910   46.6240 C   0  0  0  0  0  0  0  0  0  0  0  0
   58.9470   30.2360   47.7480 N   0  0  0  0  0  0  0  0  0  0  0  0
   59.0600   28.9390   48.1410 C   0  0  0  0  0  0  0  0  0  0  0  0
   59.6890   28.6170   49.2350 N   0  0  0  0  0  0  0  0  0  0  0  0
   60.4610   29.4890   50.0790 C   0  0  0  0  0  0  0  0  0  0  0  0
   60.1260   29.7030   51.4290 C   0  0  0  0  0  0  0  0  0  0  0  0
   59.2751   29.1666   51.8743 H   0  0  0  0  0  0  0  0  0  0  0  0
   60.8710   30.5950   52.2060 C   0  0  0  0  0  0  0  0  0  0  0  0
   60.6162   30.7450   53.2655 H   0  0  0  0  0  0  0  0  0  0  0  0
   61.9380   31.2960   51.6400 C   0  0  0  0  0  0  0  0  0  0  0  0
   62.5246   31.9926   52.2569 H   0  0  0  0  0  0  0  0  0  0  0  0
   62.2650   31.1150   50.2860 C   0  0  0  0  0  0  0  0  0  0  0  0
   63.4050   31.8880   49.6780 C   0  0  0  0  0  0  0  0  0  0  0  0
   64.2155   31.9808   50.4159 H   0  0  0  0  0  0  0  0  0  0  0  0
   63.7670   31.3529   48.7877 H   0  0  0  0  0  0  0  0  0  0  0  0
   62.9510   33.2390   49.2780 N   0  0  0  0  0  0  0  0  0  0  0  0
   61.5340   33.2440   48.8690 C   0  0  0  0  0  0  0  0  0  0  0  0
   60.9411   32.7188   49.6323 H   0  0  0  0  0  0  0  0  0  0  0  0
   61.2104   34.2905   48.7686 H   0  0  0  0  0  0  0  0  0  0  0  0
   61.3280   32.5430   47.5040 C   0  0  0  0  0  0  0  0  0  0  0  0
   60.9006   31.5457   47.6848 H   0  0  0  0  0  0  0  0  0  0  0  0
   60.6572   33.1800   46.9088 H   0  0  0  0  0  0  0  0  0  0  0  0
   62.5270   32.3910   46.7650 O   0  0  0  0  0  0  0  0  0  0  0  0
   63.2760   33.5850   46.8070 C   0  0  0  0  0  0  0  0  0  0  0  0
   64.1240   33.5047   46.1110 H   0  0  0  0  0  0  0  0  0  0  0  0
   62.6249   34.4230   46.5175 H   0  0  0  0  0  0  0  0  0  0  0  0
   63.8110   33.8390   48.2310 C   0  0  0  0  0  0  0  0  0  0  0  0
   64.8187   33.4052   48.3114 H   0  0  0  0  0  0  0  0  0  0  0  0
   63.8237   34.9269   48.3931 H   0  0  0  0  0  0  0  0  0  0  0  0
   61.5140   30.2160   49.5090 C   0  0  0  0  0  0  0  0  0  0  0  0
   61.7553   30.0822   48.4442 H   0  0  0  0  0  0  0  0  0  0  0  0
   58.4570   27.9340   47.3810 C   0  0  0  0  0  0  0  0  0  0  0  0
   58.5325   26.8851   47.7035 H   0  0  0  0  0  0  0  0  0  0  0  0
   57.7540   28.2550   46.2060 C   0  0  0  0  0  0  0  0  0  0  0  0
   57.0880   27.2240   45.4450 N   0  0  0  0  0  0  0  0  0  0  0  0
   56.2700   27.4760   44.8490 H   0  0  0  0  0  0  0  0  0  0  0  0
   57.4950   25.8190   45.4360 C   0  0  0  0  0  0  0  0  0  0  0  0
   58.1584   25.6425   44.5765 H   0  0  0  0  0  0  0  0  0  0  0  0
   58.0179   25.6002   46.3787 H   0  0  0  0  0  0  0  0  0  0  0  0
   56.2940   24.9060   45.3290 C   0  0  0  0  0  0  0  0  0  0  0  0
   56.4750   23.5580   44.9740 C   0  0  0  0  0  0  0  0  0  0  0  0
   57.4862   23.1804   44.7623 H   0  0  0  0  0  0  0  0  0  0  0  0
   55.3800   22.6940   44.8880 C   0  0  0  0  0  0  0  0  0  0  0  0
   55.5311   21.6426   44.6022 H   0  0  0  0  0  0  0  0  0  0  0  0
   54.0960   23.1630   45.1640 C   0  0  0  0  0  0  0  0  0  0  0  0
   53.2340   22.4839   45.0881 H   0  0  0  0  0  0  0  0  0  0  0  0
   53.9050   24.4960   45.5370 C   0  0  0  0  0  0  0  0  0  0  0  0
   52.8917   24.8628   45.7577 H   0  0  0  0  0  0  0  0  0  0  0  0
   54.9960   25.3660   45.6310 C   0  0  0  0  0  0  0  0  0  0  0  0
   54.7790   26.6820   46.0250 O   0  0  0  0  0  0  0  0  0  0  0  0
   57.6680   29.6150   45.8210 C   0  0  0  0  0  0  0  0  0  0  0  0
   56.9940   30.0440   44.5750 C   0  0  0  0  0  0  0  0  0  0  0  0
   55.7950   29.7190   44.3660 O   0  0  0  0  0  0  0  0  0  0  0  0
   57.7120   30.7390   43.5480 N   0  0  0  0  0  0  0  0  0  0  0  0
   57.4480   32.1270   43.1720 C   0  0  0  0  0  0  0  0  0  0  0  0
   56.3712   32.3261   43.2758 H   0  0  0  0  0  0  0  0  0  0  0  0
   57.8830   32.3340   41.7210 C   0  0  0  0  0  0  0  0  0  0  0  0
   58.8761   32.8066   41.6998 H   0  0  0  0  0  0  0  0  0  0  0  0
   57.9289   31.3612   41.2096 H   0  0  0  0  0  0  0  0  0  0  0  0
   57.1570   32.9832   41.2096 H   0  0  0  0  0  0  0  0  0  0  0  0
   58.1840   33.1070   44.0930 C   0  0  0  0  0  0  0  0  0  0  0  0
   57.9859   32.8432   45.1424 H   0  0  0  0  0  0  0  0  0  0  0  0
   59.2653   33.0511   43.8987 H   0  0  0  0  0  0  0  0  0  0  0  0
   57.8289   34.1298   43.8987 H   0  0  0  0  0  0  0  0  0  0  0  0
  1  2  1  0
  2  3  1  0
  3  4  1  0
  4  5  2  0
  5  6  1  0
  6  7  2  0
  7  8  1  0
  7  9  1  0
  9 10  1  0
  9 11  2  0
 11 12  1  0
 11 13  1  0
 13 14  1  0
 14 15  1  0
 14 16  1  0
 14 17  1  0
 17 18  1  0
 18 19  1  0
 18 20  1  0
 18 21  1  0
 21 22  1  0
 21 23  1  0
 21 24  1  0
 24 25  1  0
 25 26  1  0
 25 27  1  0
 25 28  1  0
 28 29  1  0
 28 30  1  0
 13 31  2  0
 31 32  1  0
  4 33  1  0
 33 34  1  0
 33 35  2  0
 35 36  1  0
 36 37  1  0
 36 38  1  0
 38 39  1  0
 38 40  1  0
 38 41  1  0
 41 42  2  0
 42 43  1  0
 42 44  1  0
 44 45  1  0
 44 46  2  0
 46 47  1  0
 46 48  1  0
 48 49  1  0
 48 50  2  0
 50 51  1  0
 35 52  1  0
 52 53  1  0
 53 54  2  0
 53 55  1  0
 55 56  1  0
 56 57  1  0
 56 58  1  0
 58 59  1  0
 58 60  1  0
 58 61  1  0
 56 62  1  0
 62 63  1  0
 62 64  1  0
 62 65  1  0
 52  2  2  0
 31  6  1  0
 50 41  1  0
 28 17  1  0
M  CHG  3   3  -1  51  -1  55  -1
M  END
>  <UniqueID>  (34) 
33

>  <SMILES>  (34) 
CC(C)[N-]C(=O)c1c[n-]/c(=N\c2cccc(CN3CCOCC3)c2)cc1NCc1ccccc1[O-]

>  <Energy>  (34) 
94.54538142153278

>  <Genealogy>  (34) 
CC(C)[N-]C(=O)c1c[n-]c(=Nc2cccc(CN3CCOCC3)c2)cc1NCc1ccccc1[O-] (protonated)
CC(C)[N-]C(=O)c1c[n-]/c(=N\c2cccc(CN3CCOCC3)c2)cc1NCc1ccccc1[O-] (cis-trans isomerization)
CC(C)[N-]C(=O)c1c[n-]/c(=N\c2cccc(CN3CCOCC3)c2)cc1NCc1ccccc1[O-] (3D coordinates assigned)
CC(C)[N-]C(=O)c1c[n-]/c(=N\c2cccc(CN3CCOCC3)c2)cc1NCc1ccccc1[O-] (nonaromatic ring conformer: 94.54538142153278 kcal/mol)

>  <smiles>  (34) 
CC(C)NC(=O)c1c[nH]c(=Nc2cccc(CN3CCOCC3)c2)cc1NCc1ccccc1O

>  <score_type>  (34) 
oracle

>  <origin>  (34) 
adg

>  <m_score__min__energy>  (34) 
-14.880000000000001

>  <m_primary>  (34) 
energy

$$$$
34:0
     RDKit          3D

 50 53  0  0  0  0  0  0  0  0999 V2000
   55.7200   29.7040   43.1930 O   0  0  0  0  0  0  0  0  0  0  0  0
   56.2290   29.7000   44.3450 C   0  0  0  0  0  0  0  0  0  0  0  0
   55.8860   28.6350   45.2430 N   0  0  0  0  0  0  0  0  0  0  0  0
   56.7380   27.5470   45.6260 C   0  0  0  0  0  0  0  0  0  0  0  0
   56.2250   26.3840   46.2300 C   0  0  0  0  0  0  0  0  0  0  0  0
   57.0850   25.3440   46.5980 C   0  0  0  0  0  0  0  0  0  0  0  0
   58.4600   25.4620   46.3820 C   0  0  0  0  0  0  0  0  0  0  0  0
   58.9780   26.6260   45.8040 C   0  0  0  0  0  0  0  0  0  0  0  0
   58.1200   27.6670   45.4350 C   0  0  0  0  0  0  0  0  0  0  0  0
   57.1190   30.8130   44.7500 C   0  0  0  0  0  0  0  0  0  0  0  0
   57.3350   31.9080   43.8970 C   0  0  0  0  0  0  0  0  0  0  0  0
   58.1670   32.9590   44.2920 C   0  0  0  0  0  0  0  0  0  0  0  0
   58.7940   32.9360   45.5400 C   0  0  0  0  0  0  0  0  0  0  0  0
   59.6300   34.0060   45.8950 O   0  0  0  0  0  0  0  0  0  0  0  0
   60.6980   33.9390   46.8000 C   0  0  0  0  0  0  0  0  0  0  0  0
   62.0250   33.7570   46.3740 C   0  0  0  0  0  0  0  0  0  0  0  0
   63.0630   33.6830   47.3070 C   0  0  0  0  0  0  0  0  0  0  0  0
   62.7920   33.7630   48.6850 C   0  0  0  0  0  0  0  0  0  0  0  0
   63.8800   33.6870   49.6890 C   0  0  0  0  0  0  0  0  0  0  0  0
   63.6920   34.1680   50.8410 O   0  0  0  0  0  0  0  0  0  0  0  0
   65.1350   33.0620   49.3820 N   0  0  0  0  0  0  0  0  0  0  0  0
   66.2530   33.1030   50.3230 C   0  0  0  0  0  0  0  0  0  0  0  0
   66.4190   31.7810   51.0030 C   0  0  0  0  0  0  0  0  0  0  0  0
   67.5200   31.3800   51.7330 C   0  0  0  0  0  0  0  0  0  0  0  0
   67.2430   30.0940   52.1440 C   0  0  0  0  0  0  0  0  0  0  0  0
   65.9960   29.7890   51.6340 C   0  0  0  0  0  0  0  0  0  0  0  0
   65.5320   30.8130   50.9570 O   0  0  0  0  0  0  0  0  0  0  0  0
   61.4600   33.9380   49.1040 C   0  0  0  0  0  0  0  0  0  0  0  0
   60.4260   34.0140   48.1690 C   0  0  0  0  0  0  0  0  0  0  0  0
   58.6120   31.8250   46.3810 C   0  0  0  0  0  0  0  0  0  0  0  0
   57.7790   30.7730   45.9890 C   0  0  0  0  0  0  0  0  0  0  0  0
   55.1442   26.2925   46.4133 H   0  0  0  0  0  0  0  0  0  0  0  0
   56.6778   24.4317   47.0583 H   0  0  0  0  0  0  0  0  0  0  0  0
   59.1346   24.6408   46.6660 H   0  0  0  0  0  0  0  0  0  0  0  0
   60.0613   26.7225   45.6396 H   0  0  0  0  0  0  0  0  0  0  0  0
   58.5332   28.5853   44.9922 H   0  0  0  0  0  0  0  0  0  0  0  0
   56.8462   31.9383   42.9120 H   0  0  0  0  0  0  0  0  0  0  0  0
   58.3294   33.8107   43.6151 H   0  0  0  0  0  0  0  0  0  0  0  0
   62.2479   33.6723   45.3001 H   0  0  0  0  0  0  0  0  0  0  0  0
   64.1000   33.5612   46.9610 H   0  0  0  0  0  0  0  0  0  0  0  0
   65.2280   32.4980   48.5070 H   0  0  0  0  0  0  0  0  0  0  0  0
   67.1762   33.3468   49.7768 H   0  0  0  0  0  0  0  0  0  0  0  0
   66.0470   33.8696   51.0845 H   0  0  0  0  0  0  0  0  0  0  0  0
   68.4280   31.9644   51.9427 H   0  0  0  0  0  0  0  0  0  0  0  0
   67.8851   29.4423   52.7547 H   0  0  0  0  0  0  0  0  0  0  0  0
   65.4713   28.8324   51.7741 H   0  0  0  0  0  0  0  0  0  0  0  0
   61.2316   34.0156   50.1772 H   0  0  0  0  0  0  0  0  0  0  0  0
   59.3880   34.1340   48.5127 H   0  0  0  0  0  0  0  0  0  0  0  0
   59.1272   31.7829   47.3520 H   0  0  0  0  0  0  0  0  0  0  0  0
   57.6397   29.9087   46.6550 H   0  0  0  0  0  0  0  0  0  0  0  0
  1  2  2  0
  2  3  1  0
  3  4  1  0
  4  5  2  0
  5  6  1  0
  6  7  2  0
  7  8  1  0
  8  9  2  0
  2 10  1  0
 10 11  2  0
 11 12  1  0
 12 13  2  0
 13 14  1  0
 14 15  1  0
 15 16  2  0
 16 17  1  0
 17 18  2  0
 18 19  1  0
 19 20  2  0
 19 21  1  0
 21 22  1  0
 22 23  1  0
 23 24  2  0
 24 25  1  0
 25 26  2  0
 26 27  1  0
 18 28  1  0
 28 29  2  0
 13 30  1  0
 30 31  2  0
  9  4  1  0
 31 10  1  0
 29 15  1  0
 27 23  1  0
  5 32  1  0
  6 33  1  0
  7 34  1  0
  8 35  1  0
  9 36  1  0
 11 37  1  0
 12 38  1  0
 16 39  1  0
 17 40  1  0
 21 41  1  0
 22 42  1  0
 22 43  1  0
 24 44  1  0
 25 45  1  0
 26 46  1  0
 28 47  1  0
 29 48  1  0
 30 49  1  0
 31 50  1  0
M  CHG  1   3  -1
M  END
>  <UniqueID>  (35) 
34

>  <SMILES>  (35) 
O=C([N-]c1ccccc1)c1ccc(Oc2ccc(C(=O)NCc3ccco3)cc2)cc1

>  <Energy>  (35) 
93.91005089459816

>  <Genealogy>  (35) 
O=C([N-]c1ccccc1)c1ccc(Oc2ccc(C(=O)NCc3ccco3)cc2)cc1 (protonated)
O=C([N-]c1ccccc1)c1ccc(Oc2ccc(C(=O)NCc3ccco3)cc2)cc1 (3D coordinates assigned)
O=C([N-]c1ccccc1)c1ccc(Oc2ccc(C(=O)NCc3ccco3)cc2)cc1 (optimized conformer: 93.91005089459816 kcal/mol)

>  <smiles>  (35) 
O=C(NCc1ccco1)c1ccc(Oc2ccc(C(=O)Nc3ccccc3)cc2)cc1

>  <score_type>  (35) 
oracle

>  <origin>  (35) 
adg

>  <m_score__min__energy>  (35) 
-10.380000000000001

>  <m_primary>  (35) 
energy

$$$$
35:0
     RDKit          3D

 46 48  0  0  1  0  0  0  0  0999 V2000
   62.0450   31.8150   47.4890 C   0  0  0  0  0  0  0  0  0  0  0  0
   60.7900   32.0580   46.8980 O   0  0  0  0  0  0  0  0  0  0  0  0
   59.8210   31.0860   46.7230 C   0  0  0  0  0  0  0  0  0  0  0  0
   59.8350   29.8580   47.3370 C   0  0  0  0  0  0  0  0  0  0  0  0
   58.8140   28.9360   47.1000 C   0  0  0  0  0  0  0  0  0  0  0  0
   58.8310   27.6650   47.7360 N   0  0  0  0  0  0  0  0  0  0  0  0
   58.4470   26.6500   47.0420 C   0  0  0  0  0  0  0  0  0  0  0  0
   59.4270   25.7850   46.6580 N   0  0  0  0  0  0  0  0  0  0  0  0
   59.1040   24.6900   45.9240 C   0  0  0  0  0  0  0  0  0  0  0  0
   57.7850   24.4330   45.5550 C   0  0  0  0  0  0  0  0  0  0  0  0
   56.8440   25.3300   45.9660 C   0  0  0  0  0  0  0  0  0  0  0  0
   57.1700   26.4170   46.6940 N   0  0  0  0  0  0  0  0  0  0  0  0
   55.5290   25.1240   45.6280 C   0  0  0  0  0  0  0  0  0  0  0  0
   54.5880   25.8780   45.9500 O   0  0  0  0  0  0  0  0  0  0  0  0
   55.1990   24.0280   44.8920 N   0  0  0  0  0  0  0  0  0  0  0  0
   53.8290   23.7490   44.5010 C   0  0  0  0  0  0  0  0  0  0  0  0
   56.1640   23.1680   44.5100 C   0  0  0  0  0  0  0  0  0  0  0  0
   55.8920   22.1280   43.8180 O   0  0  0  0  0  0  0  0  0  0  0  0
   57.4580   23.3550   44.8320 N   0  0  0  0  0  0  0  0  0  0  0  0
   58.4800   22.3970   44.3960 C   0  0  0  0  0  0  0  0  0  0  0  0
   57.7920   29.2810   46.2390 C   0  0  0  0  0  0  0  0  0  0  0  0
   57.7580   30.5060   45.6130 C   0  0  0  0  0  0  0  0  0  0  0  0
   56.7500   30.8900   44.7400 O   0  0  0  0  0  0  0  0  0  0  0  0
   56.8050   30.4540   43.3840 C   0  0  0  0  0  0  0  0  0  0  0  0
   58.7760   31.4080   45.8560 C   0  0  0  0  0  0  0  0  0  0  0  0
   58.7470   32.6570   45.2210 O   0  0  0  0  0  0  0  0  0  0  0  0
   57.9330   33.6830   45.7270 C   0  0  0  0  0  0  0  0  0  0  0  0
   61.9445   31.8345   48.5842 H   0  0  0  0  0  0  0  0  0  0  0  0
   62.4147   30.8286   47.1722 H   0  0  0  0  0  0  0  0  0  0  0  0
   62.7561   32.5921   47.1722 H   0  0  0  0  0  0  0  0  0  0  0  0
   60.6568   29.5988   48.0207 H   0  0  0  0  0  0  0  0  0  0  0  0
   59.8972   23.9933   45.6150 H   0  0  0  0  0  0  0  0  0  0  0  0
   56.4380   27.0950   47.0010 H   0  0  0  0  0  0  0  0  0  0  0  0
   53.2093   23.6228   45.4010 H   0  0  0  0  0  0  0  0  0  0  0  0
   53.4406   24.5865   43.9029 H   0  0  0  0  0  0  0  0  0  0  0  0
   53.7991   22.8263   43.9029 H   0  0  0  0  0  0  0  0  0  0  0  0
   58.9603   21.9468   45.2773 H   0  0  0  0  0  0  0  0  0  0  0  0
   58.0088   21.6077   43.7919 H   0  0  0  0  0  0  0  0  0  0  0  0
   59.2372   22.9182   43.7919 H   0  0  0  0  0  0  0  0  0  0  0  0
   56.9845   28.5588   46.0484 H   0  0  0  0  0  0  0  0  0  0  0  0
   56.9426   29.3630   43.3549 H   0  0  0  0  0  0  0  0  0  0  0  0
   55.8663   30.7188   42.8753 H   0  0  0  0  0  0  0  0  0  0  0  0
   57.6485   30.9437   42.8753 H   0  0  0  0  0  0  0  0  0  0  0  0
   57.9527   33.6581   46.8265 H   0  0  0  0  0  0  0  0  0  0  0  0
   58.3079   34.6556   45.3754 H   0  0  0  0  0  0  0  0  0  0  0  0
   56.9007   33.5391   45.3754 H   0  0  0  0  0  0  0  0  0  0  0  0
  1  2  1  0
  2  3  1  0
  3  4  2  0
  4  5  1  0
  5  6  1  0
  6  7  2  0
  7  8  1  0
  8  9  2  0
  9 10  1  0
 10 11  2  0
 11 12  1  0
 11 13  1  0
 13 14  2  0
 13 15  1  0
 15 16  1  0
 15 17  1  0
 17 18  2  0
 17 19  1  0
 19 20  1  0
  5 21  2  0
 21 22  1  0
 22 23  1  0
 23 24  1  0
 22 25  2  0
 25 26  1  0
 26 27  1  0
 25  3  1  0
 12  7  1  0
 19 10  1  0
  1 28  1  0
  1 29  1  0
  1 30  1  0
  4 31  1  0
  9 32  1  0
 12 33  1  0
 16 34  1  0
 16 35  1  0
 16 36  1  0
 20 37  1  0
 20 38  1  0
 20 39  1  0
 21 40  1  0
 24 41  1  0
 24 42  1  0
 24 43  1  0
 27 44  1  0
 27 45  1  0
 27 46  1  0
M  END
>  <smiles>  (36) 
COc1cc(N=c2ncc3c([nH]2)c(=O)n(C)c(=O)n3C)cc(OC)c1OC

>  <score_type>  (36) 
oracle

>  <origin>  (36) 
adg

>  <m_score__min__energy>  (36) 
-7.2999999999999998

>  <m_primary>  (36) 
energy

$$$$
36:0
     RDKit          3D

 46 48  0  0  0  0  0  0  0  0999 V2000
   58.7920   34.5410   45.3520 C   0  0  0  0  0  0  0  0  0  0  0  0
   57.6050   33.9460   45.2130 C   0  0  0  0  0  0  0  0  0  0  0  0
   57.4140   32.7870   44.2810 C   0  0  0  0  0  0  0  0  0  0  0  0
   56.4020   31.8830   44.8210 N   0  0  0  0  0  0  0  0  0  0  0  0
   57.0000   30.2520   44.8020 S   0  0  0  0  0  0  0  0  0  0  0  0
   55.8950   29.3160   45.1990 O   0  0  0  0  0  0  0  0  0  0  0  0
   57.4550   29.8970   43.4150 O   0  0  0  0  0  0  0  0  0  0  0  0
   58.3290   30.0860   45.9470 C   0  0  0  0  0  0  0  0  0  0  0  0
   59.3260   31.0670   46.0330 C   0  0  0  0  0  0  0  0  0  0  0  0
   60.3630   30.9340   46.9590 C   0  0  0  0  0  0  0  0  0  0  0  0
   60.4160   29.8210   47.8090 C   0  0  0  0  0  0  0  0  0  0  0  0
   61.4630   29.6890   48.7200 O   0  0  0  0  0  0  0  0  0  0  0  0
   59.4120   28.8360   47.7370 C   0  0  0  0  0  0  0  0  0  0  0  0
   59.4720   27.6170   48.6190 C   0  0  0  0  0  0  0  0  0  0  0  0
   60.2960   26.5880   47.9950 N   0  0  0  0  0  0  0  0  0  0  0  0
   60.3600   26.3710   46.5810 C   0  0  0  0  0  0  0  0  0  0  0  0
   60.9420   27.2100   45.8430 O   0  0  0  0  0  0  0  0  0  0  0  0
   59.7610   25.2150   45.9730 N   0  0  0  0  0  0  0  0  0  0  0  0
   58.4890   24.9560   45.8610 C   0  0  0  0  0  0  0  0  0  0  0  0
   57.5610   26.0060   46.0350 C   0  0  0  0  0  0  0  0  0  0  0  0
   56.2130   25.6970   45.8870 C   0  0  0  0  0  0  0  0  0  0  0  0
   55.1540   26.5190   45.9990 N   0  0  0  0  0  0  0  0  0  0  0  0
   54.0610   25.7930   45.7730 N   0  0  0  0  0  0  0  0  0  0  0  0
   54.4390   24.5170   45.5210 C   0  0  0  0  0  0  0  0  0  0  0  0
   53.5680   23.4630   45.2380 O   0  0  0  0  0  0  0  0  0  0  0  0
   52.2580   23.6780   44.7330 C   0  0  0  0  0  0  0  0  0  0  0  0
   55.8040   24.4340   45.5890 C   0  0  0  0  0  0  0  0  0  0  0  0
   56.7120   23.3990   45.4190 C   0  0  0  0  0  0  0  0  0  0  0  0
   58.0400   23.6910   45.5570 N   0  0  0  0  0  0  0  0  0  0  0  0
   58.3750   28.9760   46.7990 C   0  0  0  0  0  0  0  0  0  0  0  0
   58.9043   35.3895   46.0429 H   0  0  0  0  0  0  0  0  0  0  0  0
   59.6577   34.1827   44.7756 H   0  0  0  0  0  0  0  0  0  0  0  0
   56.7476   34.3144   45.7954 H   0  0  0  0  0  0  0  0  0  0  0  0
   57.0863   33.1579   43.2986 H   0  0  0  0  0  0  0  0  0  0  0  0
   58.3655   32.2458   44.1727 H   0  0  0  0  0  0  0  0  0  0  0  0
   59.2918   31.9438   45.3697 H   0  0  0  0  0  0  0  0  0  0  0  0
   61.1427   31.7074   47.0215 H   0  0  0  0  0  0  0  0  0  0  0  0
   61.6930   28.7950   49.1390 H   0  0  0  0  0  0  0  0  0  0  0  0
   59.9074   27.8921   49.5910 H   0  0  0  0  0  0  0  0  0  0  0  0
   58.4541   27.2256   48.7626 H   0  0  0  0  0  0  0  0  0  0  0  0
   57.8908   27.0269   46.2777 H   0  0  0  0  0  0  0  0  0  0  0  0
   51.5560   23.7932   45.5720 H   0  0  0  0  0  0  0  0  0  0  0  0
   52.2472   24.5899   44.1180 H   0  0  0  0  0  0  0  0  0  0  0  0
   51.9563   22.8174   44.1180 H   0  0  0  0  0  0  0  0  0  0  0  0
   56.3750   22.3792   45.1815 H   0  0  0  0  0  0  0  0  0  0  0  0
   57.5920   28.2062   46.7336 H   0  0  0  0  0  0  0  0  0  0  0  0
  1  2  2  0
  2  3  1  0
  3  4  1  0
  4  5  1  0
  5  6  2  0
  5  7  2  0
  5  8  1  0
  8  9  2  0
  9 10  1  0
 10 11  2  0
 11 12  1  0
 11 13  1  0
 13 14  1  0
 14 15  1  0
 15 16  1  0
 16 17  2  0
 16 18  1  0
 18 19  2  3
 19 20  1  0
 20 21  2  0
 21 22  1  0
 22 23  1  0
 23 24  2  0
 24 25  1  0
 25 26  1  0
 24 27  1  0
 27 28  2  0
 28 29  1  0
 13 30  2  0
 30  8  1  0
 29 19  1  0
 27 21  1  0
  1 31  1  0
  1 32  1  0
  2 33  1  0
  3 34  1  0
  3 35  1  0
  9 36  1  0
 10 37  1  0
 12 38  1  0
 14 39  1  0
 14 40  1  0
 20 41  1  0
 26 42  1  0
 26 43  1  0
 26 44  1  0
 28 45  1  0
 30 46  1  0
M  CHG  4   4  -1  15  -1  22  -1  29  -1
M  END
>  <UniqueID>  (37) 
35

>  <SMILES>  (37) 
C=CC[N-]S(=O)(=O)c1ccc(O)c(C[N-]C(=O)N=c2cc3[n-]nc(OC)c3c[n-]2)c1

>  <Energy>  (37) 
81.31336445591923

>  <Genealogy>  (37) 
C=CC[N-]S(=O)(=O)c1ccc(O)c(C[N-]C(=O)N=c2cc3[n-]nc(OC)c3c[n-]2)c1 (protonated)
C=CC[N-]S(=O)(=O)c1ccc(O)c(C[N-]C(=O)N=c2cc3[n-]nc(OC)c3c[n-]2)c1 (3D coordinates assigned)
C=CC[N-]S(=O)(=O)c1ccc(O)c(C[N-]C(=O)N=c2cc3[n-]nc(OC)c3c[n-]2)c1 (optimized conformer: 81.31336445591923 kcal/mol)

>  <smiles>  (37) 
C=CCNS(=O)(=O)c1ccc(O)c(CNC(=O)N=c2cc3[nH]nc(OC)c3c[nH]2)c1

>  <score_type>  (37) 
oracle

>  <origin>  (37) 
adg

>  <m_score__min__energy>  (37) 
-13.19

>  <m_primary>  (37) 
energy

$$$$
37:0
     RDKit          3D

 44 47  0  0  0  0  0  0  0  0999 V2000
   58.8950   32.1960   49.3950 C   0  0  0  0  0  0  0  0  0  0  0  0
   60.3820   32.3630   49.2480 C   0  0  0  0  0  0  0  0  0  0  0  0
   61.0110   33.4560   49.8660 C   0  0  0  0  0  0  0  0  0  0  0  0
   62.3940   33.6300   49.7640 C   0  0  0  0  0  0  0  0  0  0  0  0
   63.1610   32.7190   49.0390 C   0  0  0  0  0  0  0  0  0  0  0  0
   62.5480   31.6380   48.4030 C   0  0  0  0  0  0  0  0  0  0  0  0
   61.1580   31.4570   48.4870 C   0  0  0  0  0  0  0  0  0  0  0  0
   60.5480   30.3530   47.8010 N   0  0  0  0  0  0  0  0  0  0  0  0
   60.1160   29.1270   48.3900 C   0  0  0  0  0  0  0  0  0  0  0  0
   60.4050   28.7580   49.5590 O   0  0  0  0  0  0  0  0  0  0  0  0
   59.2440   28.4090   47.4680 C   0  0  0  0  0  0  0  0  0  0  0  0
   58.6330   27.1670   47.6010 C   0  0  0  0  0  0  0  0  0  0  0  0
   57.8420   26.7030   46.5390 C   0  0  0  0  0  0  0  0  0  0  0  0
   57.6760   27.4820   45.3760 C   0  0  0  0  0  0  0  0  0  0  0  0
   58.3030   28.7440   45.2530 C   0  0  0  0  0  0  0  0  0  0  0  0
   58.1360   29.5540   44.0770 N   0  0  0  0  0  0  0  0  0  0  0  0
   56.9800   30.8440   43.9790 S   0  0  0  0  0  0  0  0  0  0  0  0
   56.6060   31.0600   42.5390 O   0  0  0  0  0  0  0  0  0  0  0  0
   55.7490   30.4700   44.7550 O   0  0  0  0  0  0  0  0  0  0  0  0
   57.6610   32.3110   44.6740 C   0  0  0  0  0  0  0  0  0  0  0  0
   57.3600   32.6590   45.9980 C   0  0  0  0  0  0  0  0  0  0  0  0
   57.9080   33.8140   46.5640 C   0  0  0  0  0  0  0  0  0  0  0  0
   58.7570   34.6280   45.8070 C   0  0  0  0  0  0  0  0  0  0  0  0
   59.0570   34.2880   44.4850 C   0  0  0  0  0  0  0  0  0  0  0  0
   58.5100   33.1330   43.9180 C   0  0  0  0  0  0  0  0  0  0  0  0
   59.0870   29.1840   46.3340 C   0  0  0  0  0  0  0  0  0  0  0  0
   59.8850   30.3980   46.5350 C   0  0  0  0  0  0  0  0  0  0  0  0
   60.0040   31.3490   45.7170 O   0  0  0  0  0  0  0  0  0  0  0  0
   58.6331   32.1666   50.4630 H   0  0  0  0  0  0  0  0  0  0  0  0
   58.3818   33.0421   48.9148 H   0  0  0  0  0  0  0  0  0  0  0  0
   58.5822   31.2571   48.9148 H   0  0  0  0  0  0  0  0  0  0  0  0
   60.4104   34.1810   50.4349 H   0  0  0  0  0  0  0  0  0  0  0  0
   62.8778   34.4865   50.2562 H   0  0  0  0  0  0  0  0  0  0  0  0
   64.2506   32.8522   48.9680 H   0  0  0  0  0  0  0  0  0  0  0  0
   63.1582   30.9228   47.8319 H   0  0  0  0  0  0  0  0  0  0  0  0
   58.7659   26.5656   48.5124 H   0  0  0  0  0  0  0  0  0  0  0  0
   57.3474   25.7234   46.6146 H   0  0  0  0  0  0  0  0  0  0  0  0
   57.0510   27.1037   44.5537 H   0  0  0  0  0  0  0  0  0  0  0  0
   58.6580   29.3220   43.2060 H   0  0  0  0  0  0  0  0  0  0  0  0
   56.6904   32.0212   46.5937 H   0  0  0  0  0  0  0  0  0  0  0  0
   57.6716   34.0825   47.6042 H   0  0  0  0  0  0  0  0  0  0  0  0
   59.1888   35.5363   46.2525 H   0  0  0  0  0  0  0  0  0  0  0  0
   59.7239   34.9295   43.8902 H   0  0  0  0  0  0  0  0  0  0  0  0
   58.7459   32.8682   42.8767 H   0  0  0  0  0  0  0  0  0  0  0  0
  1  2  1  0
  2  3  2  0
  3  4  1  0
  4  5  2  0
  5  6  1  0
  6  7  2  0
  7  8  1  0
  8  9  1  0
  9 10  2  0
  9 11  1  0
 11 12  2  0
 12 13  1  0
 13 14  2  0
 14 15  1  0
 15 16  1  0
 16 17  1  0
 17 18  2  0
 17 19  2  0
 17 20  1  0
 20 21  2  0
 21 22  1  0
 22 23  2  0
 23 24  1  0
 24 25  2  0
 15 26  2  0
 26 27  1  0
 27 28  2  0
  7  2  1  0
 27  8  1  0
 26 11  1  0
 25 20  1  0
  1 29  1  0
  1 30  1  0
  1 31  1  0
  3 32  1  0
  4 33  1  0
  5 34  1  0
  6 35  1  0
 12 36  1  0
 13 37  1  0
 14 38  1  0
 16 39  1  0
 21 40  1  0
 22 41  1  0
 23 42  1  0
 24 43  1  0
 25 44  1  0
M  END
>  <UniqueID>  (38) 
36

>  <SMILES>  (38) 
Cc1ccccc1N1C(=O)c2cccc(NS(=O)(=O)c3ccccc3)c2C1=O

>  <Energy>  (38) 
90.76604813386272

>  <Genealogy>  (38) 
Cc1ccccc1N1C(=O)c2cccc(NS(=O)(=O)c3ccccc3)c2C1=O (3D coordinates assigned)
Cc1ccccc1N1C(=O)c2cccc(NS(=O)(=O)c3ccccc3)c2C1=O (nonaromatic ring conformer: 90.76604813386272 kcal/mol)

>  <smiles>  (38) 
Cc1ccccc1N1C(=O)c2cccc(NS(=O)(=O)c3ccccc3)c2C1=O

>  <score_type>  (38) 
oracle

>  <origin>  (38) 
adg

>  <m_score__min__energy>  (38) 
-10.300000000000001

>  <m_primary>  (38) 
energy

$$$$
38:0
     RDKit          3D

 43 46  0  0  0  0  0  0  0  0999 V2000
   59.3200   36.8010   47.0110 H   0  0  0  0  0  0  0  0  0  0  0  0
   59.7160   36.1400   46.3530 O   0  0  0  0  0  0  0  0  0  0  0  0
   59.1400   34.8860   46.1380 C   0  0  0  0  0  0  0  0  0  0  0  0
   58.5770   34.5860   44.8930 C   0  0  0  0  0  0  0  0  0  0  0  0
   58.5898   35.3402   44.0924 H   0  0  0  0  0  0  0  0  0  0  0  0
   58.0000   33.3390   44.6590 C   0  0  0  0  0  0  0  0  0  0  0  0
   57.5406   33.1265   43.6824 H   0  0  0  0  0  0  0  0  0  0  0  0
   57.9990   32.3520   45.6560 C   0  0  0  0  0  0  0  0  0  0  0  0
   57.3820   31.0730   45.4140 N   0  0  0  0  0  0  0  0  0  0  0  0
   57.9200   30.0300   44.8460 C   0  0  0  0  0  0  0  0  0  0  0  0
   58.3939   30.1664   43.8627 H   0  0  0  0  0  0  0  0  0  0  0  0
   57.9340   28.6730   45.4400 C   0  0  0  0  0  0  0  0  0  0  0  0
   59.1340   28.0900   45.8790 C   0  0  0  0  0  0  0  0  0  0  0  0
   60.0790   28.6441   45.7789 H   0  0  0  0  0  0  0  0  0  0  0  0
   59.1360   26.8110   46.4420 C   0  0  0  0  0  0  0  0  0  0  0  0
   60.3390   26.2440   46.8490 O   0  0  0  0  0  0  0  0  0  0  0  0
   57.9360   26.1020   46.5960 C   0  0  0  0  0  0  0  0  0  0  0  0
   57.9790   24.7840   47.1610 N   0  0  0  0  0  0  0  0  0  0  0  0
   56.7810   23.5530   46.9220 S   0  0  0  0  0  0  0  0  0  0  0  0
   57.0330   22.4290   47.8860 O   0  0  0  0  0  0  0  0  0  0  0  0
   55.4180   24.1300   47.1800 O   0  0  0  0  0  0  0  0  0  0  0  0
   56.8780   22.9300   45.2860 C   0  0  0  0  0  0  0  0  0  0  0  0
   57.6740   21.5210   44.8360 S   0  0  0  0  0  0  0  0  0  0  0  0
   57.2890   21.6210   43.2000 C   0  0  0  0  0  0  0  0  0  0  0  0
   57.5879   20.9011   42.4238 H   0  0  0  0  0  0  0  0  0  0  0  0
   56.5290   22.7680   42.9960 C   0  0  0  0  0  0  0  0  0  0  0  0
   56.1466   23.0693   42.0096 H   0  0  0  0  0  0  0  0  0  0  0  0
   56.2970   23.5020   44.1640 C   0  0  0  0  0  0  0  0  0  0  0  0
   55.7148   24.4350   44.1899 H   0  0  0  0  0  0  0  0  0  0  0  0
   56.7290   26.7030   46.1940 C   0  0  0  0  0  0  0  0  0  0  0  0
   55.7797   26.1640   46.3295 H   0  0  0  0  0  0  0  0  0  0  0  0
   56.7260   27.9790   45.6240 C   0  0  0  0  0  0  0  0  0  0  0  0
   55.5190   28.5460   45.2300 O   0  0  0  0  0  0  0  0  0  0  0  0
   58.5360   32.6490   46.9270 C   0  0  0  0  0  0  0  0  0  0  0  0
   58.5240   31.6960   47.9640 C   0  0  0  0  0  0  0  0  0  0  0  0
   58.0777   30.7058   47.7899 H   0  0  0  0  0  0  0  0  0  0  0  0
   59.0740   31.9980   49.2110 C   0  0  0  0  0  0  0  0  0  0  0  0
   59.0569   31.2462   50.0138 H   0  0  0  0  0  0  0  0  0  0  0  0
   59.6450   33.2490   49.4430 C   0  0  0  0  0  0  0  0  0  0  0  0
   60.0784   33.4802   50.4272 H   0  0  0  0  0  0  0  0  0  0  0  0
   59.6680   34.2080   48.4300 C   0  0  0  0  0  0  0  0  0  0  0  0
   60.1185   35.1932   48.6208 H   0  0  0  0  0  0  0  0  0  0  0  0
   59.1190   33.9240   47.1660 C   0  0  0  0  0  0  0  0  0  0  0  0
  1  2  1  0
  2  3  1  0
  3  4  2  0
  4  5  1  0
  4  6  1  0
  6  7  1  0
  6  8  2  0
  8  9  1  0
  9 10  2  0
 10 11  1  0
 10 12  1  0
 12 13  2  0
 13 14  1  0
 13 15  1  0
 15 16  1  0
 15 17  2  0
 17 18  1  0
 18 19  1  0
 19 20  2  0
 19 21  2  0
 19 22  1  0
 22 23  1  0
 23 24  1  0
 24 25  1  0
 24 26  2  0
 26 27  1  0
 26 28  1  0
 28 29  1  0
 17 30  1  0
 30 31  1  0
 30 32  2  0
 32 33  1  0
  8 34  1  0
 34 35  2  0
 35 36  1  0
 35 37  1  0
 37 38  1  0
 37 39  2  0
 39 40  1  0
 39 41  1  0
 41 42  1  0
 41 43  2  0
 43  3  1  0
 32 12  1  0
 43 34  1  0
 28 22  2  0
M  CHG  3  16  -1  18  -1  33  -1
M  END
>  <UniqueID>  (39) 
37

>  <SMILES>  (39) 
O=S(=O)([N-]c1cc([O-])c(/C=N\c2ccc(O)c3ccccc23)cc1[O-])c1cccs1

>  <Energy>  (39) 
93.5548431492392

>  <Genealogy>  (39) 
O=S(=O)([N-]c1cc([O-])c(C=Nc2ccc(O)c3ccccc23)cc1[O-])c1cccs1 (protonated)
O=S(=O)([N-]c1cc([O-])c(/C=N\c2ccc(O)c3ccccc23)cc1[O-])c1cccs1 (cis-trans isomerization)
O=S(=O)([N-]c1cc([O-])c(/C=N\c2ccc(O)c3ccccc23)cc1[O-])c1cccs1 (3D coordinates assigned)
O=S(=O)([N-]c1cc([O-])c(/C=N\c2ccc(O)c3ccccc23)cc1[O-])c1cccs1 (optimized conformer: 93.5548431492392 kcal/mol)

>  <smiles>  (39) 
O=S(=O)(Nc1cc(O)c(C=Nc2ccc(O)c3ccccc23)cc1O)c1cccs1

>  <score_type>  (39) 
oracle

>  <origin>  (39) 
adg

>  <m_score__min__energy>  (39) 
-15.82

>  <m_primary>  (39) 
energy

$$$$
39:0
     RDKit          3D

 23 24  0  0  0  0  0  0  0  0999 V2000
   57.7700   22.5970   48.4460 H   0  0  0  0  0  0  0  0  0  0  0  0
   57.2400   22.6770   47.5860 O   0  0  0  0  0  0  0  0  0  0  0  0
   57.2690   23.8390   46.8180 C   0  0  0  0  0  0  0  0  0  0  0  0
   58.4060   24.1360   46.0580 C   0  0  0  0  0  0  0  0  0  0  0  0
   59.2671   23.4516   46.0683 H   0  0  0  0  0  0  0  0  0  0  0  0
   58.4500   25.3000   45.2860 C   0  0  0  0  0  0  0  0  0  0  0  0
   59.3396   25.5195   44.6774 H   0  0  0  0  0  0  0  0  0  0  0  0
   57.3670   26.1890   45.2830 C   0  0  0  0  0  0  0  0  0  0  0  0
   57.4250   27.3580   44.4550 N   0  0  0  0  0  0  0  0  0  0  0  0
   58.0310   28.4700   44.7550 C   0  0  0  0  0  0  0  0  0  0  0  0
   57.4620   29.7610   44.9530 C   0  0  0  0  0  0  0  0  0  0  0  0
   56.2420   30.0660   44.8820 O   0  0  0  0  0  0  0  0  0  0  0  0
   58.5460   30.6790   45.3400 C   0  0  0  0  0  0  0  0  0  0  0  0
   58.6313   31.4896   44.6014 H   0  0  0  0  0  0  0  0  0  0  0  0
   58.3380   31.1261   46.3233 H   0  0  0  0  0  0  0  0  0  0  0  0
   59.7550   29.9320   45.3800 O   0  0  0  0  0  0  0  0  0  0  0  0
   59.4670   28.5740   45.0760 C   0  0  0  0  0  0  0  0  0  0  0  0
   60.0664   28.2502   44.2123 H   0  0  0  0  0  0  0  0  0  0  0  0
   59.7128   27.9313   45.9342 H   0  0  0  0  0  0  0  0  0  0  0  0
   56.2100   25.8730   46.0190 C   0  0  0  0  0  0  0  0  0  0  0  0
   55.0950   26.7030   45.9740 O   0  0  0  0  0  0  0  0  0  0  0  0
   56.1690   24.7080   46.7950 C   0  0  0  0  0  0  0  0  0  0  0  0
   55.2722   24.4743   47.3875 H   0  0  0  0  0  0  0  0  0  0  0  0
  1  2  1  0
  2  3  1  0
  3  4  2  0
  4  5  1  0
  4  6  1  0
  6  7  1  0
  6  8  2  0
  8  9  1  0
  9 10  2  0
 10 11  1  0
 11 12  2  0
 11 13  1  0
 13 14  1  0
 13 15  1  0
 13 16  1  0
 16 17  1  0
 17 18  1  0
 17 19  1  0
  8 20  1  0
 20 21  1  0
 20 22  2  0
 22 23  1  0
 22  3  1  0
 17 10  1  0
M  CHG  1  21  -1
M  END
>  <UniqueID>  (40) 
38

>  <SMILES>  (40) 
O=C1COC/C1=N/c1ccc(O)cc1[O-]

>  <Energy>  (40) 
42.09026634232049

>  <Genealogy>  (40) 
O=C1COCC1=Nc1ccc(O)cc1[O-] (protonated)
O=C1COC/C1=N/c1ccc(O)cc1[O-] (cis-trans isomerization)
O=C1COC/C1=N/c1ccc(O)cc1[O-] (3D coordinates assigned)
O=C1COC/C1=N/c1ccc(O)cc1[O-] (nonaromatic ring conformer: 42.09026634232049 kcal/mol)

>  <smiles>  (40) 
O=C1COCC1=Nc1ccc(O)cc1O

>  <score_type>  (40) 
oracle

>  <origin>  (40) 
adg

>  <m_score__min__energy>  (40) 
-9.6500000000000004

>  <m_primary>  (40) 
energy

$$$$
40:0
     RDKit          3D

 49 52  0  0  0  0  0  0  0  0999 V2000
   56.7548   32.6061   45.8588 H   0  0  0  0  0  0  0  0  0  0  0  0
   57.6430   33.2200   46.0690 C   0  0  0  0  0  0  0  0  0  0  0  0
   58.0600   34.1820   45.1450 C   0  0  0  0  0  0  0  0  0  0  0  0
   57.5033   34.3214   44.2066 H   0  0  0  0  0  0  0  0  0  0  0  0
   59.1850   34.9670   45.4140 C   0  0  0  0  0  0  0  0  0  0  0  0
   59.5870   35.9040   44.5200 F   0  0  0  0  0  0  0  0  0  0  0  0
   59.8970   34.7860   46.6050 C   0  0  0  0  0  0  0  0  0  0  0  0
   60.7780   35.4098   46.8165 H   0  0  0  0  0  0  0  0  0  0  0  0
   59.4920   33.8120   47.5310 C   0  0  0  0  0  0  0  0  0  0  0  0
   60.2470   33.6220   48.8200 C   0  0  0  0  0  0  0  0  0  0  0  0
   61.0106   34.4087   48.9089 H   0  0  0  0  0  0  0  0  0  0  0  0
   60.7175   32.6278   48.8072 H   0  0  0  0  0  0  0  0  0  0  0  0
   59.3680   33.6950   49.9440 O   0  0  0  0  0  0  0  0  0  0  0  0
   58.8290   32.5930   50.6290 C   0  0  0  0  0  0  0  0  0  0  0  0
   58.7040   31.3230   50.0320 C   0  0  0  0  0  0  0  0  0  0  0  0
   59.0460   31.1688   48.9980 H   0  0  0  0  0  0  0  0  0  0  0  0
   58.1480   30.2580   50.7460 C   0  0  0  0  0  0  0  0  0  0  0  0
   58.0667   29.2667   50.2762 H   0  0  0  0  0  0  0  0  0  0  0  0
   57.6930   30.4480   52.0600 C   0  0  0  0  0  0  0  0  0  0  0  0
   57.1720   29.3530   52.8280 N   0  0  0  0  0  0  0  0  0  0  0  0
   55.9200   29.0340   52.9940 C   0  0  0  0  0  0  0  0  0  0  0  0
   54.9680   29.9350   52.6330 N   0  0  0  0  0  0  0  0  0  0  0  0
   53.6390   29.6770   52.7650 C   0  0  0  0  0  0  0  0  0  0  0  0
   52.6750   30.6790   52.3710 N   0  0  0  0  0  0  0  0  0  0  0  0
   51.7890   31.2640   53.3860 C   0  0  0  0  0  0  0  0  0  0  0  0
   51.5537   30.5027   54.1444 H   0  0  0  0  0  0  0  0  0  0  0  0
   52.2981   32.1189   53.8551 H   0  0  0  0  0  0  0  0  0  0  0  0
   50.4890   31.7520   52.7400 C   0  0  0  0  0  0  0  0  0  0  0  0
   49.9084   30.8831   52.3967 H   0  0  0  0  0  0  0  0  0  0  0  0
   49.9172   32.3236   53.4859 H   0  0  0  0  0  0  0  0  0  0  0  0
   50.7620   32.5920   51.6370 O   0  0  0  0  0  0  0  0  0  0  0  0
   51.3930   31.8440   50.6180 C   0  0  0  0  0  0  0  0  0  0  0  0
   50.7668   30.9744   50.3698 H   0  0  0  0  0  0  0  0  0  0  0  0
   51.5215   32.4904   49.7373 H   0  0  0  0  0  0  0  0  0  0  0  0
   52.7730   31.3550   51.0700 C   0  0  0  0  0  0  0  0  0  0  0  0
   53.1703   30.6506   50.3243 H   0  0  0  0  0  0  0  0  0  0  0  0
   53.4447   32.2207   51.1669 H   0  0  0  0  0  0  0  0  0  0  0  0
   53.2410   28.4330   53.2770 C   0  0  0  0  0  0  0  0  0  0  0  0
   52.1744   28.1927   53.3977 H   0  0  0  0  0  0  0  0  0  0  0  0
   54.2210   27.5070   53.6300 C   0  0  0  0  0  0  0  0  0  0  0  0
   53.8840   26.3780   54.0780 O   0  0  0  0  0  0  0  0  0  0  0  0
   55.5380   27.8140   53.4830 N   0  0  0  0  0  0  0  0  0  0  0  0
   56.2410   27.0780   53.7150 H   0  0  0  0  0  0  0  0  0  0  0  0
   57.8560   31.6960   52.6700 C   0  0  0  0  0  0  0  0  0  0  0  0
   57.5484   31.8372   53.7166 H   0  0  0  0  0  0  0  0  0  0  0  0
   58.4080   32.7660   51.9570 C   0  0  0  0  0  0  0  0  0  0  0  0
   58.5690   34.3280   52.7450 Cl  0  0  0  0  0  0  0  0  0  0  0  0
   58.3520   33.0360   47.2600 C   0  0  0  0  0  0  0  0  0  0  0  0
   58.0166   32.2817   47.9870 H   0  0  0  0  0  0  0  0  0  0  0  0
  1  2  1  0
  2  3  2  0
  3  4  1  0
  3  5  1  0
  5  6  1  0
  5  7  2  0
  7  8  1  0
  7  9  1  0
  9 10  1  0
 10 11  1  0
 10 12  1  0
 10 13  1  0
 13 14  1  0
 14 15  2  0
 15 16  1  0
 15 17  1  0
 17 18  1  0
 17 19  2  0
 19 20  1  0
 20 21  2  0
 21 22  1  0
 22 23  1  0
 23 24  1  0
 24 25  1  0
 25 26  1  0
 25 27  1  0
 25 28  1  0
 28 29  1  0
 28 30  1  0
 28 31  1  0
 31 32  1  0
 32 33  1  0
 32 34  1  0
 32 35  1  0
 35 36  1  0
 35 37  1  0
 23 38  2  0
 38 39  1  0
 38 40  1  0
 40 41  2  0
 40 42  1  0
 42 43  1  0
 19 44  1  0
 44 45  1  0
 44 46  2  0
 46 47  1  0
  9 48  2  0
 48 49  1  0
 48  2  1  0
 46 14  1  0
 42 21  1  0
 35 24  1  0
M  CHG  1  22  -1
M  END
>  <UniqueID>  (41) 
39

>  <SMILES>  (41) 
O=c1cc(N2CCOCC2)[n-]/c(=N/c2ccc(OCc3cccc(F)c3)c(Cl)c2)[nH]1

>  <Energy>  (41) 
66.42419688179716

>  <Genealogy>  (41) 
O=c1cc(N2CCOCC2)[n-]c(=Nc2ccc(OCc3cccc(F)c3)c(Cl)c2)[nH]1 (protonated)
O=c1cc(N2CCOCC2)[n-]/c(=N/c2ccc(OCc3cccc(F)c3)c(Cl)c2)[nH]1 (cis-trans isomerization)
O=c1cc(N2CCOCC2)[n-]/c(=N/c2ccc(OCc3cccc(F)c3)c(Cl)c2)[nH]1 (3D coordinates assigned)
O=c1cc(N2CCOCC2)[n-]/c(=N/c2ccc(OCc3cccc(F)c3)c(Cl)c2)[nH]1 (nonaromatic ring conformer: 66.42419688179716 kcal/mol)

>  <smiles>  (41) 
O=c1cc(N2CCOCC2)[nH]c(=Nc2ccc(OCc3cccc(F)c3)c(Cl)c2)[nH]1

>  <score_type>  (41) 
oracle

>  <origin>  (41) 
adg

>  <m_score__min__energy>  (41) 
-9.9900000000000002

>  <m_primary>  (41) 
energy

$$$$
41:0
     RDKit          3D

 57 60  0  0  0  0  0  0  0  0999 V2000
   58.2699   32.2722   42.5097 H   0  0  0  0  0  0  0  0  0  0  0  0
   58.1380   32.4020   43.5940 C   0  0  0  0  0  0  0  0  0  0  0  0
   57.9600   31.2850   44.4210 C   0  0  0  0  0  0  0  0  0  0  0  0
   57.9250   29.9570   43.8640 N   0  0  0  0  0  0  0  0  0  0  0  0
   56.9710   29.5470   44.0080 H   0  0  0  0  0  0  0  0  0  0  0  0
   58.0710   30.0260   42.8290 H   0  0  0  0  0  0  0  0  0  0  0  0
   58.9850   29.1000   44.4440 C   0  0  0  0  0  0  0  0  0  0  0  0
   59.6958   29.7361   44.9919 H   0  0  0  0  0  0  0  0  0  0  0  0
   59.4812   28.5681   43.6189 H   0  0  0  0  0  0  0  0  0  0  0  0
   58.4230   28.0690   45.3920 C   0  0  0  0  0  0  0  0  0  0  0  0
   59.2550   27.4240   46.3240 C   0  0  0  0  0  0  0  0  0  0  0  0
   60.3202   27.6917   46.3852 H   0  0  0  0  0  0  0  0  0  0  0  0
   58.7340   26.4450   47.1720 C   0  0  0  0  0  0  0  0  0  0  0  0
   59.3899   25.9439   47.8991 H   0  0  0  0  0  0  0  0  0  0  0  0
   57.3830   26.1000   47.1000 C   0  0  0  0  0  0  0  0  0  0  0  0
   56.9814   25.3202   47.7639 H   0  0  0  0  0  0  0  0  0  0  0  0
   56.5380   26.7400   46.1890 C   0  0  0  0  0  0  0  0  0  0  0  0
   55.1730   26.3090   46.0990 N   0  0  0  0  0  0  0  0  0  0  0  0
   54.6970   25.0580   45.5800 C   0  0  0  0  0  0  0  0  0  0  0  0
   53.4610   24.8170   45.6320 O   0  0  0  0  0  0  0  0  0  0  0  0
   55.6000   24.0650   44.9510 C   0  0  0  0  0  0  0  0  0  0  0  0
   56.5650   23.4070   45.7290 C   0  0  0  0  0  0  0  0  0  0  0  0
   56.6412   23.6266   46.8042 H   0  0  0  0  0  0  0  0  0  0  0  0
   57.4300   22.4750   45.1490 C   0  0  0  0  0  0  0  0  0  0  0  0
   58.1909   21.9735   45.7651 H   0  0  0  0  0  0  0  0  0  0  0  0
   57.3290   22.1800   43.7880 C   0  0  0  0  0  0  0  0  0  0  0  0
   58.1630   21.2630   43.2320 F   0  0  0  0  0  0  0  0  0  0  0  0
   56.3630   22.8200   43.0050 C   0  0  0  0  0  0  0  0  0  0  0  0
   56.2826   22.5868   41.9330 H   0  0  0  0  0  0  0  0  0  0  0  0
   55.4980   23.7570   43.5830 C   0  0  0  0  0  0  0  0  0  0  0  0
   54.7360   24.2539   42.9646 H   0  0  0  0  0  0  0  0  0  0  0  0
   57.0670   27.7140   45.3240 C   0  0  0  0  0  0  0  0  0  0  0  0
   56.4121   28.2022   44.5873 H   0  0  0  0  0  0  0  0  0  0  0  0
   57.8370   31.4620   45.7660 N   0  0  0  0  0  0  0  0  0  0  0  0
   57.8590   32.6940   46.3490 C   0  0  0  0  0  0  0  0  0  0  0  0
   57.7550   32.7740   47.6470 N   0  0  0  0  0  0  0  0  0  0  0  0
   58.8650   32.9410   48.5890 C   0  0  0  0  0  0  0  0  0  0  0  0
   59.3338   33.9226   48.4253 H   0  0  0  0  0  0  0  0  0  0  0  0
   58.4736   32.8733   49.6148 H   0  0  0  0  0  0  0  0  0  0  0  0
   59.9120   31.8430   48.3860 C   0  0  0  0  0  0  0  0  0  0  0  0
   60.0782   31.3294   49.3444 H   0  0  0  0  0  0  0  0  0  0  0  0
   59.5317   31.1483   47.6226 H   0  0  0  0  0  0  0  0  0  0  0  0
   61.2260   32.3980   47.8970 C   0  0  0  0  0  0  0  0  0  0  0  0
   62.4350   31.9780   48.4790 C   0  0  0  0  0  0  0  0  0  0  0  0
   62.4232   31.2432   49.2975 H   0  0  0  0  0  0  0  0  0  0  0  0
   63.6520   32.4910   48.0210 C   0  0  0  0  0  0  0  0  0  0  0  0
   64.5944   32.1698   48.4887 H   0  0  0  0  0  0  0  0  0  0  0  0
   63.6730   33.4120   46.9690 C   0  0  0  0  0  0  0  0  0  0  0  0
   64.6326   33.8028   46.5996 H   0  0  0  0  0  0  0  0  0  0  0  0
   62.4760   33.8360   46.3870 C   0  0  0  0  0  0  0  0  0  0  0  0
   62.4945   34.5565   45.5560 H   0  0  0  0  0  0  0  0  0  0  0  0
   61.2540   33.3460   46.8590 C   0  0  0  0  0  0  0  0  0  0  0  0
   60.3122   33.7033   46.4169 H   0  0  0  0  0  0  0  0  0  0  0  0
   58.0030   33.8360   45.5340 C   0  0  0  0  0  0  0  0  0  0  0  0
   58.0019   34.8408   45.9816 H   0  0  0  0  0  0  0  0  0  0  0  0
   58.1470   33.6800   44.1540 C   0  0  0  0  0  0  0  0  0  0  0  0
   58.2673   34.5631   43.5093 H   0  0  0  0  0  0  0  0  0  0  0  0
  1  2  1  0
  2  3  2  0
  3  4  1  0
  4  5  1  0
  4  6  1  0
  4  7  1  0
  7  8  1  0
  7  9  1  0
  7 10  1  0
 10 11  2  0
 11 12  1  0
 11 13  1  0
 13 14  1  0
 13 15  2  0
 15 16  1  0
 15 17  1  0
 17 18  1  0
 18 19  1  0
 19 20  2  0
 19 21  1  0
 21 22  2  0
 22 23  1  0
 22 24  1  0
 24 25  1  0
 24 26  2  0
 26 27  1  0
 26 28  1  0
 28 29  1  0
 28 30  2  0
 30 31  1  0
 17 32  2  0
 32 33  1  0
  3 34  1  0
 34 35  1  0
 35 36  2  0
 36 37  1  0
 37 38  1  0
 37 39  1  0
 37 40  1  0
 40 41  1  0
 40 42  1  0
 40 43  1  0
 43 44  2  0
 44 45  1  0
 44 46  1  0
 46 47  1  0
 46 48  2  0
 48 49  1  0
 48 50  1  0
 50 51  1  0
 50 52  2  0
 52 53  1  0
 35 54  1  0
 54 55  1  0
 54 56  2  0
 56 57  1  0
 56  2  1  0
 32 10  1  0
 52 43  1  0
 30 21  1  0
M  CHG  3   4   1  18  -1  34  -1
M  END
>  <UniqueID>  (42) 
40

>  <SMILES>  (42) 
O=C([N-]c1cccc(C[NH2+]c2ccc/c(=N\CCc3ccccc3)[n-]2)c1)c1ccc(F)cc1

>  <Energy>  (42) 
68.49931687946633

>  <Genealogy>  (42) 
O=C([N-]c1cccc(C[NH2+]c2cccc(=NCCc3ccccc3)[n-]2)c1)c1ccc(F)cc1 (protonated)
O=C([N-]c1cccc(C[NH2+]c2ccc/c(=N\CCc3ccccc3)[n-]2)c1)c1ccc(F)cc1 (cis-trans isomerization)
O=C([N-]c1cccc(C[NH2+]c2ccc/c(=N\CCc3ccccc3)[n-]2)c1)c1ccc(F)cc1 (3D coordinates assigned)
O=C([N-]c1cccc(C[NH2+]c2ccc/c(=N\CCc3ccccc3)[n-]2)c1)c1ccc(F)cc1 (optimized conformer: 68.49931687946633 kcal/mol)

>  <smiles>  (42) 
O=C(Nc1cccc(CNc2cccc(=NCCc3ccccc3)[nH]2)c1)c1ccc(F)cc1

>  <score_type>  (42) 
oracle

>  <origin>  (42) 
adg

>  <m_score__min__energy>  (42) 
-11.81

>  <m_primary>  (42) 
energy

$$$$
42:0
     RDKit          3D

 23 24  0  0  0  0  0  0  0  0999 V2000
   59.6973   29.2647   45.2773 H   0  0  0  0  0  0  0  0  0  0  0  0
   58.7810   28.6800   45.4460 C   0  0  0  0  0  0  0  0  0  0  0  0
   58.8550   27.4290   46.0630 C   0  0  0  0  0  0  0  0  0  0  0  0
   59.8281   27.0340   46.3900 H   0  0  0  0  0  0  0  0  0  0  0  0
   57.6930   26.6790   46.2650 C   0  0  0  0  0  0  0  0  0  0  0  0
   57.7536   25.7013   46.7653 H   0  0  0  0  0  0  0  0  0  0  0  0
   56.4510   27.1650   45.8340 C   0  0  0  0  0  0  0  0  0  0  0  0
   55.2770   26.3730   46.0770 N   0  0  0  0  0  0  0  0  0  0  0  0
   55.0550   25.1830   45.6030 C   0  0  0  0  0  0  0  0  0  0  0  0
   56.0610   24.5170   44.9830 N   0  0  0  0  0  0  0  0  0  0  0  0
   55.8470   23.2840   44.4550 C   0  0  0  0  0  0  0  0  0  0  0  0
   56.9700   22.5400   43.8120 C   0  0  0  0  0  0  0  0  0  0  0  0
   57.6183   22.1105   44.5900 H   0  0  0  0  0  0  0  0  0  0  0  0
   56.5636   21.7319   43.1861 H   0  0  0  0  0  0  0  0  0  0  0  0
   57.5557   23.2293   43.1861 H   0  0  0  0  0  0  0  0  0  0  0  0
   54.6230   22.7070   44.5620 N   0  0  0  0  0  0  0  0  0  0  0  0
   53.6100   23.3720   45.1740 C   0  0  0  0  0  0  0  0  0  0  0  0
   52.4730   22.8410   45.2640 O   0  0  0  0  0  0  0  0  0  0  0  0
   53.8240   24.6090   45.6880 N   0  0  0  0  0  0  0  0  0  0  0  0
   56.3760   28.4460   45.2480 C   0  0  0  0  0  0  0  0  0  0  0  0
   55.1490   28.9960   44.8930 O   0  0  0  0  0  0  0  0  0  0  0  0
   57.5440   29.1890   45.0430 C   0  0  0  0  0  0  0  0  0  0  0  0
   57.4879   30.1771   44.5629 H   0  0  0  0  0  0  0  0  0  0  0  0
  1  2  1  0
  2  3  2  0
  3  4  1  0
  3  5  1  0
  5  6  1  0
  5  7  2  0
  7  8  1  0
  8  9  2  0
  9 10  1  0
 10 11  1  0
 11 12  1  0
 12 13  1  0
 12 14  1  0
 12 15  1  0
 11 16  2  0
 16 17  1  0
 17 18  2  0
 17 19  1  0
  7 20  1  0
 20 21  1  0
 20 22  2  0
 22 23  1  0
 22  2  1  0
 19  9  1  0
M  CHG  3  10  -1  19  -1  21  -1
M  END
>  <UniqueID>  (43) 
41

>  <SMILES>  (43) 
Cc1nc(=O)[n-]/c(=N\c2ccccc2[O-])[n-]1

>  <Energy>  (43) 
31.15663210340962

>  <Genealogy>  (43) 
Cc1nc(=O)[n-]c(=Nc2ccccc2[O-])[n-]1 (protonated)
Cc1nc(=O)[n-]/c(=N\c2ccccc2[O-])[n-]1 (cis-trans isomerization)
Cc1nc(=O)[n-]/c(=N\c2ccccc2[O-])[n-]1 (3D coordinates assigned)
Cc1nc(=O)[n-]/c(=N\c2ccccc2[O-])[n-]1 (optimized conformer: 31.15663210340962 kcal/mol)

>  <smiles>  (43) 
Cc1nc(=O)[nH]c(=Nc2ccccc2O)[nH]1

>  <score_type>  (43) 
oracle

>  <origin>  (43) 
adg

>  <m_score__min__energy>  (43) 
-13.279999999999999

>  <m_primary>  (43) 
energy

$$$$
43:0
     RDKit          3D

 51 53  0  0  0  0  0  0  0  0999 V2000
   58.2660   28.1220   44.5910 O   0  0  0  0  0  0  0  0  0  0  0  0
   57.1730   28.3600   45.1700 C   0  0  0  0  0  0  0  0  0  0  0  0
   56.5990   27.3940   46.0630 N   0  0  0  0  0  0  0  0  0  0  0  0
   56.1120   26.2230   45.7550 C   0  0  0  0  0  0  0  0  0  0  0  0
   56.9130   25.1660   45.2740 C   0  0  0  0  0  0  0  0  0  0  0  0
   56.3170   23.9460   44.9450 C   0  0  0  0  0  0  0  0  0  0  0  0
   54.9440   23.7740   45.1110 C   0  0  0  0  0  0  0  0  0  0  0  0
   54.1850   24.8250   45.6250 C   0  0  0  0  0  0  0  0  0  0  0  0
   54.7800   26.0090   45.9350 N   0  0  0  0  0  0  0  0  0  0  0  0
   56.4310   29.5860   44.8450 C   0  0  0  0  0  0  0  0  0  0  0  0
   55.1690   29.5950   44.9030 O   0  0  0  0  0  0  0  0  0  0  0  0
   57.1250   30.7680   44.4340 N   0  0  0  0  0  0  0  0  0  0  0  0
   56.7330   32.1040   44.8740 C   0  0  0  0  0  0  0  0  0  0  0  0
   57.7910   32.7150   45.7530 C   0  0  0  0  0  0  0  0  0  0  0  0
   59.1230   32.7800   45.3110 C   0  0  0  0  0  0  0  0  0  0  0  0
   60.1150   33.3120   46.1420 C   0  0  0  0  0  0  0  0  0  0  0  0
   59.7870   33.7800   47.4190 C   0  0  0  0  0  0  0  0  0  0  0  0
   61.0560   34.4850   48.4790 S   0  0  0  0  0  0  0  0  0  0  0  0
   61.2860   32.9820   49.4940 C   0  0  0  0  0  0  0  0  0  0  0  0
   61.9510   31.8620   48.6680 C   0  0  0  0  0  0  0  0  0  0  0  0
   61.0950   30.6690   48.4380 N   0  0  0  0  0  0  0  0  0  0  0  0
   59.7230   30.8230   48.9620 C   0  0  0  0  0  0  0  0  0  0  0  0
   58.9350   29.5010   48.8030 C   0  0  0  0  0  0  0  0  0  0  0  0
   59.5300   28.6060   47.8730 O   0  0  0  0  0  0  0  0  0  0  0  0
   59.9150   29.3020   46.7050 C   0  0  0  0  0  0  0  0  0  0  0  0
   61.0850   30.2580   47.0130 C   0  0  0  0  0  0  0  0  0  0  0  0
   58.4600   33.7230   47.8610 C   0  0  0  0  0  0  0  0  0  0  0  0
   57.4680   33.1850   47.0370 C   0  0  0  0  0  0  0  0  0  0  0  0
   57.9985   25.3014   45.1589 H   0  0  0  0  0  0  0  0  0  0  0  0
   56.9314   23.1212   44.5549 H   0  0  0  0  0  0  0  0  0  0  0  0
   54.4651   22.8215   44.8401 H   0  0  0  0  0  0  0  0  0  0  0  0
   53.1036   24.6967   45.7801 H   0  0  0  0  0  0  0  0  0  0  0  0
   56.5847   32.7441   43.9918 H   0  0  0  0  0  0  0  0  0  0  0  0
   55.8010   32.0228   45.4526 H   0  0  0  0  0  0  0  0  0  0  0  0
   59.3868   32.4116   44.3087 H   0  0  0  0  0  0  0  0  0  0  0  0
   61.1560   33.3624   45.7902 H   0  0  0  0  0  0  0  0  0  0  0  0
   61.9254   33.2229   50.3561 H   0  0  0  0  0  0  0  0  0  0  0  0
   60.3006   32.6319   49.8353 H   0  0  0  0  0  0  0  0  0  0  0  0
   62.2297   32.2778   47.6885 H   0  0  0  0  0  0  0  0  0  0  0  0
   62.8160   31.5160   49.2529 H   0  0  0  0  0  0  0  0  0  0  0  0
   61.5420   29.8870   48.9770 H   0  0  0  0  0  0  0  0  0  0  0  0
   59.7698   31.0915   50.0277 H   0  0  0  0  0  0  0  0  0  0  0  0
   59.2108   31.6148   48.3956 H   0  0  0  0  0  0  0  0  0  0  0  0
   58.8832   29.0042   49.7831 H   0  0  0  0  0  0  0  0  0  0  0  0
   57.9370   29.7581   48.4185 H   0  0  0  0  0  0  0  0  0  0  0  0
   60.2297   28.5785   45.9385 H   0  0  0  0  0  0  0  0  0  0  0  0
   59.0595   29.8893   46.3401 H   0  0  0  0  0  0  0  0  0  0  0  0
   62.0322   29.7487   46.7819 H   0  0  0  0  0  0  0  0  0  0  0  0
   60.9629   31.1604   46.3960 H   0  0  0  0  0  0  0  0  0  0  0  0
   58.1975   34.1027   48.8595 H   0  0  0  0  0  0  0  0  0  0  0  0
   56.4295   33.1292   47.3953 H   0  0  0  0  0  0  0  0  0  0  0  0
  1  2  2  0
  2  3  1  0
  3  4  2  3
  4  5  1  0
  5  6  2  0
  6  7  1  0
  7  8  2  0
  8  9  1  0
  2 10  1  0
 10 11  2  0
 10 12  1  0
 12 13  1  0
 13 14  1  0
 14 15  2  0
 15 16  1  0
 16 17  2  0
 17 18  1  0
 18 19  1  0
 19 20  1  0
 20 21  1  0
 21 22  1  0
 22 23  1  0
 23 24  1  0
 24 25  1  0
 25 26  1  0
 17 27  1  0
 27 28  2  0
  9  4  1  0
 28 14  1  0
 26 21  1  0
  5 29  1  0
  6 30  1  0
  7 31  1  0
  8 32  1  0
 13 33  1  0
 13 34  1  0
 15 35  1  0
 16 36  1  0
 19 37  1  0
 19 38  1  0
 20 39  1  0
 20 40  1  0
 21 41  1  0
 22 42  1  0
 22 43  1  0
 23 44  1  0
 23 45  1  0
 25 46  1  0
 25 47  1  0
 26 48  1  0
 26 49  1  0
 27 50  1  0
 28 51  1  0
M  CHG  3   9  -1  12  -1  21   1
M  END
>  <UniqueID>  (44) 
42

>  <SMILES>  (44) 
O=C(N=c1cccc[n-]1)C(=O)[N-]Cc1ccc(SCC[NH+]2CCOCC2)cc1

>  <Energy>  (44) 
68.35341053829296

>  <Genealogy>  (44) 
O=C(N=c1cccc[n-]1)C(=O)[N-]Cc1ccc(SCC[NH+]2CCOCC2)cc1 (protonated)
O=C(N=c1cccc[n-]1)C(=O)[N-]Cc1ccc(SCC[NH+]2CCOCC2)cc1 (3D coordinates assigned)
O=C(N=c1cccc[n-]1)C(=O)[N-]Cc1ccc(SCC[NH+]2CCOCC2)cc1 (nonaromatic ring conformer: 68.35341053829296 kcal/mol)

>  <smiles>  (44) 
O=C(N=c1cccc[nH]1)C(=O)NCc1ccc(SCCN2CCOCC2)cc1

>  <score_type>  (44) 
oracle

>  <origin>  (44) 
adg

>  <m_score__min__energy>  (44) 
-10.31

>  <m_primary>  (44) 
energy

$$$$
44:0
     RDKit          3D

 48 51  0  0  0  0  0  0  0  0999 V2000
   57.7400   33.0740   52.0830 C   0  0  0  0  0  0  0  0  0  0  0  0
   58.9440   32.7810   51.2340 C   0  0  0  0  0  0  0  0  0  0  0  0
   59.9520   33.7300   51.0360 C   0  0  0  0  0  0  0  0  0  0  0  0
   61.1520   33.0550   50.0600 S   0  0  0  0  0  0  0  0  0  0  0  0
   60.3470   31.5930   49.9300 C   0  0  0  0  0  0  0  0  0  0  0  0
   60.7900   30.5150   49.2400 N   0  0  0  0  0  0  0  0  0  0  0  0
   60.0400   29.3800   49.2060 C   0  0  0  0  0  0  0  0  0  0  0  0
   60.5430   28.1770   48.4730 C   0  0  0  0  0  0  0  0  0  0  0  0
   59.5340   27.1730   48.4720 O   0  0  0  0  0  0  0  0  0  0  0  0
   58.7480   26.8340   47.3590 C   0  0  0  0  0  0  0  0  0  0  0  0
   58.9870   25.6080   46.7280 C   0  0  0  0  0  0  0  0  0  0  0  0
   58.2120   25.2100   45.6360 C   0  0  0  0  0  0  0  0  0  0  0  0
   57.1960   26.0410   45.1580 C   0  0  0  0  0  0  0  0  0  0  0  0
   56.9630   27.2860   45.7540 C   0  0  0  0  0  0  0  0  0  0  0  0
   55.9000   28.1050   45.2480 N   0  0  0  0  0  0  0  0  0  0  0  0
   56.0570   29.3160   44.4990 C   0  0  0  0  0  0  0  0  0  0  0  0
   55.1340   30.1750   44.4620 O   0  0  0  0  0  0  0  0  0  0  0  0
   57.3320   29.5630   43.7560 C   0  0  0  0  0  0  0  0  0  0  0  0
   58.4080   30.0220   44.7100 C   0  0  0  0  0  0  0  0  0  0  0  0
   59.6180   29.3040   44.7550 C   0  0  0  0  0  0  0  0  0  0  0  0
   60.6580   29.7140   45.5900 C   0  0  0  0  0  0  0  0  0  0  0  0
   60.5110   30.8540   46.3810 C   0  0  0  0  0  0  0  0  0  0  0  0
   59.3250   31.5890   46.3360 C   0  0  0  0  0  0  0  0  0  0  0  0
   58.2710   31.1910   45.5030 C   0  0  0  0  0  0  0  0  0  0  0  0
   57.1180   31.9800   45.4890 O   0  0  0  0  0  0  0  0  0  0  0  0
   57.7300   27.6740   46.8690 C   0  0  0  0  0  0  0  0  0  0  0  0
   58.8200   29.3280   49.9020 C   0  0  0  0  0  0  0  0  0  0  0  0
   58.3930   30.4590   50.6090 C   0  0  0  0  0  0  0  0  0  0  0  0
   57.3000   30.4210   51.2320 O   0  0  0  0  0  0  0  0  0  0  0  0
   59.1740   31.5820   50.6070 N   0  0  0  0  0  0  0  0  0  0  0  0
   58.0157   33.0069   53.1458 H   0  0  0  0  0  0  0  0  0  0  0  0
   57.3737   34.0875   51.8625 H   0  0  0  0  0  0  0  0  0  0  0  0
   56.9489   32.3422   51.8625 H   0  0  0  0  0  0  0  0  0  0  0  0
   59.9612   34.7495   51.4488 H   0  0  0  0  0  0  0  0  0  0  0  0
   60.7878   28.4534   47.4368 H   0  0  0  0  0  0  0  0  0  0  0  0
   61.4460   27.7926   48.9699 H   0  0  0  0  0  0  0  0  0  0  0  0
   59.7910   24.9529   47.0946 H   0  0  0  0  0  0  0  0  0  0  0  0
   58.4021   24.2408   45.1518 H   0  0  0  0  0  0  0  0  0  0  0  0
   56.5763   25.7156   44.3095 H   0  0  0  0  0  0  0  0  0  0  0  0
   57.6534   28.6323   43.2656 H   0  0  0  0  0  0  0  0  0  0  0  0
   57.1629   30.3449   43.0010 H   0  0  0  0  0  0  0  0  0  0  0  0
   59.7449   28.4108   44.1256 H   0  0  0  0  0  0  0  0  0  0  0  0
   61.5945   29.1380   45.6247 H   0  0  0  0  0  0  0  0  0  0  0  0
   61.3308   31.1740   47.0410 H   0  0  0  0  0  0  0  0  0  0  0  0
   59.2170   32.4885   46.9599 H   0  0  0  0  0  0  0  0  0  0  0  0
   56.2000   31.6280   45.2500 H   0  0  0  0  0  0  0  0  0  0  0  0
   57.5329   28.6385   47.3599 H   0  0  0  0  0  0  0  0  0  0  0  0
   58.2098   28.4128   49.8916 H   0  0  0  0  0  0  0  0  0  0  0  0
  1  2  1  0
  2  3  2  0
  3  4  1  0
  4  5  1  0
  5  6  2  0
  6  7  1  0
  7  8  1  0
  8  9  1  0
  9 10  1  0
 10 11  2  0
 11 12  1  0
 12 13  2  0
 13 14  1  0
 14 15  1  0
 15 16  1  0
 16 17  2  0
 16 18  1  0
 18 19  1  0
 19 20  2  0
 20 21  1  0
 21 22  2  0
 22 23  1  0
 23 24  2  0
 24 25  1  0
 14 26  2  0
  7 27  2  0
 27 28  1  0
 28 29  2  0
 28 30  1  0
 30  2  1  0
 30  5  1  0
 26 10  1  0
 24 19  1  0
  1 31  1  0
  1 32  1  0
  1 33  1  0
  3 34  1  0
  8 35  1  0
  8 36  1  0
 11 37  1  0
 12 38  1  0
 13 39  1  0
 18 40  1  0
 18 41  1  0
 20 42  1  0
 21 43  1  0
 22 44  1  0
 23 45  1  0
 25 46  1  0
 26 47  1  0
 27 48  1  0
M  CHG  1  15  -1
M  END
>  <UniqueID>  (45) 
43

>  <SMILES>  (45) 
Cc1csc2nc(COc3cccc([N-]C(=O)Cc4ccccc4O)c3)cc(=O)n12

>  <Energy>  (45) 
91.04868894995352

>  <Genealogy>  (45) 
Cc1csc2nc(COc3cccc([N-]C(=O)Cc4ccccc4O)c3)cc(=O)n12 (protonated)
Cc1csc2nc(COc3cccc([N-]C(=O)Cc4ccccc4O)c3)cc(=O)n12 (3D coordinates assigned)
Cc1csc2nc(COc3cccc([N-]C(=O)Cc4ccccc4O)c3)cc(=O)n12 (optimized conformer: 91.04868894995352 kcal/mol)

>  <smiles>  (45) 
Cc1csc2nc(COc3cccc(NC(=O)Cc4ccccc4O)c3)cc(=O)n12

>  <score_type>  (45) 
oracle

>  <origin>  (45) 
adg

>  <m_score__min__energy>  (45) 
-11.6

>  <m_primary>  (45) 
energy

$$$$
45:0
     RDKit          3D

 49 51  0  0  0  0  0  0  0  0999 V2000
   60.3556   34.2214   49.0496 H   0  0  0  0  0  0  0  0  0  0  0  0
   59.7790   34.1140   48.1190 C   0  0  0  0  0  0  0  0  0  0  0  0
   58.7780   33.1430   48.0250 C   0  0  0  0  0  0  0  0  0  0  0  0
   58.5742   32.4800   48.8788 H   0  0  0  0  0  0  0  0  0  0  0  0
   58.0350   33.0130   46.8470 C   0  0  0  0  0  0  0  0  0  0  0  0
   57.2376   32.2580   46.7829 H   0  0  0  0  0  0  0  0  0  0  0  0
   58.3030   33.8430   45.7450 C   0  0  0  0  0  0  0  0  0  0  0  0
   57.4840   33.7150   44.4870 C   0  0  0  0  0  0  0  0  0  0  0  0
   57.9216   34.3555   43.7071 H   0  0  0  0  0  0  0  0  0  0  0  0
   56.4524   34.0252   44.7095 H   0  0  0  0  0  0  0  0  0  0  0  0
   57.4590   32.2890   43.9960 C   0  0  0  0  0  0  0  0  0  0  0  0
   58.1480   31.9750   42.9930 O   0  0  0  0  0  0  0  0  0  0  0  0
   56.7390   31.2640   44.6960 N   0  0  0  0  0  0  0  0  0  0  0  0
   56.9770   29.9890   44.6250 C   0  0  0  0  0  0  0  0  0  0  0  0
   56.6640   29.0820   45.6140 C   0  0  0  0  0  0  0  0  0  0  0  0
   56.2107   29.2815   46.5962 H   0  0  0  0  0  0  0  0  0  0  0  0
   57.0520   27.8600   45.0860 C   0  0  0  0  0  0  0  0  0  0  0  0
   56.8210   26.5550   45.7380 C   0  0  0  0  0  0  0  0  0  0  0  0
   57.7900   25.7670   45.9160 O   0  0  0  0  0  0  0  0  0  0  0  0
   55.5150   26.1900   46.1910 N   0  0  0  0  0  0  0  0  0  0  0  0
   54.7260   25.1130   45.6090 C   0  0  0  0  0  0  0  0  0  0  0  0
   54.0932   25.5206   44.8069 H   0  0  0  0  0  0  0  0  0  0  0  0
   54.1005   24.6655   46.3954 H   0  0  0  0  0  0  0  0  0  0  0  0
   55.6270   24.0470   45.0370 C   0  0  0  0  0  0  0  0  0  0  0  0
   55.8080   23.9600   43.6460 C   0  0  0  0  0  0  0  0  0  0  0  0
   55.2869   24.6654   42.9821 H   0  0  0  0  0  0  0  0  0  0  0  0
   56.6450   22.9840   43.1010 C   0  0  0  0  0  0  0  0  0  0  0  0
   56.7881   22.9290   42.0117 H   0  0  0  0  0  0  0  0  0  0  0  0
   57.2990   22.0800   43.9350 C   0  0  0  0  0  0  0  0  0  0  0  0
   57.9528   21.3082   43.5028 H   0  0  0  0  0  0  0  0  0  0  0  0
   57.1260   22.1520   45.3180 C   0  0  0  0  0  0  0  0  0  0  0  0
   57.6450   21.4347   45.9707 H   0  0  0  0  0  0  0  0  0  0  0  0
   56.2920   23.1360   45.8850 C   0  0  0  0  0  0  0  0  0  0  0  0
   56.1140   23.2410   47.2740 O   0  0  0  0  0  0  0  0  0  0  0  0
   56.9820   23.9530   48.1490 C   0  0  0  0  0  0  0  0  0  0  0  0
   56.7127   23.7321   49.1924 H   0  0  0  0  0  0  0  0  0  0  0  0
   58.0217   23.6442   47.9654 H   0  0  0  0  0  0  0  0  0  0  0  0
   56.8825   25.0330   47.9654 H   0  0  0  0  0  0  0  0  0  0  0  0
   57.5990   28.0660   43.8610 N   0  0  0  0  0  0  0  0  0  0  0  0
   58.1400   27.0690   42.9390 C   0  0  0  0  0  0  0  0  0  0  0  0
   58.5877   26.2440   43.5125 H   0  0  0  0  0  0  0  0  0  0  0  0
   57.3303   26.6780   42.3053 H   0  0  0  0  0  0  0  0  0  0  0  0
   58.9091   27.5347   42.3053 H   0  0  0  0  0  0  0  0  0  0  0  0
   57.5530   29.3590   43.5820 N   0  0  0  0  0  0  0  0  0  0  0  0
   57.9390   29.7880   42.7130 H   0  0  0  0  0  0  0  0  0  0  0  0
   59.3150   34.8140   45.8470 C   0  0  0  0  0  0  0  0  0  0  0  0
   59.5318   35.4710   44.9918 H   0  0  0  0  0  0  0  0  0  0  0  0
   60.0470   34.9480   47.0310 C   0  0  0  0  0  0  0  0  0  0  0  0
   60.8353   35.7116   47.1057 H   0  0  0  0  0  0  0  0  0  0  0  0
  1  2  1  0
  2  3  2  0
  3  4  1  0
  3  5  1  0
  5  6  1  0
  5  7  2  0
  7  8  1  0
  8  9  1  0
  8 10  1  0
  8 11  1  0
 11 12  2  0
 11 13  1  0
 13 14  2  0
 14 15  1  0
 15 16  1  0
 15 17  2  0
 17 18  1  0
 18 19  2  0
 18 20  1  0
 20 21  1  0
 21 22  1  0
 21 23  1  0
 21 24  1  0
 24 25  2  0
 25 26  1  0
 25 27  1  0
 27 28  1  0
 27 29  2  0
 29 30  1  0
 29 31  1  0
 31 32  1  0
 31 33  2  0
 33 34  1  0
 34 35  1  0
 35 36  1  0
 35 37  1  0
 35 38  1  0
 17 39  1  0
 39 40  1  0
 40 41  1  0
 40 42  1  0
 40 43  1  0
 39 44  1  0
 44 45  1  0
  7 46  1  0
 46 47  1  0
 46 48  2  0
 48 49  1  0
 48  2  1  0
 44 14  1  0
 33 24  1  0
M  CHG  1  20  -1
M  END
>  <UniqueID>  (46) 
44

>  <SMILES>  (46) 
COc1ccccc1C[N-]C(=O)c1c/c(=N/C(=O)Cc2ccccc2)[nH]n1C

>  <Energy>  (46) 
86.1151170650241

>  <Genealogy>  (46) 
COc1ccccc1C[N-]C(=O)c1cc(=NC(=O)Cc2ccccc2)[nH]n1C (protonated)
COc1ccccc1C[N-]C(=O)c1c/c(=N/C(=O)Cc2ccccc2)[nH]n1C (cis-trans isomerization)
COc1ccccc1C[N-]C(=O)c1c/c(=N/C(=O)Cc2ccccc2)[nH]n1C (3D coordinates assigned)
COc1ccccc1C[N-]C(=O)c1c/c(=N/C(=O)Cc2ccccc2)[nH]n1C (optimized conformer: 86.1151170650241 kcal/mol)

>  <smiles>  (46) 
COc1ccccc1CNC(=O)c1cc(=NC(=O)Cc2ccccc2)[nH]n1C

>  <score_type>  (46) 
oracle

>  <origin>  (46) 
adg

>  <m_score__min__energy>  (46) 
-10.68

>  <m_primary>  (46) 
energy

$$$$
46:0
     RDKit          3D

 29 30  0  0  0  0  0  0  0  0999 V2000
   54.7810   27.4990   46.3200 H   0  0  0  0  0  0  0  0  0  0  0  0
   55.1640   26.6210   45.9940 O   0  0  0  0  0  0  0  0  0  0  0  0
   56.5360   26.3650   45.9770 C   0  0  0  0  0  0  0  0  0  0  0  0
   56.9780   25.0390   45.9340 C   0  0  0  0  0  0  0  0  0  0  0  0
   56.2470   24.2173   45.9112 H   0  0  0  0  0  0  0  0  0  0  0  0
   58.3440   24.7560   45.9200 C   0  0  0  0  0  0  0  0  0  0  0  0
   58.6961   23.7144   45.8857 H   0  0  0  0  0  0  0  0  0  0  0  0
   59.2580   25.8090   45.9500 C   0  0  0  0  0  0  0  0  0  0  0  0
   60.3379   25.6001   45.9397 H   0  0  0  0  0  0  0  0  0  0  0  0
   58.8150   27.0930   45.9920 N   0  0  0  0  0  0  0  0  0  0  0  0
   57.4870   27.4050   46.0070 C   0  0  0  0  0  0  0  0  0  0  0  0
   57.0880   28.6450   46.0420 N   0  0  0  0  0  0  0  0  0  0  0  0
   56.3310   29.3460   45.0400 C   0  0  0  0  0  0  0  0  0  0  0  0
   55.1540   28.9840   44.7620 O   0  0  0  0  0  0  0  0  0  0  0  0
   56.9360   30.4860   44.3010 C   0  0  0  0  0  0  0  0  0  0  0  0
   56.8070   30.5380   42.8990 C   0  0  0  0  0  0  0  0  0  0  0  0
   56.2539   29.7448   42.3748 H   0  0  0  0  0  0  0  0  0  0  0  0
   57.3720   31.5830   42.1670 C   0  0  0  0  0  0  0  0  0  0  0  0
   57.2653   31.6077   41.0725 H   0  0  0  0  0  0  0  0  0  0  0  0
   58.0710   32.5950   42.8210 C   0  0  0  0  0  0  0  0  0  0  0  0
   58.5196   33.4153   42.2415 H   0  0  0  0  0  0  0  0  0  0  0  0
   58.2030   32.5700   44.2090 C   0  0  0  0  0  0  0  0  0  0  0  0
   58.7552   33.3739   44.7178 H   0  0  0  0  0  0  0  0  0  0  0  0
   57.6360   31.5250   44.9670 C   0  0  0  0  0  0  0  0  0  0  0  0
   57.7380   31.5050   46.3680 O   0  0  0  0  0  0  0  0  0  0  0  0
   58.2590   32.5670   47.1600 C   0  0  0  0  0  0  0  0  0  0  0  0
   58.1391   32.3225   48.2258 H   0  0  0  0  0  0  0  0  0  0  0  0
   59.3266   32.7040   46.9331 H   0  0  0  0  0  0  0  0  0  0  0  0
   57.7139   33.4951   46.9331 H   0  0  0  0  0  0  0  0  0  0  0  0
  1  2  1  0
  2  3  1  0
  3  4  2  0
  4  5  1  0
  4  6  1  0
  6  7  1  0
  6  8  2  0
  8  9  1  0
  8 10  1  0
 10 11  1  0
 11 12  2  0
 12 13  1  0
 13 14  2  0
 13 15  1  0
 15 16  2  0
 16 17  1  0
 16 18  1  0
 18 19  1  0
 18 20  2  0
 20 21  1  0
 20 22  1  0
 22 23  1  0
 22 24  2  0
 24 25  1  0
 25 26  1  0
 26 27  1  0
 26 28  1  0
 26 29  1  0
 11  3  1  0
 24 15  1  0
M  CHG  1  10  -1
M  END
>  <UniqueID>  (47) 
45

>  <SMILES>  (47) 
COc1ccccc1C(=O)/N=c1\[n-]cccc1O

>  <Energy>  (47) 
35.775092562970684

>  <Genealogy>  (47) 
COc1ccccc1C(=O)N=c1[n-]cccc1O (protonated)
COc1ccccc1C(=O)/N=c1\[n-]cccc1O (cis-trans isomerization)
COc1ccccc1C(=O)/N=c1\[n-]cccc1O (3D coordinates assigned)
COc1ccccc1C(=O)/N=c1\[n-]cccc1O (optimized conformer: 35.775092562970684 kcal/mol)

>  <smiles>  (47) 
COc1ccccc1C(=O)N=c1[nH]cccc1O

>  <score_type>  (47) 
oracle

>  <origin>  (47) 
adg

>  <m_score__min__energy>  (47) 
-9

>  <m_primary>  (47) 
energy

$$$$
47:0
     RDKit          3D

 43 45  0  0  0  0  0  0  0  0999 V2000
   60.7360   34.1900   47.8690 C   0  0  0  0  0  0  0  0  0  0  0  0
   59.6740   33.5670   47.0700 N   0  0  0  0  0  0  0  0  0  0  0  0
   59.2190   32.3200   47.4030 C   0  0  0  0  0  0  0  0  0  0  0  0
   58.2090   31.7080   46.6580 C   0  0  0  0  0  0  0  0  0  0  0  0
   57.6540   32.3700   45.5630 C   0  0  0  0  0  0  0  0  0  0  0  0
   56.6400   31.7280   44.8360 O   0  0  0  0  0  0  0  0  0  0  0  0
   56.8710   30.6780   43.9020 C   0  0  0  0  0  0  0  0  0  0  0  0
   56.3360   29.3870   44.4500 C   0  0  0  0  0  0  0  0  0  0  0  0
   55.1470   29.3460   44.8610 O   0  0  0  0  0  0  0  0  0  0  0  0
   57.1460   28.2080   44.5570 N   0  0  0  0  0  0  0  0  0  0  0  0
   58.0140   27.8680   45.6460 C   0  0  0  0  0  0  0  0  0  0  0  0
   59.2010   28.5940   45.8090 C   0  0  0  0  0  0  0  0  0  0  0  0
   60.0750   28.2970   46.8570 C   0  0  0  0  0  0  0  0  0  0  0  0
   59.7580   27.2880   47.7660 C   0  0  0  0  0  0  0  0  0  0  0  0
   58.5620   26.5790   47.6360 C   0  0  0  0  0  0  0  0  0  0  0  0
   57.6780   26.8640   46.5790 C   0  0  0  0  0  0  0  0  0  0  0  0
   56.4400   26.2120   46.4840 O   0  0  0  0  0  0  0  0  0  0  0  0
   56.1130   25.2310   45.5340 C   0  0  0  0  0  0  0  0  0  0  0  0
   54.8330   24.6660   45.5630 C   0  0  0  0  0  0  0  0  0  0  0  0
   54.4600   23.7100   44.6130 C   0  0  0  0  0  0  0  0  0  0  0  0
   55.3620   23.3220   43.6180 C   0  0  0  0  0  0  0  0  0  0  0  0
   56.6370   23.8920   43.5710 C   0  0  0  0  0  0  0  0  0  0  0  0
   57.0130   24.8460   44.5210 C   0  0  0  0  0  0  0  0  0  0  0  0
   58.1280   33.6490   45.2310 C   0  0  0  0  0  0  0  0  0  0  0  0
   59.1410   34.2360   45.9980 C   0  0  0  0  0  0  0  0  0  0  0  0
   59.5560   35.3860   45.6880 O   0  0  0  0  0  0  0  0  0  0  0  0
   60.5143   34.0600   48.9386 H   0  0  0  0  0  0  0  0  0  0  0  0
   61.6992   33.7138   47.6336 H   0  0  0  0  0  0  0  0  0  0  0  0
   60.7903   35.2631   47.6336 H   0  0  0  0  0  0  0  0  0  0  0  0
   59.6533   31.7945   48.2663 H   0  0  0  0  0  0  0  0  0  0  0  0
   57.8515   30.7051   46.9343 H   0  0  0  0  0  0  0  0  0  0  0  0
   56.3622   30.9122   42.9553 H   0  0  0  0  0  0  0  0  0  0  0  0
   57.9522   30.5787   43.7254 H   0  0  0  0  0  0  0  0  0  0  0  0
   59.4464   29.4040   45.1063 H   0  0  0  0  0  0  0  0  0  0  0  0
   61.0141   28.8594   46.9655 H   0  0  0  0  0  0  0  0  0  0  0  0
   60.4510   27.0503   48.5865 H   0  0  0  0  0  0  0  0  0  0  0  0
   58.3096   25.7936   48.3637 H   0  0  0  0  0  0  0  0  0  0  0  0
   54.1161   24.9757   46.3376 H   0  0  0  0  0  0  0  0  0  0  0  0
   53.4556   23.2628   44.6487 H   0  0  0  0  0  0  0  0  0  0  0  0
   55.0683   22.5684   42.8725 H   0  0  0  0  0  0  0  0  0  0  0  0
   57.3454   23.5897   42.7857 H   0  0  0  0  0  0  0  0  0  0  0  0
   58.0151   25.2976   44.4774 H   0  0  0  0  0  0  0  0  0  0  0  0
   57.7046   34.1882   44.3707 H   0  0  0  0  0  0  0  0  0  0  0  0
  1  2  1  0
  2  3  1  0
  3  4  2  0
  4  5  1  0
  5  6  1  0
  6  7  1  0
  7  8  1  0
  8  9  2  0
  8 10  1  0
 10 11  1  0
 11 12  2  0
 12 13  1  0
 13 14  2  0
 14 15  1  0
 15 16  2  0
 16 17  1  0
 17 18  1  0
 18 19  2  0
 19 20  1  0
 20 21  2  0
 21 22  1  0
 22 23  2  0
  5 24  2  0
 24 25  1  0
 25 26  2  0
 25  2  1  0
 16 11  1  0
 23 18  1  0
  1 27  1  0
  1 28  1  0
  1 29  1  0
  3 30  1  0
  4 31  1  0
  7 32  1  0
  7 33  1  0
 12 34  1  0
 13 35  1  0
 14 36  1  0
 15 37  1  0
 19 38  1  0
 20 39  1  0
 21 40  1  0
 22 41  1  0
 23 42  1  0
 24 43  1  0
M  CHG  1  10  -1
M  END
>  <UniqueID>  (48) 
46

>  <SMILES>  (48) 
Cn1ccc(OCC(=O)[N-]c2ccccc2Oc2ccccc2)cc1=O

>  <Energy>  (48) 
57.2332270428175

>  <Genealogy>  (48) 
Cn1ccc(OCC(=O)[N-]c2ccccc2Oc2ccccc2)cc1=O (protonated)
Cn1ccc(OCC(=O)[N-]c2ccccc2Oc2ccccc2)cc1=O (3D coordinates assigned)
Cn1ccc(OCC(=O)[N-]c2ccccc2Oc2ccccc2)cc1=O (optimized conformer: 57.2332270428175 kcal/mol)

>  <smiles>  (48) 
Cn1ccc(OCC(=O)Nc2ccccc2Oc2ccccc2)cc1=O

>  <score_type>  (48) 
oracle

>  <origin>  (48) 
adg

>  <m_score__min__energy>  (48) 
-9.8300000000000001

>  <m_primary>  (48) 
energy

$$$$
48:0
     RDKit          3D

 48 50  0  0  1  0  0  0  0  0999 V2000
   54.0250   24.0200   45.9990 C   0  0  0  0  0  0  0  0  0  0  0  0
   55.3380   24.6910   45.8400 C   0  0  0  0  0  0  0  0  0  0  0  0
   55.5280   26.0130   45.9880 N   0  0  0  0  0  0  0  0  0  0  0  0
   56.7840   26.5060   45.8170 C   0  0  0  0  0  0  0  0  0  0  0  0
   56.9850   27.7500   45.9520 N   0  0  0  0  0  0  0  0  0  0  0  0
   56.7330   28.9680   44.7740 S   0  0  0  0  0  0  0  0  0  0  0  0
   57.3130   28.5650   43.4320 O   0  0  0  0  0  0  0  0  0  0  0  0
   55.2860   29.2570   44.5400 O   0  0  0  0  0  0  0  0  0  0  0  0
   57.5370   30.4310   45.3540 C   0  0  0  0  0  0  0  0  0  0  0  0
   58.2100   30.3270   46.5540 C   0  0  0  0  0  0  0  0  0  0  0  0
   58.8630   31.4540   47.0580 C   0  0  0  0  0  0  0  0  0  0  0  0
   58.8530   32.6660   46.3900 C   0  0  0  0  0  0  0  0  0  0  0  0
   58.1750   32.7150   45.2060 C   0  0  0  0  0  0  0  0  0  0  0  0
   58.1100   33.8750   44.4650 C   0  0  0  0  0  0  0  0  0  0  0  0
   58.7580   34.9770   44.9710 C   0  0  0  0  0  0  0  0  0  0  0  0
   59.4290   34.8800   46.1700 C   0  0  0  0  0  0  0  0  0  0  0  0
   59.9990   35.9190   46.5780 O   0  0  0  0  0  0  0  0  0  0  0  0
   59.5010   33.7600   46.9010 N   0  0  0  0  0  0  0  0  0  0  0  0
   60.1720   33.6120   48.1530 C   0  0  0  0  0  0  0  0  0  0  0  0
   61.6600   33.7900   48.1170 C   0  0  0  0  0  0  0  0  0  0  0  0
   62.2740   33.0820   47.0300 N   0  0  0  0  0  0  0  0  0  0  0  0
   62.9770   31.8830   47.5300 C   0  0  0  0  0  0  0  0  0  0  0  0
   63.3510   33.8700   46.4200 C   0  0  0  0  0  0  0  0  0  0  0  0
   57.5040   31.6140   44.6610 C   0  0  0  0  0  0  0  0  0  0  0  0
   57.8550   25.6990   45.4990 C   0  0  0  0  0  0  0  0  0  0  0  0
   57.6340   24.3470   45.3520 C   0  0  0  0  0  0  0  0  0  0  0  0
   56.3860   23.8820   45.5270 N   0  0  0  0  0  0  0  0  0  0  0  0
   53.7994   23.9047   47.0694 H   0  0  0  0  0  0  0  0  0  0  0  0
   53.2422   24.6286   45.5228 H   0  0  0  0  0  0  0  0  0  0  0  0
   54.0596   23.0290   45.5228 H   0  0  0  0  0  0  0  0  0  0  0  0
   58.2318   29.3743   47.1034 H   0  0  0  0  0  0  0  0  0  0  0  0
   59.4012   31.3760   48.0142 H   0  0  0  0  0  0  0  0  0  0  0  0
   57.5639   33.9174   43.5111 H   0  0  0  0  0  0  0  0  0  0  0  0
   58.7407   35.9300   44.4219 H   0  0  0  0  0  0  0  0  0  0  0  0
   59.7590   34.3577   48.8482 H   0  0  0  0  0  0  0  0  0  0  0  0
   60.0016   32.5706   48.4637 H   0  0  0  0  0  0  0  0  0  0  0  0
   61.8842   34.8617   48.0109 H   0  0  0  0  0  0  0  0  0  0  0  0
   62.0674   33.3813   49.0535 H   0  0  0  0  0  0  0  0  0  0  0  0
   62.9739   31.8882   48.6300 H   0  0  0  0  0  0  0  0  0  0  0  0
   62.4655   30.9797   47.1662 H   0  0  0  0  0  0  0  0  0  0  0  0
   64.0151   31.8882   47.1662 H   0  0  0  0  0  0  0  0  0  0  0  0
   63.9681   34.3215   47.2108 H   0  0  0  0  0  0  0  0  0  0  0  0
   63.9765   33.2148   45.7960 H   0  0  0  0  0  0  0  0  0  0  0  0
   62.9158   34.6645   45.7960 H   0  0  0  0  0  0  0  0  0  0  0  0
   56.9661   31.6953   43.7050 H   0  0  0  0  0  0  0  0  0  0  0  0
   58.8610   26.1236   45.3659 H   0  0  0  0  0  0  0  0  0  0  0  0
   58.4590   23.6654   45.0977 H   0  0  0  0  0  0  0  0  0  0  0  0
   56.2430   22.8480   45.4110 H   0  0  0  0  0  0  0  0  0  0  0  0
  1  2  1  0
  2  3  2  0
  3  4  1  0
  4  5  2  0
  5  6  1  0
  6  7  2  0
  6  8  2  0
  6  9  1  0
  9 10  2  0
 10 11  1  0
 11 12  2  0
 12 13  1  0
 13 14  1  0
 14 15  2  0
 15 16  1  0
 16 17  2  0
 16 18  1  0
 18 19  1  0
 19 20  1  0
 20 21  1  0
 21 22  1  0
 21 23  1  0
 13 24  2  0
  4 25  1  0
 25 26  2  0
 26 27  1  0
 27  2  1  0
 24  9  1  0
 18 12  1  0
  1 28  1  0
  1 29  1  0
  1 30  1  0
 10 31  1  0
 11 32  1  0
 14 33  1  0
 15 34  1  0
 19 35  1  0
 19 36  1  0
 20 37  1  0
 20 38  1  0
 22 39  1  0
 22 40  1  0
 22 41  1  0
 23 42  1  0
 23 43  1  0
 23 44  1  0
 24 45  1  0
 25 46  1  0
 26 47  1  0
 27 48  1  0
M  END
>  <smiles>  (49) 
Cc1nc(=NS(=O)(=O)c2ccc3c(ccc(=O)n3CCN(C)C)c2)cc[nH]1

>  <score_type>  (49) 
oracle

>  <origin>  (49) 
adg

>  <m_score__min__energy>  (49) 
-8.5999999999999996

>  <m_primary>  (49) 
energy

$$$$
49:0
     RDKit          3D

 53 55  0  0  0  0  0  0  0  0999 V2000
   57.5830   21.1410   43.7100 N   0  0  0  0  0  0  0  0  0  0  0  0
   58.1320   21.9430   44.7590 C   0  0  0  0  0  0  0  0  0  0  0  0
   58.6340   21.3700   45.8120 N   0  0  0  0  0  0  0  0  0  0  0  0
   58.1880   23.3700   44.5930 N   0  0  0  0  0  0  0  0  0  0  0  0
   57.9960   24.3130   45.6640 C   0  0  0  0  0  0  0  0  0  0  0  0
   57.6800   23.9090   46.8170 O   0  0  0  0  0  0  0  0  0  0  0  0
   58.1840   25.7640   45.4380 C   0  0  0  0  0  0  0  0  0  0  0  0
   58.5830   26.5770   46.5120 C   0  0  0  0  0  0  0  0  0  0  0  0
   58.8160   27.9410   46.3220 C   0  0  0  0  0  0  0  0  0  0  0  0
   58.6500   28.5190   45.0530 C   0  0  0  0  0  0  0  0  0  0  0  0
   58.8640   29.9190   44.8190 N   0  0  0  0  0  0  0  0  0  0  0  0
   58.0420   30.9980   45.2890 C   0  0  0  0  0  0  0  0  0  0  0  0
   56.7900   30.9340   45.1610 O   0  0  0  0  0  0  0  0  0  0  0  0
   58.6420   32.1320   45.9510 N   0  0  0  0  0  0  0  0  0  0  0  0
   57.7760   33.1590   46.5460 C   0  0  0  0  0  0  0  0  0  0  0  0
   58.4890   34.5180   46.6070 C   0  0  0  0  0  0  0  0  0  0  0  0
   59.8500   34.4290   47.1770 N   0  0  0  0  0  0  0  0  0  0  0  0
   59.8670   34.1550   48.6330 C   0  0  0  0  0  0  0  0  0  0  0  0
   61.1580   33.4910   49.0350 C   0  0  0  0  0  0  0  0  0  0  0  0
   62.3590   34.2210   49.0230 C   0  0  0  0  0  0  0  0  0  0  0  0
   63.5570   33.6140   49.4110 C   0  0  0  0  0  0  0  0  0  0  0  0
   63.5620   32.2780   49.8230 C   0  0  0  0  0  0  0  0  0  0  0  0
   62.3700   31.5490   49.8520 C   0  0  0  0  0  0  0  0  0  0  0  0
   61.1710   32.1500   49.4570 C   0  0  0  0  0  0  0  0  0  0  0  0
   60.6720   33.4720   46.4140 C   0  0  0  0  0  0  0  0  0  0  0  0
   60.0490   32.0690   46.3700 C   0  0  0  0  0  0  0  0  0  0  0  0
   58.1980   27.7230   43.9940 C   0  0  0  0  0  0  0  0  0  0  0  0
   57.9610   26.3520   44.1760 C   0  0  0  0  0  0  0  0  0  0  0  0
   57.4840   25.5860   43.1120 O   0  0  0  0  0  0  0  0  0  0  0  0
   57.5780   20.0990   43.7760 H   0  0  0  0  0  0  0  0  0  0  0  0
   57.1480   21.5910   42.8740 H   0  0  0  0  0  0  0  0  0  0  0  0
   58.5880   21.8350   46.7450 H   0  0  0  0  0  0  0  0  0  0  0  0
   59.0590   20.4170   45.7690 H   0  0  0  0  0  0  0  0  0  0  0  0
   58.3360   23.7250   43.6220 H   0  0  0  0  0  0  0  0  0  0  0  0
   58.7130   26.1356   47.5111 H   0  0  0  0  0  0  0  0  0  0  0  0
   59.1312   28.5657   47.1708 H   0  0  0  0  0  0  0  0  0  0  0  0
   56.8657   33.2582   45.9364 H   0  0  0  0  0  0  0  0  0  0  0  0
   57.5238   32.8511   47.5715 H   0  0  0  0  0  0  0  0  0  0  0  0
   58.5617   34.9222   45.5866 H   0  0  0  0  0  0  0  0  0  0  0  0
   57.8977   35.1715   47.2653 H   0  0  0  0  0  0  0  0  0  0  0  0
   59.7632   35.1036   49.1801 H   0  0  0  0  0  0  0  0  0  0  0  0
   59.0322   33.4810   48.8757 H   0  0  0  0  0  0  0  0  0  0  0  0
   62.3563   35.2746   48.7069 H   0  0  0  0  0  0  0  0  0  0  0  0
   64.4955   34.1874   49.3922 H   0  0  0  0  0  0  0  0  0  0  0  0
   64.5056   31.7999   50.1248 H   0  0  0  0  0  0  0  0  0  0  0  0
   62.3751   30.5010   50.1860 H   0  0  0  0  0  0  0  0  0  0  0  0
   60.2353   31.5720   49.4765 H   0  0  0  0  0  0  0  0  0  0  0  0
   60.7807   33.8426   45.3840 H   0  0  0  0  0  0  0  0  0  0  0  0
   61.6462   33.3904   46.9183 H   0  0  0  0  0  0  0  0  0  0  0  0
   60.6099   31.4483   45.6557 H   0  0  0  0  0  0  0  0  0  0  0  0
   60.0957   31.6323   47.3785 H   0  0  0  0  0  0  0  0  0  0  0  0
   58.0265   28.1777   43.0072 H   0  0  0  0  0  0  0  0  0  0  0  0
   56.6280   25.8260   42.6250 H   0  0  0  0  0  0  0  0  0  0  0  0
  1  2  1  0
  2  3  2  0
  2  4  1  0
  4  5  1  0
  5  6  2  0
  5  7  1  0
  7  8  2  0
  8  9  1  0
  9 10  2  0
 10 11  1  0
 11 12  1  0
 12 13  2  0
 12 14  1  0
 14 15  1  0
 15 16  1  0
 16 17  1  0
 17 18  1  0
 18 19  1  0
 19 20  2  0
 20 21  1  0
 21 22  2  0
 22 23  1  0
 23 24  2  0
 17 25  1  0
 25 26  1  0
 10 27  1  0
 27 28  2  0
 28 29  1  0
 28  7  1  0
 26 14  1  0
 24 19  1  0
  1 30  1  0
  1 31  1  0
  3 32  1  0
  3 33  1  0
  4 34  1  0
  8 35  1  0
  9 36  1  0
 15 37  1  0
 15 38  1  0
 16 39  1  0
 16 40  1  0
 18 41  1  0
 18 42  1  0
 20 43  1  0
 21 44  1  0
 22 45  1  0
 23 46  1  0
 24 47  1  0
 25 48  1  0
 25 49  1  0
 26 50  1  0
 26 51  1  0
 27 52  1  0
 29 53  1  0
M  CHG  2   3   1  11  -1
M  END
>  <UniqueID>  (50) 
47

>  <SMILES>  (50) 
NC(=[NH2+])NC(=O)c1ccc([N-]C(=O)N2CCN(Cc3ccccc3)CC2)cc1O

>  <Energy>  (50) 
66.9457200722878

>  <Genealogy>  (50) 
NC(=[NH2+])NC(=O)c1ccc([N-]C(=O)N2CCN(Cc3ccccc3)CC2)cc1O (protonated)
NC(=[NH2+])NC(=O)c1ccc([N-]C(=O)N2CCN(Cc3ccccc3)CC2)cc1O (3D coordinates assigned)
NC(=[NH2+])NC(=O)c1ccc([N-]C(=O)N2CCN(Cc3ccccc3)CC2)cc1O (nonaromatic ring conformer: 66.9457200722878 kcal/mol)

>  <smiles>  (50) 
N=C(N)NC(=O)c1ccc(NC(=O)N2CCN(Cc3ccccc3)CC2)cc1O

>  <score_type>  (50) 
oracle

>  <origin>  (50) 
adg

>  <m_score__min__energy>  (50) 
-9.5399999999999991

>  <m_primary>  (50) 
energy

$$$$
50:0
     RDKit          3D

 36 38  0  0  0  0  0  0  0  0999 V2000
   59.0170   35.1900   44.7490 O   0  0  0  0  0  0  0  0  0  0  0  0
   58.8900   34.0240   45.2100 C   0  0  0  0  0  0  0  0  0  0  0  0
   58.8230   32.9210   44.3020 N   0  0  0  0  0  0  0  0  0  0  0  0
   58.1090   31.6990   44.5390 C   0  0  0  0  0  0  0  0  0  0  0  0
   56.7740   31.6090   44.1290 C   0  0  0  0  0  0  0  0  0  0  0  0
   56.0380   30.4430   44.3580 C   0  0  0  0  0  0  0  0  0  0  0  0
   56.6280   29.3580   45.0130 C   0  0  0  0  0  0  0  0  0  0  0  0
   55.9070   28.2260   45.2330 N   0  0  0  0  0  0  0  0  0  0  0  0
   56.4290   27.1470   45.8750 C   0  0  0  0  0  0  0  0  0  0  0  0
   55.5870   25.9540   46.0760 C   0  0  0  0  0  0  0  0  0  0  0  0
   56.0500   24.9230   46.6320 O   0  0  0  0  0  0  0  0  0  0  0  0
   54.2650   25.9610   45.6480 O   0  0  0  0  0  0  0  0  0  0  0  0
   57.7550   27.1890   46.3350 C   0  0  0  0  0  0  0  0  0  0  0  0
   58.5260   28.3370   46.1270 C   0  0  0  0  0  0  0  0  0  0  0  0
   59.7160   28.3650   46.5440 O   0  0  0  0  0  0  0  0  0  0  0  0
   57.9660   29.4420   45.4570 C   0  0  0  0  0  0  0  0  0  0  0  0
   58.6980   30.6200   45.2230 C   0  0  0  0  0  0  0  0  0  0  0  0
   58.8650   33.8050   46.5910 O   0  0  0  0  0  0  0  0  0  0  0  0
   59.8810   34.2650   47.4770 C   0  0  0  0  0  0  0  0  0  0  0  0
   61.0680   33.3430   47.4220 C   0  0  0  0  0  0  0  0  0  0  0  0
   62.3340   33.8260   47.0510 C   0  0  0  0  0  0  0  0  0  0  0  0
   63.4380   32.9670   47.0360 C   0  0  0  0  0  0  0  0  0  0  0  0
   63.2850   31.6250   47.3980 C   0  0  0  0  0  0  0  0  0  0  0  0
   62.0300   31.1410   47.7760 C   0  0  0  0  0  0  0  0  0  0  0  0
   60.9250   31.9950   47.7910 C   0  0  0  0  0  0  0  0  0  0  0  0
   56.3001   32.4627   43.6225 H   0  0  0  0  0  0  0  0  0  0  0  0
   54.9925   30.3790   44.0222 H   0  0  0  0  0  0  0  0  0  0  0  0
   58.1858   26.3219   46.8571 H   0  0  0  0  0  0  0  0  0  0  0  0
   59.7366   30.6980   45.5767 H   0  0  0  0  0  0  0  0  0  0  0  0
   60.1922   35.2774   47.1801 H   0  0  0  0  0  0  0  0  0  0  0  0
   59.4846   34.2822   48.5029 H   0  0  0  0  0  0  0  0  0  0  0  0
   62.4575   34.8827   46.7715 H   0  0  0  0  0  0  0  0  0  0  0  0
   64.4266   33.3473   46.7394 H   0  0  0  0  0  0  0  0  0  0  0  0
   64.1534   30.9499   47.3852 H   0  0  0  0  0  0  0  0  0  0  0  0
   61.9121   30.0855   48.0623 H   0  0  0  0  0  0  0  0  0  0  0  0
   59.9394   31.6109   48.0927 H   0  0  0  0  0  0  0  0  0  0  0  0
  1  2  2  0
  2  3  1  0
  3  4  1  0
  4  5  2  0
  5  6  1  0
  6  7  2  0
  7  8  1  0
  8  9  1  0
  9 10  1  0
 10 11  2  0
 10 12  1  0
  9 13  2  0
 13 14  1  0
 14 15  2  0
 14 16  1  0
 16 17  2  0
  2 18  1  0
 18 19  1  0
 19 20  1  0
 20 21  2  0
 21 22  1  0
 22 23  2  0
 23 24  1  0
 24 25  2  0
 17  4  1  0
 25 20  1  0
 16  7  1  0
  5 26  1  0
  6 27  1  0
 13 28  1  0
 17 29  1  0
 19 30  1  0
 19 31  1  0
 21 32  1  0
 22 33  1  0
 23 34  1  0
 24 35  1  0
 25 36  1  0
M  CHG  3   3  -1   8  -1  12  -1
M  END
>  <UniqueID>  (51) 
48

>  <SMILES>  (51) 
O=C([N-]c1ccc2[n-]c(C(=O)[O-])cc(=O)c2c1)OCc1ccccc1

>  <Energy>  (51) 
43.42898937925657

>  <Genealogy>  (51) 
O=C([N-]c1ccc2[n-]c(C(=O)[O-])cc(=O)c2c1)OCc1ccccc1 (protonated)
O=C([N-]c1ccc2[n-]c(C(=O)[O-])cc(=O)c2c1)OCc1ccccc1 (3D coordinates assigned)
O=C([N-]c1ccc2[n-]c(C(=O)[O-])cc(=O)c2c1)OCc1ccccc1 (optimized conformer: 43.42898937925657 kcal/mol)

>  <smiles>  (51) 
O=C(Nc1ccc2[nH]c(C(=O)O)cc(=O)c2c1)OCc1ccccc1

>  <score_type>  (51) 
oracle

>  <origin>  (51) 
adg

>  <m_score__min__energy>  (51) 
-13.26

>  <m_primary>  (51) 
energy

$$$$
51:0
     RDKit          3D

 33 33  0  0  0  0  0  0  0  0999 V2000
   56.8440   27.3920   43.6280 H   0  0  0  0  0  0  0  0  0  0  0  0
   58.1450   27.1410   43.1500 S   0  0  0  0  0  0  0  0  0  0  0  0
   58.9440   28.0790   44.4990 C   0  0  0  0  0  0  0  0  0  0  0  0
   59.0974   29.1132   44.1572 H   0  0  0  0  0  0  0  0  0  0  0  0
   59.8883   27.5635   44.7284 H   0  0  0  0  0  0  0  0  0  0  0  0
   58.1270   28.1170   45.8090 C   0  0  2  0  0  0  0  0  0  0  0  0
   58.4979   27.2806   46.4196 H   0  0  0  0  0  0  0  0  0  0  0  0
   56.6460   27.8940   45.5700 C   0  0  0  0  0  0  0  0  0  0  0  0
   56.1860   26.7220   45.6300 O   0  0  0  0  0  0  0  0  0  0  0  0
   55.7430   28.9520   45.2090 N   0  0  0  0  0  0  0  0  0  0  0  0
   55.6990   29.7120   43.9620 C   0  0  0  0  0  0  0  0  0  0  0  0
   55.6954   29.0112   43.1141 H   0  0  0  0  0  0  0  0  0  0  0  0
   54.7868   30.3267   43.9594 H   0  0  0  0  0  0  0  0  0  0  0  0
   56.9100   30.6390   43.8390 C   0  0  0  0  0  0  0  0  0  0  0  0
   57.8308   30.0383   43.8761 H   0  0  0  0  0  0  0  0  0  0  0  0
   56.8480   31.1799   42.8832 H   0  0  0  0  0  0  0  0  0  0  0  0
   56.9250   31.6090   44.9300 N   0  0  0  0  0  0  0  0  0  0  0  0
   57.4160   32.8110   44.8600 C   0  0  0  0  0  0  0  0  0  0  0  0
   57.2179   33.4075   43.9573 H   0  0  0  0  0  0  0  0  0  0  0  0
   58.2270   33.4110   45.9370 C   0  0  0  0  0  0  0  0  0  0  0  0
   58.1710   32.8670   47.2250 C   0  0  0  0  0  0  0  0  0  0  0  0
   57.5324   31.9940   47.4248 H   0  0  0  0  0  0  0  0  0  0  0  0
   58.9240   33.4300   48.2570 C   0  0  0  0  0  0  0  0  0  0  0  0
   58.8913   32.9993   49.2686 H   0  0  0  0  0  0  0  0  0  0  0  0
   59.7190   34.5460   47.9900 C   0  0  0  0  0  0  0  0  0  0  0  0
   60.3252   34.9930   48.7917 H   0  0  0  0  0  0  0  0  0  0  0  0
   59.7450   35.0810   46.7410 N   0  0  0  0  0  0  0  0  0  0  0  0
   59.0210   34.5530   45.7180 C   0  0  0  0  0  0  0  0  0  0  0  0
   59.0560   35.1040   44.5860 O   0  0  0  0  0  0  0  0  0  0  0  0
   58.3560   29.4120   46.5990 C   0  0  0  0  0  0  0  0  0  0  0  0
   58.3177   29.1956   47.6768 H   0  0  0  0  0  0  0  0  0  0  0  0
   59.3417   29.8281   46.3433 H   0  0  0  0  0  0  0  0  0  0  0  0
   57.5728   30.1409   46.3433 H   0  0  0  0  0  0  0  0  0  0  0  0
  1  2  1  0
  2  3  1  0
  3  4  1  0
  3  5  1  0
  3  6  1  0
  6  7  1  1
  6  8  1  0
  8  9  2  0
  8 10  1  0
 10 11  1  0
 11 12  1  0
 11 13  1  0
 11 14  1  0
 14 15  1  0
 14 16  1  0
 14 17  1  0
 17 18  2  0
 18 19  1  0
 18 20  1  0
 20 21  2  0
 21 22  1  0
 21 23  1  0
 23 24  1  0
 23 25  2  0
 25 26  1  0
 25 27  1  0
 27 28  1  0
 28 29  2  0
  6 30  1  0
 30 31  1  0
 30 32  1  0
 30 33  1  0
 28 20  1  0
M  CHG  2  10  -1  27  -1
M  END
>  <UniqueID>  (52) 
49

>  <SMILES>  (52) 
C[C@H](CS)C(=O)[N-]CC/N=C\c1ccc[n-]c1=O

>  <Energy>  (52) 
34.95555065916685

>  <Genealogy>  (52) 
CC(CS)C(=O)[N-]CCN=Cc1ccc[n-]c1=O (protonated)
C[C@H](CS)C(=O)[N-]CCN=Cc1ccc[n-]c1=O (chirality)
C[C@H](CS)C(=O)[N-]CC/N=C\c1ccc[n-]c1=O (cis-trans isomerization)
C[C@H](CS)C(=O)[N-]CC/N=C\c1ccc[n-]c1=O (3D coordinates assigned)
C[C@H](CS)C(=O)[N-]CC/N=C\c1ccc[n-]c1=O (optimized conformer: 34.95555065916685 kcal/mol)

>  <smiles>  (52) 
CC(CS)C(=O)NCCN=Cc1ccc[nH]c1=O

>  <score_type>  (52) 
oracle

>  <origin>  (52) 
adg

>  <m_score__min__energy>  (52) 
-9.1400000000000006

>  <m_primary>  (52) 
energy

$$$$
52:0
     RDKit          3D

 47 49  0  0  0  0  0  0  0  0999 V2000
   55.1440   26.5510   45.9750 N   0  0  0  0  0  0  0  0  0  0  0  0
   56.8610   26.7370   46.0260 S   0  0  0  0  0  0  0  0  0  0  0  0
   57.4780   25.7740   45.0510 O   0  0  0  0  0  0  0  0  0  0  0  0
   57.3570   26.4320   47.4130 O   0  0  0  0  0  0  0  0  0  0  0  0
   57.2940   28.3910   45.6000 C   0  0  0  0  0  0  0  0  0  0  0  0
   58.4950   28.9530   46.0540 C   0  0  0  0  0  0  0  0  0  0  0  0
   58.8240   30.2700   45.7250 C   0  0  0  0  0  0  0  0  0  0  0  0
   57.9530   31.0480   44.9510 C   0  0  0  0  0  0  0  0  0  0  0  0
   58.3330   32.3960   44.6380 N   0  0  0  0  0  0  0  0  0  0  0  0
   58.3140   33.7220   45.7530 S   0  0  0  0  0  0  0  0  0  0  0  0
   59.1310   34.8510   45.1900 O   0  0  0  0  0  0  0  0  0  0  0  0
   56.8990   34.1900   45.9380 O   0  0  0  0  0  0  0  0  0  0  0  0
   58.9500   33.2020   47.3100 C   0  0  0  0  0  0  0  0  0  0  0  0
   60.2150   33.6220   47.7420 C   0  0  0  0  0  0  0  0  0  0  0  0
   60.7170   33.1850   48.9700 C   0  0  0  0  0  0  0  0  0  0  0  0
   59.9540   32.3380   49.7800 C   0  0  0  0  0  0  0  0  0  0  0  0
   58.6690   31.9370   49.3730 C   0  0  0  0  0  0  0  0  0  0  0  0
   57.8670   31.0600   50.1810 N   0  0  0  0  0  0  0  0  0  0  0  0
   57.1380   31.4780   51.3430 C   0  0  0  0  0  0  0  0  0  0  0  0
   57.0650   32.6980   51.6500 O   0  0  0  0  0  0  0  0  0  0  0  0
   56.5020   30.4860   52.1580 N   0  0  0  0  0  0  0  0  0  0  0  0
   55.0950   30.2130   52.2320 C   0  0  0  0  0  0  0  0  0  0  0  0
   54.6490   29.2340   53.1300 C   0  0  0  0  0  0  0  0  0  0  0  0
   53.2920   28.9240   53.2190 C   0  0  0  0  0  0  0  0  0  0  0  0
   52.3660   29.5780   52.4020 C   0  0  0  0  0  0  0  0  0  0  0  0
   52.7940   30.5440   51.4740 C   0  0  0  0  0  0  0  0  0  0  0  0
   51.8400   31.2010   50.6170 N   0  0  0  0  0  0  0  0  0  0  0  0
   51.4010   30.6320   49.5950 O   0  0  0  0  0  0  0  0  0  0  0  0
   51.4020   32.4720   50.9050 O   0  0  0  0  0  0  0  0  0  0  0  0
   54.1650   30.8490   51.3880 C   0  0  0  0  0  0  0  0  0  0  0  0
   58.1860   32.3560   48.1240 C   0  0  0  0  0  0  0  0  0  0  0  0
   56.7440   30.4850   44.5010 C   0  0  0  0  0  0  0  0  0  0  0  0
   56.4200   29.1650   44.8250 C   0  0  0  0  0  0  0  0  0  0  0  0
   54.7530   27.0910   46.7810 H   0  0  0  0  0  0  0  0  0  0  0  0
   59.1810   28.3547   46.6717 H   0  0  0  0  0  0  0  0  0  0  0  0
   59.7739   30.6995   46.0761 H   0  0  0  0  0  0  0  0  0  0  0  0
   60.8138   34.2971   47.1130 H   0  0  0  0  0  0  0  0  0  0  0  0
   61.7151   33.5079   49.3008 H   0  0  0  0  0  0  0  0  0  0  0  0
   60.3604   31.9841   50.7390 H   0  0  0  0  0  0  0  0  0  0  0  0
   57.7190   30.0800   49.8470 H   0  0  0  0  0  0  0  0  0  0  0  0
   55.3733   28.7069   53.7684 H   0  0  0  0  0  0  0  0  0  0  0  0
   52.9496   28.1621   53.9347 H   0  0  0  0  0  0  0  0  0  0  0  0
   51.2962   29.3358   52.4852 H   0  0  0  0  0  0  0  0  0  0  0  0
   54.5132   31.5912   50.6546 H   0  0  0  0  0  0  0  0  0  0  0  0
   57.1976   32.0167   47.7807 H   0  0  0  0  0  0  0  0  0  0  0  0
   56.0522   31.0859   43.8925 H   0  0  0  0  0  0  0  0  0  0  0  0
   55.4737   28.7311   44.4698 H   0  0  0  0  0  0  0  0  0  0  0  0
  1  2  1  0
  2  3  2  0
  2  4  2  0
  2  5  1  0
  5  6  2  0
  6  7  1  0
  7  8  2  0
  8  9  1  0
  9 10  1  0
 10 11  2  0
 10 12  2  0
 10 13  1  0
 13 14  2  0
 14 15  1  0
 15 16  2  0
 16 17  1  0
 17 18  1  0
 18 19  1  0
 19 20  2  0
 19 21  1  0
 21 22  1  0
 22 23  2  0
 23 24  1  0
 24 25  2  0
 25 26  1  0
 26 27  1  0
 27 28  2  0
 27 29  1  0
 26 30  2  0
 17 31  2  0
  8 32  1  0
 32 33  2  0
 33  5  1  0
 31 13  1  0
 30 22  1  0
  1 34  1  0
  6 35  1  0
  7 36  1  0
 14 37  1  0
 15 38  1  0
 16 39  1  0
 18 40  1  0
 23 41  1  0
 24 42  1  0
 25 43  1  0
 30 44  1  0
 31 45  1  0
 32 46  1  0
 33 47  1  0
M  CHG  5   1  -1   9  -1  21  -1  27   1  29  -1
M  END
>  <UniqueID>  (53) 
50

>  <SMILES>  (53) 
[NH-]S(=O)(=O)c1ccc([N-]S(=O)(=O)c2cccc(NC(=O)[N-]c3cccc([N+](=O)[O-])c3)c2)cc1

>  <Energy>  (53) 
60.501317709603725

>  <Genealogy>  (53) 
[NH-]S(=O)(=O)c1ccc([N-]S(=O)(=O)c2cccc(NC(=O)[N-]c3cccc([N+](=O)[O-])c3)c2)cc1 (protonated)
[NH-]S(=O)(=O)c1ccc([N-]S(=O)(=O)c2cccc(NC(=O)[N-]c3cccc([N+](=O)[O-])c3)c2)cc1 (3D coordinates assigned)
[NH-]S(=O)(=O)c1ccc([N-]S(=O)(=O)c2cccc(NC(=O)[N-]c3cccc([N+](=O)[O-])c3)c2)cc1 (optimized conformer: 60.501317709603725 kcal/mol)

>  <smiles>  (53) 
NS(=O)(=O)c1ccc(NS(=O)(=O)c2cccc(NC(=O)Nc3cccc([N+](=O)[O-])c3)c2)cc1

>  <score_type>  (53) 
oracle

>  <origin>  (53) 
adg

>  <m_score__min__energy>  (53) 
-16.300000000000001

>  <m_primary>  (53) 
energy

$$$$
53:0
     RDKit          3D

 37 39  0  0  0  0  0  0  0  0999 V2000
   54.3096   24.2134   46.1224 H   0  0  0  0  0  0  0  0  0  0  0  0
   55.2220   24.7080   45.7580 C   0  0  0  0  0  0  0  0  0  0  0  0
   55.4510   26.0150   46.0560 N   0  0  0  0  0  0  0  0  0  0  0  0
   56.5690   26.6750   45.6490 C   0  0  0  0  0  0  0  0  0  0  0  0
   56.6910   27.9310   45.9780 N   0  0  0  0  0  0  0  0  0  0  0  0
   56.6220   29.1010   45.1450 C   0  0  0  0  0  0  0  0  0  0  0  0
   55.5290   29.6950   44.9400 O   0  0  0  0  0  0  0  0  0  0  0  0
   57.8400   29.5270   44.3900 C   0  0  0  0  0  0  0  0  0  0  0  0
   58.7382   29.1706   44.9156 H   0  0  0  0  0  0  0  0  0  0  0  0
   57.8071   29.0982   43.3776 H   0  0  0  0  0  0  0  0  0  0  0  0
   57.8810   30.9870   44.2940 N   0  0  0  0  0  0  0  0  0  0  0  0
   57.5800   31.7610   43.2220 C   0  0  0  0  0  0  0  0  0  0  0  0
   57.2660   31.3010   42.0930 O   0  0  0  0  0  0  0  0  0  0  0  0
   57.6410   33.0550   43.4850 O   0  0  0  0  0  0  0  0  0  0  0  0
   57.9760   33.1410   44.7510 C   0  0  0  0  0  0  0  0  0  0  0  0
   58.1640   34.2810   45.5230 C   0  0  0  0  0  0  0  0  0  0  0  0
   58.0492   35.2858   45.0904 H   0  0  0  0  0  0  0  0  0  0  0  0
   58.5060   34.1070   46.8760 C   0  0  0  0  0  0  0  0  0  0  0  0
   58.6699   34.9895   47.5119 H   0  0  0  0  0  0  0  0  0  0  0  0
   58.6430   32.8040   47.4340 C   0  0  0  0  0  0  0  0  0  0  0  0
   59.0040   32.6160   48.8600 C   0  0  0  0  0  0  0  0  0  0  0  0
   60.2150   32.4930   49.1850 O   0  0  0  0  0  0  0  0  0  0  0  0
   58.0050   32.5520   49.8820 N   0  0  0  0  0  0  0  0  0  0  0  0
   58.2910   32.4790   50.8840 H   0  0  0  0  0  0  0  0  0  0  0  0
   56.9890   32.4880   49.6560 H   0  0  0  0  0  0  0  0  0  0  0  0
   58.4530   31.6700   46.6050 C   0  0  0  0  0  0  0  0  0  0  0  0
   58.5641   30.6511   47.0044 H   0  0  0  0  0  0  0  0  0  0  0  0
   58.1210   31.8850   45.2680 C   0  0  0  0  0  0  0  0  0  0  0  0
   57.5210   25.9840   44.8700 C   0  0  0  0  0  0  0  0  0  0  0  0
   58.4252   26.4996   44.5142 H   0  0  0  0  0  0  0  0  0  0  0  0
   57.3070   24.6410   44.5540 C   0  0  0  0  0  0  0  0  0  0  0  0
   58.0537   24.0917   43.9617 H   0  0  0  0  0  0  0  0  0  0  0  0
   56.1460   23.9910   44.9880 C   0  0  0  0  0  0  0  0  0  0  0  0
   55.9240   22.5380   44.6880 C   0  0  0  0  0  0  0  0  0  0  0  0
   55.8384   21.9778   45.6308 H   0  0  0  0  0  0  0  0  0  0  0  0
   54.9976   22.4210   44.1066 H   0  0  0  0  0  0  0  0  0  0  0  0
   56.7732   22.1497   44.1066 H   0  0  0  0  0  0  0  0  0  0  0  0
  1  2  1  0
  2  3  1  0
  3  4  1  0
  4  5  2  0
  5  6  1  0
  6  7  2  0
  6  8  1  0
  8  9  1  0
  8 10  1  0
  8 11  1  0
 11 12  1  0
 12 13  2  0
 12 14  1  0
 14 15  1  0
 15 16  2  0
 16 17  1  0
 16 18  1  0
 18 19  1  0
 18 20  2  0
 20 21  1  0
 21 22  2  0
 21 23  1  0
 23 24  1  0
 23 25  1  0
 20 26  1  0
 26 27  1  0
 26 28  2  0
  4 29  1  0
 29 30  1  0
 29 31  2  0
 31 32  1  0
 31 33  1  0
 33 34  1  0
 34 35  1  0
 34 36  1  0
 34 37  1  0
 33  2  2  0
 28 11  1  0
 28 15  1  0
M  CHG  1   3  -1
M  END
>  <UniqueID>  (54) 
51

>  <SMILES>  (54) 
Cc1cc/c(=N\C(=O)Cn2c(=O)oc3ccc(C(N)=O)cc32)[n-]c1

>  <Energy>  (54) 
87.48971695839111

>  <Genealogy>  (54) 
Cc1ccc(=NC(=O)Cn2c(=O)oc3ccc(C(N)=O)cc32)[n-]c1 (protonated)
Cc1cc/c(=N\C(=O)Cn2c(=O)oc3ccc(C(N)=O)cc32)[n-]c1 (cis-trans isomerization)
Cc1cc/c(=N\C(=O)Cn2c(=O)oc3ccc(C(N)=O)cc32)[n-]c1 (3D coordinates assigned)
Cc1cc/c(=N\C(=O)Cn2c(=O)oc3ccc(C(N)=O)cc32)[n-]c1 (optimized conformer: 87.48971695839111 kcal/mol)

>  <smiles>  (54) 
Cc1ccc(=NC(=O)Cn2c(=O)oc3ccc(C(N)=O)cc32)[nH]c1

>  <score_type>  (54) 
oracle

>  <origin>  (54) 
adg

>  <m_score__min__energy>  (54) 
-9.3599999999999994

>  <m_primary>  (54) 
energy

$$$$
54:0
     RDKit          3D

 42 44  0  0  0  0  0  0  0  0999 V2000
   64.8140   30.1080   51.7680 C   0  0  0  0  0  0  0  0  0  0  0  0
   64.6090   31.2450   50.8260 C   0  0  0  0  0  0  0  0  0  0  0  0
   65.4980   32.2480   50.6660 N   0  0  0  0  0  0  0  0  0  0  0  0
   64.9360   33.0140   49.7120 C   0  0  0  0  0  0  0  0  0  0  0  0
   63.7420   32.4430   49.3300 C   0  0  0  0  0  0  0  0  0  0  0  0
   62.8220   32.9240   48.2950 C   0  0  0  0  0  0  0  0  0  0  0  0
   63.1880   33.3280   47.0160 C   0  0  0  0  0  0  0  0  0  0  0  0
   62.1180   33.8370   46.2720 C   0  0  0  0  0  0  0  0  0  0  0  0
   60.9210   33.8490   46.9750 C   0  0  0  0  0  0  0  0  0  0  0  0
   59.3900   34.4930   46.3900 S   0  0  0  0  0  0  0  0  0  0  0  0
   59.6240   35.1990   45.0830 O   0  0  0  0  0  0  0  0  0  0  0  0
   58.8880   35.5020   47.3840 O   0  0  0  0  0  0  0  0  0  0  0  0
   58.1740   33.2500   46.1720 N   0  0  0  0  0  0  0  0  0  0  0  0
   58.1430   32.3180   47.3050 C   0  0  0  0  0  0  0  0  0  0  0  0
   58.2340   32.5740   44.8570 C   0  0  0  0  0  0  0  0  0  0  0  0
   57.5330   31.2430   44.8160 C   0  0  0  0  0  0  0  0  0  0  0  0
   56.2730   31.2150   44.8010 O   0  0  0  0  0  0  0  0  0  0  0  0
   58.2990   30.0330   44.7450 N   0  0  0  0  0  0  0  0  0  0  0  0
   58.0050   28.7750   45.3720 C   0  0  0  0  0  0  0  0  0  0  0  0
   58.9940   27.9910   45.9970 C   0  0  0  0  0  0  0  0  0  0  0  0
   58.6440   26.7910   46.6250 C   0  0  0  0  0  0  0  0  0  0  0  0
   57.3160   26.3570   46.6260 C   0  0  0  0  0  0  0  0  0  0  0  0
   56.3340   27.1190   45.9850 C   0  0  0  0  0  0  0  0  0  0  0  0
   55.0140   26.6880   45.9830 O   0  0  0  0  0  0  0  0  0  0  0  0
   56.6810   28.3170   45.3520 C   0  0  0  0  0  0  0  0  0  0  0  0
   61.1740   33.1920   48.5020 S   0  0  0  0  0  0  0  0  0  0  0  0
   63.5670   31.3520   50.0340 O   0  0  0  0  0  0  0  0  0  0  0  0
   64.7481   30.4733   52.8035 H   0  0  0  0  0  0  0  0  0  0  0  0
   64.0387   29.3465   51.5978 H   0  0  0  0  0  0  0  0  0  0  0  0
   65.8065   29.6652   51.5978 H   0  0  0  0  0  0  0  0  0  0  0  0
   65.3606   33.9433   49.3045 H   0  0  0  0  0  0  0  0  0  0  0  0
   64.2148   33.2549   46.6283 H   0  0  0  0  0  0  0  0  0  0  0  0
   62.2153   34.1917   45.2353 H   0  0  0  0  0  0  0  0  0  0  0  0
   58.1619   32.8854   48.2472 H   0  0  0  0  0  0  0  0  0  0  0  0
   57.2243   31.7148   47.2586 H   0  0  0  0  0  0  0  0  0  0  0  0
   59.0196   31.6551   47.2586 H   0  0  0  0  0  0  0  0  0  0  0  0
   57.7684   33.2325   44.1089 H   0  0  0  0  0  0  0  0  0  0  0  0
   59.2965   32.3786   44.6498 H   0  0  0  0  0  0  0  0  0  0  0  0
   60.0428   28.3226   45.9913 H   0  0  0  0  0  0  0  0  0  0  0  0
   59.4179   26.1863   47.1203 H   0  0  0  0  0  0  0  0  0  0  0  0
   57.0434   25.4180   47.1299 H   0  0  0  0  0  0  0  0  0  0  0  0
   55.9083   28.9043   44.8343 H   0  0  0  0  0  0  0  0  0  0  0  0
  1  2  1  0
  2  3  2  0
  3  4  1  0
  4  5  2  0
  5  6  1  0
  6  7  2  0
  7  8  1  0
  8  9  2  0
  9 10  1  0
 10 11  2  0
 10 12  2  0
 10 13  1  0
 13 14  1  0
 13 15  1  0
 15 16  1  0
 16 17  2  0
 16 18  1  0
 18 19  1  0
 19 20  2  0
 20 21  1  0
 21 22  2  0
 22 23  1  0
 23 24  1  0
 23 25  2  0
  9 26  1  0
  5 27  1  0
 27  2  1  0
 26  6  1  0
 25 19  1  0
  1 28  1  0
  1 29  1  0
  1 30  1  0
  4 31  1  0
  7 32  1  0
  8 33  1  0
 14 34  1  0
 14 35  1  0
 14 36  1  0
 15 37  1  0
 15 38  1  0
 20 39  1  0
 21 40  1  0
 22 41  1  0
 25 42  1  0
M  CHG  2  18  -1  24  -1
M  END
>  <UniqueID>  (55) 
52

>  <SMILES>  (55) 
Cc1ncc(-c2ccc(S(=O)(=O)N(C)CC(=O)[N-]c3cccc([O-])c3)s2)o1

>  <Energy>  (55) 
98.06679030682736

>  <Genealogy>  (55) 
Cc1ncc(-c2ccc(S(=O)(=O)N(C)CC(=O)[N-]c3cccc([O-])c3)s2)o1 (protonated)
Cc1ncc(-c2ccc(S(=O)(=O)N(C)CC(=O)[N-]c3cccc([O-])c3)s2)o1 (3D coordinates assigned)
Cc1ncc(-c2ccc(S(=O)(=O)N(C)CC(=O)[N-]c3cccc([O-])c3)s2)o1 (optimized conformer: 98.06679030682736 kcal/mol)

>  <smiles>  (55) 
Cc1ncc(-c2ccc(S(=O)(=O)N(C)CC(=O)Nc3cccc(O)c3)s2)o1

>  <score_type>  (55) 
oracle

>  <origin>  (55) 
adg

>  <m_score__min__energy>  (55) 
-13.56

>  <m_primary>  (55) 
energy

$$$$
55:0
     RDKit          3D

 61 65  0  0  0  0  0  0  0  0999 V2000
   57.9170   29.1970   46.5180 C   0  0  0  0  0  0  0  0  0  0  0  0
   58.6020   28.3390   47.2900 C   0  0  0  0  0  0  0  0  0  0  0  0
   58.8700   26.9820   47.0350 C   0  0  0  0  0  0  0  0  0  0  0  0
   58.4180   26.1530   46.0740 C   0  0  0  0  0  0  0  0  0  0  0  0
   57.1290   25.4350   46.0960 C   0  0  0  0  0  0  0  0  0  0  0  0
   55.9030   26.0990   45.8760 C   0  0  0  0  0  0  0  0  0  0  0  0
   55.8410   27.4680   45.6150 O   0  0  0  0  0  0  0  0  0  0  0  0
   54.7430   25.3930   45.9240 N   0  0  0  0  0  0  0  0  0  0  0  0
   54.7370   24.0640   46.1950 C   0  0  0  0  0  0  0  0  0  0  0  0
   53.3220   23.2500   46.2430 S   0  0  0  0  0  0  0  0  0  0  0  0
   55.9010   23.4120   46.4380 N   0  0  0  0  0  0  0  0  0  0  0  0
   57.0910   24.0660   46.4020 C   0  0  0  0  0  0  0  0  0  0  0  0
   58.1530   23.4290   46.6350 O   0  0  0  0  0  0  0  0  0  0  0  0
   59.7410   26.5650   48.0290 C   0  0  0  0  0  0  0  0  0  0  0  0
   59.9360   27.6400   48.8700 C   0  0  0  0  0  0  0  0  0  0  0  0
   60.8030   27.6210   50.0920 C   0  0  0  0  0  0  0  0  0  0  0  0
   59.2490   28.7160   48.4240 N   0  0  0  0  0  0  0  0  0  0  0  0
   59.2250   30.0110   49.0500 C   0  0  0  0  0  0  0  0  0  0  0  0
   59.8080   31.1120   48.4150 C   0  0  0  0  0  0  0  0  0  0  0  0
   59.7860   32.3800   49.0170 C   0  0  0  0  0  0  0  0  0  0  0  0
   60.3730   33.5600   48.2830 C   0  0  0  0  0  0  0  0  0  0  0  0
   59.5240   33.9050   47.0890 C   0  0  0  0  0  0  0  0  0  0  0  0
   60.0470   34.6910   46.0470 C   0  0  0  0  0  0  0  0  0  0  0  0
   59.2440   35.0390   44.9560 C   0  0  0  0  0  0  0  0  0  0  0  0
   57.9150   34.6100   44.9000 C   0  0  0  0  0  0  0  0  0  0  0  0
   57.3850   33.8360   45.9350 C   0  0  0  0  0  0  0  0  0  0  0  0
   58.1840   33.4860   47.0280 C   0  0  0  0  0  0  0  0  0  0  0  0
   59.1660   32.5370   50.2720 C   0  0  0  0  0  0  0  0  0  0  0  0
   59.1220   33.7900   50.8770 O   0  0  0  0  0  0  0  0  0  0  0  0
   58.5980   31.4300   50.9280 C   0  0  0  0  0  0  0  0  0  0  0  0
   57.9480   31.6060   52.1990 N   0  0  0  0  0  0  0  0  0  0  0  0
   56.8620   30.7890   52.6710 C   0  0  0  0  0  0  0  0  0  0  0  0
   57.1320   29.7080   53.5240 C   0  0  0  0  0  0  0  0  0  0  0  0
   56.0930   28.8880   53.9770 C   0  0  0  0  0  0  0  0  0  0  0  0
   54.7790   29.1340   53.5720 C   0  0  0  0  0  0  0  0  0  0  0  0
   54.5020   30.1950   52.7050 C   0  0  0  0  0  0  0  0  0  0  0  0
   55.5380   31.0150   52.2490 C   0  0  0  0  0  0  0  0  0  0  0  0
   58.6180   30.1730   50.3010 C   0  0  0  0  0  0  0  0  0  0  0  0
   57.7813   30.2397   46.8411 H   0  0  0  0  0  0  0  0  0  0  0  0
   57.4913   28.8575   45.5622 H   0  0  0  0  0  0  0  0  0  0  0  0
   59.0651   25.9981   45.1981 H   0  0  0  0  0  0  0  0  0  0  0  0
   56.2490   27.8900   44.7900 H   0  0  0  0  0  0  0  0  0  0  0  0
   60.1912   25.5662   48.1281 H   0  0  0  0  0  0  0  0  0  0  0  0
   60.1696   27.6349   50.9912 H   0  0  0  0  0  0  0  0  0  0  0  0
   61.4183   26.7092   50.0909 H   0  0  0  0  0  0  0  0  0  0  0  0
   61.4576   28.5050   50.0909 H   0  0  0  0  0  0  0  0  0  0  0  0
   60.2887   30.9832   47.4340 H   0  0  0  0  0  0  0  0  0  0  0  0
   60.4150   34.4252   48.9610 H   0  0  0  0  0  0  0  0  0  0  0  0
   61.3858   33.3015   47.9403 H   0  0  0  0  0  0  0  0  0  0  0  0
   61.0915   35.0334   46.0900 H   0  0  0  0  0  0  0  0  0  0  0  0
   59.6588   35.6508   44.1414 H   0  0  0  0  0  0  0  0  0  0  0  0
   57.2857   34.8822   44.0399 H   0  0  0  0  0  0  0  0  0  0  0  0
   56.3381   33.5015   45.8902 H   0  0  0  0  0  0  0  0  0  0  0  0
   57.7619   32.8802   47.8434 H   0  0  0  0  0  0  0  0  0  0  0  0
   58.2740   32.3860   52.8140 H   0  0  0  0  0  0  0  0  0  0  0  0
   58.1663   29.5042   53.8382 H   0  0  0  0  0  0  0  0  0  0  0  0
   56.3111   28.0482   54.6532 H   0  0  0  0  0  0  0  0  0  0  0  0
   53.9623   28.4929   53.9353 H   0  0  0  0  0  0  0  0  0  0  0  0
   53.4679   30.3847   52.3814 H   0  0  0  0  0  0  0  0  0  0  0  0
   55.3177   31.8411   51.5569 H   0  0  0  0  0  0  0  0  0  0  0  0
   58.1527   29.3086   50.7973 H   0  0  0  0  0  0  0  0  0  0  0  0
  1  2  2  0
  2  3  1  0
  3  4  2  3
  4  5  1  0
  5  6  2  0
  6  7  1  0
  6  8  1  0
  8  9  1  0
  9 10  2  0
  9 11  1  0
 11 12  1  0
 12 13  2  0
  3 14  1  0
 14 15  2  0
 15 16  1  0
 15 17  1  0
 17 18  1  0
 18 19  2  0
 19 20  1  0
 20 21  1  0
 21 22  1  0
 22 23  2  0
 23 24  1  0
 24 25  2  0
 25 26  1  0
 26 27  2  0
 20 28  2  0
 28 29  1  0
 28 30  1  0
 30 31  1  0
 31 32  1  0
 32 33  2  0
 33 34  1  0
 34 35  2  0
 35 36  1  0
 36 37  2  0
 30 38  2  0
 17  2  1  0
 38 18  1  0
 12  5  1  0
 27 22  1  0
 37 32  1  0
  1 39  1  0
  1 40  1  0
  4 41  1  0
  7 42  1  0
 14 43  1  0
 16 44  1  0
 16 45  1  0
 16 46  1  0
 19 47  1  0
 21 48  1  0
 21 49  1  0
 23 50  1  0
 24 51  1  0
 25 52  1  0
 26 53  1  0
 27 54  1  0
 31 55  1  0
 33 56  1  0
 34 57  1  0
 35 58  1  0
 36 59  1  0
 37 60  1  0
 38 61  1  0
M  CHG  3   8  -1  11  -1  29  -1
M  END
>  <UniqueID>  (56) 
53

>  <SMILES>  (56) 
C=c1c(=Cc2c(O)[n-]c(=S)[n-]c2=O)cc(C)n1-c1cc(Cc2ccccc2)c([O-])c(Nc2ccccc2)c1

>  <Energy>  (56) 
121.00851186293377

>  <Genealogy>  (56) 
C=c1c(=Cc2c(O)[n-]c(=S)[n-]c2=O)cc(C)n1-c1cc(Cc2ccccc2)c([O-])c(Nc2ccccc2)c1 (protonated)
C=c1c(=Cc2c(O)[n-]c(=S)[n-]c2=O)cc(C)n1-c1cc(Cc2ccccc2)c([O-])c(Nc2ccccc2)c1 (3D coordinates assigned)
C=c1c(=Cc2c(O)[n-]c(=S)[n-]c2=O)cc(C)n1-c1cc(Cc2ccccc2)c([O-])c(Nc2ccccc2)c1 (optimized conformer: 121.00851186293377 kcal/mol)

>  <smiles>  (56) 
C=c1c(=Cc2c(O)[nH]c(=S)[nH]c2=O)cc(C)n1-c1cc(Cc2ccccc2)c(O)c(Nc2ccccc2)c1

>  <score_type>  (56) 
oracle

>  <origin>  (56) 
adg

>  <m_score__min__energy>  (56) 
-14.59

>  <m_primary>  (56) 
energy

$$$$
56:0
     RDKit          3D

 61 64  0  0  0  0  0  0  0  0999 V2000
   59.1820   35.1670   44.9040 C   0  0  0  0  0  0  0  0  0  0  0  0
   60.0770   34.6430   46.0390 C   0  0  0  0  0  0  0  0  0  0  0  0
   59.4060   33.6910   46.9580 N   0  0  0  0  0  0  0  0  0  0  0  0
   57.9270   33.6880   46.8480 C   0  0  0  0  0  0  0  0  0  0  0  0
   57.4190   32.3340   46.3350 C   0  0  0  0  0  0  0  0  0  0  0  0
   57.0130   32.3970   44.8570 C   0  0  0  0  0  0  0  0  0  0  0  0
   56.8120   31.0840   44.3350 O   0  0  0  0  0  0  0  0  0  0  0  0
   57.3760   29.9060   44.8560 C   0  0  0  0  0  0  0  0  0  0  0  0
   58.7600   29.7600   45.0720 C   0  0  0  0  0  0  0  0  0  0  0  0
   59.2740   28.5620   45.5790 C   0  0  0  0  0  0  0  0  0  0  0  0
   58.4170   27.4980   45.8940 C   0  0  0  0  0  0  0  0  0  0  0  0
   58.9780   26.1920   46.3910 C   0  0  0  0  0  0  0  0  0  0  0  0
   57.9570   25.1440   46.3140 N   0  0  0  0  0  0  0  0  0  0  0  0
   57.4110   24.4770   47.3580 C   0  0  0  0  0  0  0  0  0  0  0  0
   57.7010   24.7510   48.6890 O   0  0  0  0  0  0  0  0  0  0  0  0
   56.5350   23.4870   46.9350 C   0  0  0  0  0  0  0  0  0  0  0  0
   56.5680   23.5600   45.5590 C   0  0  0  0  0  0  0  0  0  0  0  0
   55.8920   22.8010   44.6050 C   0  0  0  0  0  0  0  0  0  0  0  0
   56.1240   23.0880   43.2470 C   0  0  0  0  0  0  0  0  0  0  0  0
   55.4670   22.3450   42.2700 O   0  0  0  0  0  0  0  0  0  0  0  0
   57.0200   24.1220   42.8820 C   0  0  0  0  0  0  0  0  0  0  0  0
   57.6850   24.8740   43.8670 C   0  0  0  0  0  0  0  0  0  0  0  0
   57.4370   24.5660   45.2090 C   0  0  0  0  0  0  0  0  0  0  0  0
   57.0380   27.6450   45.6850 C   0  0  0  0  0  0  0  0  0  0  0  0
   56.5220   28.8420   45.1750 C   0  0  0  0  0  0  0  0  0  0  0  0
   55.1510   28.9690   44.9800 O   0  0  0  0  0  0  0  0  0  0  0  0
   59.8760   33.8010   48.3530 C   0  0  0  0  0  0  0  0  0  0  0  0
   61.3440   33.4640   48.4300 C   0  0  0  0  0  0  0  0  0  0  0  0
   62.1540   34.0800   49.3990 C   0  0  0  0  0  0  0  0  0  0  0  0
   63.5220   33.7960   49.4580 C   0  0  0  0  0  0  0  0  0  0  0  0
   64.0900   32.8980   48.5490 C   0  0  0  0  0  0  0  0  0  0  0  0
   63.2910   32.2810   47.5830 C   0  0  0  0  0  0  0  0  0  0  0  0
   61.9220   32.5630   47.5200 C   0  0  0  0  0  0  0  0  0  0  0  0
   58.3079   35.6788   45.3329 H   0  0  0  0  0  0  0  0  0  0  0  0
   59.7527   35.8736   44.2835 H   0  0  0  0  0  0  0  0  0  0  0  0
   58.8451   34.3235   44.2835 H   0  0  0  0  0  0  0  0  0  0  0  0
   60.9421   34.1345   45.5883 H   0  0  0  0  0  0  0  0  0  0  0  0
   60.3609   35.5167   46.6441 H   0  0  0  0  0  0  0  0  0  0  0  0
   57.4917   33.8840   47.8390 H   0  0  0  0  0  0  0  0  0  0  0  0
   57.6260   34.4695   46.1348 H   0  0  0  0  0  0  0  0  0  0  0  0
   58.2178   31.5869   46.4527 H   0  0  0  0  0  0  0  0  0  0  0  0
   56.5294   32.0598   46.9211 H   0  0  0  0  0  0  0  0  0  0  0  0
   56.0790   32.9704   44.7628 H   0  0  0  0  0  0  0  0  0  0  0  0
   57.8182   32.8853   44.2885 H   0  0  0  0  0  0  0  0  0  0  0  0
   59.4405   30.5927   44.8407 H   0  0  0  0  0  0  0  0  0  0  0  0
   60.3580   28.4539   45.7316 H   0  0  0  0  0  0  0  0  0  0  0  0
   59.8400   25.9065   45.7702 H   0  0  0  0  0  0  0  0  0  0  0  0
   59.2939   26.3108   47.4379 H   0  0  0  0  0  0  0  0  0  0  0  0
   55.9461   22.7982   47.5585 H   0  0  0  0  0  0  0  0  0  0  0  0
   55.1981   22.0018   44.9047 H   0  0  0  0  0  0  0  0  0  0  0  0
   55.8980   22.1490   41.3740 H   0  0  0  0  0  0  0  0  0  0  0  0
   57.1975   24.3390   41.8183 H   0  0  0  0  0  0  0  0  0  0  0  0
   58.3798   25.6807   43.5904 H   0  0  0  0  0  0  0  0  0  0  0  0
   56.3575   26.8143   45.9234 H   0  0  0  0  0  0  0  0  0  0  0  0
   59.7190   34.8294   48.7104 H   0  0  0  0  0  0  0  0  0  0  0  0
   59.3103   33.0975   48.9815 H   0  0  0  0  0  0  0  0  0  0  0  0
   61.7102   34.7884   50.1140 H   0  0  0  0  0  0  0  0  0  0  0  0
   64.1515   34.2792   50.2198 H   0  0  0  0  0  0  0  0  0  0  0  0
   65.1666   32.6772   48.5945 H   0  0  0  0  0  0  0  0  0  0  0  0
   63.7390   31.5724   46.8709 H   0  0  0  0  0  0  0  0  0  0  0  0
   61.2966   32.0780   46.7560 H   0  0  0  0  0  0  0  0  0  0  0  0
  1  2  1  0
  2  3  1  0
  3  4  1  0
  4  5  1  0
  5  6  1  0
  6  7  1  0
  7  8  1  0
  8  9  2  0
  9 10  1  0
 10 11  2  0
 11 12  1  0
 12 13  1  0
 13 14  1  0
 14 15  1  0
 14 16  2  0
 16 17  1  0
 17 18  2  0
 18 19  1  0
 19 20  1  0
 19 21  2  0
 21 22  1  0
 22 23  2  0
 11 24  1  0
 24 25  2  0
 25 26  1  0
  3 27  1  0
 27 28  1  0
 28 29  2  0
 29 30  1  0
 30 31  2  0
 31 32  1  0
 32 33  2  0
 25  8  1  0
 33 28  1  0
 23 13  1  0
 23 17  1  0
  1 34  1  0
  1 35  1  0
  1 36  1  0
  2 37  1  0
  2 38  1  0
  4 39  1  0
  4 40  1  0
  5 41  1  0
  5 42  1  0
  6 43  1  0
  6 44  1  0
  9 45  1  0
 10 46  1  0
 12 47  1  0
 12 48  1  0
 16 49  1  0
 18 50  1  0
 20 51  1  0
 21 52  1  0
 22 53  1  0
 24 54  1  0
 27 55  1  0
 27 56  1  0
 29 57  1  0
 30 58  1  0
 31 59  1  0
 32 60  1  0
 33 61  1  0
M  CHG  2  15  -1  26  -1
M  END
>  <UniqueID>  (57) 
54

>  <SMILES>  (57) 
CCN(CCCOc1ccc(Cn2c([O-])cc3cc(O)ccc32)cc1[O-])Cc1ccccc1

>  <Energy>  (57) 
96.9329741394721

>  <Genealogy>  (57) 
CCN(CCCOc1ccc(Cn2c([O-])cc3cc(O)ccc32)cc1[O-])Cc1ccccc1 (protonated)
CCN(CCCOc1ccc(Cn2c([O-])cc3cc(O)ccc32)cc1[O-])Cc1ccccc1 (3D coordinates assigned)
CCN(CCCOc1ccc(Cn2c([O-])cc3cc(O)ccc32)cc1[O-])Cc1ccccc1 (optimized conformer: 96.9329741394721 kcal/mol)

>  <smiles>  (57) 
CCN(CCCOc1ccc(Cn2c(O)cc3cc(O)ccc32)cc1O)Cc1ccccc1

>  <score_type>  (57) 
oracle

>  <origin>  (57) 
adg

>  <m_score__min__energy>  (57) 
-13.960000000000001

>  <m_primary>  (57) 
energy

$$$$
57:0
     RDKit          3D

 44 46  0  0  0  0  0  0  0  0999 V2000
   63.6860   32.9580   47.4710 C   0  0  0  0  0  0  0  0  0  0  0  0
   62.4350   33.8210   47.6740 C   0  0  0  0  0  0  0  0  0  0  0  0
   61.5410   33.7970   46.4280 C   0  0  0  0  0  0  0  0  0  0  0  0
   61.6660   33.3890   48.9080 C   0  0  0  0  0  0  0  0  0  0  0  0
   60.4640   34.0250   49.2770 C   0  0  0  0  0  0  0  0  0  0  0  0
   59.7670   33.6170   50.4170 C   0  0  0  0  0  0  0  0  0  0  0  0
   60.2660   32.5830   51.2190 C   0  0  0  0  0  0  0  0  0  0  0  0
   59.4900   32.1280   52.3880 C   0  0  0  0  0  0  0  0  0  0  0  0
   58.2990   31.4820   52.3520 C   0  0  0  0  0  0  0  0  0  0  0  0
   57.5360   31.4620   53.4890 N   0  0  0  0  0  0  0  0  0  0  0  0
   56.3180   30.8560   53.5370 C   0  0  0  0  0  0  0  0  0  0  0  0
   55.6540   30.8840   54.6100 O   0  0  0  0  0  0  0  0  0  0  0  0
   55.8150   30.2150   52.3880 C   0  0  0  0  0  0  0  0  0  0  0  0
   54.6170   29.5920   52.3960 C   0  0  0  0  0  0  0  0  0  0  0  0
   53.3140   30.2880   52.5080 C   0  0  0  0  0  0  0  0  0  0  0  0
   52.3870   29.9730   53.5190 C   0  0  0  0  0  0  0  0  0  0  0  0
   51.1530   30.6310   53.5750 C   0  0  0  0  0  0  0  0  0  0  0  0
   50.8280   31.5930   52.6160 C   0  0  0  0  0  0  0  0  0  0  0  0
   51.7310   31.8920   51.5920 C   0  0  0  0  0  0  0  0  0  0  0  0
   51.4010   32.8410   50.6330 O   0  0  0  0  0  0  0  0  0  0  0  0
   52.9650   31.2370   51.5330 C   0  0  0  0  0  0  0  0  0  0  0  0
   56.5890   30.1990   51.2720 N   0  0  0  0  0  0  0  0  0  0  0  0
   57.8040   30.7970   51.2140 C   0  0  0  0  0  0  0  0  0  0  0  0
   58.4750   30.6940   50.1530 O   0  0  0  0  0  0  0  0  0  0  0  0
   61.4460   31.9250   50.8400 C   0  0  0  0  0  0  0  0  0  0  0  0
   62.1460   32.3310   49.7000 C   0  0  0  0  0  0  0  0  0  0  0  0
   64.0982   32.6737   48.4504 H   0  0  0  0  0  0  0  0  0  0  0  0
   63.4186   32.0513   46.9085 H   0  0  0  0  0  0  0  0  0  0  0  0
   64.4387   33.5299   46.9085 H   0  0  0  0  0  0  0  0  0  0  0  0
   62.7643   34.8586   47.8318 H   0  0  0  0  0  0  0  0  0  0  0  0
   60.4850   33.7687   46.7349 H   0  0  0  0  0  0  0  0  0  0  0  0
   61.7243   34.7004   45.8278 H   0  0  0  0  0  0  0  0  0  0  0  0
   61.7725   32.9047   45.8278 H   0  0  0  0  0  0  0  0  0  0  0  0
   60.0715   34.8489   48.6629 H   0  0  0  0  0  0  0  0  0  0  0  0
   58.8214   34.1104   50.6860 H   0  0  0  0  0  0  0  0  0  0  0  0
   59.9174   32.3318   53.3809 H   0  0  0  0  0  0  0  0  0  0  0  0
   57.8760   31.9380   54.3580 H   0  0  0  0  0  0  0  0  0  0  0  0
   54.6080   28.4951   52.3139 H   0  0  0  0  0  0  0  0  0  0  0  0
   52.6334   29.2064   54.2684 H   0  0  0  0  0  0  0  0  0  0  0  0
   50.4380   30.3901   54.3755 H   0  0  0  0  0  0  0  0  0  0  0  0
   49.8613   32.1154   52.6667 H   0  0  0  0  0  0  0  0  0  0  0  0
   53.6670   31.4664   50.7178 H   0  0  0  0  0  0  0  0  0  0  0  0
   61.8222   31.0854   51.4430 H   0  0  0  0  0  0  0  0  0  0  0  0
   63.0788   31.8192   49.4207 H   0  0  0  0  0  0  0  0  0  0  0  0
  1  2  1  0
  2  3  1  0
  2  4  1  0
  4  5  2  0
  5  6  1  0
  6  7  2  0
  7  8  1  0
  8  9  2  3
  9 10  1  0
 10 11  1  0
 11 12  2  0
 11 13  1  0
 13 14  2  3
 14 15  1  0
 15 16  2  0
 16 17  1  0
 17 18  2  0
 18 19  1  0
 19 20  1  0
 19 21  2  0
 13 22  1  0
 22 23  1  0
 23 24  2  0
  7 25  1  0
 25 26  2  0
 26  4  1  0
 23  9  1  0
 21 15  1  0
  1 27  1  0
  1 28  1  0
  1 29  1  0
  2 30  1  0
  3 31  1  0
  3 32  1  0
  3 33  1  0
  5 34  1  0
  6 35  1  0
  8 36  1  0
 10 37  1  0
 14 38  1  0
 16 39  1  0
 17 40  1  0
 18 41  1  0
 21 42  1  0
 25 43  1  0
 26 44  1  0
M  CHG  2  20  -1  22  -1
M  END
>  <UniqueID>  (58) 
55

>  <SMILES>  (58) 
CC(C)c1ccc(C=c2[nH]c(=O)c(=Cc3cccc([O-])c3)[n-]c2=O)cc1

>  <Energy>  (58) 
65.45642773293653

>  <Genealogy>  (58) 
CC(C)c1ccc(C=c2[nH]c(=O)c(=Cc3cccc([O-])c3)[n-]c2=O)cc1 (protonated)
CC(C)c1ccc(C=c2[nH]c(=O)c(=Cc3cccc([O-])c3)[n-]c2=O)cc1 (3D coordinates assigned)
CC(C)c1ccc(C=c2[nH]c(=O)c(=Cc3cccc([O-])c3)[n-]c2=O)cc1 (optimized conformer: 65.45642773293653 kcal/mol)

>  <smiles>  (58) 
CC(C)c1ccc(C=c2[nH]c(=O)c(=Cc3cccc(O)c3)[nH]c2=O)cc1

>  <score_type>  (58) 
oracle

>  <origin>  (58) 
adg

>  <m_score__min__energy>  (58) 
-12.74

>  <m_primary>  (58) 
energy

$$$$
58:0
     RDKit          3D

 79 82  0  0  0  0  0  0  0  0999 V2000
   59.3942   35.3264   47.4288 H   0  0  0  0  0  0  0  0  0  0  0  0
   58.9890   34.5760   46.7340 C   0  0  0  0  0  0  0  0  0  0  0  0
   58.2940   33.4700   47.2290 C   0  0  0  0  0  0  0  0  0  0  0  0
   58.1579   33.3469   48.3136 H   0  0  0  0  0  0  0  0  0  0  0  0
   57.7710   32.5190   46.3470 C   0  0  0  0  0  0  0  0  0  0  0  0
   57.2309   31.6451   46.7403 H   0  0  0  0  0  0  0  0  0  0  0  0
   57.9330   32.6760   44.9610 C   0  0  0  0  0  0  0  0  0  0  0  0
   57.3990   31.6450   44.0090 C   0  0  0  0  0  0  0  0  0  0  0  0
   58.2365   31.1571   43.4888 H   0  0  0  0  0  0  0  0  0  0  0  0
   56.7432   32.1308   43.2715 H   0  0  0  0  0  0  0  0  0  0  0  0
   56.6390   30.6450   44.7530 N   0  0  0  0  0  0  0  0  0  0  0  0
   57.1230   29.5030   45.1400 C   0  0  0  0  0  0  0  0  0  0  0  0
   56.2910   28.4400   45.2840 N   0  0  0  0  0  0  0  0  0  0  0  0
   56.7750   27.2370   45.6900 C   0  0  0  0  0  0  0  0  0  0  0  0
   55.8750   26.0840   45.8680 C   0  0  0  0  0  0  0  0  0  0  0  0
   54.6330   26.2860   45.9690 O   0  0  0  0  0  0  0  0  0  0  0  0
   56.3900   24.7440   45.9110 N   0  0  0  0  0  0  0  0  0  0  0  0
   57.4230   24.5880   45.8460 H   0  0  0  0  0  0  0  0  0  0  0  0
   55.4900   23.5920   45.9950 C   0  0  0  0  0  0  0  0  0  0  0  0
   54.5145   23.8660   45.5668 H   0  0  0  0  0  0  0  0  0  0  0  0
   55.3817   23.3090   47.0524 H   0  0  0  0  0  0  0  0  0  0  0  0
   56.0570   22.3920   45.2240 C   0  0  0  0  0  0  0  0  0  0  0  0
   55.2587   21.9462   44.6125 H   0  0  0  0  0  0  0  0  0  0  0  0
   56.4404   21.6571   45.9471 H   0  0  0  0  0  0  0  0  0  0  0  0
   57.1670   22.8130   44.3410 N   0  0  0  0  0  0  0  0  0  0  0  0
   58.0720   21.6850   44.0520 C   0  0  0  0  0  0  0  0  0  0  0  0
   58.4242   21.2460   44.9971 H   0  0  0  0  0  0  0  0  0  0  0  0
   57.5329   20.9218   43.4717 H   0  0  0  0  0  0  0  0  0  0  0  0
   58.9340   22.0459   43.4717 H   0  0  0  0  0  0  0  0  0  0  0  0
   56.6380   23.3480   43.0770 C   0  0  0  0  0  0  0  0  0  0  0  0
   55.8796   24.1151   43.2924 H   0  0  0  0  0  0  0  0  0  0  0  0
   57.4581   23.7960   42.4967 H   0  0  0  0  0  0  0  0  0  0  0  0
   56.1808   22.5330   42.4967 H   0  0  0  0  0  0  0  0  0  0  0  0
   58.0990   27.1050   45.9560 N   0  0  0  0  0  0  0  0  0  0  0  0
   58.9410   28.1650   45.8250 C   0  0  0  0  0  0  0  0  0  0  0  0
   60.2070   28.0550   46.0990 N   0  0  0  0  0  0  0  0  0  0  0  0
   60.7550   27.3210   47.2410 C   0  0  0  0  0  0  0  0  0  0  0  0
   60.6006   26.2431   47.0851 H   0  0  0  0  0  0  0  0  0  0  0  0
   61.8289   27.5449   47.3229 H   0  0  0  0  0  0  0  0  0  0  0  0
   60.0620   27.7460   48.5420 C   0  0  0  0  0  0  0  0  0  0  0  0
   59.0400   28.0723   48.2992 H   0  0  0  0  0  0  0  0  0  0  0  0
   60.0795   26.8739   49.2122 H   0  0  0  0  0  0  0  0  0  0  0  0
   60.7760   28.8970   49.2860 C   0  0  0  0  0  0  0  0  0  0  0  0
   60.6419   28.7369   50.3660 H   0  0  0  0  0  0  0  0  0  0  0  0
   61.8257   28.8622   48.9591 H   0  0  0  0  0  0  0  0  0  0  0  0
   60.2940   30.2640   48.9630 N   0  0  0  0  0  0  0  0  0  0  0  0
   58.8900   30.5270   49.3650 C   0  0  0  0  0  0  0  0  0  0  0  0
   58.2865   30.7310   48.4683 H   0  0  0  0  0  0  0  0  0  0  0  0
   58.4933   29.6450   49.8891 H   0  0  0  0  0  0  0  0  0  0  0  0
   58.8320   31.7190   50.2880 C   0  0  0  0  0  0  0  0  0  0  0  0
   59.7670   32.7620   50.1700 C   0  0  0  0  0  0  0  0  0  0  0  0
   60.5288   32.7275   49.3772 H   0  0  0  0  0  0  0  0  0  0  0  0
   59.7330   33.8420   51.0550 C   0  0  0  0  0  0  0  0  0  0  0  0
   60.4770   34.6474   50.9673 H   0  0  0  0  0  0  0  0  0  0  0  0
   58.7550   33.9010   52.0520 C   0  0  0  0  0  0  0  0  0  0  0  0
   58.7337   34.7494   52.7518 H   0  0  0  0  0  0  0  0  0  0  0  0
   57.8040   32.8820   52.1600 C   0  0  0  0  0  0  0  0  0  0  0  0
   57.0304   32.9322   52.9404 H   0  0  0  0  0  0  0  0  0  0  0  0
   57.8360   31.8000   51.2770 C   0  0  0  0  0  0  0  0  0  0  0  0
   57.0778   31.0070   51.3559 H   0  0  0  0  0  0  0  0  0  0  0  0
   60.6200   30.7090   47.5900 C   0  0  0  0  0  0  0  0  0  0  0  0
   60.9261   29.8388   46.9908 H   0  0  0  0  0  0  0  0  0  0  0  0
   59.7294   31.1800   47.1485 H   0  0  0  0  0  0  0  0  0  0  0  0
   61.7420   31.7150   47.6120 C   0  0  0  0  0  0  0  0  0  0  0  0
   62.7740   31.5940   48.5550 C   0  0  0  0  0  0  0  0  0  0  0  0
   62.7927   30.7331   49.2394 H   0  0  0  0  0  0  0  0  0  0  0  0
   63.7800   32.5650   48.6280 C   0  0  0  0  0  0  0  0  0  0  0  0
   64.5884   32.4634   49.3670 H   0  0  0  0  0  0  0  0  0  0  0  0
   63.7590   33.6640   47.7630 C   0  0  0  0  0  0  0  0  0  0  0  0
   64.5474   34.4285   47.8252 H   0  0  0  0  0  0  0  0  0  0  0  0
   62.7360   33.7900   46.8200 C   0  0  0  0  0  0  0  0  0  0  0  0
   62.7191   34.6543   46.1397 H   0  0  0  0  0  0  0  0  0  0  0  0
   61.7320   32.8170   46.7400 C   0  0  0  0  0  0  0  0  0  0  0  0
   60.9321   32.9157   45.9914 H   0  0  0  0  0  0  0  0  0  0  0  0
   58.4500   29.3610   45.4120 N   0  0  0  0  0  0  0  0  0  0  0  0
   58.6490   33.7820   44.4720 C   0  0  0  0  0  0  0  0  0  0  0  0
   58.7999   33.9020   43.3890 H   0  0  0  0  0  0  0  0  0  0  0  0
   59.1700   34.7300   45.3570 C   0  0  0  0  0  0  0  0  0  0  0  0
   59.7231   35.5982   44.9692 H   0  0  0  0  0  0  0  0  0  0  0  0
  1  2  1  0
  2  3  2  0
  3  4  1  0
  3  5  1  0
  5  6  1  0
  5  7  2  0
  7  8  1  0
  8  9  1  0
  8 10  1  0
  8 11  1  0
 11 12  2  0
 12 13  1  0
 13 14  2  0
 14 15  1  0
 15 16  2  0
 15 17  1  0
 17 18  1  0
 17 19  1  0
 19 20  1  0
 19 21  1  0
 19 22  1  0
 22 23  1  0
 22 24  1  0
 22 25  1  0
 25 26  1  0
 26 27  1  0
 26 28  1  0
 26 29  1  0
 25 30  1  0
 30 31  1  0
 30 32  1  0
 30 33  1  0
 14 34  1  0
 34 35  1  0
 35 36  2  0
 36 37  1  0
 37 38  1  0
 37 39  1  0
 37 40  1  0
 40 41  1  0
 40 42  1  0
 40 43  1  0
 43 44  1  0
 43 45  1  0
 43 46  1  0
 46 47  1  0
 47 48  1  0
 47 49  1  0
 47 50  1  0
 50 51  2  0
 51 52  1  0
 51 53  1  0
 53 54  1  0
 53 55  2  0
 55 56  1  0
 55 57  1  0
 57 58  1  0
 57 59  2  0
 59 60  1  0
 46 61  1  0
 61 62  1  0
 61 63  1  0
 61 64  1  0
 64 65  2  0
 65 66  1  0
 65 67  1  0
 67 68  1  0
 67 69  2  0
 69 70  1  0
 69 71  1  0
 71 72  1  0
 71 73  2  0
 73 74  1  0
 35 75  1  0
  7 76  1  0
 76 77  1  0
 76 78  2  0
 78 79  1  0
 78  2  1  0
 75 12  1  0
 59 50  1  0
 73 64  1  0
M  CHG  2  34  -1  75  -1
M  END
>  <UniqueID>  (59) 
56

>  <SMILES>  (59) 
CN(C)CCNC(=O)c1n/c(=N/Cc2ccccc2)[n-]/c(=N/CCCN(Cc2ccccc2)Cc2ccccc2)[n-]1

>  <Energy>  (59) 
78.52770852445379

>  <Genealogy>  (59) 
CN(C)CCNC(=O)c1nc(=NCc2ccccc2)[n-]c(=NCCCN(Cc2ccccc2)Cc2ccccc2)[n-]1 (protonated)
CN(C)CCNC(=O)c1n/c(=N/Cc2ccccc2)[n-]/c(=N/CCCN(Cc2ccccc2)Cc2ccccc2)[n-]1 (cis-trans isomerization)
CN(C)CCNC(=O)c1n/c(=N/Cc2ccccc2)[n-]/c(=N/CCCN(Cc2ccccc2)Cc2ccccc2)[n-]1 (3D coordinates assigned)
CN(C)CCNC(=O)c1n/c(=N/Cc2ccccc2)[n-]/c(=N/CCCN(Cc2ccccc2)Cc2ccccc2)[n-]1 (optimized conformer: 78.52770852445379 kcal/mol)

>  <smiles>  (59) 
CN(C)CCNC(=O)c1nc(=NCc2ccccc2)[nH]c(=NCCCN(Cc2ccccc2)Cc2ccccc2)[nH]1

>  <score_type>  (59) 
oracle

>  <origin>  (59) 
adg

>  <m_score__min__energy>  (59) 
-13.300000000000001

>  <m_primary>  (59) 
energy

$$$$
59:0
     RDKit          3D

 40 42  0  0  0  0  0  0  0  0999 V2000
   55.9150   23.2450   43.0630 C   0  0  0  0  0  0  0  0  0  0  0  0
   55.3650   22.7710   44.2860 O   0  0  0  0  0  0  0  0  0  0  0  0
   54.4860   23.5300   45.0650 C   0  0  0  0  0  0  0  0  0  0  0  0
   53.2390   23.4000   44.9300 O   0  0  0  0  0  0  0  0  0  0  0  0
   54.9840   24.5040   45.9850 N   0  0  0  0  0  0  0  0  0  0  0  0
   56.1390   25.3370   45.8010 C   0  0  0  0  0  0  0  0  0  0  0  0
   57.3980   24.8010   45.4770 C   0  0  0  0  0  0  0  0  0  0  0  0
   58.4990   25.6480   45.3200 C   0  0  0  0  0  0  0  0  0  0  0  0
   58.3580   27.0260   45.5010 C   0  0  0  0  0  0  0  0  0  0  0  0
   57.1180   27.5710   45.8540 C   0  0  0  0  0  0  0  0  0  0  0  0
   57.0220   28.9890   46.0500 N   0  0  0  0  0  0  0  0  0  0  0  0
   56.9380   30.1720   44.7840 S   0  0  0  0  0  0  0  0  0  0  0  0
   57.6510   29.6400   43.5730 O   0  0  0  0  0  0  0  0  0  0  0  0
   55.4950   30.4480   44.4610 O   0  0  0  0  0  0  0  0  0  0  0  0
   57.7160   31.6790   45.2990 C   0  0  0  0  0  0  0  0  0  0  0  0
   57.0790   32.8930   45.0020 C   0  0  0  0  0  0  0  0  0  0  0  0
   57.6380   34.1100   45.3880 C   0  0  0  0  0  0  0  0  0  0  0  0
   58.8510   34.1490   46.0810 C   0  0  0  0  0  0  0  0  0  0  0  0
   59.3940   35.3800   46.4570 O   0  0  0  0  0  0  0  0  0  0  0  0
   59.5180   32.9490   46.3910 C   0  0  0  0  0  0  0  0  0  0  0  0
   60.7410   32.9720   47.0850 C   0  0  0  0  0  0  0  0  0  0  0  0
   61.4070   31.7840   47.3860 C   0  0  0  0  0  0  0  0  0  0  0  0
   60.8670   30.5610   46.9970 C   0  0  0  0  0  0  0  0  0  0  0  0
   59.6560   30.5120   46.3070 C   0  0  0  0  0  0  0  0  0  0  0  0
   58.9550   31.6980   45.9950 C   0  0  0  0  0  0  0  0  0  0  0  0
   56.0110   26.7170   46.0100 C   0  0  0  0  0  0  0  0  0  0  0  0
   56.7323   23.9494   43.2771 H   0  0  0  0  0  0  0  0  0  0  0  0
   56.3054   22.3958   42.4830 H   0  0  0  0  0  0  0  0  0  0  0  0
   55.1327   23.7565   42.4830 H   0  0  0  0  0  0  0  0  0  0  0  0
   57.5165   23.7152   45.3471 H   0  0  0  0  0  0  0  0  0  0  0  0
   59.4799   25.2279   45.0530 H   0  0  0  0  0  0  0  0  0  0  0  0
   59.2268   27.6869   45.3653 H   0  0  0  0  0  0  0  0  0  0  0  0
   56.1240   32.8843   44.4563 H   0  0  0  0  0  0  0  0  0  0  0  0
   57.1193   35.0491   45.1448 H   0  0  0  0  0  0  0  0  0  0  0  0
   59.0080   35.9200   47.2220 H   0  0  0  0  0  0  0  0  0  0  0  0
   61.1757   33.9344   47.3928 H   0  0  0  0  0  0  0  0  0  0  0  0
   62.3614   31.8134   47.9322 H   0  0  0  0  0  0  0  0  0  0  0  0
   61.3987   29.6280   47.2353 H   0  0  0  0  0  0  0  0  0  0  0  0
   59.2423   29.5393   46.0025 H   0  0  0  0  0  0  0  0  0  0  0  0
   55.0359   27.1362   46.2987 H   0  0  0  0  0  0  0  0  0  0  0  0
  1  2  1  0
  2  3  1  0
  3  4  2  0
  3  5  1  0
  5  6  1  0
  6  7  2  0
  7  8  1  0
  8  9  2  0
  9 10  1  0
 10 11  1  0
 11 12  1  0
 12 13  2  0
 12 14  2  0
 12 15  1  0
 15 16  2  0
 16 17  1  0
 17 18  2  0
 18 19  1  0
 18 20  1  0
 20 21  2  0
 21 22  1  0
 22 23  2  0
 23 24  1  0
 24 25  2  0
 10 26  2  0
 26  6  1  0
 25 15  1  0
 25 20  1  0
  1 27  1  0
  1 28  1  0
  1 29  1  0
  7 30  1  0
  8 31  1  0
  9 32  1  0
 16 33  1  0
 17 34  1  0
 19 35  1  0
 21 36  1  0
 22 37  1  0
 23 38  1  0
 24 39  1  0
 26 40  1  0
M  CHG  2   5  -1  11  -1
M  END
>  <UniqueID>  (60) 
57

>  <SMILES>  (60) 
COC(=O)[N-]c1cccc([N-]S(=O)(=O)c2ccc(O)c3ccccc23)c1

>  <Energy>  (60) 
54.33381935625464

>  <Genealogy>  (60) 
COC(=O)[N-]c1cccc([N-]S(=O)(=O)c2ccc(O)c3ccccc23)c1 (protonated)
COC(=O)[N-]c1cccc([N-]S(=O)(=O)c2ccc(O)c3ccccc23)c1 (3D coordinates assigned)
COC(=O)[N-]c1cccc([N-]S(=O)(=O)c2ccc(O)c3ccccc23)c1 (optimized conformer: 54.33381935625464 kcal/mol)

>  <smiles>  (60) 
COC(=O)Nc1cccc(NS(=O)(=O)c2ccc(O)c3ccccc23)c1

>  <score_type>  (60) 
oracle

>  <origin>  (60) 
adg

>  <m_score__min__energy>  (60) 
-11.66

>  <m_primary>  (60) 
energy

$$$$
60:0
     RDKit          3D

 59 61  0  0  0  0  0  0  0  0999 V2000
   63.6490   33.1190   46.7970 C   0  0  0  0  0  0  0  0  0  0  0  0
   62.9770   33.7040   48.0550 C   0  0  0  0  0  0  0  0  0  0  0  0
   63.8540   33.3720   49.2820 C   0  0  0  0  0  0  0  0  0  0  0  0
   61.5520   33.2590   48.1570 N   0  0  2  0  0  0  0  0  0  0  0  0
   60.5540   34.3560   48.0260 C   0  0  0  0  0  0  0  0  0  0  0  0
   59.5760   34.2150   46.8800 C   0  0  0  0  0  0  0  0  0  0  0  0
   58.2100   33.9970   47.1350 C   0  0  0  0  0  0  0  0  0  0  0  0
   57.3100   33.8270   46.0770 C   0  0  0  0  0  0  0  0  0  0  0  0
   57.7650   33.8610   44.7590 C   0  0  0  0  0  0  0  0  0  0  0  0
   59.1250   34.0520   44.4950 C   0  0  0  0  0  0  0  0  0  0  0  0
   60.0310   34.2110   45.5510 C   0  0  0  0  0  0  0  0  0  0  0  0
   61.2770   32.3780   49.2820 C   0  0  0  0  0  0  0  0  0  0  0  0
   60.8550   32.8310   50.3320 O   0  0  0  0  0  0  0  0  0  0  0  0
   61.4720   30.8810   49.1840 C   0  0  0  0  0  0  0  0  0  0  0  0
   61.5860   30.4960   47.8140 O   0  0  0  0  0  0  0  0  0  0  0  0
   60.4760   30.2980   46.9870 C   0  0  0  0  0  0  0  0  0  0  0  0
   59.3010   31.0480   47.1410 C   0  0  0  0  0  0  0  0  0  0  0  0
   58.1640   30.7340   46.3940 C   0  0  0  0  0  0  0  0  0  0  0  0
   58.1870   29.6580   45.4960 C   0  0  0  0  0  0  0  0  0  0  0  0
   56.7090   29.1040   44.7230 S   0  0  0  0  0  0  0  0  0  0  0  0
   55.6860   30.2000   44.6570 O   0  0  0  0  0  0  0  0  0  0  0  0
   57.0230   28.6640   43.3220 O   0  0  0  0  0  0  0  0  0  0  0  0
   56.0860   27.7540   45.6150 N   0  0  0  0  0  0  0  0  0  0  0  0
   56.6490   26.4320   45.6260 C   0  0  0  0  0  0  0  0  0  0  0  0
   57.5950   26.0100   44.6710 C   0  0  0  0  0  0  0  0  0  0  0  0
   58.1580   24.7320   44.7500 C   0  0  0  0  0  0  0  0  0  0  0  0
   57.7870   23.8650   45.7830 C   0  0  0  0  0  0  0  0  0  0  0  0
   56.8330   24.2610   46.7360 C   0  0  0  0  0  0  0  0  0  0  0  0
   56.4420   23.3390   47.8270 C   0  0  0  0  0  0  0  0  0  0  0  0
   55.2770   23.3770   48.3120 O   0  0  0  0  0  0  0  0  0  0  0  0
   57.3500   22.4090   48.3260 O   0  0  0  0  0  0  0  0  0  0  0  0
   56.2750   25.5530   46.6520 C   0  0  0  0  0  0  0  0  0  0  0  0
   59.3810   28.9550   45.2910 C   0  0  0  0  0  0  0  0  0  0  0  0
   60.5270   29.2900   46.0140 C   0  0  0  0  0  0  0  0  0  0  0  0
   64.4472   32.4242   47.0972 H   0  0  0  0  0  0  0  0  0  0  0  0
   62.8999   32.5803   46.1981 H   0  0  0  0  0  0  0  0  0  0  0  0
   64.0794   33.9351   46.1981 H   0  0  0  0  0  0  0  0  0  0  0  0
   62.9137   34.8007   47.9977 H   0  0  0  0  0  0  0  0  0  0  0  0
   63.2916   33.5849   50.2031 H   0  0  0  0  0  0  0  0  0  0  0  0
   64.1296   32.3073   49.2585 H   0  0  0  0  0  0  0  0  0  0  0  0
   64.7655   33.9873   49.2585 H   0  0  0  0  0  0  0  0  0  0  0  0
   61.3690   32.6950   47.2940 H   0  0  0  0  0  0  0  0  0  0  0  0
   59.9760   34.4015   48.9608 H   0  0  0  0  0  0  0  0  0  0  0  0
   61.1335   35.2674   47.8174 H   0  0  0  0  0  0  0  0  0  0  0  0
   57.8469   33.9599   48.1727 H   0  0  0  0  0  0  0  0  0  0  0  0
   56.2419   33.6663   46.2852 H   0  0  0  0  0  0  0  0  0  0  0  0
   57.0549   33.7377   43.9280 H   0  0  0  0  0  0  0  0  0  0  0  0
   59.4839   34.0774   43.4555 H   0  0  0  0  0  0  0  0  0  0  0  0
   61.1034   34.3333   45.3389 H   0  0  0  0  0  0  0  0  0  0  0  0
   62.3891   30.5965   49.7206 H   0  0  0  0  0  0  0  0  0  0  0  0
   60.6063   30.3722   49.6330 H   0  0  0  0  0  0  0  0  0  0  0  0
   59.2751   31.8864   47.8526 H   0  0  0  0  0  0  0  0  0  0  0  0
   57.2483   31.3323   46.5104 H   0  0  0  0  0  0  0  0  0  0  0  0
   57.8925   26.6894   43.8587 H   0  0  0  0  0  0  0  0  0  0  0  0
   58.8935   24.4084   43.9988 H   0  0  0  0  0  0  0  0  0  0  0  0
   58.2448   22.8670   45.8499 H   0  0  0  0  0  0  0  0  0  0  0  0
   55.5368   25.8754   47.4011 H   0  0  0  0  0  0  0  0  0  0  0  0
   59.4157   28.1359   44.5576 H   0  0  0  0  0  0  0  0  0  0  0  0
   61.4722   28.7619   45.8199 H   0  0  0  0  0  0  0  0  0  0  0  0
  1  2  1  0
  2  3  1  0
  2  4  1  0
  4  5  1  0
  5  6  1  0
  6  7  2  0
  7  8  1  0
  8  9  2  0
  9 10  1  0
 10 11  2  0
  4 12  1  0
 12 13  2  0
 12 14  1  0
 14 15  1  0
 15 16  1  0
 16 17  2  0
 17 18  1  0
 18 19  2  0
 19 20  1  0
 20 21  2  0
 20 22  2  0
 20 23  1  0
 23 24  1  0
 24 25  2  0
 25 26  1  0
 26 27  2  0
 27 28  1  0
 28 29  1  0
 29 30  2  0
 29 31  1  0
 28 32  2  0
 19 33  1  0
 33 34  2  0
 11  6  1  0
 34 16  1  0
 32 24  1  0
  1 35  1  0
  1 36  1  0
  1 37  1  0
  2 38  1  0
  3 39  1  0
  3 40  1  0
  3 41  1  0
  4 42  1  6
  5 43  1  0
  5 44  1  0
  7 45  1  0
  8 46  1  0
  9 47  1  0
 10 48  1  0
 11 49  1  0
 14 50  1  0
 14 51  1  0
 17 52  1  0
 18 53  1  0
 25 54  1  0
 26 55  1  0
 27 56  1  0
 32 57  1  0
 33 58  1  0
 34 59  1  0
M  CHG  3   4   1  23  -1  31  -1
M  END
>  <UniqueID>  (61) 
58

>  <SMILES>  (61) 
CC(C)[N@H+](Cc1ccccc1)C(=O)COc1ccc(S(=O)(=O)[N-]c2cccc(C(=O)[O-])c2)cc1

>  <Energy>  (61) 
69.16608210663198

>  <Genealogy>  (61) 
CC(C)[NH+](Cc1ccccc1)C(=O)COc1ccc(S(=O)(=O)[N-]c2cccc(C(=O)[O-])c2)cc1 (protonated)
CC(C)[N@H+](Cc1ccccc1)C(=O)COc1ccc(S(=O)(=O)[N-]c2cccc(C(=O)[O-])c2)cc1 (chirality)
CC(C)[N@H+](Cc1ccccc1)C(=O)COc1ccc(S(=O)(=O)[N-]c2cccc(C(=O)[O-])c2)cc1 (3D coordinates assigned)
CC(C)[N@H+](Cc1ccccc1)C(=O)COc1ccc(S(=O)(=O)[N-]c2cccc(C(=O)[O-])c2)cc1 (optimized conformer: 69.16608210663198 kcal/mol)

>  <smiles>  (61) 
CC(C)N(Cc1ccccc1)C(=O)COc1ccc(S(=O)(=O)Nc2cccc(C(=O)O)c2)cc1

>  <score_type>  (61) 
oracle

>  <origin>  (61) 
adg

>  <m_score__min__energy>  (61) 
-11.83

>  <m_primary>  (61) 
energy

$$$$
61:0
     RDKit          3D

 57 60  0  0  0  0  0  0  0  0999 V2000
   55.5590   23.1780   47.9820 C   0  0  0  0  0  0  0  0  0  0  0  0
   56.6460   23.9790   47.2720 C   0  0  0  0  0  0  0  0  0  0  0  0
   56.1160   25.1960   46.7470 O   0  0  0  0  0  0  0  0  0  0  0  0
   56.7320   26.0100   45.7810 C   0  0  0  0  0  0  0  0  0  0  0  0
   57.4840   25.3850   44.7810 C   0  0  0  0  0  0  0  0  0  0  0  0
   58.1170   26.1420   43.7930 C   0  0  0  0  0  0  0  0  0  0  0  0
   58.0040   27.5340   43.7950 C   0  0  0  0  0  0  0  0  0  0  0  0
   57.2550   28.1870   44.7890 C   0  0  0  0  0  0  0  0  0  0  0  0
   57.1460   29.6670   44.7750 C   0  0  0  0  0  0  0  0  0  0  0  0
   58.1550   30.5820   45.0280 C   0  0  0  0  0  0  0  0  0  0  0  0
   57.5280   31.8010   44.8910 C   0  0  0  0  0  0  0  0  0  0  0  0
   58.1570   33.1480   45.0700 C   0  0  0  0  0  0  0  0  0  0  0  0
   58.3100   33.4710   46.5060 N   0  0  0  0  0  0  0  0  0  0  0  0
   58.9620   34.7800   46.7410 C   0  0  0  0  0  0  0  0  0  0  0  0
   60.4640   34.7740   46.3880 C   0  0  0  0  0  0  0  0  0  0  0  0
   61.1430   33.4180   46.6830 C   0  0  0  0  0  0  0  0  0  0  0  0
   62.5840   33.6230   47.0800 C   0  0  0  0  0  0  0  0  0  0  0  0
   63.3690   34.2360   46.3050 O   0  0  0  0  0  0  0  0  0  0  0  0
   63.0760   33.0600   48.3050 N   0  0  0  0  0  0  0  0  0  0  0  0
   64.4860   33.1190   48.6780 C   0  0  0  0  0  0  0  0  0  0  0  0
   64.7540   32.1990   49.8260 C   0  0  0  0  0  0  0  0  0  0  0  0
   65.9740   32.0160   50.4460 C   0  0  0  0  0  0  0  0  0  0  0  0
   65.7420   31.1050   51.4540 C   0  0  0  0  0  0  0  0  0  0  0  0
   64.3990   30.7920   51.3870 C   0  0  0  0  0  0  0  0  0  0  0  0
   63.8370   31.4610   50.4070 O   0  0  0  0  0  0  0  0  0  0  0  0
   60.3680   32.6370   47.7520 C   0  0  0  0  0  0  0  0  0  0  0  0
   58.9230   32.3620   47.2860 C   0  0  0  0  0  0  0  0  0  0  0  0
   56.2690   31.6030   44.5850 O   0  0  0  0  0  0  0  0  0  0  0  0
   56.0030   30.3320   44.5060 N   0  0  0  0  0  0  0  0  0  0  0  0
   56.6160   27.4150   45.7790 C   0  0  0  0  0  0  0  0  0  0  0  0
   55.6863   23.2718   49.0706 H   0  0  0  0  0  0  0  0  0  0  0  0
   54.5706   23.5654   47.6937 H   0  0  0  0  0  0  0  0  0  0  0  0
   55.6363   22.1193   47.6937 H   0  0  0  0  0  0  0  0  0  0  0  0
   57.4473   24.2136   47.9881 H   0  0  0  0  0  0  0  0  0  0  0  0
   57.0410   23.3778   46.4398 H   0  0  0  0  0  0  0  0  0  0  0  0
   57.5775   24.2890   44.7727 H   0  0  0  0  0  0  0  0  0  0  0  0
   58.7062   25.6406   43.0111 H   0  0  0  0  0  0  0  0  0  0  0  0
   58.5048   28.1236   43.0130 H   0  0  0  0  0  0  0  0  0  0  0  0
   59.2073   30.3825   45.2788 H   0  0  0  0  0  0  0  0  0  0  0  0
   59.1480   33.1493   44.5927 H   0  0  0  0  0  0  0  0  0  0  0  0
   57.5070   33.9046   44.6062 H   0  0  0  0  0  0  0  0  0  0  0  0
   58.4592   35.5386   46.1232 H   0  0  0  0  0  0  0  0  0  0  0  0
   58.8759   35.0040   47.8145 H   0  0  0  0  0  0  0  0  0  0  0  0
   60.5740   34.9964   45.3163 H   0  0  0  0  0  0  0  0  0  0  0  0
   60.9545   35.5333   47.0148 H   0  0  0  0  0  0  0  0  0  0  0  0
   61.1305   32.8147   45.7633 H   0  0  0  0  0  0  0  0  0  0  0  0
   62.4130   32.5700   48.9460 H   0  0  0  0  0  0  0  0  0  0  0  0
   65.1024   32.8170   47.8185 H   0  0  0  0  0  0  0  0  0  0  0  0
   64.7364   34.1479   48.9758 H   0  0  0  0  0  0  0  0  0  0  0  0
   66.9299   32.4961   50.1895 H   0  0  0  0  0  0  0  0  0  0  0  0
   66.4784   30.7075   52.1679 H   0  0  0  0  0  0  0  0  0  0  0  0
   63.8786   30.0886   52.0537 H   0  0  0  0  0  0  0  0  0  0  0  0
   60.8757   31.6792   47.9385 H   0  0  0  0  0  0  0  0  0  0  0  0
   60.3344   33.2369   48.6734 H   0  0  0  0  0  0  0  0  0  0  0  0
   58.9299   31.4603   46.6559 H   0  0  0  0  0  0  0  0  0  0  0  0
   58.3158   32.2432   48.1955 H   0  0  0  0  0  0  0  0  0  0  0  0
   56.0206   27.9134   46.5582 H   0  0  0  0  0  0  0  0  0  0  0  0
  1  2  1  0
  2  3  1  0
  3  4  1  0
  4  5  2  0
  5  6  1  0
  6  7  2  0
  7  8  1  0
  8  9  1  0
  9 10  1  0
 10 11  2  0
 11 12  1  0
 12 13  1  0
 13 14  1  0
 14 15  1  0
 15 16  1  0
 16 17  1  0
 17 18  2  0
 17 19  1  0
 19 20  1  0
 20 21  1  0
 21 22  2  0
 22 23  1  0
 23 24  2  0
 24 25  1  0
 16 26  1  0
 26 27  1  0
 11 28  1  0
 28 29  1  0
  8 30  2  0
 30  4  1  0
 29  9  2  0
 27 13  1  0
 25 21  1  0
  1 31  1  0
  1 32  1  0
  1 33  1  0
  2 34  1  0
  2 35  1  0
  5 36  1  0
  6 37  1  0
  7 38  1  0
 10 39  1  0
 12 40  1  0
 12 41  1  0
 14 42  1  0
 14 43  1  0
 15 44  1  0
 15 45  1  0
 16 46  1  0
 19 47  1  0
 20 48  1  0
 20 49  1  0
 22 50  1  0
 23 51  1  0
 24 52  1  0
 26 53  1  0
 26 54  1  0
 27 55  1  0
 27 56  1  0
 30 57  1  0
M  END
>  <UniqueID>  (62) 
59

>  <SMILES>  (62) 
CCOc1cccc(-c2cc(CN3CCC(C(=O)NCc4ccco4)CC3)on2)c1

>  <Energy>  (62) 
120.32089337237713

>  <Genealogy>  (62) 
CCOc1cccc(-c2cc(CN3CCC(C(=O)NCc4ccco4)CC3)on2)c1 (3D coordinates assigned)
CCOc1cccc(-c2cc(CN3CCC(C(=O)NCc4ccco4)CC3)on2)c1 (nonaromatic ring conformer: 120.32089337237713 kcal/mol)

>  <smiles>  (62) 
CCOc1cccc(-c2cc(CN3CCC(C(=O)NCc4ccco4)CC3)on2)c1

>  <score_type>  (62) 
oracle

>  <origin>  (62) 
adg

>  <m_score__min__energy>  (62) 
-9.5399999999999991

>  <m_primary>  (62) 
energy

$$$$
62:0
     RDKit          3D

 17 18  0  0  0  0  0  0  0  0999 V2000
   57.2450   31.4850   41.7100 O   0  0  0  0  0  0  0  0  0  0  0  0
   57.4100   31.7990   42.9200 C   0  0  0  0  0  0  0  0  0  0  0  0
   58.1620   32.8900   43.2380 N   0  0  0  0  0  0  0  0  0  0  0  0
   58.3570   33.2540   44.5380 C   0  0  0  0  0  0  0  0  0  0  0  0
   59.1300   34.3770   44.8670 C   0  0  0  0  0  0  0  0  0  0  0  0
   59.3170   34.7290   46.2090 C   0  0  0  0  0  0  0  0  0  0  0  0
   58.7320   33.9640   47.2240 C   0  0  0  0  0  0  0  0  0  0  0  0
   57.9600   32.8430   46.9040 C   0  0  0  0  0  0  0  0  0  0  0  0
   57.7710   32.4850   45.5650 C   0  0  0  0  0  0  0  0  0  0  0  0
   57.0230   31.3990   45.2410 N   0  0  0  0  0  0  0  0  0  0  0  0
   56.8270   31.0350   43.9470 C   0  0  0  0  0  0  0  0  0  0  0  0
   55.9150   29.7150   43.6180 S   0  0  0  0  0  0  0  0  0  0  0  0
   58.5920   33.4530   42.4690 H   0  0  0  0  0  0  0  0  0  0  0  0
   59.5893   34.9811   44.0707 H   0  0  0  0  0  0  0  0  0  0  0  0
   59.9251   35.6088   46.4660 H   0  0  0  0  0  0  0  0  0  0  0  0
   58.8799   34.2454   48.2771 H   0  0  0  0  0  0  0  0  0  0  0  0
   57.5018   32.2433   47.7043 H   0  0  0  0  0  0  0  0  0  0  0  0
  1  2  2  0
  2  3  1  0
  3  4  1  0
  4  5  2  0
  5  6  1  0
  6  7  2  0
  7  8  1  0
  8  9  2  0
  9 10  1  0
 10 11  1  0
 11 12  2  0
 11  2  1  0
  9  4  1  0
  3 13  1  0
  5 14  1  0
  6 15  1  0
  7 16  1  0
  8 17  1  0
M  CHG  1  10  -1
M  END
>  <UniqueID>  (63) 
60

>  <SMILES>  (63) 
O=c1[nH]c2ccccc2[n-]c1=S

>  <Energy>  (63) 
22.967012307568126

>  <Genealogy>  (63) 
O=c1[nH]c2ccccc2[n-]c1=S (protonated)
O=c1[nH]c2ccccc2[n-]c1=S (3D coordinates assigned)
O=c1[nH]c2ccccc2[n-]c1=S (optimized conformer: 22.967012307568126 kcal/mol)

>  <smiles>  (63) 
O=c1[nH]c2ccccc2[nH]c1=S

>  <score_type>  (63) 
oracle

>  <origin>  (63) 
adg

>  <m_score__min__energy>  (63) 
-8.25

>  <m_primary>  (63) 
energy

$$$$
63:0
     RDKit          3D

 50 52  0  0  0  0  0  0  0  0999 V2000
   51.7590   24.4280   44.8790 C   0  0  0  0  0  0  0  0  0  0  0  0
   52.8900   24.8530   45.6330 O   0  0  0  0  0  0  0  0  0  0  0  0
   54.2020   24.4050   45.4170 C   0  0  0  0  0  0  0  0  0  0  0  0
   54.4880   23.0880   45.0110 C   0  0  0  0  0  0  0  0  0  0  0  0
   55.8070   22.6870   44.7990 C   0  0  0  0  0  0  0  0  0  0  0  0
   56.8560   23.5820   45.0110 C   0  0  0  0  0  0  0  0  0  0  0  0
   56.5960   24.8910   45.4490 C   0  0  0  0  0  0  0  0  0  0  0  0
   57.7340   25.7930   45.7480 C   0  0  0  0  0  0  0  0  0  0  0  0
   58.6160   25.4090   46.5630 O   0  0  0  0  0  0  0  0  0  0  0  0
   57.9000   27.1230   45.1160 C   0  0  0  0  0  0  0  0  0  0  0  0
   57.5340   28.2960   45.6580 C   0  0  0  0  0  0  0  0  0  0  0  0
   58.3510   29.0710   46.6130 C   0  0  0  0  0  0  0  0  0  0  0  0
   59.2930   28.4090   47.4110 C   0  0  0  0  0  0  0  0  0  0  0  0
   60.1230   29.1340   48.2710 C   0  0  0  0  0  0  0  0  0  0  0  0
   60.0100   30.5340   48.3540 C   0  0  0  0  0  0  0  0  0  0  0  0
   60.8530   31.3050   49.2260 N   0  0  0  0  0  0  0  0  0  0  0  0
   60.3820   32.3850   50.0480 C   0  0  0  0  0  0  0  0  0  0  0  0
   59.1480   32.5510   50.2440 O   0  0  0  0  0  0  0  0  0  0  0  0
   61.3610   33.2960   50.7230 C   0  0  0  0  0  0  0  0  0  0  0  0
   62.3650   34.2120   49.5000 S   0  0  0  0  0  0  0  0  0  0  0  0
   61.1020   34.2090   48.2230 C   0  0  0  0  0  0  0  0  0  0  0  0
   61.3580   33.6180   46.9790 C   0  0  0  0  0  0  0  0  0  0  0  0
   60.3750   33.6230   45.9860 C   0  0  0  0  0  0  0  0  0  0  0  0
   59.1310   34.2140   46.2340 C   0  0  0  0  0  0  0  0  0  0  0  0
   57.8980   34.2240   44.9860 Cl  0  0  0  0  0  0  0  0  0  0  0  0
   58.8710   34.7960   47.4800 C   0  0  0  0  0  0  0  0  0  0  0  0
   59.8520   34.7880   48.4750 C   0  0  0  0  0  0  0  0  0  0  0  0
   59.0160   31.1840   47.6090 C   0  0  0  0  0  0  0  0  0  0  0  0
   58.1900   30.4590   46.7460 C   0  0  0  0  0  0  0  0  0  0  0  0
   55.2590   25.3060   45.6180 C   0  0  0  0  0  0  0  0  0  0  0  0
   54.9680   26.6180   45.9830 O   0  0  0  0  0  0  0  0  0  0  0  0
   50.9538   24.1254   45.5647 H   0  0  0  0  0  0  0  0  0  0  0  0
   51.4089   25.2559   44.2450 H   0  0  0  0  0  0  0  0  0  0  0  0
   52.0407   23.5744   44.2450 H   0  0  0  0  0  0  0  0  0  0  0  0
   53.6672   22.3714   44.8601 H   0  0  0  0  0  0  0  0  0  0  0  0
   56.0209   21.6615   44.4635 H   0  0  0  0  0  0  0  0  0  0  0  0
   57.8930   23.2606   44.8341 H   0  0  0  0  0  0  0  0  0  0  0  0
   58.3622   27.1520   44.1183 H   0  0  0  0  0  0  0  0  0  0  0  0
   56.5559   28.7088   45.3700 H   0  0  0  0  0  0  0  0  0  0  0  0
   59.3800   27.3136   47.3607 H   0  0  0  0  0  0  0  0  0  0  0  0
   60.8679   28.6075   48.8857 H   0  0  0  0  0  0  0  0  0  0  0  0
   61.8520   31.0180   49.3270 H   0  0  0  0  0  0  0  0  0  0  0  0
   60.8102   34.0159   51.3462 H   0  0  0  0  0  0  0  0  0  0  0  0
   62.0363   32.6852   51.3401 H   0  0  0  0  0  0  0  0  0  0  0  0
   62.3339   33.1495   46.7837 H   0  0  0  0  0  0  0  0  0  0  0  0
   60.5792   33.1619   45.0084 H   0  0  0  0  0  0  0  0  0  0  0  0
   57.8933   35.2603   47.6762 H   0  0  0  0  0  0  0  0  0  0  0  0
   59.6423   35.2369   49.4571 H   0  0  0  0  0  0  0  0  0  0  0  0
   58.8854   32.2720   47.7045 H   0  0  0  0  0  0  0  0  0  0  0  0
   57.4107   30.9780   46.1687 H   0  0  0  0  0  0  0  0  0  0  0  0
  1  2  1  0
  2  3  1  0
  3  4  2  0
  4  5  1  0
  5  6  2  0
  6  7  1  0
  7  8  1  0
  8  9  2  0
  8 10  1  0
 10 11  2  3
 11 12  1  0
 12 13  2  0
 13 14  1  0
 14 15  2  0
 15 16  1  0
 16 17  1  0
 17 18  2  0
 17 19  1  0
 19 20  1  0
 20 21  1  0
 21 22  2  0
 22 23  1  0
 23 24  2  0
 24 25  1  0
 24 26  1  0
 26 27  2  0
 15 28  1  0
 28 29  2  0
  7 30  2  0
 30 31  1  0
 30  3  1  0
 29 12  1  0
 27 21  1  0
  1 32  1  0
  1 33  1  0
  1 34  1  0
  4 35  1  0
  5 36  1  0
  6 37  1  0
 10 38  1  0
 11 39  1  0
 13 40  1  0
 14 41  1  0
 16 42  1  0
 19 43  1  0
 19 44  1  0
 22 45  1  0
 23 46  1  0
 26 47  1  0
 27 48  1  0
 28 49  1  0
 29 50  1  0
M  CHG  1  31  -1
M  END
>  <UniqueID>  (64) 
61

>  <SMILES>  (64) 
COc1cccc(C(=O)C=Cc2ccc(NC(=O)CSc3ccc(Cl)cc3)cc2)c1[O-]

>  <Energy>  (64) 
59.75632985794392

>  <Genealogy>  (64) 
COc1cccc(C(=O)C=Cc2ccc(NC(=O)CSc3ccc(Cl)cc3)cc2)c1[O-] (protonated)
COc1cccc(C(=O)C=Cc2ccc(NC(=O)CSc3ccc(Cl)cc3)cc2)c1[O-] (3D coordinates assigned)
COc1cccc(C(=O)C=Cc2ccc(NC(=O)CSc3ccc(Cl)cc3)cc2)c1[O-] (optimized conformer: 59.75632985794392 kcal/mol)

>  <smiles>  (64) 
COc1cccc(C(=O)C=Cc2ccc(NC(=O)CSc3ccc(Cl)cc3)cc2)c1O

>  <score_type>  (64) 
oracle

>  <origin>  (64) 
adg

>  <m_score__min__energy>  (64) 
-13.08

>  <m_primary>  (64) 
energy

$$$$
64:0
     RDKit          3D

 44 47  0  0  0  0  0  0  0  0999 V2000
   58.1470   28.2130   46.5810 O   0  0  0  0  0  0  0  0  0  0  0  0
   57.4320   27.7440   45.6710 C   0  0  0  0  0  0  0  0  0  0  0  0
   56.9740   28.4910   44.5630 N   0  0  0  0  0  0  0  0  0  0  0  0
   57.2400   29.8510   44.3100 C   0  0  0  0  0  0  0  0  0  0  0  0
   57.1220   30.2950   43.0060 C   0  0  0  0  0  0  0  0  0  0  0  0
   57.3670   31.6090   42.6910 C   0  0  0  0  0  0  0  0  0  0  0  0
   57.7350   32.5430   43.6230 C   0  0  0  0  0  0  0  0  0  0  0  0
   57.8580   32.1190   44.9280 C   0  0  0  0  0  0  0  0  0  0  0  0
   58.3240   33.2500   46.1790 S   0  0  0  0  0  0  0  0  0  0  0  0
   58.7660   34.5180   45.5010 O   0  0  0  0  0  0  0  0  0  0  0  0
   57.1890   33.6120   47.0760 O   0  0  0  0  0  0  0  0  0  0  0  0
   59.6010   32.6050   47.1630 N   0  0  0  0  0  0  0  0  0  0  0  0
   59.3530   31.6900   48.2560 C   0  0  0  0  0  0  0  0  0  0  0  0
   60.6420   30.9330   48.3690 C   0  0  0  0  0  0  0  0  0  0  0  0
   61.6260   31.8630   47.7720 C   0  0  0  0  0  0  0  0  0  0  0  0
   63.0050   31.8680   47.8340 C   0  0  0  0  0  0  0  0  0  0  0  0
   63.7380   32.8460   47.1930 C   0  0  0  0  0  0  0  0  0  0  0  0
   63.0870   33.8450   46.4710 C   0  0  0  0  0  0  0  0  0  0  0  0
   61.7020   33.8400   46.4090 C   0  0  0  0  0  0  0  0  0  0  0  0
   60.9970   32.8570   47.0550 C   0  0  0  0  0  0  0  0  0  0  0  0
   57.6080   30.7830   45.2450 C   0  0  0  0  0  0  0  0  0  0  0  0
   57.0620   26.3150   45.7900 C   0  0  0  0  0  0  0  0  0  0  0  0
   57.8480   25.3150   45.2610 C   0  0  0  0  0  0  0  0  0  0  0  0
   57.4380   23.9970   45.4120 C   0  0  0  0  0  0  0  0  0  0  0  0
   58.4180   22.7050   44.7490 Cl  0  0  0  0  0  0  0  0  0  0  0  0
   56.2670   23.7020   46.0790 C   0  0  0  0  0  0  0  0  0  0  0  0
   55.8770   22.5010   46.2260 O   0  0  0  0  0  0  0  0  0  0  0  0
   55.5240   24.7040   46.5840 N   0  0  0  0  0  0  0  0  0  0  0  0
   55.9350   25.9530   46.4270 N   0  0  0  0  0  0  0  0  0  0  0  0
   56.3760   27.9540   43.8710 H   0  0  0  0  0  0  0  0  0  0  0  0
   56.8294   29.5898   42.2141 H   0  0  0  0  0  0  0  0  0  0  0  0
   57.2630   31.9259   41.6428 H   0  0  0  0  0  0  0  0  0  0  0  0
   57.9246   33.5892   43.3409 H   0  0  0  0  0  0  0  0  0  0  0  0
   59.1336   32.2361   49.1853 H   0  0  0  0  0  0  0  0  0  0  0  0
   58.4839   31.0381   48.0838 H   0  0  0  0  0  0  0  0  0  0  0  0
   60.8854   30.7211   49.4206 H   0  0  0  0  0  0  0  0  0  0  0  0
   60.6144   29.9523   47.8716 H   0  0  0  0  0  0  0  0  0  0  0  0
   63.5261   31.0828   48.4013 H   0  0  0  0  0  0  0  0  0  0  0  0
   64.8364   32.8372   47.2519 H   0  0  0  0  0  0  0  0  0  0  0  0
   63.6648   34.6273   45.9570 H   0  0  0  0  0  0  0  0  0  0  0  0
   61.1712   34.6207   45.8444 H   0  0  0  0  0  0  0  0  0  0  0  0
   57.7110   30.4637   46.2926 H   0  0  0  0  0  0  0  0  0  0  0  0
   58.7809   25.5556   44.7301 H   0  0  0  0  0  0  0  0  0  0  0  0
   54.6370   24.4640   47.0880 H   0  0  0  0  0  0  0  0  0  0  0  0
  1  2  2  0
  2  3  1  0
  3  4  1  0
  4  5  2  0
  5  6  1  0
  6  7  2  0
  7  8  1  0
  8  9  1  0
  9 10  2  0
  9 11  2  0
  9 12  1  0
 12 13  1  0
 13 14  1  0
 14 15  1  0
 15 16  2  0
 16 17  1  0
 17 18  2  0
 18 19  1  0
 19 20  2  0
  8 21  2  0
  2 22  1  0
 22 23  1  0
 23 24  2  0
 24 25  1  0
 24 26  1  0
 26 27  2  0
 26 28  1  0
 28 29  1  0
 21  4  1  0
 29 22  2  0
 20 12  1  0
 20 15  1  0
  3 30  1  0
  5 31  1  0
  6 32  1  0
  7 33  1  0
 13 34  1  0
 13 35  1  0
 14 36  1  0
 14 37  1  0
 16 38  1  0
 17 39  1  0
 18 40  1  0
 19 41  1  0
 21 42  1  0
 23 43  1  0
 28 44  1  0
M  END
>  <smiles>  (65) 
O=C(Nc1cccc(S(=O)(=O)N2CCc3ccccc32)c1)c1cc(Cl)c(=O)[nH]n1

>  <score_type>  (65) 
oracle

>  <origin>  (65) 
adg

>  <m_score__min__energy>  (65) 
-10.1

>  <m_primary>  (65) 
energy

$$$$
65:0
     RDKit          3D

 44 47  0  0  0  0  0  0  0  0999 V2000
   55.5470   25.4520   46.5710 O   0  0  0  0  0  0  0  0  0  0  0  0
   56.3540   26.2940   46.0970 C   0  0  0  0  0  0  0  0  0  0  0  0
   57.8090   25.9480   45.9580 C   0  0  0  0  0  0  0  0  0  0  0  0
   58.6460   27.1590   45.9500 N   0  0  0  0  0  0  0  0  0  0  0  0
   59.9100   27.1480   46.6410 C   0  0  0  0  0  0  0  0  0  0  0  0
   60.8310   26.3900   46.2280 O   0  0  0  0  0  0  0  0  0  0  0  0
   60.1550   28.0180   47.8140 C   0  0  0  0  0  0  0  0  0  0  0  0
   60.4390   27.4580   49.0700 C   0  0  0  0  0  0  0  0  0  0  0  0
   60.6940   28.2830   50.1680 C   0  0  0  0  0  0  0  0  0  0  0  0
   60.6680   29.6710   50.0250 C   0  0  0  0  0  0  0  0  0  0  0  0
   60.3760   30.2510   48.7820 C   0  0  0  0  0  0  0  0  0  0  0  0
   60.3790   31.6830   48.6570 N   0  0  0  0  0  0  0  0  0  0  0  0
   59.2460   32.5180   48.9430 C   0  0  0  0  0  0  0  0  0  0  0  0
   58.2340   32.0500   49.5320 O   0  0  0  0  0  0  0  0  0  0  0  0
   59.2970   33.9810   48.6290 C   0  0  0  0  0  0  0  0  0  0  0  0
   58.9460   34.2090   47.1940 C   0  0  0  0  0  0  0  0  0  0  0  0
   59.7230   34.8880   46.2650 C   0  0  0  0  0  0  0  0  0  0  0  0
   59.1720   34.8820   44.9780 C   0  0  0  0  0  0  0  0  0  0  0  0
   57.9710   34.1890   44.8880 C   0  0  0  0  0  0  0  0  0  0  0  0
   57.5960   33.5820   46.4110 S   0  0  0  0  0  0  0  0  0  0  0  0
   60.1440   29.4170   47.6730 C   0  0  0  0  0  0  0  0  0  0  0  0
   58.1620   28.3650   45.3130 C   0  0  0  0  0  0  0  0  0  0  0  0
   59.0450   29.3550   44.8440 C   0  0  0  0  0  0  0  0  0  0  0  0
   58.5450   30.5180   44.2480 C   0  0  0  0  0  0  0  0  0  0  0  0
   57.1670   30.7010   44.1130 C   0  0  0  0  0  0  0  0  0  0  0  0
   56.2820   29.7190   44.5670 C   0  0  0  0  0  0  0  0  0  0  0  0
   56.7760   28.5500   45.1560 C   0  0  0  0  0  0  0  0  0  0  0  0
   55.8700   27.5490   45.6200 N   0  0  0  0  0  0  0  0  0  0  0  0
   58.1085   25.3105   46.8029 H   0  0  0  0  0  0  0  0  0  0  0  0
   57.9517   25.4198   45.0037 H   0  0  0  0  0  0  0  0  0  0  0  0
   60.4608   26.3648   49.1898 H   0  0  0  0  0  0  0  0  0  0  0  0
   60.9161   27.8371   51.1487 H   0  0  0  0  0  0  0  0  0  0  0  0
   60.8778   30.3140   50.8925 H   0  0  0  0  0  0  0  0  0  0  0  0
   61.2850   32.1540   48.4350 H   0  0  0  0  0  0  0  0  0  0  0  0
   58.5798   34.5160   49.2688 H   0  0  0  0  0  0  0  0  0  0  0  0
   60.3146   34.3548   48.8154 H   0  0  0  0  0  0  0  0  0  0  0  0
   60.6744   35.3804   46.5147 H   0  0  0  0  0  0  0  0  0  0  0  0
   59.6455   35.3793   44.1186 H   0  0  0  0  0  0  0  0  0  0  0  0
   57.3687   34.0596   43.9767 H   0  0  0  0  0  0  0  0  0  0  0  0
   59.9522   29.8636   46.6862 H   0  0  0  0  0  0  0  0  0  0  0  0
   60.1312   29.2143   44.9462 H   0  0  0  0  0  0  0  0  0  0  0  0
   59.2391   31.2902   43.8848 H   0  0  0  0  0  0  0  0  0  0  0  0
   56.7777   31.6191   43.6488 H   0  0  0  0  0  0  0  0  0  0  0  0
   55.1969   29.8653   44.4612 H   0  0  0  0  0  0  0  0  0  0  0  0
  1  2  2  0
  2  3  1  0
  3  4  1  0
  4  5  1  0
  5  6  2  0
  5  7  1  0
  7  8  2  0
  8  9  1  0
  9 10  2  0
 10 11  1  0
 11 12  1  0
 12 13  1  0
 13 14  2  0
 13 15  1  0
 15 16  1  0
 16 17  2  0
 17 18  1  0
 18 19  2  0
 19 20  1  0
 11 21  2  0
  4 22  1  0
 22 23  2  0
 23 24  1  0
 24 25  2  0
 25 26  1  0
 26 27  2  0
 27 28  1  0
 28  2  1  0
 21  7  1  0
 27 22  1  0
 20 16  1  0
  3 29  1  0
  3 30  1  0
  8 31  1  0
  9 32  1  0
 10 33  1  0
 12 34  1  0
 15 35  1  0
 15 36  1  0
 17 37  1  0
 18 38  1  0
 19 39  1  0
 21 40  1  0
 23 41  1  0
 24 42  1  0
 25 43  1  0
 26 44  1  0
M  CHG  1  28  -1
M  END
>  <UniqueID>  (66) 
62

>  <SMILES>  (66) 
O=C1CN(C(=O)c2cccc(NC(=O)Cc3cccs3)c2)c2ccccc2[N-]1

>  <Energy>  (66) 
84.15609150246242

>  <Genealogy>  (66) 
O=C1CN(C(=O)c2cccc(NC(=O)Cc3cccs3)c2)c2ccccc2[N-]1 (protonated)
O=C1CN(C(=O)c2cccc(NC(=O)Cc3cccs3)c2)c2ccccc2[N-]1 (3D coordinates assigned)
O=C1CN(C(=O)c2cccc(NC(=O)Cc3cccs3)c2)c2ccccc2[N-]1 (nonaromatic ring conformer: 84.15609150246242 kcal/mol)

>  <smiles>  (66) 
O=C(Cc1cccs1)Nc1cccc(C(=O)N2CC(=O)Nc3ccccc32)c1

>  <score_type>  (66) 
oracle

>  <origin>  (66) 
adg

>  <m_score__min__energy>  (66) 
-11.220000000000001

>  <m_primary>  (66) 
energy

$$$$
66:0
     RDKit          3D

 36 38  0  0  0  0  0  0  0  0999 V2000
   54.9340   26.6420   46.6730 H   0  0  0  0  0  0  0  0  0  0  0  0
   55.5790   26.6990   45.8530 N   0  0  0  0  0  0  0  0  0  0  0  0
   56.2720   27.7640   45.6200 C   0  0  0  0  0  0  0  0  0  0  0  0
   55.7490   28.8680   45.0500 N   0  0  0  0  0  0  0  0  0  0  0  0
   56.6440   29.8440   44.9030 N   0  0  0  0  0  0  0  0  0  0  0  0
   57.8730   29.5090   45.3550 C   0  0  0  0  0  0  0  0  0  0  0  0
   59.2790   30.6150   45.3040 S   0  0  0  0  0  0  0  0  0  0  0  0
   60.2000   29.7570   46.6300 C   0  0  0  0  0  0  0  0  0  0  0  0
   60.0647   28.6717   46.5122 H   0  0  0  0  0  0  0  0  0  0  0  0
   61.2606   30.0357   46.5441 H   0  0  0  0  0  0  0  0  0  0  0  0
   59.7200   30.1620   47.9990 C   0  0  0  0  0  0  0  0  0  0  0  0
   58.5990   29.7540   48.4050 O   0  0  0  0  0  0  0  0  0  0  0  0
   60.4160   31.1400   48.7810 N   0  0  0  0  0  0  0  0  0  0  0  0
   61.4880   31.9750   48.3230 C   0  0  0  0  0  0  0  0  0  0  0  0
   62.6960   31.4110   47.8830 C   0  0  0  0  0  0  0  0  0  0  0  0
   62.8129   30.3175   47.8608 H   0  0  0  0  0  0  0  0  0  0  0  0
   63.7510   32.2310   47.4730 C   0  0  0  0  0  0  0  0  0  0  0  0
   64.6888   31.7820   47.1139 H   0  0  0  0  0  0  0  0  0  0  0  0
   63.6150   33.6200   47.5190 C   0  0  0  0  0  0  0  0  0  0  0  0
   64.4444   34.2648   47.1929 H   0  0  0  0  0  0  0  0  0  0  0  0
   62.4260   34.1910   47.9790 C   0  0  0  0  0  0  0  0  0  0  0  0
   62.3243   35.2854   48.0220 H   0  0  0  0  0  0  0  0  0  0  0  0
   61.3620   33.3740   48.3860 C   0  0  0  0  0  0  0  0  0  0  0  0
   59.8390   34.1410   48.9570 S   0  0  0  0  0  0  0  0  0  0  0  0
   59.0650   34.0290   47.3430 C   0  0  0  0  0  0  0  0  0  0  0  0
   57.8650   33.3230   47.1870 C   0  0  0  0  0  0  0  0  0  0  0  0
   57.4036   32.8256   48.0528 H   0  0  0  0  0  0  0  0  0  0  0  0
   57.2530   33.2500   45.9310 C   0  0  0  0  0  0  0  0  0  0  0  0
   56.3081   32.6998   45.8106 H   0  0  0  0  0  0  0  0  0  0  0  0
   57.8430   33.8770   44.8280 C   0  0  0  0  0  0  0  0  0  0  0  0
   57.3616   33.8202   43.8405 H   0  0  0  0  0  0  0  0  0  0  0  0
   59.0450   34.5760   44.9810 C   0  0  0  0  0  0  0  0  0  0  0  0
   59.5075   35.0702   44.1139 H   0  0  0  0  0  0  0  0  0  0  0  0
   59.6590   34.6470   46.2350 C   0  0  0  0  0  0  0  0  0  0  0  0
   60.6093   35.1886   46.3517 H   0  0  0  0  0  0  0  0  0  0  0  0
   57.9080   27.9460   45.9840 S   0  0  0  0  0  0  0  0  0  0  0  0
  1  2  1  0
  2  3  2  0
  3  4  1  0
  4  5  1  0
  5  6  2  0
  6  7  1  0
  7  8  1  0
  8  9  1  0
  8 10  1  0
  8 11  1  0
 11 12  2  0
 11 13  1  0
 13 14  1  0
 14 15  2  0
 15 16  1  0
 15 17  1  0
 17 18  1  0
 17 19  2  0
 19 20  1  0
 19 21  1  0
 21 22  1  0
 21 23  2  0
 23 24  1  0
 24 25  1  0
 25 26  2  0
 26 27  1  0
 26 28  1  0
 28 29  1  0
 28 30  2  0
 30 31  1  0
 30 32  1  0
 32 33  1  0
 32 34  2  0
 34 35  1  0
  6 36  1  0
 36  3  1  0
 23 14  1  0
 34 25  1  0
M  CHG  2   4  -1  13  -1
M  END
>  <UniqueID>  (67) 
63

>  <SMILES>  (67) 
[H]/N=c1/[n-]nc(SCC(=O)[N-]c2ccccc2Sc2ccccc2)s1

>  <Energy>  (67) 
68.54327426497466

>  <Genealogy>  (67) 
N=c1[n-]nc(SCC(=O)[N-]c2ccccc2Sc2ccccc2)s1 (protonated)
[H]/N=c1/[n-]nc(SCC(=O)[N-]c2ccccc2Sc2ccccc2)s1 (cis-trans isomerization)
[H]/N=c1/[n-]nc(SCC(=O)[N-]c2ccccc2Sc2ccccc2)s1 (3D coordinates assigned)
[H]/N=c1/[n-]nc(SCC(=O)[N-]c2ccccc2Sc2ccccc2)s1 (optimized conformer: 68.54327426497466 kcal/mol)

>  <smiles>  (67) 
N=c1[nH]nc(SCC(=O)Nc2ccccc2Sc2ccccc2)s1

>  <score_type>  (67) 
oracle

>  <origin>  (67) 
adg

>  <m_score__min__energy>  (67) 
-12.220000000000001

>  <m_primary>  (67) 
energy

$$$$
67:0
     RDKit          3D

 46 48  0  0  1  0  0  0  0  0999 V2000
   57.5570   20.8540   45.2460 C   0  0  0  0  0  0  0  0  0  0  0  0
   57.2740   22.1580   44.6110 C   0  0  0  0  0  0  0  0  0  0  0  0
   56.4640   22.3030   43.5090 C   0  0  0  0  0  0  0  0  0  0  0  0
   56.2620   23.5840   42.9990 C   0  0  0  0  0  0  0  0  0  0  0  0
   56.8380   24.6580   43.5610 N   0  0  0  0  0  0  0  0  0  0  0  0
   57.6200   24.4690   44.6340 C   0  0  0  0  0  0  0  0  0  0  0  0
   58.1930   25.4760   45.2070 N   0  0  0  0  0  0  0  0  0  0  0  0
   57.3280   26.4830   46.3030 S   0  0  0  0  0  0  0  0  0  0  0  0
   55.8880   26.0800   46.2770 O   0  0  0  0  0  0  0  0  0  0  0  0
   57.8860   26.3220   47.6890 O   0  0  0  0  0  0  0  0  0  0  0  0
   57.5120   28.1310   45.7450 C   0  0  0  0  0  0  0  0  0  0  0  0
   58.5870   28.9320   46.1530 C   0  0  0  0  0  0  0  0  0  0  0  0
   58.6860   30.2290   45.6890 C   0  0  0  0  0  0  0  0  0  0  0  0
   57.7230   30.7360   44.8230 C   0  0  0  0  0  0  0  0  0  0  0  0
   57.8780   32.0820   44.4010 N   0  0  0  0  0  0  0  0  0  0  0  0
   57.4970   33.1670   45.2460 C   0  0  0  0  0  0  0  0  0  0  0  0
   57.0090   32.9400   46.3970 O   0  0  0  0  0  0  0  0  0  0  0  0
   57.6330   34.5890   44.8620 C   0  0  0  0  0  0  0  0  0  0  0  0
   59.2880   35.2470   45.0470 S   0  0  0  0  0  0  0  0  0  0  0  0
   59.9910   34.5340   46.5500 C   0  0  0  0  0  0  0  0  0  0  0  0
   61.2480   33.9420   46.3800 C   0  0  0  0  0  0  0  0  0  0  0  0
   61.8630   33.3870   47.5050 C   0  0  0  0  0  0  0  0  0  0  0  0
   61.2370   33.4290   48.7530 C   0  0  0  0  0  0  0  0  0  0  0  0
   59.9770   34.0310   48.8840 C   0  0  0  0  0  0  0  0  0  0  0  0
   59.3530   34.5870   47.7630 C   0  0  0  0  0  0  0  0  0  0  0  0
   56.6440   29.9600   44.4020 C   0  0  0  0  0  0  0  0  0  0  0  0
   56.5550   28.6530   44.8760 C   0  0  0  0  0  0  0  0  0  0  0  0
   57.8520   23.2530   45.1720 N   0  0  0  0  0  0  0  0  0  0  0  0
   57.5327   20.9660   46.3400 H   0  0  0  0  0  0  0  0  0  0  0  0
   56.7968   20.1222   44.9353 H   0  0  0  0  0  0  0  0  0  0  0  0
   58.5522   20.5032   44.9353 H   0  0  0  0  0  0  0  0  0  0  0  0
   55.9871   21.4289   43.0415 H   0  0  0  0  0  0  0  0  0  0  0  0
   55.6173   23.7176   42.1178 H   0  0  0  0  0  0  0  0  0  0  0  0
   56.7160   25.6370   43.2220 H   0  0  0  0  0  0  0  0  0  0  0  0
   59.3474   28.5301   46.8387 H   0  0  0  0  0  0  0  0  0  0  0  0
   59.5281   30.8623   46.0049 H   0  0  0  0  0  0  0  0  0  0  0  0
   58.2760   32.3200   43.4470 H   0  0  0  0  0  0  0  0  0  0  0  0
   57.3377   34.6908   43.8073 H   0  0  0  0  0  0  0  0  0  0  0  0
   56.9879   35.1626   45.5438 H   0  0  0  0  0  0  0  0  0  0  0  0
   61.7351   33.9147   45.3941 H   0  0  0  0  0  0  0  0  0  0  0  0
   62.8503   32.9121   47.4070 H   0  0  0  0  0  0  0  0  0  0  0  0
   61.7317   32.9904   49.6321 H   0  0  0  0  0  0  0  0  0  0  0  0
   59.4813   34.0656   49.8654 H   0  0  0  0  0  0  0  0  0  0  0  0
   58.3641   35.0604   47.8527 H   0  0  0  0  0  0  0  0  0  0  0  0
   55.8862   30.3672   43.7166 H   0  0  0  0  0  0  0  0  0  0  0  0
   55.7130   28.0204   44.5583 H   0  0  0  0  0  0  0  0  0  0  0  0
  1  2  1  0
  2  3  1  0
  3  4  2  0
  4  5  1  0
  5  6  1  0
  6  7  2  0
  7  8  1  0
  8  9  2  0
  8 10  2  0
  8 11  1  0
 11 12  2  0
 12 13  1  0
 13 14  2  0
 14 15  1  0
 15 16  1  0
 16 17  2  0
 16 18  1  0
 18 19  1  0
 19 20  1  0
 20 21  2  0
 21 22  1  0
 22 23  2  0
 23 24  1  0
 24 25  2  0
 14 26  1  0
 26 27  2  0
  6 28  1  0
 28  2  2  0
 27 11  1  0
 25 20  1  0
  1 29  1  0
  1 30  1  0
  1 31  1  0
  3 32  1  0
  4 33  1  0
  5 34  1  0
 12 35  1  0
 13 36  1  0
 15 37  1  0
 18 38  1  0
 18 39  1  0
 21 40  1  0
 22 41  1  0
 23 42  1  0
 24 43  1  0
 25 44  1  0
 26 45  1  0
 27 46  1  0
M  END
>  <smiles>  (68) 
Cc1cc[nH]c(=NS(=O)(=O)c2ccc(NC(=O)CSc3ccccc3)cc2)n1

>  <score_type>  (68) 
oracle

>  <origin>  (68) 
adg

>  <m_score__min__energy>  (68) 
-8.7699999999999996

>  <m_primary>  (68) 
energy

$$$$
68:0
     RDKit          3D

 41 45  0  0  0  0  0  0  0  0999 V2000
   65.7990   33.1300   48.4130 H   0  0  0  0  0  0  0  0  0  0  0  0
   64.8890   33.4930   48.6730 O   0  0  0  0  0  0  0  0  0  0  0  0
   63.7550   32.6840   48.6690 C   0  0  0  0  0  0  0  0  0  0  0  0
   62.9720   32.6000   47.5130 C   0  0  0  0  0  0  0  0  0  0  0  0
   63.2550   33.1698   46.6156 H   0  0  0  0  0  0  0  0  0  0  0  0
   61.8300   31.7930   47.4960 C   0  0  0  0  0  0  0  0  0  0  0  0
   61.2250   31.7223   46.5801 H   0  0  0  0  0  0  0  0  0  0  0  0
   61.4510   31.0740   48.6370 C   0  0  0  0  0  0  0  0  0  0  0  0
   60.3040   30.2690   48.5710 O   0  0  0  0  0  0  0  0  0  0  0  0
   59.3030   30.3670   47.5970 C   0  0  0  0  0  0  0  0  0  0  0  0
   58.7280   31.5710   47.2930 N   0  0  0  0  0  0  0  0  0  0  0  0
   57.7740   31.6710   46.3280 C   0  0  0  0  0  0  0  0  0  0  0  0
   57.2590   32.8390   46.0690 N   0  0  0  0  0  0  0  0  0  0  0  0
   57.9720   34.0130   45.5780 C   0  0  0  0  0  0  0  0  0  0  0  0
   57.1828   34.4012   44.9174 H   0  0  0  0  0  0  0  0  0  0  0  0
   58.9080   34.6000   46.6190 C   0  0  0  0  0  0  0  0  0  0  0  0
   59.0554   35.6886   46.6750 H   0  0  0  0  0  0  0  0  0  0  0  0
   58.9956   34.5322   47.7134 H   0  0  0  0  0  0  0  0  0  0  0  0
   59.4710   33.8150   45.4430 C   0  0  0  0  0  0  0  0  0  0  0  0
   60.0255   34.3360   44.6486 H   0  0  0  0  0  0  0  0  0  0  0  0
   60.1344   32.9443   45.3346 H   0  0  0  0  0  0  0  0  0  0  0  0
   57.4110   30.5300   45.6730 N   0  0  0  0  0  0  0  0  0  0  0  0
   56.5610   30.3830   44.6680 N   0  0  0  0  0  0  0  0  0  0  0  0
   56.5740   29.0740   44.3210 C   0  0  0  0  0  0  0  0  0  0  0  0
   55.9765   28.6294   43.5115 H   0  0  0  0  0  0  0  0  0  0  0  0
   57.4560   28.3740   45.1410 C   0  0  0  0  0  0  0  0  0  0  0  0
   57.7370   27.0670   45.0570 C   0  0  0  0  0  0  0  0  0  0  0  0
   58.4151   26.7376   44.2560 H   0  0  0  0  0  0  0  0  0  0  0  0
   57.1980   26.0430   45.9660 C   0  0  0  0  0  0  0  0  0  0  0  0
   57.9180   25.0060   46.4280 N   0  0  0  0  0  0  0  0  0  0  0  0
   57.0150   24.2860   47.1280 C   0  0  0  0  0  0  0  0  0  0  0  0
   57.3180   23.2260   47.7360 O   0  0  0  0  0  0  0  0  0  0  0  0
   55.7600   24.7830   47.1170 N   0  0  0  0  0  0  0  0  0  0  0  0
   55.8890   25.8890   46.3660 C   0  0  0  0  0  0  0  0  0  0  0  0
   54.8260   26.7130   46.0200 O   0  0  0  0  0  0  0  0  0  0  0  0
   57.9660   29.3520   45.9760 C   0  0  0  0  0  0  0  0  0  0  0  0
   58.9310   29.2450   46.9190 N   0  0  0  0  0  0  0  0  0  0  0  0
   62.2510   31.1470   49.7920 C   0  0  0  0  0  0  0  0  0  0  0  0
   61.9765   30.5679   50.6860 H   0  0  0  0  0  0  0  0  0  0  0  0
   63.3940   31.9530   49.8080 C   0  0  0  0  0  0  0  0  0  0  0  0
   64.0107   32.0129   50.7169 H   0  0  0  0  0  0  0  0  0  0  0  0
  1  2  1  0
  2  3  1  0
  3  4  2  0
  4  5  1  0
  4  6  1  0
  6  7  1  0
  6  8  2  0
  8  9  1  0
  9 10  1  0
 10 11  2  0
 11 12  1  0
 12 13  2  0
 13 14  1  0
 14 15  1  0
 14 16  1  0
 16 17  1  0
 16 18  1  0
 16 19  1  0
 19 20  1  0
 19 21  1  0
 12 22  1  0
 22 23  1  0
 23 24  2  0
 24 25  1  0
 24 26  1  0
 26 27  2  3
 27 28  1  0
 27 29  1  0
 29 30  1  0
 30 31  1  0
 31 32  2  0
 31 33  1  0
 33 34  1  0
 34 35  1  0
 26 36  1  0
 36 37  2  0
  8 38  1  0
 38 39  1  0
 38 40  2  0
 40 41  1  0
 40  3  1  0
 37 10  1  0
 19 14  1  0
 36 22  1  0
 34 29  2  0
M  CHG  3  30  -1  33  -1  35  -1
M  END
>  <UniqueID>  (69) 
64

>  <SMILES>  (69) 
O=c1[n-]c([O-])c(C=c2cnn3/c(=N\C4CC4)nc(Oc4ccc(O)cc4)nc23)[n-]1

>  <Energy>  (69) 
393.305442601526

>  <Genealogy>  (69) 
O=c1[n-]c([O-])c(C=c2cnn3c(=NC4CC4)nc(Oc4ccc(O)cc4)nc23)[n-]1 (protonated)
O=c1[n-]c([O-])c(C=c2cnn3/c(=N\C4CC4)nc(Oc4ccc(O)cc4)nc23)[n-]1 (cis-trans isomerization)
O=c1[n-]c([O-])c(C=c2cnn3/c(=N\C4CC4)nc(Oc4ccc(O)cc4)nc23)[n-]1 (3D coordinates assigned)
O=c1[n-]c([O-])c(C=c2cnn3/c(=N\C4CC4)nc(Oc4ccc(O)cc4)nc23)[n-]1 (nonaromatic ring conformer: 393.305442601526 kcal/mol)

>  <smiles>  (69) 
O=c1[nH]c(O)c(C=c2cnn3c(=NC4CC4)nc(Oc4ccc(O)cc4)nc23)[nH]1

>  <score_type>  (69) 
oracle

>  <origin>  (69) 
adg

>  <m_score__min__energy>  (69) 
-15.710000000000001

>  <m_primary>  (69) 
energy

$$$$
69:0
     RDKit          3D

 55 58  0  0  0  0  0  0  0  0999 V2000
   57.1910   21.8650   46.9690 N   0  0  0  0  0  0  0  0  0  0  0  0
   57.7940   20.9660   45.9890 C   0  0  0  0  0  0  0  0  0  0  0  0
   57.8800   21.6540   44.6220 C   0  0  0  0  0  0  0  0  0  0  0  0
   56.6070   22.3820   44.3200 C   0  0  0  0  0  0  0  0  0  0  0  0
   55.9270   22.0500   43.3110 O   0  0  0  0  0  0  0  0  0  0  0  0
   56.1860   23.4550   45.1800 N   0  0  0  0  0  0  0  0  0  0  0  0
   56.9080   24.4720   45.5460 C   0  0  0  0  0  0  0  0  0  0  0  0
   58.2600   24.4720   45.5950 N   0  0  0  0  0  0  0  0  0  0  0  0
   58.7430   25.6650   46.0310 C   0  0  0  0  0  0  0  0  0  0  0  0
   57.7690   26.6140   46.3280 C   0  0  0  0  0  0  0  0  0  0  0  0
   58.0170   28.0070   46.8160 C   0  0  0  0  0  0  0  0  0  0  0  0
   57.7560   29.0050   45.7220 C   0  0  0  0  0  0  0  0  0  0  0  0
   56.9670   28.6530   44.6170 C   0  0  0  0  0  0  0  0  0  0  0  0
   56.7390   29.5750   43.5930 C   0  0  0  0  0  0  0  0  0  0  0  0
   57.2920   30.8580   43.6620 C   0  0  0  0  0  0  0  0  0  0  0  0
   57.0840   31.7470   42.6150 O   0  0  0  0  0  0  0  0  0  0  0  0
   58.0730   31.2280   44.7710 C   0  0  0  0  0  0  0  0  0  0  0  0
   58.6490   32.5360   44.8730 N   0  0  0  0  0  0  0  0  0  0  0  0
   58.0450   33.5960   45.6270 C   0  0  0  0  0  0  0  0  0  0  0  0
   57.0270   33.3720   46.3350 O   0  0  0  0  0  0  0  0  0  0  0  0
   58.6680   34.9600   45.6450 C   0  0  0  0  0  0  0  0  0  0  0  0
   59.5740   35.0890   46.7850 N   0  0  0  0  0  0  0  0  0  0  0  0
   60.4550   34.0280   47.1770 C   0  0  0  0  0  0  0  0  0  0  0  0
   61.7900   34.0110   46.7220 C   0  0  0  0  0  0  0  0  0  0  0  0
   62.6680   32.9730   47.1040 C   0  0  0  0  0  0  0  0  0  0  0  0
   62.2200   31.9310   47.9330 C   0  0  0  0  0  0  0  0  0  0  0  0
   60.8900   31.9590   48.3530 C   0  0  0  0  0  0  0  0  0  0  0  0
   60.1750   31.0450   49.0930 C   0  0  0  0  0  0  0  0  0  0  0  0
   58.8780   31.5460   49.1310 C   0  0  0  0  0  0  0  0  0  0  0  0
   58.7940   32.7140   48.4540 N   0  0  0  0  0  0  0  0  0  0  0  0
   60.0310   32.9640   47.9890 C   0  0  0  0  0  0  0  0  0  0  0  0
   58.3250   30.2870   45.7800 C   0  0  0  0  0  0  0  0  0  0  0  0
   56.2530   25.9410   46.0370 S   0  0  0  0  0  0  0  0  0  0  0  0
   57.5790   22.8230   46.8040 H   0  0  0  0  0  0  0  0  0  0  0  0
   56.1660   21.9220   46.7730 H   0  0  0  0  0  0  0  0  0  0  0  0
   58.8058   20.6916   46.3219 H   0  0  0  0  0  0  0  0  0  0  0  0
   57.1709   20.0640   45.8983 H   0  0  0  0  0  0  0  0  0  0  0  0
   58.7140   22.3712   44.6296 H   0  0  0  0  0  0  0  0  0  0  0  0
   58.0444   20.8892   43.8487 H   0  0  0  0  0  0  0  0  0  0  0  0
   59.8191   25.8650   46.1406 H   0  0  0  0  0  0  0  0  0  0  0  0
   57.3489   28.2173   47.6642 H   0  0  0  0  0  0  0  0  0  0  0  0
   59.0680   28.0912   47.1297 H   0  0  0  0  0  0  0  0  0  0  0  0
   56.5262   27.6470   44.5567 H   0  0  0  0  0  0  0  0  0  0  0  0
   56.1216   29.2909   42.7281 H   0  0  0  0  0  0  0  0  0  0  0  0
   59.6250   32.6700   44.5300 H   0  0  0  0  0  0  0  0  0  0  0  0
   59.2327   35.1133   44.7135 H   0  0  0  0  0  0  0  0  0  0  0  0
   57.8731   35.7153   45.7325 H   0  0  0  0  0  0  0  0  0  0  0  0
   59.3380   35.8170   47.4970 H   0  0  0  0  0  0  0  0  0  0  0  0
   62.1509   34.8144   46.0630 H   0  0  0  0  0  0  0  0  0  0  0  0
   63.7095   32.9804   46.7501 H   0  0  0  0  0  0  0  0  0  0  0  0
   62.8959   31.1196   48.2409 H   0  0  0  0  0  0  0  0  0  0  0  0
   60.5484   30.1189   49.5544 H   0  0  0  0  0  0  0  0  0  0  0  0
   58.0349   31.0584   49.6423 H   0  0  0  0  0  0  0  0  0  0  0  0
   57.9270   33.2720   48.2960 H   0  0  0  0  0  0  0  0  0  0  0  0
   58.9752   30.5563   46.6254 H   0  0  0  0  0  0  0  0  0  0  0  0
  1  2  1  0
  2  3  1  0
  3  4  1  0
  4  5  2  0
  4  6  1  0
  6  7  2  3
  7  8  1  0
  8  9  1  0
  9 10  2  0
 10 11  1  0
 11 12  1  0
 12 13  2  0
 13 14  1  0
 14 15  2  0
 15 16  1  0
 15 17  1  0
 17 18  1  0
 18 19  1  0
 19 20  2  0
 19 21  1  0
 21 22  1  0
 22 23  1  0
 23 24  2  0
 24 25  1  0
 25 26  2  0
 26 27  1  0
 27 28  1  0
 28 29  2  0
 29 30  1  0
 30 31  1  0
 17 32  2  0
 10 33  1  0
 33  7  1  0
 32 12  1  0
 31 23  1  0
 31 27  2  0
  1 34  1  0
  1 35  1  0
  2 36  1  0
  2 37  1  0
  3 38  1  0
  3 39  1  0
  9 40  1  0
 11 41  1  0
 11 42  1  0
 13 43  1  0
 14 44  1  0
 18 45  1  0
 21 46  1  0
 21 47  1  0
 22 48  1  0
 24 49  1  0
 25 50  1  0
 26 51  1  0
 28 52  1  0
 29 53  1  0
 30 54  1  0
 32 55  1  0
M  CHG  2   8  -1  16  -1
M  END
>  <UniqueID>  (70) 
65

>  <SMILES>  (70) 
NCCC(=O)N=c1[n-]cc(Cc2ccc([O-])c(NC(=O)CNc3cccc4cc[nH]c34)c2)s1

>  <Energy>  (70) 
124.89474392538392

>  <Genealogy>  (70) 
NCCC(=O)N=c1[n-]cc(Cc2ccc([O-])c(NC(=O)CNc3cccc4cc[nH]c34)c2)s1 (protonated)
NCCC(=O)N=c1[n-]cc(Cc2ccc([O-])c(NC(=O)CNc3cccc4cc[nH]c34)c2)s1 (3D coordinates assigned)
NCCC(=O)N=c1[n-]cc(Cc2ccc([O-])c(NC(=O)CNc3cccc4cc[nH]c34)c2)s1 (optimized conformer: 124.89474392538392 kcal/mol)

>  <smiles>  (70) 
NCCC(=O)N=c1[nH]cc(Cc2ccc(O)c(NC(=O)CNc3cccc4cc[nH]c34)c2)s1

>  <score_type>  (70) 
oracle

>  <origin>  (70) 
adg

>  <m_score__min__energy>  (70) 
-12.449999999999999

>  <m_primary>  (70) 
energy

$$$$
70:0
     RDKit          3D

 37 38  0  0  0  0  0  0  0  0999 V2000
   60.8240   31.4320   47.0070 C   0  0  0  0  0  0  0  0  0  0  0  0
   59.8750   32.4970   46.5410 C   0  0  0  0  0  0  0  0  0  0  0  0
   60.2550   33.8000   46.6340 N   0  0  0  0  0  0  0  0  0  0  0  0
   59.4390   34.8040   46.2290 C   0  0  0  0  0  0  0  0  0  0  0  0
   59.8210   35.9990   46.3230 O   0  0  0  0  0  0  0  0  0  0  0  0
   58.2110   34.5240   45.7280 N   0  0  0  0  0  0  0  0  0  0  0  0
   57.7750   33.2430   45.6130 C   0  0  0  0  0  0  0  0  0  0  0  0
   56.6160   33.0230   45.1700 O   0  0  0  0  0  0  0  0  0  0  0  0
   58.6110   32.1780   46.0030 C   0  0  0  0  0  0  0  0  0  0  0  0
   58.1520   30.7720   45.9190 C   0  0  0  0  0  0  0  0  0  0  0  0
   57.8280   30.1410   44.7810 C   0  0  0  0  0  0  0  0  0  0  0  0
   56.4820   29.6170   44.4510 C   0  0  0  0  0  0  0  0  0  0  0  0
   55.8700   30.0320   43.4320 O   0  0  0  0  0  0  0  0  0  0  0  0
   55.9010   28.5510   45.2120 N   0  0  0  0  0  0  0  0  0  0  0  0
   56.5650   27.3510   45.6380 C   0  0  0  0  0  0  0  0  0  0  0  0
   57.9620   27.3010   45.7770 C   0  0  0  0  0  0  0  0  0  0  0  0
   58.5800   26.1410   46.2410 C   0  0  0  0  0  0  0  0  0  0  0  0
   57.8140   25.0230   46.5710 C   0  0  0  0  0  0  0  0  0  0  0  0
   56.4200   25.0470   46.4360 C   0  0  0  0  0  0  0  0  0  0  0  0
   55.6930   23.8620   46.7930 N   0  0  0  0  0  0  0  0  0  0  0  0
   56.3160   22.2430   46.8290 S   0  0  0  0  0  0  0  0  0  0  0  0
   57.1430   21.8610   45.2980 C   0  0  0  0  0  0  0  0  0  0  0  0
   55.2070   21.2630   47.0900 O   0  0  0  0  0  0  0  0  0  0  0  0
   57.3220   22.1440   47.9400 O   0  0  0  0  0  0  0  0  0  0  0  0
   55.7920   26.2370   46.0020 C   0  0  0  0  0  0  0  0  0  0  0  0
   54.4070   26.3370   45.9530 O   0  0  0  0  0  0  0  0  0  0  0  0
   60.8416   31.4122   48.1067 H   0  0  0  0  0  0  0  0  0  0  0  0
   60.4925   30.4540   46.6280 H   0  0  0  0  0  0  0  0  0  0  0  0
   61.8336   31.6491   46.6280 H   0  0  0  0  0  0  0  0  0  0  0  0
   58.0711   30.2046   46.8579 H   0  0  0  0  0  0  0  0  0  0  0  0
   58.6236   30.0015   44.0343 H   0  0  0  0  0  0  0  0  0  0  0  0
   58.5703   28.1804   45.5188 H   0  0  0  0  0  0  0  0  0  0  0  0
   59.6743   26.1072   46.3472 H   0  0  0  0  0  0  0  0  0  0  0  0
   58.3096   24.1133   46.9410 H   0  0  0  0  0  0  0  0  0  0  0  0
   58.1223   21.4086   45.5132 H   0  0  0  0  0  0  0  0  0  0  0  0
   56.5320   21.1539   44.7177 H   0  0  0  0  0  0  0  0  0  0  0  0
   57.2853   22.7846   44.7177 H   0  0  0  0  0  0  0  0  0  0  0  0
  1  2  1  0
  2  3  1  0
  3  4  1  0
  4  5  2  0
  4  6  1  0
  6  7  1  0
  7  8  2  0
  7  9  1  0
  9 10  1  0
 10 11  2  3
 11 12  1  0
 12 13  2  0
 12 14  1  0
 14 15  1  0
 15 16  2  0
 16 17  1  0
 17 18  2  0
 18 19  1  0
 19 20  1  0
 20 21  1  0
 21 22  1  0
 21 23  2  0
 21 24  2  0
 19 25  2  0
 25 26  1  0
  9  2  2  0
 25 15  1  0
  1 27  1  0
  1 28  1  0
  1 29  1  0
 10 30  1  0
 11 31  1  0
 16 32  1  0
 17 33  1  0
 18 34  1  0
 22 35  1  0
 22 36  1  0
 22 37  1  0
M  CHG  5   3  -1   6  -1  14  -1  20  -1  26  -1
M  END
>  <UniqueID>  (71) 
66

>  <SMILES>  (71) 
Cc1[n-]c(=O)[n-]c(=O)c1C=CC(=O)[N-]c1cccc([N-]S(C)(=O)=O)c1[O-]

>  <Energy>  (71) 
55.17296542899793

>  <Genealogy>  (71) 
Cc1[n-]c(=O)[n-]c(=O)c1C=CC(=O)[N-]c1cccc([N-]S(C)(=O)=O)c1[O-] (protonated)
Cc1[n-]c(=O)[n-]c(=O)c1C=CC(=O)[N-]c1cccc([N-]S(C)(=O)=O)c1[O-] (3D coordinates assigned)
Cc1[n-]c(=O)[n-]c(=O)c1C=CC(=O)[N-]c1cccc([N-]S(C)(=O)=O)c1[O-] (optimized conformer: 55.17296542899793 kcal/mol)

>  <smiles>  (71) 
Cc1[nH]c(=O)[nH]c(=O)c1C=CC(=O)Nc1cccc(NS(C)(=O)=O)c1O

>  <score_type>  (71) 
oracle

>  <origin>  (71) 
adg

>  <m_score__min__energy>  (71) 
-17.539999999999999

>  <m_primary>  (71) 
energy

$$$$
71:0
     RDKit          3D

 45 47  0  0  0  0  0  0  0  0999 V2000
   55.1430   28.6700   45.6270 H   0  0  0  0  0  0  0  0  0  0  0  0
   55.1260   29.3170   44.8090 N   0  0  0  0  0  0  0  0  0  0  0  0
   56.7620   29.7770   44.4980 S   0  0  0  0  0  0  0  0  0  0  0  0
   56.9670   31.2120   44.8980 O   0  0  0  0  0  0  0  0  0  0  0  0
   57.0480   29.6430   43.0280 O   0  0  0  0  0  0  0  0  0  0  0  0
   57.8510   28.7420   45.4160 C   0  0  0  0  0  0  0  0  0  0  0  0
   58.2370   27.4950   44.9060 C   0  0  0  0  0  0  0  0  0  0  0  0
   57.8742   27.1685   43.9202 H   0  0  0  0  0  0  0  0  0  0  0  0
   59.0820   26.6660   45.6480 C   0  0  0  0  0  0  0  0  0  0  0  0
   59.3797   25.6862   45.2463 H   0  0  0  0  0  0  0  0  0  0  0  0
   59.5500   27.0770   46.8980 C   0  0  0  0  0  0  0  0  0  0  0  0
   60.2086   26.4164   47.4811 H   0  0  0  0  0  0  0  0  0  0  0  0
   59.1820   28.3330   47.4140 C   0  0  0  0  0  0  0  0  0  0  0  0
   59.6230   28.7640   48.7130 N   0  0  0  0  0  0  0  0  0  0  0  0
   59.3140   28.2120   49.5460 H   0  0  0  0  0  0  0  0  0  0  0  0
   60.4820   29.8900   48.9500 C   0  0  0  0  0  0  0  0  0  0  0  0
   60.3470   30.9970   48.1780 N   0  0  0  0  0  0  0  0  0  0  0  0
   61.1350   32.1000   48.3160 C   0  0  0  0  0  0  0  0  0  0  0  0
   60.9320   33.1420   47.5630 N   0  0  0  0  0  0  0  0  0  0  0  0
   59.7490   33.4560   46.8080 C   0  0  0  0  0  0  0  0  0  0  0  0
   58.4980   33.1840   47.3770 C   0  0  0  0  0  0  0  0  0  0  0  0
   58.4397   32.7118   48.3688 H   0  0  0  0  0  0  0  0  0  0  0  0
   57.3230   33.5090   46.6920 C   0  0  0  0  0  0  0  0  0  0  0  0
   56.3450   33.2760   47.1383 H   0  0  0  0  0  0  0  0  0  0  0  0
   57.3890   34.1290   45.4420 C   0  0  0  0  0  0  0  0  0  0  0  0
   56.4639   34.3777   44.9014 H   0  0  0  0  0  0  0  0  0  0  0  0
   58.6310   34.4330   44.8790 C   0  0  0  0  0  0  0  0  0  0  0  0
   58.6828   34.9294   43.8988 H   0  0  0  0  0  0  0  0  0  0  0  0
   59.8090   34.1070   45.5600 C   0  0  0  0  0  0  0  0  0  0  0  0
   60.7848   34.3597   45.1197 H   0  0  0  0  0  0  0  0  0  0  0  0
   62.1440   32.1150   49.3150 C   0  0  0  0  0  0  0  0  0  0  0  0
   62.9960   33.2110   49.5660 O   0  0  0  0  0  0  0  0  0  0  0  0
   62.6120   34.5700   49.7410 C   0  0  0  0  0  0  0  0  0  0  0  0
   62.5477   34.7974   50.8153 H   0  0  0  0  0  0  0  0  0  0  0  0
   63.3600   35.2258   49.2715 H   0  0  0  0  0  0  0  0  0  0  0  0
   61.6314   34.7373   49.2715 H   0  0  0  0  0  0  0  0  0  0  0  0
   62.3190   30.9620   50.1060 C   0  0  0  0  0  0  0  0  0  0  0  0
   63.3890   30.9270   51.1630 C   0  0  0  0  0  0  0  0  0  0  0  0
   62.9215   30.9423   52.1586 H   0  0  0  0  0  0  0  0  0  0  0  0
   63.9845   30.0089   51.0516 H   0  0  0  0  0  0  0  0  0  0  0  0
   64.0433   31.8042   51.0516 H   0  0  0  0  0  0  0  0  0  0  0  0
   61.4910   29.8490   49.9180 C   0  0  0  0  0  0  0  0  0  0  0  0
   61.6333   28.9456   50.5292 H   0  0  0  0  0  0  0  0  0  0  0  0
   58.3130   29.1500   46.6750 C   0  0  0  0  0  0  0  0  0  0  0  0
   57.9918   30.1181   47.0868 H   0  0  0  0  0  0  0  0  0  0  0  0
  1  2  1  0
  2  3  1  0
  3  4  2  0
  3  5  2  0
  3  6  1  0
  6  7  2  0
  7  8  1  0
  7  9  1  0
  9 10  1  0
  9 11  2  0
 11 12  1  0
 11 13  1  0
 13 14  1  0
 14 15  1  0
 14 16  1  0
 16 17  1  0
 17 18  1  0
 18 19  2  0
 19 20  1  0
 20 21  2  0
 21 22  1  0
 21 23  1  0
 23 24  1  0
 23 25  2  0
 25 26  1  0
 25 27  1  0
 27 28  1  0
 27 29  2  0
 29 30  1  0
 18 31  1  0
 31 32  1  0
 32 33  1  0
 33 34  1  0
 33 35  1  0
 33 36  1  0
 31 37  2  0
 37 38  1  0
 38 39  1  0
 38 40  1  0
 38 41  1  0
 37 42  1  0
 42 43  1  0
 13 44  2  0
 44 45  1  0
 44  6  1  0
 42 16  2  0
 29 20  1  0
M  CHG  2   2  -1  17  -1
M  END
>  <UniqueID>  (72) 
67

>  <SMILES>  (72) 
COc1c(C)cc(Nc2cccc(S([NH-])(=O)=O)c2)[n-]/c1=N\c1ccccc1

>  <Energy>  (72) 
61.84889139391336

>  <Genealogy>  (72) 
COc1c(C)cc(Nc2cccc(S([NH-])(=O)=O)c2)[n-]c1=Nc1ccccc1 (protonated)
COc1c(C)cc(Nc2cccc(S([NH-])(=O)=O)c2)[n-]/c1=N\c1ccccc1 (cis-trans isomerization)
COc1c(C)cc(Nc2cccc(S([NH-])(=O)=O)c2)[n-]/c1=N\c1ccccc1 (3D coordinates assigned)
COc1c(C)cc(Nc2cccc(S([NH-])(=O)=O)c2)[n-]/c1=N\c1ccccc1 (optimized conformer: 61.84889139391336 kcal/mol)

>  <smiles>  (72) 
COc1c(C)cc(Nc2cccc(S(N)(=O)=O)c2)[nH]c1=Nc1ccccc1

>  <score_type>  (72) 
oracle

>  <origin>  (72) 
adg

>  <m_score__min__energy>  (72) 
-12.960000000000001

>  <m_primary>  (72) 
energy

$$$$
72:0
     RDKit          3D

 49 51  0  0  0  0  0  0  0  0999 V2000
   61.0770   30.0760   49.9870 C   0  0  0  0  0  0  0  0  0  0  0  0
   59.6160   30.1940   50.1260 N   0  0  0  0  0  0  0  0  0  0  0  0
   59.2030   31.5660   50.5290 C   0  0  0  0  0  0  0  0  0  0  0  0
   58.3430   32.3010   49.4860 C   0  0  0  0  0  0  0  0  0  0  0  0
   58.8100   31.9990   48.1320 N   0  0  0  0  0  0  0  0  0  0  0  0
   58.9050   33.0470   47.1530 C   0  0  0  0  0  0  0  0  0  0  0  0
   59.6280   34.2150   47.4460 C   0  0  0  0  0  0  0  0  0  0  0  0
   59.7710   35.2160   46.4840 C   0  0  0  0  0  0  0  0  0  0  0  0
   59.1930   35.0630   45.2220 C   0  0  0  0  0  0  0  0  0  0  0  0
   58.4690   33.9070   44.9200 C   0  0  0  0  0  0  0  0  0  0  0  0
   58.3220   32.8900   45.8790 C   0  0  0  0  0  0  0  0  0  0  0  0
   57.5250   31.7320   45.5890 N   0  0  0  0  0  0  0  0  0  0  0  0
   57.5530   31.0600   44.3200 C   0  0  0  0  0  0  0  0  0  0  0  0
   58.3110   31.4750   43.4030 O   0  0  0  0  0  0  0  0  0  0  0  0
   56.6960   29.8800   44.0950 C   0  0  0  0  0  0  0  0  0  0  0  0
   55.7340   29.6680   44.8800 O   0  0  0  0  0  0  0  0  0  0  0  0
   56.9190   28.9530   43.0230 N   0  0  0  0  0  0  0  0  0  0  0  0
   57.7710   27.7660   43.0700 C   0  0  0  0  0  0  0  0  0  0  0  0
   58.5430   27.7130   44.3640 C   0  0  0  0  0  0  0  0  0  0  0  0
   59.7320   28.4450   44.5180 C   0  0  0  0  0  0  0  0  0  0  0  0
   60.4460   28.3850   45.7180 C   0  0  0  0  0  0  0  0  0  0  0  0
   59.9840   27.5890   46.7700 C   0  0  0  0  0  0  0  0  0  0  0  0
   58.8080   26.8490   46.6220 C   0  0  0  0  0  0  0  0  0  0  0  0
   58.3590   26.0780   47.6430 F   0  0  0  0  0  0  0  0  0  0  0  0
   58.0900   26.9080   45.4230 C   0  0  0  0  0  0  0  0  0  0  0  0
   59.0280   30.6070   47.7320 C   0  0  0  0  0  0  0  0  0  0  0  0
   58.9070   29.6660   48.9410 C   0  0  0  0  0  0  0  0  0  0  0  0
   61.5384   30.0387   50.9848 H   0  0  0  0  0  0  0  0  0  0  0  0
   61.3197   29.1553   49.4362 H   0  0  0  0  0  0  0  0  0  0  0  0
   61.4644   30.9458   49.4362 H   0  0  0  0  0  0  0  0  0  0  0  0
   58.6245   31.4915   51.4616 H   0  0  0  0  0  0  0  0  0  0  0  0
   60.1269   32.1517   50.6443 H   0  0  0  0  0  0  0  0  0  0  0  0
   57.2962   31.9790   49.5881 H   0  0  0  0  0  0  0  0  0  0  0  0
   58.4248   33.3845   49.6572 H   0  0  0  0  0  0  0  0  0  0  0  0
   60.0840   34.3415   48.4390 H   0  0  0  0  0  0  0  0  0  0  0  0
   60.3401   36.1272   46.7203 H   0  0  0  0  0  0  0  0  0  0  0  0
   59.3078   35.8531   44.4653 H   0  0  0  0  0  0  0  0  0  0  0  0
   58.0115   33.7921   43.9263 H   0  0  0  0  0  0  0  0  0  0  0  0
   57.0190   31.2740   46.3800 H   0  0  0  0  0  0  0  0  0  0  0  0
   57.1423   26.8671   42.9879 H   0  0  0  0  0  0  0  0  0  0  0  0
   58.4851   27.8108   42.2345 H   0  0  0  0  0  0  0  0  0  0  0  0
   60.1027   29.0680   43.6907 H   0  0  0  0  0  0  0  0  0  0  0  0
   61.3732   28.9652   45.8348 H   0  0  0  0  0  0  0  0  0  0  0  0
   60.5462   27.5451   47.7144 H   0  0  0  0  0  0  0  0  0  0  0  0
   57.1665   26.3215   45.3085 H   0  0  0  0  0  0  0  0  0  0  0  0
   58.2762   30.3260   46.9798 H   0  0  0  0  0  0  0  0  0  0  0  0
   60.0413   30.5150   47.3139 H   0  0  0  0  0  0  0  0  0  0  0  0
   57.8427   29.5422   49.1897 H   0  0  0  0  0  0  0  0  0  0  0  0
   59.3665   28.7039   48.6705 H   0  0  0  0  0  0  0  0  0  0  0  0
  1  2  1  0
  2  3  1  0
  3  4  1  0
  4  5  1  0
  5  6  1  0
  6  7  2  0
  7  8  1  0
  8  9  2  0
  9 10  1  0
 10 11  2  0
 11 12  1  0
 12 13  1  0
 13 14  2  0
 13 15  1  0
 15 16  2  0
 15 17  1  0
 17 18  1  0
 18 19  1  0
 19 20  2  0
 20 21  1  0
 21 22  2  0
 22 23  1  0
 23 24  1  0
 23 25  2  0
  5 26  1  0
 26 27  1  0
 27  2  1  0
 11  6  1  0
 25 19  1  0
  1 28  1  0
  1 29  1  0
  1 30  1  0
  3 31  1  0
  3 32  1  0
  4 33  1  0
  4 34  1  0
  7 35  1  0
  8 36  1  0
  9 37  1  0
 10 38  1  0
 12 39  1  0
 18 40  1  0
 18 41  1  0
 20 42  1  0
 21 43  1  0
 22 44  1  0
 25 45  1  0
 26 46  1  0
 26 47  1  0
 27 48  1  0
 27 49  1  0
M  CHG  1  17  -1
M  END
>  <UniqueID>  (73) 
68

>  <SMILES>  (73) 
CN1CCN(c2ccccc2NC(=O)C(=O)[N-]Cc2cccc(F)c2)CC1

>  <Energy>  (73) 
62.31745929377284

>  <Genealogy>  (73) 
CN1CCN(c2ccccc2NC(=O)C(=O)[N-]Cc2cccc(F)c2)CC1 (protonated)
CN1CCN(c2ccccc2NC(=O)C(=O)[N-]Cc2cccc(F)c2)CC1 (3D coordinates assigned)
CN1CCN(c2ccccc2NC(=O)C(=O)[N-]Cc2cccc(F)c2)CC1 (nonaromatic ring conformer: 62.31745929377284 kcal/mol)

>  <smiles>  (73) 
CN1CCN(c2ccccc2NC(=O)C(=O)NCc2cccc(F)c2)CC1

>  <score_type>  (73) 
oracle

>  <origin>  (73) 
adg

>  <m_score__min__energy>  (73) 
-9.7200000000000006

>  <m_primary>  (73) 
energy

$$$$
73:0
     RDKit          3D

 34 36  0  0  0  0  0  0  0  0999 V2000
   64.5970   34.0585   49.9364 H   0  0  0  0  0  0  0  0  0  0  0  0
   63.7120   33.8180   49.3290 C   0  0  0  0  0  0  0  0  0  0  0  0
   62.4430   34.2270   49.7490 C   0  0  0  0  0  0  0  0  0  0  0  0
   62.3301   34.7890   50.6878 H   0  0  0  0  0  0  0  0  0  0  0  0
   61.3170   33.9230   48.9780 C   0  0  0  0  0  0  0  0  0  0  0  0
   60.3213   34.2481   49.3140 H   0  0  0  0  0  0  0  0  0  0  0  0
   61.4480   33.2040   47.7750 C   0  0  0  0  0  0  0  0  0  0  0  0
   60.2640   32.8750   46.9490 C   0  0  0  0  0  0  0  0  0  0  0  0
   59.4130   33.8050   46.4600 N   0  0  0  0  0  0  0  0  0  0  0  0
   58.4010   33.2600   45.7300 C   0  0  0  0  0  0  0  0  0  0  0  0
   57.3540   34.1270   45.1040 C   0  0  0  0  0  0  0  0  0  0  0  0
   56.7634   34.6161   45.8926 H   0  0  0  0  0  0  0  0  0  0  0  0
   57.8374   34.8928   44.4796 H   0  0  0  0  0  0  0  0  0  0  0  0
   56.6917   33.5093   44.4796 H   0  0  0  0  0  0  0  0  0  0  0  0
   58.4370   31.8630   45.6310 C   0  0  0  0  0  0  0  0  0  0  0  0
   57.5000   30.9730   44.9200 C   0  0  0  0  0  0  0  0  0  0  0  0
   56.3660   31.3980   44.5680 O   0  0  0  0  0  0  0  0  0  0  0  0
   57.8990   29.6220   44.6390 N   0  0  0  0  0  0  0  0  0  0  0  0
   57.3680   28.5420   45.1360 C   0  0  0  0  0  0  0  0  0  0  0  0
   56.0350   28.3120   45.1980 N   0  0  0  0  0  0  0  0  0  0  0  0
   55.9640   27.0870   45.7560 C   0  0  0  0  0  0  0  0  0  0  0  0
   54.7720   26.4260   46.0120 O   0  0  0  0  0  0  0  0  0  0  0  0
   57.2200   26.5930   46.0200 C   0  0  0  0  0  0  0  0  0  0  0  0
   57.4560   25.6140   46.4626 H   0  0  0  0  0  0  0  0  0  0  0  0
   58.1050   27.5280   45.6370 N   0  0  0  0  0  0  0  0  0  0  0  0
   59.5600   27.4100   45.6560 C   0  0  0  0  0  0  0  0  0  0  0  0
   59.9120   27.3815   46.6978 H   0  0  0  0  0  0  0  0  0  0  0  0
   59.8596   26.4846   45.1423 H   0  0  0  0  0  0  0  0  0  0  0  0
   60.0048   28.2750   45.1423 H   0  0  0  0  0  0  0  0  0  0  0  0
   59.7840   31.3270   46.4880 S   0  0  0  0  0  0  0  0  0  0  0  0
   62.7320   32.7970   47.3640 C   0  0  0  0  0  0  0  0  0  0  0  0
   62.8522   32.2334   46.4270 H   0  0  0  0  0  0  0  0  0  0  0  0
   63.8550   33.1040   48.1380 C   0  0  0  0  0  0  0  0  0  0  0  0
   64.8537   32.7822   47.8077 H   0  0  0  0  0  0  0  0  0  0  0  0
  1  2  1  0
  2  3  2  0
  3  4  1  0
  3  5  1  0
  5  6  1  0
  5  7  2  0
  7  8  1  0
  8  9  2  0
  9 10  1  0
 10 11  1  0
 11 12  1  0
 11 13  1  0
 11 14  1  0
 10 15  2  0
 15 16  1  0
 16 17  2  0
 16 18  1  0
 18 19  2  0
 19 20  1  0
 20 21  1  0
 21 22  1  0
 21 23  2  0
 23 24  1  0
 23 25  1  0
 25 26  1  0
 26 27  1  0
 26 28  1  0
 26 29  1  0
 15 30  1  0
  7 31  1  0
 31 32  1  0
 31 33  2  0
 33 34  1  0
 33  2  1  0
 30  8  1  0
 25 19  1  0
M  CHG  2  20  -1  22  -1
M  END
>  <UniqueID>  (74) 
69

>  <SMILES>  (74) 
Cc1nc(-c2ccccc2)sc1C(=O)/N=c1\[n-]c([O-])cn1C

>  <Energy>  (74) 
98.5452229343384

>  <Genealogy>  (74) 
Cc1nc(-c2ccccc2)sc1C(=O)N=c1[n-]c([O-])cn1C (protonated)
Cc1nc(-c2ccccc2)sc1C(=O)/N=c1\[n-]c([O-])cn1C (cis-trans isomerization)
Cc1nc(-c2ccccc2)sc1C(=O)/N=c1\[n-]c([O-])cn1C (3D coordinates assigned)
Cc1nc(-c2ccccc2)sc1C(=O)/N=c1\[n-]c([O-])cn1C (optimized conformer: 98.5452229343384 kcal/mol)

>  <smiles>  (74) 
Cc1nc(-c2ccccc2)sc1C(=O)N=c1[nH]c(O)cn1C

>  <score_type>  (74) 
oracle

>  <origin>  (74) 
adg

>  <m_score__min__energy>  (74) 
-13.07

>  <m_primary>  (74) 
energy

$$$$
74:0
     RDKit          3D

 35 37  0  0  0  0  0  0  0  0999 V2000
   59.8953   26.6013   47.2332 H   0  0  0  0  0  0  0  0  0  0  0  0
   59.0550   27.0800   46.7090 C   0  0  0  0  0  0  0  0  0  0  0  0
   57.8370   26.4790   46.6920 N   0  0  0  0  0  0  0  0  0  0  0  0
   56.7670   27.0420   46.0690 C   0  0  0  0  0  0  0  0  0  0  0  0
   55.5080   26.3550   45.9960 N   0  0  0  0  0  0  0  0  0  0  0  0
   55.2920   25.0690   45.9390 C   0  0  0  0  0  0  0  0  0  0  0  0
   54.0190   24.6280   45.5540 C   0  0  0  0  0  0  0  0  0  0  0  0
   53.2329   25.3575   45.3094 H   0  0  0  0  0  0  0  0  0  0  0  0
   53.7520   23.2610   45.4820 C   0  0  0  0  0  0  0  0  0  0  0  0
   52.7584   22.9087   45.1681 H   0  0  0  0  0  0  0  0  0  0  0  0
   54.7480   22.3430   45.8090 C   0  0  0  0  0  0  0  0  0  0  0  0
   54.5504   21.2627   45.7470 H   0  0  0  0  0  0  0  0  0  0  0  0
   55.9990   22.8090   46.2160 C   0  0  0  0  0  0  0  0  0  0  0  0
   56.7887   22.0923   46.4857 H   0  0  0  0  0  0  0  0  0  0  0  0
   56.2470   24.1470   46.2810 N   0  0  0  0  0  0  0  0  0  0  0  0
   57.1800   24.4340   46.6450 H   0  0  0  0  0  0  0  0  0  0  0  0
   56.9240   28.2500   45.3830 C   0  0  0  0  0  0  0  0  0  0  0  0
   56.0753   28.6827   44.8330 H   0  0  0  0  0  0  0  0  0  0  0  0
   58.1610   28.9120   45.3940 C   0  0  0  0  0  0  0  0  0  0  0  0
   58.2580   30.0430   44.7490 N   0  0  0  0  0  0  0  0  0  0  0  0
   57.4600   31.2330   44.8760 C   0  0  0  0  0  0  0  0  0  0  0  0
   56.2510   31.2330   44.5190 O   0  0  0  0  0  0  0  0  0  0  0  0
   58.0870   32.4920   45.3450 C   0  0  0  0  0  0  0  0  0  0  0  0
   58.5230   33.4630   44.4240 C   0  0  0  0  0  0  0  0  0  0  0  0
   58.3967   33.2883   43.3453 H   0  0  0  0  0  0  0  0  0  0  0  0
   59.1160   34.6490   44.8710 C   0  0  0  0  0  0  0  0  0  0  0  0
   59.4535   35.4022   44.1438 H   0  0  0  0  0  0  0  0  0  0  0  0
   59.2800   34.8780   46.2390 C   0  0  0  0  0  0  0  0  0  0  0  0
   59.7449   35.8117   46.5884 H   0  0  0  0  0  0  0  0  0  0  0  0
   58.8540   33.9220   47.1630 C   0  0  0  0  0  0  0  0  0  0  0  0
   58.9851   34.1029   48.2401 H   0  0  0  0  0  0  0  0  0  0  0  0
   58.2610   32.7350   46.7220 C   0  0  0  0  0  0  0  0  0  0  0  0
   57.9280   31.9856   47.4552 H   0  0  0  0  0  0  0  0  0  0  0  0
   59.2440   28.3040   46.0630 C   0  0  0  0  0  0  0  0  0  0  0  0
   60.2305   28.7904   46.0758 H   0  0  0  0  0  0  0  0  0  0  0  0
  1  2  1  0
  2  3  1  0
  3  4  1  0
  4  5  1  0
  5  6  2  3
  6  7  1  0
  7  8  1  0
  7  9  2  0
  9 10  1  0
  9 11  1  0
 11 12  1  0
 11 13  2  0
 13 14  1  0
 13 15  1  0
 15 16  1  0
  4 17  2  0
 17 18  1  0
 17 19  1  0
 19 20  2  0
 20 21  1  0
 21 22  2  0
 21 23  1  0
 23 24  2  0
 24 25  1  0
 24 26  1  0
 26 27  1  0
 26 28  2  0
 28 29  1  0
 28 30  1  0
 30 31  1  0
 30 32  2  0
 32 33  1  0
 19 34  1  0
 34 35  1  0
 34  2  2  0
 15  6  1  0
 32 23  1  0
M  CHG  1   3  -1
M  END
>  <UniqueID>  (75) 
70

>  <SMILES>  (75) 
O=C(/N=c1\cc[n-]c(N=c2cccc[nH]2)c1)c1ccccc1

>  <Energy>  (75) 
55.113496733247246

>  <Genealogy>  (75) 
O=C(N=c1cc[n-]c(N=c2cccc[nH]2)c1)c1ccccc1 (protonated)
O=C(/N=c1\cc[n-]c(N=c2cccc[nH]2)c1)c1ccccc1 (cis-trans isomerization)
O=C(/N=c1\cc[n-]c(N=c2cccc[nH]2)c1)c1ccccc1 (3D coordinates assigned)
O=C(/N=c1\cc[n-]c(N=c2cccc[nH]2)c1)c1ccccc1 (optimized conformer: 55.113496733247246 kcal/mol)

>  <smiles>  (75) 
O=C(N=c1cc[nH]c(N=c2cccc[nH]2)c1)c1ccccc1

>  <score_type>  (75) 
oracle

>  <origin>  (75) 
adg

>  <m_score__min__energy>  (75) 
-8.9700000000000006

>  <m_primary>  (75) 
energy

$$$$
75:0
     RDKit          3D

 47 49  0  0  0  0  0  0  0  0999 V2000
   56.6020   20.7900   44.1490 C   0  0  0  0  0  0  0  0  0  0  0  0
   56.1820   20.9890   45.4000 C   0  0  0  0  0  0  0  0  0  0  0  0
   56.9660   21.8480   46.3520 C   0  0  0  0  0  0  0  0  0  0  0  0
   56.6830   23.2760   46.1070 N   0  0  0  0  0  0  0  0  0  0  0  0
   55.8510   23.9680   46.9500 C   0  0  0  0  0  0  0  0  0  0  0  0
   55.3030   23.3960   47.9310 O   0  0  0  0  0  0  0  0  0  0  0  0
   55.6130   25.2870   46.7460 N   0  0  0  0  0  0  0  0  0  0  0  0
   56.1790   25.9640   45.7190 C   0  0  0  0  0  0  0  0  0  0  0  0
   55.9210   27.3230   45.5740 O   0  0  0  0  0  0  0  0  0  0  0  0
   57.0280   25.2920   44.8270 C   0  0  0  0  0  0  0  0  0  0  0  0
   57.6990   25.9880   43.7000 C   0  0  0  0  0  0  0  0  0  0  0  0
   58.4460   27.1020   43.7980 C   0  0  0  0  0  0  0  0  0  0  0  0
   59.1240   27.5840   45.0250 C   0  0  0  0  0  0  0  0  0  0  0  0
   59.4230   26.7100   46.0870 C   0  0  0  0  0  0  0  0  0  0  0  0
   60.0980   27.1770   47.2170 C   0  0  0  0  0  0  0  0  0  0  0  0
   60.4580   28.5210   47.3130 C   0  0  0  0  0  0  0  0  0  0  0  0
   60.1290   29.4080   46.2850 C   0  0  0  0  0  0  0  0  0  0  0  0
   59.4540   28.9500   45.1430 C   0  0  0  0  0  0  0  0  0  0  0  0
   59.0790   29.8440   44.1370 O   0  0  0  0  0  0  0  0  0  0  0  0
   57.6860   30.8270   44.2510 S   0  0  0  0  0  0  0  0  0  0  0  0
   57.2590   31.2450   42.8720 O   0  0  0  0  0  0  0  0  0  0  0  0
   56.5630   30.0650   44.8970 O   0  0  0  0  0  0  0  0  0  0  0  0
   58.0790   32.2640   45.1870 C   0  0  0  0  0  0  0  0  0  0  0  0
   58.0790   32.2330   46.5890 C   0  0  0  0  0  0  0  0  0  0  0  0
   58.3980   33.3860   47.3150 C   0  0  0  0  0  0  0  0  0  0  0  0
   58.7160   34.5720   46.6450 C   0  0  0  0  0  0  0  0  0  0  0  0
   59.0290   35.6860   47.3500 F   0  0  0  0  0  0  0  0  0  0  0  0
   58.7120   34.6050   45.2470 C   0  0  0  0  0  0  0  0  0  0  0  0
   58.3930   33.4550   44.5190 C   0  0  0  0  0  0  0  0  0  0  0  0
   57.2920   23.9320   45.0660 C   0  0  0  0  0  0  0  0  0  0  0  0
   58.0930   23.3150   44.3080 O   0  0  0  0  0  0  0  0  0  0  0  0
   56.0154   20.1582   43.4658 H   0  0  0  0  0  0  0  0  0  0  0  0
   57.5348   21.2578   43.8010 H   0  0  0  0  0  0  0  0  0  0  0  0
   55.2481   20.5173   45.7394 H   0  0  0  0  0  0  0  0  0  0  0  0
   56.6848   21.5945   47.3848 H   0  0  0  0  0  0  0  0  0  0  0  0
   58.0396   21.6648   46.1974 H   0  0  0  0  0  0  0  0  0  0  0  0
   56.3000   27.8440   44.7930 H   0  0  0  0  0  0  0  0  0  0  0  0
   57.5741   25.5543   42.6968 H   0  0  0  0  0  0  0  0  0  0  0  0
   58.5642   27.7086   42.8880 H   0  0  0  0  0  0  0  0  0  0  0  0
   59.1234   25.6533   46.0266 H   0  0  0  0  0  0  0  0  0  0  0  0
   60.3464   26.4829   48.0335 H   0  0  0  0  0  0  0  0  0  0  0  0
   61.0012   28.8828   48.1985 H   0  0  0  0  0  0  0  0  0  0  0  0
   60.4003   30.4705   46.3711 H   0  0  0  0  0  0  0  0  0  0  0  0
   57.8281   31.3019   47.1183 H   0  0  0  0  0  0  0  0  0  0  0  0
   58.3987   33.3596   48.4147 H   0  0  0  0  0  0  0  0  0  0  0  0
   58.9603   35.5376   44.7192 H   0  0  0  0  0  0  0  0  0  0  0  0
   58.3885   33.4852   43.4194 H   0  0  0  0  0  0  0  0  0  0  0  0
  1  2  2  0
  2  3  1  0
  3  4  1  0
  4  5  1  0
  5  6  2  0
  5  7  1  0
  7  8  1  0
  8  9  1  0
  8 10  2  0
 10 11  1  0
 11 12  2  3
 12 13  1  0
 13 14  2  0
 14 15  1  0
 15 16  2  0
 16 17  1  0
 17 18  2  0
 18 19  1  0
 19 20  1  0
 20 21  2  0
 20 22  2  0
 20 23  1  0
 23 24  2  0
 24 25  1  0
 25 26  2  0
 26 27  1  0
 26 28  1  0
 28 29  2  0
 10 30  1  0
 30 31  2  0
 30  4  1  0
 18 13  1  0
 29 23  1  0
  1 32  1  0
  1 33  1  0
  2 34  1  0
  3 35  1  0
  3 36  1  0
  9 37  1  0
 11 38  1  0
 12 39  1  0
 14 40  1  0
 15 41  1  0
 16 42  1  0
 17 43  1  0
 24 44  1  0
 25 45  1  0
 28 46  1  0
 29 47  1  0
M  CHG  1   7  -1
M  END
>  <UniqueID>  (76) 
71

>  <SMILES>  (76) 
C=CCn1c(=O)[n-]c(O)c(C=Cc2ccccc2OS(=O)(=O)c2ccc(F)cc2)c1=O

>  <Energy>  (76) 
64.76721500076162

>  <Genealogy>  (76) 
C=CCn1c(=O)[n-]c(O)c(C=Cc2ccccc2OS(=O)(=O)c2ccc(F)cc2)c1=O (protonated)
C=CCn1c(=O)[n-]c(O)c(C=Cc2ccccc2OS(=O)(=O)c2ccc(F)cc2)c1=O (3D coordinates assigned)
C=CCn1c(=O)[n-]c(O)c(C=Cc2ccccc2OS(=O)(=O)c2ccc(F)cc2)c1=O (optimized conformer: 64.76721500076162 kcal/mol)

>  <smiles>  (76) 
C=CCn1c(=O)[nH]c(O)c(C=Cc2ccccc2OS(=O)(=O)c2ccc(F)cc2)c1=O

>  <score_type>  (76) 
oracle

>  <origin>  (76) 
adg

>  <m_score__min__energy>  (76) 
-11.16

>  <m_primary>  (76) 
energy

$$$$
76:0
     RDKit          3D

 33 34  0  0  0  0  0  0  0  0999 V2000
   59.3900   25.7690   46.0000 C   0  0  0  0  0  0  0  0  0  0  0  0
   57.9410   25.9480   46.0250 N   0  0  0  0  0  0  0  0  0  0  0  0
   57.1790   26.7420   45.2490 C   0  0  0  0  0  0  0  0  0  0  0  0
   57.7860   27.7210   43.8720 S   0  0  0  0  0  0  0  0  0  0  0  0
   58.3580   29.1070   44.9150 C   0  0  0  0  0  0  0  0  0  0  0  0
   57.2500   30.0910   45.1770 C   0  0  0  0  0  0  0  0  0  0  0  0
   56.0720   29.7780   44.8640 O   0  0  0  0  0  0  0  0  0  0  0  0
   57.5000   31.4040   45.6960 N   0  0  0  0  0  0  0  0  0  0  0  0
   58.7810   31.9370   46.0560 C   0  0  0  0  0  0  0  0  0  0  0  0
   59.1710   33.2280   45.6670 C   0  0  0  0  0  0  0  0  0  0  0  0
   60.4330   33.7160   46.0170 C   0  0  0  0  0  0  0  0  0  0  0  0
   61.3260   32.9110   46.7360 C   0  0  0  0  0  0  0  0  0  0  0  0
   62.9080   33.5340   47.1940 S   0  0  0  0  0  0  0  0  0  0  0  0
   64.0370   32.2300   47.3010 N   0  0  0  0  0  0  0  0  0  0  0  0
   62.8170   34.2290   48.5230 O   0  0  0  0  0  0  0  0  0  0  0  0
   63.3830   34.5240   46.1650 O   0  0  0  0  0  0  0  0  0  0  0  0
   60.9460   31.6130   47.1040 C   0  0  0  0  0  0  0  0  0  0  0  0
   59.6840   31.1250   46.7520 C   0  0  0  0  0  0  0  0  0  0  0  0
   55.8880   26.7250   45.6400 N   0  0  0  0  0  0  0  0  0  0  0  0
   55.8120   25.9260   46.6950 N   0  0  0  0  0  0  0  0  0  0  0  0
   57.0590   25.4760   46.9220 C   0  0  0  0  0  0  0  0  0  0  0  0
   57.3590   24.7050   47.8720 O   0  0  0  0  0  0  0  0  0  0  0  0
   59.7715   25.7219   47.0307 H   0  0  0  0  0  0  0  0  0  0  0  0
   59.6349   24.8338   45.4753 H   0  0  0  0  0  0  0  0  0  0  0  0
   59.8552   26.6165   45.4753 H   0  0  0  0  0  0  0  0  0  0  0  0
   58.7167   28.7079   45.8753 H   0  0  0  0  0  0  0  0  0  0  0  0
   59.1665   29.6298   44.3830 H   0  0  0  0  0  0  0  0  0  0  0  0
   58.4815   33.8573   45.0851 H   0  0  0  0  0  0  0  0  0  0  0  0
   60.7261   34.7358   45.7269 H   0  0  0  0  0  0  0  0  0  0  0  0
   64.7540   32.5050   48.0100 H   0  0  0  0  0  0  0  0  0  0  0  0
   64.5290   32.1770   46.3800 H   0  0  0  0  0  0  0  0  0  0  0  0
   61.6420   30.9771   47.6708 H   0  0  0  0  0  0  0  0  0  0  0  0
   59.3993   30.0977   47.0234 H   0  0  0  0  0  0  0  0  0  0  0  0
  1  2  1  0
  2  3  1  0
  3  4  1  0
  4  5  1  0
  5  6  1  0
  6  7  2  0
  6  8  1  0
  8  9  1  0
  9 10  2  0
 10 11  1  0
 11 12  2  0
 12 13  1  0
 13 14  1  0
 13 15  2  0
 13 16  2  0
 12 17  1  0
 17 18  2  0
  3 19  2  0
 19 20  1  0
 20 21  1  0
 21 22  2  0
 21  2  1  0
 18  9  1  0
  1 23  1  0
  1 24  1  0
  1 25  1  0
  5 26  1  0
  5 27  1  0
 10 28  1  0
 11 29  1  0
 14 30  1  0
 14 31  1  0
 17 32  1  0
 18 33  1  0
M  CHG  2   8  -1  20  -1
M  END
>  <UniqueID>  (77) 
72

>  <SMILES>  (77) 
Cn1c(SCC(=O)[N-]c2ccc(S(N)(=O)=O)cc2)n[n-]c1=O

>  <Energy>  (77) 
68.32421637361952

>  <Genealogy>  (77) 
Cn1c(SCC(=O)[N-]c2ccc(S(N)(=O)=O)cc2)n[n-]c1=O (protonated)
Cn1c(SCC(=O)[N-]c2ccc(S(N)(=O)=O)cc2)n[n-]c1=O (3D coordinates assigned)
Cn1c(SCC(=O)[N-]c2ccc(S(N)(=O)=O)cc2)n[n-]c1=O (optimized conformer: 68.32421637361952 kcal/mol)

>  <smiles>  (77) 
Cn1c(SCC(=O)Nc2ccc(S(N)(=O)=O)cc2)n[nH]c1=O

>  <score_type>  (77) 
oracle

>  <origin>  (77) 
adg

>  <m_score__min__energy>  (77) 
-11.06

>  <m_primary>  (77) 
energy

$$$$
77:0
     RDKit          3D

 34 36  0  0  0  0  0  0  0  0999 V2000
   57.7420   33.8850   46.8030 O   0  0  0  0  0  0  0  0  0  0  0  0
   58.9700   33.6620   46.5120 C   0  0  0  0  0  0  0  0  0  0  0  0
   59.2310   33.3540   45.1590 N   0  0  0  0  0  0  0  0  0  0  0  0
   58.1090   33.3210   44.2470 C   0  0  0  0  0  0  0  0  0  0  0  0
   57.5650   31.9570   44.0420 C   0  0  0  0  0  0  0  0  0  0  0  0
   57.4270   31.0540   45.0940 C   0  0  0  0  0  0  0  0  0  0  0  0
   56.9150   29.7770   44.8910 C   0  0  0  0  0  0  0  0  0  0  0  0
   56.5360   29.4010   43.6050 C   0  0  0  0  0  0  0  0  0  0  0  0
   56.6740   30.3050   42.5540 C   0  0  0  0  0  0  0  0  0  0  0  0
   57.1870   31.5810   42.7650 C   0  0  0  0  0  0  0  0  0  0  0  0
   57.3290   32.4770   41.7570 F   0  0  0  0  0  0  0  0  0  0  0  0
   60.0040   33.7310   47.5400 C   0  0  0  0  0  0  0  0  0  0  0  0
   59.7940   34.1190   48.8260 C   0  0  0  0  0  0  0  0  0  0  0  0
   60.8000   34.1660   49.7440 N   0  0  0  0  0  0  0  0  0  0  0  0
   62.0570   33.8260   49.4120 C   0  0  0  0  0  0  0  0  0  0  0  0
   63.0870   33.8530   50.2740 N   0  0  0  0  0  0  0  0  0  0  0  0
   64.3340   33.4930   49.8550 C   0  0  0  0  0  0  0  0  0  0  0  0
   65.6210   33.5080   50.8580 S   0  0  0  0  0  0  0  0  0  0  0  0
   64.5590   33.1040   48.5780 N   0  0  0  0  0  0  0  0  0  0  0  0
   63.5720   33.0570   47.6770 C   0  0  0  0  0  0  0  0  0  0  0  0
   63.7750   32.6950   46.4820 O   0  0  0  0  0  0  0  0  0  0  0  0
   62.3090   33.4270   48.1190 C   0  0  0  0  0  0  0  0  0  0  0  0
   61.2990   33.3770   47.1840 C   0  0  0  0  0  0  0  0  0  0  0  0
   60.2210   33.1620   44.8660 H   0  0  0  0  0  0  0  0  0  0  0  0
   57.3099   33.9592   44.6521 H   0  0  0  0  0  0  0  0  0  0  0  0
   58.4689   33.6802   43.2716 H   0  0  0  0  0  0  0  0  0  0  0  0
   57.7296   31.3577   46.1070 H   0  0  0  0  0  0  0  0  0  0  0  0
   56.8112   29.0758   45.7322 H   0  0  0  0  0  0  0  0  0  0  0  0
   56.1298   28.3956   43.4199 H   0  0  0  0  0  0  0  0  0  0  0  0
   56.3721   30.0048   41.5397 H   0  0  0  0  0  0  0  0  0  0  0  0
   58.7779   34.4046   49.1359 H   0  0  0  0  0  0  0  0  0  0  0  0
   62.9360   34.1450   51.2490 H   0  0  0  0  0  0  0  0  0  0  0  0
   65.5110   32.8270   48.2530 H   0  0  0  0  0  0  0  0  0  0  0  0
   61.5181   33.0565   46.1548 H   0  0  0  0  0  0  0  0  0  0  0  0
  1  2  2  0
  2  3  1  0
  3  4  1  0
  4  5  1  0
  5  6  2  0
  6  7  1  0
  7  8  2  0
  8  9  1  0
  9 10  2  0
 10 11  1  0
  2 12  1  0
 12 13  2  0
 13 14  1  0
 14 15  2  0
 15 16  1  0
 16 17  1  0
 17 18  2  0
 17 19  1  0
 19 20  1  0
 20 21  2  0
 20 22  1  0
 22 23  2  0
 10  5  1  0
 23 12  1  0
 22 15  1  0
  3 24  1  0
  4 25  1  0
  4 26  1  0
  6 27  1  0
  7 28  1  0
  8 29  1  0
  9 30  1  0
 13 31  1  0
 16 32  1  0
 19 33  1  0
 23 34  1  0
M  END
>  <smiles>  (78) 
O=C(NCc1ccccc1F)c1cnc2[nH]c(=S)[nH]c(=O)c2c1

>  <score_type>  (78) 
oracle

>  <origin>  (78) 
adg

>  <m_score__min__energy>  (78) 
-7.6900000000000004

>  <m_primary>  (78) 
energy

$$$$
78:0
     RDKit          3D

 57 60  0  0  0  0  0  0  0  0999 V2000
   65.3380   33.0860   48.1920 H   0  0  0  0  0  0  0  0  0  0  0  0
   64.4930   33.3290   48.7570 N   0  0  0  0  0  0  0  0  0  0  0  0
   63.3200   33.3980   48.2200 C   0  0  0  0  0  0  0  0  0  0  0  0
   62.2080   33.1070   48.9610 N   0  0  0  0  0  0  0  0  0  0  0  0
   60.9920   33.1810   48.3650 C   0  0  0  0  0  0  0  0  0  0  0  0
   60.8510   33.5320   47.0540 C   0  0  0  0  0  0  0  0  0  0  0  0
   61.9760   33.8570   46.3030 C   0  0  0  0  0  0  0  0  0  0  0  0
   61.8849   34.1706   45.2526 H   0  0  0  0  0  0  0  0  0  0  0  0
   63.1960   33.7750   46.9090 N   0  0  0  0  0  0  0  0  0  0  0  0
   59.4940   33.5380   46.7810 C   0  0  0  0  0  0  0  0  0  0  0  0
   58.8100   33.8780   45.5190 C   0  0  0  0  0  0  0  0  0  0  0  0
   58.7270   35.0930   45.1870 O   0  0  0  0  0  0  0  0  0  0  0  0
   58.1990   32.8480   44.6470 C   0  0  0  0  0  0  0  0  0  0  0  0
   57.4700   31.7770   45.1880 C   0  0  0  0  0  0  0  0  0  0  0  0
   57.3351   31.7030   46.2772 H   0  0  0  0  0  0  0  0  0  0  0  0
   56.9150   30.8050   44.3530 C   0  0  0  0  0  0  0  0  0  0  0  0
   56.1880   29.7160   44.9380 N   0  0  0  0  0  0  0  0  0  0  0  0
   56.7240   28.4220   45.2270 C   0  0  0  0  0  0  0  0  0  0  0  0
   57.9480   28.2030   45.0190 O   0  0  0  0  0  0  0  0  0  0  0  0
   55.8910   27.3990   45.6860 O   0  0  0  0  0  0  0  0  0  0  0  0
   56.3710   26.2710   46.4090 C   0  0  0  0  0  0  0  0  0  0  0  0
   57.3826   26.4794   46.7875 H   0  0  0  0  0  0  0  0  0  0  0  0
   55.7024   26.0629   47.2573 H   0  0  0  0  0  0  0  0  0  0  0  0
   56.4120   25.0790   45.4920 C   0  0  0  0  0  0  0  0  0  0  0  0
   57.6400   24.6270   44.9800 C   0  0  0  0  0  0  0  0  0  0  0  0
   58.5726   25.1342   45.2680 H   0  0  0  0  0  0  0  0  0  0  0  0
   57.6830   23.5380   44.1080 C   0  0  0  0  0  0  0  0  0  0  0  0
   58.6485   23.1861   43.7156 H   0  0  0  0  0  0  0  0  0  0  0  0
   56.5040   22.8960   43.7340 C   0  0  0  0  0  0  0  0  0  0  0  0
   56.5412   22.0364   43.0486 H   0  0  0  0  0  0  0  0  0  0  0  0
   55.2750   23.3410   44.2270 C   0  0  0  0  0  0  0  0  0  0  0  0
   54.3479   22.8322   43.9244 H   0  0  0  0  0  0  0  0  0  0  0  0
   55.2160   24.4370   45.1090 C   0  0  0  0  0  0  0  0  0  0  0  0
   53.9960   24.9150   45.6160 O   0  0  0  0  0  0  0  0  0  0  0  0
   52.7170   24.3990   45.2640 C   0  0  0  0  0  0  0  0  0  0  0  0
   52.1497   24.1701   46.1782 H   0  0  0  0  0  0  0  0  0  0  0  0
   52.1704   25.1470   44.6709 H   0  0  0  0  0  0  0  0  0  0  0  0
   52.8425   23.4811   44.6709 H   0  0  0  0  0  0  0  0  0  0  0  0
   57.0370   30.9590   42.9630 C   0  0  0  0  0  0  0  0  0  0  0  0
   56.5763   30.2233   42.2874 H   0  0  0  0  0  0  0  0  0  0  0  0
   57.7230   32.0150   42.4490 N   0  0  0  0  0  0  0  0  0  0  0  0
   57.8030   32.1140   41.4130 H   0  0  0  0  0  0  0  0  0  0  0  0
   58.3030   32.9480   43.2520 C   0  0  0  0  0  0  0  0  0  0  0  0
   58.8570   33.7861   42.8040 H   0  0  0  0  0  0  0  0  0  0  0  0
   58.8710   33.2060   47.9830 C   0  0  0  0  0  0  0  0  0  0  0  0
   57.7824   33.1403   48.1270 H   0  0  0  0  0  0  0  0  0  0  0  0
   59.7940   32.9750   48.9510 N   0  0  0  0  0  0  0  0  0  0  0  0
   59.5050   32.6050   50.3420 C   0  0  0  0  0  0  0  0  0  0  0  0
   60.3364   31.9896   50.7162 H   0  0  0  0  0  0  0  0  0  0  0  0
   58.2290   31.7630   50.4270 C   0  0  0  0  0  0  0  0  0  0  0  0
   57.9715   31.5931   51.4828 H   0  0  0  0  0  0  0  0  0  0  0  0
   57.4047   32.2952   49.9296 H   0  0  0  0  0  0  0  0  0  0  0  0
   58.3941   30.7959   49.9296 H   0  0  0  0  0  0  0  0  0  0  0  0
   59.4130   33.8510   51.2280 C   0  0  0  0  0  0  0  0  0  0  0  0
   59.4352   33.5510   52.2861 H   0  0  0  0  0  0  0  0  0  0  0  0
   60.2646   34.5146   51.0171 H   0  0  0  0  0  0  0  0  0  0  0  0
   58.4732   34.3823   51.0171 H   0  0  0  0  0  0  0  0  0  0  0  0
  1  2  1  0
  2  3  2  0
  3  4  1  0
  4  5  2  0
  5  6  1  0
  6  7  2  0
  7  8  1  0
  7  9  1  0
  6 10  1  0
 10 11  1  0
 11 12  2  0
 11 13  1  0
 13 14  2  0
 14 15  1  0
 14 16  1  0
 16 17  1  0
 17 18  1  0
 18 19  2  0
 18 20  1  0
 20 21  1  0
 21 22  1  0
 21 23  1  0
 21 24  1  0
 24 25  2  0
 25 26  1  0
 25 27  1  0
 27 28  1  0
 27 29  2  0
 29 30  1  0
 29 31  1  0
 31 32  1  0
 31 33  2  0
 33 34  1  0
 34 35  1  0
 35 36  1  0
 35 37  1  0
 35 38  1  0
 16 39  2  0
 39 40  1  0
 39 41  1  0
 41 42  1  0
 41 43  2  0
 43 44  1  0
 10 45  2  0
 45 46  1  0
 45 47  1  0
 47 48  1  0
 48 49  1  0
 48 50  1  0
 50 51  1  0
 50 52  1  0
 50 53  1  0
 48 54  1  0
 54 55  1  0
 54 56  1  0
 54 57  1  0
  9  3  1  0
 43 13  1  0
 47  5  1  0
 33 24  1  0
M  CHG  3   9  -1  17  -1  41   1
M  END
>  <UniqueID>  (79) 
73

>  <SMILES>  (79) 
[H]/N=c1\nc2c(c[n-]1)c(C(=O)c1c[nH+]cc([N-]C(=O)OCc3ccccc3OC)c1)cn2C(C)C

>  <Energy>  (79) 
97.9874860188252

>  <Genealogy>  (79) 
COc1ccccc1COC(=O)[N-]c1c[nH+]cc(C(=O)c2cn(C(C)C)c3nc(=N)[n-]cc23)c1 (protonated)
[H]/N=c1\nc2c(c[n-]1)c(C(=O)c1c[nH+]cc([N-]C(=O)OCc3ccccc3OC)c1)cn2C(C)C (cis-trans isomerization)
[H]/N=c1\nc2c(c[n-]1)c(C(=O)c1c[nH+]cc([N-]C(=O)OCc3ccccc3OC)c1)cn2C(C)C (3D coordinates assigned)
[H]/N=c1\nc2c(c[n-]1)c(C(=O)c1c[nH+]cc([N-]C(=O)OCc3ccccc3OC)c1)cn2C(C)C (optimized conformer: 97.9874860188252 kcal/mol)

>  <smiles>  (79) 
COc1ccccc1COC(=O)Nc1cncc(C(=O)c2cn(C(C)C)c3nc(=N)[nH]cc23)c1

>  <score_type>  (79) 
oracle

>  <origin>  (79) 
adg

>  <m_score__min__energy>  (79) 
-10.130000000000001

>  <m_primary>  (79) 
energy

$$$$
79:0
     RDKit          3D

 40 42  0  0  0  0  0  0  0  0999 V2000
   58.8023   32.0133   48.4984 H   0  0  0  0  0  0  0  0  0  0  0  0
   59.6430   31.4510   48.0660 C   0  0  0  0  0  0  0  0  0  0  0  0
   59.5860   30.1140   48.0210 C   0  0  0  0  0  0  0  0  0  0  0  0
   59.7728   29.5545   48.9494 H   0  0  0  0  0  0  0  0  0  0  0  0
   59.2850   29.3460   46.7890 C   0  0  0  0  0  0  0  0  0  0  0  0
   58.1670   28.4970   46.7860 C   0  0  0  0  0  0  0  0  0  0  0  0
   57.5605   28.3919   47.6977 H   0  0  0  0  0  0  0  0  0  0  0  0
   57.8170   27.7840   45.6360 C   0  0  0  0  0  0  0  0  0  0  0  0
   56.9293   27.1345   45.6441 H   0  0  0  0  0  0  0  0  0  0  0  0
   58.5900   27.8920   44.4740 C   0  0  0  0  0  0  0  0  0  0  0  0
   58.1850   27.1570   43.2310 C   0  0  0  0  0  0  0  0  0  0  0  0
   57.6712   26.2245   43.5074 H   0  0  0  0  0  0  0  0  0  0  0  0
   57.5068   27.7872   42.6370 H   0  0  0  0  0  0  0  0  0  0  0  0
   59.0800   26.9203   42.6370 H   0  0  0  0  0  0  0  0  0  0  0  0
   59.7090   28.7380   44.4680 C   0  0  0  0  0  0  0  0  0  0  0  0
   60.3115   28.8412   43.5535 H   0  0  0  0  0  0  0  0  0  0  0  0
   60.0630   29.4510   45.6180 C   0  0  0  0  0  0  0  0  0  0  0  0
   60.9532   30.0971   45.6087 H   0  0  0  0  0  0  0  0  0  0  0  0
   60.8110   32.1820   47.5470 C   0  0  0  0  0  0  0  0  0  0  0  0
   60.7260   33.3140   46.7310 C   0  0  0  0  0  0  0  0  0  0  0  0
   59.2830   34.1860   46.2060 S   0  0  0  0  0  0  0  0  0  0  0  0
   58.2150   34.0950   47.2590 O   0  0  0  0  0  0  0  0  0  0  0  0
   59.6580   35.6300   46.0310 O   0  0  0  0  0  0  0  0  0  0  0  0
   58.6430   33.6090   44.6970 N   0  0  0  0  0  0  0  0  0  0  0  0
   57.9860   32.5110   44.4590 C   0  0  0  0  0  0  0  0  0  0  0  0
   57.4370   31.8100   45.4230 O   0  0  0  0  0  0  0  0  0  0  0  0
   56.7980   30.7890   44.9380 N   0  0  0  0  0  0  0  0  0  0  0  0
   56.2620   30.0960   45.5050 H   0  0  0  0  0  0  0  0  0  0  0  0
   56.9360   30.8070   43.5990 C   0  0  0  0  0  0  0  0  0  0  0  0
   56.2820   29.8330   42.6730 C   0  0  0  0  0  0  0  0  0  0  0  0
   55.7634   29.0606   43.2599 H   0  0  0  0  0  0  0  0  0  0  0  0
   55.5550   30.3614   42.0388 H   0  0  0  0  0  0  0  0  0  0  0  0
   57.0463   29.3601   42.0388 H   0  0  0  0  0  0  0  0  0  0  0  0
   57.6990   31.9010   43.2380 C   0  0  0  0  0  0  0  0  0  0  0  0
   58.1210   32.3450   41.5890 Cl  0  0  0  0  0  0  0  0  0  0  0  0
   62.2870   33.8340   46.3880 S   0  0  0  0  0  0  0  0  0  0  0  0
   63.0870   32.6420   47.2590 C   0  0  0  0  0  0  0  0  0  0  0  0
   64.1778   32.5338   47.3515 H   0  0  0  0  0  0  0  0  0  0  0  0
   62.1360   31.8170   47.8420 C   0  0  0  0  0  0  0  0  0  0  0  0
   62.3950   30.9566   48.4766 H   0  0  0  0  0  0  0  0  0  0  0  0
  1  2  1  0
  2  3  2  3
  3  4  1  0
  3  5  1  0
  5  6  2  0
  6  7  1  0
  6  8  1  0
  8  9  1  0
  8 10  2  0
 10 11  1  0
 11 12  1  0
 11 13  1  0
 11 14  1  0
 10 15  1  0
 15 16  1  0
 15 17  2  0
 17 18  1  0
  2 19  1  0
 19 20  2  0
 20 21  1  0
 21 22  2  0
 21 23  2  0
 21 24  1  0
 24 25  2  0
 25 26  1  0
 26 27  1  0
 27 28  1  0
 27 29  1  0
 29 30  1  0
 30 31  1  0
 30 32  1  0
 30 33  1  0
 29 34  2  0
 34 35  1  0
 20 36  1  0
 36 37  1  0
 37 38  1  0
 37 39  2  0
 39 40  1  0
 17  5  1  0
 39 19  1  0
 34 25  1  0
M  END
>  <UniqueID>  (80) 
74

>  <SMILES>  (80) 
Cc1ccc(C=Cc2ccsc2S(=O)(=O)/N=c2/o[nH]c(C)c2Cl)cc1

>  <Energy>  (80) 
109.35937132727841

>  <Genealogy>  (80) 
Cc1ccc(C=Cc2ccsc2S(=O)(=O)/N=c2/o[nH]c(C)c2Cl)cc1 (cis-trans isomerization)
Cc1ccc(C=Cc2ccsc2S(=O)(=O)/N=c2/o[nH]c(C)c2Cl)cc1 (3D coordinates assigned)
Cc1ccc(C=Cc2ccsc2S(=O)(=O)/N=c2/o[nH]c(C)c2Cl)cc1 (optimized conformer: 109.35937132727841 kcal/mol)

>  <smiles>  (80) 
Cc1ccc(C=Cc2ccsc2S(=O)(=O)N=c2o[nH]c(C)c2Cl)cc1

>  <score_type>  (80) 
oracle

>  <origin>  (80) 
adg

>  <m_score__min__energy>  (80) 
-9.1999999999999993

>  <m_primary>  (80) 
energy

$$$$
80:0
     RDKit          3D

 33 34  0  0  0  0  0  0  0  0999 V2000
   55.1700   28.0340   44.9180 H   0  0  0  0  0  0  0  0  0  0  0  0
   55.1450   29.0470   44.9100 O   0  0  0  0  0  0  0  0  0  0  0  0
   56.2370   29.7990   44.4860 C   0  0  0  0  0  0  0  0  0  0  0  0
   56.2390   30.3490   43.2000 C   0  0  0  0  0  0  0  0  0  0  0  0
   55.3761   30.1938   42.5357 H   0  0  0  0  0  0  0  0  0  0  0  0
   57.3340   31.0950   42.7570 C   0  0  0  0  0  0  0  0  0  0  0  0
   57.3350   31.5187   41.7419 H   0  0  0  0  0  0  0  0  0  0  0  0
   58.4280   31.3040   43.6010 C   0  0  0  0  0  0  0  0  0  0  0  0
   59.2955   31.8773   43.2420 H   0  0  0  0  0  0  0  0  0  0  0  0
   58.4240   30.7840   44.9080 C   0  0  0  0  0  0  0  0  0  0  0  0
   59.5840   30.9590   45.8100 C   0  0  0  0  0  0  0  0  0  0  0  0
   60.3863   30.2084   45.7554 H   0  0  0  0  0  0  0  0  0  0  0  0
   59.7350   31.9680   46.6950 C   0  0  0  0  0  0  0  0  0  0  0  0
   58.5780   32.7140   47.2480 C   0  0  0  0  0  0  0  0  0  0  0  0
   58.4480   32.8260   48.4980 O   0  0  0  0  0  0  0  0  0  0  0  0
   57.6160   33.2600   46.3900 O   0  0  0  0  0  0  0  0  0  0  0  0
   57.9410   34.1880   45.3630 C   0  0  0  0  0  0  0  0  0  0  0  0
   58.2724   35.1343   45.8154 H   0  0  0  0  0  0  0  0  0  0  0  0
   58.7487   33.7770   44.7395 H   0  0  0  0  0  0  0  0  0  0  0  0
   57.0533   34.3707   44.7395 H   0  0  0  0  0  0  0  0  0  0  0  0
   61.0990   32.3000   47.1900 C   0  0  0  0  0  0  0  0  0  0  0  0
   62.0710   31.2940   47.3480 C   0  0  0  0  0  0  0  0  0  0  0  0
   61.8216   30.2503   47.1063 H   0  0  0  0  0  0  0  0  0  0  0  0
   63.3510   31.6130   47.8100 C   0  0  0  0  0  0  0  0  0  0  0  0
   64.1039   30.8204   47.9322 H   0  0  0  0  0  0  0  0  0  0  0  0
   63.6760   32.9370   48.1170 C   0  0  0  0  0  0  0  0  0  0  0  0
   64.6841   33.1865   48.4797 H   0  0  0  0  0  0  0  0  0  0  0  0
   62.7200   33.9430   47.9630 C   0  0  0  0  0  0  0  0  0  0  0  0
   62.9762   34.9848   48.2059 H   0  0  0  0  0  0  0  0  0  0  0  0
   61.4380   33.6300   47.5010 C   0  0  0  0  0  0  0  0  0  0  0  0
   60.6903   34.4277   47.3800 H   0  0  0  0  0  0  0  0  0  0  0  0
   57.3340   30.0090   45.3350 C   0  0  0  0  0  0  0  0  0  0  0  0
   57.3401   29.5639   46.3409 H   0  0  0  0  0  0  0  0  0  0  0  0
  1  2  1  0
  2  3  1  0
  3  4  2  0
  4  5  1  0
  4  6  1  0
  6  7  1  0
  6  8  2  0
  8  9  1  0
  8 10  1  0
 10 11  1  0
 11 12  1  0
 11 13  2  0
 13 14  1  0
 14 15  2  0
 14 16  1  0
 16 17  1  0
 17 18  1  0
 17 19  1  0
 17 20  1  0
 13 21  1  0
 21 22  2  0
 22 23  1  0
 22 24  1  0
 24 25  1  0
 24 26  2  0
 26 27  1  0
 26 28  1  0
 28 29  1  0
 28 30  2  0
 30 31  1  0
 10 32  2  0
 32 33  1  0
 32  3  1  0
 30 21  1  0
M  END
>  <UniqueID>  (81) 
75

>  <SMILES>  (81) 
COC(=O)/C(=C\c1cccc(O)c1)c1ccccc1

>  <Energy>  (81) 
44.31477881336432

>  <Genealogy>  (81) 
COC(=O)/C(=C\c1cccc(O)c1)c1ccccc1 (cis-trans isomerization)
COC(=O)/C(=C\c1cccc(O)c1)c1ccccc1 (3D coordinates assigned)
COC(=O)/C(=C\c1cccc(O)c1)c1ccccc1 (optimized conformer: 44.31477881336432 kcal/mol)

>  <smiles>  (81) 
COC(=O)C(=Cc1cccc(O)c1)c1ccccc1

>  <score_type>  (81) 
oracle

>  <origin>  (81) 
adg

>  <m_score__min__energy>  (81) 
-8.5899999999999999

>  <m_primary>  (81) 
energy

$$$$
81:0
     RDKit          3D

 46 47  0  0  0  0  0  0  0  0999 V2000
   56.6580   23.9080   43.4440 C   0  0  0  0  0  0  0  0  0  0  0  0
   57.3770   25.0040   44.2300 C   0  0  0  0  0  0  0  0  0  0  0  0
   57.0800   24.9470   45.7360 C   0  0  0  0  0  0  0  0  0  0  0  0
   56.8820   26.3400   46.3510 C   0  0  0  0  0  0  0  0  0  0  0  0
   58.1730   26.9370   46.6880 N   0  0  0  0  0  0  0  0  0  0  0  0
   58.4110   28.2170   46.6950 C   0  0  0  0  0  0  0  0  0  0  0  0
   58.7240   28.9150   47.8190 N   0  0  0  0  0  0  0  0  0  0  0  0
   58.9020   30.1630   47.3510 C   0  0  0  0  0  0  0  0  0  0  0  0
   59.2700   31.2920   48.0770 C   0  0  0  0  0  0  0  0  0  0  0  0
   59.4340   32.5050   47.3750 C   0  0  0  0  0  0  0  0  0  0  0  0
   59.9340   33.9620   48.2270 S   0  0  0  0  0  0  0  0  0  0  0  0
   59.2630   34.0280   49.5710 O   0  0  0  0  0  0  0  0  0  0  0  0
   59.5260   35.1680   47.4280 O   0  0  0  0  0  0  0  0  0  0  0  0
   61.7070   33.9660   48.4400 C   0  0  0  0  0  0  0  0  0  0  0  0
   62.4110   33.4450   47.1930 C   0  0  0  0  0  0  0  0  0  0  0  0
   59.2360   32.5440   45.9730 C   0  0  0  0  0  0  0  0  0  0  0  0
   58.8660   31.3850   45.2690 C   0  0  0  0  0  0  0  0  0  0  0  0
   58.7040   30.2070   46.0000 C   0  0  0  0  0  0  0  0  0  0  0  0
   58.3810   28.9740   45.5680 N   0  0  0  0  0  0  0  0  0  0  0  0
   58.1640   28.5180   44.1900 C   0  0  0  0  0  0  0  0  0  0  0  0
   57.2010   29.4500   43.4470 C   0  0  0  0  0  0  0  0  0  0  0  0
   56.1060   29.9380   44.3430 C   0  0  0  0  0  0  0  0  0  0  0  0
   55.1530   29.0190   44.8720 N   0  0  0  0  0  0  0  0  0  0  0  0
   56.0020   31.1680   44.6010 O   0  0  0  0  0  0  0  0  0  0  0  0
   56.1930   23.1991   44.1449 H   0  0  0  0  0  0  0  0  0  0  0  0
   55.8808   24.3607   42.8107 H   0  0  0  0  0  0  0  0  0  0  0  0
   57.3828   23.3754   42.8107 H   0  0  0  0  0  0  0  0  0  0  0  0
   58.4609   24.8904   44.0807 H   0  0  0  0  0  0  0  0  0  0  0  0
   57.0137   25.9728   43.8566 H   0  0  0  0  0  0  0  0  0  0  0  0
   56.1636   24.3591   45.8925 H   0  0  0  0  0  0  0  0  0  0  0  0
   57.9474   24.4846   46.2298 H   0  0  0  0  0  0  0  0  0  0  0  0
   56.3624   26.9851   45.6272 H   0  0  0  0  0  0  0  0  0  0  0  0
   56.2836   26.2428   47.2689 H   0  0  0  0  0  0  0  0  0  0  0  0
   59.4281   31.2403   49.1643 H   0  0  0  0  0  0  0  0  0  0  0  0
   62.0426   34.9946   48.6386 H   0  0  0  0  0  0  0  0  0  0  0  0
   61.9588   33.3071   49.2841 H   0  0  0  0  0  0  0  0  0  0  0  0
   63.2626   32.8148   47.4890 H   0  0  0  0  0  0  0  0  0  0  0  0
   61.7050   32.8501   46.5949 H   0  0  0  0  0  0  0  0  0  0  0  0
   62.7736   34.2940   46.5949 H   0  0  0  0  0  0  0  0  0  0  0  0
   59.3731   33.4906   45.4298 H   0  0  0  0  0  0  0  0  0  0  0  0
   58.7096   31.4056   44.1804 H   0  0  0  0  0  0  0  0  0  0  0  0
   59.1282   28.5014   43.6608 H   0  0  0  0  0  0  0  0  0  0  0  0
   57.7228   27.5108   44.2201 H   0  0  0  0  0  0  0  0  0  0  0  0
   57.7637   30.3154   43.0669 H   0  0  0  0  0  0  0  0  0  0  0  0
   56.7440   28.8853   42.6210 H   0  0  0  0  0  0  0  0  0  0  0  0
   54.4010   29.3410   45.5220 H   0  0  0  0  0  0  0  0  0  0  0  0
  1  2  1  0
  2  3  1  0
  3  4  1  0
  4  5  1  0
  5  6  2  3
  6  7  1  0
  7  8  1  0
  8  9  2  0
  9 10  1  0
 10 11  1  0
 11 12  2  0
 11 13  2  0
 11 14  1  0
 14 15  1  0
 10 16  2  0
 16 17  1  0
 17 18  2  0
 18 19  1  0
 19 20  1  0
 20 21  1  0
 21 22  1  0
 22 23  1  0
 22 24  2  0
 19  6  1  0
 18  8  1  0
  1 25  1  0
  1 26  1  0
  1 27  1  0
  2 28  1  0
  2 29  1  0
  3 30  1  0
  3 31  1  0
  4 32  1  0
  4 33  1  0
  9 34  1  0
 14 35  1  0
 14 36  1  0
 15 37  1  0
 15 38  1  0
 15 39  1  0
 16 40  1  0
 17 41  1  0
 20 42  1  0
 20 43  1  0
 21 44  1  0
 21 45  1  0
 23 46  1  0
M  CHG  2   7  -1  23  -1
M  END
>  <UniqueID>  (82) 
76

>  <SMILES>  (82) 
CCCCN=c1[n-]c2cc(S(=O)(=O)CC)ccc2n1CCC([NH-])=O

>  <Energy>  (82) 
66.00012148091906

>  <Genealogy>  (82) 
CCCCN=c1[n-]c2cc(S(=O)(=O)CC)ccc2n1CCC([NH-])=O (protonated)
CCCCN=c1[n-]c2cc(S(=O)(=O)CC)ccc2n1CCC([NH-])=O (3D coordinates assigned)
CCCCN=c1[n-]c2cc(S(=O)(=O)CC)ccc2n1CCC([NH-])=O (optimized conformer: 66.00012148091906 kcal/mol)

>  <smiles>  (82) 
CCCCN=c1[nH]c2cc(S(=O)(=O)CC)ccc2n1CCC(N)=O

>  <score_type>  (82) 
oracle

>  <origin>  (82) 
adg

>  <m_score__min__energy>  (82) 
-12.84

>  <m_primary>  (82) 
energy

$$$$
82:0
     RDKit          3D

 45 46  0  0  0  0  0  0  0  0999 V2000
   59.5810   22.2140   44.8890 C   0  0  0  0  0  0  0  0  0  0  0  0
   59.5940   23.3890   45.6930 O   0  0  0  0  0  0  0  0  0  0  0  0
   58.5190   24.2900   45.8060 C   0  0  0  0  0  0  0  0  0  0  0  0
   57.2070   23.9380   45.4210 C   0  0  0  0  0  0  0  0  0  0  0  0
   56.1600   24.8530   45.5560 C   0  0  0  0  0  0  0  0  0  0  0  0
   56.4060   26.1250   46.0760 C   0  0  0  0  0  0  0  0  0  0  0  0
   57.6970   26.4870   46.4590 C   0  0  0  0  0  0  0  0  0  0  0  0
   58.7630   25.5820   46.3160 C   0  0  0  0  0  0  0  0  0  0  0  0
   60.1470   25.9860   46.7500 C   0  0  0  0  0  0  0  0  0  0  0  0
   60.1210   27.3650   47.2180 N   0  0  0  0  0  0  0  0  0  0  0  0
   60.3330   28.5180   46.3960 C   0  0  0  0  0  0  0  0  0  0  0  0
   60.2150   28.4030   45.1480 O   0  0  0  0  0  0  0  0  0  0  0  0
   60.6650   29.8700   46.9720 C   0  0  0  0  0  0  0  0  0  0  0  0
   59.8100   30.1900   48.2050 C   0  0  0  0  0  0  0  0  0  0  0  0
   59.6970   31.6750   48.4330 C   0  0  0  0  0  0  0  0  0  0  0  0
   60.3930   32.2100   49.3350 O   0  0  0  0  0  0  0  0  0  0  0  0
   58.7450   32.4800   47.7260 N   0  0  0  0  0  0  0  0  0  0  0  0
   58.4520   32.3680   46.3290 C   0  0  0  0  0  0  0  0  0  0  0  0
   57.7670   31.2380   45.8680 C   0  0  0  0  0  0  0  0  0  0  0  0
   57.4600   31.0920   44.5080 C   0  0  0  0  0  0  0  0  0  0  0  0
   56.6060   29.6430   43.9600 S   0  0  0  0  0  0  0  0  0  0  0  0
   55.5340   29.0920   45.2000 N   0  0  0  0  0  0  0  0  0  0  0  0
   57.5820   28.5430   43.6430 O   0  0  0  0  0  0  0  0  0  0  0  0
   55.8210   29.9670   42.7190 O   0  0  0  0  0  0  0  0  0  0  0  0
   57.8360   32.1030   43.6020 C   0  0  0  0  0  0  0  0  0  0  0  0
   57.4970   31.9820   41.8780 Cl  0  0  0  0  0  0  0  0  0  0  0  0
   58.4890   33.2500   44.0670 C   0  0  0  0  0  0  0  0  0  0  0  0
   58.7890   33.3930   45.4240 C   0  0  0  0  0  0  0  0  0  0  0  0
   59.5400   34.8890   45.9670 Cl  0  0  0  0  0  0  0  0  0  0  0  0
   59.5712   21.3258   45.5379 H   0  0  0  0  0  0  0  0  0  0  0  0
   58.6828   22.2141   44.2540 H   0  0  0  0  0  0  0  0  0  0  0  0
   60.4790   22.1943   44.2540 H   0  0  0  0  0  0  0  0  0  0  0  0
   57.0079   22.9365   45.0120 H   0  0  0  0  0  0  0  0  0  0  0  0
   55.1410   24.5710   45.2523 H   0  0  0  0  0  0  0  0  0  0  0  0
   55.5798   26.8431   46.1838 H   0  0  0  0  0  0  0  0  0  0  0  0
   57.8825   27.4879   46.8760 H   0  0  0  0  0  0  0  0  0  0  0  0
   60.4835   25.3278   47.5645 H   0  0  0  0  0  0  0  0  0  0  0  0
   60.8401   25.8981   45.9004 H   0  0  0  0  0  0  0  0  0  0  0  0
   61.7261   29.8828   47.2616 H   0  0  0  0  0  0  0  0  0  0  0  0
   60.4553   30.6294   46.2043 H   0  0  0  0  0  0  0  0  0  0  0  0
   58.8024   29.7740   48.0581 H   0  0  0  0  0  0  0  0  0  0  0  0
   60.2957   29.7434   49.0851 H   0  0  0  0  0  0  0  0  0  0  0  0
   57.4662   30.4559   46.5806 H   0  0  0  0  0  0  0  0  0  0  0  0
   54.5660   29.3360   44.8980 H   0  0  0  0  0  0  0  0  0  0  0  0
   58.7680   34.0445   43.3592 H   0  0  0  0  0  0  0  0  0  0  0  0
  1  2  1  0
  2  3  1  0
  3  4  2  0
  4  5  1  0
  5  6  2  0
  6  7  1  0
  7  8  2  0
  8  9  1  0
  9 10  1  0
 10 11  1  0
 11 12  2  0
 11 13  1  0
 13 14  1  0
 14 15  1  0
 15 16  2  0
 15 17  1  0
 17 18  1  0
 18 19  2  0
 19 20  1  0
 20 21  1  0
 21 22  1  0
 21 23  2  0
 21 24  2  0
 20 25  2  0
 25 26  1  0
 25 27  1  0
 27 28  2  0
 28 29  1  0
  8  3  1  0
 28 18  1  0
  1 30  1  0
  1 31  1  0
  1 32  1  0
  4 33  1  0
  5 34  1  0
  6 35  1  0
  7 36  1  0
  9 37  1  0
  9 38  1  0
 13 39  1  0
 13 40  1  0
 14 41  1  0
 14 42  1  0
 19 43  1  0
 22 44  1  0
 27 45  1  0
M  CHG  3  10  -1  17  -1  22  -1
M  END
>  <UniqueID>  (83) 
77

>  <SMILES>  (83) 
COc1ccccc1C[N-]C(=O)CCC(=O)[N-]c1cc(S([NH-])(=O)=O)c(Cl)cc1Cl

>  <Energy>  (83) 
44.51294867791599

>  <Genealogy>  (83) 
COc1ccccc1C[N-]C(=O)CCC(=O)[N-]c1cc(S([NH-])(=O)=O)c(Cl)cc1Cl (protonated)
COc1ccccc1C[N-]C(=O)CCC(=O)[N-]c1cc(S([NH-])(=O)=O)c(Cl)cc1Cl (3D coordinates assigned)
COc1ccccc1C[N-]C(=O)CCC(=O)[N-]c1cc(S([NH-])(=O)=O)c(Cl)cc1Cl (optimized conformer: 44.51294867791599 kcal/mol)

>  <smiles>  (83) 
COc1ccccc1CNC(=O)CCC(=O)Nc1cc(S(N)(=O)=O)c(Cl)cc1Cl

>  <score_type>  (83) 
oracle

>  <origin>  (83) 
adg

>  <m_score__min__energy>  (83) 
-14.26

>  <m_primary>  (83) 
energy

$$$$
83:0
     RDKit          3D

 64 68  0  0  0  0  0  0  0  0999 V2000
   59.4810   35.3380   45.3160 C   0  0  0  0  0  0  0  0  0  0  0  0
   58.9100   35.0130   46.6940 C   0  0  0  0  0  0  0  0  0  0  0  0
   57.9760   33.9350   46.6130 O   0  0  0  0  0  0  0  0  0  0  0  0
   58.1740   32.7310   45.9140 C   0  0  0  0  0  0  0  0  0  0  0  0
   57.3810   32.3570   44.8090 C   0  0  0  0  0  0  0  0  0  0  0  0
   57.6220   31.1550   44.1400 C   0  0  0  0  0  0  0  0  0  0  0  0
   58.6520   30.3110   44.5610 C   0  0  0  0  0  0  0  0  0  0  0  0
   59.4450   30.6710   45.6520 C   0  0  0  0  0  0  0  0  0  0  0  0
   59.2090   31.8740   46.3320 C   0  0  0  0  0  0  0  0  0  0  0  0
   60.0340   32.2340   47.4500 N   0  0  0  0  0  0  0  0  0  0  0  0
   59.6630   31.8370   48.6700 N   0  0  0  0  0  0  0  0  0  0  0  0
   60.3890   32.1160   49.7880 C   0  0  0  0  0  0  0  0  0  0  0  0
   59.9130   31.5640   51.0780 C   0  0  0  0  0  0  0  0  0  0  0  0
   60.7180   30.9120   51.7950 O   0  0  0  0  0  0  0  0  0  0  0  0
   58.6050   31.8810   51.5780 N   0  0  0  0  0  0  0  0  0  0  0  0
   57.8220   31.0350   52.4440 C   0  0  0  0  0  0  0  0  0  0  0  0
   57.4210   29.7410   52.0600 C   0  0  0  0  0  0  0  0  0  0  0  0
   56.6120   28.9720   52.9020 C   0  0  0  0  0  0  0  0  0  0  0  0
   56.1780   29.4860   54.1390 C   0  0  0  0  0  0  0  0  0  0  0  0
   55.3260   28.7620   54.9870 O   0  0  0  0  0  0  0  0  0  0  0  0
   54.0950   28.2340   54.5870 C   0  0  0  0  0  0  0  0  0  0  0  0
   53.6870   26.9670   55.0300 C   0  0  0  0  0  0  0  0  0  0  0  0
   52.4290   26.4640   54.6450 C   0  0  0  0  0  0  0  0  0  0  0  0
   51.6160   27.1890   53.8230 N   0  0  0  0  0  0  0  0  0  0  0  0
   52.0180   28.4050   53.3650 C   0  0  0  0  0  0  0  0  0  0  0  0
   51.2910   29.2110   52.4880 C   0  0  0  0  0  0  0  0  0  0  0  0
   51.9690   30.3890   52.1470 C   0  0  0  0  0  0  0  0  0  0  0  0
   51.4330   31.4150   51.2190 C   0  0  0  0  0  0  0  0  0  0  0  0
   51.3520   31.1280   49.9960 O   0  0  0  0  0  0  0  0  0  0  0  0
   51.0170   32.7280   51.6240 N   0  0  0  0  0  0  0  0  0  0  0  0
   50.5270   33.1360   52.9330 C   0  0  0  0  0  0  0  0  0  0  0  0
   53.4540   30.4080   52.9690 S   0  0  0  0  0  0  0  0  0  0  0  0
   53.2390   28.9320   53.7360 C   0  0  0  0  0  0  0  0  0  0  0  0
   56.5620   30.7780   54.5110 C   0  0  0  0  0  0  0  0  0  0  0  0
   56.1450   31.2950   55.6960 F   0  0  0  0  0  0  0  0  0  0  0  0
   57.3800   31.5430   53.6750 C   0  0  0  0  0  0  0  0  0  0  0  0
   61.5570   32.9060   49.6590 C   0  0  0  0  0  0  0  0  0  0  0  0
   62.3820   33.3520   50.8380 C   0  0  0  0  0  0  0  0  0  0  0  0
   61.9570   33.2960   48.3770 C   0  0  0  0  0  0  0  0  0  0  0  0
   61.1820   32.9550   47.2720 C   0  0  0  0  0  0  0  0  0  0  0  0
   61.5400   33.3280   46.1220 O   0  0  0  0  0  0  0  0  0  0  0  0
   60.4317   35.8791   45.4314 H   0  0  0  0  0  0  0  0  0  0  0  0
   59.6556   34.4040   44.7619 H   0  0  0  0  0  0  0  0  0  0  0  0
   58.7671   35.9651   44.7619 H   0  0  0  0  0  0  0  0  0  0  0  0
   59.7320   34.7286   47.3674 H   0  0  0  0  0  0  0  0  0  0  0  0
   58.3904   35.9024   47.0799 H   0  0  0  0  0  0  0  0  0  0  0  0
   56.5675   33.0163   44.4721 H   0  0  0  0  0  0  0  0  0  0  0  0
   56.9987   30.8722   43.2789 H   0  0  0  0  0  0  0  0  0  0  0  0
   58.8381   29.3638   44.0336 H   0  0  0  0  0  0  0  0  0  0  0  0
   60.2589   30.0076   45.9797 H   0  0  0  0  0  0  0  0  0  0  0  0
   58.2090   32.8110   51.3140 H   0  0  0  0  0  0  0  0  0  0  0  0
   57.7462   29.3327   51.0917 H   0  0  0  0  0  0  0  0  0  0  0  0
   56.3126   27.9587   52.5961 H   0  0  0  0  0  0  0  0  0  0  0  0
   54.3469   26.3688   55.6755 H   0  0  0  0  0  0  0  0  0  0  0  0
   52.0995   25.4798   55.0095 H   0  0  0  0  0  0  0  0  0  0  0  0
   50.2932   28.9498   52.1056 H   0  0  0  0  0  0  0  0  0  0  0  0
   51.1201   32.6421   53.7168 H   0  0  0  0  0  0  0  0  0  0  0  0
   50.6201   34.2272   53.0356 H   0  0  0  0  0  0  0  0  0  0  0  0
   49.4707   32.8468   53.0356 H   0  0  0  0  0  0  0  0  0  0  0  0
   57.6806   32.5545   53.9855 H   0  0  0  0  0  0  0  0  0  0  0  0
   61.8688   33.0746   51.7706 H   0  0  0  0  0  0  0  0  0  0  0  0
   63.3669   32.8635   50.8021 H   0  0  0  0  0  0  0  0  0  0  0  0
   62.5127   34.4436   50.8021 H   0  0  0  0  0  0  0  0  0  0  0  0
   62.8841   33.8723   48.2417 H   0  0  0  0  0  0  0  0  0  0  0  0
  1  2  1  0
  2  3  1  0
  3  4  1  0
  4  5  2  0
  5  6  1  0
  6  7  2  0
  7  8  1  0
  8  9  2  0
  9 10  1  0
 10 11  1  0
 11 12  2  0
 12 13  1  0
 13 14  2  0
 13 15  1  0
 15 16  1  0
 16 17  2  0
 17 18  1  0
 18 19  2  0
 19 20  1  0
 20 21  1  0
 21 22  2  0
 22 23  1  0
 23 24  2  0
 24 25  1  0
 25 26  1  0
 26 27  2  0
 27 28  1  0
 28 29  2  0
 28 30  1  0
 30 31  1  0
 27 32  1  0
 32 33  1  0
 19 34  1  0
 34 35  1  0
 34 36  2  0
 12 37  1  0
 37 38  1  0
 37 39  2  0
 39 40  1  0
 40 41  2  0
  9  4  1  0
 40 10  1  0
 36 16  1  0
 33 21  1  0
 33 25  2  0
  1 42  1  0
  1 43  1  0
  1 44  1  0
  2 45  1  0
  2 46  1  0
  5 47  1  0
  6 48  1  0
  7 49  1  0
  8 50  1  0
 15 51  1  0
 17 52  1  0
 18 53  1  0
 22 54  1  0
 23 55  1  0
 26 56  1  0
 31 57  1  0
 31 58  1  0
 31 59  1  0
 36 60  1  0
 38 61  1  0
 38 62  1  0
 38 63  1  0
 39 64  1  0
M  CHG  1  30  -1
M  END
>  <UniqueID>  (84) 
78

>  <SMILES>  (84) 
CCOc1ccccc1-n1nc(C(=O)Nc2ccc(Oc3ccnc4cc(C(=O)[N-]C)sc34)c(F)c2)c(C)cc1=O

>  <Energy>  (84) 
126.95088492822534

>  <Genealogy>  (84) 
CCOc1ccccc1-n1nc(C(=O)Nc2ccc(Oc3ccnc4cc(C(=O)[N-]C)sc34)c(F)c2)c(C)cc1=O (protonated)
CCOc1ccccc1-n1nc(C(=O)Nc2ccc(Oc3ccnc4cc(C(=O)[N-]C)sc34)c(F)c2)c(C)cc1=O (3D coordinates assigned)
CCOc1ccccc1-n1nc(C(=O)Nc2ccc(Oc3ccnc4cc(C(=O)[N-]C)sc34)c(F)c2)c(C)cc1=O (optimized conformer: 126.95088492822534 kcal/mol)

>  <smiles>  (84) 
CCOc1ccccc1-n1nc(C(=O)Nc2ccc(Oc3ccnc4cc(C(=O)NC)sc34)c(F)c2)c(C)cc1=O

>  <score_type>  (84) 
oracle

>  <origin>  (84) 
adg

>  <m_score__min__energy>  (84) 
-11.42

>  <m_primary>  (84) 
energy

$$$$
84:0
     RDKit          3D

 44 46  0  0  0  0  0  0  0  0999 V2000
   57.1720   27.9440   45.5190 C   0  0  0  0  0  0  0  0  0  0  0  0
   57.3240   29.1470   44.6380 C   0  0  0  0  0  0  0  0  0  0  0  0
   56.2850   29.6340   43.8280 C   0  0  0  0  0  0  0  0  0  0  0  0
   56.6150   30.7880   43.1310 C   0  0  0  0  0  0  0  0  0  0  0  0
   58.1910   31.2140   43.5300 S   0  0  0  0  0  0  0  0  0  0  0  0
   58.4740   29.9360   44.5850 C   0  0  0  0  0  0  0  0  0  0  0  0
   59.7430   29.7310   45.3580 C   0  0  0  0  0  0  0  0  0  0  0  0
   59.8480   30.7090   46.4380 N   0  0  0  0  0  0  0  0  0  0  0  0
   59.2100   30.5290   47.7060 C   0  0  0  0  0  0  0  0  0  0  0  0
   58.5160   29.5000   47.9280 O   0  0  0  0  0  0  0  0  0  0  0  0
   59.3710   31.5240   48.7220 N   0  0  0  0  0  0  0  0  0  0  0  0
   58.5920   32.7550   48.7820 C   0  0  0  0  0  0  0  0  0  0  0  0
   58.5110   33.3920   47.4160 C   0  0  0  0  0  0  0  0  0  0  0  0
   57.4260   33.0780   46.5810 C   0  0  0  0  0  0  0  0  0  0  0  0
   57.3080   33.6680   45.3200 C   0  0  0  0  0  0  0  0  0  0  0  0
   58.2650   34.5840   44.8860 C   0  0  0  0  0  0  0  0  0  0  0  0
   59.3450   34.9110   45.7070 C   0  0  0  0  0  0  0  0  0  0  0  0
   59.4880   34.3090   46.9720 C   0  0  0  0  0  0  0  0  0  0  0  0
   60.5560   34.6460   47.8190 O   0  0  0  0  0  0  0  0  0  0  0  0
   61.7300   33.8990   47.9930 C   0  0  0  0  0  0  0  0  0  0  0  0
   62.1210   33.5570   49.2930 C   0  0  0  0  0  0  0  0  0  0  0  0
   63.2770   32.7990   49.5070 C   0  0  0  0  0  0  0  0  0  0  0  0
   64.0410   32.3670   48.4200 C   0  0  0  0  0  0  0  0  0  0  0  0
   63.6470   32.6870   47.1180 C   0  0  0  0  0  0  0  0  0  0  0  0
   62.4930   33.4440   46.9010 C   0  0  0  0  0  0  0  0  0  0  0  0
   57.2112   28.2545   46.5735 H   0  0  0  0  0  0  0  0  0  0  0  0
   56.2055   27.4599   45.3150 H   0  0  0  0  0  0  0  0  0  0  0  0
   57.9877   27.2347   45.3150 H   0  0  0  0  0  0  0  0  0  0  0  0
   55.3018   29.1465   43.7530 H   0  0  0  0  0  0  0  0  0  0  0  0
   55.9574   31.3310   42.4362 H   0  0  0  0  0  0  0  0  0  0  0  0
   59.7466   28.7176   45.7858 H   0  0  0  0  0  0  0  0  0  0  0  0
   60.5982   29.8587   44.6781 H   0  0  0  0  0  0  0  0  0  0  0  0
   60.3970   31.5830   46.2720 H   0  0  0  0  0  0  0  0  0  0  0  0
   57.5762   32.5245   49.1355 H   0  0  0  0  0  0  0  0  0  0  0  0
   59.0827   33.4550   49.4742 H   0  0  0  0  0  0  0  0  0  0  0  0
   56.6636   32.3623   46.9224 H   0  0  0  0  0  0  0  0  0  0  0  0
   56.4595   33.4096   44.6694 H   0  0  0  0  0  0  0  0  0  0  0  0
   58.1686   35.0500   43.8943 H   0  0  0  0  0  0  0  0  0  0  0  0
   60.0898   35.6441   45.3637 H   0  0  0  0  0  0  0  0  0  0  0  0
   61.5160   33.8861   50.1507 H   0  0  0  0  0  0  0  0  0  0  0  0
   63.5847   32.5429   50.5316 H   0  0  0  0  0  0  0  0  0  0  0  0
   64.9526   31.7750   48.5890 H   0  0  0  0  0  0  0  0  0  0  0  0
   64.2465   32.3423   46.2625 H   0  0  0  0  0  0  0  0  0  0  0  0
   62.1799   33.6851   45.8744 H   0  0  0  0  0  0  0  0  0  0  0  0
  1  2  1  0
  2  3  1  0
  3  4  2  0
  4  5  1  0
  5  6  1  0
  6  7  1  0
  7  8  1  0
  8  9  1  0
  9 10  2  0
  9 11  1  0
 11 12  1  0
 12 13  1  0
 13 14  2  0
 14 15  1  0
 15 16  2  0
 16 17  1  0
 17 18  2  0
 18 19  1  0
 19 20  1  0
 20 21  2  0
 21 22  1  0
 22 23  2  0
 23 24  1  0
 24 25  2  0
  6  2  2  0
 18 13  1  0
 25 20  1  0
  1 26  1  0
  1 27  1  0
  1 28  1  0
  3 29  1  0
  4 30  1  0
  7 31  1  0
  7 32  1  0
  8 33  1  0
 12 34  1  0
 12 35  1  0
 14 36  1  0
 15 37  1  0
 16 38  1  0
 17 39  1  0
 21 40  1  0
 22 41  1  0
 23 42  1  0
 24 43  1  0
 25 44  1  0
M  CHG  1  11  -1
M  END
>  <UniqueID>  (85) 
79

>  <SMILES>  (85) 
Cc1ccsc1CNC(=O)[N-]Cc1ccccc1Oc1ccccc1

>  <Energy>  (85) 
71.83959500372873

>  <Genealogy>  (85) 
Cc1ccsc1CNC(=O)[N-]Cc1ccccc1Oc1ccccc1 (protonated)
Cc1ccsc1CNC(=O)[N-]Cc1ccccc1Oc1ccccc1 (3D coordinates assigned)
Cc1ccsc1CNC(=O)[N-]Cc1ccccc1Oc1ccccc1 (optimized conformer: 71.83959500372873 kcal/mol)

>  <smiles>  (85) 
Cc1ccsc1CNC(=O)NCc1ccccc1Oc1ccccc1

>  <score_type>  (85) 
oracle

>  <origin>  (85) 
adg

>  <m_score__min__energy>  (85) 
-9.1500000000000004

>  <m_primary>  (85) 
energy

$$$$
85:0
     RDKit          3D

 43 45  0  0  0  0  0  0  0  0999 V2000
   57.0090   26.6810   45.8020 C   0  0  0  0  0  0  0  0  0  0  0  0
   57.0780   27.9370   45.3480 C   0  0  0  0  0  0  0  0  0  0  0  0
   57.4170   28.2350   43.9160 C   0  0  0  0  0  0  0  0  0  0  0  0
   57.8360   29.6270   43.7700 N   0  0  0  0  0  0  0  0  0  0  0  0
   57.0290   30.7230   44.2250 C   0  0  0  0  0  0  0  0  0  0  0  0
   55.9110   30.5060   44.7720 O   0  0  0  0  0  0  0  0  0  0  0  0
   57.5260   32.1290   44.1010 C   0  0  0  0  0  0  0  0  0  0  0  0
   57.0140   33.1010   45.5610 S   0  0  0  0  0  0  0  0  0  0  0  0
   58.6830   33.5640   46.0390 C   0  0  0  0  0  0  0  0  0  0  0  0
   59.3790   34.5530   45.4470 N   0  0  0  0  0  0  0  0  0  0  0  0
   60.5580   34.6100   46.0500 N   0  0  0  0  0  0  0  0  0  0  0  0
   60.5680   33.6450   46.9920 C   0  0  0  0  0  0  0  0  0  0  0  0
   61.7190   33.3980   47.9270 C   0  0  0  0  0  0  0  0  0  0  0  0
   63.1050   33.6820   47.3650 C   0  0  0  0  0  0  0  0  0  0  0  0
   62.6210   32.2500   47.4990 C   0  0  0  0  0  0  0  0  0  0  0  0
   59.3980   32.9730   47.0170 N   0  0  0  0  0  0  0  0  0  0  0  0
   58.9990   31.8750   47.9020 C   0  0  0  0  0  0  0  0  0  0  0  0
   59.4420   30.5450   47.3460 C   0  0  0  0  0  0  0  0  0  0  0  0
   60.0080   30.4680   46.0620 C   0  0  0  0  0  0  0  0  0  0  0  0
   60.4260   29.2350   45.5510 C   0  0  0  0  0  0  0  0  0  0  0  0
   60.2950   28.0750   46.3180 C   0  0  0  0  0  0  0  0  0  0  0  0
   59.7510   28.1450   47.6030 C   0  0  0  0  0  0  0  0  0  0  0  0
   59.3320   29.3740   48.1190 C   0  0  0  0  0  0  0  0  0  0  0  0
   56.7585   26.4901   46.8560 H   0  0  0  0  0  0  0  0  0  0  0  0
   57.2027   25.8388   45.1215 H   0  0  0  0  0  0  0  0  0  0  0  0
   56.8821   28.7702   46.0389 H   0  0  0  0  0  0  0  0  0  0  0  0
   58.2350   27.5746   43.5924 H   0  0  0  0  0  0  0  0  0  0  0  0
   56.5249   28.0643   43.2956 H   0  0  0  0  0  0  0  0  0  0  0  0
   58.7770   29.8240   43.3570 H   0  0  0  0  0  0  0  0  0  0  0  0
   58.6239   32.1231   44.0336 H   0  0  0  0  0  0  0  0  0  0  0  0
   57.1001   32.5849   43.1950 H   0  0  0  0  0  0  0  0  0  0  0  0
   61.1870   33.6892   48.8447 H   0  0  0  0  0  0  0  0  0  0  0  0
   63.2119   34.1353   46.3684 H   0  0  0  0  0  0  0  0  0  0  0  0
   63.9859   34.2408   47.7140 H   0  0  0  0  0  0  0  0  0  0  0  0
   62.3775   31.6656   46.5994 H   0  0  0  0  0  0  0  0  0  0  0  0
   63.0065   31.3417   47.9853 H   0  0  0  0  0  0  0  0  0  0  0  0
   59.4597   32.0235   48.8898 H   0  0  0  0  0  0  0  0  0  0  0  0
   57.9021   31.8725   47.9850 H   0  0  0  0  0  0  0  0  0  0  0  0
   60.1226   31.3797   45.4574 H   0  0  0  0  0  0  0  0  0  0  0  0
   60.8594   29.1786   44.5416 H   0  0  0  0  0  0  0  0  0  0  0  0
   60.6201   27.1064   45.9104 H   0  0  0  0  0  0  0  0  0  0  0  0
   59.6525   27.2321   48.2088 H   0  0  0  0  0  0  0  0  0  0  0  0
   58.9138   29.4266   49.1351 H   0  0  0  0  0  0  0  0  0  0  0  0
  1  2  2  0
  2  3  1  0
  3  4  1  0
  4  5  1  0
  5  6  2  0
  5  7  1  0
  7  8  1  0
  8  9  1  0
  9 10  2  0
 10 11  1  0
 11 12  2  0
 12 13  1  0
 13 14  1  0
 14 15  1  0
 12 16  1  0
 16 17  1  0
 17 18  1  0
 18 19  2  0
 19 20  1  0
 20 21  2  0
 21 22  1  0
 22 23  2  0
 16  9  1  0
 23 18  1  0
 15 13  1  0
  1 24  1  0
  1 25  1  0
  2 26  1  0
  3 27  1  0
  3 28  1  0
  4 29  1  0
  7 30  1  0
  7 31  1  0
 13 32  1  0
 14 33  1  0
 14 34  1  0
 15 35  1  0
 15 36  1  0
 17 37  1  0
 17 38  1  0
 19 39  1  0
 20 40  1  0
 21 41  1  0
 22 42  1  0
 23 43  1  0
M  END
>  <UniqueID>  (86) 
80

>  <SMILES>  (86) 
C=CCNC(=O)CSc1nnc(C2CC2)n1Cc1ccccc1

>  <Energy>  (86) 
330.27538815583466

>  <Genealogy>  (86) 
C=CCNC(=O)CSc1nnc(C2CC2)n1Cc1ccccc1 (3D coordinates assigned)
C=CCNC(=O)CSc1nnc(C2CC2)n1Cc1ccccc1 (nonaromatic ring conformer: 330.27538815583466 kcal/mol)

>  <smiles>  (86) 
C=CCNC(=O)CSc1nnc(C2CC2)n1Cc1ccccc1

>  <score_type>  (86) 
oracle

>  <origin>  (86) 
adg

>  <m_score__min__energy>  (86) 
-7.75

>  <m_primary>  (86) 
energy

$$$$
86:0
     RDKit          3D

 29 30  0  0  0  0  0  0  0  0999 V2000
   55.8840   28.4950   45.1890 O   0  0  0  0  0  0  0  0  0  0  0  0
   56.9770   28.2290   45.7540 C   0  0  0  0  0  0  0  0  0  0  0  0
   57.1920   26.9420   46.3490 N   0  0  0  0  0  0  0  0  0  0  0  0
   56.9660   25.6640   45.7350 C   0  0  0  0  0  0  0  0  0  0  0  0
   58.0260   24.8020   45.4090 C   0  0  0  0  0  0  0  0  0  0  0  0
   57.7740   23.5750   44.7890 C   0  0  0  0  0  0  0  0  0  0  0  0
   56.4600   23.1920   44.4700 C   0  0  0  0  0  0  0  0  0  0  0  0
   56.1970   21.9290   43.8320 N   0  0  0  0  0  0  0  0  0  0  0  0
   56.1930   21.8330   42.5860 O   0  0  0  0  0  0  0  0  0  0  0  0
   55.9490   20.8030   44.5830 O   0  0  0  0  0  0  0  0  0  0  0  0
   55.4040   24.0680   44.7750 C   0  0  0  0  0  0  0  0  0  0  0  0
   55.6540   25.3000   45.3970 C   0  0  0  0  0  0  0  0  0  0  0  0
   54.6010   26.1650   45.6870 O   0  0  0  0  0  0  0  0  0  0  0  0
   58.0390   29.1870   45.6930 N   0  0  0  0  0  0  0  0  0  0  0  0
   57.9870   30.4660   45.0420 C   0  0  0  0  0  0  0  0  0  0  0  0
   57.6010   30.5840   43.6940 C   0  0  0  0  0  0  0  0  0  0  0  0
   57.5790   31.8330   43.0740 C   0  0  0  0  0  0  0  0  0  0  0  0
   57.9550   32.9750   43.7830 C   0  0  0  0  0  0  0  0  0  0  0  0
   58.3670   32.8720   45.1150 C   0  0  0  0  0  0  0  0  0  0  0  0
   58.8490   34.3330   45.9680 Cl  0  0  0  0  0  0  0  0  0  0  0  0
   58.3920   31.6150   45.7470 C   0  0  0  0  0  0  0  0  0  0  0  0
   58.9130   31.4730   47.4250 Cl  0  0  0  0  0  0  0  0  0  0  0  0
   59.0603   25.0943   45.6430 H   0  0  0  0  0  0  0  0  0  0  0  0
   58.6113   22.9033   44.5487 H   0  0  0  0  0  0  0  0  0  0  0  0
   54.3713   23.7846   44.5234 H   0  0  0  0  0  0  0  0  0  0  0  0
   54.7650   27.1170   45.9930 H   0  0  0  0  0  0  0  0  0  0  0  0
   57.3151   29.6863   43.1262 H   0  0  0  0  0  0  0  0  0  0  0  0
   57.2645   31.9184   42.0234 H   0  0  0  0  0  0  0  0  0  0  0  0
   57.9271   33.9591   43.2922 H   0  0  0  0  0  0  0  0  0  0  0  0
  1  2  2  0
  2  3  1  0
  3  4  1  0
  4  5  2  0
  5  6  1  0
  6  7  2  0
  7  8  1  0
  8  9  2  0
  8 10  1  0
  7 11  1  0
 11 12  2  0
 12 13  1  0
  2 14  1  0
 14 15  1  0
 15 16  2  0
 16 17  1  0
 17 18  2  0
 18 19  1  0
 19 20  1  0
 19 21  2  0
 21 22  1  0
 12  4  1  0
 21 15  1  0
  5 23  1  0
  6 24  1  0
 11 25  1  0
 13 26  1  0
 16 27  1  0
 17 28  1  0
 18 29  1  0
M  CHG  4   3  -1   8   1  10  -1  14  -1
M  END
>  <UniqueID>  (87) 
81

>  <SMILES>  (87) 
O=C([N-]c1ccc([N+](=O)[O-])cc1O)[N-]c1cccc(Cl)c1Cl

>  <Energy>  (87) 
39.322852316523985

>  <Genealogy>  (87) 
O=C([N-]c1ccc([N+](=O)[O-])cc1O)[N-]c1cccc(Cl)c1Cl (protonated)
O=C([N-]c1ccc([N+](=O)[O-])cc1O)[N-]c1cccc(Cl)c1Cl (3D coordinates assigned)
O=C([N-]c1ccc([N+](=O)[O-])cc1O)[N-]c1cccc(Cl)c1Cl (optimized conformer: 39.322852316523985 kcal/mol)

>  <smiles>  (87) 
O=C(Nc1ccc([N+](=O)[O-])cc1O)Nc1cccc(Cl)c1Cl

>  <score_type>  (87) 
oracle

>  <origin>  (87) 
adg

>  <m_score__min__energy>  (87) 
-11.859999999999999

>  <m_primary>  (87) 
energy

$$$$
87:0
     RDKit          3D

 54 57  0  0  0  0  0  0  0  0999 V2000
   58.7580   29.8510   49.6070 C   0  0  0  0  0  0  0  0  0  0  0  0
   58.5410   29.9760   48.2070 O   0  0  0  0  0  0  0  0  0  0  0  0
   59.3090   29.3370   47.2190 C   0  0  0  0  0  0  0  0  0  0  0  0
   59.7670   28.0140   47.3750 C   0  0  0  0  0  0  0  0  0  0  0  0
   60.5170   27.4040   46.3660 C   0  0  0  0  0  0  0  0  0  0  0  0
   60.8180   28.1030   45.1970 C   0  0  0  0  0  0  0  0  0  0  0  0
   60.3750   29.4150   45.0330 C   0  0  0  0  0  0  0  0  0  0  0  0
   59.6200   30.0390   46.0380 C   0  0  0  0  0  0  0  0  0  0  0  0
   59.1880   31.4420   45.8610 C   0  0  0  0  0  0  0  0  0  0  0  0
   58.0380   31.8500   45.1930 C   0  0  0  0  0  0  0  0  0  0  0  0
   57.0480   30.9950   44.5200 C   0  0  0  0  0  0  0  0  0  0  0  0
   56.8840   31.1000   43.2770 O   0  0  0  0  0  0  0  0  0  0  0  0
   56.2810   30.0270   45.2440 N   0  0  0  0  0  0  0  0  0  0  0  0
   56.6620   28.6270   45.3850 C   0  0  0  0  0  0  0  0  0  0  0  0
   57.5990   28.2230   44.2500 C   0  0  0  0  0  0  0  0  0  0  0  0
   57.0410   28.6140   42.9590 N   0  0  0  0  0  0  0  0  0  0  0  0
   57.9590   33.2150   45.3710 C   0  0  0  0  0  0  0  0  0  0  0  0
   56.9780   34.0610   44.8670 O   0  0  0  0  0  0  0  0  0  0  0  0
   59.0420   33.5930   46.1280 C   0  0  0  0  0  0  0  0  0  0  0  0
   59.3350   34.9050   46.4930 O   0  0  0  0  0  0  0  0  0  0  0  0
   59.7920   32.5120   46.4390 N   0  0  0  0  0  0  0  0  0  0  0  0
   60.9830   32.4920   47.2450 C   0  0  0  0  0  0  0  0  0  0  0  0
   62.1400   33.1570   46.8140 C   0  0  0  0  0  0  0  0  0  0  0  0
   63.3140   33.0950   47.5700 C   0  0  0  0  0  0  0  0  0  0  0  0
   63.3480   32.3640   48.7690 C   0  0  0  0  0  0  0  0  0  0  0  0
   64.5920   32.2950   49.5600 C   0  0  0  0  0  0  0  0  0  0  0  0
   64.8120   31.4130   50.5550 N   0  0  0  0  0  0  0  0  0  0  0  0
   66.0610   31.7510   50.9370 C   0  0  0  0  0  0  0  0  0  0  0  0
   66.7790   31.1060   52.0730 C   0  0  0  0  0  0  0  0  0  0  0  0
   66.5580   32.7850   50.2330 N   0  0  0  0  0  0  0  0  0  0  0  0
   65.6220   33.0880   49.3870 O   0  0  0  0  0  0  0  0  0  0  0  0
   62.1890   31.6960   49.1990 C   0  0  0  0  0  0  0  0  0  0  0  0
   61.0160   31.7600   48.4420 C   0  0  0  0  0  0  0  0  0  0  0  0
   57.9293   30.3283   50.1505 H   0  0  0  0  0  0  0  0  0  0  0  0
   58.8079   28.7857   49.8766 H   0  0  0  0  0  0  0  0  0  0  0  0
   59.7046   30.3422   49.8766 H   0  0  0  0  0  0  0  0  0  0  0  0
   59.5332   27.4586   48.2952 H   0  0  0  0  0  0  0  0  0  0  0  0
   60.8708   26.3703   46.4939 H   0  0  0  0  0  0  0  0  0  0  0  0
   61.4057   27.6185   44.4033 H   0  0  0  0  0  0  0  0  0  0  0  0
   60.6186   29.9636   44.1112 H   0  0  0  0  0  0  0  0  0  0  0  0
   57.1740   28.4842   46.3481 H   0  0  0  0  0  0  0  0  0  0  0  0
   55.7579   28.0016   45.3462 H   0  0  0  0  0  0  0  0  0  0  0  0
   58.5706   28.7197   44.3892 H   0  0  0  0  0  0  0  0  0  0  0  0
   57.7244   27.1303   44.2657 H   0  0  0  0  0  0  0  0  0  0  0  0
   57.6770   29.3320   42.5420 H   0  0  0  0  0  0  0  0  0  0  0  0
   56.1270   29.0920   43.1290 H   0  0  0  0  0  0  0  0  0  0  0  0
   58.7470   35.6810   46.2130 H   0  0  0  0  0  0  0  0  0  0  0  0
   62.1235   33.7307   45.8756 H   0  0  0  0  0  0  0  0  0  0  0  0
   64.2159   33.6213   47.2243 H   0  0  0  0  0  0  0  0  0  0  0  0
   66.3677   31.4755   53.0239 H   0  0  0  0  0  0  0  0  0  0  0  0
   66.6494   30.0151   52.0167 H   0  0  0  0  0  0  0  0  0  0  0  0
   67.8498   31.3514   52.0167 H   0  0  0  0  0  0  0  0  0  0  0  0
   62.2050   31.1199   50.1360 H   0  0  0  0  0  0  0  0  0  0  0  0
   60.1135   31.2337   48.7863 H   0  0  0  0  0  0  0  0  0  0  0  0
  1  2  1  0
  2  3  1  0
  3  4  2  0
  4  5  1  0
  5  6  2  0
  6  7  1  0
  7  8  2  0
  8  9  1  0
  9 10  2  0
 10 11  1  0
 11 12  2  0
 11 13  1  0
 13 14  1  0
 14 15  1  0
 15 16  1  0
 10 17  1  0
 17 18  1  0
 17 19  2  0
 19 20  1  0
 19 21  1  0
 21 22  1  0
 22 23  2  0
 23 24  1  0
 24 25  2  0
 25 26  1  0
 26 27  2  0
 27 28  1  0
 28 29  1  0
 28 30  2  0
 30 31  1  0
 25 32  1  0
 32 33  2  0
  8  3  1  0
 21  9  1  0
 33 22  1  0
 31 26  1  0
  1 34  1  0
  1 35  1  0
  1 36  1  0
  4 37  1  0
  5 38  1  0
  6 39  1  0
  7 40  1  0
 14 41  1  0
 14 42  1  0
 15 43  1  0
 15 44  1  0
 16 45  1  0
 16 46  1  0
 20 47  1  0
 23 48  1  0
 24 49  1  0
 29 50  1  0
 29 51  1  0
 29 52  1  0
 32 53  1  0
 33 54  1  0
M  CHG  2  13  -1  18  -1
M  END
>  <UniqueID>  (88) 
82

>  <SMILES>  (88) 
COc1ccccc1-c1c(C(=O)[N-]CCN)c([O-])c(O)n1-c1ccc(-c2nc(C)no2)cc1

>  <Energy>  (88) 
129.22484795309768

>  <Genealogy>  (88) 
COc1ccccc1-c1c(C(=O)[N-]CCN)c([O-])c(O)n1-c1ccc(-c2nc(C)no2)cc1 (protonated)
COc1ccccc1-c1c(C(=O)[N-]CCN)c([O-])c(O)n1-c1ccc(-c2nc(C)no2)cc1 (3D coordinates assigned)
COc1ccccc1-c1c(C(=O)[N-]CCN)c([O-])c(O)n1-c1ccc(-c2nc(C)no2)cc1 (optimized conformer: 129.22484795309768 kcal/mol)

>  <smiles>  (88) 
COc1ccccc1-c1c(C(=O)NCCN)c(O)c(O)n1-c1ccc(-c2nc(C)no2)cc1

>  <score_type>  (88) 
oracle

>  <origin>  (88) 
adg

>  <m_score__min__energy>  (88) 
-10.039999999999999

>  <m_primary>  (88) 
energy

$$$$
