0:0
     RDKit          3D

 32 33  0  0  1  0  0  0  0  0999 V2000
   55.9330   30.8030   44.3090 O   0  0  0  0  0  0  0  0  0  0  0  0
   56.3690   29.7520   44.8490 C   0  0  0  0  0  0  0  0  0  0  0  0
   55.5820   28.6030   44.8730 O   0  0  0  0  0  0  0  0  0  0  0  0
   57.6830   29.7500   45.4370 C   0  0  0  0  0  0  0  0  0  0  0  0
   58.4400   30.9080   45.4910 C   0  0  0  0  0  0  0  0  0  0  0  0
   59.6930   30.8870   46.0580 C   0  0  0  0  0  0  0  0  0  0  0  0
   60.2210   29.7220   46.5810 C   0  0  0  0  0  0  0  0  0  0  0  0
   59.4750   28.5370   46.5380 C   0  0  0  0  0  0  0  0  0  0  0  0
   58.2090   28.5830   45.9590 C   0  0  0  0  0  0  0  0  0  0  0  0
   57.4150   27.4200   45.8910 N   0  0  0  0  0  0  0  0  0  0  0  0
   57.7890   26.2790   45.4950 N   0  0  0  0  0  0  0  0  0  0  0  0
   56.8410   25.2190   45.2460 C   0  0  0  0  0  0  0  0  0  0  0  0
   57.3170   24.0770   44.6140 C   0  0  0  0  0  0  0  0  0  0  0  0
   56.4740   23.0350   44.3470 C   0  0  0  0  0  0  0  0  0  0  0  0
   56.9750   21.5560   43.5570 S   0  0  0  0  0  0  0  0  0  0  0  0
   56.2630   21.4930   42.2230 O   0  0  0  0  0  0  0  0  0  0  0  0
   58.4500   21.5240   43.3600 O   0  0  0  0  0  0  0  0  0  0  0  0
   56.4180   20.2870   44.5010 O   0  0  0  0  0  0  0  0  0  0  0  0
   55.1470   23.1570   44.7250 C   0  0  0  0  0  0  0  0  0  0  0  0
   54.6730   24.2920   45.3530 C   0  0  0  0  0  0  0  0  0  0  0  0
   55.5340   25.3370   45.6170 C   0  0  0  0  0  0  0  0  0  0  0  0
   55.1410   26.5120   46.2430 O   0  0  0  0  0  0  0  0  0  0  0  0
   56.0990   27.7170   44.7560 H   0  0  0  0  0  0  0  0  0  0  0  0
   58.0388   31.8461   45.0799 H   0  0  0  0  0  0  0  0  0  0  0  0
   60.2849   31.8134   46.0958 H   0  0  0  0  0  0  0  0  0  0  0  0
   61.2251   29.7251   47.0302 H   0  0  0  0  0  0  0  0  0  0  0  0
   59.8767   27.5990   46.9489 H   0  0  0  0  0  0  0  0  0  0  0  0
   58.3769   24.0112   44.3273 H   0  0  0  0  0  0  0  0  0  0  0  0
   56.7010   19.4210   44.1360 H   0  0  0  0  0  0  0  0  0  0  0  0
   54.4530   22.3286   44.5197 H   0  0  0  0  0  0  0  0  0  0  0  0
   53.6138   24.3624   45.6414 H   0  0  0  0  0  0  0  0  0  0  0  0
   55.8280   27.2010   46.5230 H   0  0  0  0  0  0  0  0  0  0  0  0
  1  2  2  0
  2  3  1  0
  2  4  1  0
  4  5  2  0
  5  6  1  0
  6  7  2  0
  7  8  1  0
  8  9  2  0
  9 10  1  0
 10 11  2  0
 11 12  1  0
 12 13  2  0
 13 14  1  0
 14 15  1  0
 15 16  2  0
 15 17  2  0
 15 18  1  0
 14 19  2  0
 19 20  1  0
 20 21  2  0
 21 22  1  0
  9  4  1  0
 21 12  1  0
  3 23  1  0
  5 24  1  0
  6 25  1  0
  7 26  1  0
  8 27  1  0
 13 28  1  0
 18 29  1  0
 19 30  1  0
 20 31  1  0
 22 32  1  0
M  END
>  <smiles>  (1) 
O=C(O)c1ccccc1N=Nc1cc(S(=O)(=O)O)ccc1O

>  <score_type>  (1) 
oracle

>  <origin>  (1) 
adg

>  <m_score__min__energy>  (1) 
-9.5199999999999996

>  <m_primary>  (1) 
energy

$$$$
1:0
     RDKit          3D

 47 50  0  0  1  0  0  0  0  0999 V2000
   56.5290   29.4840   42.8490 N   0  0  0  0  0  0  0  0  0  0  0  0
   56.5660   29.4140   44.2670 C   0  0  0  0  0  0  0  0  0  0  0  0
   55.4370   29.4710   44.8600 O   0  0  0  0  0  0  0  0  0  0  0  0
   57.8090   29.2900   45.0070 C   0  0  0  0  0  0  0  0  0  0  0  0
   59.0590   29.4420   44.4380 C   0  0  0  0  0  0  0  0  0  0  0  0
   60.2270   29.3300   45.1310 C   0  0  0  0  0  0  0  0  0  0  0  0
   60.1860   29.0430   46.4980 C   0  0  0  0  0  0  0  0  0  0  0  0
   58.9520   28.8800   47.1110 C   0  0  0  0  0  0  0  0  0  0  0  0
   58.8950   28.5820   48.5000 N   0  0  0  0  0  0  0  0  0  0  0  0
   59.6300   29.2350   49.3150 C   0  0  0  0  0  0  0  0  0  0  0  0
   59.3260   30.5540   49.6730 C   0  0  0  0  0  0  0  0  0  0  0  0
   60.1890   31.1370   50.5720 C   0  0  0  0  0  0  0  0  0  0  0  0
   60.0430   32.4760   51.0500 N   0  0  0  0  0  0  0  0  0  0  0  0
   59.5070   33.4850   50.1550 C   0  0  0  0  0  0  0  0  0  0  0  0
   60.2620   33.5880   48.8760 C   0  0  0  0  0  0  0  0  0  0  0  0
   61.6440   33.7140   48.8390 C   0  0  0  0  0  0  0  0  0  0  0  0
   62.3310   33.8060   47.6220 C   0  0  0  0  0  0  0  0  0  0  0  0
   61.6200   33.7700   46.4190 C   0  0  0  0  0  0  0  0  0  0  0  0
   60.2470   33.6450   46.4470 C   0  0  0  0  0  0  0  0  0  0  0  0
   59.5310   33.6050   45.2690 C   0  0  0  0  0  0  0  0  0  0  0  0
   58.1480   33.4770   45.2380 C   0  0  0  0  0  0  0  0  0  0  0  0
   57.4640   33.3850   46.4340 C   0  0  0  0  0  0  0  0  0  0  0  0
   58.1890   33.4260   47.6230 C   0  0  0  0  0  0  0  0  0  0  0  0
   59.5600   33.5530   47.6570 C   0  0  0  0  0  0  0  0  0  0  0  0
   61.2670   30.4660   51.0780 N   0  0  0  0  0  0  0  0  0  0  0  0
   61.5220   29.1980   50.7060 C   0  0  0  0  0  0  0  0  0  0  0  0
   60.6980   28.5980   49.8280 N   0  0  0  0  0  0  0  0  0  0  0  0
   57.7900   29.0060   46.3650 C   0  0  0  0  0  0  0  0  0  0  0  0
   55.6680   29.6720   42.3050 H   0  0  0  0  0  0  0  0  0  0  0  0
   57.4000   29.3450   42.2510 H   0  0  0  0  0  0  0  0  0  0  0  0
   59.1145   29.6666   43.3626 H   0  0  0  0  0  0  0  0  0  0  0  0
   61.1917   29.4641   44.6198 H   0  0  0  0  0  0  0  0  0  0  0  0
   61.1158   28.9480   47.0780 H   0  0  0  0  0  0  0  0  0  0  0  0
   58.4560   31.0880   49.2632 H   0  0  0  0  0  0  0  0  0  0  0  0
   60.3290   32.6990   52.0350 H   0  0  0  0  0  0  0  0  0  0  0  0
   58.4617   33.2305   49.9255 H   0  0  0  0  0  0  0  0  0  0  0  0
   59.5905   34.4557   50.6656 H   0  0  0  0  0  0  0  0  0  0  0  0
   62.2094   33.7421   49.7821 H   0  0  0  0  0  0  0  0  0  0  0  0
   63.4264   33.9062   47.6128 H   0  0  0  0  0  0  0  0  0  0  0  0
   62.1511   33.8408   45.4583 H   0  0  0  0  0  0  0  0  0  0  0  0
   60.0764   33.6773   44.3165 H   0  0  0  0  0  0  0  0  0  0  0  0
   57.6086   33.4495   44.2797 H   0  0  0  0  0  0  0  0  0  0  0  0
   56.3690   33.2814   46.4477 H   0  0  0  0  0  0  0  0  0  0  0  0
   57.6431   33.3539   48.5753 H   0  0  0  0  0  0  0  0  0  0  0  0
   61.9110   30.9320   51.7630 H   0  0  0  0  0  0  0  0  0  0  0  0
   62.3908   28.6604   51.1136 H   0  0  0  0  0  0  0  0  0  0  0  0
   56.8199   28.8764   46.8670 H   0  0  0  0  0  0  0  0  0  0  0  0
  1  2  1  0
  2  3  2  0
  2  4  1  0
  4  5  2  0
  5  6  1  0
  6  7  2  0
  7  8  1  0
  8  9  1  0
  9 10  2  0
 10 11  1  0
 11 12  2  0
 12 13  1  0
 13 14  1  0
 14 15  1  0
 15 16  2  0
 16 17  1  0
 17 18  2  0
 18 19  1  0
 19 20  2  0
 20 21  1  0
 21 22  2  0
 22 23  1  0
 23 24  2  0
 12 25  1  0
 25 26  1  0
 26 27  2  0
  8 28  2  0
 28  4  1  0
 27 10  1  0
 24 15  1  0
 24 19  1  0
  1 29  1  0
  1 30  1  0
  5 31  1  0
  6 32  1  0
  7 33  1  0
 11 34  1  0
 13 35  1  0
 14 36  1  0
 14 37  1  0
 16 38  1  0
 17 39  1  0
 18 40  1  0
 20 41  1  0
 21 42  1  0
 22 43  1  0
 23 44  1  0
 25 45  1  0
 26 46  1  0
 28 47  1  0
M  END
>  <smiles>  (2) 
NC(=O)c1cccc(N=c2cc(NCc3cccc4ccccc34)[nH]cn2)c1

>  <score_type>  (2) 
oracle

>  <origin>  (2) 
adg

>  <m_score__min__energy>  (2) 
-8.9199999999999999

>  <m_primary>  (2) 
energy

$$$$
2:0
     RDKit          3D

 29 31  0  0  0  0  0  0  0  0999 V2000
   56.4620   30.3770   44.8500 O   0  0  0  0  0  0  0  0  0  0  0  0
   57.6720   30.5520   45.1660 C   0  0  0  0  0  0  0  0  0  0  0  0
   58.5030   29.4070   45.3150 N   0  0  0  0  0  0  0  0  0  0  0  0
   57.9960   28.0860   45.1140 C   0  0  0  0  0  0  0  0  0  0  0  0
   58.4780   27.3450   44.0470 C   0  0  0  0  0  0  0  0  0  0  0  0
   58.0070   26.0530   43.8200 C   0  0  0  0  0  0  0  0  0  0  0  0
   57.0550   25.5540   44.6910 C   0  0  0  0  0  0  0  0  0  0  0  0
   56.5770   26.3140   45.7660 C   0  0  0  0  0  0  0  0  0  0  0  0
   57.0420   27.5900   45.9900 C   0  0  0  0  0  0  0  0  0  0  0  0
   55.6420   25.4980   46.4160 O   0  0  0  0  0  0  0  0  0  0  0  0
   55.1680   24.5180   45.4830 C   0  0  0  0  0  0  0  0  0  0  0  0
   56.3860   24.3190   44.7470 O   0  0  0  0  0  0  0  0  0  0  0  0
   58.1400   31.9150   45.3590 C   0  0  0  0  0  0  0  0  0  0  0  0
   57.4090   32.9190   44.7550 C   0  0  0  0  0  0  0  0  0  0  0  0
   57.7810   34.2620   44.8820 C   0  0  0  0  0  0  0  0  0  0  0  0
   58.9000   34.5760   45.6290 C   0  0  0  0  0  0  0  0  0  0  0  0
   59.5990   33.5500   46.2140 C   0  0  0  0  0  0  0  0  0  0  0  0
   60.7130   33.8330   46.9610 F   0  0  0  0  0  0  0  0  0  0  0  0
   59.2510   32.2210   46.1010 C   0  0  0  0  0  0  0  0  0  0  0  0
   59.5060   29.5290   45.5750 H   0  0  0  0  0  0  0  0  0  0  0  0
   59.2351   27.7780   43.3767 H   0  0  0  0  0  0  0  0  0  0  0  0
   58.3792   25.4512   42.9778 H   0  0  0  0  0  0  0  0  0  0  0  0
   56.6711   28.1933   46.8317 H   0  0  0  0  0  0  0  0  0  0  0  0
   54.8309   23.5982   45.9833 H   0  0  0  0  0  0  0  0  0  0  0  0
   54.2914   24.8107   44.8864 H   0  0  0  0  0  0  0  0  0  0  0  0
   56.5188   32.6584   44.1637 H   0  0  0  0  0  0  0  0  0  0  0  0
   57.1927   35.0540   44.3955 H   0  0  0  0  0  0  0  0  0  0  0  0
   59.2221   35.6206   45.7516 H   0  0  0  0  0  0  0  0  0  0  0  0
   59.8441   31.4337   46.5892 H   0  0  0  0  0  0  0  0  0  0  0  0
  1  2  2  0
  2  3  1  0
  3  4  1  0
  4  5  2  0
  5  6  1  0
  6  7  2  0
  7  8  1  0
  8  9  2  0
  8 10  1  0
 10 11  1  0
 11 12  1  0
  2 13  1  0
 13 14  2  0
 14 15  1  0
 15 16  2  0
 16 17  1  0
 17 18  1  0
 17 19  2  0
  9  4  1  0
 19 13  1  0
 12  7  1  0
  3 20  1  0
  5 21  1  0
  6 22  1  0
  9 23  1  0
 11 24  1  0
 11 25  1  0
 14 26  1  0
 15 27  1  0
 16 28  1  0
 19 29  1  0
M  END
>  <smiles>  (3) 
O=C(Nc1ccc2c(c1)OCO2)c1cccc(F)c1

>  <score_type>  (3) 
oracle

>  <origin>  (3) 
adg

>  <m_score__min__energy>  (3) 
-6.54

>  <m_primary>  (3) 
energy

$$$$
3:0
     RDKit          3D

 31 33  0  0  1  0  0  0  0  0999 V2000
   55.5480   30.0270   44.5800 O   0  0  0  0  0  0  0  0  0  0  0  0
   56.7760   30.1040   44.8600 C   0  0  0  0  0  0  0  0  0  0  0  0
   57.5730   28.9180   45.0240 N   0  0  0  0  0  0  0  0  0  0  0  0
   57.1050   27.8500   45.2060 C   0  0  0  0  0  0  0  0  0  0  0  0
   55.8840   27.4100   45.6260 N   0  0  0  0  0  0  0  0  0  0  0  0
   55.6690   26.1810   45.7280 N   0  0  0  0  0  0  0  0  0  0  0  0
   56.4750   25.2160   45.4790 C   0  0  0  0  0  0  0  0  0  0  0  0
   56.4970   23.7720   45.5060 C   0  0  0  0  0  0  0  0  0  0  0  0
   57.7200   23.1480   45.5300 C   0  0  0  0  0  0  0  0  0  0  0  0
   57.8440   21.7830   45.5600 C   0  0  0  0  0  0  0  0  0  0  0  0
   56.6530   21.0610   45.5630 C   0  0  0  0  0  0  0  0  0  0  0  0
   55.4230   21.6760   45.5400 C   0  0  0  0  0  0  0  0  0  0  0  0
   55.3140   23.0550   45.5100 C   0  0  0  0  0  0  0  0  0  0  0  0
   53.7520   23.8490   45.4750 Cl  0  0  0  0  0  0  0  0  0  0  0  0
   57.9970   26.1990   44.9460 S   0  0  0  0  0  0  0  0  0  0  0  0
   57.4700   31.3810   45.0370 C   0  0  0  0  0  0  0  0  0  0  0  0
   57.8160   31.8440   46.3080 C   0  0  0  0  0  0  0  0  0  0  0  0
   58.4680   33.0300   46.5130 C   0  0  0  0  0  0  0  0  0  0  0  0
   58.7900   33.7890   45.4120 C   0  0  0  0  0  0  0  0  0  0  0  0
   59.6170   35.3000   45.6740 Cl  0  0  0  0  0  0  0  0  0  0  0  0
   58.4530   33.3420   44.1470 C   0  0  0  0  0  0  0  0  0  0  0  0
   57.7940   32.1440   43.9360 C   0  0  0  0  0  0  0  0  0  0  0  0
   57.3710   31.5870   42.3280 Cl  0  0  0  0  0  0  0  0  0  0  0  0
   55.1480   28.1690   45.8530 H   0  0  0  0  0  0  0  0  0  0  0  0
   58.6311   23.7643   45.5250 H   0  0  0  0  0  0  0  0  0  0  0  0
   58.8258   21.2874   45.5805 H   0  0  0  0  0  0  0  0  0  0  0  0
   56.6976   19.9621   45.5845 H   0  0  0  0  0  0  0  0  0  0  0  0
   54.5108   21.0613   45.5456 H   0  0  0  0  0  0  0  0  0  0  0  0
   57.5535   31.2295   47.1818 H   0  0  0  0  0  0  0  0  0  0  0  0
   58.7267   33.3661   47.5280 H   0  0  0  0  0  0  0  0  0  0  0  0
   58.7185   33.9614   43.2776 H   0  0  0  0  0  0  0  0  0  0  0  0
  1  2  2  0
  2  3  1  0
  3  4  2  0
  4  5  1  0
  5  6  1  0
  6  7  2  0
  7  8  1  0
  8  9  2  0
  9 10  1  0
 10 11  2  0
 11 12  1  0
 12 13  2  0
 13 14  1  0
  7 15  1  0
  2 16  1  0
 16 17  2  0
 17 18  1  0
 18 19  2  0
 19 20  1  0
 19 21  1  0
 21 22  2  0
 22 23  1  0
 15  4  1  0
 22 16  1  0
 13  8  1  0
  5 24  1  0
  9 25  1  0
 10 26  1  0
 11 27  1  0
 12 28  1  0
 17 29  1  0
 18 30  1  0
 21 31  1  0
M  END
>  <smiles>  (4) 
O=C(N=c1[nH]nc(-c2ccccc2Cl)s1)c1ccc(Cl)cc1Cl

>  <score_type>  (4) 
oracle

>  <origin>  (4) 
adg

>  <m_score__min__energy>  (4) 
-8.9299999999999997

>  <m_primary>  (4) 
energy

$$$$
4:0
     RDKit          3D

 45 47  0  0  1  0  0  0  0  0999 V2000
   59.6470   34.1420   48.5660 C   0  0  0  0  0  0  0  0  0  0  0  0
   59.2530   34.0100   47.1430 C   0  0  0  0  0  0  0  0  0  0  0  0
   58.7140   32.8250   46.6420 C   0  0  0  0  0  0  0  0  0  0  0  0
   58.3520   32.7110   45.3230 C   0  0  0  0  0  0  0  0  0  0  0  0
   57.7950   31.4430   44.8690 C   0  0  0  0  0  0  0  0  0  0  0  0
   58.5390   30.3300   44.5920 C   0  0  0  0  0  0  0  0  0  0  0  0
   57.9600   29.1550   44.1650 C   0  0  0  0  0  0  0  0  0  0  0  0
   58.6870   28.1500   43.9200 N   0  0  0  0  0  0  0  0  0  0  0  0
   59.2840   27.2790   44.8700 C   0  0  0  0  0  0  0  0  0  0  0  0
   58.2820   26.2870   45.3710 C   0  0  0  0  0  0  0  0  0  0  0  0
   57.9140   26.2120   46.6990 C   0  0  0  0  0  0  0  0  0  0  0  0
   56.9900   25.2990   47.1690 C   0  0  0  0  0  0  0  0  0  0  0  0
   56.4060   24.4220   46.2790 C   0  0  0  0  0  0  0  0  0  0  0  0
   56.7500   24.4630   44.9280 C   0  0  0  0  0  0  0  0  0  0  0  0
   56.0960   23.5220   44.0900 N   0  0  0  0  0  0  0  0  0  0  0  0
   56.8030   21.9630   43.8200 S   0  0  0  0  0  0  0  0  0  0  0  0
   56.3790   20.8270   45.0870 C   0  0  0  0  0  0  0  0  0  0  0  0
   58.3100   22.0710   43.7540 O   0  0  0  0  0  0  0  0  0  0  0  0
   56.2730   21.4640   42.5090 O   0  0  0  0  0  0  0  0  0  0  0  0
   57.6620   25.3790   44.5180 C   0  0  0  0  0  0  0  0  0  0  0  0
   56.6240   29.1140   44.0220 N   0  0  0  0  0  0  0  0  0  0  0  0
   55.8680   30.2170   44.2950 C   0  0  0  0  0  0  0  0  0  0  0  0
   56.4660   31.3700   44.7160 N   0  0  0  0  0  0  0  0  0  0  0  0
   58.5320   33.7990   44.4930 C   0  0  0  0  0  0  0  0  0  0  0  0
   59.0700   34.9530   45.0330 C   0  0  0  0  0  0  0  0  0  0  0  0
   59.4270   35.0780   46.3150 N   0  0  0  0  0  0  0  0  0  0  0  0
   58.8005   33.8584   49.2087 H   0  0  0  0  0  0  0  0  0  0  0  0
   60.5017   33.4811   48.7726 H   0  0  0  0  0  0  0  0  0  0  0  0
   59.9311   35.1844   48.7726 H   0  0  0  0  0  0  0  0  0  0  0  0
   58.5766   31.9666   47.3160 H   0  0  0  0  0  0  0  0  0  0  0  0
   59.6314   30.3739   44.7135 H   0  0  0  0  0  0  0  0  0  0  0  0
   60.1188   26.7426   44.3953 H   0  0  0  0  0  0  0  0  0  0  0  0
   59.6510   27.8748   45.7187 H   0  0  0  0  0  0  0  0  0  0  0  0
   58.3761   26.9089   47.4137 H   0  0  0  0  0  0  0  0  0  0  0  0
   56.7242   25.2719   48.2361 H   0  0  0  0  0  0  0  0  0  0  0  0
   55.6675   23.6888   46.6354 H   0  0  0  0  0  0  0  0  0  0  0  0
   55.1860   23.7720   43.6330 H   0  0  0  0  0  0  0  0  0  0  0  0
   56.5524   21.2914   46.0690 H   0  0  0  0  0  0  0  0  0  0  0  0
   55.3179   20.5526   44.9934 H   0  0  0  0  0  0  0  0  0  0  0  0
   57.0008   19.9244   44.9934 H   0  0  0  0  0  0  0  0  0  0  0  0
   57.9267   25.4058   43.4507 H   0  0  0  0  0  0  0  0  0  0  0  0
   56.1500   28.2460   43.7030 H   0  0  0  0  0  0  0  0  0  0  0  0
   54.7752   30.1770   44.1757 H   0  0  0  0  0  0  0  0  0  0  0  0
   58.2548   33.7495   43.4297 H   0  0  0  0  0  0  0  0  0  0  0  0
   59.2124   35.8182   44.3689 H   0  0  0  0  0  0  0  0  0  0  0  0
  1  2  1  0
  2  3  2  0
  3  4  1  0
  4  5  1  0
  5  6  2  0
  6  7  1  0
  7  8  2  0
  8  9  1  0
  9 10  1  0
 10 11  2  0
 11 12  1  0
 12 13  2  0
 13 14  1  0
 14 15  1  0
 15 16  1  0
 16 17  1  0
 16 18  2  0
 16 19  2  0
 14 20  2  0
  7 21  1  0
 21 22  1  0
 22 23  2  0
  4 24  2  0
 24 25  1  0
 25 26  2  0
 26  2  1  0
 23  5  1  0
 20 10  1  0
  1 27  1  0
  1 28  1  0
  1 29  1  0
  3 30  1  0
  6 31  1  0
  9 32  1  0
  9 33  1  0
 11 34  1  0
 12 35  1  0
 13 36  1  0
 15 37  1  0
 17 38  1  0
 17 39  1  0
 17 40  1  0
 20 41  1  0
 21 42  1  0
 22 43  1  0
 24 44  1  0
 25 45  1  0
M  END
>  <smiles>  (5) 
Cc1cc(-c2cc(=NCc3cccc(NS(C)(=O)=O)c3)[nH]cn2)ccn1

>  <score_type>  (5) 
oracle

>  <origin>  (5) 
adg

>  <m_score__min__energy>  (5) 
-9.0999999999999996

>  <m_primary>  (5) 
energy

$$$$
5:0
     RDKit          3D

 35 37  0  0  0  0  0  0  0  0999 V2000
   60.0460   33.8880   49.7690 C   0  0  0  0  0  0  0  0  0  0  0  0
   61.0650   33.7420   48.7000 C   0  0  0  0  0  0  0  0  0  0  0  0
   62.3400   33.3050   49.0180 C   0  0  0  0  0  0  0  0  0  0  0  0
   63.3170   33.1540   48.0550 C   0  0  0  0  0  0  0  0  0  0  0  0
   63.0050   33.4490   46.7460 C   0  0  0  0  0  0  0  0  0  0  0  0
   61.7170   33.8880   46.4370 C   0  0  0  0  0  0  0  0  0  0  0  0
   60.7490   34.0350   47.4080 C   0  0  0  0  0  0  0  0  0  0  0  0
   59.4500   34.4910   47.0050 N   0  0  0  0  0  0  0  0  0  0  0  0
   58.5940   33.5310   46.3780 C   0  0  0  0  0  0  0  0  0  0  0  0
   58.2710   32.1930   46.5250 C   0  0  0  0  0  0  0  0  0  0  0  0
   58.7100   31.1780   47.4400 N   0  0  0  0  0  0  0  0  0  0  0  0
   59.2650   29.9560   46.9290 C   0  0  0  0  0  0  0  0  0  0  0  0
   59.8760   29.8930   45.6880 C   0  0  0  0  0  0  0  0  0  0  0  0
   60.4030   28.7020   45.2220 C   0  0  0  0  0  0  0  0  0  0  0  0
   60.3410   27.5360   45.9750 C   0  0  0  0  0  0  0  0  0  0  0  0
   59.7270   27.6110   47.2190 C   0  0  0  0  0  0  0  0  0  0  0  0
   59.2120   28.7920   47.6650 C   0  0  0  0  0  0  0  0  0  0  0  0
   57.4150   32.3290   45.4660 C   0  0  0  0  0  0  0  0  0  0  0  0
   56.6400   31.5360   44.8670 O   0  0  0  0  0  0  0  0  0  0  0  0
   57.7310   33.6640   45.3100 C   0  0  0  0  0  0  0  0  0  0  0  0
   57.3850   34.6010   44.5350 O   0  0  0  0  0  0  0  0  0  0  0  0
   60.5337   33.8181   50.7525 H   0  0  0  0  0  0  0  0  0  0  0  0
   59.5519   34.8661   49.6734 H   0  0  0  0  0  0  0  0  0  0  0  0
   59.2971   33.0880   49.6734 H   0  0  0  0  0  0  0  0  0  0  0  0
   62.5804   33.0721   50.0658 H   0  0  0  0  0  0  0  0  0  0  0  0
   64.3242   32.8053   48.3271 H   0  0  0  0  0  0  0  0  0  0  0  0
   63.7613   33.3399   45.9547 H   0  0  0  0  0  0  0  0  0  0  0  0
   61.4674   34.1229   45.3918 H   0  0  0  0  0  0  0  0  0  0  0  0
   59.1270   35.4620   47.1510 H   0  0  0  0  0  0  0  0  0  0  0  0
   58.6460   31.2810   48.4730 H   0  0  0  0  0  0  0  0  0  0  0  0
   59.9429   30.7985   45.0670 H   0  0  0  0  0  0  0  0  0  0  0  0
   60.8823   28.6774   44.2322 H   0  0  0  0  0  0  0  0  0  0  0  0
   60.7614   26.5908   45.6010 H   0  0  0  0  0  0  0  0  0  0  0  0
   59.6559   26.7116   47.8483 H   0  0  0  0  0  0  0  0  0  0  0  0
   58.7335   28.8169   48.6552 H   0  0  0  0  0  0  0  0  0  0  0  0
  1  2  1  0
  2  3  2  0
  3  4  1  0
  4  5  2  0
  5  6  1  0
  6  7  2  0
  7  8  1  0
  8  9  1  0
  9 10  2  0
 10 11  1  0
 11 12  1  0
 12 13  2  0
 13 14  1  0
 14 15  2  0
 15 16  1  0
 16 17  2  0
 10 18  1  0
 18 19  2  0
 18 20  1  0
 20 21  2  0
  7  2  1  0
 20  9  1  0
 17 12  1  0
  1 22  1  0
  1 23  1  0
  1 24  1  0
  3 25  1  0
  4 26  1  0
  5 27  1  0
  6 28  1  0
  8 29  1  0
 11 30  1  0
 13 31  1  0
 14 32  1  0
 15 33  1  0
 16 34  1  0
 17 35  1  0
M  END
>  <smiles>  (6) 
Cc1ccccc1Nc1c(Nc2ccccc2)c(=O)c1=O

>  <score_type>  (6) 
oracle

>  <origin>  (6) 
adg

>  <m_score__min__energy>  (6) 
-6.79

>  <m_primary>  (6) 
energy

$$$$
6:0
     RDKit          3D

 40 42  0  0  0  0  0  0  0  0999 V2000
   57.4680   30.2020   45.9160 O   0  0  0  0  0  0  0  0  0  0  0  0
   57.5500   30.9280   44.8930 C   0  0  0  0  0  0  0  0  0  0  0  0
   57.2910   30.3860   43.6140 C   0  0  0  0  0  0  0  0  0  0  0  0
   56.9250   29.0420   43.5070 N   0  0  0  0  0  0  0  0  0  0  0  0
   57.7510   27.8680   43.5580 C   0  0  0  0  0  0  0  0  0  0  0  0
   58.4400   27.6130   44.8240 C   0  0  0  0  0  0  0  0  0  0  0  0
   58.0190   26.8260   45.8560 C   0  0  0  0  0  0  0  0  0  0  0  0
   58.7700   26.6360   47.0180 C   0  0  0  0  0  0  0  0  0  0  0  0
   59.9940   27.2540   47.1690 C   0  0  0  0  0  0  0  0  0  0  0  0
   60.7710   27.1130   48.2690 F   0  0  0  0  0  0  0  0  0  0  0  0
   60.4370   28.0550   46.1370 C   0  0  0  0  0  0  0  0  0  0  0  0
   59.6870   28.2340   44.9940 C   0  0  0  0  0  0  0  0  0  0  0  0
   57.4150   31.2860   42.5860 C   0  0  0  0  0  0  0  0  0  0  0  0
   57.7650   32.6160   42.7730 C   0  0  0  0  0  0  0  0  0  0  0  0
   58.0050   33.0840   44.0450 C   0  0  0  0  0  0  0  0  0  0  0  0
   57.8850   32.2030   45.0650 N   0  0  0  0  0  0  0  0  0  0  0  0
   58.1440   32.7330   46.3950 C   0  0  0  0  0  0  0  0  0  0  0  0
   59.5810   32.6800   46.7680 C   0  0  0  0  0  0  0  0  0  0  0  0
   60.3530   33.8290   46.6560 C   0  0  0  0  0  0  0  0  0  0  0  0
   61.6990   33.8400   46.9880 C   0  0  0  0  0  0  0  0  0  0  0  0
   62.2760   32.6700   47.4400 C   0  0  0  0  0  0  0  0  0  0  0  0
   63.6050   32.6460   47.7770 F   0  0  0  0  0  0  0  0  0  0  0  0
   61.5450   31.5200   47.5630 C   0  0  0  0  0  0  0  0  0  0  0  0
   60.2100   31.5430   47.2250 C   0  0  0  0  0  0  0  0  0  0  0  0
   55.8840   28.8470   43.3680 H   0  0  0  0  0  0  0  0  0  0  0  0
   57.1115   26.9990   43.3438 H   0  0  0  0  0  0  0  0  0  0  0  0
   58.5485   28.0388   42.8199 H   0  0  0  0  0  0  0  0  0  0  0  0
   57.0464   26.3195   45.7690 H   0  0  0  0  0  0  0  0  0  0  0  0
   58.3827   25.9888   47.8187 H   0  0  0  0  0  0  0  0  0  0  0  0
   61.4091   28.5616   46.2279 H   0  0  0  0  0  0  0  0  0  0  0  0
   60.0764   28.8808   44.1940 H   0  0  0  0  0  0  0  0  0  0  0  0
   57.2273   30.9354   41.5604 H   0  0  0  0  0  0  0  0  0  0  0  0
   57.8501   33.2922   41.9096 H   0  0  0  0  0  0  0  0  0  0  0  0
   58.2834   34.1328   44.2252 H   0  0  0  0  0  0  0  0  0  0  0  0
   57.8116   33.7811   46.4262 H   0  0  0  0  0  0  0  0  0  0  0  0
   57.5930   32.1077   47.1129 H   0  0  0  0  0  0  0  0  0  0  0  0
   59.8837   34.7557   46.2940 H   0  0  0  0  0  0  0  0  0  0  0  0
   62.2940   34.7604   46.8934 H   0  0  0  0  0  0  0  0  0  0  0  0
   62.0150   30.5938   47.9253 H   0  0  0  0  0  0  0  0  0  0  0  0
   59.6235   30.6177   47.3238 H   0  0  0  0  0  0  0  0  0  0  0  0
  1  2  2  0
  2  3  1  0
  3  4  1  0
  4  5  1  0
  5  6  1  0
  6  7  2  0
  7  8  1  0
  8  9  2  0
  9 10  1  0
  9 11  1  0
 11 12  2  0
  3 13  2  0
 13 14  1  0
 14 15  2  0
 15 16  1  0
 16 17  1  0
 17 18  1  0
 18 19  2  0
 19 20  1  0
 20 21  2  0
 21 22  1  0
 21 23  1  0
 23 24  2  0
 16  2  1  0
 24 18  1  0
 12  6  1  0
  4 25  1  0
  5 26  1  0
  5 27  1  0
  7 28  1  0
  8 29  1  0
 11 30  1  0
 12 31  1  0
 13 32  1  0
 14 33  1  0
 15 34  1  0
 17 35  1  0
 17 36  1  0
 19 37  1  0
 20 38  1  0
 23 39  1  0
 24 40  1  0
M  END
>  <smiles>  (7) 
O=c1c(NCc2ccc(F)cc2)cccn1Cc1ccc(F)cc1

>  <score_type>  (7) 
oracle

>  <origin>  (7) 
adg

>  <m_score__min__energy>  (7) 
-8.3399999999999999

>  <m_primary>  (7) 
energy

$$$$
7:0
     RDKit          3D

 23 24  0  0  0  0  0  0  0  0999 V2000
   56.0020   25.2800   46.7210 O   0  0  0  0  0  0  0  0  0  0  0  0
   56.3140   24.9850   45.5330 C   0  0  0  0  0  0  0  0  0  0  0  0
   55.8500   23.8120   44.9650 C   0  0  0  0  0  0  0  0  0  0  0  0
   56.1630   23.4480   43.6800 C   0  0  0  0  0  0  0  0  0  0  0  0
   55.6920   22.2800   43.1360 O   0  0  0  0  0  0  0  0  0  0  0  0
   56.9590   24.2970   42.9670 N   0  0  0  0  0  0  0  0  0  0  0  0
   57.3820   25.4160   43.5530 C   0  0  0  0  0  0  0  0  0  0  0  0
   58.1210   26.1800   42.8530 O   0  0  0  0  0  0  0  0  0  0  0  0
   57.1070   25.8070   44.7880 N   0  0  0  0  0  0  0  0  0  0  0  0
   57.5750   27.0180   45.3980 C   0  0  0  0  0  0  0  0  0  0  0  0
   56.9660   28.2500   44.8430 C   0  0  0  0  0  0  0  0  0  0  0  0
   57.6820   29.1990   44.1050 C   0  0  0  0  0  0  0  0  0  0  0  0
   56.7790   30.2060   43.7580 C   0  0  0  0  0  0  0  0  0  0  0  0
   55.5590   29.8120   44.3050 C   0  0  0  0  0  0  0  0  0  0  0  0
   55.7090   28.6640   44.9310 O   0  0  0  0  0  0  0  0  0  0  0  0
   55.2085   23.1489   45.5640 H   0  0  0  0  0  0  0  0  0  0  0  0
   55.5120   21.4140   43.6070 H   0  0  0  0  0  0  0  0  0  0  0  0
   57.2090   24.0430   41.9880 H   0  0  0  0  0  0  0  0  0  0  0  0
   57.3465   26.9739   46.4731 H   0  0  0  0  0  0  0  0  0  0  0  0
   58.6544   27.0787   45.1950 H   0  0  0  0  0  0  0  0  0  0  0  0
   58.7507   29.1594   43.8477 H   0  0  0  0  0  0  0  0  0  0  0  0
   56.9863   31.1165   43.1766 H   0  0  0  0  0  0  0  0  0  0  0  0
   54.6165   30.3737   44.2257 H   0  0  0  0  0  0  0  0  0  0  0  0
  1  2  2  0
  2  3  1  0
  3  4  2  0
  4  5  1  0
  4  6  1  0
  6  7  1  0
  7  8  2  0
  7  9  1  0
  9 10  1  0
 10 11  1  0
 11 12  2  0
 12 13  1  0
 13 14  2  0
 14 15  1  0
  9  2  1  0
 15 11  1  0
  3 16  1  0
  5 17  1  0
  6 18  1  0
 10 19  1  0
 10 20  1  0
 12 21  1  0
 13 22  1  0
 14 23  1  0
M  END
>  <smiles>  (8) 
O=c1cc(O)[nH]c(=O)n1Cc1ccco1

>  <score_type>  (8) 
oracle

>  <origin>  (8) 
adg

>  <m_score__min__energy>  (8) 
-5.9699999999999998

>  <m_primary>  (8) 
energy

$$$$
8:0
     RDKit          3D

 44 46  0  0  0  0  0  0  0  0999 V2000
   57.1710   23.4060   43.7700 C   0  0  0  0  0  0  0  0  0  0  0  0
   55.9570   24.2270   43.8000 N   0  0  0  0  0  0  0  0  0  0  0  0
   55.5610   24.5210   45.1550 C   0  0  0  0  0  0  0  0  0  0  0  0
   56.1670   25.7840   45.6200 C   0  0  0  0  0  0  0  0  0  0  0  0
   55.9820   26.3030   46.7430 O   0  0  0  0  0  0  0  0  0  0  0  0
   57.0390   26.4820   44.7290 N   0  0  0  0  0  0  0  0  0  0  0  0
   57.6200   27.6920   45.1800 C   0  0  0  0  0  0  0  0  0  0  0  0
   58.4880   27.6780   46.2570 C   0  0  0  0  0  0  0  0  0  0  0  0
   59.0360   28.8670   46.6790 C   0  0  0  0  0  0  0  0  0  0  0  0
   58.7780   30.0840   46.1000 C   0  0  0  0  0  0  0  0  0  0  0  0
   59.3850   31.3260   46.5950 C   0  0  0  0  0  0  0  0  0  0  0  0
   58.8250   32.5810   46.3110 C   0  0  0  0  0  0  0  0  0  0  0  0
   59.9200   33.7150   47.1140 S   0  0  0  0  0  0  0  0  0  0  0  0
   61.0340   32.3240   47.7550 C   0  0  0  0  0  0  0  0  0  0  0  0
   62.1990   32.6950   48.5480 C   0  0  0  0  0  0  0  0  0  0  0  0
   63.4860   32.3720   48.1660 C   0  0  0  0  0  0  0  0  0  0  0  0
   64.5340   32.7580   48.9790 C   0  0  0  0  0  0  0  0  0  0  0  0
   64.2710   33.4590   50.1630 C   0  0  0  0  0  0  0  0  0  0  0  0
   65.3640   33.8780   51.0480 C   0  0  0  0  0  0  0  0  0  0  0  0
   66.6520   33.2650   50.8650 N   0  0  0  0  0  0  0  0  0  0  0  0
   65.1850   34.7550   51.9540 O   0  0  0  0  0  0  0  0  0  0  0  0
   62.9850   33.7790   50.5410 C   0  0  0  0  0  0  0  0  0  0  0  0
   61.9560   33.3860   49.7130 C   0  0  0  0  0  0  0  0  0  0  0  0
   60.4660   31.3930   47.3160 N   0  0  0  0  0  0  0  0  0  0  0  0
   57.9010   30.0760   45.0180 C   0  0  0  0  0  0  0  0  0  0  0  0
   57.3410   28.9000   44.5770 C   0  0  0  0  0  0  0  0  0  0  0  0
   56.4970   28.9630   43.5200 F   0  0  0  0  0  0  0  0  0  0  0  0
   57.4922   23.1887   44.7994 H   0  0  0  0  0  0  0  0  0  0  0  0
   56.9627   22.4626   43.2441 H   0  0  0  0  0  0  0  0  0  0  0  0
   57.9690   23.9506   43.2441 H   0  0  0  0  0  0  0  0  0  0  0  0
   56.2010   25.1160   43.3050 H   0  0  0  0  0  0  0  0  0  0  0  0
   54.4655   24.6100   45.1985 H   0  0  0  0  0  0  0  0  0  0  0  0
   55.9070   23.7051   45.8065 H   0  0  0  0  0  0  0  0  0  0  0  0
   57.2500   26.1150   43.7610 H   0  0  0  0  0  0  0  0  0  0  0  0
   58.7351   26.7346   46.7659 H   0  0  0  0  0  0  0  0  0  0  0  0
   59.7254   28.8405   47.5357 H   0  0  0  0  0  0  0  0  0  0  0  0
   57.9200   32.8062   45.7276 H   0  0  0  0  0  0  0  0  0  0  0  0
   63.6729   31.8189   47.2337 H   0  0  0  0  0  0  0  0  0  0  0  0
   65.5697   32.5162   48.6981 H   0  0  0  0  0  0  0  0  0  0  0  0
   66.7180   32.2240   50.7030 H   0  0  0  0  0  0  0  0  0  0  0  0
   67.5400   33.8220   50.8850 H   0  0  0  0  0  0  0  0  0  0  0  0
   62.7866   34.3296   51.4724 H   0  0  0  0  0  0  0  0  0  0  0  0
   60.9194   33.6296   49.9889 H   0  0  0  0  0  0  0  0  0  0  0  0
   57.6537   31.0203   44.5109 H   0  0  0  0  0  0  0  0  0  0  0  0
  1  2  1  0
  2  3  1  0
  3  4  1  0
  4  5  2  0
  4  6  1  0
  6  7  1  0
  7  8  2  0
  8  9  1  0
  9 10  2  0
 10 11  1  0
 11 12  2  0
 12 13  1  0
 13 14  1  0
 14 15  1  0
 15 16  2  0
 16 17  1  0
 17 18  2  0
 18 19  1  0
 19 20  1  0
 19 21  2  0
 18 22  1  0
 22 23  2  0
 14 24  2  0
 10 25  1  0
 25 26  2  0
 26 27  1  0
 26  7  1  0
 24 11  1  0
 23 15  1  0
  1 28  1  0
  1 29  1  0
  1 30  1  0
  2 31  1  0
  3 32  1  0
  3 33  1  0
  6 34  1  0
  8 35  1  0
  9 36  1  0
 12 37  1  0
 16 38  1  0
 17 39  1  0
 20 40  1  0
 20 41  1  0
 22 42  1  0
 23 43  1  0
 25 44  1  0
M  END
>  <smiles>  (9) 
CNCC(=O)Nc1ccc(-c2csc(-c3ccc(C(N)=O)cc3)n2)cc1F

>  <score_type>  (9) 
oracle

>  <origin>  (9) 
adg

>  <m_score__min__energy>  (9) 
-7.1900000000000004

>  <m_primary>  (9) 
energy

$$$$
9:0
     RDKit          3D

 50 53  0  0  0  0  0  0  0  0999 V2000
   55.8930   26.3710   46.3680 O   0  0  0  0  0  0  0  0  0  0  0  0
   57.1590   26.3750   46.2410 C   0  0  0  0  0  0  0  0  0  0  0  0
   57.8840   25.1580   46.2710 N   0  0  0  0  0  0  0  0  0  0  0  0
   57.2960   23.8540   46.4380 C   0  0  0  0  0  0  0  0  0  0  0  0
   57.1110   23.1410   45.1590 C   0  0  0  0  0  0  0  0  0  0  0  0
   56.1760   23.6480   44.2630 C   0  0  0  0  0  0  0  0  0  0  0  0
   55.9320   23.0560   43.0360 C   0  0  0  0  0  0  0  0  0  0  0  0
   56.6310   21.9150   42.6610 C   0  0  0  0  0  0  0  0  0  0  0  0
   57.5570   21.4160   43.5540 C   0  0  0  0  0  0  0  0  0  0  0  0
   57.7880   22.0200   44.7760 C   0  0  0  0  0  0  0  0  0  0  0  0
   57.7740   27.6840   46.0700 C   0  0  0  0  0  0  0  0  0  0  0  0
   59.0600   27.8750   46.5420 C   0  0  0  0  0  0  0  0  0  0  0  0
   59.7180   29.0950   46.4170 C   0  0  0  0  0  0  0  0  0  0  0  0
   59.0610   30.1350   45.8040 C   0  0  0  0  0  0  0  0  0  0  0  0
   57.7790   29.9950   45.3170 C   0  0  0  0  0  0  0  0  0  0  0  0
   56.9030   31.2810   44.5260 S   0  0  0  0  0  0  0  0  0  0  0  0
   55.5110   30.8300   44.1060 O   0  0  0  0  0  0  0  0  0  0  0  0
   57.5760   31.7080   43.2560 O   0  0  0  0  0  0  0  0  0  0  0  0
   56.7350   32.6790   45.5420 N   0  0  0  0  0  0  0  0  0  0  0  0
   57.8350   33.5430   45.8300 C   0  0  0  0  0  0  0  0  0  0  0  0
   58.2890   34.4920   44.9220 C   0  0  0  0  0  0  0  0  0  0  0  0
   59.3570   35.3230   45.1820 C   0  0  0  0  0  0  0  0  0  0  0  0
   60.0240   35.2370   46.3840 C   0  0  0  0  0  0  0  0  0  0  0  0
   59.6020   34.3090   47.3110 C   0  0  0  0  0  0  0  0  0  0  0  0
   60.2970   34.2550   48.5070 C   0  0  0  0  0  0  0  0  0  0  0  0
   59.9130   33.3400   49.4750 C   0  0  0  0  0  0  0  0  0  0  0  0
   58.8490   32.5190   49.2040 C   0  0  0  0  0  0  0  0  0  0  0  0
   58.1690   32.5850   48.0100 C   0  0  0  0  0  0  0  0  0  0  0  0
   58.5300   33.4850   47.0300 C   0  0  0  0  0  0  0  0  0  0  0  0
   57.1530   28.7510   45.4640 C   0  0  0  0  0  0  0  0  0  0  0  0
   58.9340   25.2450   46.1590 H   0  0  0  0  0  0  0  0  0  0  0  0
   57.9528   23.2526   47.0837 H   0  0  0  0  0  0  0  0  0  0  0  0
   56.3009   23.9946   46.8853 H   0  0  0  0  0  0  0  0  0  0  0  0
   55.6110   24.5505   44.5390 H   0  0  0  0  0  0  0  0  0  0  0  0
   55.1834   23.4894   42.3564 H   0  0  0  0  0  0  0  0  0  0  0  0
   56.4531   21.4288   41.6905 H   0  0  0  0  0  0  0  0  0  0  0  0
   58.1265   20.5137   43.2866 H   0  0  0  0  0  0  0  0  0  0  0  0
   58.5359   21.5862   45.4561 H   0  0  0  0  0  0  0  0  0  0  0  0
   59.5785   27.0371   47.0311 H   0  0  0  0  0  0  0  0  0  0  0  0
   60.7410   29.2240   46.8002 H   0  0  0  0  0  0  0  0  0  0  0  0
   59.5712   31.1039   45.6993 H   0  0  0  0  0  0  0  0  0  0  0  0
   55.8170   32.8840   45.9500 H   0  0  0  0  0  0  0  0  0  0  0  0
   57.7738   34.5837   43.9544 H   0  0  0  0  0  0  0  0  0  0  0  0
   59.6776   36.0568   44.4278 H   0  0  0  0  0  0  0  0  0  0  0  0
   60.8774   35.8966   46.5998 H   0  0  0  0  0  0  0  0  0  0  0  0
   61.1455   34.9314   48.6874 H   0  0  0  0  0  0  0  0  0  0  0  0
   60.4473   33.2745   50.4343 H   0  0  0  0  0  0  0  0  0  0  0  0
   58.5305   31.7879   49.9616 H   0  0  0  0  0  0  0  0  0  0  0  0
   57.3211   31.9068   47.8338 H   0  0  0  0  0  0  0  0  0  0  0  0
   56.1296   28.6229   45.0817 H   0  0  0  0  0  0  0  0  0  0  0  0
  1  2  2  0
  2  3  1  0
  3  4  1  0
  4  5  1  0
  5  6  2  0
  6  7  1  0
  7  8  2  0
  8  9  1  0
  9 10  2  0
  2 11  1  0
 11 12  2  0
 12 13  1  0
 13 14  2  0
 14 15  1  0
 15 16  1  0
 16 17  2  0
 16 18  2  0
 16 19  1  0
 19 20  1  0
 20 21  2  0
 21 22  1  0
 22 23  2  0
 23 24  1  0
 24 25  2  0
 25 26  1  0
 26 27  2  0
 27 28  1  0
 28 29  2  0
 15 30  2  0
 10  5  1  0
 30 11  1  0
 29 20  1  0
 29 24  1  0
  3 31  1  0
  4 32  1  0
  4 33  1  0
  6 34  1  0
  7 35  1  0
  8 36  1  0
  9 37  1  0
 10 38  1  0
 12 39  1  0
 13 40  1  0
 14 41  1  0
 19 42  1  0
 21 43  1  0
 22 44  1  0
 23 45  1  0
 25 46  1  0
 26 47  1  0
 27 48  1  0
 28 49  1  0
 30 50  1  0
M  END
>  <smiles>  (10) 
O=C(NCc1ccccc1)c1cccc(S(=O)(=O)Nc2cccc3ccccc23)c1

>  <score_type>  (10) 
oracle

>  <origin>  (10) 
adg

>  <m_score__min__energy>  (10) 
-10.08

>  <m_primary>  (10) 
energy

$$$$
10:0
     RDKit          3D

 31 33  0  0  0  0  0  0  0  0999 V2000
   59.8170   35.7380   46.0290 S   0  0  0  0  0  0  0  0  0  0  0  0
   59.4760   34.3920   47.1540 C   0  0  0  0  0  0  0  0  0  0  0  0
   60.3300   34.1870   48.2190 C   0  0  0  0  0  0  0  0  0  0  0  0
   60.1150   33.1570   49.1320 C   0  0  0  0  0  0  0  0  0  0  0  0
   58.9980   32.3410   48.9240 C   0  0  0  0  0  0  0  0  0  0  0  0
   58.1400   32.5350   47.8660 C   0  0  0  0  0  0  0  0  0  0  0  0
   58.3680   33.5540   46.9770 C   0  0  0  0  0  0  0  0  0  0  0  0
   57.5290   33.8450   45.7880 C   0  0  0  0  0  0  0  0  0  0  0  0
   58.0950   32.7130   44.4730 S   0  0  0  0  0  0  0  0  0  0  0  0
   57.3550   31.1010   44.6830 C   0  0  0  0  0  0  0  0  0  0  0  0
   56.0780   30.8290   44.3200 N   0  0  0  0  0  0  0  0  0  0  0  0
   55.5600   29.5870   44.5060 C   0  0  0  0  0  0  0  0  0  0  0  0
   56.3320   28.6310   45.0570 N   0  0  0  0  0  0  0  0  0  0  0  0
   57.6080   28.8390   45.4380 C   0  0  0  0  0  0  0  0  0  0  0  0
   58.3950   27.8590   46.0100 C   0  0  0  0  0  0  0  0  0  0  0  0
   59.6980   28.1540   46.3840 C   0  0  0  0  0  0  0  0  0  0  0  0
   60.2670   29.3950   46.2150 C   0  0  0  0  0  0  0  0  0  0  0  0
   59.4640   30.3820   45.6370 C   0  0  0  0  0  0  0  0  0  0  0  0
   58.1610   30.1100   45.2560 C   0  0  0  0  0  0  0  0  0  0  0  0
   59.6400   36.9660   46.7400 H   0  0  0  0  0  0  0  0  0  0  0  0
   61.1978   34.8503   48.3494 H   0  0  0  0  0  0  0  0  0  0  0  0
   60.7950   32.9923   49.9808 H   0  0  0  0  0  0  0  0  0  0  0  0
   58.7995   31.5192   49.6277 H   0  0  0  0  0  0  0  0  0  0  0  0
   57.2716   31.8730   47.7333 H   0  0  0  0  0  0  0  0  0  0  0  0
   56.4684   33.6635   46.0165 H   0  0  0  0  0  0  0  0  0  0  0  0
   57.6240   34.8964   45.4790 H   0  0  0  0  0  0  0  0  0  0  0  0
   54.5239   29.3652   44.2105 H   0  0  0  0  0  0  0  0  0  0  0  0
   57.9904   26.8485   46.1685 H   0  0  0  0  0  0  0  0  0  0  0  0
   60.3055   27.3570   46.8376 H   0  0  0  0  0  0  0  0  0  0  0  0
   61.3037   29.6005   46.5200 H   0  0  0  0  0  0  0  0  0  0  0  0
   59.8737   31.3911   45.4823 H   0  0  0  0  0  0  0  0  0  0  0  0
  1  2  1  0
  2  3  2  0
  3  4  1  0
  4  5  2  0
  5  6  1  0
  6  7  2  0
  7  8  1  0
  8  9  1  0
  9 10  1  0
 10 11  2  0
 11 12  1  0
 12 13  2  0
 13 14  1  0
 14 15  2  0
 15 16  1  0
 16 17  2  0
 17 18  1  0
 18 19  2  0
  7  2  1  0
 19 10  1  0
 19 14  1  0
  1 20  1  0
  3 21  1  0
  4 22  1  0
  5 23  1  0
  6 24  1  0
  8 25  1  0
  8 26  1  0
 12 27  1  0
 15 28  1  0
 16 29  1  0
 17 30  1  0
 18 31  1  0
M  END
>  <smiles>  (11) 
Sc1ccccc1CSc1ncnc2ccccc12

>  <score_type>  (11) 
oracle

>  <origin>  (11) 
adg

>  <m_score__min__energy>  (11) 
-7.25

>  <m_primary>  (11) 
energy

$$$$
11:0
     RDKit          3D

 52 54  0  0  1  0  0  0  0  0999 V2000
   63.2070   33.8520   46.4390 C   0  0  0  0  0  0  0  0  0  0  0  0
   63.1380   32.9030   47.5220 N   0  0  0  0  0  0  0  0  0  0  0  0
   63.9770   33.2380   48.6310 C   0  0  0  0  0  0  0  0  0  0  0  0
   61.8050   32.5560   47.9050 C   0  0  0  0  0  0  0  0  0  0  0  0
   61.2060   33.5710   48.8870 C   0  0  0  0  0  0  0  0  0  0  0  0
   59.8170   33.6830   48.5590 N   0  0  0  0  0  0  0  0  0  0  0  0
   59.4840   33.8500   47.3250 C   0  0  0  0  0  0  0  0  0  0  0  0
   59.7670   35.0460   46.7240 C   0  0  0  0  0  0  0  0  0  0  0  0
   59.3970   35.1940   45.4030 C   0  0  0  0  0  0  0  0  0  0  0  0
   58.7740   34.1950   44.7150 N   0  0  0  0  0  0  0  0  0  0  0  0
   58.4820   33.0080   45.2770 C   0  0  0  0  0  0  0  0  0  0  0  0
   57.8160   31.9420   44.5410 C   0  0  0  0  0  0  0  0  0  0  0  0
   57.6180   31.9810   43.1700 C   0  0  0  0  0  0  0  0  0  0  0  0
   56.9850   30.9660   42.4770 C   0  0  0  0  0  0  0  0  0  0  0  0
   56.5140   29.8510   43.1270 C   0  0  0  0  0  0  0  0  0  0  0  0
   56.6980   29.7890   44.4900 C   0  0  0  0  0  0  0  0  0  0  0  0
   56.2020   28.6240   45.1500 N   0  0  0  0  0  0  0  0  0  0  0  0
   57.2370   27.3920   45.7750 S   0  0  0  0  0  0  0  0  0  0  0  0
   57.8200   26.5390   44.6600 O   0  0  0  0  0  0  0  0  0  0  0  0
   56.4480   26.5210   46.6840 O   0  0  0  0  0  0  0  0  0  0  0  0
   58.5910   28.1440   46.6000 C   0  0  0  0  0  0  0  0  0  0  0  0
   59.6470   28.6990   45.9140 C   0  0  0  0  0  0  0  0  0  0  0  0
   60.6730   29.2700   46.6580 C   0  0  0  0  0  0  0  0  0  0  0  0
   60.6040   29.2660   48.0470 C   0  0  0  0  0  0  0  0  0  0  0  0
   61.6050   29.8250   48.7690 F   0  0  0  0  0  0  0  0  0  0  0  0
   59.5530   28.7150   48.7400 C   0  0  0  0  0  0  0  0  0  0  0  0
   58.5360   28.1480   47.9880 C   0  0  0  0  0  0  0  0  0  0  0  0
   57.3330   30.8080   45.1820 C   0  0  0  0  0  0  0  0  0  0  0  0
   58.8430   32.8390   46.5950 C   0  0  0  0  0  0  0  0  0  0  0  0
   63.2810   34.8704   46.8481 H   0  0  0  0  0  0  0  0  0  0  0  0
   64.0921   33.6397   45.8213 H   0  0  0  0  0  0  0  0  0  0  0  0
   62.3005   33.7700   45.8213 H   0  0  0  0  0  0  0  0  0  0  0  0
   63.4453   33.0257   49.5703 H   0  0  0  0  0  0  0  0  0  0  0  0
   64.8985   32.6388   48.5878 H   0  0  0  0  0  0  0  0  0  0  0  0
   64.2324   34.3071   48.5878 H   0  0  0  0  0  0  0  0  0  0  0  0
   61.1749   32.5192   47.0041 H   0  0  0  0  0  0  0  0  0  0  0  0
   61.8397   31.5778   48.4068 H   0  0  0  0  0  0  0  0  0  0  0  0
   61.3248   33.2150   49.9210 H   0  0  0  0  0  0  0  0  0  0  0  0
   61.7124   34.5445   48.8110 H   0  0  0  0  0  0  0  0  0  0  0  0
   60.2693   35.8569   47.2718 H   0  0  0  0  0  0  0  0  0  0  0  0
   59.6104   36.1438   44.8909 H   0  0  0  0  0  0  0  0  0  0  0  0
   58.5430   34.4140   43.7330 H   0  0  0  0  0  0  0  0  0  0  0  0
   57.9795   32.8560   42.6099 H   0  0  0  0  0  0  0  0  0  0  0  0
   56.8564   31.0525   41.3880 H   0  0  0  0  0  0  0  0  0  0  0  0
   56.0101   29.0403   42.5803 H   0  0  0  0  0  0  0  0  0  0  0  0
   55.1630   28.5550   45.2350 H   0  0  0  0  0  0  0  0  0  0  0  0
   59.6781   28.6911   44.8145 H   0  0  0  0  0  0  0  0  0  0  0  0
   61.5367   29.7236   46.1498 H   0  0  0  0  0  0  0  0  0  0  0  0
   59.5203   28.7235   49.8395 H   0  0  0  0  0  0  0  0  0  0  0  0
   57.6730   27.6947   48.4977 H   0  0  0  0  0  0  0  0  0  0  0  0
   57.4583   30.7163   46.2710 H   0  0  0  0  0  0  0  0  0  0  0  0
   58.6218   31.8820   47.0901 H   0  0  0  0  0  0  0  0  0  0  0  0
  1  2  1  0
  2  3  1  0
  2  4  1  0
  4  5  1  0
  5  6  1  0
  6  7  2  0
  7  8  1  0
  8  9  2  0
  9 10  1  0
 10 11  1  0
 11 12  1  0
 12 13  2  0
 13 14  1  0
 14 15  2  0
 15 16  1  0
 16 17  1  0
 17 18  1  0
 18 19  2  0
 18 20  2  0
 18 21  1  0
 21 22  2  0
 22 23  1  0
 23 24  2  0
 24 25  1  0
 24 26  1  0
 26 27  2  0
 16 28  2  0
 11 29  2  0
 29  7  1  0
 28 12  1  0
 27 21  1  0
  1 30  1  0
  1 31  1  0
  1 32  1  0
  3 33  1  0
  3 34  1  0
  3 35  1  0
  4 36  1  0
  4 37  1  0
  5 38  1  0
  5 39  1  0
  8 40  1  0
  9 41  1  0
 10 42  1  0
 13 43  1  0
 14 44  1  0
 15 45  1  0
 17 46  1  0
 22 47  1  0
 23 48  1  0
 26 49  1  0
 27 50  1  0
 28 51  1  0
 29 52  1  0
M  END
>  <smiles>  (12) 
CN(C)CCN=c1cc[nH]c(-c2cccc(NS(=O)(=O)c3ccc(F)cc3)c2)c1

>  <score_type>  (12) 
oracle

>  <origin>  (12) 
adg

>  <m_score__min__energy>  (12) 
-9.1400000000000006

>  <m_primary>  (12) 
energy

$$$$
12:0
     RDKit          3D

 49 50  0  0  1  0  0  0  0  0999 V2000
   65.3240   32.7290   49.7780 C   0  0  0  0  0  0  0  0  0  0  0  0
   64.2000   33.6680   50.1670 C   0  0  0  0  0  0  0  0  0  0  0  0
   63.1570   33.7220   49.1300 C   0  0  0  0  0  0  0  0  0  0  0  0
   61.8800   34.1430   49.5180 C   0  0  0  0  0  0  0  0  0  0  0  0
   60.8930   34.1990   48.5530 C   0  0  0  0  0  0  0  0  0  0  0  0
   61.1470   33.8500   47.2390 C   0  0  0  0  0  0  0  0  0  0  0  0
   60.0870   33.9210   46.2630 N   0  0  0  0  0  0  0  0  0  0  0  0
   59.0380   32.9940   46.2560 C   0  0  0  0  0  0  0  0  0  0  0  0
   59.1030   32.1030   47.1910 O   0  0  0  0  0  0  0  0  0  0  0  0
   57.9550   32.9460   45.3640 N   0  0  0  0  0  0  0  0  0  0  0  0
   57.1760   34.2050   45.2390 C   0  0  0  0  0  0  0  0  0  0  0  0
   57.5040   31.8810   44.5730 C   0  0  0  0  0  0  0  0  0  0  0  0
   57.3940   31.8610   43.2070 C   0  0  0  0  0  0  0  0  0  0  0  0
   56.8890   30.7440   42.5490 C   0  0  0  0  0  0  0  0  0  0  0  0
   56.4910   29.6480   43.2160 N   0  0  0  0  0  0  0  0  0  0  0  0
   56.6030   29.6750   44.5540 C   0  0  0  0  0  0  0  0  0  0  0  0
   56.2420   28.6650   45.2340 N   0  0  0  0  0  0  0  0  0  0  0  0
   57.1230   27.6140   45.6890 C   0  0  0  0  0  0  0  0  0  0  0  0
   57.9540   27.2670   44.4430 C   0  0  0  0  0  0  0  0  0  0  0  0
   56.3990   26.3450   46.0510 C   0  0  0  0  0  0  0  0  0  0  0  0
   58.1200   28.0630   46.7170 C   0  0  0  0  0  0  0  0  0  0  0  0
   57.0880   30.7420   45.2090 N   0  0  0  0  0  0  0  0  0  0  0  0
   62.4140   33.4320   46.8550 C   0  0  0  0  0  0  0  0  0  0  0  0
   63.4020   33.3770   47.8180 C   0  0  0  0  0  0  0  0  0  0  0  0
   65.8003   32.3311   50.6862 H   0  0  0  0  0  0  0  0  0  0  0  0
   64.9180   31.8979   49.1827 H   0  0  0  0  0  0  0  0  0  0  0  0
   66.0696   33.2764   49.1827 H   0  0  0  0  0  0  0  0  0  0  0  0
   63.7506   33.3168   51.1076 H   0  0  0  0  0  0  0  0  0  0  0  0
   64.6202   34.6776   50.2859 H   0  0  0  0  0  0  0  0  0  0  0  0
   61.6683   34.4212   50.5610 H   0  0  0  0  0  0  0  0  0  0  0  0
   59.8824   34.5286   48.8360 H   0  0  0  0  0  0  0  0  0  0  0  0
   60.1410   34.6980   45.5970 H   0  0  0  0  0  0  0  0  0  0  0  0
   56.9378   34.5899   46.2416 H   0  0  0  0  0  0  0  0  0  0  0  0
   57.7705   34.9512   44.6914 H   0  0  0  0  0  0  0  0  0  0  0  0
   56.2429   34.0060   44.6914 H   0  0  0  0  0  0  0  0  0  0  0  0
   57.7089   32.7389   42.6237 H   0  0  0  0  0  0  0  0  0  0  0  0
   56.8135   30.7588   41.4517 H   0  0  0  0  0  0  0  0  0  0  0  0
   56.1140   28.8080   42.7700 H   0  0  0  0  0  0  0  0  0  0  0  0
   58.9278   26.8604   44.7533 H   0  0  0  0  0  0  0  0  0  0  0  0
   57.4183   26.5174   43.8421 H   0  0  0  0  0  0  0  0  0  0  0  0
   58.1105   28.1750   43.8421 H   0  0  0  0  0  0  0  0  0  0  0  0
   56.3462   26.2525   47.1458 H   0  0  0  0  0  0  0  0  0  0  0  0
   55.3807   26.3726   45.6359 H   0  0  0  0  0  0  0  0  0  0  0  0
   56.9409   25.4825   45.6359 H   0  0  0  0  0  0  0  0  0  0  0  0
   57.7159   27.8810   47.7237 H   0  0  0  0  0  0  0  0  0  0  0  0
   59.0562   27.4996   46.5904 H   0  0  0  0  0  0  0  0  0  0  0  0
   58.3186   29.1375   46.5904 H   0  0  0  0  0  0  0  0  0  0  0  0
   62.6250   33.1523   45.8123 H   0  0  0  0  0  0  0  0  0  0  0  0
   64.4119   33.0490   47.5305 H   0  0  0  0  0  0  0  0  0  0  0  0
  1  2  1  0
  2  3  1  0
  3  4  2  0
  4  5  1  0
  5  6  2  0
  6  7  1  0
  7  8  1  0
  8  9  2  0
  8 10  1  0
 10 11  1  0
 10 12  1  0
 12 13  1  0
 13 14  2  0
 14 15  1  0
 15 16  1  0
 16 17  2  0
 17 18  1  0
 18 19  1  0
 18 20  1  0
 18 21  1  0
 16 22  1  0
  6 23  1  0
 23 24  2  0
 24  3  1  0
 22 12  2  0
  1 25  1  0
  1 26  1  0
  1 27  1  0
  2 28  1  0
  2 29  1  0
  4 30  1  0
  5 31  1  0
  7 32  1  0
 11 33  1  0
 11 34  1  0
 11 35  1  0
 13 36  1  0
 14 37  1  0
 15 38  1  0
 19 39  1  0
 19 40  1  0
 19 41  1  0
 20 42  1  0
 20 43  1  0
 20 44  1  0
 21 45  1  0
 21 46  1  0
 21 47  1  0
 23 48  1  0
 24 49  1  0
M  END
>  <smiles>  (13) 
CCc1ccc(NC(=O)N(C)c2cc[nH]c(=NC(C)(C)C)n2)cc1

>  <score_type>  (13) 
oracle

>  <origin>  (13) 
adg

>  <m_score__min__energy>  (13) 
-8.0700000000000003

>  <m_primary>  (13) 
energy

$$$$
13:0
     RDKit          3D

 30 31  0  0  1  0  0  0  0  0999 V2000
   55.7720   26.3420   46.3650 N   0  0  0  0  0  0  0  0  0  0  0  0
   56.4940   27.0860   45.6310 C   0  0  0  0  0  0  0  0  0  0  0  0
   57.7980   26.6600   45.3860 C   0  0  0  0  0  0  0  0  0  0  0  0
   58.6600   27.4210   44.5870 C   0  0  0  0  0  0  0  0  0  0  0  0
   58.2050   28.5880   44.0470 N   0  0  0  0  0  0  0  0  0  0  0  0
   56.9490   28.9650   44.3030 C   0  0  0  0  0  0  0  0  0  0  0  0
   56.5400   30.0770   43.7790 N   0  0  0  0  0  0  0  0  0  0  0  0
   56.6530   31.3560   44.4520 C   0  0  0  0  0  0  0  0  0  0  0  0
   57.8320   32.1770   43.9890 C   0  0  0  0  0  0  0  0  0  0  0  0
   58.3250   33.0420   45.1110 C   0  0  0  0  0  0  0  0  0  0  0  0
   58.1740   32.6010   46.4210 C   0  0  0  0  0  0  0  0  0  0  0  0
   58.6370   33.4140   47.4580 C   0  0  0  0  0  0  0  0  0  0  0  0
   59.2390   34.6410   47.1920 C   0  0  0  0  0  0  0  0  0  0  0  0
   59.3530   35.0070   45.8840 C   0  0  0  0  0  0  0  0  0  0  0  0
   58.9170   34.2510   44.8170 C   0  0  0  0  0  0  0  0  0  0  0  0
   56.1020   28.2430   45.0730 N   0  0  0  0  0  0  0  0  0  0  0  0
   55.3170   26.6860   47.2440 H   0  0  0  0  0  0  0  0  0  0  0  0
   58.1538   25.7162   45.8248 H   0  0  0  0  0  0  0  0  0  0  0  0
   59.6893   27.0826   44.3975 H   0  0  0  0  0  0  0  0  0  0  0  0
   58.8810   29.1180   43.4610 H   0  0  0  0  0  0  0  0  0  0  0  0
   55.7337   31.9304   44.2651 H   0  0  0  0  0  0  0  0  0  0  0  0
   56.8037   31.1471   45.5214 H   0  0  0  0  0  0  0  0  0  0  0  0
   58.6399   31.5044   43.6651 H   0  0  0  0  0  0  0  0  0  0  0  0
   57.5206   32.8160   43.1495 H   0  0  0  0  0  0  0  0  0  0  0  0
   57.6998   31.6321   46.6361 H   0  0  0  0  0  0  0  0  0  0  0  0
   58.5244   33.0801   48.5000 H   0  0  0  0  0  0  0  0  0  0  0  0
   59.6068   35.2872   48.0026 H   0  0  0  0  0  0  0  0  0  0  0  0
   59.8269   35.9750   45.6641 H   0  0  0  0  0  0  0  0  0  0  0  0
   59.0361   34.5967   43.7795 H   0  0  0  0  0  0  0  0  0  0  0  0
   55.1460   28.5690   45.2430 H   0  0  0  0  0  0  0  0  0  0  0  0
  1  2  2  3
  2  3  1  0
  3  4  2  0
  4  5  1  0
  5  6  1  0
  6  7  2  0
  7  8  1  0
  8  9  1  0
  9 10  1  0
 10 11  2  0
 11 12  1  0
 12 13  2  0
 13 14  1  0
 14 15  2  0
  6 16  1  0
 16  2  1  0
 15 10  1  0
  1 17  1  0
  3 18  1  0
  4 19  1  0
  5 20  1  0
  8 21  1  0
  8 22  1  0
  9 23  1  0
  9 24  1  0
 11 25  1  0
 12 26  1  0
 13 27  1  0
 14 28  1  0
 15 29  1  0
 16 30  1  0
M  END
>  <smiles>  (14) 
N=c1cc[nH]c(=NCCc2ccccc2)[nH]1

>  <score_type>  (14) 
oracle

>  <origin>  (14) 
adg

>  <m_score__min__energy>  (14) 
-7.0099999999999998

>  <m_primary>  (14) 
energy

$$$$
14:0
     RDKit          3D

 38 40  0  0  1  0  0  0  0  0999 V2000
   59.2790   35.7370   44.8830 N   0  0  0  0  0  0  0  0  0  0  0  0
   59.0600   34.6400   45.1680 C   0  0  0  0  0  0  0  0  0  0  0  0
   58.7660   33.2670   45.5440 C   0  0  0  0  0  0  0  0  0  0  0  0
   58.0410   32.4870   44.6690 C   0  0  0  0  0  0  0  0  0  0  0  0
   57.7520   31.1850   45.0280 C   0  0  0  0  0  0  0  0  0  0  0  0
   56.8270   30.1200   43.9590 S   0  0  0  0  0  0  0  0  0  0  0  0
   55.5080   29.7740   44.5870 O   0  0  0  0  0  0  0  0  0  0  0  0
   56.6690   30.8830   42.6710 O   0  0  0  0  0  0  0  0  0  0  0  0
   57.8160   28.7160   43.7810 N   0  0  0  0  0  0  0  0  0  0  0  0
   57.9610   27.8270   44.6760 C   0  0  0  0  0  0  0  0  0  0  0  0
   59.2450   27.4270   45.0100 C   0  0  0  0  0  0  0  0  0  0  0  0
   59.4280   26.4520   45.9900 C   0  0  0  0  0  0  0  0  0  0  0  0
   58.2810   25.9240   46.5910 C   0  0  0  0  0  0  0  0  0  0  0  0
   57.0180   26.3700   46.2110 C   0  0  0  0  0  0  0  0  0  0  0  0
   56.8610   27.3160   45.2580 N   0  0  0  0  0  0  0  0  0  0  0  0
   58.1780   30.6610   46.2450 C   0  0  0  0  0  0  0  0  0  0  0  0
   58.9030   31.4610   47.1070 C   0  0  0  0  0  0  0  0  0  0  0  0
   59.2130   32.7820   46.7750 C   0  0  0  0  0  0  0  0  0  0  0  0
   59.9320   33.5250   47.6650 O   0  0  0  0  0  0  0  0  0  0  0  0
   61.2990   33.5060   47.8530 C   0  0  0  0  0  0  0  0  0  0  0  0
   62.2220   33.3940   46.8350 C   0  0  0  0  0  0  0  0  0  0  0  0
   63.5820   33.3820   47.1020 C   0  0  0  0  0  0  0  0  0  0  0  0
   64.0590   33.4820   48.4000 C   0  0  0  0  0  0  0  0  0  0  0  0
   63.1130   33.5940   49.4130 C   0  0  0  0  0  0  0  0  0  0  0  0
   61.7570   33.6060   49.1520 C   0  0  0  0  0  0  0  0  0  0  0  0
   57.6998   32.8928   43.7052 H   0  0  0  0  0  0  0  0  0  0  0  0
   60.1137   27.8754   44.5057 H   0  0  0  0  0  0  0  0  0  0  0  0
   60.4336   26.1121   46.2786 H   0  0  0  0  0  0  0  0  0  0  0  0
   58.3772   25.1518   47.3685 H   0  0  0  0  0  0  0  0  0  0  0  0
   56.1282   25.9432   46.6969 H   0  0  0  0  0  0  0  0  0  0  0  0
   55.9080   27.6390   44.9850 H   0  0  0  0  0  0  0  0  0  0  0  0
   57.9402   29.6221   46.5173 H   0  0  0  0  0  0  0  0  0  0  0  0
   59.2415   31.0512   48.0701 H   0  0  0  0  0  0  0  0  0  0  0  0
   61.8737   33.3129   45.7948 H   0  0  0  0  0  0  0  0  0  0  0  0
   64.2954   33.2916   46.2696 H   0  0  0  0  0  0  0  0  0  0  0  0
   65.1370   33.4731   48.6186 H   0  0  0  0  0  0  0  0  0  0  0  0
   63.4556   33.6756   50.4551 H   0  0  0  0  0  0  0  0  0  0  0  0
   61.0397   33.6955   49.9811 H   0  0  0  0  0  0  0  0  0  0  0  0
  1  2  3  0
  2  3  1  0
  3  4  2  0
  4  5  1  0
  5  6  1  0
  6  7  2  0
  6  8  2  0
  6  9  1  0
  9 10  2  0
 10 11  1  0
 11 12  2  0
 12 13  1  0
 13 14  2  0
 14 15  1  0
  5 16  2  0
 16 17  1  0
 17 18  2  0
 18 19  1  0
 19 20  1  0
 20 21  2  0
 21 22  1  0
 22 23  2  0
 23 24  1  0
 24 25  2  0
 18  3  1  0
 25 20  1  0
 15 10  1  0
  4 26  1  0
 11 27  1  0
 12 28  1  0
 13 29  1  0
 14 30  1  0
 15 31  1  0
 16 32  1  0
 17 33  1  0
 21 34  1  0
 22 35  1  0
 23 36  1  0
 24 37  1  0
 25 38  1  0
M  END
>  <smiles>  (15) 
N#Cc1cc(S(=O)(=O)N=c2cccc[nH]2)ccc1Oc1ccccc1

>  <score_type>  (15) 
oracle

>  <origin>  (15) 
adg

>  <m_score__min__energy>  (15) 
-8.3800000000000008

>  <m_primary>  (15) 
energy

$$$$
15:0
     RDKit          3D

 46 48  0  0  1  0  0  0  0  0999 V2000
   60.7550   27.5590   45.8150 C   0  0  0  0  0  0  0  0  0  0  0  0
   60.1450   28.7930   46.3820 C   0  0  0  0  0  0  0  0  0  0  0  0
   60.2950   29.0250   47.7330 C   0  0  0  0  0  0  0  0  0  0  0  0
   59.7350   30.1760   48.2990 C   0  0  0  0  0  0  0  0  0  0  0  0
   59.0510   31.0270   47.4490 C   0  0  0  0  0  0  0  0  0  0  0  0
   58.9030   30.7920   46.1020 C   0  0  0  0  0  0  0  0  0  0  0  0
   58.2160   31.6330   45.2090 N   0  0  0  0  0  0  0  0  0  0  0  0
   57.5790   32.8810   45.6580 C   0  0  0  0  0  0  0  0  0  0  0  0
   58.3560   34.0000   44.9870 C   0  0  0  0  0  0  0  0  0  0  0  0
   58.8970   33.6070   43.7760 O   0  0  0  0  0  0  0  0  0  0  0  0
   58.0950   32.7020   43.0910 C   0  0  0  0  0  0  0  0  0  0  0  0
   58.0850   31.3390   43.7950 C   0  0  2  0  0  0  0  0  0  0  0  0
   56.6840   30.7870   43.5820 C   0  0  0  0  0  0  0  0  0  0  0  0
   56.5590   29.4310   44.2230 C   0  0  0  0  0  0  0  0  0  0  0  0
   55.4880   29.1090   44.7970 O   0  0  0  0  0  0  0  0  0  0  0  0
   57.6920   28.5800   44.1370 N   0  0  0  0  0  0  0  0  0  0  0  0
   57.5510   27.2850   44.7590 C   0  0  0  0  0  0  0  0  0  0  0  0
   57.8420   26.1210   44.0920 C   0  0  0  0  0  0  0  0  0  0  0  0
   57.7180   24.8680   44.6590 C   0  0  0  0  0  0  0  0  0  0  0  0
   57.2740   24.7680   45.9690 C   0  0  0  0  0  0  0  0  0  0  0  0
   57.1400   23.4770   46.5670 N   0  0  0  0  0  0  0  0  0  0  0  0
   57.3980   23.3100   47.7600 O   0  0  0  0  0  0  0  0  0  0  0  0
   56.7230   22.3720   45.8530 O   0  0  0  0  0  0  0  0  0  0  0  0
   56.9830   25.9220   46.6310 C   0  0  0  0  0  0  0  0  0  0  0  0
   57.1090   27.1720   46.0670 C   0  0  0  0  0  0  0  0  0  0  0  0
   59.4670   29.6650   45.6170 N   0  0  0  0  0  0  0  0  0  0  0  0
   61.0803   26.9010   46.6343 H   0  0  0  0  0  0  0  0  0  0  0  0
   60.0126   27.0341   45.1959 H   0  0  0  0  0  0  0  0  0  0  0  0
   61.6229   27.8301   45.1959 H   0  0  0  0  0  0  0  0  0  0  0  0
   60.8498   28.3118   48.3603 H   0  0  0  0  0  0  0  0  0  0  0  0
   59.8343   30.3945   49.3725 H   0  0  0  0  0  0  0  0  0  0  0  0
   58.6027   31.9380   47.8722 H   0  0  0  0  0  0  0  0  0  0  0  0
   56.5239   32.9067   45.3482 H   0  0  0  0  0  0  0  0  0  0  0  0
   57.5946   32.9747   46.7539 H   0  0  0  0  0  0  0  0  0  0  0  0
   57.6772   34.8480   44.8133 H   0  0  0  0  0  0  0  0  0  0  0  0
   59.1857   34.2813   45.6522 H   0  0  0  0  0  0  0  0  0  0  0  0
   57.0676   33.0924   43.0470 H   0  0  0  0  0  0  0  0  0  0  0  0
   58.4994   32.5711   42.0765 H   0  0  0  0  0  0  0  0  0  0  0  0
   58.8651   30.6499   43.4391 H   0  0  0  0  0  0  0  0  0  0  0  0
   55.9508   31.4717   44.0333 H   0  0  0  0  0  0  0  0  0  0  0  0
   56.4942   30.6936   42.5025 H   0  0  0  0  0  0  0  0  0  0  0  0
   58.5750   28.8620   43.6580 H   0  0  0  0  0  0  0  0  0  0  0  0
   58.1922   26.1900   43.0515 H   0  0  0  0  0  0  0  0  0  0  0  0
   57.9670   23.9653   44.0819 H   0  0  0  0  0  0  0  0  0  0  0  0
   56.6289   25.8520   47.6701 H   0  0  0  0  0  0  0  0  0  0  0  0
   56.8612   28.0717   46.6493 H   0  0  0  0  0  0  0  0  0  0  0  0
  1  2  1  0
  2  3  2  0
  3  4  1  0
  4  5  2  0
  5  6  1  0
  6  7  1  0
  7  8  1  0
  8  9  1  0
  9 10  1  0
 10 11  1  0
 11 12  1  0
 12 13  1  0
 13 14  1  0
 14 15  2  0
 14 16  1  0
 16 17  1  0
 17 18  2  0
 18 19  1  0
 19 20  2  0
 20 21  1  0
 21 22  2  0
 21 23  1  0
 20 24  1  0
 24 25  2  0
  6 26  2  0
 26  2  1  0
 12  7  1  0
 25 17  1  0
  1 27  1  0
  1 28  1  0
  1 29  1  0
  3 30  1  0
  4 31  1  0
  5 32  1  0
  8 33  1  0
  8 34  1  0
  9 35  1  0
  9 36  1  0
 11 37  1  0
 11 38  1  0
 12 39  1  6
 13 40  1  0
 13 41  1  0
 16 42  1  0
 18 43  1  0
 19 44  1  0
 24 45  1  0
 25 46  1  0
M  CHG  2  21   1  23  -1
M  END
>  <smiles>  (16) 
Cc1cccc(N2CCOCC2CC(=O)Nc2ccc([N+](=O)[O-])cc2)n1

>  <score_type>  (16) 
oracle

>  <origin>  (16) 
adg

>  <m_score__min__energy>  (16) 
-7.5999999999999996

>  <m_primary>  (16) 
energy

$$$$
16:0
     RDKit          3D

 53 56  0  0  1  0  0  0  0  0999 V2000
   54.0690   24.7060   45.5690 C   0  0  0  0  0  0  0  0  0  0  0  0
   54.8200   25.8160   45.9740 O   0  0  0  0  0  0  0  0  0  0  0  0
   56.2040   25.8660   46.0390 C   0  0  0  0  0  0  0  0  0  0  0  0
   56.8550   24.7340   46.4670 C   0  0  0  0  0  0  0  0  0  0  0  0
   58.2250   24.6960   46.5600 C   0  0  0  0  0  0  0  0  0  0  0  0
   58.9360   25.8240   46.2150 C   0  0  0  0  0  0  0  0  0  0  0  0
   58.2570   26.9640   45.7810 C   0  0  0  0  0  0  0  0  0  0  0  0
   56.8980   27.0340   45.6770 C   0  0  0  0  0  0  0  0  0  0  0  0
   56.1610   28.1600   45.2460 N   0  0  0  0  0  0  0  0  0  0  0  0
   56.6350   29.2530   44.5120 C   0  0  0  0  0  0  0  0  0  0  0  0
   55.5730   30.4670   44.1170 S   0  0  0  0  0  0  0  0  0  0  0  0
   57.9600   29.4460   44.0520 N   0  0  0  0  0  0  0  0  0  0  0  0
   58.9830   29.3920   44.7740 N   0  0  0  0  0  0  0  0  0  0  0  0
   59.3050   30.2930   45.8270 C   0  0  0  0  0  0  0  0  0  0  0  0
   60.0760   30.0810   46.9560 C   0  0  0  0  0  0  0  0  0  0  0  0
   60.6820   28.8900   47.2470 O   0  0  0  0  0  0  0  0  0  0  0  0
   60.1200   31.2060   47.6870 N   0  0  0  0  0  0  0  0  0  0  0  0
   60.7890   31.4990   48.9310 C   0  0  0  0  0  0  0  0  0  0  0  0
   62.1930   31.6870   48.6670 N   0  0  0  0  0  0  0  0  0  0  0  0
   62.7220   32.6720   49.5630 C   0  0  0  0  0  0  0  0  0  0  0  0
   64.1440   33.0640   49.1980 C   0  0  0  0  0  0  0  0  0  0  0  0
   64.2630   33.4460   47.8800 O   0  0  0  0  0  0  0  0  0  0  0  0
   63.1120   33.3360   47.1440 C   0  0  0  0  0  0  0  0  0  0  0  0
   62.4480   31.9820   47.2870 C   0  0  0  0  0  0  0  0  0  0  0  0
   59.3820   32.1360   47.0280 C   0  0  0  0  0  0  0  0  0  0  0  0
   59.0730   33.4570   47.3030 C   0  0  0  0  0  0  0  0  0  0  0  0
   58.2870   34.2290   46.4750 C   0  0  0  0  0  0  0  0  0  0  0  0
   57.7790   33.6800   45.3270 C   0  0  0  0  0  0  0  0  0  0  0  0
   57.0010   34.3750   44.4690 F   0  0  0  0  0  0  0  0  0  0  0  0
   58.0840   32.3620   45.0520 C   0  0  0  0  0  0  0  0  0  0  0  0
   58.8620   31.5980   45.8700 C   0  0  0  0  0  0  0  0  0  0  0  0
   53.7042   24.1668   46.4557 H   0  0  0  0  0  0  0  0  0  0  0  0
   53.2125   25.0428   44.9666 H   0  0  0  0  0  0  0  0  0  0  0  0
   54.7003   24.0362   44.9666 H   0  0  0  0  0  0  0  0  0  0  0  0
   56.2694   23.8436   46.7396 H   0  0  0  0  0  0  0  0  0  0  0  0
   58.7416   23.7869   46.9017 H   0  0  0  0  0  0  0  0  0  0  0  0
   60.0340   25.8266   46.2811 H   0  0  0  0  0  0  0  0  0  0  0  0
   58.8476   27.8512   45.5089 H   0  0  0  0  0  0  0  0  0  0  0  0
   55.1410   28.1700   45.5110 H   0  0  0  0  0  0  0  0  0  0  0  0
   60.7130   28.0870   46.6290 H   0  0  0  0  0  0  0  0  0  0  0  0
   60.3689   32.4158   49.3703 H   0  0  0  0  0  0  0  0  0  0  0  0
   60.6483   30.6675   49.6373 H   0  0  0  0  0  0  0  0  0  0  0  0
   62.0848   33.5678   49.5233 H   0  0  0  0  0  0  0  0  0  0  0  0
   62.7362   32.2403   50.5746 H   0  0  0  0  0  0  0  0  0  0  0  0
   64.4541   33.9031   49.8381 H   0  0  0  0  0  0  0  0  0  0  0  0
   64.7837   32.1822   49.3500 H   0  0  0  0  0  0  0  0  0  0  0  0
   62.4060   34.1103   47.4788 H   0  0  0  0  0  0  0  0  0  0  0  0
   63.3840   33.4601   46.0854 H   0  0  0  0  0  0  0  0  0  0  0  0
   61.4956   31.9867   46.7366 H   0  0  0  0  0  0  0  0  0  0  0  0
   63.1203   31.2130   46.8788 H   0  0  0  0  0  0  0  0  0  0  0  0
   59.4722   33.9103   48.2224 H   0  0  0  0  0  0  0  0  0  0  0  0
   58.0696   35.2759   46.7333 H   0  0  0  0  0  0  0  0  0  0  0  0
   57.6821   31.9090   44.1337 H   0  0  0  0  0  0  0  0  0  0  0  0
  1  2  1  0
  2  3  1  0
  3  4  2  0
  4  5  1  0
  5  6  2  0
  6  7  1  0
  7  8  2  0
  8  9  1  0
  9 10  1  0
 10 11  2  0
 10 12  1  0
 12 13  2  0
 13 14  1  0
 14 15  2  0
 15 16  1  0
 15 17  1  0
 17 18  1  0
 18 19  1  0
 19 20  1  0
 20 21  1  0
 21 22  1  0
 22 23  1  0
 23 24  1  0
 17 25  1  0
 25 26  2  0
 26 27  1  0
 27 28  2  0
 28 29  1  0
 28 30  1  0
 30 31  2  0
  8  3  1  0
 31 14  1  0
 24 19  1  0
 31 25  1  0
  1 32  1  0
  1 33  1  0
  1 34  1  0
  4 35  1  0
  5 36  1  0
  6 37  1  0
  7 38  1  0
  9 39  1  0
 16 40  1  0
 18 41  1  0
 18 42  1  0
 20 43  1  0
 20 44  1  0
 21 45  1  0
 21 46  1  0
 23 47  1  0
 23 48  1  0
 24 49  1  0
 24 50  1  0
 26 51  1  0
 27 52  1  0
 30 53  1  0
M  END
>  <smiles>  (17) 
COc1ccccc1NC(=S)N=Nc1c(O)n(CN2CCOCC2)c2ccc(F)cc12

>  <score_type>  (17) 
oracle

>  <origin>  (17) 
adg

>  <m_score__min__energy>  (17) 
-8.7799999999999994

>  <m_primary>  (17) 
energy

$$$$
17:0
     RDKit          3D

 34 35  0  0  0  0  0  0  0  0999 V2000
   60.5330   28.0240   49.4370 C   0  0  0  0  0  0  0  0  0  0  0  0
   60.0600   27.1640   48.4430 O   0  0  0  0  0  0  0  0  0  0  0  0
   59.4900   27.6870   47.2870 C   0  0  0  0  0  0  0  0  0  0  0  0
   60.3410   28.4380   46.4800 C   0  0  0  0  0  0  0  0  0  0  0  0
   59.8270   28.9790   45.3220 C   0  0  0  0  0  0  0  0  0  0  0  0
   58.4970   28.7920   44.9500 C   0  0  0  0  0  0  0  0  0  0  0  0
   57.9740   29.3620   43.7400 N   0  0  0  0  0  0  0  0  0  0  0  0
   56.9100   30.7450   43.8000 S   0  0  0  0  0  0  0  0  0  0  0  0
   55.6300   30.3990   44.4960 O   0  0  0  0  0  0  0  0  0  0  0  0
   56.6490   31.1600   42.3910 O   0  0  0  0  0  0  0  0  0  0  0  0
   57.6940   32.0380   44.6900 C   0  0  0  0  0  0  0  0  0  0  0  0
   58.1420   33.1780   44.0600 C   0  0  0  0  0  0  0  0  0  0  0  0
   58.7460   34.1350   44.8540 C   0  0  0  0  0  0  0  0  0  0  0  0
   58.9030   33.9790   46.2130 C   0  0  0  0  0  0  0  0  0  0  0  0
   59.5530   35.0030   47.0790 C   0  0  0  0  0  0  0  0  0  0  0  0
   58.4480   32.8220   46.8470 C   0  0  0  0  0  0  0  0  0  0  0  0
   57.8440   31.8690   46.0450 C   0  0  0  0  0  0  0  0  0  0  0  0
   57.6670   28.0350   45.7800 C   0  0  0  0  0  0  0  0  0  0  0  0
   58.1640   27.4800   46.9520 C   0  0  0  0  0  0  0  0  0  0  0  0
   60.3015   27.6031   50.4266 H   0  0  0  0  0  0  0  0  0  0  0  0
   61.6219   28.1402   49.3336 H   0  0  0  0  0  0  0  0  0  0  0  0
   60.0480   29.0059   49.3336 H   0  0  0  0  0  0  0  0  0  0  0  0
   61.3934   28.5947   46.7592 H   0  0  0  0  0  0  0  0  0  0  0  0
   60.4849   29.5754   44.6727 H   0  0  0  0  0  0  0  0  0  0  0  0
   58.2570   28.9170   42.8560 H   0  0  0  0  0  0  0  0  0  0  0  0
   58.0246   33.3203   42.9756 H   0  0  0  0  0  0  0  0  0  0  0  0
   59.1156   35.0571   44.3817 H   0  0  0  0  0  0  0  0  0  0  0  0
   59.3900   34.7461   48.1361 H   0  0  0  0  0  0  0  0  0  0  0  0
   60.6327   35.0280   46.8700 H   0  0  0  0  0  0  0  0  0  0  0  0
   59.1161   35.9907   46.8700 H   0  0  0  0  0  0  0  0  0  0  0  0
   58.5637   32.6746   47.9309 H   0  0  0  0  0  0  0  0  0  0  0  0
   57.4711   30.9440   46.5090 H   0  0  0  0  0  0  0  0  0  0  0  0
   56.6139   27.8776   45.5038 H   0  0  0  0  0  0  0  0  0  0  0  0
   57.5112   26.8831   47.6059 H   0  0  0  0  0  0  0  0  0  0  0  0
  1  2  1  0
  2  3  1  0
  3  4  2  0
  4  5  1  0
  5  6  2  0
  6  7  1  0
  7  8  1  0
  8  9  2  0
  8 10  2  0
  8 11  1  0
 11 12  2  0
 12 13  1  0
 13 14  2  0
 14 15  1  0
 14 16  1  0
 16 17  2  0
  6 18  1  0
 18 19  2  0
 19  3  1  0
 17 11  1  0
  1 20  1  0
  1 21  1  0
  1 22  1  0
  4 23  1  0
  5 24  1  0
  7 25  1  0
 12 26  1  0
 13 27  1  0
 15 28  1  0
 15 29  1  0
 15 30  1  0
 16 31  1  0
 17 32  1  0
 18 33  1  0
 19 34  1  0
M  END
>  <smiles>  (18) 
COc1ccc(NS(=O)(=O)c2ccc(C)cc2)cc1

>  <score_type>  (18) 
oracle

>  <origin>  (18) 
adg

>  <m_score__min__energy>  (18) 
-7.3099999999999996

>  <m_primary>  (18) 
energy

$$$$
18:0
     RDKit          3D

 53 56  0  0  0  0  0  0  0  0999 V2000
   55.6860   30.7730   44.4960 O   0  0  0  0  0  0  0  0  0  0  0  0
   56.8040   30.1670   43.6610 S   0  0  0  0  0  0  0  0  0  0  0  0
   56.2680   30.0910   42.2680 O   0  0  0  0  0  0  0  0  0  0  0  0
   58.2230   31.1370   43.7520 N   0  0  0  0  0  0  0  0  0  0  0  0
   58.3980   32.2480   44.5760 C   0  0  0  0  0  0  0  0  0  0  0  0
   58.7930   33.4980   44.1500 C   0  0  0  0  0  0  0  0  0  0  0  0
   58.9640   34.5750   44.9940 C   0  0  0  0  0  0  0  0  0  0  0  0
   58.7390   34.4360   46.3470 C   0  0  0  0  0  0  0  0  0  0  0  0
   58.3420   33.1990   46.8110 C   0  0  0  0  0  0  0  0  0  0  0  0
   58.1740   32.1320   45.9560 C   0  0  0  0  0  0  0  0  0  0  0  0
   57.7700   30.8670   46.4250 O   0  0  0  0  0  0  0  0  0  0  0  0
   58.7420   29.9450   46.7920 C   0  0  0  0  0  0  0  0  0  0  0  0
   59.7240   29.6320   45.8660 C   0  0  0  0  0  0  0  0  0  0  0  0
   60.6990   28.7070   46.2350 C   0  0  0  0  0  0  0  0  0  0  0  0
   60.6900   28.1160   47.4920 C   0  0  0  0  0  0  0  0  0  0  0  0
   59.7050   28.4360   48.4110 C   0  0  0  0  0  0  0  0  0  0  0  0
   58.7370   29.3530   48.0450 C   0  0  0  0  0  0  0  0  0  0  0  0
   57.0880   28.5830   44.3300 C   0  0  0  0  0  0  0  0  0  0  0  0
   57.8450   27.7020   43.5840 C   0  0  0  0  0  0  0  0  0  0  0  0
   58.1000   26.4270   44.0610 C   0  0  0  0  0  0  0  0  0  0  0  0
   57.6320   25.9670   45.2700 C   0  0  0  0  0  0  0  0  0  0  0  0
   57.8810   24.6690   45.7810 N   0  0  0  0  0  0  0  0  0  0  0  0
   56.8350   23.9870   46.5260 C   0  0  0  0  0  0  0  0  0  0  0  0
   57.1970   22.5010   46.5240 C   0  0  0  0  0  0  0  0  0  0  0  0
   57.5550   22.0820   45.1300 C   0  0  0  0  0  0  0  0  0  0  0  0
   58.8130   22.7940   44.6640 C   0  0  0  0  0  0  0  0  0  0  0  0
   59.1260   23.9540   45.6150 C   0  0  0  0  0  0  0  0  0  0  0  0
   56.8710   26.8640   46.0120 C   0  0  0  0  0  0  0  0  0  0  0  0
   56.6090   28.1540   45.5390 C   0  0  0  0  0  0  0  0  0  0  0  0
   59.0260   30.8470   43.1170 H   0  0  0  0  0  0  0  0  0  0  0  0
   58.9825   33.6446   43.0764 H   0  0  0  0  0  0  0  0  0  0  0  0
   59.2805   35.5467   44.5870 H   0  0  0  0  0  0  0  0  0  0  0  0
   58.8718   35.2843   47.0346 H   0  0  0  0  0  0  0  0  0  0  0  0
   58.1557   33.0617   47.8864 H   0  0  0  0  0  0  0  0  0  0  0  0
   59.7338   30.0992   44.8702 H   0  0  0  0  0  0  0  0  0  0  0  0
   61.4896   28.4403   45.5182 H   0  0  0  0  0  0  0  0  0  0  0  0
   61.4708   27.3887   47.7592 H   0  0  0  0  0  0  0  0  0  0  0  0
   59.6929   27.9719   49.4082 H   0  0  0  0  0  0  0  0  0  0  0  0
   57.9469   29.6180   48.7630 H   0  0  0  0  0  0  0  0  0  0  0  0
   58.2466   28.0134   42.6084 H   0  0  0  0  0  0  0  0  0  0  0  0
   58.7065   25.7489   43.4427 H   0  0  0  0  0  0  0  0  0  0  0  0
   56.7943   24.3666   47.5576 H   0  0  0  0  0  0  0  0  0  0  0  0
   55.8481   24.1561   46.0705 H   0  0  0  0  0  0  0  0  0  0  0  0
   58.0549   22.3306   47.1910 H   0  0  0  0  0  0  0  0  0  0  0  0
   56.3384   21.9113   46.8778 H   0  0  0  0  0  0  0  0  0  0  0  0
   57.7268   20.9956   45.1120 H   0  0  0  0  0  0  0  0  0  0  0  0
   56.7270   22.3477   44.4563 H   0  0  0  0  0  0  0  0  0  0  0  0
   59.6548   22.0859   44.6600 H   0  0  0  0  0  0  0  0  0  0  0  0
   58.6576   23.1851   43.6477 H   0  0  0  0  0  0  0  0  0  0  0  0
   59.4808   23.5713   46.5833 H   0  0  0  0  0  0  0  0  0  0  0  0
   59.9182   24.6045   45.2158 H   0  0  0  0  0  0  0  0  0  0  0  0
   56.4683   26.5537   46.9875 H   0  0  0  0  0  0  0  0  0  0  0  0
   56.0048   28.8391   46.1518 H   0  0  0  0  0  0  0  0  0  0  0  0
  1  2  2  0
  2  3  2  0
  2  4  1  0
  4  5  1  0
  5  6  2  0
  6  7  1  0
  7  8  2  0
  8  9  1  0
  9 10  2  0
 10 11  1  0
 11 12  1  0
 12 13  2  0
 13 14  1  0
 14 15  2  0
 15 16  1  0
 16 17  2  0
  2 18  1  0
 18 19  2  0
 19 20  1  0
 20 21  2  0
 21 22  1  0
 22 23  1  0
 23 24  1  0
 24 25  1  0
 25 26  1  0
 26 27  1  0
 21 28  1  0
 28 29  2  0
 10  5  1  0
 17 12  1  0
 29 18  1  0
 27 22  1  0
  4 30  1  0
  6 31  1  0
  7 32  1  0
  8 33  1  0
  9 34  1  0
 13 35  1  0
 14 36  1  0
 15 37  1  0
 16 38  1  0
 17 39  1  0
 19 40  1  0
 20 41  1  0
 23 42  1  0
 23 43  1  0
 24 44  1  0
 24 45  1  0
 25 46  1  0
 25 47  1  0
 26 48  1  0
 26 49  1  0
 27 50  1  0
 27 51  1  0
 28 52  1  0
 29 53  1  0
M  END
>  <smiles>  (19) 
O=S(=O)(Nc1ccccc1Oc1ccccc1)c1ccc(N2CCCCC2)cc1

>  <score_type>  (19) 
oracle

>  <origin>  (19) 
adg

>  <m_score__min__energy>  (19) 
-9.9000000000000004

>  <m_primary>  (19) 
energy

$$$$
19:0
     RDKit          3D

 39 42  0  0  0  0  0  0  0  0999 V2000
   57.0800   33.6570   44.5870 N   0  0  0  0  0  0  0  0  0  0  0  0
   58.1430   33.5590   45.2770 C   0  0  0  0  0  0  0  0  0  0  0  0
   58.7550   34.7350   45.5990 N   0  0  0  0  0  0  0  0  0  0  0  0
   59.8760   34.8030   46.3190 C   0  0  0  0  0  0  0  0  0  0  0  0
   60.4330   33.6210   46.7490 C   0  0  0  0  0  0  0  0  0  0  0  0
   61.6540   33.5550   47.5410 C   0  0  0  0  0  0  0  0  0  0  0  0
   62.8260   33.1830   46.9160 C   0  0  0  0  0  0  0  0  0  0  0  0
   64.0380   33.0950   47.6010 C   0  0  0  0  0  0  0  0  0  0  0  0
   64.0560   33.3920   48.9490 C   0  0  0  0  0  0  0  0  0  0  0  0
   62.8930   33.7650   49.5900 C   0  0  0  0  0  0  0  0  0  0  0  0
   61.7070   33.8440   48.8870 C   0  0  0  0  0  0  0  0  0  0  0  0
   59.8310   32.4680   46.4320 N   0  0  0  0  0  0  0  0  0  0  0  0
   58.6980   32.3750   45.7080 C   0  0  0  0  0  0  0  0  0  0  0  0
   58.1420   31.0650   45.4310 C   0  0  0  0  0  0  0  0  0  0  0  0
   57.0200   30.8370   44.9280 O   0  0  0  0  0  0  0  0  0  0  0  0
   58.9310   29.9250   45.7530 N   0  0  0  0  0  0  0  0  0  0  0  0
   58.3590   28.6370   45.4700 C   0  0  0  0  0  0  0  0  0  0  0  0
   58.8270   28.0080   44.3370 C   0  0  0  0  0  0  0  0  0  0  0  0
   58.3470   26.7670   43.9690 C   0  0  0  0  0  0  0  0  0  0  0  0
   57.3780   26.1820   44.7840 C   0  0  0  0  0  0  0  0  0  0  0  0
   56.7510   24.9990   44.6590 N   0  0  0  0  0  0  0  0  0  0  0  0
   55.9090   24.8910   45.6930 C   0  0  0  0  0  0  0  0  0  0  0  0
   55.9970   25.9860   46.4620 N   0  0  0  0  0  0  0  0  0  0  0  0
   56.9210   26.8310   45.9190 C   0  0  0  0  0  0  0  0  0  0  0  0
   57.3980   28.0720   46.2900 C   0  0  0  0  0  0  0  0  0  0  0  0
   56.4600   32.9000   44.3050 H   0  0  0  0  0  0  0  0  0  0  0  0
   58.3440   35.6560   45.2780 H   0  0  0  0  0  0  0  0  0  0  0  0
   60.3391   35.7711   46.5606 H   0  0  0  0  0  0  0  0  0  0  0  0
   62.8042   32.9479   45.8416 H   0  0  0  0  0  0  0  0  0  0  0  0
   64.9587   32.7957   47.0788 H   0  0  0  0  0  0  0  0  0  0  0  0
   64.9987   33.3311   49.5125 H   0  0  0  0  0  0  0  0  0  0  0  0
   62.9103   34.0002   50.6644 H   0  0  0  0  0  0  0  0  0  0  0  0
   60.7875   34.1432   49.4115 H   0  0  0  0  0  0  0  0  0  0  0  0
   59.8870   30.0080   46.1790 H   0  0  0  0  0  0  0  0  0  0  0  0
   59.5919   28.5003   43.7185 H   0  0  0  0  0  0  0  0  0  0  0  0
   58.7153   26.2581   43.0660 H   0  0  0  0  0  0  0  0  0  0  0  0
   56.9270   24.3210   43.8760 H   0  0  0  0  0  0  0  0  0  0  0  0
   55.2456   24.0345   45.8834 H   0  0  0  0  0  0  0  0  0  0  0  0
   57.0329   28.5857   47.1915 H   0  0  0  0  0  0  0  0  0  0  0  0
  1  2  2  3
  2  3  1  0
  3  4  1  0
  4  5  2  0
  5  6  1  0
  6  7  2  0
  7  8  1  0
  8  9  2  0
  9 10  1  0
 10 11  2  0
  5 12  1  0
 12 13  2  0
 13 14  1  0
 14 15  2  0
 14 16  1  0
 16 17  1  0
 17 18  2  0
 18 19  1  0
 19 20  2  0
 20 21  1  0
 21 22  1  0
 22 23  2  0
 23 24  1  0
 24 25  2  0
 13  2  1  0
 25 17  1  0
 11  6  1  0
 24 20  1  0
  1 26  1  0
  3 27  1  0
  4 28  1  0
  7 29  1  0
  8 30  1  0
  9 31  1  0
 10 32  1  0
 11 33  1  0
 16 34  1  0
 18 35  1  0
 19 36  1  0
 21 37  1  0
 22 38  1  0
 25 39  1  0
M  END
>  <smiles>  (20) 
N=c1[nH]cc(-c2ccccc2)nc1C(=O)Nc1ccc2[nH]cnc2c1

>  <score_type>  (20) 
oracle

>  <origin>  (20) 
adg

>  <m_score__min__energy>  (20) 
-7.4500000000000002

>  <m_primary>  (20) 
energy

$$$$
20:0
     RDKit          3D

 42 43  0  0  0  0  0  0  0  0999 V2000
   58.4000   27.8460   47.5210 C   0  0  0  0  0  0  0  0  0  0  0  0
   58.5110   26.5850   46.6440 C   0  0  0  0  0  0  0  0  0  0  0  0
   59.9130   26.5640   46.0190 C   0  0  0  0  0  0  0  0  0  0  0  0
   57.4980   26.5560   45.6200 N   0  0  0  0  0  0  0  0  0  0  0  0
   57.7820   27.3700   44.4290 C   0  0  0  0  0  0  0  0  0  0  0  0
   57.4950   28.8050   44.6180 C   0  0  0  0  0  0  0  0  0  0  0  0
   56.2720   29.4440   44.3820 C   0  0  0  0  0  0  0  0  0  0  0  0
   56.4100   30.7380   44.6560 O   0  0  0  0  0  0  0  0  0  0  0  0
   57.6350   30.9740   45.0510 C   0  0  0  0  0  0  0  0  0  0  0  0
   58.1750   32.2740   45.4410 C   0  0  0  0  0  0  0  0  0  0  0  0
   58.8000   32.4660   46.6320 C   0  0  0  0  0  0  0  0  0  0  0  0
   59.3010   33.7260   46.9610 C   0  0  0  0  0  0  0  0  0  0  0  0
   59.1760   34.7980   46.0990 C   0  0  0  0  0  0  0  0  0  0  0  0
   59.6450   36.0320   46.3750 F   0  0  0  0  0  0  0  0  0  0  0  0
   58.5400   34.5950   44.8910 C   0  0  0  0  0  0  0  0  0  0  0  0
   58.0560   33.3520   44.5860 C   0  0  0  0  0  0  0  0  0  0  0  0
   58.2980   29.8130   45.0300 N   0  0  0  0  0  0  0  0  0  0  0  0
   56.2970   25.8320   45.6160 C   0  0  0  0  0  0  0  0  0  0  0  0
   55.2620   26.5060   46.0340 O   0  0  0  0  0  0  0  0  0  0  0  0
   56.0230   24.5180   45.2430 N   0  0  0  0  0  0  0  0  0  0  0  0
   56.9230   23.5100   44.7470 C   0  0  0  0  0  0  0  0  0  0  0  0
   54.6080   24.0700   45.3660 C   0  0  0  0  0  0  0  0  0  0  0  0
   58.4254   27.5579   48.5823 H   0  0  0  0  0  0  0  0  0  0  0  0
   59.2424   28.5192   47.3036 H   0  0  0  0  0  0  0  0  0  0  0  0
   57.4530   28.3617   47.3036 H   0  0  0  0  0  0  0  0  0  0  0  0
   58.3540   25.6925   47.2675 H   0  0  0  0  0  0  0  0  0  0  0  0
   60.6700   26.5527   46.8170 H   0  0  0  0  0  0  0  0  0  0  0  0
   60.0233   25.6641   45.3961 H   0  0  0  0  0  0  0  0  0  0  0  0
   60.0502   27.4602   45.3961 H   0  0  0  0  0  0  0  0  0  0  0  0
   58.8465   27.2577   44.1756 H   0  0  0  0  0  0  0  0  0  0  0  0
   57.1231   27.0102   43.6250 H   0  0  0  0  0  0  0  0  0  0  0  0
   55.3509   28.9572   44.0290 H   0  0  0  0  0  0  0  0  0  0  0  0
   58.9110   31.6285   47.3365 H   0  0  0  0  0  0  0  0  0  0  0  0
   59.8064   33.8687   47.9276 H   0  0  0  0  0  0  0  0  0  0  0  0
   58.4232   35.4256   44.1793 H   0  0  0  0  0  0  0  0  0  0  0  0
   57.5512   33.2053   43.6197 H   0  0  0  0  0  0  0  0  0  0  0  0
   57.3903   22.9867   45.5942 H   0  0  0  0  0  0  0  0  0  0  0  0
   56.3633   22.7883   44.1339 H   0  0  0  0  0  0  0  0  0  0  0  0
   57.7032   23.9847   44.1339 H   0  0  0  0  0  0  0  0  0  0  0  0
   54.3413   23.9856   46.4298 H   0  0  0  0  0  0  0  0  0  0  0  0
   53.9477   24.8030   44.8795 H   0  0  0  0  0  0  0  0  0  0  0  0
   54.4899   23.0905   44.8795 H   0  0  0  0  0  0  0  0  0  0  0  0
  1  2  1  0
  2  3  1  0
  2  4  1  0
  4  5  1  0
  5  6  1  0
  6  7  2  0
  7  8  1  0
  8  9  1  0
  9 10  1  0
 10 11  2  0
 11 12  1  0
 12 13  2  0
 13 14  1  0
 13 15  1  0
 15 16  2  0
  9 17  2  0
  4 18  1  0
 18 19  2  0
 18 20  1  0
 20 21  1  0
 20 22  1  0
 17  6  1  0
 16 10  1  0
  1 23  1  0
  1 24  1  0
  1 25  1  0
  2 26  1  0
  3 27  1  0
  3 28  1  0
  3 29  1  0
  5 30  1  0
  5 31  1  0
  7 32  1  0
 11 33  1  0
 12 34  1  0
 15 35  1  0
 16 36  1  0
 21 37  1  0
 21 38  1  0
 21 39  1  0
 22 40  1  0
 22 41  1  0
 22 42  1  0
M  END
>  <smiles>  (21) 
CC(C)N(Cc1coc(-c2ccc(F)cc2)n1)C(=O)N(C)C

>  <score_type>  (21) 
oracle

>  <origin>  (21) 
adg

>  <m_score__min__energy>  (21) 
-7.25

>  <m_primary>  (21) 
energy

$$$$
21:0
     RDKit          3D

 41 44  0  0  1  0  0  0  0  0999 V2000
   57.3640   32.3310   42.0360 O   0  0  0  0  0  0  0  0  0  0  0  0
   57.7760   31.9100   43.1360 C   0  0  0  0  0  0  0  0  0  0  0  0
   58.1250   30.6410   43.4180 N   0  0  0  0  0  0  0  0  0  0  0  0
   58.5200   30.5570   44.6990 N   0  0  0  0  0  0  0  0  0  0  0  0
   58.9430   29.3230   45.2550 C   0  0  0  0  0  0  0  0  0  0  0  0
   60.2890   28.9760   45.3750 C   0  0  0  0  0  0  0  0  0  0  0  0
   60.6450   27.7660   45.9440 C   0  0  0  0  0  0  0  0  0  0  0  0
   59.6410   26.9250   46.3800 C   0  0  0  0  0  0  0  0  0  0  0  0
   58.2970   27.2370   46.2780 C   0  0  0  0  0  0  0  0  0  0  0  0
   57.9470   28.4450   45.7110 C   0  0  0  0  0  0  0  0  0  0  0  0
   56.6280   28.7720   45.5990 F   0  0  0  0  0  0  0  0  0  0  0  0
   58.4200   31.7770   45.2310 C   0  0  0  0  0  0  0  0  0  0  0  0
   57.9570   32.6570   44.2870 C   0  0  0  0  0  0  0  0  0  0  0  0
   57.7150   34.0980   44.4980 C   0  0  0  0  0  0  0  0  0  0  0  0
   58.5260   34.5350   45.6950 C   0  0  0  0  0  0  0  0  0  0  0  0
   58.1670   33.6390   46.8650 C   0  0  0  0  0  0  0  0  0  0  0  0
   58.7180   32.2840   46.5930 C   0  0  0  0  0  0  0  0  0  0  0  0
   59.3790   31.5550   47.4490 C   0  0  0  0  0  0  0  0  0  0  0  0
   60.8050   31.7590   47.7700 C   0  0  0  0  0  0  0  0  0  0  0  0
   61.5910   32.6710   47.1230 C   0  0  0  0  0  0  0  0  0  0  0  0
   62.9230   32.8680   47.4520 C   0  0  0  0  0  0  0  0  0  0  0  0
   63.5100   32.1360   48.4640 C   0  0  0  0  0  0  0  0  0  0  0  0
   62.7380   31.2190   49.1190 C   0  0  0  0  0  0  0  0  0  0  0  0
   61.4070   31.0240   48.7890 C   0  0  0  0  0  0  0  0  0  0  0  0
   60.3500   29.7320   49.7260 Br  0  0  0  0  0  0  0  0  0  0  0  0
   58.0760   29.8770   42.7080 H   0  0  0  0  0  0  0  0  0  0  0  0
   61.0681   29.6651   45.0169 H   0  0  0  0  0  0  0  0  0  0  0  0
   61.7025   27.4812   46.0464 H   0  0  0  0  0  0  0  0  0  0  0  0
   59.9227   25.9615   46.8297 H   0  0  0  0  0  0  0  0  0  0  0  0
   57.5271   26.5396   46.6398 H   0  0  0  0  0  0  0  0  0  0  0  0
   58.0279   34.6637   43.6080 H   0  0  0  0  0  0  0  0  0  0  0  0
   56.6450   34.2853   44.6713 H   0  0  0  0  0  0  0  0  0  0  0  0
   59.5990   34.4428   45.4712 H   0  0  0  0  0  0  0  0  0  0  0  0
   58.3061   35.5847   45.9395 H   0  0  0  0  0  0  0  0  0  0  0  0
   58.6045   34.0409   47.7908 H   0  0  0  0  0  0  0  0  0  0  0  0
   57.0749   33.5897   46.9873 H   0  0  0  0  0  0  0  0  0  0  0  0
   58.8432   30.7420   47.9608 H   0  0  0  0  0  0  0  0  0  0  0  0
   61.1508   33.2700   46.3122 H   0  0  0  0  0  0  0  0  0  0  0  0
   63.5166   33.6133   46.9024 H   0  0  0  0  0  0  0  0  0  0  0  0
   64.5656   32.2862   48.7345 H   0  0  0  0  0  0  0  0  0  0  0  0
   63.1839   30.6213   49.9276 H   0  0  0  0  0  0  0  0  0  0  0  0
  1  2  2  0
  2  3  1  0
  3  4  1  0
  4  5  1  0
  5  6  2  0
  6  7  1  0
  7  8  2  0
  8  9  1  0
  9 10  2  0
 10 11  1  0
  4 12  1  0
 12 13  2  0
 13 14  1  0
 14 15  1  0
 15 16  1  0
 16 17  1  0
 17 18  2  0
 18 19  1  0
 19 20  2  0
 20 21  1  0
 21 22  2  0
 22 23  1  0
 23 24  2  0
 24 25  1  0
 13  2  1  0
 24 19  1  0
 10  5  1  0
 17 12  1  0
  3 26  1  0
  6 27  1  0
  7 28  1  0
  8 29  1  0
  9 30  1  0
 14 31  1  0
 14 32  1  0
 15 33  1  0
 15 34  1  0
 16 35  1  0
 16 36  1  0
 18 37  1  0
 20 38  1  0
 21 39  1  0
 22 40  1  0
 23 41  1  0
M  END
>  <smiles>  (22) 
O=c1[nH]n(-c2ccccc2F)c2c1CCCC2=Cc1ccccc1Br

>  <score_type>  (22) 
oracle

>  <origin>  (22) 
adg

>  <m_score__min__energy>  (22) 
-8.7799999999999994

>  <m_primary>  (22) 
energy

$$$$
22:0
     RDKit          3D

 23 23  0  0  0  0  0  0  0  0999 V2000
   55.3010   29.2360   44.8870 N   0  0  0  0  0  0  0  0  0  0  0  0
   56.3000   29.6120   43.8890 C   0  0  0  0  0  0  0  0  0  0  0  0
   56.8210   30.9910   44.2070 C   0  0  0  0  0  0  0  0  0  0  0  0
   57.8400   30.9530   45.3220 C   0  0  0  0  0  0  0  0  0  0  0  0
   58.3460   32.3140   45.6530 C   0  0  0  0  0  0  0  0  0  0  0  0
   58.2970   33.2980   44.6720 C   0  0  0  0  0  0  0  0  0  0  0  0
   58.7550   34.5770   44.9310 C   0  0  0  0  0  0  0  0  0  0  0  0
   59.2790   34.9160   46.1810 C   0  0  0  0  0  0  0  0  0  0  0  0
   59.3150   33.9190   47.1370 C   0  0  0  0  0  0  0  0  0  0  0  0
   59.9770   34.3540   48.7150 Cl  0  0  0  0  0  0  0  0  0  0  0  0
   58.8610   32.6370   46.8930 C   0  0  0  0  0  0  0  0  0  0  0  0
   55.1450   28.2150   44.9000 H   0  0  0  0  0  0  0  0  0  0  0  0
   55.5330   29.6410   45.8290 H   0  0  0  0  0  0  0  0  0  0  0  0
   57.1304   28.8909   43.9093 H   0  0  0  0  0  0  0  0  0  0  0  0
   55.8429   29.6103   42.8885 H   0  0  0  0  0  0  0  0  0  0  0  0
   57.2918   31.4120   43.3064 H   0  0  0  0  0  0  0  0  0  0  0  0
   55.9748   31.6136   44.5331 H   0  0  0  0  0  0  0  0  0  0  0  0
   57.3719   30.5191   46.2179 H   0  0  0  0  0  0  0  0  0  0  0  0
   58.6918   30.3428   44.9872 H   0  0  0  0  0  0  0  0  0  0  0  0
   57.8896   33.0566   43.6792 H   0  0  0  0  0  0  0  0  0  0  0  0
   58.7059   35.3398   44.1400 H   0  0  0  0  0  0  0  0  0  0  0  0
   59.6463   35.9307   46.3944 H   0  0  0  0  0  0  0  0  0  0  0  0
   58.9097   31.8751   47.6849 H   0  0  0  0  0  0  0  0  0  0  0  0
  1  2  1  0
  2  3  1  0
  3  4  1  0
  4  5  1  0
  5  6  2  0
  6  7  1  0
  7  8  2  0
  8  9  1  0
  9 10  1  0
  9 11  2  0
 11  5  1  0
  1 12  1  0
  1 13  1  0
  2 14  1  0
  2 15  1  0
  3 16  1  0
  3 17  1  0
  4 18  1  0
  4 19  1  0
  6 20  1  0
  7 21  1  0
  8 22  1  0
 11 23  1  0
M  END
>  <smiles>  (23) 
NCCCc1cccc(Cl)c1

>  <score_type>  (23) 
oracle

>  <origin>  (23) 
adg

>  <m_score__min__energy>  (23) 
-6.1500000000000004

>  <m_primary>  (23) 
energy

$$$$
23:0
     RDKit          3D

 43 45  0  0  0  0  0  0  0  0999 V2000
   59.9690   26.3450   47.0140 O   0  0  0  0  0  0  0  0  0  0  0  0
   58.9890   26.9690   46.5300 C   0  0  0  0  0  0  0  0  0  0  0  0
   57.8620   26.2530   46.2180 C   0  0  0  0  0  0  0  0  0  0  0  0
   56.7700   26.9110   45.6840 C   0  0  0  0  0  0  0  0  0  0  0  0
   56.7430   28.2570   45.4450 C   0  0  0  0  0  0  0  0  0  0  0  0
   55.6670   28.9910   44.9240 N   0  0  0  0  0  0  0  0  0  0  0  0
   55.5950   29.7690   43.7390 C   0  0  0  0  0  0  0  0  0  0  0  0
   56.5570   30.8640   43.5930 C   0  0  0  0  0  0  0  0  0  0  0  0
   57.2780   31.1840   42.4760 C   0  0  0  0  0  0  0  0  0  0  0  0
   58.1570   32.2570   42.4270 C   0  0  0  0  0  0  0  0  0  0  0  0
   58.3380   33.0600   43.5310 C   0  0  0  0  0  0  0  0  0  0  0  0
   57.6210   32.7590   44.6750 C   0  0  0  0  0  0  0  0  0  0  0  0
   57.8510   33.7790   46.0840 Cl  0  0  0  0  0  0  0  0  0  0  0  0
   56.7510   31.6860   44.7060 C   0  0  0  0  0  0  0  0  0  0  0  0
   57.9290   28.9400   45.7850 C   0  0  0  0  0  0  0  0  0  0  0  0
   58.9850   28.2930   46.3030 N   0  0  0  0  0  0  0  0  0  0  0  0
   60.1810   29.0320   46.6380 C   0  0  0  0  0  0  0  0  0  0  0  0
   59.9560   30.2380   47.4430 C   0  0  0  0  0  0  0  0  0  0  0  0
   59.1470   30.3000   48.5580 C   0  0  0  0  0  0  0  0  0  0  0  0
   58.9670   31.4710   49.2870 C   0  0  0  0  0  0  0  0  0  0  0  0
   59.6290   32.6250   48.8760 C   0  0  0  0  0  0  0  0  0  0  0  0
   60.4450   32.5950   47.7650 C   0  0  0  0  0  0  0  0  0  0  0  0
   61.1810   33.8000   47.2740 C   0  0  0  0  0  0  0  0  0  0  0  0
   62.2940   34.0120   48.0780 F   0  0  0  0  0  0  0  0  0  0  0  0
   60.4050   34.9210   47.3350 F   0  0  0  0  0  0  0  0  0  0  0  0
   61.6530   33.5410   46.0020 F   0  0  0  0  0  0  0  0  0  0  0  0
   60.5920   31.4260   47.0800 C   0  0  0  0  0  0  0  0  0  0  0  0
   57.8273   25.1672   46.3907 H   0  0  0  0  0  0  0  0  0  0  0  0
   55.8751   26.3204   45.4382 H   0  0  0  0  0  0  0  0  0  0  0  0
   54.7650   28.9600   45.5100 H   0  0  0  0  0  0  0  0  0  0  0  0
   55.7387   29.0876   42.8875 H   0  0  0  0  0  0  0  0  0  0  0  0
   54.6125   30.2615   43.7846 H   0  0  0  0  0  0  0  0  0  0  0  0
   57.1559   30.5633   41.5761 H   0  0  0  0  0  0  0  0  0  0  0  0
   58.7123   32.4672   41.5010 H   0  0  0  0  0  0  0  0  0  0  0  0
   59.0309   33.9139   43.5040 H   0  0  0  0  0  0  0  0  0  0  0  0
   56.1963   31.4732   45.6318 H   0  0  0  0  0  0  0  0  0  0  0  0
   57.9901   30.0262   45.6223 H   0  0  0  0  0  0  0  0  0  0  0  0
   60.8488   28.3642   47.2020 H   0  0  0  0  0  0  0  0  0  0  0  0
   60.6107   29.3729   45.6845 H   0  0  0  0  0  0  0  0  0  0  0  0
   58.6240   29.3886   48.8834 H   0  0  0  0  0  0  0  0  0  0  0  0
   58.3137   31.4851   50.1719 H   0  0  0  0  0  0  0  0  0  0  0  0
   59.5008   33.5617   49.4383 H   0  0  0  0  0  0  0  0  0  0  0  0
   61.2457   31.4185   46.1953 H   0  0  0  0  0  0  0  0  0  0  0  0
  1  2  2  0
  2  3  1  0
  3  4  2  0
  4  5  1  0
  5  6  1  0
  6  7  1  0
  7  8  1  0
  8  9  2  0
  9 10  1  0
 10 11  2  0
 11 12  1  0
 12 13  1  0
 12 14  2  0
  5 15  2  0
 15 16  1  0
 16 17  1  0
 17 18  1  0
 18 19  2  0
 19 20  1  0
 20 21  2  0
 21 22  1  0
 22 23  1  0
 23 24  1  0
 23 25  1  0
 23 26  1  0
 22 27  2  0
 16  2  1  0
 27 18  1  0
 14  8  1  0
  3 28  1  0
  4 29  1  0
  6 30  1  0
  7 31  1  0
  7 32  1  0
  9 33  1  0
 10 34  1  0
 11 35  1  0
 14 36  1  0
 15 37  1  0
 17 38  1  0
 17 39  1  0
 19 40  1  0
 20 41  1  0
 21 42  1  0
 27 43  1  0
M  END
>  <smiles>  (24) 
O=c1ccc(NCc2cccc(Cl)c2)cn1Cc1cccc(C(F)(F)F)c1

>  <score_type>  (24) 
oracle

>  <origin>  (24) 
adg

>  <m_score__min__energy>  (24) 
-8.0600000000000005

>  <m_primary>  (24) 
energy

$$$$
24:0
     RDKit          3D

 53 56  0  0  1  0  0  0  0  0999 V2000
   55.0800   25.8010   46.0050 O   0  0  0  0  0  0  0  0  0  0  0  0
   56.3300   25.6280   45.6930 C   0  0  0  0  0  0  0  0  0  0  0  0
   57.1680   26.6930   46.0190 N   0  0  0  0  0  0  0  0  0  0  0  0
   57.1210   27.9020   45.6670 C   0  0  0  0  0  0  0  0  0  0  0  0
   58.2330   28.7070   45.7140 C   0  0  0  0  0  0  0  0  0  0  0  0
   58.2220   30.0200   45.3230 C   0  0  0  0  0  0  0  0  0  0  0  0
   57.0150   30.5320   44.8620 C   0  0  0  0  0  0  0  0  0  0  0  0
   56.9200   31.8800   44.4350 O   0  0  0  0  0  0  0  0  0  0  0  0
   57.7260   32.8160   45.0970 C   0  0  0  0  0  0  0  0  0  0  0  0
   58.3520   33.7490   44.3020 C   0  0  0  0  0  0  0  0  0  0  0  0
   59.1620   34.7080   44.8510 C   0  0  0  0  0  0  0  0  0  0  0  0
   59.3290   34.7070   46.2330 C   0  0  0  0  0  0  0  0  0  0  0  0
   58.7340   33.8080   47.0720 C   0  0  0  0  0  0  0  0  0  0  0  0
   58.8620   33.7990   48.4830 N   0  0  0  0  0  0  0  0  0  0  0  0
   58.8970   32.6530   49.2940 C   0  0  0  0  0  0  0  0  0  0  0  0
   58.8220   31.5000   48.8070 O   0  0  0  0  0  0  0  0  0  0  0  0
   59.0230   32.6910   50.7660 C   0  0  0  0  0  0  0  0  0  0  0  0
   57.9660   32.3910   51.6010 C   0  0  0  0  0  0  0  0  0  0  0  0
   58.1390   32.4890   52.9570 C   0  0  0  0  0  0  0  0  0  0  0  0
   59.3670   32.8880   53.4700 C   0  0  0  0  0  0  0  0  0  0  0  0
   60.4300   33.1900   52.6340 C   0  0  0  0  0  0  0  0  0  0  0  0
   60.2610   33.0910   51.2770 C   0  0  0  0  0  0  0  0  0  0  0  0
   61.3610   33.3840   50.2960 C   0  0  0  0  0  0  0  0  0  0  0  0
   60.9860   34.5330   49.6340 F   0  0  0  0  0  0  0  0  0  0  0  0
   62.5350   33.6310   50.9920 F   0  0  0  0  0  0  0  0  0  0  0  0
   61.5170   32.3750   49.3740 F   0  0  0  0  0  0  0  0  0  0  0  0
   57.9160   32.8500   46.4460 C   0  0  0  0  0  0  0  0  0  0  0  0
   55.9280   29.6860   44.8360 C   0  0  0  0  0  0  0  0  0  0  0  0
   55.9700   28.4080   45.2250 N   0  0  0  0  0  0  0  0  0  0  0  0
   56.6150   24.3720   45.0720 C   0  0  0  0  0  0  0  0  0  0  0  0
   55.9010   24.0890   43.8930 C   0  0  0  0  0  0  0  0  0  0  0  0
   56.0560   22.9160   43.2010 C   0  0  0  0  0  0  0  0  0  0  0  0
   56.9360   21.9560   43.6440 C   0  0  0  0  0  0  0  0  0  0  0  0
   57.6580   22.2090   44.8080 C   0  0  0  0  0  0  0  0  0  0  0  0
   57.4920   23.4100   45.5090 C   0  0  0  0  0  0  0  0  0  0  0  0
   59.1762   28.2775   46.0827 H   0  0  0  0  0  0  0  0  0  0  0  0
   59.1283   30.6414   45.3718 H   0  0  0  0  0  0  0  0  0  0  0  0
   58.2002   33.7244   43.2128 H   0  0  0  0  0  0  0  0  0  0  0  0
   59.6646   35.4554   44.2195 H   0  0  0  0  0  0  0  0  0  0  0  0
   59.9789   35.4761   46.6759 H   0  0  0  0  0  0  0  0  0  0  0  0
   58.9280   34.7260   48.9660 H   0  0  0  0  0  0  0  0  0  0  0  0
   56.9977   32.0774   51.1838 H   0  0  0  0  0  0  0  0  0  0  0  0
   57.3078   32.2524   53.6375 H   0  0  0  0  0  0  0  0  0  0  0  0
   59.4977   32.9656   54.5594 H   0  0  0  0  0  0  0  0  0  0  0  0
   61.3968   33.5050   53.0536 H   0  0  0  0  0  0  0  0  0  0  0  0
   57.4098   32.0987   47.0700 H   0  0  0  0  0  0  0  0  0  0  0  0
   54.9693   30.0858   44.4739 H   0  0  0  0  0  0  0  0  0  0  0  0
   55.1440   27.7900   45.2030 H   0  0  0  0  0  0  0  0  0  0  0  0
   55.1911   24.8379   43.5120 H   0  0  0  0  0  0  0  0  0  0  0  0
   55.4726   22.7411   42.2850 H   0  0  0  0  0  0  0  0  0  0  0  0
   57.0662   21.0128   43.0932 H   0  0  0  0  0  0  0  0  0  0  0  0
   58.3676   21.4559   45.1814 H   0  0  0  0  0  0  0  0  0  0  0  0
   58.0743   23.5857   46.4256 H   0  0  0  0  0  0  0  0  0  0  0  0
  1  2  2  0
  2  3  1  0
  3  4  2  0
  4  5  1  0
  5  6  2  0
  6  7  1  0
  7  8  1  0
  8  9  1  0
  9 10  2  0
 10 11  1  0
 11 12  2  0
 12 13  1  0
 13 14  1  0
 14 15  1  0
 15 16  2  0
 15 17  1  0
 17 18  2  0
 18 19  1  0
 19 20  2  0
 20 21  1  0
 21 22  2  0
 22 23  1  0
 23 24  1  0
 23 25  1  0
 23 26  1  0
 13 27  2  0
  7 28  2  0
 28 29  1  0
  2 30  1  0
 30 31  2  0
 31 32  1  0
 32 33  2  0
 33 34  1  0
 34 35  2  0
 29  4  1  0
 35 30  1  0
 27  9  1  0
 22 17  1  0
  5 36  1  0
  6 37  1  0
 10 38  1  0
 11 39  1  0
 12 40  1  0
 14 41  1  0
 18 42  1  0
 19 43  1  0
 20 44  1  0
 21 45  1  0
 27 46  1  0
 28 47  1  0
 29 48  1  0
 31 49  1  0
 32 50  1  0
 33 51  1  0
 34 52  1  0
 35 53  1  0
M  END
>  <smiles>  (25) 
O=C(N=c1ccc(Oc2cccc(NC(=O)c3ccccc3C(F)(F)F)c2)c[nH]1)c1ccccc1

>  <score_type>  (25) 
oracle

>  <origin>  (25) 
adg

>  <m_score__min__energy>  (25) 
-9.7699999999999996

>  <m_primary>  (25) 
energy

$$$$
25:0
     RDKit          3D

 47 51  0  0  0  0  0  0  0  0999 V2000
   57.1960   27.9860   44.4690 N   0  0  0  0  0  0  0  0  0  0  0  0
   57.5940   29.1510   44.8360 C   0  0  0  0  0  0  0  0  0  0  0  0
   57.1390   30.1990   44.1430 N   0  0  0  0  0  0  0  0  0  0  0  0
   57.4650   31.4810   44.3720 C   0  0  0  0  0  0  0  0  0  0  0  0
   58.3470   31.7060   45.4170 C   0  0  0  0  0  0  0  0  0  0  0  0
   58.7940   33.0430   45.7840 C   0  0  0  0  0  0  0  0  0  0  0  0
   59.2170   33.9820   44.8680 C   0  0  0  0  0  0  0  0  0  0  0  0
   59.6260   35.2340   45.3050 C   0  0  0  0  0  0  0  0  0  0  0  0
   59.6240   35.5800   46.6480 C   0  0  0  0  0  0  0  0  0  0  0  0
   59.1960   34.6290   47.5760 C   0  0  0  0  0  0  0  0  0  0  0  0
   58.7830   33.3660   47.1370 C   0  0  0  0  0  0  0  0  0  0  0  0
   58.8290   30.6280   46.1450 C   0  0  0  0  0  0  0  0  0  0  0  0
   59.9690   30.6380   47.5040 S   0  0  0  0  0  0  0  0  0  0  0  0
   59.9120   28.7700   47.6730 C   0  0  0  0  0  0  0  0  0  0  0  0
   59.0410   28.3690   46.6850 C   0  0  0  0  0  0  0  0  0  0  0  0
   58.7430   26.9070   46.5930 C   0  0  0  0  0  0  0  0  0  0  0  0
   59.6220   26.0270   46.0170 C   0  0  0  0  0  0  0  0  0  0  0  0
   59.3220   24.6930   45.9700 C   0  0  0  0  0  0  0  0  0  0  0  0
   58.1260   24.1620   46.4950 C   0  0  0  0  0  0  0  0  0  0  0  0
   57.9630   22.8360   46.3760 O   0  0  0  0  0  0  0  0  0  0  0  0
   57.3840   21.9850   45.5390 C   0  0  0  0  0  0  0  0  0  0  0  0
   57.5550   22.2470   44.1560 C   0  0  0  0  0  0  0  0  0  0  0  0
   57.0170   21.4560   43.1880 C   0  0  0  0  0  0  0  0  0  0  0  0
   56.2690   20.3460   43.5010 C   0  0  0  0  0  0  0  0  0  0  0  0
   56.0810   20.0590   44.8300 C   0  0  0  0  0  0  0  0  0  0  0  0
   56.6310   20.8690   45.8110 C   0  0  0  0  0  0  0  0  0  0  0  0
   57.2780   25.0810   47.0590 C   0  0  0  0  0  0  0  0  0  0  0  0
   57.5630   26.4460   47.1200 C   0  0  0  0  0  0  0  0  0  0  0  0
   58.4960   29.3240   45.9130 C   0  0  0  0  0  0  0  0  0  0  0  0
   56.9510   27.8090   43.4760 H   0  0  0  0  0  0  0  0  0  0  0  0
   56.4690   30.0390   43.3470 H   0  0  0  0  0  0  0  0  0  0  0  0
   57.0565   32.3035   43.7665 H   0  0  0  0  0  0  0  0  0  0  0  0
   59.2303   33.7400   43.7950 H   0  0  0  0  0  0  0  0  0  0  0  0
   59.9619   35.9742   44.5639 H   0  0  0  0  0  0  0  0  0  0  0  0
   59.9513   36.5784   46.9737 H   0  0  0  0  0  0  0  0  0  0  0  0
   59.1834   34.8716   48.6488 H   0  0  0  0  0  0  0  0  0  0  0  0
   58.4455   32.6194   47.8709 H   0  0  0  0  0  0  0  0  0  0  0  0
   60.4509   28.1398   48.3958 H   0  0  0  0  0  0  0  0  0  0  0  0
   60.5684   26.3933   45.5926 H   0  0  0  0  0  0  0  0  0  0  0  0
   60.0437   24.0064   45.5034 H   0  0  0  0  0  0  0  0  0  0  0  0
   58.1458   23.1242   43.8536 H   0  0  0  0  0  0  0  0  0  0  0  0
   57.1845   21.7107   42.1311 H   0  0  0  0  0  0  0  0  0  0  0  0
   55.8365   19.7103   42.7143 H   0  0  0  0  0  0  0  0  0  0  0  0
   55.4886   19.1784   45.1191 H   0  0  0  0  0  0  0  0  0  0  0  0
   56.4550   20.6038   46.8640 H   0  0  0  0  0  0  0  0  0  0  0  0
   56.3277   24.7251   47.4836 H   0  0  0  0  0  0  0  0  0  0  0  0
   56.8505   27.1434   47.5847 H   0  0  0  0  0  0  0  0  0  0  0  0
  1  2  2  3
  2  3  1  0
  3  4  1  0
  4  5  2  0
  5  6  1  0
  6  7  2  0
  7  8  1  0
  8  9  2  0
  9 10  1  0
 10 11  2  0
  5 12  1  0
 12 13  1  0
 13 14  1  0
 14 15  2  0
 15 16  1  0
 16 17  2  0
 17 18  1  0
 18 19  2  0
 19 20  1  0
 20 21  1  0
 21 22  2  0
 22 23  1  0
 23 24  2  0
 24 25  1  0
 25 26  2  0
 19 27  1  0
 27 28  2  0
 15 29  1  0
 29  2  1  0
 11  6  1  0
 29 12  2  0
 28 16  1  0
 26 21  1  0
  1 30  1  0
  3 31  1  0
  4 32  1  0
  7 33  1  0
  8 34  1  0
  9 35  1  0
 10 36  1  0
 11 37  1  0
 14 38  1  0
 17 39  1  0
 18 40  1  0
 22 41  1  0
 23 42  1  0
 24 43  1  0
 25 44  1  0
 26 45  1  0
 27 46  1  0
 28 47  1  0
M  END
>  <smiles>  (26) 
N=c1[nH]cc(-c2ccccc2)c2scc(-c3ccc(Oc4ccccc4)cc3)c12

>  <score_type>  (26) 
oracle

>  <origin>  (26) 
adg

>  <m_score__min__energy>  (26) 
-8.2799999999999994

>  <m_primary>  (26) 
energy

$$$$
26:0
     RDKit          3D

 40 42  0  0  0  0  0  0  0  0999 V2000
   56.2520   29.6110   42.6920 C   0  0  0  0  0  0  0  0  0  0  0  0
   57.1640   30.2600   43.6680 C   0  0  0  0  0  0  0  0  0  0  0  0
   57.2810   31.5800   43.9400 N   0  0  0  0  0  0  0  0  0  0  0  0
   58.2010   31.8080   44.8760 C   0  0  0  0  0  0  0  0  0  0  0  0
   58.6720   32.9710   45.5830 C   0  0  0  0  0  0  0  0  0  0  0  0
   58.9360   34.1170   44.8100 C   0  0  0  0  0  0  0  0  0  0  0  0
   59.4000   35.2830   45.3590 C   0  0  0  0  0  0  0  0  0  0  0  0
   59.6360   35.3990   46.7090 C   0  0  0  0  0  0  0  0  0  0  0  0
   59.3890   34.2900   47.4840 C   0  0  0  0  0  0  0  0  0  0  0  0
   59.6560   34.3900   48.8310 C   0  0  0  0  0  0  0  0  0  0  0  0
   59.4740   33.3250   49.6860 C   0  0  0  0  0  0  0  0  0  0  0  0
   59.0110   32.1500   49.1300 C   0  0  0  0  0  0  0  0  0  0  0  0
   58.8210   31.0770   49.9440 F   0  0  0  0  0  0  0  0  0  0  0  0
   58.7470   32.0590   47.7840 C   0  0  0  0  0  0  0  0  0  0  0  0
   58.9140   33.0970   46.9160 C   0  0  0  0  0  0  0  0  0  0  0  0
   58.6700   30.5620   45.1870 N   0  0  0  0  0  0  0  0  0  0  0  0
   58.0600   29.6210   44.4730 C   0  0  0  0  0  0  0  0  0  0  0  0
   58.2610   28.1480   44.4930 C   0  0  0  0  0  0  0  0  0  0  0  0
   57.0150   27.4990   44.8570 N   0  0  0  0  0  0  0  0  0  0  0  0
   57.1000   26.3060   45.6190 C   0  0  0  0  0  0  0  0  0  0  0  0
   58.2440   25.8900   45.9300 O   0  0  0  0  0  0  0  0  0  0  0  0
   55.9310   25.5260   46.0670 C   0  0  0  0  0  0  0  0  0  0  0  0
   54.6730   26.2040   45.9330 N   0  0  0  0  0  0  0  0  0  0  0  0
   55.4715   29.0556   43.2327 H   0  0  0  0  0  0  0  0  0  0  0  0
   55.7837   30.3801   42.0602 H   0  0  0  0  0  0  0  0  0  0  0  0
   56.8252   28.9166   42.0602 H   0  0  0  0  0  0  0  0  0  0  0  0
   56.7130   32.2650   43.4060 H   0  0  0  0  0  0  0  0  0  0  0  0
   58.7633   34.0748   43.7245 H   0  0  0  0  0  0  0  0  0  0  0  0
   59.5883   36.1470   44.7047 H   0  0  0  0  0  0  0  0  0  0  0  0
   60.0058   36.3368   47.1492 H   0  0  0  0  0  0  0  0  0  0  0  0
   60.0241   35.3447   49.2349 H   0  0  0  0  0  0  0  0  0  0  0  0
   59.6878   33.4076   50.7619 H   0  0  0  0  0  0  0  0  0  0  0  0
   58.3825   31.1000   47.3871 H   0  0  0  0  0  0  0  0  0  0  0  0
   58.5756   27.8065   43.4958 H   0  0  0  0  0  0  0  0  0  0  0  0
   59.0383   27.8920   45.2280 H   0  0  0  0  0  0  0  0  0  0  0  0
   56.0750   27.8570   44.5910 H   0  0  0  0  0  0  0  0  0  0  0  0
   55.8874   24.6014   45.4727 H   0  0  0  0  0  0  0  0  0  0  0  0
   56.0727   25.3418   47.1422 H   0  0  0  0  0  0  0  0  0  0  0  0
   54.4910   26.6370   45.0220 H   0  0  0  0  0  0  0  0  0  0  0  0
   54.3800   26.7220   46.7680 H   0  0  0  0  0  0  0  0  0  0  0  0
  1  2  1  0
  2  3  1  0
  3  4  1  0
  4  5  1  0
  5  6  2  0
  6  7  1  0
  7  8  2  0
  8  9  1  0
  9 10  2  0
 10 11  1  0
 11 12  2  0
 12 13  1  0
 12 14  1  0
 14 15  2  0
  4 16  2  0
 16 17  1  0
 17 18  1  0
 18 19  1  0
 19 20  1  0
 20 21  2  0
 20 22  1  0
 22 23  1  0
 17  2  2  0
 15  5  1  0
 15  9  1  0
  1 24  1  0
  1 25  1  0
  1 26  1  0
  3 27  1  0
  6 28  1  0
  7 29  1  0
  8 30  1  0
 10 31  1  0
 11 32  1  0
 14 33  1  0
 18 34  1  0
 18 35  1  0
 19 36  1  0
 22 37  1  0
 22 38  1  0
 23 39  1  0
 23 40  1  0
M  END
>  <smiles>  (27) 
Cc1[nH]c(-c2cccc3ccc(F)cc23)nc1CNC(=O)CN

>  <score_type>  (27) 
oracle

>  <origin>  (27) 
adg

>  <m_score__min__energy>  (27) 
-8.5199999999999996

>  <m_primary>  (27) 
energy

$$$$
27:0
     RDKit          3D

 44 48  0  0  1  0  0  0  0  0999 V2000
   56.2450   24.5800   45.1510 C   0  0  0  0  0  0  0  0  0  0  0  0
   55.0940   25.2220   45.6150 C   0  0  0  0  0  0  0  0  0  0  0  0
   55.4200   26.4080   46.0970 O   0  0  0  0  0  0  0  0  0  0  0  0
   56.7200   26.6160   45.9920 C   0  0  0  0  0  0  0  0  0  0  0  0
   57.3980   27.8360   46.4350 C   0  0  0  0  0  0  0  0  0  0  0  0
   58.1190   28.5580   45.4330 N   0  0  0  0  0  0  0  0  0  0  0  0
   57.6340   29.3850   44.6070 C   0  0  0  0  0  0  0  0  0  0  0  0
   56.8210   28.9740   43.6250 N   0  0  0  0  0  0  0  0  0  0  0  0
   56.3360   29.8950   42.7800 C   0  0  0  0  0  0  0  0  0  0  0  0
   56.6500   31.2110   42.9030 N   0  0  0  0  0  0  0  0  0  0  0  0
   57.4660   31.6570   43.8820 C   0  0  0  0  0  0  0  0  0  0  0  0
   57.7830   33.0000   44.0000 C   0  0  0  0  0  0  0  0  0  0  0  0
   58.6310   33.3690   45.0350 C   0  0  0  0  0  0  0  0  0  0  0  0
   59.1500   32.4550   45.9230 C   0  0  0  0  0  0  0  0  0  0  0  0
   60.0370   32.8920   46.9930 C   0  0  0  0  0  0  0  0  0  0  0  0
   59.4800   33.7050   47.9750 C   0  0  0  0  0  0  0  0  0  0  0  0
   60.2330   34.1760   49.0310 C   0  0  0  0  0  0  0  0  0  0  0  0
   61.5660   33.8000   49.0640 C   0  0  0  0  0  0  0  0  0  0  0  0
   62.3800   34.2330   50.0890 C   0  0  0  0  0  0  0  0  0  0  0  0
   63.7250   33.8580   50.1270 C   0  0  0  0  0  0  0  0  0  0  0  0
   64.2860   33.0540   49.1590 C   0  0  0  0  0  0  0  0  0  0  0  0
   63.4600   32.6280   48.1390 C   0  0  0  0  0  0  0  0  0  0  0  0
   62.1370   32.9950   48.0990 C   0  0  0  0  0  0  0  0  0  0  0  0
   61.3630   32.5380   47.0540 C   0  0  0  0  0  0  0  0  0  0  0  0
   58.8190   31.1220   45.7840 C   0  0  0  0  0  0  0  0  0  0  0  0
   57.9750   30.7250   44.7600 C   0  0  0  0  0  0  0  0  0  0  0  0
   57.2630   25.4750   45.3980 C   0  0  0  0  0  0  0  0  0  0  0  0
   56.3213   23.5835   44.6915 H   0  0  0  0  0  0  0  0  0  0  0  0
   54.0764   24.8054   45.5839 H   0  0  0  0  0  0  0  0  0  0  0  0
   56.6358   28.5109   46.8516 H   0  0  0  0  0  0  0  0  0  0  0  0
   58.1553   27.5045   47.1606 H   0  0  0  0  0  0  0  0  0  0  0  0
   55.6670   29.5771   41.9667 H   0  0  0  0  0  0  0  0  0  0  0  0
   56.2300   31.8650   42.2040 H   0  0  0  0  0  0  0  0  0  0  0  0
   57.3781   33.7458   43.3001 H   0  0  0  0  0  0  0  0  0  0  0  0
   58.8977   34.4300   45.1494 H   0  0  0  0  0  0  0  0  0  0  0  0
   58.4166   33.9782   47.9082 H   0  0  0  0  0  0  0  0  0  0  0  0
   59.7960   34.8190   49.8091 H   0  0  0  0  0  0  0  0  0  0  0  0
   61.9684   34.8767   50.8804 H   0  0  0  0  0  0  0  0  0  0  0  0
   64.3552   34.2154   50.9547 H   0  0  0  0  0  0  0  0  0  0  0  0
   65.3464   32.7642   49.1976 H   0  0  0  0  0  0  0  0  0  0  0  0
   63.8675   31.9844   47.3455 H   0  0  0  0  0  0  0  0  0  0  0  0
   61.8028   31.8961   46.2765 H   0  0  0  0  0  0  0  0  0  0  0  0
   59.2244   30.3771   46.4846 H   0  0  0  0  0  0  0  0  0  0  0  0
   58.3265   25.3169   45.1659 H   0  0  0  0  0  0  0  0  0  0  0  0
  1  2  2  0
  2  3  1  0
  3  4  1  0
  4  5  1  0
  5  6  1  0
  6  7  2  0
  7  8  1  0
  8  9  2  0
  9 10  1  0
 10 11  1  0
 11 12  2  0
 12 13  1  0
 13 14  2  0
 14 15  1  0
 15 16  2  0
 16 17  1  0
 17 18  2  0
 18 19  1  0
 19 20  2  0
 20 21  1  0
 21 22  2  0
 22 23  1  0
 23 24  2  0
 14 25  1  0
 25 26  2  0
  4 27  2  0
 27  1  1  0
 26  7  1  0
 26 11  1  0
 24 15  1  0
 23 18  1  0
  1 28  1  0
  2 29  1  0
  5 30  1  0
  5 31  1  0
  9 32  1  0
 10 33  1  0
 12 34  1  0
 13 35  1  0
 16 36  1  0
 17 37  1  0
 19 38  1  0
 20 39  1  0
 21 40  1  0
 22 41  1  0
 24 42  1  0
 25 43  1  0
 27 44  1  0
M  END
>  <smiles>  (28) 
c1coc(CN=c2nc[nH]c3ccc(-c4ccc5ccccc5c4)cc23)c1

>  <score_type>  (28) 
oracle

>  <origin>  (28) 
adg

>  <m_score__min__energy>  (28) 
-8.9900000000000002

>  <m_primary>  (28) 
energy

$$$$
28:0
     RDKit          3D

 51 54  0  0  0  0  0  0  0  0999 V2000
   60.4850   34.4900   48.5800 C   0  0  0  0  0  0  0  0  0  0  0  0
   59.3460   34.9720   47.8780 O   0  0  0  0  0  0  0  0  0  0  0  0
   58.8450   34.2250   46.8180 C   0  0  0  0  0  0  0  0  0  0  0  0
   57.8700   33.2660   46.9670 C   0  0  0  0  0  0  0  0  0  0  0  0
   57.3990   32.5430   45.8720 C   0  0  0  0  0  0  0  0  0  0  0  0
   57.9040   32.7720   44.5890 C   0  0  0  0  0  0  0  0  0  0  0  0
   57.3660   31.9800   43.5550 N   0  0  0  0  0  0  0  0  0  0  0  0
   56.7500   30.4060   43.6900 S   0  0  0  0  0  0  0  0  0  0  0  0
   56.3750   29.8690   42.3130 O   0  0  0  0  0  0  0  0  0  0  0  0
   55.4300   30.4630   44.4500 O   0  0  0  0  0  0  0  0  0  0  0  0
   57.8240   29.3060   44.4950 C   0  0  0  0  0  0  0  0  0  0  0  0
   58.0470   28.0750   43.8920 C   0  0  0  0  0  0  0  0  0  0  0  0
   58.8700   27.1600   44.4910 C   0  0  0  0  0  0  0  0  0  0  0  0
   59.4830   27.4570   45.6970 C   0  0  0  0  0  0  0  0  0  0  0  0
   59.2830   28.6680   46.3220 C   0  0  0  0  0  0  0  0  0  0  0  0
   59.9150   29.0170   47.6010 C   0  0  0  0  0  0  0  0  0  0  0  0
   60.1990   28.0780   48.3850 O   0  0  0  0  0  0  0  0  0  0  0  0
   60.2120   30.3350   47.9830 N   0  0  0  0  0  0  0  0  0  0  0  0
   60.8310   30.7420   49.2160 C   0  0  0  0  0  0  0  0  0  0  0  0
   59.7840   31.0540   50.2170 C   0  0  0  0  0  0  0  0  0  0  0  0
   59.9190   32.2800   50.8780 C   0  0  0  0  0  0  0  0  0  0  0  0
   59.0150   32.6990   51.8300 C   0  0  0  0  0  0  0  0  0  0  0  0
   57.9570   31.8620   52.1150 C   0  0  0  0  0  0  0  0  0  0  0  0
   57.7990   30.6360   51.4710 C   0  0  0  0  0  0  0  0  0  0  0  0
   58.7250   30.2350   50.5150 C   0  0  0  0  0  0  0  0  0  0  0  0
   56.6350   30.0430   51.9890 O   0  0  0  0  0  0  0  0  0  0  0  0
   56.2900   30.7780   53.1510 C   0  0  0  0  0  0  0  0  0  0  0  0
   56.9220   32.0520   53.0220 O   0  0  0  0  0  0  0  0  0  0  0  0
   58.4480   29.5640   45.6910 C   0  0  0  0  0  0  0  0  0  0  0  0
   58.8700   33.7280   44.4610 C   0  0  0  0  0  0  0  0  0  0  0  0
   59.3420   34.4480   45.5440 C   0  0  0  0  0  0  0  0  0  0  0  0
   60.3072   34.5652   49.6629 H   0  0  0  0  0  0  0  0  0  0  0  0
   60.6644   33.4388   48.3100 H   0  0  0  0  0  0  0  0  0  0  0  0
   61.3644   35.0931   48.3100 H   0  0  0  0  0  0  0  0  0  0  0  0
   57.4554   33.0664   47.9661 H   0  0  0  0  0  0  0  0  0  0  0  0
   56.6190   31.7816   46.0198 H   0  0  0  0  0  0  0  0  0  0  0  0
   57.3520   32.4320   42.5970 H   0  0  0  0  0  0  0  0  0  0  0  0
   57.5626   27.8356   42.9338 H   0  0  0  0  0  0  0  0  0  0  0  0
   59.0453   26.1850   44.0128 H   0  0  0  0  0  0  0  0  0  0  0  0
   60.1425   26.7112   46.1648 H   0  0  0  0  0  0  0  0  0  0  0  0
   59.9630   31.0990   47.3070 H   0  0  0  0  0  0  0  0  0  0  0  0
   61.4671   29.9275   49.5929 H   0  0  0  0  0  0  0  0  0  0  0  0
   61.4460   31.6367   49.0388 H   0  0  0  0  0  0  0  0  0  0  0  0
   60.7722   32.9286   50.6303 H   0  0  0  0  0  0  0  0  0  0  0  0
   59.1330   33.6648   52.3432 H   0  0  0  0  0  0  0  0  0  0  0  0
   58.6094   29.2689   50.0018 H   0  0  0  0  0  0  0  0  0  0  0  0
   55.1986   30.8991   53.2150 H   0  0  0  0  0  0  0  0  0  0  0  0
   56.6182   30.2596   54.0640 H   0  0  0  0  0  0  0  0  0  0  0  0
   58.2717   30.5380   46.1707 H   0  0  0  0  0  0  0  0  0  0  0  0
   59.2869   33.9326   43.4638 H   0  0  0  0  0  0  0  0  0  0  0  0
   60.1226   35.2079   45.3916 H   0  0  0  0  0  0  0  0  0  0  0  0
  1  2  1  0
  2  3  1  0
  3  4  2  0
  4  5  1  0
  5  6  2  0
  6  7  1  0
  7  8  1  0
  8  9  2  0
  8 10  2  0
  8 11  1  0
 11 12  2  0
 12 13  1  0
 13 14  2  0
 14 15  1  0
 15 16  1  0
 16 17  2  0
 16 18  1  0
 18 19  1  0
 19 20  1  0
 20 21  2  0
 21 22  1  0
 22 23  2  0
 23 24  1  0
 24 25  2  0
 24 26  1  0
 26 27  1  0
 27 28  1  0
 15 29  2  0
  6 30  1  0
 30 31  2  0
 31  3  1  0
 29 11  1  0
 25 20  1  0
 28 23  1  0
  1 32  1  0
  1 33  1  0
  1 34  1  0
  4 35  1  0
  5 36  1  0
  7 37  1  0
 12 38  1  0
 13 39  1  0
 14 40  1  0
 18 41  1  0
 19 42  1  0
 19 43  1  0
 21 44  1  0
 22 45  1  0
 25 46  1  0
 27 47  1  0
 27 48  1  0
 29 49  1  0
 30 50  1  0
 31 51  1  0
M  END
>  <smiles>  (29) 
COc1ccc(NS(=O)(=O)c2cccc(C(=O)NCc3ccc4c(c3)OCO4)c2)cc1

>  <score_type>  (29) 
oracle

>  <origin>  (29) 
adg

>  <m_score__min__energy>  (29) 
-8.9700000000000006

>  <m_primary>  (29) 
energy

$$$$
29:0
     RDKit          3D

 74 78  0  0  0  0  0  0  0  0999 V2000
   64.9070   28.1950   52.6510 N   0  0  0  0  0  0  0  0  0  0  0  0
   65.9850   27.8800   51.7790 C   0  0  0  0  0  0  0  0  0  0  0  0
   66.1870   26.5330   51.5170 C   0  0  0  0  0  0  0  0  0  0  0  0
   67.2290   26.1650   50.6690 C   0  0  0  0  0  0  0  0  0  0  0  0
   68.0430   27.1470   50.1010 C   0  0  0  0  0  0  0  0  0  0  0  0
   67.8310   28.5020   50.3700 C   0  0  0  0  0  0  0  0  0  0  0  0
   66.7990   28.8570   51.2120 C   0  0  0  0  0  0  0  0  0  0  0  0
   66.4310   30.5130   51.6360 S   0  0  0  0  0  0  0  0  0  0  0  0
   66.4150   30.7220   53.1090 O   0  0  0  0  0  0  0  0  0  0  0  0
   67.4950   31.4110   51.0180 O   0  0  0  0  0  0  0  0  0  0  0  0
   64.9190   31.0020   50.9210 N   0  0  0  0  0  0  0  0  0  0  0  0
   63.7400   31.0360   51.6780 C   0  0  0  0  0  0  0  0  0  0  0  0
   63.8180   30.6970   52.8960 O   0  0  0  0  0  0  0  0  0  0  0  0
   62.4870   31.4520   51.0440 C   0  0  0  0  0  0  0  0  0  0  0  0
   62.2770   30.9950   49.6460 C   0  0  0  0  0  0  0  0  0  0  0  0
   62.6060   31.9450   48.5890 C   0  0  0  0  0  0  0  0  0  0  0  0
   63.7760   31.8060   47.8600 C   0  0  0  0  0  0  0  0  0  0  0  0
   64.1100   32.7140   46.8470 C   0  0  0  0  0  0  0  0  0  0  0  0
   63.2540   33.7740   46.5690 C   0  0  0  0  0  0  0  0  0  0  0  0
   62.0830   33.9180   47.2940 C   0  0  0  0  0  0  0  0  0  0  0  0
   61.7710   33.0030   48.2970 C   0  0  0  0  0  0  0  0  0  0  0  0
   60.2440   33.2760   49.1750 S   0  0  0  0  0  0  0  0  0  0  0  0
   59.2910   34.6560   48.4720 C   0  0  0  0  0  0  0  0  0  0  0  0
   58.8180   34.1900   47.1460 C   0  0  0  0  0  0  0  0  0  0  0  0
   59.4590   34.6790   46.0340 C   0  0  0  0  0  0  0  0  0  0  0  0
   59.0600   34.2680   44.7800 C   0  0  0  0  0  0  0  0  0  0  0  0
   58.0400   33.3790   44.5510 C   0  0  0  0  0  0  0  0  0  0  0  0
   57.5870   32.9230   43.3710 O   0  0  0  0  0  0  0  0  0  0  0  0
   57.4660   31.6580   42.8180 C   0  0  0  0  0  0  0  0  0  0  0  0
   57.0250   30.6280   43.7770 C   0  0  0  0  0  0  0  0  0  0  0  0
   57.8450   29.5510   44.1310 C   0  0  0  0  0  0  0  0  0  0  0  0
   57.1890   28.7900   45.0230 N   0  0  0  0  0  0  0  0  0  0  0  0
   57.5960   27.5730   45.6920 C   0  0  0  0  0  0  0  0  0  0  0  0
   58.5940   27.8240   46.7650 C   0  0  0  0  0  0  0  0  0  0  0  0
   58.6590   29.1190   47.2830 C   0  0  0  0  0  0  0  0  0  0  0  0
   59.5610   29.4240   48.2800 C   0  0  0  0  0  0  0  0  0  0  0  0
   60.4170   28.4610   48.7850 C   0  0  0  0  0  0  0  0  0  0  0  0
   60.3480   27.1670   48.2620 C   0  0  0  0  0  0  0  0  0  0  0  0
   59.4390   26.8490   47.2540 C   0  0  0  0  0  0  0  0  0  0  0  0
   56.0170   29.3670   45.2140 N   0  0  0  0  0  0  0  0  0  0  0  0
   55.9080   30.4560   44.4820 N   0  0  0  0  0  0  0  0  0  0  0  0
   57.4010   32.8940   45.7100 C   0  0  0  0  0  0  0  0  0  0  0  0
   57.7890   33.2960   46.9670 C   0  0  0  0  0  0  0  0  0  0  0  0
   64.0510   27.5810   52.7360 H   0  0  0  0  0  0  0  0  0  0  0  0
   65.0060   29.0760   53.2080 H   0  0  0  0  0  0  0  0  0  0  0  0
   65.5369   25.7701   51.9701 H   0  0  0  0  0  0  0  0  0  0  0  0
   67.4102   25.1029   50.4473 H   0  0  0  0  0  0  0  0  0  0  0  0
   68.8637   26.8496   49.4316 H   0  0  0  0  0  0  0  0  0  0  0  0
   68.4755   29.2706   49.9184 H   0  0  0  0  0  0  0  0  0  0  0  0
   64.9310   31.2660   49.9190 H   0  0  0  0  0  0  0  0  0  0  0  0
   61.6574   31.0630   51.6526 H   0  0  0  0  0  0  0  0  0  0  0  0
   62.5335   32.5498   50.9915 H   0  0  0  0  0  0  0  0  0  0  0  0
   62.8952   30.0982   49.4922 H   0  0  0  0  0  0  0  0  0  0  0  0
   61.1935   30.8275   49.5567 H   0  0  0  0  0  0  0  0  0  0  0  0
   64.4541   30.9684   48.0805 H   0  0  0  0  0  0  0  0  0  0  0  0
   65.0419   32.5895   46.2760 H   0  0  0  0  0  0  0  0  0  0  0  0
   63.5058   34.4946   45.7770 H   0  0  0  0  0  0  0  0  0  0  0  0
   61.4005   34.7533   47.0783 H   0  0  0  0  0  0  0  0  0  0  0  0
   58.4356   34.8992   49.1195 H   0  0  0  0  0  0  0  0  0  0  0  0
   59.9026   35.5662   48.3854 H   0  0  0  0  0  0  0  0  0  0  0  0
   60.2868   35.3951   46.1435 H   0  0  0  0  0  0  0  0  0  0  0  0
   59.5922   34.6781   43.9090 H   0  0  0  0  0  0  0  0  0  0  0  0
   56.7327   31.7062   41.9995 H   0  0  0  0  0  0  0  0  0  0  0  0
   58.4672   31.3637   42.4702 H   0  0  0  0  0  0  0  0  0  0  0  0
   58.8567   29.3595   43.7440 H   0  0  0  0  0  0  0  0  0  0  0  0
   56.7082   27.1011   46.1383 H   0  0  0  0  0  0  0  0  0  0  0  0
   58.0657   26.9188   44.9427 H   0  0  0  0  0  0  0  0  0  0  0  0
   57.9879   29.8989   46.8941 H   0  0  0  0  0  0  0  0  0  0  0  0
   59.6009   30.4479   48.6800 H   0  0  0  0  0  0  0  0  0  0  0  0
   61.1356   28.7086   49.5802 H   0  0  0  0  0  0  0  0  0  0  0  0
   61.0204   26.3883   48.6512 H   0  0  0  0  0  0  0  0  0  0  0  0
   59.3957   25.8265   46.8507 H   0  0  0  0  0  0  0  0  0  0  0  0
   56.5728   32.1774   45.6069 H   0  0  0  0  0  0  0  0  0  0  0  0
   57.2653   32.8940   47.8469 H   0  0  0  0  0  0  0  0  0  0  0  0
  1  2  1  0
  2  3  2  0
  3  4  1  0
  4  5  2  0
  5  6  1  0
  6  7  2  0
  7  8  1  0
  8  9  2  0
  8 10  2  0
  8 11  1  0
 11 12  1  0
 12 13  2  0
 12 14  1  0
 14 15  1  0
 15 16  1  0
 16 17  2  0
 17 18  1  0
 18 19  2  0
 19 20  1  0
 20 21  2  0
 21 22  1  0
 22 23  1  0
 23 24  1  0
 24 25  2  0
 25 26  1  0
 26 27  2  0
 27 28  1  0
 28 29  1  0
 29 30  1  0
 30 31  2  0
 31 32  1  0
 32 33  1  0
 33 34  1  0
 34 35  2  0
 35 36  1  0
 36 37  2  0
 37 38  1  0
 38 39  2  0
 32 40  1  0
 40 41  2  0
 27 42  1  0
 42 43  2  0
  7  2  1  0
 21 16  1  0
 43 24  1  0
 41 30  1  0
 39 34  1  0
  1 44  1  0
  1 45  1  0
  3 46  1  0
  4 47  1  0
  5 48  1  0
  6 49  1  0
 11 50  1  0
 14 51  1  0
 14 52  1  0
 15 53  1  0
 15 54  1  0
 17 55  1  0
 18 56  1  0
 19 57  1  0
 20 58  1  0
 23 59  1  0
 23 60  1  0
 25 61  1  0
 26 62  1  0
 29 63  1  0
 29 64  1  0
 31 65  1  0
 33 66  1  0
 33 67  1  0
 35 68  1  0
 36 69  1  0
 37 70  1  0
 38 71  1  0
 39 72  1  0
 42 73  1  0
 43 74  1  0
M  END
>  <smiles>  (30) 
Nc1ccccc1S(=O)(=O)NC(=O)CCc1ccccc1SCc1ccc(OCc2cn(Cc3ccccc3)nn2)cc1

>  <score_type>  (30) 
oracle

>  <origin>  (30) 
adg

>  <m_score__min__energy>  (30) 
-12.07

>  <m_primary>  (30) 
energy

$$$$
30:0
     RDKit          3D

 31 32  0  0  1  0  0  0  0  0999 V2000
   57.8510   34.4810   44.4990 O   0  0  0  0  0  0  0  0  0  0  0  0
   58.0570   33.7620   45.4920 C   0  0  0  0  0  0  0  0  0  0  0  0
   58.3550   34.1200   46.8440 C   0  0  0  0  0  0  0  0  0  0  0  0
   59.4550   34.6100   47.3230 C   0  0  0  0  0  0  0  0  0  0  0  0
   60.7490   34.0150   47.4120 C   0  0  0  0  0  0  0  0  0  0  0  0
   61.7120   33.8490   46.4710 C   0  0  0  0  0  0  0  0  0  0  0  0
   63.0010   33.3750   46.7440 C   0  0  0  0  0  0  0  0  0  0  0  0
   63.3600   33.0410   48.0280 C   0  0  0  0  0  0  0  0  0  0  0  0
   62.4000   33.1960   49.0010 C   0  0  0  0  0  0  0  0  0  0  0  0
   61.1420   33.6610   48.7260 C   0  0  0  0  0  0  0  0  0  0  0  0
   60.0220   33.8070   50.0650 Cl  0  0  0  0  0  0  0  0  0  0  0  0
   57.9760   32.3510   45.2050 N   0  0  0  0  0  0  0  0  0  0  0  0
   57.6800   32.0110   43.8340 C   0  0  0  0  0  0  0  0  0  0  0  0
   56.6630   30.8940   43.7700 C   0  0  0  0  0  0  0  0  0  0  0  0
   56.6050   30.1030   44.8850 O   0  0  0  0  0  0  0  0  0  0  0  0
   57.7510   30.0070   45.6320 C   0  0  0  0  0  0  0  0  0  0  0  0
   58.1710   31.3390   46.2190 C   0  0  0  0  0  0  0  0  0  0  0  0
   57.5459   33.9586   47.5716 H   0  0  0  0  0  0  0  0  0  0  0  0
   59.3803   35.6337   47.7186 H   0  0  0  0  0  0  0  0  0  0  0  0
   61.4650   34.1023   45.4294 H   0  0  0  0  0  0  0  0  0  0  0  0
   63.7298   33.2694   45.9269 H   0  0  0  0  0  0  0  0  0  0  0  0
   64.3669   32.6676   48.2662 H   0  0  0  0  0  0  0  0  0  0  0  0
   62.6527   32.9364   50.0396 H   0  0  0  0  0  0  0  0  0  0  0  0
   57.2770   32.8966   43.3209 H   0  0  0  0  0  0  0  0  0  0  0  0
   58.6060   31.6757   43.3441 H   0  0  0  0  0  0  0  0  0  0  0  0
   55.6707   31.3437   43.6181 H   0  0  0  0  0  0  0  0  0  0  0  0
   56.9756   30.2392   42.9432 H   0  0  0  0  0  0  0  0  0  0  0  0
   57.5782   29.2973   46.4544 H   0  0  0  0  0  0  0  0  0  0  0  0
   58.5573   29.6645   44.9667 H   0  0  0  0  0  0  0  0  0  0  0  0
   57.5555   31.5698   47.1010 H   0  0  0  0  0  0  0  0  0  0  0  0
   59.2255   31.3058   46.5304 H   0  0  0  0  0  0  0  0  0  0  0  0
  1  2  2  0
  2  3  1  0
  3  4  2  0
  4  5  1  0
  5  6  2  0
  6  7  1  0
  7  8  2  0
  8  9  1  0
  9 10  2  0
 10 11  1  0
  2 12  1  0
 12 13  1  0
 13 14  1  0
 14 15  1  0
 15 16  1  0
 16 17  1  0
 10  5  1  0
 17 12  1  0
  3 18  1  0
  4 19  1  0
  6 20  1  0
  7 21  1  0
  8 22  1  0
  9 23  1  0
 13 24  1  0
 13 25  1  0
 14 26  1  0
 14 27  1  0
 16 28  1  0
 16 29  1  0
 17 30  1  0
 17 31  1  0
M  END
>  <smiles>  (31) 
O=C(C=Cc1ccccc1Cl)N1CCOCC1

>  <score_type>  (31) 
oracle

>  <origin>  (31) 
adg

>  <m_score__min__energy>  (31) 
-6.9800000000000004

>  <m_primary>  (31) 
energy

$$$$
31:0
     RDKit          3D

 34 35  0  0  0  0  0  0  0  0999 V2000
   65.2070   31.9960   52.2840 C   0  0  0  0  0  0  0  0  0  0  0  0
   64.5130   31.9700   50.9950 N   0  0  0  0  0  0  0  0  0  0  0  0
   63.3300   31.3760   50.7630 C   0  0  0  0  0  0  0  0  0  0  0  0
   62.9620   31.5430   49.4320 C   0  0  0  0  0  0  0  0  0  0  0  0
   61.7360   31.0400   48.7920 C   0  0  0  0  0  0  0  0  0  0  0  0
   60.8930   30.5190   49.5540 O   0  0  0  0  0  0  0  0  0  0  0  0
   61.4980   31.1260   47.4070 N   0  0  0  0  0  0  0  0  0  0  0  0
   60.3640   30.6750   46.7110 C   0  0  0  0  0  0  0  0  0  0  0  0
   60.1840   29.4270   46.1740 C   0  0  0  0  0  0  0  0  0  0  0  0
   59.0140   29.0650   45.4930 C   0  0  0  0  0  0  0  0  0  0  0  0
   57.9780   29.9590   45.3320 C   0  0  0  0  0  0  0  0  0  0  0  0
   56.5250   29.4900   44.4800 S   0  0  0  0  0  0  0  0  0  0  0  0
   56.8440   28.9890   42.8690 N   0  0  0  0  0  0  0  0  0  0  0  0
   55.8900   28.3720   45.2430 O   0  0  0  0  0  0  0  0  0  0  0  0
   55.5430   30.6450   44.5150 O   0  0  0  0  0  0  0  0  0  0  0  0
   58.1500   31.2160   45.8680 C   0  0  0  0  0  0  0  0  0  0  0  0
   59.3020   31.5670   46.5360 C   0  0  0  0  0  0  0  0  0  0  0  0
   63.9930   32.2700   48.8780 C   0  0  0  0  0  0  0  0  0  0  0  0
   64.1320   32.7090   47.5840 O   0  0  0  0  0  0  0  0  0  0  0  0
   64.9570   32.5340   49.8570 C   0  0  0  0  0  0  0  0  0  0  0  0
   66.1450   33.2350   49.7090 O   0  0  0  0  0  0  0  0  0  0  0  0
   64.4684   31.9683   53.0987 H   0  0  0  0  0  0  0  0  0  0  0  0
   65.8706   31.1221   52.3608 H   0  0  0  0  0  0  0  0  0  0  0  0
   65.8034   32.9171   52.3608 H   0  0  0  0  0  0  0  0  0  0  0  0
   62.7383   30.8358   51.5167 H   0  0  0  0  0  0  0  0  0  0  0  0
   62.2640   31.5810   46.8360 H   0  0  0  0  0  0  0  0  0  0  0  0
   60.9868   28.6827   46.2814 H   0  0  0  0  0  0  0  0  0  0  0  0
   58.9211   28.0498   45.0799 H   0  0  0  0  0  0  0  0  0  0  0  0
   56.6740   27.9730   42.7820 H   0  0  0  0  0  0  0  0  0  0  0  0
   57.8480   29.2450   42.6370 H   0  0  0  0  0  0  0  0  0  0  0  0
   57.3462   31.9590   45.7597 H   0  0  0  0  0  0  0  0  0  0  0  0
   59.3895   32.5840   46.9459 H   0  0  0  0  0  0  0  0  0  0  0  0
   65.0310   33.0620   47.3040 H   0  0  0  0  0  0  0  0  0  0  0  0
   66.7250   33.1020   48.8830 H   0  0  0  0  0  0  0  0  0  0  0  0
  1  2  1  0
  2  3  1  0
  3  4  2  0
  4  5  1  0
  5  6  2  0
  5  7  1  0
  7  8  1  0
  8  9  2  0
  9 10  1  0
 10 11  2  0
 11 12  1  0
 12 13  1  0
 12 14  2  0
 12 15  2  0
 11 16  1  0
 16 17  2  0
  4 18  1  0
 18 19  1  0
 18 20  2  0
 20 21  1  0
 20  2  1  0
 17  8  1  0
  1 22  1  0
  1 23  1  0
  1 24  1  0
  3 25  1  0
  7 26  1  0
  9 27  1  0
 10 28  1  0
 13 29  1  0
 13 30  1  0
 16 31  1  0
 17 32  1  0
 19 33  1  0
 21 34  1  0
M  END
>  <smiles>  (32) 
Cn1cc(C(=O)Nc2ccc(S(N)(=O)=O)cc2)c(O)c1O

>  <score_type>  (32) 
oracle

>  <origin>  (32) 
adg

>  <m_score__min__energy>  (32) 
-6.9000000000000004

>  <m_primary>  (32) 
energy

$$$$
32:0
     RDKit          3D

 41 43  0  0  0  0  0  0  0  0999 V2000
   54.8480   24.8700   45.6170 C   0  0  0  0  0  0  0  0  0  0  0  0
   55.0520   26.2260   45.9860 O   0  0  0  0  0  0  0  0  0  0  0  0
   56.3290   26.7330   46.0790 C   0  0  0  0  0  0  0  0  0  0  0  0
   56.6680   27.8970   45.4340 C   0  0  0  0  0  0  0  0  0  0  0  0
   57.9390   28.4090   45.5210 C   0  0  0  0  0  0  0  0  0  0  0  0
   58.9170   27.7560   46.2710 C   0  0  0  0  0  0  0  0  0  0  0  0
   60.3150   28.3240   46.3630 C   0  0  0  0  0  0  0  0  0  0  0  0
   60.4370   29.6040   45.6180 C   0  0  0  0  0  0  0  0  0  0  0  0
   60.2750   30.8030   46.3780 N   0  0  0  0  0  0  0  0  0  0  0  0
   61.1910   31.0120   47.5010 C   0  0  0  0  0  0  0  0  0  0  0  0
   61.5660   32.3970   47.6320 N   0  0  0  0  0  0  0  0  0  0  0  0
   62.9360   32.7850   47.9950 C   0  0  0  0  0  0  0  0  0  0  0  0
   60.6240   33.4400   47.4110 C   0  0  0  0  0  0  0  0  0  0  0  0
   60.8220   34.5980   47.8910 O   0  0  0  0  0  0  0  0  0  0  0  0
   59.4470   33.1140   46.6230 C   0  0  0  0  0  0  0  0  0  0  0  0
   58.5000   34.0810   46.3730 C   0  0  0  0  0  0  0  0  0  0  0  0
   57.3960   33.7380   45.6210 C   0  0  0  0  0  0  0  0  0  0  0  0
   57.3140   32.4520   45.1670 C   0  0  0  0  0  0  0  0  0  0  0  0
   58.2290   31.4980   45.4030 N   0  0  0  0  0  0  0  0  0  0  0  0
   59.3100   31.8120   46.1330 C   0  0  0  0  0  0  0  0  0  0  0  0
   58.5900   26.5770   46.9300 C   0  0  0  0  0  0  0  0  0  0  0  0
   57.2900   26.0930   46.8140 C   0  0  0  0  0  0  0  0  0  0  0  0
   54.7552   24.2534   46.5232 H   0  0  0  0  0  0  0  0  0  0  0  0
   53.9272   24.7867   45.0210 H   0  0  0  0  0  0  0  0  0  0  0  0
   55.7035   24.5195   45.0210 H   0  0  0  0  0  0  0  0  0  0  0  0
   55.9099   28.4271   44.8387 H   0  0  0  0  0  0  0  0  0  0  0  0
   58.1881   29.3422   44.9947 H   0  0  0  0  0  0  0  0  0  0  0  0
   60.5587   28.5023   47.4207 H   0  0  0  0  0  0  0  0  0  0  0  0
   61.0105   27.5986   45.9157 H   0  0  0  0  0  0  0  0  0  0  0  0
   61.4374   29.6306   45.1613 H   0  0  0  0  0  0  0  0  0  0  0  0
   59.6054   29.6017   44.8980 H   0  0  0  0  0  0  0  0  0  0  0  0
   60.6975   30.6870   48.4288 H   0  0  0  0  0  0  0  0  0  0  0  0
   62.1029   30.4261   47.3134 H   0  0  0  0  0  0  0  0  0  0  0  0
   63.0314   32.8120   49.0905 H   0  0  0  0  0  0  0  0  0  0  0  0
   63.6459   32.0526   47.5831 H   0  0  0  0  0  0  0  0  0  0  0  0
   63.1564   33.7809   47.5831 H   0  0  0  0  0  0  0  0  0  0  0  0
   58.6207   35.1023   46.7634 H   0  0  0  0  0  0  0  0  0  0  0  0
   56.6098   34.4733   45.3949 H   0  0  0  0  0  0  0  0  0  0  0  0
   56.4351   32.1784   44.5648 H   0  0  0  0  0  0  0  0  0  0  0  0
   59.3401   26.0394   47.5286 H   0  0  0  0  0  0  0  0  0  0  0  0
   57.0248   25.1601   47.3331 H   0  0  0  0  0  0  0  0  0  0  0  0
  1  2  1  0
  2  3  1  0
  3  4  2  0
  4  5  1  0
  5  6  2  0
  6  7  1  0
  7  8  1  0
  8  9  1  0
  9 10  1  0
 10 11  1  0
 11 12  1  0
 11 13  1  0
 13 14  2  0
 13 15  1  0
 15 16  2  0
 16 17  1  0
 17 18  2  0
 18 19  1  0
 19 20  2  0
  6 21  1  0
 21 22  2  0
 22  3  1  0
 20  9  1  0
 20 15  1  0
  1 23  1  0
  1 24  1  0
  1 25  1  0
  4 26  1  0
  5 27  1  0
  7 28  1  0
  7 29  1  0
  8 30  1  0
  8 31  1  0
 10 32  1  0
 10 33  1  0
 12 34  1  0
 12 35  1  0
 12 36  1  0
 16 37  1  0
 17 38  1  0
 18 39  1  0
 21 40  1  0
 22 41  1  0
M  END
>  <smiles>  (33) 
COc1ccc(CCN2CN(C)C(=O)c3cccnc32)cc1

>  <score_type>  (33) 
oracle

>  <origin>  (33) 
adg

>  <m_score__min__energy>  (33) 
-6.9699999999999998

>  <m_primary>  (33) 
energy

$$$$
33:0
     RDKit          3D

 42 43  0  0  0  0  0  0  0  0999 V2000
   54.5730   24.9440   45.6220 C   0  0  0  0  0  0  0  0  0  0  0  0
   54.8520   26.2700   45.9930 O   0  0  0  0  0  0  0  0  0  0  0  0
   56.1800   26.2950   46.3760 C   0  0  0  0  0  0  0  0  0  0  0  0
   57.1100   26.8040   45.2890 C   0  0  0  0  0  0  0  0  0  0  0  0
   58.0290   27.7620   45.9110 N   0  0  0  0  0  0  0  0  0  0  0  0
   59.1430   27.3170   46.5200 C   0  0  0  0  0  0  0  0  0  0  0  0
   59.9750   28.2580   47.0840 C   0  0  0  0  0  0  0  0  0  0  0  0
   59.7160   29.6050   47.0520 C   0  0  0  0  0  0  0  0  0  0  0  0
   60.6740   30.4950   47.6890 C   0  0  0  0  0  0  0  0  0  0  0  0
   60.3100   30.9820   48.8160 O   0  0  0  0  0  0  0  0  0  0  0  0
   61.9380   30.8290   47.1370 N   0  0  0  0  0  0  0  0  0  0  0  0
   62.8380   31.7250   47.8360 C   0  0  0  0  0  0  0  0  0  0  0  0
   63.0040   33.0600   47.1490 C   0  0  0  0  0  0  0  0  0  0  0  0
   61.6800   33.7440   47.2260 C   0  0  0  0  0  0  0  0  0  0  0  0
   61.0130   34.1850   46.0890 C   0  0  0  0  0  0  0  0  0  0  0  0
   59.7740   34.8230   46.1830 C   0  0  0  0  0  0  0  0  0  0  0  0
   59.2540   34.9910   47.4510 C   0  0  0  0  0  0  0  0  0  0  0  0
   59.8790   34.5710   48.6040 C   0  0  0  0  0  0  0  0  0  0  0  0
   61.1040   33.9430   48.4720 C   0  0  0  0  0  0  0  0  0  0  0  0
   58.5650   30.0260   46.4210 C   0  0  0  0  0  0  0  0  0  0  0  0
   58.1710   31.8890   46.3540 Br  0  0  0  0  0  0  0  0  0  0  0  0
   57.7580   29.0630   45.8670 C   0  0  0  0  0  0  0  0  0  0  0  0
   56.7090   29.4290   45.2890 O   0  0  0  0  0  0  0  0  0  0  0  0
   54.4438   24.3299   46.5255 H   0  0  0  0  0  0  0  0  0  0  0  0
   53.6495   24.9169   45.0250 H   0  0  0  0  0  0  0  0  0  0  0  0
   55.4073   24.5470   45.0250 H   0  0  0  0  0  0  0  0  0  0  0  0
   56.2777   26.9504   47.2540 H   0  0  0  0  0  0  0  0  0  0  0  0
   56.4745   25.2585   46.5971 H   0  0  0  0  0  0  0  0  0  0  0  0
   57.6765   25.9662   44.8563 H   0  0  0  0  0  0  0  0  0  0  0  0
   56.5375   27.2835   44.4814 H   0  0  0  0  0  0  0  0  0  0  0  0
   59.3798   26.2438   46.5656 H   0  0  0  0  0  0  0  0  0  0  0  0
   60.8918   27.9131   47.5845 H   0  0  0  0  0  0  0  0  0  0  0  0
   62.2210   30.4300   46.2260 H   0  0  0  0  0  0  0  0  0  0  0  0
   62.4415   31.8995   48.8471 H   0  0  0  0  0  0  0  0  0  0  0  0
   63.8268   31.2435   47.8562 H   0  0  0  0  0  0  0  0  0  0  0  0
   63.7713   33.6585   47.6620 H   0  0  0  0  0  0  0  0  0  0  0  0
   63.3257   32.9326   46.1048 H   0  0  0  0  0  0  0  0  0  0  0  0
   61.4680   34.0291   45.0997 H   0  0  0  0  0  0  0  0  0  0  0  0
   59.2379   35.1749   45.2892 H   0  0  0  0  0  0  0  0  0  0  0  0
   58.2792   35.4918   47.5462 H   0  0  0  0  0  0  0  0  0  0  0  0
   59.4215   34.7289   49.5918 H   0  0  0  0  0  0  0  0  0  0  0  0
   61.6316   33.5947   49.3722 H   0  0  0  0  0  0  0  0  0  0  0  0
  1  2  1  0
  2  3  1  0
  3  4  1  0
  4  5  1  0
  5  6  1  0
  6  7  2  0
  7  8  1  0
  8  9  1  0
  9 10  2  0
  9 11  1  0
 11 12  1  0
 12 13  1  0
 13 14  1  0
 14 15  2  0
 15 16  1  0
 16 17  2  0
 17 18  1  0
 18 19  2  0
  8 20  2  0
 20 21  1  0
 20 22  1  0
 22 23  2  0
 22  5  1  0
 19 14  1  0
  1 24  1  0
  1 25  1  0
  1 26  1  0
  3 27  1  0
  3 28  1  0
  4 29  1  0
  4 30  1  0
  6 31  1  0
  7 32  1  0
 11 33  1  0
 12 34  1  0
 12 35  1  0
 13 36  1  0
 13 37  1  0
 15 38  1  0
 16 39  1  0
 17 40  1  0
 18 41  1  0
 19 42  1  0
M  END
>  <smiles>  (34) 
COCCn1ccc(C(=O)NCCc2ccccc2)c(Br)c1=O

>  <score_type>  (34) 
oracle

>  <origin>  (34) 
adg

>  <m_score__min__energy>  (34) 
-7.46

>  <m_primary>  (34) 
energy

$$$$
34:0
     RDKit          3D

 40 41  0  0  1  0  0  0  0  0999 V2000
   55.7120   24.1910   44.8830 C   0  0  0  0  0  0  0  0  0  0  0  0
   54.8720   25.1660   45.5940 C   0  0  0  0  0  0  0  0  0  0  0  0
   53.6940   24.8050   45.9040 O   0  0  0  0  0  0  0  0  0  0  0  0
   55.2770   26.4440   45.9450 O   0  0  0  0  0  0  0  0  0  0  0  0
   56.6500   26.6410   46.2110 C   0  0  0  0  0  0  0  0  0  0  0  0
   57.0720   28.0710   45.9530 C   0  0  2  0  0  0  0  0  0  0  0  0
   56.1250   28.7630   45.2460 O   0  0  0  0  0  0  0  0  0  0  0  0
   56.7210   29.4550   44.2240 C   0  0  1  0  0  0  0  0  0  0  0  0
   57.1860   30.7910   44.6150 N   0  0  0  0  0  0  0  0  0  0  0  0
   57.4310   31.0920   45.8800 N   0  0  0  0  0  0  0  0  0  0  0  0
   57.8560   32.3340   46.1840 C   0  0  0  0  0  0  0  0  0  0  0  0
   58.1510   32.7340   47.6020 C   0  0  0  0  0  0  0  0  0  0  0  0
   58.0290   33.2690   45.1910 C   0  0  0  0  0  0  0  0  0  0  0  0
   58.4250   34.4390   45.4380 O   0  0  0  0  0  0  0  0  0  0  0  0
   57.7710   32.9340   43.9040 N   0  0  0  0  0  0  0  0  0  0  0  0
   57.3440   31.6810   43.6070 C   0  0  0  0  0  0  0  0  0  0  0  0
   57.0200   31.2430   42.0480 S   0  0  0  0  0  0  0  0  0  0  0  0
   57.9840   28.6920   43.8610 C   0  0  0  0  0  0  0  0  0  0  0  0
   58.3770   28.1790   45.2540 C   0  0  2  0  0  0  0  0  0  0  0  0
   59.0660   26.9710   45.0580 O   0  0  0  0  0  0  0  0  0  0  0  0
   59.9110   26.5270   46.0780 C   0  0  0  0  0  0  0  0  0  0  0  0
   60.3400   27.5270   47.0910 C   0  0  0  0  0  0  0  0  0  0  0  0
   60.2710   25.3210   46.1010 O   0  0  0  0  0  0  0  0  0  0  0  0
   56.2488   23.5679   45.6135 H   0  0  0  0  0  0  0  0  0  0  0  0
   55.0774   23.5516   44.2518 H   0  0  0  0  0  0  0  0  0  0  0  0
   56.4383   24.7241   44.2518 H   0  0  0  0  0  0  0  0  0  0  0  0
   56.8474   26.3960   47.2651 H   0  0  0  0  0  0  0  0  0  0  0  0
   57.2260   25.9877   45.5391 H   0  0  0  0  0  0  0  0  0  0  0  0
   57.1835   28.5196   46.9512 H   0  0  0  0  0  0  0  0  0  0  0  0
   55.9783   29.5557   43.4188 H   0  0  0  0  0  0  0  0  0  0  0  0
   57.6421   32.0439   48.2911 H   0  0  0  0  0  0  0  0  0  0  0  0
   59.2363   32.6924   47.7765 H   0  0  0  0  0  0  0  0  0  0  0  0
   57.7906   33.7585   47.7765 H   0  0  0  0  0  0  0  0  0  0  0  0
   57.8910   33.6170   43.1250 H   0  0  0  0  0  0  0  0  0  0  0  0
   57.7791   27.8674   43.1624 H   0  0  0  0  0  0  0  0  0  0  0  0
   58.7554   29.2812   43.3434 H   0  0  0  0  0  0  0  0  0  0  0  0
   59.0513   28.8055   45.8564 H   0  0  0  0  0  0  0  0  0  0  0  0
   60.1672   27.1242   48.0999 H   0  0  0  0  0  0  0  0  0  0  0  0
   61.4105   27.7443   46.9613 H   0  0  0  0  0  0  0  0  0  0  0  0
   59.7597   28.4524   46.9613 H   0  0  0  0  0  0  0  0  0  0  0  0
  1  2  1  0
  2  3  2  0
  2  4  1  0
  4  5  1  0
  5  6  1  0
  6  7  1  0
  7  8  1  0
  8  9  1  0
  9 10  1  0
 10 11  2  0
 11 12  1  0
 11 13  1  0
 13 14  2  0
 13 15  1  0
 15 16  1  0
 16 17  2  0
  8 18  1  0
 18 19  1  0
 19 20  1  0
 20 21  1  0
 21 22  1  0
 21 23  2  0
 19  6  1  0
 16  9  1  0
  1 24  1  0
  1 25  1  0
  1 26  1  0
  5 27  1  0
  5 28  1  0
  6 29  1  1
  8 30  1  6
 12 31  1  0
 12 32  1  0
 12 33  1  0
 15 34  1  0
 18 35  1  0
 18 36  1  0
 19 37  1  1
 22 38  1  0
 22 39  1  0
 22 40  1  0
M  END
>  <smiles>  (35) 
CC(=O)OCC1OC(n2nc(C)c(=O)[nH]c2=S)CC1OC(C)=O

>  <score_type>  (35) 
oracle

>  <origin>  (35) 
adg

>  <m_score__min__energy>  (35) 
-7.2800000000000002

>  <m_primary>  (35) 
energy

$$$$
35:0
     RDKit          3D

 48 51  0  0  0  0  0  0  0  0999 V2000
   55.9050   28.6210   44.9370 O   0  0  0  0  0  0  0  0  0  0  0  0
   57.1500   28.7980   45.1340 C   0  0  0  0  0  0  0  0  0  0  0  0
   57.9200   27.6020   45.2680 N   0  0  0  0  0  0  0  0  0  0  0  0
   57.2080   26.3750   45.1630 C   0  0  0  0  0  0  0  0  0  0  0  0
   56.2640   25.9910   46.0760 C   0  0  0  0  0  0  0  0  0  0  0  0
   55.5740   24.7940   45.9680 C   0  0  0  0  0  0  0  0  0  0  0  0
   55.8280   23.9490   44.9230 C   0  0  0  0  0  0  0  0  0  0  0  0
   55.1730   22.7660   44.7820 F   0  0  0  0  0  0  0  0  0  0  0  0
   56.7810   24.3230   43.9910 C   0  0  0  0  0  0  0  0  0  0  0  0
   57.4650   25.5150   44.1020 C   0  0  0  0  0  0  0  0  0  0  0  0
   57.7470   30.1170   45.2190 C   0  0  0  0  0  0  0  0  0  0  0  0
   57.4110   31.1720   44.4050 C   0  0  0  0  0  0  0  0  0  0  0  0
   58.0320   32.3770   44.5640 C   0  0  0  0  0  0  0  0  0  0  0  0
   59.0040   32.5910   45.5240 C   0  0  0  0  0  0  0  0  0  0  0  0
   59.6640   33.9380   45.6710 C   0  0  0  0  0  0  0  0  0  0  0  0
   60.1470   34.1300   47.0020 N   0  0  0  0  0  0  0  0  0  0  0  0
   59.2590   34.7080   48.0020 C   0  0  0  0  0  0  0  0  0  0  0  0
   59.7610   34.4980   49.4050 C   0  0  0  0  0  0  0  0  0  0  0  0
   60.6090   33.2550   49.5370 C   0  0  0  0  0  0  0  0  0  0  0  0
   61.7760   33.2930   48.6130 C   0  0  0  0  0  0  0  0  0  0  0  0
   63.0400   32.9160   48.9780 C   0  0  0  0  0  0  0  0  0  0  0  0
   64.0340   33.0080   48.0080 C   0  0  0  0  0  0  0  0  0  0  0  0
   63.7560   33.4600   46.7320 C   0  0  0  0  0  0  0  0  0  0  0  0
   62.4760   33.8380   46.3730 C   0  0  0  0  0  0  0  0  0  0  0  0
   61.4950   33.7520   47.3190 C   0  0  0  0  0  0  0  0  0  0  0  0
   59.3510   31.5420   46.3470 C   0  0  0  0  0  0  0  0  0  0  0  0
   58.7160   30.3200   46.1810 C   0  0  0  0  0  0  0  0  0  0  0  0
   58.9440   27.6430   45.4310 H   0  0  0  0  0  0  0  0  0  0  0  0
   56.0452   26.6553   46.9250 H   0  0  0  0  0  0  0  0  0  0  0  0
   54.8215   24.5233   46.7233 H   0  0  0  0  0  0  0  0  0  0  0  0
   56.9970   23.6551   43.1441 H   0  0  0  0  0  0  0  0  0  0  0  0
   58.2177   25.7866   43.3472 H   0  0  0  0  0  0  0  0  0  0  0  0
   56.6435   31.0457   43.6272 H   0  0  0  0  0  0  0  0  0  0  0  0
   57.7485   33.2096   43.9034 H   0  0  0  0  0  0  0  0  0  0  0  0
   60.5085   34.0031   44.9692 H   0  0  0  0  0  0  0  0  0  0  0  0
   58.9199   34.7181   45.4527 H   0  0  0  0  0  0  0  0  0  0  0  0
   59.1730   35.7887   47.8156 H   0  0  0  0  0  0  0  0  0  0  0  0
   58.2844   34.2053   47.9158 H   0  0  0  0  0  0  0  0  0  0  0  0
   60.3650   35.3696   49.6975 H   0  0  0  0  0  0  0  0  0  0  0  0
   58.8845   34.3751   50.0582 H   0  0  0  0  0  0  0  0  0  0  0  0
   60.9742   33.1791   50.5718 H   0  0  0  0  0  0  0  0  0  0  0  0
   59.9896   32.3840   49.2768 H   0  0  0  0  0  0  0  0  0  0  0  0
   63.2608   32.5560   49.9937 H   0  0  0  0  0  0  0  0  0  0  0  0
   65.0631   32.7146   48.2626 H   0  0  0  0  0  0  0  0  0  0  0  0
   64.5662   33.5199   45.9904 H   0  0  0  0  0  0  0  0  0  0  0  0
   62.2544   34.1969   45.3571 H   0  0  0  0  0  0  0  0  0  0  0  0
   60.1194   31.6715   47.1234 H   0  0  0  0  0  0  0  0  0  0  0  0
   58.9943   29.4835   46.8389 H   0  0  0  0  0  0  0  0  0  0  0  0
  1  2  2  0
  2  3  1  0
  3  4  1  0
  4  5  2  0
  5  6  1  0
  6  7  2  0
  7  8  1  0
  7  9  1  0
  9 10  2  0
  2 11  1  0
 11 12  2  0
 12 13  1  0
 13 14  2  0
 14 15  1  0
 15 16  1  0
 16 17  1  0
 17 18  1  0
 18 19  1  0
 19 20  1  0
 20 21  2  0
 21 22  1  0
 22 23  2  0
 23 24  1  0
 24 25  2  0
 14 26  1  0
 26 27  2  0
 10  4  1  0
 27 11  1  0
 25 16  1  0
 25 20  1  0
  3 28  1  0
  5 29  1  0
  6 30  1  0
  9 31  1  0
 10 32  1  0
 12 33  1  0
 13 34  1  0
 15 35  1  0
 15 36  1  0
 17 37  1  0
 17 38  1  0
 18 39  1  0
 18 40  1  0
 19 41  1  0
 19 42  1  0
 21 43  1  0
 22 44  1  0
 23 45  1  0
 24 46  1  0
 26 47  1  0
 27 48  1  0
M  END
>  <smiles>  (36) 
O=C(Nc1ccc(F)cc1)c1ccc(CN2CCCc3ccccc32)cc1

>  <score_type>  (36) 
oracle

>  <origin>  (36) 
adg

>  <m_score__min__energy>  (36) 
-8.5

>  <m_primary>  (36) 
energy

$$$$
36:0
     RDKit          3D

 43 46  0  0  1  0  0  0  0  0999 V2000
   59.1140   32.8680   50.7150 C   0  0  0  0  0  0  0  0  0  0  0  0
   58.3550   31.6970   51.0800 N   0  0  0  0  0  0  0  0  0  0  0  0
   57.0710   31.7650   51.4990 C   0  0  0  0  0  0  0  0  0  0  0  0
   56.6720   30.4920   51.7530 C   0  0  0  0  0  0  0  0  0  0  0  0
   57.7160   29.6990   51.4820 N   0  0  0  0  0  0  0  0  0  0  0  0
   58.7770   30.4190   51.0620 C   0  0  0  0  0  0  0  0  0  0  0  0
   60.1370   29.9010   50.6630 C   0  0  0  0  0  0  0  0  0  0  0  0
   60.0650   29.1200   49.4770 N   0  0  0  0  0  0  0  0  0  0  0  0
   59.3750   29.3260   48.4310 C   0  0  0  0  0  0  0  0  0  0  0  0
   59.3200   30.5930   47.8840 C   0  0  0  0  0  0  0  0  0  0  0  0
   58.5470   30.7370   46.7440 C   0  0  0  0  0  0  0  0  0  0  0  0
   57.8980   29.6250   46.2420 C   0  0  0  0  0  0  0  0  0  0  0  0
   57.9820   28.4170   46.8090 N   0  0  0  0  0  0  0  0  0  0  0  0
   58.7210   28.2820   47.8960 N   0  0  0  0  0  0  0  0  0  0  0  0
   57.2210   30.0700   45.1240 C   0  0  0  0  0  0  0  0  0  0  0  0
   56.3690   29.3310   44.2000 C   0  0  0  0  0  0  0  0  0  0  0  0
   56.8910   28.8830   42.9590 N   0  0  0  0  0  0  0  0  0  0  0  0
   55.1550   29.0660   44.4690 O   0  0  0  0  0  0  0  0  0  0  0  0
   57.4860   31.4370   44.9930 C   0  0  0  0  0  0  0  0  0  0  0  0
   58.2990   31.8200   45.9950 N   0  0  0  0  0  0  0  0  0  0  0  0
   58.7800   33.1460   46.1790 C   0  0  0  0  0  0  0  0  0  0  0  0
   58.8060   33.9690   45.0550 C   0  0  0  0  0  0  0  0  0  0  0  0
   59.2620   35.2740   45.1630 C   0  0  0  0  0  0  0  0  0  0  0  0
   59.6870   35.7400   46.3990 C   0  0  0  0  0  0  0  0  0  0  0  0
   59.6680   34.9410   47.5150 C   0  0  0  0  0  0  0  0  0  0  0  0
   59.2090   33.6340   47.3950 C   0  0  0  0  0  0  0  0  0  0  0  0
   59.4497   33.3859   51.6256 H   0  0  0  0  0  0  0  0  0  0  0  0
   59.9892   32.5671   50.1205 H   0  0  0  0  0  0  0  0  0  0  0  0
   58.4819   33.5441   50.1205 H   0  0  0  0  0  0  0  0  0  0  0  0
   56.4659   32.6766   51.6123 H   0  0  0  0  0  0  0  0  0  0  0  0
   55.6821   30.1739   52.1121 H   0  0  0  0  0  0  0  0  0  0  0  0
   60.8088   30.7546   50.4897 H   0  0  0  0  0  0  0  0  0  0  0  0
   60.5180   29.2645   51.4752 H   0  0  0  0  0  0  0  0  0  0  0  0
   59.8605   31.4412   48.3294 H   0  0  0  0  0  0  0  0  0  0  0  0
   58.7660   27.3300   48.3130 H   0  0  0  0  0  0  0  0  0  0  0  0
   57.8200   29.2020   42.6030 H   0  0  0  0  0  0  0  0  0  0  0  0
   56.3670   28.2170   42.3550 H   0  0  0  0  0  0  0  0  0  0  0  0
   57.0942   32.0919   44.2008 H   0  0  0  0  0  0  0  0  0  0  0  0
   58.4650   33.5838   44.0827 H   0  0  0  0  0  0  0  0  0  0  0  0
   59.2865   35.9308   44.2810 H   0  0  0  0  0  0  0  0  0  0  0  0
   60.0481   36.7753   46.4867 H   0  0  0  0  0  0  0  0  0  0  0  0
   60.0096   35.3276   48.4865 H   0  0  0  0  0  0  0  0  0  0  0  0
   59.1879   32.9818   48.2805 H   0  0  0  0  0  0  0  0  0  0  0  0
  1  2  1  0
  2  3  1  0
  3  4  2  0
  4  5  1  0
  5  6  2  0
  6  7  1  0
  7  8  1  0
  8  9  2  0
  9 10  1  0
 10 11  2  0
 11 12  1  0
 12 13  2  0
 13 14  1  0
 12 15  1  0
 15 16  1  0
 16 17  1  0
 16 18  2  0
 15 19  2  0
 19 20  1  0
 20 21  1  0
 21 22  2  0
 22 23  1  0
 23 24  2  0
 24 25  1  0
 25 26  2  0
  6  2  1  0
 14  9  1  0
 26 21  1  0
 20 11  1  0
  1 27  1  0
  1 28  1  0
  1 29  1  0
  3 30  1  0
  4 31  1  0
  7 32  1  0
  7 33  1  0
 10 34  1  0
 14 35  1  0
 17 36  1  0
 17 37  1  0
 19 38  1  0
 22 39  1  0
 23 40  1  0
 24 41  1  0
 25 42  1  0
 26 43  1  0
M  END
>  <smiles>  (37) 
Cn1ccnc1CN=c1cc2c(n[nH]1)c(C(N)=O)cn2-c1ccccc1

>  <score_type>  (37) 
oracle

>  <origin>  (37) 
adg

>  <m_score__min__energy>  (37) 
-8.0700000000000003

>  <m_primary>  (37) 
energy

$$$$
37:0
     RDKit          3D

 25 26  0  0  1  0  0  0  0  0999 V2000
   59.9410   26.9780   46.0520 C   0  0  0  0  0  0  0  0  0  0  0  0
   58.7190   26.5780   45.2530 C   0  0  0  0  0  0  0  0  0  0  0  0
   57.7010   27.6570   45.1740 C   0  0  0  0  0  0  0  0  0  0  0  0
   56.5280   27.8340   45.2770 N   0  0  0  0  0  0  0  0  0  0  0  0
   55.8680   28.9320   45.1550 N   0  0  0  0  0  0  0  0  0  0  0  0
   56.5600   30.0110   44.8800 C   0  0  0  0  0  0  0  0  0  0  0  0
   56.1830   31.2450   44.7010 N   0  0  0  0  0  0  0  0  0  0  0  0
   57.1720   32.2300   44.8580 C   0  0  0  0  0  0  0  0  0  0  0  0
   57.9280   32.7710   43.8610 C   0  0  0  0  0  0  0  0  0  0  0  0
   58.8890   33.7480   44.1200 C   0  0  0  0  0  0  0  0  0  0  0  0
   59.1110   34.2100   45.4050 C   0  0  0  0  0  0  0  0  0  0  0  0
   58.3480   33.6680   46.4250 C   0  0  0  0  0  0  0  0  0  0  0  0
   58.5350   34.0960   47.7130 F   0  0  0  0  0  0  0  0  0  0  0  0
   57.4010   32.7000   46.1480 C   0  0  0  0  0  0  0  0  0  0  0  0
   58.2470   29.4250   44.7920 S   0  0  0  0  0  0  0  0  0  0  0  0
   59.7168   26.9046   47.1264 H   0  0  0  0  0  0  0  0  0  0  0  0
   60.7765   26.3064   45.8051 H   0  0  0  0  0  0  0  0  0  0  0  0
   60.2177   28.0136   45.8051 H   0  0  0  0  0  0  0  0  0  0  0  0
   59.0364   26.3196   44.2320 H   0  0  0  0  0  0  0  0  0  0  0  0
   58.2545   25.7231   45.7662 H   0  0  0  0  0  0  0  0  0  0  0  0
   54.7990   28.9640   45.2730 H   0  0  0  0  0  0  0  0  0  0  0  0
   57.7764   32.4285   42.8267 H   0  0  0  0  0  0  0  0  0  0  0  0
   59.4806   34.1583   43.2883 H   0  0  0  0  0  0  0  0  0  0  0  0
   59.8679   34.9816   45.6092 H   0  0  0  0  0  0  0  0  0  0  0  0
   56.8072   32.2864   46.9765 H   0  0  0  0  0  0  0  0  0  0  0  0
  1  2  1  0
  2  3  1  0
  3  4  2  0
  4  5  1  0
  5  6  1  0
  6  7  2  0
  7  8  1  0
  8  9  2  0
  9 10  1  0
 10 11  2  0
 11 12  1  0
 12 13  1  0
 12 14  2  0
  6 15  1  0
 15  3  1  0
 14  8  1  0
  1 16  1  0
  1 17  1  0
  1 18  1  0
  2 19  1  0
  2 20  1  0
  5 21  1  0
  9 22  1  0
 10 23  1  0
 11 24  1  0
 14 25  1  0
M  END
>  <smiles>  (38) 
CCc1n[nH]c(=Nc2cccc(F)c2)s1

>  <score_type>  (38) 
oracle

>  <origin>  (38) 
adg

>  <m_score__min__energy>  (38) 
-6.0099999999999998

>  <m_primary>  (38) 
energy

$$$$
38:0
     RDKit          3D

 32 33  0  0  0  0  0  0  0  0999 V2000
   59.5500   34.8620   45.7780 C   0  0  0  0  0  0  0  0  0  0  0  0
   60.0930   34.7230   47.5210 S   0  0  0  0  0  0  0  0  0  0  0  0
   61.3600   33.4580   47.6030 C   0  0  0  0  0  0  0  0  0  0  0  0
   62.5890   33.8400   48.0870 C   0  0  0  0  0  0  0  0  0  0  0  0
   63.6330   32.9510   48.1920 C   0  0  0  0  0  0  0  0  0  0  0  0
   63.4000   31.6580   47.7950 C   0  0  0  0  0  0  0  0  0  0  0  0
   62.1470   31.2740   47.3040 C   0  0  0  0  0  0  0  0  0  0  0  0
   61.0950   32.1400   47.1900 C   0  0  0  0  0  0  0  0  0  0  0  0
   59.8130   31.8350   46.7090 N   0  0  0  0  0  0  0  0  0  0  0  0
   59.4120   30.7440   45.9370 C   0  0  0  0  0  0  0  0  0  0  0  0
   60.3010   29.9040   45.6130 O   0  0  0  0  0  0  0  0  0  0  0  0
   58.0720   30.4570   45.4550 C   0  0  0  0  0  0  0  0  0  0  0  0
   57.2160   31.1820   44.6690 C   0  0  0  0  0  0  0  0  0  0  0  0
   57.3980   32.5190   44.0590 C   0  0  0  0  0  0  0  0  0  0  0  0
   56.0750   30.4540   44.5080 N   0  0  0  0  0  0  0  0  0  0  0  0
   56.1900   29.3330   45.1510 O   0  0  0  0  0  0  0  0  0  0  0  0
   57.3570   29.2790   45.7330 C   0  0  0  0  0  0  0  0  0  0  0  0
   57.8120   28.1320   46.5480 C   0  0  0  0  0  0  0  0  0  0  0  0
   58.4848   35.1347   45.7464 H   0  0  0  0  0  0  0  0  0  0  0  0
   60.1422   35.6375   45.2702 H   0  0  0  0  0  0  0  0  0  0  0  0
   59.6968   33.8973   45.2702 H   0  0  0  0  0  0  0  0  0  0  0  0
   62.7411   34.8840   48.3984 H   0  0  0  0  0  0  0  0  0  0  0  0
   64.6144   33.2634   48.5783 H   0  0  0  0  0  0  0  0  0  0  0  0
   64.2079   30.9146   47.8636 H   0  0  0  0  0  0  0  0  0  0  0  0
   62.0019   30.2281   46.9958 H   0  0  0  0  0  0  0  0  0  0  0  0
   59.0500   32.5300   46.9680 H   0  0  0  0  0  0  0  0  0  0  0  0
   57.5007   33.2734   44.8530 H   0  0  0  0  0  0  0  0  0  0  0  0
   58.3042   32.5173   43.4354 H   0  0  0  0  0  0  0  0  0  0  0  0
   56.5243   32.7595   43.4354 H   0  0  0  0  0  0  0  0  0  0  0  0
   57.7141   28.3789   47.6155 H   0  0  0  0  0  0  0  0  0  0  0  0
   57.1953   27.2508   46.3174 H   0  0  0  0  0  0  0  0  0  0  0  0
   58.8651   27.9131   46.3174 H   0  0  0  0  0  0  0  0  0  0  0  0
  1  2  1  0
  2  3  1  0
  3  4  2  0
  4  5  1  0
  5  6  2  0
  6  7  1  0
  7  8  2  0
  8  9  1  0
  9 10  1  0
 10 11  2  0
 10 12  1  0
 12 13  1  0
 13 14  1  0
 13 15  2  0
 15 16  1  0
 16 17  1  0
 17 18  1  0
  8  3  1  0
 17 12  2  0
  1 19  1  0
  1 20  1  0
  1 21  1  0
  4 22  1  0
  5 23  1  0
  6 24  1  0
  7 25  1  0
  9 26  1  0
 14 27  1  0
 14 28  1  0
 14 29  1  0
 18 30  1  0
 18 31  1  0
 18 32  1  0
M  END
>  <smiles>  (39) 
CSc1ccccc1NC(=O)c1c(C)noc1C

>  <score_type>  (39) 
oracle

>  <origin>  (39) 
adg

>  <m_score__min__energy>  (39) 
-6.7999999999999998

>  <m_primary>  (39) 
energy

$$$$
39:0
     RDKit          3D

 71 74  0  0  1  0  0  0  0  0999 V2000
   58.9930   33.6740   51.9140 C   0  0  0  0  0  0  0  0  0  0  0  0
   58.7680   32.3720   51.3670 O   0  0  0  0  0  0  0  0  0  0  0  0
   58.0420   31.4430   52.0780 C   0  0  0  0  0  0  0  0  0  0  0  0
   57.0290   31.7850   52.9400 C   0  0  0  0  0  0  0  0  0  0  0  0
   56.3130   30.8160   53.6440 C   0  0  0  0  0  0  0  0  0  0  0  0
   56.6400   29.4870   53.4610 C   0  0  0  0  0  0  0  0  0  0  0  0
   57.6550   29.1140   52.5990 C   0  0  0  0  0  0  0  0  0  0  0  0
   58.3600   30.1020   51.9020 C   0  0  0  0  0  0  0  0  0  0  0  0
   59.3980   29.6770   51.0250 N   0  0  0  0  0  0  0  0  0  0  0  0
   59.2520   29.7350   49.7380 C   0  0  0  0  0  0  0  0  0  0  0  0
   59.0780   28.6250   48.9980 N   0  0  0  0  0  0  0  0  0  0  0  0
   58.9350   28.7970   47.6690 C   0  0  0  0  0  0  0  0  0  0  0  0
   58.7490   27.6300   46.8890 N   0  0  0  0  0  0  0  0  0  0  0  0
   57.6790   26.6760   47.0920 C   0  0  0  0  0  0  0  0  0  0  0  0
   57.2200   26.2160   45.7150 C   0  0  0  0  0  0  0  0  0  0  0  0
   57.4800   27.2520   44.8230 O   0  0  0  0  0  0  0  0  0  0  0  0
   58.8470   27.2460   44.5090 C   0  0  0  0  0  0  0  0  0  0  0  0
   59.6750   27.3360   45.7950 C   0  0  0  0  0  0  0  0  0  0  0  0
   58.9690   30.0510   47.1000 C   0  0  0  0  0  0  0  0  0  0  0  0
   58.8240   30.2680   45.7060 N   0  0  0  0  0  0  0  0  0  0  0  0
   57.6370   30.0600   44.9790 C   0  0  0  0  0  0  0  0  0  0  0  0
   56.5910   29.6580   45.5250 O   0  0  0  0  0  0  0  0  0  0  0  0
   57.5550   30.3120   43.4970 C   0  0  1  0  0  0  0  0  0  0  0  0
   56.4620   29.5030   42.9880 N   0  0  0  0  0  0  0  0  0  0  0  0
   57.3900   31.7650   43.2470 C   0  0  0  0  0  0  0  0  0  0  0  0
   57.1610   32.5370   44.4880 C   0  0  0  0  0  0  0  0  0  0  0  0
   57.9010   33.8230   44.5520 C   0  0  0  0  0  0  0  0  0  0  0  0
   59.1970   33.6660   45.2310 N   0  0  0  0  0  0  0  0  0  0  0  0
   59.4420   34.1910   46.5210 C   0  0  0  0  0  0  0  0  0  0  0  0
   58.4880   34.8110   47.0790 O   0  0  0  0  0  0  0  0  0  0  0  0
   60.7180   34.0410   47.2030 C   0  0  0  0  0  0  0  0  0  0  0  0
   60.8620   34.1450   48.5750 C   0  0  0  0  0  0  0  0  0  0  0  0
   62.0830   34.0000   49.2080 C   0  0  0  0  0  0  0  0  0  0  0  0
   63.2210   33.7400   48.4680 C   0  0  0  0  0  0  0  0  0  0  0  0
   63.0740   33.6360   47.1010 C   0  0  0  0  0  0  0  0  0  0  0  0
   61.8530   33.7820   46.4770 C   0  0  0  0  0  0  0  0  0  0  0  0
   59.1510   31.1960   47.8810 C   0  0  0  0  0  0  0  0  0  0  0  0
   59.2890   30.9770   49.2020 N   0  0  0  0  0  0  0  0  0  0  0  0
   58.9831   33.6169   53.0125 H   0  0  0  0  0  0  0  0  0  0  0  0
   59.9695   34.0503   51.5751 H   0  0  0  0  0  0  0  0  0  0  0  0
   58.1994   34.3562   51.5751 H   0  0  0  0  0  0  0  0  0  0  0  0
   56.7764   32.8466   53.0786 H   0  0  0  0  0  0  0  0  0  0  0  0
   55.5041   31.1051   54.3311 H   0  0  0  0  0  0  0  0  0  0  0  0
   56.0842   28.7125   54.0097 H   0  0  0  0  0  0  0  0  0  0  0  0
   57.9057   28.0517   52.4625 H   0  0  0  0  0  0  0  0  0  0  0  0
   58.0449   25.8172   47.6739 H   0  0  0  0  0  0  0  0  0  0  0  0
   56.8477   27.1335   47.6485 H   0  0  0  0  0  0  0  0  0  0  0  0
   57.7740   25.3140   45.4157 H   0  0  0  0  0  0  0  0  0  0  0  0
   56.1477   25.9710   45.7244 H   0  0  0  0  0  0  0  0  0  0  0  0
   59.0959   26.3149   43.9788 H   0  0  0  0  0  0  0  0  0  0  0  0
   59.0763   28.1100   43.8680 H   0  0  0  0  0  0  0  0  0  0  0  0
   60.1862   26.3800   45.9812 H   0  0  0  0  0  0  0  0  0  0  0  0
   60.4406   28.1214   45.7111 H   0  0  0  0  0  0  0  0  0  0  0  0
   59.6960   30.6130   45.2080 H   0  0  0  0  0  0  0  0  0  0  0  0
   58.4750   30.0224   42.9682 H   0  0  0  0  0  0  0  0  0  0  0  0
   55.5910   30.0580   42.9220 H   0  0  0  0  0  0  0  0  0  0  0  0
   56.3400   28.6740   43.5890 H   0  0  0  0  0  0  0  0  0  0  0  0
   58.3009   32.1437   42.7604 H   0  0  0  0  0  0  0  0  0  0  0  0
   56.5034   31.8930   42.6085 H   0  0  0  0  0  0  0  0  0  0  0  0
   56.0854   32.7540   44.5654 H   0  0  0  0  0  0  0  0  0  0  0  0
   57.5324   31.9177   45.3178 H   0  0  0  0  0  0  0  0  0  0  0  0
   58.0754   34.1864   43.5285 H   0  0  0  0  0  0  0  0  0  0  0  0
   57.2960   34.5413   45.1247 H   0  0  0  0  0  0  0  0  0  0  0  0
   59.9390   33.1480   44.7190 H   0  0  0  0  0  0  0  0  0  0  0  0
   59.9708   34.3510   49.1861 H   0  0  0  0  0  0  0  0  0  0  0  0
   62.1486   34.0917   50.3022 H   0  0  0  0  0  0  0  0  0  0  0  0
   64.2029   33.6210   48.9495 H   0  0  0  0  0  0  0  0  0  0  0  0
   63.9624   33.4292   46.4862 H   0  0  0  0  0  0  0  0  0  0  0  0
   61.7881   33.6896   45.3828 H   0  0  0  0  0  0  0  0  0  0  0  0
   59.1795   32.2060   47.4462 H   0  0  0  0  0  0  0  0  0  0  0  0
   59.4280   31.8240   49.8030 H   0  0  0  0  0  0  0  0  0  0  0  0
  1  2  1  0
  2  3  1  0
  3  4  2  0
  4  5  1  0
  5  6  2  0
  6  7  1  0
  7  8  2  0
  8  9  1  0
  9 10  2  0
 10 11  1  0
 11 12  2  0
 12 13  1  0
 13 14  1  0
 14 15  1  0
 15 16  1  0
 16 17  1  0
 17 18  1  0
 12 19  1  0
 19 20  1  0
 20 21  1  0
 21 22  2  0
 21 23  1  0
 23 24  1  0
 23 25  1  0
 25 26  1  0
 26 27  1  0
 27 28  1  0
 28 29  1  0
 29 30  2  0
 29 31  1  0
 31 32  2  0
 32 33  1  0
 33 34  2  0
 34 35  1  0
 35 36  2  0
 19 37  2  0
 37 38  1  0
  8  3  1  0
 38 10  1  0
 18 13  1  0
 36 31  1  0
  1 39  1  0
  1 40  1  0
  1 41  1  0
  4 42  1  0
  5 43  1  0
  6 44  1  0
  7 45  1  0
 14 46  1  0
 14 47  1  0
 15 48  1  0
 15 49  1  0
 17 50  1  0
 17 51  1  0
 18 52  1  0
 18 53  1  0
 20 54  1  0
 23 55  1  6
 24 56  1  0
 24 57  1  0
 25 58  1  0
 25 59  1  0
 26 60  1  0
 26 61  1  0
 27 62  1  0
 27 63  1  0
 28 64  1  0
 32 65  1  0
 33 66  1  0
 34 67  1  0
 35 68  1  0
 36 69  1  0
 37 70  1  0
 38 71  1  0
M  END
>  <smiles>  (40) 
COc1ccccc1N=c1nc(N2CCOCC2)c(NC(=O)C(N)CCCNC(=O)c2ccccc2)c[nH]1

>  <score_type>  (40) 
oracle

>  <origin>  (40) 
adg

>  <m_score__min__energy>  (40) 
-9.2400000000000002

>  <m_primary>  (40) 
energy

$$$$
40:0
     RDKit          3D

 38 40  0  0  0  0  0  0  0  0999 V2000
   63.0260   33.8330   46.7730 C   0  0  0  0  0  0  0  0  0  0  0  0
   61.5760   33.6320   47.0690 C   0  0  0  0  0  0  0  0  0  0  0  0
   61.1840   33.5470   48.3930 C   0  0  0  0  0  0  0  0  0  0  0  0
   59.8470   33.3610   48.6610 C   0  0  0  0  0  0  0  0  0  0  0  0
   59.3780   33.2630   50.0760 C   0  0  0  0  0  0  0  0  0  0  0  0
   58.9780   33.2700   47.6000 C   0  0  0  0  0  0  0  0  0  0  0  0
   57.7570   33.0990   47.8870 O   0  0  0  0  0  0  0  0  0  0  0  0
   59.3950   33.3570   46.3210 N   0  0  0  0  0  0  0  0  0  0  0  0
   58.3740   33.2450   45.2810 C   0  0  0  0  0  0  0  0  0  0  0  0
   57.8990   31.8380   45.1900 C   0  0  0  0  0  0  0  0  0  0  0  0
   56.6530   31.4090   44.8580 N   0  0  0  0  0  0  0  0  0  0  0  0
   56.6170   30.0920   44.8860 O   0  0  0  0  0  0  0  0  0  0  0  0
   57.7980   29.6340   45.2260 C   0  0  0  0  0  0  0  0  0  0  0  0
   58.1710   28.2300   45.3710 C   0  0  0  0  0  0  0  0  0  0  0  0
   58.1730   27.2710   44.3840 C   0  0  0  0  0  0  0  0  0  0  0  0
   57.8040   27.4200   42.9580 C   0  0  0  0  0  0  0  0  0  0  0  0
   58.5950   26.1380   45.0170 N   0  0  0  0  0  0  0  0  0  0  0  0
   58.8330   26.3540   46.2590 O   0  0  0  0  0  0  0  0  0  0  0  0
   58.5920   27.6080   46.5280 C   0  0  0  0  0  0  0  0  0  0  0  0
   58.7550   28.2410   47.8820 C   0  0  0  0  0  0  0  0  0  0  0  0
   58.6020   30.6950   45.4190 N   0  0  0  0  0  0  0  0  0  0  0  0
   60.6990   33.5390   46.0270 C   0  0  0  0  0  0  0  0  0  0  0  0
   63.5856   33.9106   47.7168 H   0  0  0  0  0  0  0  0  0  0  0  0
   63.4035   32.9786   46.1921 H   0  0  0  0  0  0  0  0  0  0  0  0
   63.1569   34.7579   46.1921 H   0  0  0  0  0  0  0  0  0  0  0  0
   61.9192   33.6258   49.2074 H   0  0  0  0  0  0  0  0  0  0  0  0
   60.2244   33.4399   50.7559 H   0  0  0  0  0  0  0  0  0  0  0  0
   58.5984   34.0176   50.2570 H   0  0  0  0  0  0  0  0  0  0  0  0
   58.9658   32.2593   50.2570 H   0  0  0  0  0  0  0  0  0  0  0  0
   57.5267   33.9011   45.5291 H   0  0  0  0  0  0  0  0  0  0  0  0
   58.8054   33.5457   44.3148 H   0  0  0  0  0  0  0  0  0  0  0  0
   56.7864   27.8309   42.8836 H   0  0  0  0  0  0  0  0  0  0  0  0
   58.5120   28.1027   42.4654 H   0  0  0  0  0  0  0  0  0  0  0  0
   57.8395   26.4371   42.4654 H   0  0  0  0  0  0  0  0  0  0  0  0
   58.5618   27.4909   48.6631 H   0  0  0  0  0  0  0  0  0  0  0  0
   59.7810   28.6236   47.9868 H   0  0  0  0  0  0  0  0  0  0  0  0
   58.0414   29.0716   47.9868 H   0  0  0  0  0  0  0  0  0  0  0  0
   61.0433   33.6099   44.9847 H   0  0  0  0  0  0  0  0  0  0  0  0
  1  2  1  0
  2  3  1  0
  3  4  2  0
  4  5  1  0
  4  6  1  0
  6  7  2  0
  6  8  1  0
  8  9  1  0
  9 10  1  0
 10 11  2  0
 11 12  1  0
 12 13  1  0
 13 14  1  0
 14 15  1  0
 15 16  1  0
 15 17  2  0
 17 18  1  0
 18 19  1  0
 19 20  1  0
 13 21  2  0
  8 22  1  0
 22  2  2  0
 21 10  1  0
 19 14  2  0
  1 23  1  0
  1 24  1  0
  1 25  1  0
  3 26  1  0
  5 27  1  0
  5 28  1  0
  5 29  1  0
  9 30  1  0
  9 31  1  0
 16 32  1  0
 16 33  1  0
 16 34  1  0
 20 35  1  0
 20 36  1  0
 20 37  1  0
 22 38  1  0
M  END
>  <smiles>  (41) 
Cc1cc(C)c(=O)n(Cc2noc(-c3c(C)noc3C)n2)c1

>  <score_type>  (41) 
oracle

>  <origin>  (41) 
adg

>  <m_score__min__energy>  (41) 
-7.5499999999999998

>  <m_primary>  (41) 
energy

$$$$
41:0
     RDKit          3D

 50 53  0  0  1  0  0  0  0  0999 V2000
   55.2690   30.1150   52.0050 C   0  0  0  0  0  0  0  0  0  0  0  0
   56.6380   30.0820   51.7000 O   0  0  0  0  0  0  0  0  0  0  0  0
   57.5190   30.9000   52.3940 C   0  0  0  0  0  0  0  0  0  0  0  0
   57.2720   31.2600   53.7070 C   0  0  0  0  0  0  0  0  0  0  0  0
   58.1330   32.0750   54.4290 C   0  0  0  0  0  0  0  0  0  0  0  0
   59.2700   32.5260   53.7840 C   0  0  0  0  0  0  0  0  0  0  0  0
   59.5320   32.1850   52.4930 C   0  0  0  0  0  0  0  0  0  0  0  0
   58.6790   31.3750   51.7730 C   0  0  0  0  0  0  0  0  0  0  0  0
   58.9280   30.9840   50.3910 C   0  0  0  0  0  0  0  0  0  0  0  0
   59.6380   31.6870   49.5400 C   0  0  0  0  0  0  0  0  0  0  0  0
   61.0130   31.5780   49.5260 O   0  0  0  0  0  0  0  0  0  0  0  0
   61.7830   32.3040   48.6420 C   0  0  0  0  0  0  0  0  0  0  0  0
   63.1590   32.1560   48.6740 C   0  0  0  0  0  0  0  0  0  0  0  0
   63.9890   32.8590   47.8110 C   0  0  0  0  0  0  0  0  0  0  0  0
   63.4040   33.7350   46.8920 C   0  0  0  0  0  0  0  0  0  0  0  0
   62.0390   33.8900   46.8510 C   0  0  0  0  0  0  0  0  0  0  0  0
   61.2480   33.1870   47.7110 C   0  0  0  0  0  0  0  0  0  0  0  0
   59.8360   33.3460   47.6720 N   0  0  0  0  0  0  0  0  0  0  0  0
   59.1560   34.2340   46.7490 C   0  0  0  0  0  0  0  0  0  0  0  0
   58.6550   33.5040   45.5270 C   0  0  0  0  0  0  0  0  0  0  0  0
   58.7780   34.1220   44.4470 O   0  0  0  0  0  0  0  0  0  0  0  0
   58.0900   32.2110   45.6360 N   0  0  0  0  0  0  0  0  0  0  0  0
   57.5880   31.4330   44.5760 C   0  0  0  0  0  0  0  0  0  0  0  0
   57.4920   31.8330   43.2660 C   0  0  0  0  0  0  0  0  0  0  0  0
   56.9840   31.0010   42.2620 C   0  0  0  0  0  0  0  0  0  0  0  0
   56.5550   29.7250   42.5630 C   0  0  0  0  0  0  0  0  0  0  0  0
   56.6570   29.3360   43.8820 C   0  0  0  0  0  0  0  0  0  0  0  0
   57.1560   30.1550   44.8670 C   0  0  0  0  0  0  0  0  0  0  0  0
   57.2110   29.6710   46.1310 F   0  0  0  0  0  0  0  0  0  0  0  0
   59.0200   32.5940   48.5870 C   0  0  0  0  0  0  0  0  0  0  0  0
   57.7720   32.7380   48.5480 O   0  0  0  0  0  0  0  0  0  0  0  0
   55.1366   30.1182   53.0970 H   0  0  0  0  0  0  0  0  0  0  0  0
   54.8202   31.0242   51.5786 H   0  0  0  0  0  0  0  0  0  0  0  0
   54.7769   29.2285   51.5786 H   0  0  0  0  0  0  0  0  0  0  0  0
   56.3603   30.8868   54.1964 H   0  0  0  0  0  0  0  0  0  0  0  0
   57.9194   32.3510   55.4722 H   0  0  0  0  0  0  0  0  0  0  0  0
   59.9763   33.1729   54.3250 H   0  0  0  0  0  0  0  0  0  0  0  0
   60.4458   32.5644   52.0123 H   0  0  0  0  0  0  0  0  0  0  0  0
   58.4922   30.0376   50.0382 H   0  0  0  0  0  0  0  0  0  0  0  0
   63.6065   31.4634   49.4021 H   0  0  0  0  0  0  0  0  0  0  0  0
   65.0807   32.7297   47.8495 H   0  0  0  0  0  0  0  0  0  0  0  0
   64.0399   34.3036   46.1975 H   0  0  0  0  0  0  0  0  0  0  0  0
   61.5850   34.5806   46.1251 H   0  0  0  0  0  0  0  0  0  0  0  0
   58.2995   34.6934   47.2642 H   0  0  0  0  0  0  0  0  0  0  0  0
   59.8767   34.9960   46.4176 H   0  0  0  0  0  0  0  0  0  0  0  0
   58.0560   31.8190   46.6210 H   0  0  0  0  0  0  0  0  0  0  0  0
   57.8269   32.8453   42.9956 H   0  0  0  0  0  0  0  0  0  0  0  0
   56.9264   31.3668   41.2262 H   0  0  0  0  0  0  0  0  0  0  0  0
   56.1525   29.0527   41.7910 H   0  0  0  0  0  0  0  0  0  0  0  0
   56.3241   28.3247   44.1585 H   0  0  0  0  0  0  0  0  0  0  0  0
  1  2  1  0
  2  3  1  0
  3  4  2  0
  4  5  1  0
  5  6  2  0
  6  7  1  0
  7  8  2  0
  8  9  1  0
  9 10  2  0
 10 11  1  0
 11 12  1  0
 12 13  2  0
 13 14  1  0
 14 15  2  0
 15 16  1  0
 16 17  2  0
 17 18  1  0
 18 19  1  0
 19 20  1  0
 20 21  2  0
 20 22  1  0
 22 23  1  0
 23 24  2  0
 24 25  1  0
 25 26  2  0
 26 27  1  0
 27 28  2  0
 28 29  1  0
 18 30  1  0
 30 31  2  0
  8  3  1  0
 30 10  1  0
 17 12  1  0
 28 23  1  0
  1 32  1  0
  1 33  1  0
  1 34  1  0
  4 35  1  0
  5 36  1  0
  6 37  1  0
  7 38  1  0
  9 39  1  0
 13 40  1  0
 14 41  1  0
 15 42  1  0
 16 43  1  0
 19 44  1  0
 19 45  1  0
 22 46  1  0
 24 47  1  0
 25 48  1  0
 26 49  1  0
 27 50  1  0
M  END
>  <smiles>  (42) 
COc1ccccc1C=C1Oc2ccccc2N(CC(=O)Nc2ccccc2F)C1=O

>  <score_type>  (42) 
oracle

>  <origin>  (42) 
adg

>  <m_score__min__energy>  (42) 
-8.1799999999999997

>  <m_primary>  (42) 
energy

$$$$
42:0
     RDKit          3D

 52 54  0  0  1  0  0  0  0  0999 V2000
   56.6700   23.9410   43.5100 C   0  0  0  0  0  0  0  0  0  0  0  0
   57.4160   25.2140   43.9250 C   0  0  0  0  0  0  0  0  0  0  0  0
   57.7450   25.0430   45.3920 C   0  0  0  0  0  0  0  0  0  0  0  0
   56.9160   26.2880   46.4080 S   0  0  0  0  0  0  0  0  0  0  0  0
   57.6290   27.8810   46.0200 C   0  0  0  0  0  0  0  0  0  0  0  0
   58.9120   28.1170   46.4930 C   0  0  0  0  0  0  0  0  0  0  0  0
   59.4940   29.3400   46.2110 C   0  0  0  0  0  0  0  0  0  0  0  0
   60.8390   29.6980   46.6530 C   0  0  0  0  0  0  0  0  0  0  0  0
   61.1160   30.4140   47.7040 C   0  0  0  0  0  0  0  0  0  0  0  0
   62.0310   31.5440   47.7420 C   0  0  0  0  0  0  0  0  0  0  0  0
   62.9550   31.7260   48.7540 C   0  0  0  0  0  0  0  0  0  0  0  0
   63.8160   32.8080   48.7720 C   0  0  0  0  0  0  0  0  0  0  0  0
   63.7900   33.7630   47.7710 C   0  0  0  0  0  0  0  0  0  0  0  0
   62.8780   33.5920   46.7640 C   0  0  0  0  0  0  0  0  0  0  0  0
   62.0210   32.5090   46.7500 C   0  0  0  0  0  0  0  0  0  0  0  0
   58.7700   30.2050   45.5010 N   0  0  0  0  0  0  0  0  0  0  0  0
   57.5610   30.0280   45.0370 N   0  0  0  0  0  0  0  0  0  0  0  0
   56.8050   30.9860   44.2620 C   0  0  0  0  0  0  0  0  0  0  0  0
   56.5480   32.1730   44.8600 O   0  0  0  0  0  0  0  0  0  0  0  0
   57.4080   33.2110   44.7210 C   0  0  0  0  0  0  0  0  0  0  0  0
   58.1610   33.4950   45.9570 C   0  0  0  0  0  0  0  0  0  0  0  0
   59.0120   34.6060   45.9340 C   0  0  0  0  0  0  0  0  0  0  0  0
   59.7430   34.9390   47.0680 C   0  0  0  0  0  0  0  0  0  0  0  0
   59.6640   34.2160   48.2230 C   0  0  0  0  0  0  0  0  0  0  0  0
   58.8380   33.1280   48.2600 C   0  0  0  0  0  0  0  0  0  0  0  0
   58.1060   32.7950   47.1230 C   0  0  0  0  0  0  0  0  0  0  0  0
   56.9660   28.8460   45.2940 C   0  0  0  0  0  0  0  0  0  0  0  0
   55.8170   28.6190   44.8780 O   0  0  0  0  0  0  0  0  0  0  0  0
   56.3496   23.3942   44.4091 H   0  0  0  0  0  0  0  0  0  0  0  0
   55.7876   24.2117   42.9115 H   0  0  0  0  0  0  0  0  0  0  0  0
   57.3374   23.3035   42.9115 H   0  0  0  0  0  0  0  0  0  0  0  0
   58.3386   25.3257   43.3366 H   0  0  0  0  0  0  0  0  0  0  0  0
   56.8076   26.1136   43.7500 H   0  0  0  0  0  0  0  0  0  0  0  0
   57.4207   24.0433   45.7167 H   0  0  0  0  0  0  0  0  0  0  0  0
   58.8312   25.1630   45.5179 H   0  0  0  0  0  0  0  0  0  0  0  0
   59.4503   27.3543   47.0749 H   0  0  0  0  0  0  0  0  0  0  0  0
   61.6843   29.3340   46.0505 H   0  0  0  0  0  0  0  0  0  0  0  0
   60.6150   30.1410   48.6445 H   0  0  0  0  0  0  0  0  0  0  0  0
   63.0069   30.9887   49.5687 H   0  0  0  0  0  0  0  0  0  0  0  0
   64.5353   32.9115   49.5978 H   0  0  0  0  0  0  0  0  0  0  0  0
   64.4740   34.6244   47.7837 H   0  0  0  0  0  0  0  0  0  0  0  0
   62.8270   34.3311   45.9509 H   0  0  0  0  0  0  0  0  0  0  0  0
   61.3050   32.4099   45.9208 H   0  0  0  0  0  0  0  0  0  0  0  0
   57.3689   31.1906   43.3399 H   0  0  0  0  0  0  0  0  0  0  0  0
   55.8216   30.5207   44.0997 H   0  0  0  0  0  0  0  0  0  0  0  0
   58.1231   32.9709   43.9204 H   0  0  0  0  0  0  0  0  0  0  0  0
   56.8140   34.1051   44.4807 H   0  0  0  0  0  0  0  0  0  0  0  0
   59.1019   35.2135   45.0214 H   0  0  0  0  0  0  0  0  0  0  0  0
   60.4077   35.8148   47.0336 H   0  0  0  0  0  0  0  0  0  0  0  0
   60.2534   34.5033   49.1062 H   0  0  0  0  0  0  0  0  0  0  0  0
   58.7525   32.5236   49.1751 H   0  0  0  0  0  0  0  0  0  0  0  0
   57.4459   31.9163   47.1699 H   0  0  0  0  0  0  0  0  0  0  0  0
  1  2  1  0
  2  3  1  0
  3  4  1  0
  4  5  1  0
  5  6  2  0
  6  7  1  0
  7  8  1  0
  8  9  2  0
  9 10  1  0
 10 11  2  0
 11 12  1  0
 12 13  2  0
 13 14  1  0
 14 15  2  0
  7 16  2  0
 16 17  1  0
 17 18  1  0
 18 19  1  0
 19 20  1  0
 20 21  1  0
 21 22  2  0
 22 23  1  0
 23 24  2  0
 24 25  1  0
 25 26  2  0
 17 27  1  0
 27 28  2  0
 27  5  1  0
 15 10  1  0
 26 21  1  0
  1 29  1  0
  1 30  1  0
  1 31  1  0
  2 32  1  0
  2 33  1  0
  3 34  1  0
  3 35  1  0
  6 36  1  0
  8 37  1  0
  9 38  1  0
 11 39  1  0
 12 40  1  0
 13 41  1  0
 14 42  1  0
 15 43  1  0
 18 44  1  0
 18 45  1  0
 20 46  1  0
 20 47  1  0
 22 48  1  0
 23 49  1  0
 24 50  1  0
 25 51  1  0
 26 52  1  0
M  END
>  <smiles>  (43) 
CCCSc1cc(C=Cc2ccccc2)nn(COCc2ccccc2)c1=O

>  <score_type>  (43) 
oracle

>  <origin>  (43) 
adg

>  <m_score__min__energy>  (43) 
-8.7599999999999998

>  <m_primary>  (43) 
energy

$$$$
43:0
     RDKit          3D

 69 71  0  0  1  0  0  0  0  0999 V2000
   60.5660   26.2500   46.8400 C   0  0  0  0  0  0  0  0  0  0  0  0
   59.8350   27.4400   47.4210 C   0  0  1  0  0  0  0  0  0  0  0  0
   60.7340   28.3410   48.0490 O   0  0  0  0  0  0  0  0  0  0  0  0
   60.5950   29.6960   48.0140 C   0  0  0  0  0  0  0  0  0  0  0  0
   60.8300   30.2640   46.8870 O   0  0  0  0  0  0  0  0  0  0  0  0
   60.2030   30.5930   49.1070 C   0  0  1  0  0  0  0  0  0  0  0  0
   60.3100   32.0540   48.8640 C   0  0  0  0  0  0  0  0  0  0  0  0
   61.6600   32.4840   48.4490 C   0  0  0  0  0  0  0  0  0  0  0  0
   62.7920   32.3060   49.2110 C   0  0  0  0  0  0  0  0  0  0  0  0
   63.9950   32.7650   48.7260 C   0  0  0  0  0  0  0  0  0  0  0  0
   64.1340   33.4010   47.5050 C   0  0  0  0  0  0  0  0  0  0  0  0
   63.0080   33.5730   46.7590 C   0  0  0  0  0  0  0  0  0  0  0  0
   61.8050   33.1150   47.2390 C   0  0  0  0  0  0  0  0  0  0  0  0
   58.8350   30.2960   49.5470 N   0  0  0  0  0  0  0  0  0  0  0  0
   58.6690   30.0790   50.9430 C   0  0  0  0  0  0  0  0  0  0  0  0
   59.6150   30.1340   51.7720 O   0  0  0  0  0  0  0  0  0  0  0  0
   57.3850   29.7910   51.4280 O   0  0  0  0  0  0  0  0  0  0  0  0
   56.6620   30.7380   52.1940 C   0  0  0  0  0  0  0  0  0  0  0  0
   57.1860   32.1190   51.8850 C   0  0  0  0  0  0  0  0  0  0  0  0
   56.8400   30.4870   53.6810 C   0  0  0  0  0  0  0  0  0  0  0  0
   55.1790   30.7150   51.9230 C   0  0  0  0  0  0  0  0  0  0  0  0
   58.8310   28.0430   46.5640 C   0  0  0  0  0  0  0  0  0  0  0  0
   57.5680   27.9160   46.7110 O   0  0  0  0  0  0  0  0  0  0  0  0
   59.1990   28.8600   45.4370 N   0  0  0  0  0  0  0  0  0  0  0  0
   58.1110   29.3750   44.6770 C   0  0  0  0  0  0  0  0  0  0  0  0
   57.7750   28.6150   43.5460 C   0  0  0  0  0  0  0  0  0  0  0  0
   56.7480   28.9760   42.7040 C   0  0  0  0  0  0  0  0  0  0  0  0
   56.0500   30.1180   43.0050 C   0  0  0  0  0  0  0  0  0  0  0  0
   56.3820   30.8520   44.1040 C   0  0  0  0  0  0  0  0  0  0  0  0
   57.4200   30.5140   44.9820 C   0  0  0  0  0  0  0  0  0  0  0  0
   57.6240   31.3540   46.0300 O   0  0  0  0  0  0  0  0  0  0  0  0
   58.2220   32.5780   45.9250 C   0  0  0  0  0  0  0  0  0  0  0  0
   58.2650   33.3800   47.0430 C   0  0  0  0  0  0  0  0  0  0  0  0
   58.8450   34.6460   47.0460 C   0  0  0  0  0  0  0  0  0  0  0  0
   59.3880   35.0760   45.8630 C   0  0  0  0  0  0  0  0  0  0  0  0
   59.3490   34.2810   44.7400 C   0  0  0  0  0  0  0  0  0  0  0  0
   58.7700   33.0240   44.7460 C   0  0  0  0  0  0  0  0  0  0  0  0
   60.9517   25.6221   47.6567 H   0  0  0  0  0  0  0  0  0  0  0  0
   59.8737   25.6611   46.2204 H   0  0  0  0  0  0  0  0  0  0  0  0
   61.4042   26.6014   46.2204 H   0  0  0  0  0  0  0  0  0  0  0  0
   59.1950   27.0429   48.2227 H   0  0  0  0  0  0  0  0  0  0  0  0
   60.9557   30.3771   49.8796 H   0  0  0  0  0  0  0  0  0  0  0  0
   59.5981   32.3283   48.0716 H   0  0  0  0  0  0  0  0  0  0  0  0
   60.0881   32.5578   49.8163 H   0  0  0  0  0  0  0  0  0  0  0  0
   62.7361   31.8062   50.1893 H   0  0  0  0  0  0  0  0  0  0  0  0
   64.8945   32.6185   49.3420 H   0  0  0  0  0  0  0  0  0  0  0  0
   65.1142   33.7533   47.1514 H   0  0  0  0  0  0  0  0  0  0  0  0
   63.0611   34.0740   45.7811 H   0  0  0  0  0  0  0  0  0  0  0  0
   60.9083   33.2622   46.6191 H   0  0  0  0  0  0  0  0  0  0  0  0
   58.0670   30.2530   48.8660 H   0  0  0  0  0  0  0  0  0  0  0  0
   57.3887   32.6531   52.8250 H   0  0  0  0  0  0  0  0  0  0  0  0
   58.1154   32.0367   51.3024 H   0  0  0  0  0  0  0  0  0  0  0  0
   56.4359   32.6739   51.3024 H   0  0  0  0  0  0  0  0  0  0  0  0
   56.2955   31.2548   54.2502 H   0  0  0  0  0  0  0  0  0  0  0  0
   56.4441   29.4926   53.9350 H   0  0  0  0  0  0  0  0  0  0  0  0
   57.9093   30.5317   53.9350 H   0  0  0  0  0  0  0  0  0  0  0  0
   54.6320   30.7065   52.8773 H   0  0  0  0  0  0  0  0  0  0  0  0
   54.8976   31.6089   51.3470 H   0  0  0  0  0  0  0  0  0  0  0  0
   54.9255   29.8128   51.3470 H   0  0  0  0  0  0  0  0  0  0  0  0
   60.2020   29.0490   45.2120 H   0  0  0  0  0  0  0  0  0  0  0  0
   58.3498   27.7033   43.3259 H   0  0  0  0  0  0  0  0  0  0  0  0
   56.4958   28.3704   41.8210 H   0  0  0  0  0  0  0  0  0  0  0  0
   55.2211   30.4416   42.3583 H   0  0  0  0  0  0  0  0  0  0  0  0
   55.8015   31.7625   44.3139 H   0  0  0  0  0  0  0  0  0  0  0  0
   57.8210   33.0037   47.9764 H   0  0  0  0  0  0  0  0  0  0  0  0
   58.8664   35.2696   47.9519 H   0  0  0  0  0  0  0  0  0  0  0  0
   59.8604   36.0680   45.8106 H   0  0  0  0  0  0  0  0  0  0  0  0
   59.7929   34.6574   43.8066 H   0  0  0  0  0  0  0  0  0  0  0  0
   58.7491   32.4031   43.8383 H   0  0  0  0  0  0  0  0  0  0  0  0
  1  2  1  0
  2  3  1  0
  3  4  1  0
  4  5  2  0
  4  6  1  0
  6  7  1  0
  7  8  1  0
  8  9  2  0
  9 10  1  0
 10 11  2  0
 11 12  1  0
 12 13  2  0
  6 14  1  0
 14 15  1  0
 15 16  2  0
 15 17  1  0
 17 18  1  0
 18 19  1  0
 18 20  1  0
 18 21  1  0
  2 22  1  0
 22 23  2  0
 22 24  1  0
 24 25  1  0
 25 26  2  0
 26 27  1  0
 27 28  2  0
 28 29  1  0
 29 30  2  0
 30 31  1  0
 31 32  1  0
 32 33  2  0
 33 34  1  0
 34 35  2  0
 35 36  1  0
 36 37  2  0
 13  8  1  0
 30 25  1  0
 37 32  1  0
  1 38  1  0
  1 39  1  0
  1 40  1  0
  2 41  1  1
  6 42  1  1
  7 43  1  0
  7 44  1  0
  9 45  1  0
 10 46  1  0
 11 47  1  0
 12 48  1  0
 13 49  1  0
 14 50  1  0
 19 51  1  0
 19 52  1  0
 19 53  1  0
 20 54  1  0
 20 55  1  0
 20 56  1  0
 21 57  1  0
 21 58  1  0
 21 59  1  0
 24 60  1  0
 26 61  1  0
 27 62  1  0
 28 63  1  0
 29 64  1  0
 33 65  1  0
 34 66  1  0
 35 67  1  0
 36 68  1  0
 37 69  1  0
M  END
>  <smiles>  (44) 
CC(OC(=O)C(Cc1ccccc1)NC(=O)OC(C)(C)C)C(=O)Nc1ccccc1Oc1ccccc1

>  <score_type>  (44) 
oracle

>  <origin>  (44) 
adg

>  <m_score__min__energy>  (44) 
-9.5999999999999996

>  <m_primary>  (44) 
energy

$$$$
44:0
     RDKit          3D

 36 37  0  0  0  0  0  0  0  0999 V2000
   59.2940   34.9950   45.6760 C   0  0  0  0  0  0  0  0  0  0  0  0
   58.5220   33.7390   45.4020 C   0  0  0  0  0  0  0  0  0  0  0  0
   57.9890   32.8830   46.3420 C   0  0  0  0  0  0  0  0  0  0  0  0
   57.3900   31.8870   45.6560 N   0  0  0  0  0  0  0  0  0  0  0  0
   57.5040   32.0470   44.3730 N   0  0  0  0  0  0  0  0  0  0  0  0
   56.9910   31.1660   43.3590 C   0  0  0  0  0  0  0  0  0  0  0  0
   55.7570   30.4120   43.7200 C   0  0  0  0  0  0  0  0  0  0  0  0
   55.9890   29.4710   44.8170 N   0  0  0  0  0  0  0  0  0  0  0  0
   57.0990   28.5920   44.5370 C   0  0  0  0  0  0  0  0  0  0  0  0
   57.9400   28.2580   45.6960 C   0  0  0  0  0  0  0  0  0  0  0  0
   58.9760   29.1060   46.0790 C   0  0  0  0  0  0  0  0  0  0  0  0
   59.8040   28.8410   47.1470 C   0  0  0  0  0  0  0  0  0  0  0  0
   59.6040   27.6910   47.8650 C   0  0  0  0  0  0  0  0  0  0  0  0
   58.5940   26.8500   47.5000 C   0  0  0  0  0  0  0  0  0  0  0  0
   57.7360   27.0800   46.4320 C   0  0  0  0  0  0  0  0  0  0  0  0
   56.6740   26.1240   46.1080 C   0  0  0  0  0  0  0  0  0  0  0  0
   56.9680   25.3480   45.0010 F   0  0  0  0  0  0  0  0  0  0  0  0
   56.5540   25.2360   47.1680 F   0  0  0  0  0  0  0  0  0  0  0  0
   55.4260   26.7010   45.9980 F   0  0  0  0  0  0  0  0  0  0  0  0
   58.2000   33.1860   44.1800 C   0  0  0  0  0  0  0  0  0  0  0  0
   59.3835   35.1407   46.7626 H   0  0  0  0  0  0  0  0  0  0  0  0
   60.2975   34.9125   45.2332 H   0  0  0  0  0  0  0  0  0  0  0  0
   58.7672   35.8531   45.2332 H   0  0  0  0  0  0  0  0  0  0  0  0
   58.0415   32.9905   47.4355 H   0  0  0  0  0  0  0  0  0  0  0  0
   56.7686   31.7706   42.4674 H   0  0  0  0  0  0  0  0  0  0  0  0
   57.7704   30.4061   43.2006 H   0  0  0  0  0  0  0  0  0  0  0  0
   54.9800   31.1283   44.0252 H   0  0  0  0  0  0  0  0  0  0  0  0
   55.4424   29.8343   42.8384 H   0  0  0  0  0  0  0  0  0  0  0  0
   56.2110   30.0780   45.6690 H   0  0  0  0  0  0  0  0  0  0  0  0
   56.6957   27.6541   44.1275 H   0  0  0  0  0  0  0  0  0  0  0  0
   57.7486   29.1344   43.8343 H   0  0  0  0  0  0  0  0  0  0  0  0
   59.1403   30.0285   45.5029 H   0  0  0  0  0  0  0  0  0  0  0  0
   60.6100   29.5386   47.4184 H   0  0  0  0  0  0  0  0  0  0  0  0
   60.2485   27.4497   48.7231 H   0  0  0  0  0  0  0  0  0  0  0  0
   58.4499   25.9319   48.0884 H   0  0  0  0  0  0  0  0  0  0  0  0
   58.4690   33.6083   43.2006 H   0  0  0  0  0  0  0  0  0  0  0  0
  1  2  1  0
  2  3  1  0
  3  4  2  0
  4  5  1  0
  5  6  1  0
  6  7  1  0
  7  8  1  0
  8  9  1  0
  9 10  1  0
 10 11  2  0
 11 12  1  0
 12 13  2  0
 13 14  1  0
 14 15  2  0
 15 16  1  0
 16 17  1  0
 16 18  1  0
 16 19  1  0
  5 20  1  0
 20  2  2  0
 15 10  1  0
  1 21  1  0
  1 22  1  0
  1 23  1  0
  3 24  1  0
  6 25  1  0
  6 26  1  0
  7 27  1  0
  7 28  1  0
  8 29  1  0
  9 30  1  0
  9 31  1  0
 11 32  1  0
 12 33  1  0
 13 34  1  0
 14 35  1  0
 20 36  1  0
M  END
>  <smiles>  (45) 
Cc1cnn(CCNCc2ccccc2C(F)(F)F)c1

>  <score_type>  (45) 
oracle

>  <origin>  (45) 
adg

>  <m_score__min__energy>  (45) 
-6.29

>  <m_primary>  (45) 
energy

$$$$
45:0
     RDKit          3D

 48 51  0  0  1  0  0  0  0  0999 V2000
   56.6210   31.8560   44.8200 O   0  0  0  0  0  0  0  0  0  0  0  0
   57.2100   31.2020   43.7420 C   0  0  0  0  0  0  0  0  0  0  0  0
   57.7940   29.8640   44.1370 C   0  0  1  0  0  0  0  0  0  0  0  0
   58.6530   29.9810   45.2170 O   0  0  0  0  0  0  0  0  0  0  0  0
   57.9520   29.9020   46.4140 C   0  0  2  0  0  0  0  0  0  0  0  0
   58.8550   30.2290   47.5510 C   0  0  0  0  0  0  0  0  0  0  0  0
   58.5700   30.3850   48.8630 C   0  0  0  0  0  0  0  0  0  0  0  0
   59.5500   30.6820   49.7230 C   0  0  0  0  0  0  0  0  0  0  0  0
   59.3780   30.8820   51.1990 C   0  0  0  0  0  0  0  0  0  0  0  0
   58.0710   30.2880   51.6020 C   0  0  0  0  0  0  0  0  0  0  0  0
   57.4560   29.3480   51.9120 N   0  0  0  0  0  0  0  0  0  0  0  0
   56.1950   29.3030   52.2020 N   0  0  0  0  0  0  0  0  0  0  0  0
   55.4620   30.2150   52.2000 C   0  0  0  0  0  0  0  0  0  0  0  0
   54.0440   30.6330   52.4420 C   0  0  0  0  0  0  0  0  0  0  0  0
   53.4200   30.4220   53.6260 C   0  0  0  0  0  0  0  0  0  0  0  0
   52.0930   30.8480   53.7550 C   0  0  0  0  0  0  0  0  0  0  0  0
   51.4530   31.4720   52.6770 C   0  0  0  0  0  0  0  0  0  0  0  0
   52.1350   31.6590   51.5010 C   0  0  0  0  0  0  0  0  0  0  0  0
   51.5390   32.2580   50.4480 F   0  0  0  0  0  0  0  0  0  0  0  0
   53.4450   31.2420   51.3620 C   0  0  0  0  0  0  0  0  0  0  0  0
   56.6580   31.5900   51.6810 S   0  0  0  0  0  0  0  0  0  0  0  0
   60.8380   30.8100   49.1610 C   0  0  0  0  0  0  0  0  0  0  0  0
   60.6150   30.5000   47.4060 S   0  0  0  0  0  0  0  0  0  0  0  0
   57.4150   28.5190   46.6710 C   0  0  2  0  0  0  0  0  0  0  0  0
   58.3980   27.7050   47.2760 O   0  0  0  0  0  0  0  0  0  0  0  0
   57.0580   27.8160   45.3560 C   0  0  1  0  0  0  0  0  0  0  0  0
   55.9540   27.0240   45.6130 O   0  0  0  0  0  0  0  0  0  0  0  0
   56.6400   28.9210   44.4070 C   0  0  1  0  0  0  0  0  0  0  0  0
   55.5670   29.5700   45.0160 O   0  0  0  0  0  0  0  0  0  0  0  0
   56.6610   31.2290   45.6100 H   0  0  0  0  0  0  0  0  0  0  0  0
   56.4476   31.0407   42.9656 H   0  0  0  0  0  0  0  0  0  0  0  0
   58.0310   31.8331   43.3710 H   0  0  0  0  0  0  0  0  0  0  0  0
   58.4114   29.4587   43.3218 H   0  0  0  0  0  0  0  0  0  0  0  0
   57.1164   30.6128   46.3330 H   0  0  0  0  0  0  0  0  0  0  0  0
   57.5367   30.2682   49.2217 H   0  0  0  0  0  0  0  0  0  0  0  0
   60.1959   30.3834   51.7399 H   0  0  0  0  0  0  0  0  0  0  0  0
   59.3979   31.9548   51.4413 H   0  0  0  0  0  0  0  0  0  0  0  0
   53.9408   29.9305   54.4610 H   0  0  0  0  0  0  0  0  0  0  0  0
   51.5539   30.6930   54.7012 H   0  0  0  0  0  0  0  0  0  0  0  0
   50.4106   31.8100   52.7723 H   0  0  0  0  0  0  0  0  0  0  0  0
   53.9916   31.3917   50.4192 H   0  0  0  0  0  0  0  0  0  0  0  0
   61.7757   31.0481   49.6845 H   0  0  0  0  0  0  0  0  0  0  0  0
   56.5331   28.6441   47.3165 H   0  0  0  0  0  0  0  0  0  0  0  0
   59.2870   27.8250   46.8940 H   0  0  0  0  0  0  0  0  0  0  0  0
   57.8825   27.2134   44.9471 H   0  0  0  0  0  0  0  0  0  0  0  0
   55.1460   27.4790   45.3090 H   0  0  0  0  0  0  0  0  0  0  0  0
   56.3427   28.5229   43.4256 H   0  0  0  0  0  0  0  0  0  0  0  0
   55.8920   30.0620   45.7930 H   0  0  0  0  0  0  0  0  0  0  0  0
  1  2  1  0
  2  3  1  0
  3  4  1  0
  4  5  1  0
  5  6  1  0
  6  7  2  0
  7  8  1  0
  8  9  1  0
  9 10  1  0
 10 11  2  0
 11 12  1  0
 12 13  2  0
 13 14  1  0
 14 15  2  0
 15 16  1  0
 16 17  2  0
 17 18  1  0
 18 19  1  0
 18 20  2  0
 13 21  1  0
  8 22  2  0
 22 23  1  0
  5 24  1  0
 24 25  1  0
 24 26  1  0
 26 27  1  0
 26 28  1  0
 28 29  1  0
 28  3  1  0
 23  6  1  0
 21 10  1  0
 20 14  1  0
  1 30  1  0
  2 31  1  0
  2 32  1  0
  3 33  1  6
  5 34  1  6
  7 35  1  0
  9 36  1  0
  9 37  1  0
 15 38  1  0
 16 39  1  0
 17 40  1  0
 20 41  1  0
 22 42  1  0
 24 43  1  1
 25 44  1  0
 26 45  1  6
 27 46  1  0
 28 47  1  6
 29 48  1  0
M  END
>  <smiles>  (46) 
OCC1OC(c2cc(Cc3nnc(-c4cccc(F)c4)s3)cs2)C(O)C(O)C1O

>  <score_type>  (46) 
oracle

>  <origin>  (46) 
adg

>  <m_score__min__energy>  (46) 
-10.1

>  <m_primary>  (46) 
energy

$$$$
46:0
     RDKit          3D

 47 49  0  0  0  0  0  0  0  0999 V2000
   57.7680   31.9290   42.4520 C   0  0  0  0  0  0  0  0  0  0  0  0
   57.4520   31.6870   43.8560 N   0  0  0  0  0  0  0  0  0  0  0  0
   56.4950   30.6060   44.1330 C   0  0  0  0  0  0  0  0  0  0  0  0
   58.0280   32.4410   44.9130 C   0  0  0  0  0  0  0  0  0  0  0  0
   57.5760   33.7500   45.0440 C   0  0  0  0  0  0  0  0  0  0  0  0
   58.0570   34.5900   46.0410 C   0  0  0  0  0  0  0  0  0  0  0  0
   59.0030   34.0460   46.8850 C   0  0  0  0  0  0  0  0  0  0  0  0
   59.4450   32.7620   46.7560 C   0  0  0  0  0  0  0  0  0  0  0  0
   58.9850   31.9100   45.7760 C   0  0  0  0  0  0  0  0  0  0  0  0
   59.4060   30.5110   45.5980 C   0  0  0  0  0  0  0  0  0  0  0  0
   58.5970   29.5250   46.2370 N   0  0  0  0  0  0  0  0  0  0  0  0
   58.2740   28.2350   45.7910 C   0  0  0  0  0  0  0  0  0  0  0  0
   57.7420   27.3010   46.6970 C   0  0  0  0  0  0  0  0  0  0  0  0
   57.4210   26.0200   46.3180 C   0  0  0  0  0  0  0  0  0  0  0  0
   57.6050   25.5780   45.0230 C   0  0  0  0  0  0  0  0  0  0  0  0
   57.2920   24.2500   44.5610 C   0  0  0  0  0  0  0  0  0  0  0  0
   56.5190   24.0900   43.4090 C   0  0  0  0  0  0  0  0  0  0  0  0
   56.2090   22.8030   42.9530 C   0  0  0  0  0  0  0  0  0  0  0  0
   56.6540   21.6940   43.6220 C   0  0  0  0  0  0  0  0  0  0  0  0
   56.3110   20.4540   43.1140 O   0  0  0  0  0  0  0  0  0  0  0  0
   57.4170   21.8600   44.7560 C   0  0  0  0  0  0  0  0  0  0  0  0
   57.8770   20.7230   45.4430 O   0  0  0  0  0  0  0  0  0  0  0  0
   57.7400   23.1330   45.2320 C   0  0  0  0  0  0  0  0  0  0  0  0
   58.1230   26.4760   44.1240 C   0  0  0  0  0  0  0  0  0  0  0  0
   58.4440   27.7640   44.5100 C   0  0  0  0  0  0  0  0  0  0  0  0
   58.6396   32.5965   42.3821 H   0  0  0  0  0  0  0  0  0  0  0  0
   57.9974   30.9734   41.9578 H   0  0  0  0  0  0  0  0  0  0  0  0
   56.9052   32.3995   41.9578 H   0  0  0  0  0  0  0  0  0  0  0  0
   56.3858   30.4827   45.2206 H   0  0  0  0  0  0  0  0  0  0  0  0
   55.5191   30.8586   43.6928 H   0  0  0  0  0  0  0  0  0  0  0  0
   56.8640   29.6679   43.6928 H   0  0  0  0  0  0  0  0  0  0  0  0
   56.8195   34.1294   44.3413 H   0  0  0  0  0  0  0  0  0  0  0  0
   57.7047   35.6263   46.1507 H   0  0  0  0  0  0  0  0  0  0  0  0
   59.4158   34.6703   47.6912 H   0  0  0  0  0  0  0  0  0  0  0  0
   60.2005   32.3912   47.4643 H   0  0  0  0  0  0  0  0  0  0  0  0
   59.4086   30.2957   44.5193 H   0  0  0  0  0  0  0  0  0  0  0  0
   60.3939   30.4371   46.0761 H   0  0  0  0  0  0  0  0  0  0  0  0
   58.1860   29.8110   47.1790 H   0  0  0  0  0  0  0  0  0  0  0  0
   57.5777   27.6051   47.7413 H   0  0  0  0  0  0  0  0  0  0  0  0
   57.0064   25.3283   47.0661 H   0  0  0  0  0  0  0  0  0  0  0  0
   56.1549   24.9720   42.8617 H   0  0  0  0  0  0  0  0  0  0  0  0
   55.5999   22.6810   42.0452 H   0  0  0  0  0  0  0  0  0  0  0  0
   56.8050   19.6250   43.4190 H   0  0  0  0  0  0  0  0  0  0  0  0
   58.4130   20.0080   44.9500 H   0  0  0  0  0  0  0  0  0  0  0  0
   58.3505   23.2434   46.1403 H   0  0  0  0  0  0  0  0  0  0  0  0
   58.2852   26.1665   43.0810 H   0  0  0  0  0  0  0  0  0  0  0  0
   58.8568   28.4476   43.7535 H   0  0  0  0  0  0  0  0  0  0  0  0
  1  2  1  0
  2  3  1  0
  2  4  1  0
  4  5  2  0
  5  6  1  0
  6  7  2  0
  7  8  1  0
  8  9  2  0
  9 10  1  0
 10 11  1  0
 11 12  1  0
 12 13  2  0
 13 14  1  0
 14 15  2  0
 15 16  1  0
 16 17  2  0
 17 18  1  0
 18 19  2  0
 19 20  1  0
 19 21  1  0
 21 22  1  0
 21 23  2  0
 15 24  1  0
 24 25  2  0
  9  4  1  0
 25 12  1  0
 23 16  1  0
  1 26  1  0
  1 27  1  0
  1 28  1  0
  3 29  1  0
  3 30  1  0
  3 31  1  0
  5 32  1  0
  6 33  1  0
  7 34  1  0
  8 35  1  0
 10 36  1  0
 10 37  1  0
 11 38  1  0
 13 39  1  0
 14 40  1  0
 17 41  1  0
 18 42  1  0
 20 43  1  0
 22 44  1  0
 23 45  1  0
 24 46  1  0
 25 47  1  0
M  END
>  <smiles>  (47) 
CN(C)c1ccccc1CNc1ccc(-c2ccc(O)c(O)c2)cc1

>  <score_type>  (47) 
oracle

>  <origin>  (47) 
adg

>  <m_score__min__energy>  (47) 
-8.4499999999999993

>  <m_primary>  (47) 
energy

$$$$
47:0
     RDKit          3D

 48 51  0  0  0  0  0  0  0  0999 V2000
   61.1020   34.2350   46.5040 C   0  0  0  0  0  0  0  0  0  0  0  0
   59.8600   33.5690   46.0200 C   0  0  0  0  0  0  0  0  0  0  0  0
   59.7060   32.2250   46.3730 C   0  0  0  0  0  0  0  0  0  0  0  0
   58.6040   31.5760   45.9600 N   0  0  0  0  0  0  0  0  0  0  0  0
   58.3790   30.1920   46.2860 C   0  0  0  0  0  0  0  0  0  0  0  0
   58.2650   29.3120   45.0630 C   0  0  0  0  0  0  0  0  0  0  0  0
   58.4570   27.8710   45.3980 C   0  0  0  0  0  0  0  0  0  0  0  0
   58.1230   27.6310   46.7760 N   0  0  0  0  0  0  0  0  0  0  0  0
   58.1670   26.2550   47.1610 C   0  0  0  0  0  0  0  0  0  0  0  0
   57.4610   25.3260   46.2630 C   0  0  0  0  0  0  0  0  0  0  0  0
   56.1080   25.4500   45.9770 C   0  0  0  0  0  0  0  0  0  0  0  0
   55.4720   24.5460   45.1170 C   0  0  0  0  0  0  0  0  0  0  0  0
   56.1980   23.5100   44.5390 C   0  0  0  0  0  0  0  0  0  0  0  0
   55.6270   22.6020   43.6930 C   0  0  0  0  0  0  0  0  0  0  0  0
   56.2990   21.5850   43.1140 N   0  0  0  0  0  0  0  0  0  0  0  0
   57.6140   21.4690   43.3960 C   0  0  0  0  0  0  0  0  0  0  0  0
   58.2720   22.3460   44.2420 C   0  0  0  0  0  0  0  0  0  0  0  0
   57.5470   23.3800   44.8180 C   0  0  0  0  0  0  0  0  0  0  0  0
   58.1510   24.2860   45.6710 C   0  0  0  0  0  0  0  0  0  0  0  0
   59.0540   28.3240   47.6740 C   0  0  0  0  0  0  0  0  0  0  0  0
   59.5440   29.6180   47.0970 C   0  0  0  0  0  0  0  0  0  0  0  0
   57.6810   32.2320   45.2240 C   0  0  0  0  0  0  0  0  0  0  0  0
   56.6570   31.5960   44.8530 O   0  0  0  0  0  0  0  0  0  0  0  0
   57.8160   33.5300   44.8760 N   0  0  0  0  0  0  0  0  0  0  0  0
   58.9110   34.2270   45.2680 C   0  0  0  0  0  0  0  0  0  0  0  0
   59.0700   35.4340   44.9620 O   0  0  0  0  0  0  0  0  0  0  0  0
   61.1107   34.2397   47.6040 H   0  0  0  0  0  0  0  0  0  0  0  0
   61.9805   33.6870   46.1327 H   0  0  0  0  0  0  0  0  0  0  0  0
   61.1316   35.2700   46.1327 H   0  0  0  0  0  0  0  0  0  0  0  0
   60.4694   31.7105   46.9751 H   0  0  0  0  0  0  0  0  0  0  0  0
   57.4363   30.1874   46.8529 H   0  0  0  0  0  0  0  0  0  0  0  0
   57.2667   29.4448   44.6205 H   0  0  0  0  0  0  0  0  0  0  0  0
   59.0535   29.6066   44.3549 H   0  0  0  0  0  0  0  0  0  0  0  0
   57.8072   27.2591   44.7551 H   0  0  0  0  0  0  0  0  0  0  0  0
   59.5108   27.6022   45.2328 H   0  0  0  0  0  0  0  0  0  0  0  0
   59.2225   25.9484   47.2052 H   0  0  0  0  0  0  0  0  0  0  0  0
   57.6486   26.1940   48.1293 H   0  0  0  0  0  0  0  0  0  0  0  0
   55.5290   26.2677   46.4311 H   0  0  0  0  0  0  0  0  0  0  0  0
   54.3994   24.6552   44.8989 H   0  0  0  0  0  0  0  0  0  0  0  0
   54.5548   22.7061   43.4703 H   0  0  0  0  0  0  0  0  0  0  0  0
   58.1838   20.6477   42.9369 H   0  0  0  0  0  0  0  0  0  0  0  0
   59.3449   22.2259   44.4527 H   0  0  0  0  0  0  0  0  0  0  0  0
   59.2238   24.1738   45.8866 H   0  0  0  0  0  0  0  0  0  0  0  0
   58.5402   28.5324   48.6240 H   0  0  0  0  0  0  0  0  0  0  0  0
   59.9262   27.6707   47.8239 H   0  0  0  0  0  0  0  0  0  0  0  0
   59.8265   30.3120   47.9023 H   0  0  0  0  0  0  0  0  0  0  0  0
   60.4335   29.4653   46.4682 H   0  0  0  0  0  0  0  0  0  0  0  0
   57.1160   34.0510   44.3090 H   0  0  0  0  0  0  0  0  0  0  0  0
  1  2  1  0
  2  3  2  0
  3  4  1  0
  4  5  1  0
  5  6  1  0
  6  7  1  0
  7  8  1  0
  8  9  1  0
  9 10  1  0
 10 11  2  0
 11 12  1  0
 12 13  2  0
 13 14  1  0
 14 15  2  0
 15 16  1  0
 16 17  2  0
 17 18  1  0
 18 19  2  0
  8 20  1  0
 20 21  1  0
  4 22  1  0
 22 23  2  0
 22 24  1  0
 24 25  1  0
 25 26  2  0
 25  2  1  0
 21  5  1  0
 19 10  1  0
 18 13  1  0
  1 27  1  0
  1 28  1  0
  1 29  1  0
  3 30  1  0
  5 31  1  0
  6 32  1  0
  6 33  1  0
  7 34  1  0
  7 35  1  0
  9 36  1  0
  9 37  1  0
 11 38  1  0
 12 39  1  0
 14 40  1  0
 16 41  1  0
 17 42  1  0
 19 43  1  0
 20 44  1  0
 20 45  1  0
 21 46  1  0
 21 47  1  0
 24 48  1  0
M  END
>  <smiles>  (48) 
Cc1cn(C2CCN(Cc3ccc4cnccc4c3)CC2)c(=O)[nH]c1=O

>  <score_type>  (48) 
oracle

>  <origin>  (48) 
adg

>  <m_score__min__energy>  (48) 
-8.4600000000000009

>  <m_primary>  (48) 
energy

$$$$
48:0
     RDKit          3D

 39 41  0  0  1  0  0  0  0  0999 V2000
   65.6170   32.7610   49.3690 O   0  0  0  0  0  0  0  0  0  0  0  0
   64.3400   33.1800   49.0420 C   0  0  0  0  0  0  0  0  0  0  0  0
   63.7910   33.0600   47.7840 C   0  0  0  0  0  0  0  0  0  0  0  0
   62.4820   33.5130   47.5430 C   0  0  0  0  0  0  0  0  0  0  0  0
   61.6920   34.0820   48.4900 C   0  0  0  0  0  0  0  0  0  0  0  0
   60.3500   34.5750   48.3490 C   0  0  0  0  0  0  0  0  0  0  0  0
   59.6680   34.8190   47.3230 N   0  0  0  0  0  0  0  0  0  0  0  0
   58.9040   33.9050   46.6370 C   0  0  0  0  0  0  0  0  0  0  0  0
   59.0850   32.5250   46.8270 C   0  0  0  0  0  0  0  0  0  0  0  0
   58.3540   31.6000   46.1060 C   0  0  0  0  0  0  0  0  0  0  0  0
   57.4170   32.0650   45.1700 C   0  0  0  0  0  0  0  0  0  0  0  0
   56.6320   31.1840   44.4610 N   0  0  0  0  0  0  0  0  0  0  0  0
   57.0340   30.2160   43.7670 C   0  0  0  0  0  0  0  0  0  0  0  0
   57.3430   28.8640   44.1480 C   0  0  0  0  0  0  0  0  0  0  0  0
   57.0680   28.5210   45.4770 C   0  0  0  0  0  0  0  0  0  0  0  0
   57.3300   27.2540   45.9250 C   0  0  0  0  0  0  0  0  0  0  0  0
   57.8620   26.2510   45.1470 C   0  0  0  0  0  0  0  0  0  0  0  0
   58.1860   24.5230   45.8810 Br  0  0  0  0  0  0  0  0  0  0  0  0
   58.1360   26.5780   43.8390 C   0  0  0  0  0  0  0  0  0  0  0  0
   57.8680   27.8760   43.3760 C   0  0  0  0  0  0  0  0  0  0  0  0
   57.2370   33.4450   44.9810 C   0  0  0  0  0  0  0  0  0  0  0  0
   57.9650   34.3660   45.6990 C   0  0  0  0  0  0  0  0  0  0  0  0
   62.2610   34.1980   49.7660 C   0  0  0  0  0  0  0  0  0  0  0  0
   63.5360   33.7560   50.0010 C   0  0  0  0  0  0  0  0  0  0  0  0
   66.4100   32.7660   48.7370 H   0  0  0  0  0  0  0  0  0  0  0  0
   64.3765   32.6100   46.9687 H   0  0  0  0  0  0  0  0  0  0  0  0
   62.0737   33.3999   46.5279 H   0  0  0  0  0  0  0  0  0  0  0  0
   59.8327   34.7719   49.2996 H   0  0  0  0  0  0  0  0  0  0  0  0
   59.8226   32.1740   47.5637 H   0  0  0  0  0  0  0  0  0  0  0  0
   58.5034   30.5215   46.2624 H   0  0  0  0  0  0  0  0  0  0  0  0
   57.1713   30.4383   42.6985 H   0  0  0  0  0  0  0  0  0  0  0  0
   56.6415   29.2692   46.1613 H   0  0  0  0  0  0  0  0  0  0  0  0
   57.1003   27.0225   46.9755 H   0  0  0  0  0  0  0  0  0  0  0  0
   58.5630   25.8260   43.1592 H   0  0  0  0  0  0  0  0  0  0  0  0
   58.0966   28.1074   42.3252 H   0  0  0  0  0  0  0  0  0  0  0  0
   56.4995   33.7966   44.2445 H   0  0  0  0  0  0  0  0  0  0  0  0
   57.8144   35.4442   45.5413 H   0  0  0  0  0  0  0  0  0  0  0  0
   61.6793   34.6472   50.5844 H   0  0  0  0  0  0  0  0  0  0  0  0
   63.9426   33.8677   51.0170 H   0  0  0  0  0  0  0  0  0  0  0  0
  1  2  1  0
  2  3  2  0
  3  4  1  0
  4  5  2  0
  5  6  1  0
  6  7  2  0
  7  8  1  0
  8  9  2  0
  9 10  1  0
 10 11  2  0
 11 12  1  0
 12 13  2  0
 13 14  1  0
 14 15  2  0
 15 16  1  0
 16 17  2  0
 17 18  1  0
 17 19  1  0
 19 20  2  0
 11 21  1  0
 21 22  2  0
  5 23  1  0
 23 24  2  0
 24  2  1  0
 22  8  1  0
 20 14  1  0
  1 25  1  0
  3 26  1  0
  4 27  1  0
  6 28  1  0
  9 29  1  0
 10 30  1  0
 13 31  1  0
 15 32  1  0
 16 33  1  0
 19 34  1  0
 20 35  1  0
 21 36  1  0
 22 37  1  0
 23 38  1  0
 24 39  1  0
M  END
>  <smiles>  (49) 
Oc1ccc(C=Nc2ccc(N=Cc3ccc(Br)cc3)cc2)cc1

>  <score_type>  (49) 
oracle

>  <origin>  (49) 
adg

>  <m_score__min__energy>  (49) 
-8.9800000000000004

>  <m_primary>  (49) 
energy

$$$$
49:0
     RDKit          3D

 56 59  0  0  1  0  0  0  0  0999 V2000
   56.1540   29.3470   42.6680 N   0  0  0  0  0  0  0  0  0  0  0  0
   56.8510   30.6140   42.7490 C   0  0  0  0  0  0  0  0  0  0  0  0
   56.8220   31.2740   41.6970 O   0  0  0  0  0  0  0  0  0  0  0  0
   57.4690   30.9250   44.0050 C   0  0  0  0  0  0  0  0  0  0  0  0
   58.2100   32.1080   44.2140 C   0  0  0  0  0  0  0  0  0  0  0  0
   58.6490   32.1300   45.4800 N   0  0  0  0  0  0  0  0  0  0  0  0
   59.4530   33.2000   46.0550 C   0  0  2  0  0  0  0  0  0  0  0  0
   60.6750   32.6150   46.7260 C   0  0  0  0  0  0  0  0  0  0  0  0
   61.4840   33.8150   47.2190 C   0  0  0  0  0  0  0  0  0  0  0  0
   60.7430   34.5360   48.2720 C   0  0  2  0  0  0  0  0  0  0  0  0
   61.2940   34.2660   49.5740 N   0  0  0  0  0  0  0  0  0  0  0  0
   60.4570   33.5660   50.4800 C   0  0  0  0  0  0  0  0  0  0  0  0
   60.6410   32.1010   50.2080 C   0  0  0  0  0  0  0  0  0  0  0  0
   61.8430   31.4620   50.3610 C   0  0  0  0  0  0  0  0  0  0  0  0
   61.9020   30.0940   50.0790 C   0  0  0  0  0  0  0  0  0  0  0  0
   60.7530   29.4270   49.6550 C   0  0  0  0  0  0  0  0  0  0  0  0
   59.5410   30.0920   49.5040 C   0  0  0  0  0  0  0  0  0  0  0  0
   58.4280   29.4480   49.0940 F   0  0  0  0  0  0  0  0  0  0  0  0
   59.4860   31.4370   49.7830 C   0  0  0  0  0  0  0  0  0  0  0  0
   59.2760   34.2180   48.3440 C   0  0  0  0  0  0  0  0  0  0  0  0
   58.6340   34.0380   46.9990 C   0  0  0  0  0  0  0  0  0  0  0  0
   58.2400   31.0400   46.1010 N   0  0  0  0  0  0  0  0  0  0  0  0
   57.5180   30.3000   45.2120 C   0  0  0  0  0  0  0  0  0  0  0  0
   56.9290   29.2370   45.5200 N   0  0  0  0  0  0  0  0  0  0  0  0
   57.4610   28.0260   46.0000 C   0  0  0  0  0  0  0  0  0  0  0  0
   58.7960   27.9420   46.4260 C   0  0  0  0  0  0  0  0  0  0  0  0
   59.2860   26.7150   46.8250 C   0  0  0  0  0  0  0  0  0  0  0  0
   58.4830   25.5840   46.8110 C   0  0  0  0  0  0  0  0  0  0  0  0
   57.1670   25.6720   46.3900 C   0  0  0  0  0  0  0  0  0  0  0  0
   56.6500   26.8800   45.9870 C   0  0  0  0  0  0  0  0  0  0  0  0
   56.2580   28.6180   43.4050 H   0  0  0  0  0  0  0  0  0  0  0  0
   55.5250   29.1110   41.8750 H   0  0  0  0  0  0  0  0  0  0  0  0
   58.3970   32.8863   43.4595 H   0  0  0  0  0  0  0  0  0  0  0  0
   59.7947   33.8700   45.2523 H   0  0  0  0  0  0  0  0  0  0  0  0
   60.3805   31.9763   47.5717 H   0  0  0  0  0  0  0  0  0  0  0  0
   61.2572   31.9857   46.0367 H   0  0  0  0  0  0  0  0  0  0  0  0
   62.4431   33.4630   47.6267 H   0  0  0  0  0  0  0  0  0  0  0  0
   61.6606   34.4979   46.3749 H   0  0  0  0  0  0  0  0  0  0  0  0
   60.8516   35.5930   47.9875 H   0  0  0  0  0  0  0  0  0  0  0  0
   61.6620   35.1600   49.9420 H   0  0  0  0  0  0  0  0  0  0  0  0
   60.7459   33.7967   51.5160 H   0  0  0  0  0  0  0  0  0  0  0  0
   59.4051   33.8598   50.3486 H   0  0  0  0  0  0  0  0  0  0  0  0
   62.7362   32.0096   50.6962 H   0  0  0  0  0  0  0  0  0  0  0  0
   62.8496   29.5467   50.1909 H   0  0  0  0  0  0  0  0  0  0  0  0
   60.8066   28.3506   49.4350 H   0  0  0  0  0  0  0  0  0  0  0  0
   58.5399   31.9872   49.6727 H   0  0  0  0  0  0  0  0  0  0  0  0
   59.1494   33.2877   48.9172 H   0  0  0  0  0  0  0  0  0  0  0  0
   58.7830   35.0757   48.8249 H   0  0  0  0  0  0  0  0  0  0  0  0
   57.6578   33.5511   47.1406 H   0  0  0  0  0  0  0  0  0  0  0  0
   58.5380   35.0367   46.5479 H   0  0  0  0  0  0  0  0  0  0  0  0
   58.4230   30.7620   47.1080 H   0  0  0  0  0  0  0  0  0  0  0  0
   59.4379   28.8352   46.4415 H   0  0  0  0  0  0  0  0  0  0  0  0
   60.3306   26.6326   47.1597 H   0  0  0  0  0  0  0  0  0  0  0  0
   58.8924   24.6158   47.1349 H   0  0  0  0  0  0  0  0  0  0  0  0
   56.5336   24.7728   46.3780 H   0  0  0  0  0  0  0  0  0  0  0  0
   55.6035   26.9488   45.6551 H   0  0  0  0  0  0  0  0  0  0  0  0
  1  2  1  0
  2  3  2  0
  2  4  1  0
  4  5  2  0
  5  6  1  0
  6  7  1  0
  7  8  1  0
  8  9  1  0
  9 10  1  0
 10 11  1  0
 11 12  1  0
 12 13  1  0
 13 14  2  0
 14 15  1  0
 15 16  2  0
 16 17  1  0
 17 18  1  0
 17 19  2  0
 10 20  1  0
 20 21  1  0
  6 22  1  0
 22 23  1  0
 23 24  2  0
 24 25  1  0
 25 26  2  0
 26 27  1  0
 27 28  2  0
 28 29  1  0
 29 30  2  0
 23  4  1  0
 30 25  1  0
 21  7  1  0
 19 13  1  0
  1 31  1  0
  1 32  1  0
  5 33  1  0
  7 34  1  6
  8 35  1  0
  8 36  1  0
  9 37  1  0
  9 38  1  0
 10 39  1  6
 11 40  1  0
 12 41  1  0
 12 42  1  0
 14 43  1  0
 15 44  1  0
 16 45  1  0
 19 46  1  0
 20 47  1  0
 20 48  1  0
 21 49  1  0
 21 50  1  0
 22 51  1  0
 26 52  1  0
 27 53  1  0
 28 54  1  0
 29 55  1  0
 30 56  1  0
M  END
>  <smiles>  (50) 
NC(=O)c1cn(C2CCC(NCc3cccc(F)c3)CC2)[nH]c1=Nc1ccccc1

>  <score_type>  (50) 
oracle

>  <origin>  (50) 
adg

>  <m_score__min__energy>  (50) 
-9.2300000000000004

>  <m_primary>  (50) 
energy

$$$$
50:0
     RDKit          3D

 56 58  0  0  1  0  0  0  0  0999 V2000
   55.5480   30.3350   44.1100 C   0  0  0  0  0  0  0  0  0  0  0  0
   55.5600   29.1540   44.8840 O   0  0  0  0  0  0  0  0  0  0  0  0
   56.6410   28.3150   44.9020 C   0  0  0  0  0  0  0  0  0  0  0  0
   57.3950   28.0780   45.9890 C   0  0  0  0  0  0  0  0  0  0  0  0
   57.1180   26.7920   46.6360 C   0  0  0  0  0  0  0  0  0  0  0  0
   57.9150   26.1910   47.3970 O   0  0  0  0  0  0  0  0  0  0  0  0
   55.9030   26.1180   46.4420 O   0  0  0  0  0  0  0  0  0  0  0  0
   55.8510   24.9160   45.6850 C   0  0  0  0  0  0  0  0  0  0  0  0
   58.4300   28.9970   46.4400 C   0  0  0  0  0  0  0  0  0  0  0  0
   58.6330   29.2440   47.7860 C   0  0  0  0  0  0  0  0  0  0  0  0
   59.6520   30.0870   48.2470 C   0  0  0  0  0  0  0  0  0  0  0  0
   60.5040   30.7130   47.3990 C   0  0  0  0  0  0  0  0  0  0  0  0
   61.5790   31.6110   47.7720 C   0  0  0  0  0  0  0  0  0  0  0  0
   62.7570   31.1350   47.5930 O   0  0  0  0  0  0  0  0  0  0  0  0
   61.3810   32.9340   48.3080 N   0  0  0  0  0  0  0  0  0  0  0  0
   60.0360   33.4160   48.4680 C   0  0  0  0  0  0  0  0  0  0  0  0
   59.2140   33.6140   47.2920 C   0  0  0  0  0  0  0  0  0  0  0  0
   57.9290   33.1760   47.0950 C   0  0  0  0  0  0  0  0  0  0  0  0
   57.1960   33.4380   45.9480 C   0  0  0  0  0  0  0  0  0  0  0  0
   57.7400   34.1760   44.9170 C   0  0  0  0  0  0  0  0  0  0  0  0
   59.0310   34.6270   45.0920 C   0  0  0  0  0  0  0  0  0  0  0  0
   59.7530   34.3670   46.2300 C   0  0  0  0  0  0  0  0  0  0  0  0
   62.5690   33.6510   48.6890 C   0  0  0  0  0  0  0  0  0  0  0  0
   63.5460   32.9780   49.5300 C   0  0  0  0  0  0  0  0  0  0  0  0
   63.2060   32.1710   50.5950 C   0  0  0  0  0  0  0  0  0  0  0  0
   64.1220   31.5200   51.3950 C   0  0  0  0  0  0  0  0  0  0  0  0
   65.4710   31.6420   51.1640 C   0  0  0  0  0  0  0  0  0  0  0  0
   65.8490   32.4420   50.1050 C   0  0  0  0  0  0  0  0  0  0  0  0
   64.9230   33.1060   49.2900 C   0  0  0  0  0  0  0  0  0  0  0  0
   60.3220   30.4830   46.0440 C   0  0  0  0  0  0  0  0  0  0  0  0
   59.3040   29.6410   45.5760 C   0  0  0  0  0  0  0  0  0  0  0  0
   55.5391   31.2101   44.7764 H   0  0  0  0  0  0  0  0  0  0  0  0
   56.4459   30.3666   43.4753 H   0  0  0  0  0  0  0  0  0  0  0  0
   54.6497   30.3483   43.4753 H   0  0  0  0  0  0  0  0  0  0  0  0
   56.9100   27.8018   43.9670 H   0  0  0  0  0  0  0  0  0  0  0  0
   55.8137   24.0542   46.3675 H   0  0  0  0  0  0  0  0  0  0  0  0
   54.9522   24.9207   45.0508 H   0  0  0  0  0  0  0  0  0  0  0  0
   56.7468   24.8430   45.0508 H   0  0  0  0  0  0  0  0  0  0  0  0
   57.9708   28.7614   48.5199 H   0  0  0  0  0  0  0  0  0  0  0  0
   59.7642   30.2458   49.3297 H   0  0  0  0  0  0  0  0  0  0  0  0
   59.5099   32.6947   49.1106 H   0  0  0  0  0  0  0  0  0  0  0  0
   60.1670   34.4312   48.8708 H   0  0  0  0  0  0  0  0  0  0  0  0
   57.4540   32.5841   47.8913 H   0  0  0  0  0  0  0  0  0  0  0  0
   56.1693   33.0533   45.8588 H   0  0  0  0  0  0  0  0  0  0  0  0
   57.1718   34.3938   44.0007 H   0  0  0  0  0  0  0  0  0  0  0  0
   59.4995   35.2167   44.2903 H   0  0  0  0  0  0  0  0  0  0  0  0
   60.7783   34.7563   46.3151 H   0  0  0  0  0  0  0  0  0  0  0  0
   63.0842   33.9417   47.7616 H   0  0  0  0  0  0  0  0  0  0  0  0
   62.1968   34.4751   49.3153 H   0  0  0  0  0  0  0  0  0  0  0  0
   62.1377   32.0380   50.8208 H   0  0  0  0  0  0  0  0  0  0  0  0
   63.7680   30.8953   52.2284 H   0  0  0  0  0  0  0  0  0  0  0  0
   66.2130   31.1274   51.7922 H   0  0  0  0  0  0  0  0  0  0  0  0
   66.9214   32.5633   49.8921 H   0  0  0  0  0  0  0  0  0  0  0  0
   65.2771   33.7313   48.4572 H   0  0  0  0  0  0  0  0  0  0  0  0
   60.9910   30.9719   45.3206 H   0  0  0  0  0  0  0  0  0  0  0  0
   59.1948   29.4863   44.4924 H   0  0  0  0  0  0  0  0  0  0  0  0
  1  2  1  0
  2  3  1  0
  3  4  2  0
  4  5  1  0
  5  6  2  0
  5  7  1  0
  7  8  1  0
  4  9  1  0
  9 10  2  0
 10 11  1  0
 11 12  2  0
 12 13  1  0
 13 14  2  0
 13 15  1  0
 15 16  1  0
 16 17  1  0
 17 18  2  0
 18 19  1  0
 19 20  2  0
 20 21  1  0
 21 22  2  0
 15 23  1  0
 23 24  1  0
 24 25  2  0
 25 26  1  0
 26 27  2  0
 27 28  1  0
 28 29  2  0
 12 30  1  0
 30 31  2  0
 31  9  1  0
 22 17  1  0
 29 24  1  0
  1 32  1  0
  1 33  1  0
  1 34  1  0
  3 35  1  0
  8 36  1  0
  8 37  1  0
  8 38  1  0
 10 39  1  0
 11 40  1  0
 16 41  1  0
 16 42  1  0
 18 43  1  0
 19 44  1  0
 20 45  1  0
 21 46  1  0
 22 47  1  0
 23 48  1  0
 23 49  1  0
 25 50  1  0
 26 51  1  0
 27 52  1  0
 28 53  1  0
 29 54  1  0
 30 55  1  0
 31 56  1  0
M  END
>  <smiles>  (51) 
COC=C(C(=O)OC)c1ccc(C(=O)N(Cc2ccccc2)Cc2ccccc2)cc1

>  <score_type>  (51) 
oracle

>  <origin>  (51) 
adg

>  <m_score__min__energy>  (51) 
-9.1799999999999997

>  <m_primary>  (51) 
energy

$$$$
51:0
     RDKit          3D

 39 41  0  0  0  0  0  0  0  0999 V2000
   63.1770   32.5140   47.8360 O   0  0  0  0  0  0  0  0  0  0  0  0
   62.9500   33.2450   48.8260 C   0  0  0  0  0  0  0  0  0  0  0  0
   61.6920   33.8890   48.9280 N   0  0  0  0  0  0  0  0  0  0  0  0
   60.6590   33.7480   47.9530 C   0  0  0  0  0  0  0  0  0  0  0  0
   59.4250   33.1910   48.2530 C   0  0  0  0  0  0  0  0  0  0  0  0
   58.4460   33.0760   47.2610 C   0  0  0  0  0  0  0  0  0  0  0  0
   58.7540   33.5340   45.9830 C   0  0  0  0  0  0  0  0  0  0  0  0
   57.5570   33.4130   44.6990 S   0  0  0  0  0  0  0  0  0  0  0  0
   58.2360   33.2860   43.3540 O   0  0  0  0  0  0  0  0  0  0  0  0
   56.6940   34.6280   44.6250 O   0  0  0  0  0  0  0  0  0  0  0  0
   56.6300   31.9710   44.9180 N   0  0  0  0  0  0  0  0  0  0  0  0
   57.1690   30.8200   44.8490 C   0  0  0  0  0  0  0  0  0  0  0  0
   56.4200   29.7210   45.0440 N   0  0  0  0  0  0  0  0  0  0  0  0
   56.9990   28.5100   44.9700 C   0  0  0  0  0  0  0  0  0  0  0  0
   58.3460   28.3960   44.6940 C   0  0  0  0  0  0  0  0  0  0  0  0
   59.0990   29.5360   44.4960 C   0  0  0  0  0  0  0  0  0  0  0  0
   58.4930   30.7460   44.5770 N   0  0  0  0  0  0  0  0  0  0  0  0
   59.9890   34.0850   45.7070 C   0  0  0  0  0  0  0  0  0  0  0  0
   60.9640   34.2050   46.6770 C   0  0  0  0  0  0  0  0  0  0  0  0
   64.0050   33.3910   49.8220 C   0  0  0  0  0  0  0  0  0  0  0  0
   63.7620   34.2010   50.9120 C   0  0  0  0  0  0  0  0  0  0  0  0
   64.7280   34.3720   51.8820 C   0  0  0  0  0  0  0  0  0  0  0  0
   65.9610   33.7300   51.7740 C   0  0  0  0  0  0  0  0  0  0  0  0
   66.2080   32.9310   50.7010 C   0  0  0  0  0  0  0  0  0  0  0  0
   65.2290   32.7650   49.7290 C   0  0  0  0  0  0  0  0  0  0  0  0
   61.4820   34.5040   49.7440 H   0  0  0  0  0  0  0  0  0  0  0  0
   59.2157   32.8387   49.2738 H   0  0  0  0  0  0  0  0  0  0  0  0
   57.4623   32.6369   47.4838 H   0  0  0  0  0  0  0  0  0  0  0  0
   56.3952   27.6046   45.1305 H   0  0  0  0  0  0  0  0  0  0  0  0
   58.8166   27.4037   44.6322 H   0  0  0  0  0  0  0  0  0  0  0  0
   60.1743   29.4637   44.2759 H   0  0  0  0  0  0  0  0  0  0  0  0
   59.0570   31.6040   44.4280 H   0  0  0  0  0  0  0  0  0  0  0  0
   60.2020   34.4379   44.6871 H   0  0  0  0  0  0  0  0  0  0  0  0
   61.9455   34.6459   46.4482 H   0  0  0  0  0  0  0  0  0  0  0  0
   62.7932   34.7131   51.0082 H   0  0  0  0  0  0  0  0  0  0  0  0
   64.5239   35.0198   52.7473 H   0  0  0  0  0  0  0  0  0  0  0  0
   66.7280   33.8685   52.5503 H   0  0  0  0  0  0  0  0  0  0  0  0
   67.1769   32.4194   50.6035 H   0  0  0  0  0  0  0  0  0  0  0  0
   65.4362   32.1179   48.8639 H   0  0  0  0  0  0  0  0  0  0  0  0
  1  2  2  0
  2  3  1  0
  3  4  1  0
  4  5  2  0
  5  6  1  0
  6  7  2  0
  7  8  1  0
  8  9  2  0
  8 10  2  0
  8 11  1  0
 11 12  2  3
 12 13  1  0
 13 14  2  0
 14 15  1  0
 15 16  2  0
 16 17  1  0
  7 18  1  0
 18 19  2  0
  2 20  1  0
 20 21  2  0
 21 22  1  0
 22 23  2  0
 23 24  1  0
 24 25  2  0
 19  4  1  0
 25 20  1  0
 17 12  1  0
  3 26  1  0
  5 27  1  0
  6 28  1  0
 14 29  1  0
 15 30  1  0
 16 31  1  0
 17 32  1  0
 18 33  1  0
 19 34  1  0
 21 35  1  0
 22 36  1  0
 23 37  1  0
 24 38  1  0
 25 39  1  0
M  END
>  <smiles>  (52) 
O=C(Nc1ccc(S(=O)(=O)N=c2nccc[nH]2)cc1)c1ccccc1

>  <score_type>  (52) 
oracle

>  <origin>  (52) 
adg

>  <m_score__min__energy>  (52) 
-8.0099999999999998

>  <m_primary>  (52) 
energy

$$$$
52:0
     RDKit          3D

 23 24  0  0  0  0  0  0  0  0999 V2000
   56.0920   29.8140   42.8660 O   0  0  0  0  0  0  0  0  0  0  0  0
   56.1260   29.9590   44.1030 N   0  0  0  0  0  0  0  0  0  0  0  0
   55.1500   29.3480   44.8710 O   0  0  0  0  0  0  0  0  0  0  0  0
   57.1480   30.7420   44.7410 C   0  0  0  0  0  0  0  0  0  0  0  0
   58.0870   30.1040   45.5150 C   0  0  0  0  0  0  0  0  0  0  0  0
   59.0950   30.8170   46.1430 C   0  0  0  0  0  0  0  0  0  0  0  0
   60.1020   30.1100   46.9810 C   0  0  0  0  0  0  0  0  0  0  0  0
   59.3860   29.9240   48.7670 Br  0  0  0  0  0  0  0  0  0  0  0  0
   59.1590   32.2070   45.9870 C   0  0  0  0  0  0  0  0  0  0  0  0
   60.1640   32.9420   46.6030 C   0  0  0  0  0  0  0  0  0  0  0  0
   60.1870   34.3300   46.4110 C   0  0  0  0  0  0  0  0  0  0  0  0
   59.2110   34.9170   45.6200 C   0  0  0  0  0  0  0  0  0  0  0  0
   58.2090   34.1940   45.0040 C   0  0  0  0  0  0  0  0  0  0  0  0
   58.1910   32.8110   45.1970 C   0  0  0  0  0  0  0  0  0  0  0  0
   57.1970   32.0990   44.5790 C   0  0  0  0  0  0  0  0  0  0  0  0
   58.0376   29.0120   45.6376 H   0  0  0  0  0  0  0  0  0  0  0  0
   60.3061   29.1157   46.5570 H   0  0  0  0  0  0  0  0  0  0  0  0
   61.0409   30.6825   47.0077 H   0  0  0  0  0  0  0  0  0  0  0  0
   60.9231   32.4467   47.2262 H   0  0  0  0  0  0  0  0  0  0  0  0
   60.9683   34.9452   46.8812 H   0  0  0  0  0  0  0  0  0  0  0  0
   59.2362   36.0074   45.4769 H   0  0  0  0  0  0  0  0  0  0  0  0
   57.4500   34.6908   44.3818 H   0  0  0  0  0  0  0  0  0  0  0  0
   56.4471   32.6129   43.9597 H   0  0  0  0  0  0  0  0  0  0  0  0
  1  2  2  0
  2  3  1  0
  2  4  1  0
  4  5  2  0
  5  6  1  0
  6  7  1  0
  7  8  1  0
  6  9  2  0
  9 10  1  0
 10 11  2  0
 11 12  1  0
 12 13  2  0
 13 14  1  0
 14 15  2  0
 15  4  1  0
 14  9  1  0
  5 16  1  0
  7 17  1  0
  7 18  1  0
 10 19  1  0
 11 20  1  0
 12 21  1  0
 13 22  1  0
 15 23  1  0
M  CHG  2   2   1   3  -1
M  END
>  <smiles>  (53) 
O=[N+]([O-])c1cc(CBr)c2ccccc2c1

>  <score_type>  (53) 
oracle

>  <origin>  (53) 
adg

>  <m_score__min__energy>  (53) 
-6.7599999999999998

>  <m_primary>  (53) 
energy

$$$$
53:0
     RDKit          3D

 55 58  0  0  0  0  0  0  0  0999 V2000
   57.5740   31.5170   42.9680 C   0  0  0  0  0  0  0  0  0  0  0  0
   56.5330   30.6100   43.2800 O   0  0  0  0  0  0  0  0  0  0  0  0
   56.8790   29.4180   43.8910 C   0  0  0  0  0  0  0  0  0  0  0  0
   57.4600   28.4010   43.1300 C   0  0  0  0  0  0  0  0  0  0  0  0
   57.8180   27.1940   43.7210 C   0  0  0  0  0  0  0  0  0  0  0  0
   57.6050   26.9790   45.0660 C   0  0  0  0  0  0  0  0  0  0  0  0
   58.0180   25.5050   45.8920 S   0  0  0  0  0  0  0  0  0  0  0  0
   58.1550   24.3730   44.8920 O   0  0  0  0  0  0  0  0  0  0  0  0
   56.8690   25.2010   46.8450 O   0  0  0  0  0  0  0  0  0  0  0  0
   59.4670   25.7030   46.7630 N   0  0  0  0  0  0  0  0  0  0  0  0
   59.8770   26.8190   47.5050 C   0  0  0  0  0  0  0  0  0  0  0  0
   60.0650   26.8900   48.8550 C   0  0  0  0  0  0  0  0  0  0  0  0
   60.4900   28.0440   49.4840 C   0  0  0  0  0  0  0  0  0  0  0  0
   60.7410   29.1700   48.7640 C   0  0  0  0  0  0  0  0  0  0  0  0
   60.5630   29.1370   47.3940 C   0  0  0  0  0  0  0  0  0  0  0  0
   60.1420   27.9890   46.7830 C   0  0  0  0  0  0  0  0  0  0  0  0
   60.7900   30.2750   46.4360 C   0  0  0  0  0  0  0  0  0  0  0  0
   60.0750   31.5230   46.8350 C   0  0  0  0  0  0  0  0  0  0  0  0
   60.6080   32.1680   48.0150 N   0  0  0  0  0  0  0  0  0  0  0  0
   60.2560   33.5480   47.9680 C   0  0  0  0  0  0  0  0  0  0  0  0
   59.2790   33.7930   46.8860 C   0  0  0  0  0  0  0  0  0  0  0  0
   57.9480   33.4590   47.1480 C   0  0  0  0  0  0  0  0  0  0  0  0
   56.9780   33.6730   46.1650 C   0  0  0  0  0  0  0  0  0  0  0  0
   57.3550   34.2110   44.9580 C   0  0  0  0  0  0  0  0  0  0  0  0
   58.6270   34.5200   44.7360 N   0  0  0  0  0  0  0  0  0  0  0  0
   59.5850   34.3240   45.6620 C   0  0  0  0  0  0  0  0  0  0  0  0
   60.2860   31.4970   49.2290 C   0  0  0  0  0  0  0  0  0  0  0  0
   61.1930   30.3380   49.5760 C   0  0  0  0  0  0  0  0  0  0  0  0
   57.0250   27.9890   45.8390 C   0  0  0  0  0  0  0  0  0  0  0  0
   56.6760   29.1810   45.2380 C   0  0  0  0  0  0  0  0  0  0  0  0
   58.0160   31.9021   43.8988 H   0  0  0  0  0  0  0  0  0  0  0  0
   58.3475   30.9997   42.3814 H   0  0  0  0  0  0  0  0  0  0  0  0
   57.1675   32.3540   42.3814 H   0  0  0  0  0  0  0  0  0  0  0  0
   57.6357   28.5559   42.0552 H   0  0  0  0  0  0  0  0  0  0  0  0
   58.2758   26.4028   43.1090 H   0  0  0  0  0  0  0  0  0  0  0  0
   60.1520   24.8840   46.7490 H   0  0  0  0  0  0  0  0  0  0  0  0
   59.8709   25.9952   49.4646 H   0  0  0  0  0  0  0  0  0  0  0  0
   60.6264   28.0522   50.5755 H   0  0  0  0  0  0  0  0  0  0  0  0
   60.0074   27.9842   45.6913 H   0  0  0  0  0  0  0  0  0  0  0  0
   61.8685   30.4872   46.3926 H   0  0  0  0  0  0  0  0  0  0  0  0
   60.3933   29.9663   45.4576 H   0  0  0  0  0  0  0  0  0  0  0  0
   60.1331   32.2348   45.9984 H   0  0  0  0  0  0  0  0  0  0  0  0
   59.0434   31.2287   47.0781 H   0  0  0  0  0  0  0  0  0  0  0  0
   59.8123   33.8421   48.9306 H   0  0  0  0  0  0  0  0  0  0  0  0
   61.1615   34.1412   47.7728 H   0  0  0  0  0  0  0  0  0  0  0  0
   57.6656   33.0307   48.1210 H   0  0  0  0  0  0  0  0  0  0  0  0
   55.9259   33.4141   46.3550 H   0  0  0  0  0  0  0  0  0  0  0  0
   56.6023   34.3858   44.1751 H   0  0  0  0  0  0  0  0  0  0  0  0
   60.6262   34.5939   45.4319 H   0  0  0  0  0  0  0  0  0  0  0  0
   60.3385   32.2291   50.0483 H   0  0  0  0  0  0  0  0  0  0  0  0
   59.2814   31.0713   49.0890 H   0  0  0  0  0  0  0  0  0  0  0  0
   62.2357   30.5878   49.3302 H   0  0  0  0  0  0  0  0  0  0  0  0
   61.1443   30.1104   50.6511 H   0  0  0  0  0  0  0  0  0  0  0  0
   56.8489   27.8353   46.9139 H   0  0  0  0  0  0  0  0  0  0  0  0
   56.2199   29.9711   45.8526 H   0  0  0  0  0  0  0  0  0  0  0  0
  1  2  1  0
  2  3  1  0
  3  4  2  0
  4  5  1  0
  5  6  2  0
  6  7  1  0
  7  8  2  0
  7  9  2  0
  7 10  1  0
 10 11  1  0
 11 12  2  0
 12 13  1  0
 13 14  2  0
 14 15  1  0
 15 16  2  0
 15 17  1  0
 17 18  1  0
 18 19  1  0
 19 20  1  0
 20 21  1  0
 21 22  2  0
 22 23  1  0
 23 24  2  0
 24 25  1  0
 25 26  2  0
 19 27  1  0
 27 28  1  0
  6 29  1  0
 29 30  2  0
 30  3  1  0
 16 11  1  0
 26 21  1  0
 28 14  1  0
  1 31  1  0
  1 32  1  0
  1 33  1  0
  4 34  1  0
  5 35  1  0
 10 36  1  0
 12 37  1  0
 13 38  1  0
 16 39  1  0
 17 40  1  0
 17 41  1  0
 18 42  1  0
 18 43  1  0
 20 44  1  0
 20 45  1  0
 22 46  1  0
 23 47  1  0
 24 48  1  0
 26 49  1  0
 27 50  1  0
 27 51  1  0
 28 52  1  0
 28 53  1  0
 29 54  1  0
 30 55  1  0
M  END
>  <smiles>  (54) 
COc1ccc(S(=O)(=O)Nc2ccc3c(c2)CCN(Cc2cccnc2)CC3)cc1

>  <score_type>  (54) 
oracle

>  <origin>  (54) 
adg

>  <m_score__min__energy>  (54) 
-8.3399999999999999

>  <m_primary>  (54) 
energy

$$$$
54:0
     RDKit          3D

 50 53  0  0  0  0  0  0  0  0999 V2000
   57.6380   32.0190   41.6370 C   0  0  0  0  0  0  0  0  0  0  0  0
   56.6800   31.2320   42.3020 O   0  0  0  0  0  0  0  0  0  0  0  0
   57.0780   30.5470   43.4460 C   0  0  0  0  0  0  0  0  0  0  0  0
   58.0680   31.1470   44.2060 C   0  0  0  0  0  0  0  0  0  0  0  0
   58.4810   30.4910   45.3430 C   0  0  0  0  0  0  0  0  0  0  0  0
   57.9310   29.2850   45.7110 C   0  0  0  0  0  0  0  0  0  0  0  0
   58.3520   28.6300   46.8440 C   0  0  0  0  0  0  0  0  0  0  0  0
   59.3410   29.2440   47.6440 N   0  0  0  0  0  0  0  0  0  0  0  0
   60.7110   29.4090   47.1910 C   0  0  0  0  0  0  0  0  0  0  0  0
   61.2690   30.7390   47.7060 C   0  0  0  0  0  0  0  0  0  0  0  0
   60.8680   30.9800   49.0660 N   0  0  0  0  0  0  0  0  0  0  0  0
   61.0010   32.1870   49.7620 C   0  0  0  0  0  0  0  0  0  0  0  0
   60.6690   32.2430   50.9890 O   0  0  0  0  0  0  0  0  0  0  0  0
   61.5130   33.4570   49.1860 C   0  0  0  0  0  0  0  0  0  0  0  0
   60.7300   33.7420   47.9600 C   0  0  0  0  0  0  0  0  0  0  0  0
   61.2770   33.9230   46.7160 C   0  0  0  0  0  0  0  0  0  0  0  0
   60.4000   34.2160   45.6650 C   0  0  0  0  0  0  0  0  0  0  0  0
   59.0350   34.3190   45.8690 C   0  0  0  0  0  0  0  0  0  0  0  0
   58.4820   34.1390   47.1160 C   0  0  0  0  0  0  0  0  0  0  0  0
   59.3450   33.8500   48.1490 C   0  0  0  0  0  0  0  0  0  0  0  0
   60.2310   29.8420   49.7570 C   0  0  0  0  0  0  0  0  0  0  0  0
   58.9130   29.6820   48.9810 C   0  0  0  0  0  0  0  0  0  0  0  0
   57.7880   27.4260   47.1790 C   0  0  0  0  0  0  0  0  0  0  0  0
   56.8010   26.9120   46.3550 C   0  0  0  0  0  0  0  0  0  0  0  0
   56.3090   25.8080   46.7030 O   0  0  0  0  0  0  0  0  0  0  0  0
   56.3950   27.5310   45.2730 O   0  0  0  0  0  0  0  0  0  0  0  0
   56.9450   28.6870   44.9570 C   0  0  0  0  0  0  0  0  0  0  0  0
   56.5130   29.3410   43.7970 C   0  0  0  0  0  0  0  0  0  0  0  0
   58.2665   32.5353   42.3776 H   0  0  0  0  0  0  0  0  0  0  0  0
   58.2684   31.3745   41.0067 H   0  0  0  0  0  0  0  0  0  0  0  0
   57.1282   32.7625   41.0067 H   0  0  0  0  0  0  0  0  0  0  0  0
   58.5076   32.1115   43.9119 H   0  0  0  0  0  0  0  0  0  0  0  0
   59.2660   30.9396   45.9696 H   0  0  0  0  0  0  0  0  0  0  0  0
   61.3253   28.5815   47.5755 H   0  0  0  0  0  0  0  0  0  0  0  0
   60.7336   29.4062   46.0912 H   0  0  0  0  0  0  0  0  0  0  0  0
   62.3675   30.7107   47.6555 H   0  0  0  0  0  0  0  0  0  0  0  0
   60.8724   31.5498   47.0772 H   0  0  0  0  0  0  0  0  0  0  0  0
   61.3864   34.2751   49.9103 H   0  0  0  0  0  0  0  0  0  0  0  0
   62.5835   33.3691   48.9485 H   0  0  0  0  0  0  0  0  0  0  0  0
   62.3614   33.8413   46.5504 H   0  0  0  0  0  0  0  0  0  0  0  0
   60.8051   34.3679   44.6537 H   0  0  0  0  0  0  0  0  0  0  0  0
   58.3788   34.5495   45.0168 H   0  0  0  0  0  0  0  0  0  0  0  0
   57.3976   34.2224   47.2804 H   0  0  0  0  0  0  0  0  0  0  0  0
   58.9335   33.6985   49.1578 H   0  0  0  0  0  0  0  0  0  0  0  0
   60.8490   28.9350   49.6834 H   0  0  0  0  0  0  0  0  0  0  0  0
   60.0895   30.0054   50.8356 H   0  0  0  0  0  0  0  0  0  0  0  0
   58.2699   28.9250   49.4536 H   0  0  0  0  0  0  0  0  0  0  0  0
   58.3209   30.6087   48.9546 H   0  0  0  0  0  0  0  0  0  0  0  0
   58.1112   26.8825   48.0791 H   0  0  0  0  0  0  0  0  0  0  0  0
   55.7273   28.8945   43.1699 H   0  0  0  0  0  0  0  0  0  0  0  0
  1  2  1  0
  2  3  1  0
  3  4  2  0
  4  5  1  0
  5  6  2  0
  6  7  1  0
  7  8  1  0
  8  9  1  0
  9 10  1  0
 10 11  1  0
 11 12  1  0
 12 13  2  0
 12 14  1  0
 14 15  1  0
 15 16  2  0
 16 17  1  0
 17 18  2  0
 18 19  1  0
 19 20  2  0
 11 21  1  0
 21 22  1  0
  7 23  2  0
 23 24  1  0
 24 25  2  0
 24 26  1  0
 26 27  1  0
 27 28  2  0
 28  3  1  0
 27  6  1  0
 22  8  1  0
 20 15  1  0
  1 29  1  0
  1 30  1  0
  1 31  1  0
  4 32  1  0
  5 33  1  0
  9 34  1  0
  9 35  1  0
 10 36  1  0
 10 37  1  0
 14 38  1  0
 14 39  1  0
 16 40  1  0
 17 41  1  0
 18 42  1  0
 19 43  1  0
 20 44  1  0
 21 45  1  0
 21 46  1  0
 22 47  1  0
 22 48  1  0
 23 49  1  0
 28 50  1  0
M  END
>  <smiles>  (55) 
COc1ccc2c(N3CCN(C(=O)Cc4ccccc4)CC3)cc(=O)oc2c1

>  <score_type>  (55) 
oracle

>  <origin>  (55) 
adg

>  <m_score__min__energy>  (55) 
-7.6900000000000004

>  <m_primary>  (55) 
energy

$$$$
55:0
     RDKit          3D

 38 40  0  0  0  0  0  0  0  0999 V2000
   56.6800   22.6700   42.6250 N   0  0  0  0  0  0  0  0  0  0  0  0
   57.1340   23.3560   44.1190 S   0  0  0  0  0  0  0  0  0  0  0  0
   58.4290   22.7020   44.5770 O   0  0  0  0  0  0  0  0  0  0  0  0
   56.0590   23.0520   45.1320 O   0  0  0  0  0  0  0  0  0  0  0  0
   57.3880   25.0880   44.0050 C   0  0  0  0  0  0  0  0  0  0  0  0
   57.7500   25.7110   42.8290 C   0  0  0  0  0  0  0  0  0  0  0  0
   57.9510   27.0820   42.7400 C   0  0  0  0  0  0  0  0  0  0  0  0
   57.7780   27.8460   43.8900 C   0  0  0  0  0  0  0  0  0  0  0  0
   57.9770   29.2550   43.8340 N   0  0  0  0  0  0  0  0  0  0  0  0
   56.9290   30.1100   44.2910 C   0  0  0  0  0  0  0  0  0  0  0  0
   55.8620   29.5960   44.7280 O   0  0  0  0  0  0  0  0  0  0  0  0
   57.0360   31.5880   44.2750 C   0  0  0  0  0  0  0  0  0  0  0  0
   57.9860   32.1090   45.2410 N   0  0  0  0  0  0  0  0  0  0  0  0
   57.8590   33.3920   45.8750 C   0  0  0  0  0  0  0  0  0  0  0  0
   56.9340   34.2000   45.6740 O   0  0  0  0  0  0  0  0  0  0  0  0
   58.9840   33.5980   46.7860 C   0  0  0  0  0  0  0  0  0  0  0  0
   59.3030   34.6630   47.6120 C   0  0  0  0  0  0  0  0  0  0  0  0
   60.4510   34.5800   48.3770 C   0  0  0  0  0  0  0  0  0  0  0  0
   61.2680   33.4640   48.3270 C   0  0  0  0  0  0  0  0  0  0  0  0
   60.9080   32.4170   47.4820 C   0  0  0  0  0  0  0  0  0  0  0  0
   59.7690   32.4660   46.7030 C   0  0  0  0  0  0  0  0  0  0  0  0
   59.1750   31.5150   45.7480 C   0  0  0  0  0  0  0  0  0  0  0  0
   59.6110   30.3800   45.4170 O   0  0  0  0  0  0  0  0  0  0  0  0
   57.4180   27.2620   45.0860 C   0  0  0  0  0  0  0  0  0  0  0  0
   57.2240   25.8790   45.1370 C   0  0  0  0  0  0  0  0  0  0  0  0
   56.1850   21.7700   42.6780 H   0  0  0  0  0  0  0  0  0  0  0  0
   56.3090   23.3670   41.9580 H   0  0  0  0  0  0  0  0  0  0  0  0
   57.8848   25.0976   41.9259 H   0  0  0  0  0  0  0  0  0  0  0  0
   58.2388   27.5508   41.7874 H   0  0  0  0  0  0  0  0  0  0  0  0
   58.8620   29.6910   43.4720 H   0  0  0  0  0  0  0  0  0  0  0  0
   57.3526   31.9036   43.2699 H   0  0  0  0  0  0  0  0  0  0  0  0
   56.0473   31.9875   44.5448 H   0  0  0  0  0  0  0  0  0  0  0  0
   58.6584   35.5531   47.6580 H   0  0  0  0  0  0  0  0  0  0  0  0
   60.7205   35.4168   49.0382 H   0  0  0  0  0  0  0  0  0  0  0  0
   62.1796   33.4053   48.9398 H   0  0  0  0  0  0  0  0  0  0  0  0
   61.5498   31.5250   47.4338 H   0  0  0  0  0  0  0  0  0  0  0  0
   57.2852   27.8768   45.9884 H   0  0  0  0  0  0  0  0  0  0  0  0
   56.9367   25.4081   46.0887 H   0  0  0  0  0  0  0  0  0  0  0  0
  1  2  1  0
  2  3  2  0
  2  4  2  0
  2  5  1  0
  5  6  2  0
  6  7  1  0
  7  8  2  0
  8  9  1  0
  9 10  1  0
 10 11  2  0
 10 12  1  0
 12 13  1  0
 13 14  1  0
 14 15  2  0
 14 16  1  0
 16 17  2  0
 17 18  1  0
 18 19  2  0
 19 20  1  0
 20 21  2  0
 21 22  1  0
 22 23  2  0
  8 24  1  0
 24 25  2  0
 25  5  1  0
 22 13  1  0
 21 16  1  0
  1 26  1  0
  1 27  1  0
  6 28  1  0
  7 29  1  0
  9 30  1  0
 12 31  1  0
 12 32  1  0
 17 33  1  0
 18 34  1  0
 19 35  1  0
 20 36  1  0
 24 37  1  0
 25 38  1  0
M  END
>  <smiles>  (56) 
NS(=O)(=O)c1ccc(NC(=O)CN2C(=O)c3ccccc3C2=O)cc1

>  <score_type>  (56) 
oracle

>  <origin>  (56) 
adg

>  <m_score__min__energy>  (56) 
-8.4900000000000002

>  <m_primary>  (56) 
energy

$$$$
56:0
     RDKit          3D

 29 30  0  0  0  0  0  0  0  0999 V2000
   56.5550   23.7320   46.0950 C   0  0  0  0  0  0  0  0  0  0  0  0
   56.8150   24.8170   46.9620 O   0  0  0  0  0  0  0  0  0  0  0  0
   57.3630   26.0100   46.5440 C   0  0  0  0  0  0  0  0  0  0  0  0
   58.7130   26.2690   46.6260 C   0  0  0  0  0  0  0  0  0  0  0  0
   59.2120   27.4790   46.1940 C   0  0  0  0  0  0  0  0  0  0  0  0
   58.3840   28.4770   45.6650 C   0  0  0  0  0  0  0  0  0  0  0  0
   59.0170   29.6780   45.2150 C   0  0  0  0  0  0  0  0  0  0  0  0
   58.9720   30.8750   45.7130 C   0  0  0  0  0  0  0  0  0  0  0  0
   57.7690   31.7200   45.4880 C   0  0  0  0  0  0  0  0  0  0  0  0
   56.7780   31.2850   44.8440 O   0  0  0  0  0  0  0  0  0  0  0  0
   57.6870   33.0420   45.9830 N   0  0  0  0  0  0  0  0  0  0  0  0
   58.7400   33.6380   46.7200 C   0  0  0  0  0  0  0  0  0  0  0  0
   58.5930   34.8200   47.1280 O   0  0  0  0  0  0  0  0  0  0  0  0
   59.9080   32.8650   46.9570 N   0  0  0  0  0  0  0  0  0  0  0  0
   60.0320   31.5230   46.4730 C   0  0  0  0  0  0  0  0  0  0  0  0
   61.0970   30.9260   46.7280 O   0  0  0  0  0  0  0  0  0  0  0  0
   57.0380   28.1940   45.5930 C   0  0  0  0  0  0  0  0  0  0  0  0
   56.5160   26.9680   46.0280 C   0  0  0  0  0  0  0  0  0  0  0  0
   55.1470   26.7040   45.9470 O   0  0  0  0  0  0  0  0  0  0  0  0
   56.3392   22.8316   46.6889 H   0  0  0  0  0  0  0  0  0  0  0  0
   55.6883   23.9692   45.4606 H   0  0  0  0  0  0  0  0  0  0  0  0
   57.4351   23.5506   45.4606 H   0  0  0  0  0  0  0  0  0  0  0  0
   59.3941   25.5092   47.0368 H   0  0  0  0  0  0  0  0  0  0  0  0
   60.2934   27.6665   46.2669 H   0  0  0  0  0  0  0  0  0  0  0  0
   59.6346   29.5706   44.3111 H   0  0  0  0  0  0  0  0  0  0  0  0
   56.8150   33.6250   45.8070 H   0  0  0  0  0  0  0  0  0  0  0  0
   60.6670   33.3320   47.5050 H   0  0  0  0  0  0  0  0  0  0  0  0
   56.3536   28.9512   45.1827 H   0  0  0  0  0  0  0  0  0  0  0  0
   54.7170   25.9040   46.3710 H   0  0  0  0  0  0  0  0  0  0  0  0
  1  2  1  0
  2  3  1  0
  3  4  2  0
  4  5  1  0
  5  6  2  0
  6  7  1  0
  7  8  2  3
  8  9  1  0
  9 10  2  0
  9 11  1  0
 11 12  1  0
 12 13  2  0
 12 14  1  0
 14 15  1  0
 15 16  2  0
  6 17  1  0
 17 18  2  0
 18 19  1  0
 18  3  1  0
 15  8  1  0
  1 20  1  0
  1 21  1  0
  1 22  1  0
  4 23  1  0
  5 24  1  0
  7 25  1  0
 11 26  1  0
 14 27  1  0
 17 28  1  0
 19 29  1  0
M  END
>  <smiles>  (57) 
COc1ccc(C=C2C(=O)NC(=O)NC2=O)cc1O

>  <score_type>  (57) 
oracle

>  <origin>  (57) 
adg

>  <m_score__min__energy>  (57) 
-7.2699999999999996

>  <m_primary>  (57) 
energy

$$$$
57:0
     RDKit          3D

 45 47  0  0  0  0  0  0  0  0999 V2000
   56.6920   33.4720   46.9330 O   0  0  0  0  0  0  0  0  0  0  0  0
   57.7630   33.5680   46.2770 C   0  0  0  0  0  0  0  0  0  0  0  0
   57.8030   33.9600   44.8400 C   0  0  0  0  0  0  0  0  0  0  0  0
   57.5900   32.6710   44.0360 C   0  0  0  0  0  0  0  0  0  0  0  0
   56.7950   31.8190   44.8660 N   0  0  0  0  0  0  0  0  0  0  0  0
   56.5410   30.2580   44.2250 S   0  0  0  0  0  0  0  0  0  0  0  0
   55.2850   29.7060   44.8760 O   0  0  0  0  0  0  0  0  0  0  0  0
   56.3490   30.2860   42.7490 O   0  0  0  0  0  0  0  0  0  0  0  0
   57.8760   29.2490   44.6590 C   0  0  0  0  0  0  0  0  0  0  0  0
   58.1650   27.9460   44.4670 C   0  0  0  0  0  0  0  0  0  0  0  0
   59.3130   27.4480   44.9370 C   0  0  0  0  0  0  0  0  0  0  0  0
   60.1400   28.3010   45.5940 C   0  0  0  0  0  0  0  0  0  0  0  0
   59.3110   29.9430   45.5920 S   0  0  0  0  0  0  0  0  0  0  0  0
   59.0050   33.2920   46.9320 N   0  0  0  0  0  0  0  0  0  0  0  0
   60.2830   33.3800   46.2510 C   0  0  0  0  0  0  0  0  0  0  0  0
   61.3040   33.8680   47.2840 C   0  0  0  0  0  0  0  0  0  0  0  0
   61.4230   32.8140   48.2720 N   0  0  0  0  0  0  0  0  0  0  0  0
   62.6560   32.5320   48.9520 C   0  0  0  0  0  0  0  0  0  0  0  0
   63.7750   33.3210   48.7680 C   0  0  0  0  0  0  0  0  0  0  0  0
   64.9800   33.0590   49.4170 C   0  0  0  0  0  0  0  0  0  0  0  0
   65.0230   31.9720   50.2610 C   0  0  0  0  0  0  0  0  0  0  0  0
   63.9510   31.1870   50.4590 N   0  0  0  0  0  0  0  0  0  0  0  0
   62.7880   31.4660   49.8140 C   0  0  0  0  0  0  0  0  0  0  0  0
   60.2500   32.0350   48.5730 C   0  0  0  0  0  0  0  0  0  0  0  0
   59.0330   32.9070   48.3290 C   0  0  0  0  0  0  0  0  0  0  0  0
   57.0034   34.6827   44.6199 H   0  0  0  0  0  0  0  0  0  0  0  0
   58.7595   34.4383   44.5825 H   0  0  0  0  0  0  0  0  0  0  0  0
   57.0630   32.8892   43.0954 H   0  0  0  0  0  0  0  0  0  0  0  0
   58.5467   32.1978   43.7699 H   0  0  0  0  0  0  0  0  0  0  0  0
   55.9590   32.2710   45.2870 H   0  0  0  0  0  0  0  0  0  0  0  0
   57.4603   27.2967   43.9268 H   0  0  0  0  0  0  0  0  0  0  0  0
   59.5771   26.3894   44.7970 H   0  0  0  0  0  0  0  0  0  0  0  0
   61.1155   28.0577   46.0404 H   0  0  0  0  0  0  0  0  0  0  0  0
   60.5760   32.3917   45.8669 H   0  0  0  0  0  0  0  0  0  0  0  0
   60.2272   34.0696   45.3958 H   0  0  0  0  0  0  0  0  0  0  0  0
   62.2760   34.0490   46.8019 H   0  0  0  0  0  0  0  0  0  0  0  0
   60.9828   34.8131   47.7462 H   0  0  0  0  0  0  0  0  0  0  0  0
   63.7128   34.1832   48.0878 H   0  0  0  0  0  0  0  0  0  0  0  0
   65.8630   33.6962   49.2610 H   0  0  0  0  0  0  0  0  0  0  0  0
   65.9606   31.7401   50.7874 H   0  0  0  0  0  0  0  0  0  0  0  0
   61.9182   30.8152   49.9870 H   0  0  0  0  0  0  0  0  0  0  0  0
   60.2120   31.1501   47.9207 H   0  0  0  0  0  0  0  0  0  0  0  0
   60.2741   31.6966   49.6194 H   0  0  0  0  0  0  0  0  0  0  0  0
   58.1203   32.3448   48.5756 H   0  0  0  0  0  0  0  0  0  0  0  0
   59.0842   33.8048   48.9625 H   0  0  0  0  0  0  0  0  0  0  0  0
  1  2  2  0
  2  3  1  0
  3  4  1  0
  4  5  1  0
  5  6  1  0
  6  7  2  0
  6  8  2  0
  6  9  1  0
  9 10  2  0
 10 11  1  0
 11 12  2  0
 12 13  1  0
  2 14  1  0
 14 15  1  0
 15 16  1  0
 16 17  1  0
 17 18  1  0
 18 19  2  0
 19 20  1  0
 20 21  2  0
 21 22  1  0
 22 23  2  0
 17 24  1  0
 24 25  1  0
 13  9  1  0
 25 14  1  0
 23 18  1  0
  3 26  1  0
  3 27  1  0
  4 28  1  0
  4 29  1  0
  5 30  1  0
 10 31  1  0
 11 32  1  0
 12 33  1  0
 15 34  1  0
 15 35  1  0
 16 36  1  0
 16 37  1  0
 19 38  1  0
 20 39  1  0
 21 40  1  0
 23 41  1  0
 24 42  1  0
 24 43  1  0
 25 44  1  0
 25 45  1  0
M  END
>  <smiles>  (58) 
O=C(CCNS(=O)(=O)c1cccs1)N1CCN(c2cccnc2)CC1

>  <score_type>  (58) 
oracle

>  <origin>  (58) 
adg

>  <m_score__min__energy>  (58) 
-8.5199999999999996

>  <m_primary>  (58) 
energy

$$$$
58:0
     RDKit          3D

 34 36  0  0  0  0  0  0  0  0999 V2000
   61.4150   30.1820   46.1550 O   0  0  0  0  0  0  0  0  0  0  0  0
   60.6330   30.9250   46.8030 C   0  0  0  0  0  0  0  0  0  0  0  0
   59.2460   30.7000   46.6880 N   0  0  0  0  0  0  0  0  0  0  0  0
   58.8160   29.6110   45.8160 C   0  0  0  0  0  0  0  0  0  0  0  0
   57.5020   29.9930   45.2490 C   0  0  0  0  0  0  0  0  0  0  0  0
   56.4860   29.1800   44.9090 N   0  0  0  0  0  0  0  0  0  0  0  0
   55.5110   29.9580   44.4440 N   0  0  0  0  0  0  0  0  0  0  0  0
   55.9100   31.2130   44.4940 N   0  0  0  0  0  0  0  0  0  0  0  0
   57.1390   31.2520   44.9890 N   0  0  0  0  0  0  0  0  0  0  0  0
   57.8470   32.4730   45.1670 C   0  0  0  0  0  0  0  0  0  0  0  0
   58.6560   33.0270   44.1950 C   0  0  0  0  0  0  0  0  0  0  0  0
   59.2790   34.2170   44.5130 C   0  0  0  0  0  0  0  0  0  0  0  0
   59.1210   34.8450   45.7310 C   0  0  0  0  0  0  0  0  0  0  0  0
   59.7450   36.0090   46.0080 F   0  0  0  0  0  0  0  0  0  0  0  0
   58.3070   34.2860   46.7080 C   0  0  0  0  0  0  0  0  0  0  0  0
   57.6820   33.0990   46.3990 C   0  0  0  0  0  0  0  0  0  0  0  0
   61.2260   31.9700   47.6310 C   0  0  0  0  0  0  0  0  0  0  0  0
   60.4400   32.5930   48.5620 C   0  0  0  0  0  0  0  0  0  0  0  0
   60.9020   33.5950   49.3960 C   0  0  0  0  0  0  0  0  0  0  0  0
   60.0880   34.1870   50.3050 F   0  0  0  0  0  0  0  0  0  0  0  0
   62.2180   33.9690   49.2700 C   0  0  0  0  0  0  0  0  0  0  0  0
   62.9990   33.3470   48.3430 C   0  0  0  0  0  0  0  0  0  0  0  0
   64.2950   33.7400   48.2430 F   0  0  0  0  0  0  0  0  0  0  0  0
   62.5470   32.3450   47.5040 C   0  0  0  0  0  0  0  0  0  0  0  0
   58.5830   31.3030   47.2160 H   0  0  0  0  0  0  0  0  0  0  0  0
   59.5471   29.4655   45.0071 H   0  0  0  0  0  0  0  0  0  0  0  0
   58.7382   28.6691   46.3789 H   0  0  0  0  0  0  0  0  0  0  0  0
   58.7970   32.5445   43.2166 H   0  0  0  0  0  0  0  0  0  0  0  0
   59.9309   34.6857   43.7612 H   0  0  0  0  0  0  0  0  0  0  0  0
   58.1679   34.7706   47.6857 H   0  0  0  0  0  0  0  0  0  0  0  0
   57.0305   32.6297   47.1509 H   0  0  0  0  0  0  0  0  0  0  0  0
   59.3888   32.2815   48.6515 H   0  0  0  0  0  0  0  0  0  0  0  0
   62.6358   34.7606   49.9094 H   0  0  0  0  0  0  0  0  0  0  0  0
   63.2114   31.8684   46.7682 H   0  0  0  0  0  0  0  0  0  0  0  0
  1  2  2  0
  2  3  1  0
  3  4  1  0
  4  5  1  0
  5  6  2  0
  6  7  1  0
  7  8  2  0
  8  9  1  0
  9 10  1  0
 10 11  2  0
 11 12  1  0
 12 13  2  0
 13 14  1  0
 13 15  1  0
 15 16  2  0
  2 17  1  0
 17 18  2  0
 18 19  1  0
 19 20  1  0
 19 21  2  0
 21 22  1  0
 22 23  1  0
 22 24  2  0
  9  5  1  0
 16 10  1  0
 24 17  1  0
  3 25  1  0
  4 26  1  0
  4 27  1  0
 11 28  1  0
 12 29  1  0
 15 30  1  0
 16 31  1  0
 18 32  1  0
 21 33  1  0
 24 34  1  0
M  END
>  <smiles>  (59) 
O=C(NCc1nnnn1-c1ccc(F)cc1)c1cc(F)cc(F)c1

>  <score_type>  (59) 
oracle

>  <origin>  (59) 
adg

>  <m_score__min__energy>  (59) 
-7.8399999999999999

>  <m_primary>  (59) 
energy

$$$$
59:0
     RDKit          3D

 36 37  0  0  1  0  0  0  0  0999 V2000
   55.0460   23.3360   46.9380 C   0  0  0  0  0  0  0  0  0  0  0  0
   56.4640   23.8590   46.8860 C   0  0  0  0  0  0  0  0  0  0  0  0
   57.2410   22.9220   46.0030 C   0  0  0  0  0  0  0  0  0  0  0  0
   57.0210   23.9240   48.2700 C   0  0  0  0  0  0  0  0  0  0  0  0
   56.4820   25.2050   46.2400 C   0  0  0  0  0  0  0  0  0  0  0  0
   57.4830   25.7900   45.5130 C   0  0  0  0  0  0  0  0  0  0  0  0
   57.0110   27.0310   45.1370 C   0  0  0  0  0  0  0  0  0  0  0  0
   57.5810   27.9580   44.4420 N   0  0  0  0  0  0  0  0  0  0  0  0
   57.4150   29.3000   44.9210 C   0  0  0  0  0  0  0  0  0  0  0  0
   56.2560   29.7190   45.1700 O   0  0  0  0  0  0  0  0  0  0  0  0
   58.5850   30.1020   45.0930 N   0  0  0  0  0  0  0  0  0  0  0  0
   58.5330   31.4450   45.5610 C   0  0  0  0  0  0  0  0  0  0  0  0
   57.7540   32.4030   44.9240 C   0  0  0  0  0  0  0  0  0  0  0  0
   57.7700   33.6740   45.4520 C   0  0  0  0  0  0  0  0  0  0  0  0
   58.5180   34.0010   46.5620 C   0  0  0  0  0  0  0  0  0  0  0  0
   58.5360   35.2570   47.0870 F   0  0  0  0  0  0  0  0  0  0  0  0
   59.2970   33.0600   47.2050 C   0  0  0  0  0  0  0  0  0  0  0  0
   59.2830   31.7730   46.6740 C   0  0  0  0  0  0  0  0  0  0  0  0
   55.7750   27.1520   45.6350 N   0  0  0  0  0  0  0  0  0  0  0  0
   55.4870   26.0790   46.2740 O   0  0  0  0  0  0  0  0  0  0  0  0
   54.7357   23.2215   47.9871 H   0  0  0  0  0  0  0  0  0  0  0  0
   54.3747   24.0457   46.4324 H   0  0  0  0  0  0  0  0  0  0  0  0
   54.9963   22.3604   46.4324 H   0  0  0  0  0  0  0  0  0  0  0  0
   57.8192   22.2248   46.6272 H   0  0  0  0  0  0  0  0  0  0  0  0
   56.5447   22.3546   45.3680 H   0  0  0  0  0  0  0  0  0  0  0  0
   57.9275   23.5012   45.3680 H   0  0  0  0  0  0  0  0  0  0  0  0
   56.2031   23.8285   48.9993 H   0  0  0  0  0  0  0  0  0  0  0  0
   57.7392   23.1036   48.4151 H   0  0  0  0  0  0  0  0  0  0  0  0
   57.5310   24.8878   48.4151 H   0  0  0  0  0  0  0  0  0  0  0  0
   58.4664   25.3578   45.2760 H   0  0  0  0  0  0  0  0  0  0  0  0
   59.5050   29.6800   44.8640 H   0  0  0  0  0  0  0  0  0  0  0  0
   57.1514   32.1567   44.0373 H   0  0  0  0  0  0  0  0  0  0  0  0
   57.1644   34.4562   44.9709 H   0  0  0  0  0  0  0  0  0  0  0  0
   59.8976   33.3138   48.0909 H   0  0  0  0  0  0  0  0  0  0  0  0
   59.8889   30.9918   47.1564 H   0  0  0  0  0  0  0  0  0  0  0  0
   55.1440   27.9980   45.5180 H   0  0  0  0  0  0  0  0  0  0  0  0
  1  2  1  0
  2  3  1  0
  2  4  1  0
  2  5  1  0
  5  6  2  0
  6  7  1  0
  7  8  2  0
  8  9  1  0
  9 10  2  0
  9 11  1  0
 11 12  1  0
 12 13  2  0
 13 14  1  0
 14 15  2  0
 15 16  1  0
 15 17  1  0
 17 18  2  0
  7 19  1  0
 19 20  1  0
 20  5  1  0
 18 12  1  0
  1 21  1  0
  1 22  1  0
  1 23  1  0
  3 24  1  0
  3 25  1  0
  3 26  1  0
  4 27  1  0
  4 28  1  0
  4 29  1  0
  6 30  1  0
 11 31  1  0
 13 32  1  0
 14 33  1  0
 17 34  1  0
 18 35  1  0
 19 36  1  0
M  END
>  <smiles>  (60) 
CC(C)(C)c1cc(=NC(=O)Nc2ccc(F)cc2)[nH]o1

>  <score_type>  (60) 
oracle

>  <origin>  (60) 
adg

>  <m_score__min__energy>  (60) 
-7.1799999999999997

>  <m_primary>  (60) 
energy

$$$$
60:0
     RDKit          3D

 49 52  0  0  0  0  0  0  0  0999 V2000
   56.6590   20.6990   42.9980 C   0  0  0  0  0  0  0  0  0  0  0  0
   57.2050   21.9760   43.5100 C   0  0  0  0  0  0  0  0  0  0  0  0
   58.4770   21.8730   44.3120 C   0  0  0  0  0  0  0  0  0  0  0  0
   56.6490   23.1560   43.3030 C   0  0  0  0  0  0  0  0  0  0  0  0
   56.7400   24.2920   44.1690 C   0  0  0  0  0  0  0  0  0  0  0  0
   56.1890   24.4040   45.4180 C   0  0  0  0  0  0  0  0  0  0  0  0
   56.3210   25.5260   46.2030 C   0  0  0  0  0  0  0  0  0  0  0  0
   57.0440   26.6100   45.7240 C   0  0  0  0  0  0  0  0  0  0  0  0
   57.3470   27.8300   46.2430 N   0  0  0  0  0  0  0  0  0  0  0  0
   58.0860   28.5090   45.3480 C   0  0  0  0  0  0  0  0  0  0  0  0
   58.5760   29.8600   45.6010 C   0  0  0  0  0  0  0  0  0  0  0  0
   59.6620   30.0440   46.4320 C   0  0  0  0  0  0  0  0  0  0  0  0
   60.1560   31.3190   46.6970 C   0  0  0  0  0  0  0  0  0  0  0  0
   59.5700   32.4330   46.1320 C   0  0  0  0  0  0  0  0  0  0  0  0
   60.1040   33.6650   46.4320 O   0  0  0  0  0  0  0  0  0  0  0  0
   61.2330   33.7590   47.2110 C   0  0  0  0  0  0  0  0  0  0  0  0
   62.5210   33.6150   46.7440 C   0  0  0  0  0  0  0  0  0  0  0  0
   63.5930   33.7320   47.6380 C   0  0  0  0  0  0  0  0  0  0  0  0
   63.3800   33.9910   48.9820 C   0  0  0  0  0  0  0  0  0  0  0  0
   62.0920   34.1360   49.4510 C   0  0  0  0  0  0  0  0  0  0  0  0
   61.0570   34.0170   48.5590 C   0  0  0  0  0  0  0  0  0  0  0  0
   58.4840   32.2430   45.3010 C   0  0  0  0  0  0  0  0  0  0  0  0
   57.9750   30.9740   45.0230 C   0  0  0  0  0  0  0  0  0  0  0  0
   56.8010   30.7850   44.1220 C   0  0  0  0  0  0  0  0  0  0  0  0
   58.2360   27.7220   44.2950 N   0  0  0  0  0  0  0  0  0  0  0  0
   57.6060   26.5310   44.4830 C   0  0  0  0  0  0  0  0  0  0  0  0
   57.4620   25.4000   43.7150 C   0  0  0  0  0  0  0  0  0  0  0  0
   56.3827   20.0528   43.8442 H   0  0  0  0  0  0  0  0  0  0  0  0
   55.7684   20.9007   42.3846 H   0  0  0  0  0  0  0  0  0  0  0  0
   57.4201   20.1945   42.3846 H   0  0  0  0  0  0  0  0  0  0  0  0
   58.2364   21.8925   45.3852 H   0  0  0  0  0  0  0  0  0  0  0  0
   58.9890   20.9305   44.0681 H   0  0  0  0  0  0  0  0  0  0  0  0
   59.1339   22.7209   44.0681 H   0  0  0  0  0  0  0  0  0  0  0  0
   56.0622   23.2768   42.3805 H   0  0  0  0  0  0  0  0  0  0  0  0
   55.6123   23.5546   45.8130 H   0  0  0  0  0  0  0  0  0  0  0  0
   55.8583   25.5638   47.2002 H   0  0  0  0  0  0  0  0  0  0  0  0
   57.0220   28.1190   47.1930 H   0  0  0  0  0  0  0  0  0  0  0  0
   60.1453   29.1698   46.8925 H   0  0  0  0  0  0  0  0  0  0  0  0
   61.0226   31.4391   47.3638 H   0  0  0  0  0  0  0  0  0  0  0  0
   62.7059   33.4101   45.6792 H   0  0  0  0  0  0  0  0  0  0  0  0
   64.6218   33.6162   47.2663 H   0  0  0  0  0  0  0  0  0  0  0  0
   64.2332   34.0804   49.6705 H   0  0  0  0  0  0  0  0  0  0  0  0
   61.8990   34.3420   50.5142 H   0  0  0  0  0  0  0  0  0  0  0  0
   60.0302   34.1331   48.9361 H   0  0  0  0  0  0  0  0  0  0  0  0
   58.0044   33.1207   44.8431 H   0  0  0  0  0  0  0  0  0  0  0  0
   55.8941   30.6390   44.7272 H   0  0  0  0  0  0  0  0  0  0  0  0
   56.6789   31.6751   43.4873 H   0  0  0  0  0  0  0  0  0  0  0  0
   56.9644   29.9016   43.4873 H   0  0  0  0  0  0  0  0  0  0  0  0
   57.9264   25.3658   42.7184 H   0  0  0  0  0  0  0  0  0  0  0  0
  1  2  1  0
  2  3  1  0
  2  4  2  3
  4  5  1  0
  5  6  2  0
  6  7  1  0
  7  8  2  0
  8  9  1  0
  9 10  1  0
 10 11  1  0
 11 12  2  0
 12 13  1  0
 13 14  2  0
 14 15  1  0
 15 16  1  0
 16 17  2  0
 17 18  1  0
 18 19  2  0
 19 20  1  0
 20 21  2  0
 14 22  1  0
 22 23  2  0
 23 24  1  0
 10 25  2  0
 25 26  1  0
 26 27  2  0
 27  5  1  0
 26  8  1  0
 23 11  1  0
 21 16  1  0
  1 28  1  0
  1 29  1  0
  1 30  1  0
  3 31  1  0
  3 32  1  0
  3 33  1  0
  4 34  1  0
  6 35  1  0
  7 36  1  0
  9 37  1  0
 12 38  1  0
 13 39  1  0
 17 40  1  0
 18 41  1  0
 19 42  1  0
 20 43  1  0
 21 44  1  0
 22 45  1  0
 24 46  1  0
 24 47  1  0
 24 48  1  0
 27 49  1  0
M  END
>  <smiles>  (61) 
CC(C)=Cc1ccc2[nH]c(-c3ccc(Oc4ccccc4)cc3C)nc2c1

>  <score_type>  (61) 
oracle

>  <origin>  (61) 
adg

>  <m_score__min__energy>  (61) 
-8.0399999999999991

>  <m_primary>  (61) 
energy

$$$$
61:0
     RDKit          3D

 70 74  0  0  0  0  0  0  0  0999 V2000
   52.2800   24.4120   44.8360 C   0  0  0  0  0  0  0  0  0  0  0  0
   53.2840   24.9060   45.6730 O   0  0  0  0  0  0  0  0  0  0  0  0
   54.5780   24.3210   45.6970 C   0  0  0  0  0  0  0  0  0  0  0  0
   55.5990   25.2230   45.5820 C   0  0  0  0  0  0  0  0  0  0  0  0
   56.9070   24.7870   45.5940 C   0  0  0  0  0  0  0  0  0  0  0  0
   57.8690   25.7530   45.5280 C   0  0  0  0  0  0  0  0  0  0  0  0
   57.8380   27.0290   45.4180 O   0  0  0  0  0  0  0  0  0  0  0  0
   57.8490   28.2850   45.2890 C   0  0  0  0  0  0  0  0  0  0  0  0
   57.3510   28.7510   43.9930 C   0  0  0  0  0  0  0  0  0  0  0  0
   57.3150   30.1150   43.7870 C   0  0  0  0  0  0  0  0  0  0  0  0
   57.7150   31.0340   44.7260 C   0  0  0  0  0  0  0  0  0  0  0  0
   57.5320   32.4030   44.3970 N   0  0  0  0  0  0  0  0  0  0  0  0
   57.5490   33.6530   45.6000 S   0  0  0  0  0  0  0  0  0  0  0  0
   57.2880   34.9540   44.8970 O   0  0  0  0  0  0  0  0  0  0  0  0
   56.5850   33.4120   46.7140 O   0  0  0  0  0  0  0  0  0  0  0  0
   59.1460   33.6670   46.2590 C   0  0  0  0  0  0  0  0  0  0  0  0
   60.3520   33.8550   45.6530 C   0  0  0  0  0  0  0  0  0  0  0  0
   61.4820   33.8320   46.3650 C   0  0  0  0  0  0  0  0  0  0  0  0
   61.3940   33.6140   47.7120 C   0  0  0  0  0  0  0  0  0  0  0  0
   62.6910   33.5110   49.1070 Br  0  0  0  0  0  0  0  0  0  0  0  0
   59.5540   33.4230   48.0240 S   0  0  0  0  0  0  0  0  0  0  0  0
   58.1710   30.5680   45.9130 C   0  0  0  0  0  0  0  0  0  0  0  0
   58.2460   29.2040   46.2130 C   0  0  0  0  0  0  0  0  0  0  0  0
   58.7130   28.8680   47.5710 C   0  0  0  0  0  0  0  0  0  0  0  0
   59.2160   25.1950   45.6080 C   0  0  0  0  0  0  0  0  0  0  0  0
   59.4250   23.8570   45.7290 C   0  0  0  0  0  0  0  0  0  0  0  0
   58.3980   23.0050   45.7840 N   0  0  0  0  0  0  0  0  0  0  0  0
   57.1150   23.4350   45.7220 C   0  0  0  0  0  0  0  0  0  0  0  0
   56.0450   22.5270   45.8410 C   0  0  0  0  0  0  0  0  0  0  0  0
   54.7460   22.9600   45.8310 C   0  0  0  0  0  0  0  0  0  0  0  0
   53.6150   22.2150   45.9500 O   0  0  0  0  0  0  0  0  0  0  0  0
   52.6060   21.5480   46.0580 C   0  0  0  0  0  0  0  0  0  0  0  0
   52.3220   20.8480   47.4470 C   0  0  0  0  0  0  0  0  0  0  0  0
   53.0170   21.6880   48.4570 C   0  0  0  0  0  0  0  0  0  0  0  0
   54.1990   21.1270   49.0180 N   0  0  0  0  0  0  0  0  0  0  0  0
   55.0140   20.4860   48.0380 C   0  0  0  0  0  0  0  0  0  0  0  0
   56.4040   20.2490   48.6440 C   0  0  0  0  0  0  0  0  0  0  0  0
   57.0230   21.4580   48.7760 O   0  0  0  0  0  0  0  0  0  0  0  0
   56.1510   22.5030   48.9660 C   0  0  0  0  0  0  0  0  0  0  0  0
   54.9010   22.1420   49.7140 C   0  0  0  0  0  0  0  0  0  0  0  0
   51.4592   24.0081   45.4468 H   0  0  0  0  0  0  0  0  0  0  0  0
   51.8987   25.2254   44.2011 H   0  0  0  0  0  0  0  0  0  0  0  0
   52.6918   23.6136   44.2011 H   0  0  0  0  0  0  0  0  0  0  0  0
   55.3771   26.2956   45.4800 H   0  0  0  0  0  0  0  0  0  0  0  0
   57.0201   28.0445   43.2175 H   0  0  0  0  0  0  0  0  0  0  0  0
   56.9463   30.4860   42.8193 H   0  0  0  0  0  0  0  0  0  0  0  0
   57.3820   32.6880   43.3880 H   0  0  0  0  0  0  0  0  0  0  0  0
   60.3954   34.0273   44.5674 H   0  0  0  0  0  0  0  0  0  0  0  0
   62.4577   33.9844   45.8804 H   0  0  0  0  0  0  0  0  0  0  0  0
   58.4962   31.2931   46.6735 H   0  0  0  0  0  0  0  0  0  0  0  0
   58.0540   29.3422   48.3132 H   0  0  0  0  0  0  0  0  0  0  0  0
   58.6921   27.7766   47.7063 H   0  0  0  0  0  0  0  0  0  0  0  0
   59.7412   29.2347   47.7063 H   0  0  0  0  0  0  0  0  0  0  0  0
   60.0815   25.8727   45.5695 H   0  0  0  0  0  0  0  0  0  0  0  0
   60.4537   23.4711   45.7823 H   0  0  0  0  0  0  0  0  0  0  0  0
   56.2563   21.4524   45.9437 H   0  0  0  0  0  0  0  0  0  0  0  0
   51.7530   22.2090   45.8447 H   0  0  0  0  0  0  0  0  0  0  0  0
   52.7524   20.7140   45.3558 H   0  0  0  0  0  0  0  0  0  0  0  0
   51.2412   20.8169   47.6492 H   0  0  0  0  0  0  0  0  0  0  0  0
   52.6782   19.8074   47.4630 H   0  0  0  0  0  0  0  0  0  0  0  0
   53.2895   22.6390   47.9760 H   0  0  0  0  0  0  0  0  0  0  0  0
   52.3108   21.7976   49.2932 H   0  0  0  0  0  0  0  0  0  0  0  0
   54.5642   19.5236   47.7525 H   0  0  0  0  0  0  0  0  0  0  0  0
   55.0952   21.1184   47.1416 H   0  0  0  0  0  0  0  0  0  0  0  0
   56.3040   19.7722   49.6302 H   0  0  0  0  0  0  0  0  0  0  0  0
   56.9951   19.5884   47.9926 H   0  0  0  0  0  0  0  0  0  0  0  0
   56.6743   23.2889   49.5303 H   0  0  0  0  0  0  0  0  0  0  0  0
   55.8332   22.8313   47.9654 H   0  0  0  0  0  0  0  0  0  0  0  0
   55.1683   21.7784   50.7172 H   0  0  0  0  0  0  0  0  0  0  0  0
   54.2603   23.0320   49.7997 H   0  0  0  0  0  0  0  0  0  0  0  0
  1  2  1  0
  2  3  1  0
  3  4  2  0
  4  5  1  0
  5  6  2  0
  6  7  1  0
  7  8  1  0
  8  9  2  0
  9 10  1  0
 10 11  2  0
 11 12  1  0
 12 13  1  0
 13 14  2  0
 13 15  2  0
 13 16  1  0
 16 17  2  0
 17 18  1  0
 18 19  2  0
 19 20  1  0
 19 21  1  0
 11 22  1  0
 22 23  2  0
 23 24  1  0
  6 25  1  0
 25 26  2  0
 26 27  1  0
 27 28  2  0
 28 29  1  0
 29 30  2  0
 30 31  1  0
 31 32  1  0
 32 33  1  0
 33 34  1  0
 34 35  1  0
 35 36  1  0
 36 37  1  0
 37 38  1  0
 38 39  1  0
 39 40  1  0
 30  3  1  0
 40 35  1  0
 28  5  1  0
 23  8  1  0
 21 16  1  0
  1 41  1  0
  1 42  1  0
  1 43  1  0
  4 44  1  0
  9 45  1  0
 10 46  1  0
 12 47  1  0
 17 48  1  0
 18 49  1  0
 22 50  1  0
 24 51  1  0
 24 52  1  0
 24 53  1  0
 25 54  1  0
 26 55  1  0
 29 56  1  0
 32 57  1  0
 32 58  1  0
 33 59  1  0
 33 60  1  0
 34 61  1  0
 34 62  1  0
 36 63  1  0
 36 64  1  0
 37 65  1  0
 37 66  1  0
 39 67  1  0
 39 68  1  0
 40 69  1  0
 40 70  1  0
M  END
>  <smiles>  (62) 
COc1cc2c(Oc3ccc(NS(=O)(=O)c4ccc(Br)s4)cc3C)ccnc2cc1OCCCN1CCOCC1

>  <score_type>  (62) 
oracle

>  <origin>  (62) 
adg

>  <m_score__min__energy>  (62) 
-9.8800000000000008

>  <m_primary>  (62) 
energy

$$$$
62:0
     RDKit          3D

 42 44  0  0  1  0  0  0  0  0999 V2000
   57.7370   32.7400   48.0580 C   0  0  0  0  0  0  0  0  0  0  0  0
   58.6530   32.1660   47.1500 O   0  0  0  0  0  0  0  0  0  0  0  0
   58.3530   32.2220   45.7960 C   0  0  0  0  0  0  0  0  0  0  0  0
   57.6960   31.1840   45.1530 C   0  0  0  0  0  0  0  0  0  0  0  0
   57.3970   31.2400   43.7940 C   0  0  0  0  0  0  0  0  0  0  0  0
   57.7780   32.3610   43.1140 C   0  0  0  0  0  0  0  0  0  0  0  0
   57.5220   32.4880   41.7920 F   0  0  0  0  0  0  0  0  0  0  0  0
   58.4330   33.4080   43.7270 C   0  0  0  0  0  0  0  0  0  0  0  0
   58.7460   33.3730   45.1000 C   0  0  0  0  0  0  0  0  0  0  0  0
   59.3890   34.4560   45.8120 C   0  0  0  0  0  0  0  0  0  0  0  0
   61.9240   30.4730   48.0660 N   0  0  0  0  0  0  0  0  0  0  0  0
   62.2600   31.6030   47.5330 C   0  0  0  0  0  0  0  0  0  0  0  0
   62.8840   33.9690   46.4230 C   0  0  0  0  0  0  0  0  0  0  0  0
   63.8730   33.1040   46.7780 C   0  0  0  0  0  0  0  0  0  0  0  0
   63.5680   31.9190   47.3340 N   0  0  0  0  0  0  0  0  0  0  0  0
   61.5630   33.6420   46.6280 C   0  0  0  0  0  0  0  0  0  0  0  0
   60.6820   34.4550   46.2910 N   0  0  0  0  0  0  0  0  0  0  0  0
   60.7500   29.7590   47.6240 C   0  0  0  0  0  0  0  0  0  0  0  0
   60.6820   29.4390   46.2630 C   0  0  0  0  0  0  0  0  0  0  0  0
   59.5780   28.7480   45.7500 C   0  0  0  0  0  0  0  0  0  0  0  0
   58.5720   28.4020   46.6410 C   0  0  0  0  0  0  0  0  0  0  0  0
   57.4460   27.6930   46.0950 C   0  0  0  0  0  0  0  0  0  0  0  0
   56.5350   27.1010   45.6560 N   0  0  0  0  0  0  0  0  0  0  0  0
   58.6360   28.7180   47.9890 C   0  0  0  0  0  0  0  0  0  0  0  0
   59.7420   29.4090   48.4990 C   0  0  0  0  0  0  0  0  0  0  0  0
   61.2630   32.4510   47.1870 N   0  0  0  0  0  0  0  0  0  0  0  0
   58.0643   32.5349   49.0879 H   0  0  0  0  0  0  0  0  0  0  0  0
   57.6934   33.8272   47.8968 H   0  0  0  0  0  0  0  0  0  0  0  0
   56.7396   32.3051   47.8968 H   0  0  0  0  0  0  0  0  0  0  0  0
   57.4038   30.2945   45.7305 H   0  0  0  0  0  0  0  0  0  0  0  0
   56.8748   30.4142   43.2887 H   0  0  0  0  0  0  0  0  0  0  0  0
   58.7169   34.2885   43.1319 H   0  0  0  0  0  0  0  0  0  0  0  0
   59.3331   35.3204   45.1340 H   0  0  0  0  0  0  0  0  0  0  0  0
   58.8366   34.4104   46.7621 H   0  0  0  0  0  0  0  0  0  0  0  0
   63.1425   34.9369   45.9687 H   0  0  0  0  0  0  0  0  0  0  0  0
   64.9255   33.3757   46.6093 H   0  0  0  0  0  0  0  0  0  0  0  0
   64.3210   31.2630   47.6030 H   0  0  0  0  0  0  0  0  0  0  0  0
   61.5023   29.7327   45.5915 H   0  0  0  0  0  0  0  0  0  0  0  0
   59.5106   28.4895   44.6829 H   0  0  0  0  0  0  0  0  0  0  0  0
   57.8153   28.4250   48.6603 H   0  0  0  0  0  0  0  0  0  0  0  0
   59.8055   29.6655   49.5668 H   0  0  0  0  0  0  0  0  0  0  0  0
   60.2610   32.1910   47.3460 H   0  0  0  0  0  0  0  0  0  0  0  0
  1  2  1  0
  2  3  1  0
  3  4  2  0
  4  5  1  0
  5  6  2  0
  6  7  1  0
  6  8  1  0
  8  9  2  0
  9 10  1  0
 10 11  1  0
 11 12  2  0
 12 13  1  0
 13 14  2  0
 14 15  1  0
 15 16  1  0
 16 17  2  0
 17 18  1  0
 18 19  2  0
 19 20  1  0
 20 21  2  0
 21 22  1  0
 22 23  3  0
 21 24  1  0
 24 25  2  0
 16 26  1  0
  9  3  1  0
 26 12  1  0
 25 18  1  0
  1 27  1  0
  1 28  1  0
  1 29  1  0
  4 30  1  0
  5 31  1  0
  8 32  1  0
 10 33  1  0
 10 34  1  0
 13 35  1  0
 14 36  1  0
 15 37  1  0
 19 38  1  0
 20 39  1  0
 24 40  1  0
 25 41  1  0
 26 42  1  0
M  END
>  <smiles>  (63) 
COc1ccc(F)cc1CN=c1cc[nH]c(=Nc2ccc(C#N)cc2)[nH]1

>  <score_type>  (63) 
oracle

>  <origin>  (63) 
adg

>  <m_score__min__energy>  (63) 
-8.0199999999999996

>  <m_primary>  (63) 
energy

$$$$
63:0
     RDKit          3D

 49 51  0  0  0  0  0  0  0  0999 V2000
   56.9820   31.5350   41.9050 C   0  0  0  0  0  0  0  0  0  0  0  0
   57.4690   31.3140   43.2650 N   0  0  0  0  0  0  0  0  0  0  0  0
   57.8990   32.4030   43.9260 C   0  0  0  0  0  0  0  0  0  0  0  0
   58.3490   32.2150   45.1780 N   0  0  0  0  0  0  0  0  0  0  0  0
   58.3710   30.9970   45.7470 C   0  0  0  0  0  0  0  0  0  0  0  0
   58.8560   30.8930   47.0290 C   0  0  0  0  0  0  0  0  0  0  0  0
   58.8830   29.6440   47.6000 C   0  0  0  0  0  0  0  0  0  0  0  0
   59.3750   29.5540   48.8970 O   0  0  0  0  0  0  0  0  0  0  0  0
   60.2090   30.5710   49.3890 C   0  0  0  0  0  0  0  0  0  0  0  0
   59.3750   31.5900   50.1540 C   0  0  0  0  0  0  0  0  0  0  0  0
   59.4470   32.8810   49.3580 C   0  0  0  0  0  0  0  0  0  0  0  0
   60.7430   33.4620   49.6120 N   0  0  0  0  0  0  0  0  0  0  0  0
   57.4690   30.0770   43.7850 C   0  0  0  0  0  0  0  0  0  0  0  0
   61.6960   33.6620   47.4700 C   0  0  0  0  0  0  0  0  0  0  0  0
   62.8680   33.5360   46.7290 C   0  0  0  0  0  0  0  0  0  0  0  0
   64.0250   33.1540   47.3040 N   0  0  0  0  0  0  0  0  0  0  0  0
   64.1080   32.8730   48.6350 C   0  0  0  0  0  0  0  0  0  0  0  0
   62.9550   32.9940   49.3840 C   0  0  0  0  0  0  0  0  0  0  0  0
   58.4330   28.5160   46.9080 C   0  0  0  0  0  0  0  0  0  0  0  0
   57.9410   28.6090   45.6130 C   0  0  0  0  0  0  0  0  0  0  0  0
   57.4580   27.4530   44.9270 N   0  0  0  0  0  0  0  0  0  0  0  0
   56.6170   26.2340   45.8170 S   0  0  0  0  0  0  0  0  0  0  0  0
   56.6060   24.7690   44.7740 C   0  0  0  0  0  0  0  0  0  0  0  0
   57.2860   25.9150   47.1170 O   0  0  0  0  0  0  0  0  0  0  0  0
   55.1970   26.6940   46.0350 O   0  0  0  0  0  0  0  0  0  0  0  0
   57.9260   29.8730   45.0610 C   0  0  0  0  0  0  0  0  0  0  0  0
   61.7490   33.3840   48.8190 C   0  0  0  0  0  0  0  0  0  0  0  0
   57.0420   29.1500   43.0580 O   0  0  0  0  0  0  0  0  0  0  0  0
   55.9809   31.9893   41.9433 H   0  0  0  0  0  0  0  0  0  0  0  0
   57.6704   32.2089   41.3740 H   0  0  0  0  0  0  0  0  0  0  0  0
   56.9281   30.5732   41.3740 H   0  0  0  0  0  0  0  0  0  0  0  0
   57.8831   33.4009   43.4635 H   0  0  0  0  0  0  0  0  0  0  0  0
   59.2098   31.7782   47.5779 H   0  0  0  0  0  0  0  0  0  0  0  0
   60.9611   30.1340   50.0623 H   0  0  0  0  0  0  0  0  0  0  0  0
   60.7131   31.0691   48.5477 H   0  0  0  0  0  0  0  0  0  0  0  0
   58.3325   31.2479   50.2319 H   0  0  0  0  0  0  0  0  0  0  0  0
   59.7528   31.7291   51.1777 H   0  0  0  0  0  0  0  0  0  0  0  0
   59.3316   32.6698   48.2846 H   0  0  0  0  0  0  0  0  0  0  0  0
   58.6429   33.5704   49.6550 H   0  0  0  0  0  0  0  0  0  0  0  0
   60.7553   33.9742   46.9929 H   0  0  0  0  0  0  0  0  0  0  0  0
   62.8489   33.7530   45.6508 H   0  0  0  0  0  0  0  0  0  0  0  0
   64.9160   33.0580   46.7440 H   0  0  0  0  0  0  0  0  0  0  0  0
   65.0576   32.5617   49.0948 H   0  0  0  0  0  0  0  0  0  0  0  0
   62.9932   32.7747   50.4612 H   0  0  0  0  0  0  0  0  0  0  0  0
   58.4695   27.5330   47.4002 H   0  0  0  0  0  0  0  0  0  0  0  0
   57.5640   27.3010   43.9030 H   0  0  0  0  0  0  0  0  0  0  0  0
   56.5992   23.8688   45.4062 H   0  0  0  0  0  0  0  0  0  0  0  0
   55.7079   24.7778   44.1389 H   0  0  0  0  0  0  0  0  0  0  0  0
   57.5041   24.7643   44.1389 H   0  0  0  0  0  0  0  0  0  0  0  0
  1  2  1  0
  2  3  1  0
  3  4  2  0
  4  5  1  0
  5  6  2  0
  6  7  1  0
  7  8  1  0
  8  9  1  0
  9 10  1  0
 10 11  1  0
 11 12  1  0
 12 13  2  3
 13 14  1  0
 14 15  2  0
 15 16  1  0
 16 17  1  0
 17 18  2  0
  7 19  2  0
 19 20  1  0
 20 21  1  0
 21 22  1  0
 22 23  1  0
 22 24  2  0
 22 25  2  0
 20 26  2  0
 26 27  1  0
 27 28  2  0
 27  2  1  0
 26  5  1  0
 18 13  1  0
  1 29  1  0
  1 30  1  0
  1 31  1  0
  3 32  1  0
  6 33  1  0
  9 34  1  0
  9 35  1  0
 10 36  1  0
 10 37  1  0
 11 38  1  0
 11 39  1  0
 14 40  1  0
 15 41  1  0
 16 42  1  0
 17 43  1  0
 18 44  1  0
 19 45  1  0
 21 46  1  0
 23 47  1  0
 23 48  1  0
 23 49  1  0
M  END
>  <smiles>  (64) 
Cn1cnc2cc(OCCCN=c3cc[nH]cc3)cc(NS(C)(=O)=O)c2c1=O

>  <score_type>  (64) 
oracle

>  <origin>  (64) 
adg

>  <m_score__min__energy>  (64) 
-7.7300000000000004

>  <m_primary>  (64) 
energy

$$$$
64:0
     RDKit          3D

 23 23  0  0  0  0  0  0  0  0999 V2000
   55.2670   26.3280   46.0070 N   0  0  0  0  0  0  0  0  0  0  0  0
   56.2630   25.3090   46.3310 C   0  0  0  0  0  0  0  0  0  0  0  0
   57.6500   25.8880   46.1500 C   0  0  0  0  0  0  0  0  0  0  0  0
   57.7310   26.7040   44.8880 C   0  0  0  0  0  0  0  0  0  0  0  0
   58.0250   28.1210   45.1270 C   0  0  0  0  0  0  0  0  0  0  0  0
   59.3680   28.5180   45.1830 C   0  0  0  0  0  0  0  0  0  0  0  0
   59.6780   29.8200   45.3870 N   0  0  0  0  0  0  0  0  0  0  0  0
   58.7000   30.7600   45.5410 C   0  0  0  0  0  0  0  0  0  0  0  0
   59.0320   31.9650   45.7280 O   0  0  0  0  0  0  0  0  0  0  0  0
   57.3860   30.4000   45.4930 N   0  0  0  0  0  0  0  0  0  0  0  0
   57.0430   29.0930   45.2880 C   0  0  0  0  0  0  0  0  0  0  0  0
   55.8330   28.7310   45.2380 O   0  0  0  0  0  0  0  0  0  0  0  0
   55.3830   27.1470   46.6430 H   0  0  0  0  0  0  0  0  0  0  0  0
   55.3530   26.6420   45.0020 H   0  0  0  0  0  0  0  0  0  0  0  0
   56.1328   24.9870   47.3747 H   0  0  0  0  0  0  0  0  0  0  0  0
   56.1353   24.4441   45.6634 H   0  0  0  0  0  0  0  0  0  0  0  0
   57.8869   26.5310   47.0105 H   0  0  0  0  0  0  0  0  0  0  0  0
   58.3702   25.0595   46.0796 H   0  0  0  0  0  0  0  0  0  0  0  0
   58.5257   26.2855   44.2529 H   0  0  0  0  0  0  0  0  0  0  0  0
   56.7434   26.6546   44.4061 H   0  0  0  0  0  0  0  0  0  0  0  0
   60.1684   27.7733   45.0615 H   0  0  0  0  0  0  0  0  0  0  0  0
   60.6860   30.1530   45.4330 H   0  0  0  0  0  0  0  0  0  0  0  0
   56.6410   31.1420   45.6170 H   0  0  0  0  0  0  0  0  0  0  0  0
  1  2  1  0
  2  3  1  0
  3  4  1  0
  4  5  1  0
  5  6  2  0
  6  7  1  0
  7  8  1  0
  8  9  2  0
  8 10  1  0
 10 11  1  0
 11 12  2  0
 11  5  1  0
  1 13  1  0
  1 14  1  0
  2 15  1  0
  2 16  1  0
  3 17  1  0
  3 18  1  0
  4 19  1  0
  4 20  1  0
  6 21  1  0
  7 22  1  0
 10 23  1  0
M  END
>  <smiles>  (65) 
NCCCc1c[nH]c(=O)[nH]c1=O

>  <score_type>  (65) 
oracle

>  <origin>  (65) 
adg

>  <m_score__min__energy>  (65) 
-5.04

>  <m_primary>  (65) 
energy

$$$$
65:0
     RDKit          3D

 57 59  0  0  0  0  0  0  0  0999 V2000
   60.4820   30.4570   49.9810 C   0  0  0  0  0  0  0  0  0  0  0  0
   58.9840   30.4740   50.1290 C   0  0  0  0  0  0  0  0  0  0  0  0
   58.4090   31.7660   50.3300 N   0  0  0  0  0  0  0  0  0  0  0  0
   57.3430   31.7240   51.2860 C   0  0  0  0  0  0  0  0  0  0  0  0
   57.3800   32.6940   52.4040 C   0  0  0  0  0  0  0  0  0  0  0  0
   59.3890   32.6990   50.7630 C   0  0  0  0  0  0  0  0  0  0  0  0
   59.6470   33.8900   49.8700 C   0  0  0  0  0  0  0  0  0  0  0  0
   60.6210   33.5840   48.8730 N   0  0  0  0  0  0  0  0  0  0  0  0
   60.5690   33.4650   47.5420 C   0  0  0  0  0  0  0  0  0  0  0  0
   59.4910   33.5450   46.5860 C   0  0  0  0  0  0  0  0  0  0  0  0
   59.1180   34.5990   45.8220 C   0  0  0  0  0  0  0  0  0  0  0  0
   58.1050   34.5740   44.8700 C   0  0  0  0  0  0  0  0  0  0  0  0
   57.4150   33.4200   44.6690 C   0  0  0  0  0  0  0  0  0  0  0  0
   57.7540   32.3170   45.4220 C   0  0  0  0  0  0  0  0  0  0  0  0
   57.0380   31.1580   45.1970 O   0  0  0  0  0  0  0  0  0  0  0  0
   57.0280   30.5770   43.9120 C   0  0  0  0  0  0  0  0  0  0  0  0
   58.7690   32.3540   46.3700 C   0  0  0  0  0  0  0  0  0  0  0  0
   59.0210   31.2010   47.0640 O   0  0  0  0  0  0  0  0  0  0  0  0
   59.7250   30.0900   46.5920 C   0  0  0  0  0  0  0  0  0  0  0  0
   61.8640   33.2540   47.1090 N   0  0  0  0  0  0  0  0  0  0  0  0
   62.7150   33.2360   48.1350 C   0  0  0  0  0  0  0  0  0  0  0  0
   64.0720   33.0640   48.2160 C   0  0  0  0  0  0  0  0  0  0  0  0
   64.7300   33.0900   49.4300 C   0  0  0  0  0  0  0  0  0  0  0  0
   66.1090   32.9130   49.4870 O   0  0  0  0  0  0  0  0  0  0  0  0
   66.7910   32.2060   50.4790 C   0  0  0  0  0  0  0  0  0  0  0  0
   63.9610   33.2970   50.5740 C   0  0  0  0  0  0  0  0  0  0  0  0
   62.5850   33.4700   50.4700 C   0  0  0  0  0  0  0  0  0  0  0  0
   61.9500   33.4410   49.2520 C   0  0  0  0  0  0  0  0  0  0  0  0
   60.9488   30.4517   50.9770 H   0  0  0  0  0  0  0  0  0  0  0  0
   60.7857   29.5554   49.4289 H   0  0  0  0  0  0  0  0  0  0  0  0
   60.8061   31.3515   49.4289 H   0  0  0  0  0  0  0  0  0  0  0  0
   58.5466   30.0448   49.2155 H   0  0  0  0  0  0  0  0  0  0  0  0
   58.7596   29.8946   51.0367 H   0  0  0  0  0  0  0  0  0  0  0  0
   56.4040   31.8907   50.7379 H   0  0  0  0  0  0  0  0  0  0  0  0
   57.4424   30.7407   51.7689 H   0  0  0  0  0  0  0  0  0  0  0  0
   57.3593   32.1517   53.3608 H   0  0  0  0  0  0  0  0  0  0  0  0
   58.3016   33.2912   52.3409 H   0  0  0  0  0  0  0  0  0  0  0  0
   56.5066   33.3597   52.3409 H   0  0  0  0  0  0  0  0  0  0  0  0
   59.0709   33.0827   51.7436 H   0  0  0  0  0  0  0  0  0  0  0  0
   60.3345   32.1369   50.7682 H   0  0  0  0  0  0  0  0  0  0  0  0
   58.7072   34.1795   49.3771 H   0  0  0  0  0  0  0  0  0  0  0  0
   60.0290   34.7147   50.4897 H   0  0  0  0  0  0  0  0  0  0  0  0
   59.6574   35.5469   45.9655 H   0  0  0  0  0  0  0  0  0  0  0  0
   57.8651   35.4757   44.2874 H   0  0  0  0  0  0  0  0  0  0  0  0
   56.6069   33.3682   43.9244 H   0  0  0  0  0  0  0  0  0  0  0  0
   57.0091   29.4811   44.0052 H   0  0  0  0  0  0  0  0  0  0  0  0
   56.1355   30.9138   43.3642 H   0  0  0  0  0  0  0  0  0  0  0  0
   57.9315   30.8829   43.3642 H   0  0  0  0  0  0  0  0  0  0  0  0
   60.0972   29.5026   47.4443 H   0  0  0  0  0  0  0  0  0  0  0  0
   59.0573   29.4657   45.9801 H   0  0  0  0  0  0  0  0  0  0  0  0
   60.5746   30.4272   45.9801 H   0  0  0  0  0  0  0  0  0  0  0  0
   64.6498   32.9017   47.2941 H   0  0  0  0  0  0  0  0  0  0  0  0
   66.4585   32.5507   51.4693 H   0  0  0  0  0  0  0  0  0  0  0  0
   66.5795   31.1316   50.3747 H   0  0  0  0  0  0  0  0  0  0  0  0
   67.8723   32.3787   50.3747 H   0  0  0  0  0  0  0  0  0  0  0  0
   64.4439   33.3236   51.5620 H   0  0  0  0  0  0  0  0  0  0  0  0
   61.9925   33.6335   51.3823 H   0  0  0  0  0  0  0  0  0  0  0  0
  1  2  1  0
  2  3  1  0
  3  4  1  0
  4  5  1  0
  3  6  1  0
  6  7  1  0
  7  8  1  0
  8  9  1  0
  9 10  1  0
 10 11  2  0
 11 12  1  0
 12 13  2  0
 13 14  1  0
 14 15  1  0
 15 16  1  0
 14 17  2  0
 17 18  1  0
 18 19  1  0
  9 20  2  0
 20 21  1  0
 21 22  2  0
 22 23  1  0
 23 24  1  0
 24 25  1  0
 23 26  2  0
 26 27  1  0
 27 28  2  0
 28  8  1  0
 17 10  1  0
 28 21  1  0
  1 29  1  0
  1 30  1  0
  1 31  1  0
  2 32  1  0
  2 33  1  0
  4 34  1  0
  4 35  1  0
  5 36  1  0
  5 37  1  0
  5 38  1  0
  6 39  1  0
  6 40  1  0
  7 41  1  0
  7 42  1  0
 11 43  1  0
 12 44  1  0
 13 45  1  0
 16 46  1  0
 16 47  1  0
 16 48  1  0
 19 49  1  0
 19 50  1  0
 19 51  1  0
 22 52  1  0
 25 53  1  0
 25 54  1  0
 25 55  1  0
 26 56  1  0
 27 57  1  0
M  END
>  <smiles>  (66) 
CCN(CC)CCn1c(-c2cccc(OC)c2OC)nc2cc(OC)ccc21

>  <score_type>  (66) 
oracle

>  <origin>  (66) 
adg

>  <m_score__min__energy>  (66) 
-6.5499999999999998

>  <m_primary>  (66) 
energy

$$$$
66:0
     RDKit          3D

 28 30  0  0  0  0  0  0  0  0999 V2000
   56.6250   26.7630   45.8200 C   0  0  0  0  0  0  0  0  0  0  0  0
   57.6100   27.8000   46.0870 N   0  0  0  0  0  0  0  0  0  0  0  0
   57.3020   29.0780   45.7840 C   0  0  0  0  0  0  0  0  0  0  0  0
   56.0600   29.3500   45.2310 O   0  0  0  0  0  0  0  0  0  0  0  0
   58.2350   30.0600   46.0360 C   0  0  0  0  0  0  0  0  0  0  0  0
   57.9250   31.3690   45.7290 C   0  0  0  0  0  0  0  0  0  0  0  0
   56.8210   31.7020   45.2250 O   0  0  0  0  0  0  0  0  0  0  0  0
   58.8420   32.3710   45.9710 C   0  0  0  0  0  0  0  0  0  0  0  0
   58.5920   33.7050   45.6850 C   0  0  0  0  0  0  0  0  0  0  0  0
   57.0380   34.1420   44.9810 Cl  0  0  0  0  0  0  0  0  0  0  0  0
   59.5210   34.7030   45.9340 C   0  0  0  0  0  0  0  0  0  0  0  0
   60.7270   34.3210   46.4860 C   0  0  0  0  0  0  0  0  0  0  0  0
   61.0290   33.0020   46.7930 C   0  0  0  0  0  0  0  0  0  0  0  0
   60.0700   32.0320   46.5270 C   0  0  0  0  0  0  0  0  0  0  0  0
   60.3580   30.7540   46.8210 N   0  0  0  0  0  0  0  0  0  0  0  0
   59.4620   29.7740   46.5840 C   0  0  0  0  0  0  0  0  0  0  0  0
   59.7560   28.4710   46.8840 C   0  0  0  0  0  0  0  0  0  0  0  0
   58.8110   27.5050   46.6250 C   0  0  0  0  0  0  0  0  0  0  0  0
   59.1180   26.3080   46.9160 O   0  0  0  0  0  0  0  0  0  0  0  0
   56.2457   26.3637   46.7722 H   0  0  0  0  0  0  0  0  0  0  0  0
   55.7911   27.1892   45.2430 H   0  0  0  0  0  0  0  0  0  0  0  0
   57.0935   25.9521   45.2430 H   0  0  0  0  0  0  0  0  0  0  0  0
   55.4800   30.0900   45.6310 H   0  0  0  0  0  0  0  0  0  0  0  0
   59.3060   35.7564   45.7012 H   0  0  0  0  0  0  0  0  0  0  0  0
   61.4809   35.0953   46.6913 H   0  0  0  0  0  0  0  0  0  0  0  0
   61.9997   32.7318   47.2343 H   0  0  0  0  0  0  0  0  0  0  0  0
   61.2810   30.5110   47.2380 H   0  0  0  0  0  0  0  0  0  0  0  0
   60.7279   28.2018   47.3232 H   0  0  0  0  0  0  0  0  0  0  0  0
  1  2  1  0
  2  3  1  0
  3  4  1  0
  3  5  2  0
  5  6  1  0
  6  7  2  0
  6  8  1  0
  8  9  2  0
  9 10  1  0
  9 11  1  0
 11 12  2  0
 12 13  1  0
 13 14  2  0
 14 15  1  0
 15 16  1  0
 16 17  2  0
 17 18  1  0
 18 19  2  0
 18  2  1  0
 16  5  1  0
 14  8  1  0
  1 20  1  0
  1 21  1  0
  1 22  1  0
  4 23  1  0
 11 24  1  0
 12 25  1  0
 13 26  1  0
 15 27  1  0
 17 28  1  0
M  END
>  <smiles>  (67) 
Cn1c(O)c2c(=O)c3c(Cl)cccc3[nH]c2cc1=O

>  <score_type>  (67) 
oracle

>  <origin>  (67) 
adg

>  <m_score__min__energy>  (67) 
-7.3700000000000001

>  <m_primary>  (67) 
energy

$$$$
67:0
     RDKit          3D

 42 43  0  0  0  0  0  0  0  0999 V2000
   60.9810   28.9700   44.7870 C   0  0  0  0  0  0  0  0  0  0  0  0
   60.3330   29.0470   46.1400 C   0  0  0  0  0  0  0  0  0  0  0  0
   59.3260   28.3180   46.3660 O   0  0  0  0  0  0  0  0  0  0  0  0
   60.8640   29.9290   47.1300 N   0  0  0  0  0  0  0  0  0  0  0  0
   60.2470   29.9950   48.4030 C   0  0  0  0  0  0  0  0  0  0  0  0
   58.9350   29.0220   48.6300 S   0  0  0  0  0  0  0  0  0  0  0  0
   60.6800   30.8180   49.4670 N   0  0  0  0  0  0  0  0  0  0  0  0
   61.7910   31.6870   49.4290 C   0  0  0  0  0  0  0  0  0  0  0  0
   63.0500   31.3640   49.8890 C   0  0  0  0  0  0  0  0  0  0  0  0
   64.1220   32.2300   49.8250 C   0  0  0  0  0  0  0  0  0  0  0  0
   63.9590   33.4980   49.2750 C   0  0  0  0  0  0  0  0  0  0  0  0
   62.7020   33.8240   48.8150 C   0  0  0  0  0  0  0  0  0  0  0  0
   61.6270   32.9410   48.8850 C   0  0  0  0  0  0  0  0  0  0  0  0
   60.3880   33.4170   48.3650 N   0  0  0  0  0  0  0  0  0  0  0  0
   60.1880   33.2030   46.9520 C   0  0  0  0  0  0  0  0  0  0  0  0
   61.1630   32.6130   46.3740 O   0  0  0  0  0  0  0  0  0  0  0  0
   59.0260   33.6100   46.2870 N   0  0  0  0  0  0  0  0  0  0  0  0
   58.7620   33.4150   44.8740 C   0  0  0  0  0  0  0  0  0  0  0  0
   58.0850   32.1240   44.6130 C   0  0  0  0  0  0  0  0  0  0  0  0
   57.6510   31.8720   43.3350 C   0  0  0  0  0  0  0  0  0  0  0  0
   57.0080   30.7060   42.9780 C   0  0  0  0  0  0  0  0  0  0  0  0
   56.7950   29.7580   43.9400 C   0  0  0  0  0  0  0  0  0  0  0  0
   57.2230   29.9850   45.2390 C   0  0  0  0  0  0  0  0  0  0  0  0
   57.8650   31.1630   45.5750 C   0  0  0  0  0  0  0  0  0  0  0  0
   62.0668   28.8410   44.9073 H   0  0  0  0  0  0  0  0  0  0  0  0
   60.5694   28.1144   44.2315 H   0  0  0  0  0  0  0  0  0  0  0  0
   60.7814   29.8982   44.2315 H   0  0  0  0  0  0  0  0  0  0  0  0
   61.6930   30.4880   46.8380 H   0  0  0  0  0  0  0  0  0  0  0  0
   60.1410   30.8010   50.3800 H   0  0  0  0  0  0  0  0  0  0  0  0
   63.2073   30.3678   50.3282 H   0  0  0  0  0  0  0  0  0  0  0  0
   65.1049   31.9185   50.2084 H   0  0  0  0  0  0  0  0  0  0  0  0
   64.7965   34.2082   49.2105 H   0  0  0  0  0  0  0  0  0  0  0  0
   62.5411   34.8196   48.3757 H   0  0  0  0  0  0  0  0  0  0  0  0
   59.6600   33.8840   48.9230 H   0  0  0  0  0  0  0  0  0  0  0  0
   58.2760   34.0960   46.8420 H   0  0  0  0  0  0  0  0  0  0  0  0
   58.1192   34.2327   44.5159 H   0  0  0  0  0  0  0  0  0  0  0  0
   59.7260   33.4082   44.3443 H   0  0  0  0  0  0  0  0  0  0  0  0
   57.8241   32.6346   42.5614 H   0  0  0  0  0  0  0  0  0  0  0  0
   56.6739   30.5420   41.9429 H   0  0  0  0  0  0  0  0  0  0  0  0
   56.2853   28.8175   43.6839 H   0  0  0  0  0  0  0  0  0  0  0  0
   57.0502   29.2202   46.0105 H   0  0  0  0  0  0  0  0  0  0  0  0
   58.1995   31.3323   46.6091 H   0  0  0  0  0  0  0  0  0  0  0  0
  1  2  1  0
  2  3  2  0
  2  4  1  0
  4  5  1  0
  5  6  2  0
  5  7  1  0
  7  8  1  0
  8  9  2  0
  9 10  1  0
 10 11  2  0
 11 12  1  0
 12 13  2  0
 13 14  1  0
 14 15  1  0
 15 16  2  0
 15 17  1  0
 17 18  1  0
 18 19  1  0
 19 20  2  0
 20 21  1  0
 21 22  2  0
 22 23  1  0
 23 24  2  0
 13  8  1  0
 24 19  1  0
  1 25  1  0
  1 26  1  0
  1 27  1  0
  4 28  1  0
  7 29  1  0
  9 30  1  0
 10 31  1  0
 11 32  1  0
 12 33  1  0
 14 34  1  0
 17 35  1  0
 18 36  1  0
 18 37  1  0
 20 38  1  0
 21 39  1  0
 22 40  1  0
 23 41  1  0
 24 42  1  0
M  END
>  <smiles>  (68) 
CC(=O)NC(=S)Nc1ccccc1NC(=O)NCc1ccccc1

>  <score_type>  (68) 
oracle

>  <origin>  (68) 
adg

>  <m_score__min__energy>  (68) 
-7.29

>  <m_primary>  (68) 
energy

$$$$
68:0
     RDKit          3D

 45 47  0  0  0  0  0  0  0  0999 V2000
   55.5620   25.0010   45.6130 C   0  0  0  0  0  0  0  0  0  0  0  0
   55.5100   26.3530   45.9900 O   0  0  0  0  0  0  0  0  0  0  0  0
   56.6440   27.1500   46.0680 C   0  0  0  0  0  0  0  0  0  0  0  0
   57.6630   26.9180   46.9770 C   0  0  0  0  0  0  0  0  0  0  0  0
   58.7650   27.7470   47.0040 C   0  0  0  0  0  0  0  0  0  0  0  0
   58.8990   28.8260   46.1420 C   0  0  0  0  0  0  0  0  0  0  0  0
   60.0670   29.7020   46.1740 C   0  0  0  0  0  0  0  0  0  0  0  0
   61.0480   29.4680   45.4200 O   0  0  0  0  0  0  0  0  0  0  0  0
   60.0520   30.8180   47.0840 N   0  0  0  0  0  0  0  0  0  0  0  0
   61.1420   31.7260   47.1860 C   0  0  0  0  0  0  0  0  0  0  0  0
   62.4110   31.1920   47.3850 C   0  0  0  0  0  0  0  0  0  0  0  0
   63.5130   32.0290   47.4950 C   0  0  0  0  0  0  0  0  0  0  0  0
   63.3080   33.3960   47.4020 C   0  0  0  0  0  0  0  0  0  0  0  0
   62.0380   33.9000   47.2050 C   0  0  0  0  0  0  0  0  0  0  0  0
   60.9230   33.0810   47.0920 C   0  0  0  0  0  0  0  0  0  0  0  0
   59.6500   33.6690   46.8940 N   0  0  0  0  0  0  0  0  0  0  0  0
   58.3990   33.0630   47.2870 C   0  0  0  0  0  0  0  0  0  0  0  0
   57.3760   33.4060   46.1980 C   0  0  0  0  0  0  0  0  0  0  0  0
   58.0990   33.5210   44.8940 C   0  0  0  0  0  0  0  0  0  0  0  0
   58.8940   34.8140   44.8960 C   0  0  0  0  0  0  0  0  0  0  0  0
   59.5860   34.9820   46.2430 C   0  0  0  0  0  0  0  0  0  0  0  0
   57.8650   29.0540   45.2250 C   0  0  0  0  0  0  0  0  0  0  0  0
   58.0500   30.4090   44.1550 Cl  0  0  0  0  0  0  0  0  0  0  0  0
   56.7650   28.2200   45.2050 C   0  0  0  0  0  0  0  0  0  0  0  0
   55.5863   24.3699   46.5136 H   0  0  0  0  0  0  0  0  0  0  0  0
   54.6727   24.7526   45.0151 H   0  0  0  0  0  0  0  0  0  0  0  0
   56.4677   24.8217   45.0151 H   0  0  0  0  0  0  0  0  0  0  0  0
   57.5934   26.0726   47.6774 H   0  0  0  0  0  0  0  0  0  0  0  0
   59.5640   27.5461   47.7329 H   0  0  0  0  0  0  0  0  0  0  0  0
   59.2150   30.9750   47.6950 H   0  0  0  0  0  0  0  0  0  0  0  0
   62.5418   30.1021   47.4555 H   0  0  0  0  0  0  0  0  0  0  0  0
   64.5213   31.6181   47.6517 H   0  0  0  0  0  0  0  0  0  0  0  0
   64.1623   34.0839   47.4856 H   0  0  0  0  0  0  0  0  0  0  0  0
   61.9049   34.9897   47.1351 H   0  0  0  0  0  0  0  0  0  0  0  0
   58.5156   31.9721   47.3662 H   0  0  0  0  0  0  0  0  0  0  0  0
   58.0708   33.4383   48.2675 H   0  0  0  0  0  0  0  0  0  0  0  0
   56.6192   32.6103   46.1347 H   0  0  0  0  0  0  0  0  0  0  0  0
   56.8719   34.3541   46.4367 H   0  0  0  0  0  0  0  0  0  0  0  0
   58.7808   32.6665   44.7712 H   0  0  0  0  0  0  0  0  0  0  0  0
   57.3786   33.5230   44.0627 H   0  0  0  0  0  0  0  0  0  0  0  0
   59.6495   34.7813   44.0971 H   0  0  0  0  0  0  0  0  0  0  0  0
   58.2152   35.6623   44.7239 H   0  0  0  0  0  0  0  0  0  0  0  0
   60.6032   35.3727   46.0926 H   0  0  0  0  0  0  0  0  0  0  0  0
   59.0260   35.6901   46.8715 H   0  0  0  0  0  0  0  0  0  0  0  0
   55.9612   28.4142   44.4796 H   0  0  0  0  0  0  0  0  0  0  0  0
  1  2  1  0
  2  3  1  0
  3  4  2  0
  4  5  1  0
  5  6  2  0
  6  7  1  0
  7  8  2  0
  7  9  1  0
  9 10  1  0
 10 11  2  0
 11 12  1  0
 12 13  2  0
 13 14  1  0
 14 15  2  0
 15 16  1  0
 16 17  1  0
 17 18  1  0
 18 19  1  0
 19 20  1  0
 20 21  1  0
  6 22  1  0
 22 23  1  0
 22 24  2  0
 24  3  1  0
 15 10  1  0
 21 16  1  0
  1 25  1  0
  1 26  1  0
  1 27  1  0
  4 28  1  0
  5 29  1  0
  9 30  1  0
 11 31  1  0
 12 32  1  0
 13 33  1  0
 14 34  1  0
 17 35  1  0
 17 36  1  0
 18 37  1  0
 18 38  1  0
 19 39  1  0
 19 40  1  0
 20 41  1  0
 20 42  1  0
 21 43  1  0
 21 44  1  0
 24 45  1  0
M  END
>  <smiles>  (69) 
COc1ccc(C(=O)Nc2ccccc2N2CCCCC2)c(Cl)c1

>  <score_type>  (69) 
oracle

>  <origin>  (69) 
adg

>  <m_score__min__energy>  (69) 
-8.5899999999999999

>  <m_primary>  (69) 
energy

$$$$
69:0
     RDKit          3D

 26 27  0  0  0  0  0  0  0  0999 V2000
   55.5010   25.5820   46.2450 O   0  0  0  0  0  0  0  0  0  0  0  0
   56.5310   25.9390   45.6320 C   0  0  0  0  0  0  0  0  0  0  0  0
   57.0550   27.2960   45.6950 C   0  0  0  0  0  0  0  0  0  0  0  0
   58.3050   27.5840   46.2080 C   0  0  0  0  0  0  0  0  0  0  0  0
   58.7350   28.9100   46.2340 C   0  0  0  0  0  0  0  0  0  0  0  0
   57.9940   29.9550   45.7830 C   0  0  0  0  0  0  0  0  0  0  0  0
   58.3550   31.3510   45.7500 C   0  0  0  0  0  0  0  0  0  0  0  0
   58.8520   31.9100   46.9370 C   0  0  0  0  0  0  0  0  0  0  0  0
   59.2430   33.2280   47.0200 C   0  0  0  0  0  0  0  0  0  0  0  0
   59.1680   34.0750   45.9390 C   0  0  0  0  0  0  0  0  0  0  0  0
   59.6510   35.7540   45.9940 Cl  0  0  0  0  0  0  0  0  0  0  0  0
   58.6840   33.5430   44.7660 C   0  0  0  0  0  0  0  0  0  0  0  0
   58.2850   32.1980   44.6810 C   0  0  0  0  0  0  0  0  0  0  0  0
   57.7270   31.6820   43.1170 Cl  0  0  0  0  0  0  0  0  0  0  0  0
   56.7670   29.6380   45.2850 N   0  0  0  0  0  0  0  0  0  0  0  0
   56.3230   28.3750   45.2450 C   0  0  0  0  0  0  0  0  0  0  0  0
   57.2660   24.9520   44.7960 C   0  0  0  0  0  0  0  0  0  0  0  0
   57.7710   25.6430   43.7120 F   0  0  0  0  0  0  0  0  0  0  0  0
   56.4060   23.9560   44.3340 F   0  0  0  0  0  0  0  0  0  0  0  0
   58.2990   24.3640   45.4840 F   0  0  0  0  0  0  0  0  0  0  0  0
   58.9509   26.7797   46.5900 H   0  0  0  0  0  0  0  0  0  0  0  0
   59.7334   29.1223   46.6440 H   0  0  0  0  0  0  0  0  0  0  0  0
   58.9321   31.2744   47.8312 H   0  0  0  0  0  0  0  0  0  0  0  0
   59.6255   33.6136   47.9766 H   0  0  0  0  0  0  0  0  0  0  0  0
   58.6077   34.1842   43.8755 H   0  0  0  0  0  0  0  0  0  0  0  0
   55.3211   28.1882   44.8312 H   0  0  0  0  0  0  0  0  0  0  0  0
  1  2  2  0
  2  3  1  0
  3  4  2  0
  4  5  1  0
  5  6  2  0
  6  7  1  0
  7  8  2  0
  8  9  1  0
  9 10  2  0
 10 11  1  0
 10 12  1  0
 12 13  2  0
 13 14  1  0
  6 15  1  0
 15 16  2  0
  2 17  1  0
 17 18  1  0
 17 19  1  0
 17 20  1  0
 16  3  1  0
 13  7  1  0
  4 21  1  0
  5 22  1  0
  8 23  1  0
  9 24  1  0
 12 25  1  0
 16 26  1  0
M  END
>  <smiles>  (70) 
O=C(c1ccc(-c2ccc(Cl)cc2Cl)nc1)C(F)(F)F

>  <score_type>  (70) 
oracle

>  <origin>  (70) 
adg

>  <m_score__min__energy>  (70) 
-6.4699999999999998

>  <m_primary>  (70) 
energy

$$$$
70:0
     RDKit          3D

 45 47  0  0  1  0  0  0  0  0999 V2000
   63.1480   32.7660   47.4660 C   0  0  0  0  0  0  0  0  0  0  0  0
   62.4470   33.7570   46.7650 O   0  0  0  0  0  0  0  0  0  0  0  0
   61.0890   33.7910   46.5620 C   0  0  0  0  0  0  0  0  0  0  0  0
   60.3290   34.9210   46.4580 C   0  0  0  0  0  0  0  0  0  0  0  0
   58.9700   34.8670   46.2530 C   0  0  0  0  0  0  0  0  0  0  0  0
   58.3040   33.6500   46.1430 C   0  0  0  0  0  0  0  0  0  0  0  0
   59.0520   32.5080   46.2450 C   0  0  0  0  0  0  0  0  0  0  0  0
   58.4690   31.1830   46.1460 C   0  0  0  0  0  0  0  0  0  0  0  0
   59.0120   30.1940   46.9520 C   0  0  0  0  0  0  0  0  0  0  0  0
   58.4830   28.9340   46.8800 C   0  0  0  0  0  0  0  0  0  0  0  0
   59.0410   27.9610   47.6950 C   0  0  0  0  0  0  0  0  0  0  0  0
   58.5090   26.7240   47.6140 N   0  0  0  0  0  0  0  0  0  0  0  0
   57.4770   26.4390   46.7780 C   0  0  0  0  0  0  0  0  0  0  0  0
   57.0540   25.2160   46.7910 N   0  0  0  0  0  0  0  0  0  0  0  0
   57.2590   24.3570   45.6170 C   0  0  0  0  0  0  0  0  0  0  0  0
   56.0570   24.5890   44.7240 C   0  0  0  0  0  0  0  0  0  0  0  0
   54.8270   24.7100   45.6230 C   0  0  0  0  0  0  0  0  0  0  0  0
   54.5980   26.0450   45.9730 O   0  0  0  0  0  0  0  0  0  0  0  0
   56.9240   27.3730   45.9800 N   0  0  0  0  0  0  0  0  0  0  0  0
   57.4290   28.6250   46.0310 C   0  0  0  0  0  0  0  0  0  0  0  0
   56.9280   29.6200   45.2610 N   0  0  0  0  0  0  0  0  0  0  0  0
   55.8240   29.3660   44.3490 C   0  0  0  0  0  0  0  0  0  0  0  0
   57.4160   30.8750   45.2980 C   0  0  0  0  0  0  0  0  0  0  0  0
   56.9450   31.7950   44.5780 O   0  0  0  0  0  0  0  0  0  0  0  0
   60.4330   32.5740   46.4520 C   0  0  0  0  0  0  0  0  0  0  0  0
   63.0319   32.9302   48.5475 H   0  0  0  0  0  0  0  0  0  0  0  0
   62.7479   31.7764   47.2003 H   0  0  0  0  0  0  0  0  0  0  0  0
   64.2144   32.8137   47.2003 H   0  0  0  0  0  0  0  0  0  0  0  0
   60.8180   35.9029   46.5406 H   0  0  0  0  0  0  0  0  0  0  0  0
   58.3986   35.8037   46.1745 H   0  0  0  0  0  0  0  0  0  0  0  0
   57.2170   33.6073   45.9802 H   0  0  0  0  0  0  0  0  0  0  0  0
   59.8472   30.4167   47.6323 H   0  0  0  0  0  0  0  0  0  0  0  0
   59.8763   28.1866   48.3742 H   0  0  0  0  0  0  0  0  0  0  0  0
   58.9140   25.9820   48.2160 H   0  0  0  0  0  0  0  0  0  0  0  0
   58.1852   24.6372   45.0939 H   0  0  0  0  0  0  0  0  0  0  0  0
   57.3558   23.2986   45.9004 H   0  0  0  0  0  0  0  0  0  0  0  0
   56.1921   25.5158   44.1471 H   0  0  0  0  0  0  0  0  0  0  0  0
   55.9364   23.7558   44.0160 H   0  0  0  0  0  0  0  0  0  0  0  0
   53.9485   24.3218   45.0867 H   0  0  0  0  0  0  0  0  0  0  0  0
   55.0021   24.1295   46.5408 H   0  0  0  0  0  0  0  0  0  0  0  0
   55.1480   26.2890   46.7550 H   0  0  0  0  0  0  0  0  0  0  0  0
   54.9119   29.1561   44.9269 H   0  0  0  0  0  0  0  0  0  0  0  0
   55.6612   30.2501   43.7151 H   0  0  0  0  0  0  0  0  0  0  0  0
   56.0639   28.4996   43.7151 H   0  0  0  0  0  0  0  0  0  0  0  0
   61.0113   31.6415   46.5292 H   0  0  0  0  0  0  0  0  0  0  0  0
  1  2  1  0
  2  3  1  0
  3  4  2  0
  4  5  1  0
  5  6  2  0
  6  7  1  0
  7  8  1  0
  8  9  2  0
  9 10  1  0
 10 11  2  0
 11 12  1  0
 12 13  1  0
 13 14  2  0
 14 15  1  0
 15 16  1  0
 16 17  1  0
 17 18  1  0
 13 19  1  0
 19 20  2  0
 20 21  1  0
 21 22  1  0
 21 23  1  0
 23 24  2  0
  7 25  2  0
 25  3  1  0
 23  8  1  0
 20 10  1  0
  1 26  1  0
  1 27  1  0
  1 28  1  0
  4 29  1  0
  5 30  1  0
  6 31  1  0
  9 32  1  0
 11 33  1  0
 12 34  1  0
 15 35  1  0
 15 36  1  0
 16 37  1  0
 16 38  1  0
 17 39  1  0
 17 40  1  0
 18 41  1  0
 22 42  1  0
 22 43  1  0
 22 44  1  0
 25 45  1  0
M  END
>  <smiles>  (71) 
COc1cccc(-c2cc3c[nH]c(=NCCCO)nc3n(C)c2=O)c1

>  <score_type>  (71) 
oracle

>  <origin>  (71) 
adg

>  <m_score__min__energy>  (71) 
-7.5999999999999996

>  <m_primary>  (71) 
energy

$$$$
71:0
     RDKit          3D

 43 46  0  0  0  0  0  0  0  0999 V2000
   58.4470   22.7660   44.8580 C   0  0  0  0  0  0  0  0  0  0  0  0
   58.6140   23.4500   46.0640 O   0  0  0  0  0  0  0  0  0  0  0  0
   58.6520   24.8110   46.2270 C   0  0  0  0  0  0  0  0  0  0  0  0
   59.7730   25.5980   46.1630 C   0  0  0  0  0  0  0  0  0  0  0  0
   59.7130   26.9650   46.3400 C   0  0  0  0  0  0  0  0  0  0  0  0
   58.5010   27.6160   46.5930 C   0  0  0  0  0  0  0  0  0  0  0  0
   58.5240   29.0440   46.7190 C   0  0  0  0  0  0  0  0  0  0  0  0
   59.3340   29.6850   47.6700 C   0  0  0  0  0  0  0  0  0  0  0  0
   59.2140   31.0160   47.5570 N   0  0  0  0  0  0  0  0  0  0  0  0
   59.8990   32.0160   48.3720 C   0  0  0  0  0  0  0  0  0  0  0  0
   61.2440   32.3510   47.8410 C   0  0  0  0  0  0  0  0  0  0  0  0
   62.3780   31.6310   48.1130 C   0  0  0  0  0  0  0  0  0  0  0  0
   63.6000   31.9910   47.5890 C   0  0  0  0  0  0  0  0  0  0  0  0
   63.7450   33.0920   46.7650 C   0  0  0  0  0  0  0  0  0  0  0  0
   62.6070   33.8200   46.4870 C   0  0  0  0  0  0  0  0  0  0  0  0
   61.3820   33.4600   47.0120 C   0  0  0  0  0  0  0  0  0  0  0  0
   58.3450   31.2330   46.5570 C   0  0  0  0  0  0  0  0  0  0  0  0
   57.8980   32.4000   46.0660 N   0  0  0  0  0  0  0  0  0  0  0  0
   57.0190   32.3370   45.0550 C   0  0  0  0  0  0  0  0  0  0  0  0
   56.5650   31.2060   44.5090 N   0  0  0  0  0  0  0  0  0  0  0  0
   57.0000   29.9950   44.9840 C   0  0  0  0  0  0  0  0  0  0  0  0
   56.5260   28.9760   44.4500 N   0  0  0  0  0  0  0  0  0  0  0  0
   57.9000   30.0470   46.0180 C   0  0  0  0  0  0  0  0  0  0  0  0
   57.3900   26.8090   46.6520 C   0  0  0  0  0  0  0  0  0  0  0  0
   57.4320   25.4460   46.4790 C   0  0  0  0  0  0  0  0  0  0  0  0
   58.1907   21.7163   45.0642 H   0  0  0  0  0  0  0  0  0  0  0  0
   57.6368   23.2345   44.2799 H   0  0  0  0  0  0  0  0  0  0  0  0
   59.3819   22.8084   44.2799 H   0  0  0  0  0  0  0  0  0  0  0  0
   60.7469   25.1265   45.9651 H   0  0  0  0  0  0  0  0  0  0  0  0
   60.6388   27.5561   46.2809 H   0  0  0  0  0  0  0  0  0  0  0  0
   59.9741   29.1702   48.4016 H   0  0  0  0  0  0  0  0  0  0  0  0
   59.2896   32.9315   48.3946 H   0  0  0  0  0  0  0  0  0  0  0  0
   60.0305   31.5956   49.3800 H   0  0  0  0  0  0  0  0  0  0  0  0
   62.3109   30.7467   48.7637 H   0  0  0  0  0  0  0  0  0  0  0  0
   64.4854   31.3856   47.8329 H   0  0  0  0  0  0  0  0  0  0  0  0
   64.7238   33.3745   46.3500 H   0  0  0  0  0  0  0  0  0  0  0  0
   62.6767   34.7034   45.8352 H   0  0  0  0  0  0  0  0  0  0  0  0
   60.4949   34.0635   46.7695 H   0  0  0  0  0  0  0  0  0  0  0  0
   58.2000   33.3300   46.4320 H   0  0  0  0  0  0  0  0  0  0  0  0
   56.6445   33.2867   44.6454 H   0  0  0  0  0  0  0  0  0  0  0  0
   56.6230   28.3920   43.6670 H   0  0  0  0  0  0  0  0  0  0  0  0
   56.4150   27.2790   46.8482 H   0  0  0  0  0  0  0  0  0  0  0  0
   56.5062   24.8550   46.5388 H   0  0  0  0  0  0  0  0  0  0  0  0
  1  2  1  0
  2  3  1  0
  3  4  2  0
  4  5  1  0
  5  6  2  0
  6  7  1  0
  7  8  2  0
  8  9  1  0
  9 10  1  0
 10 11  1  0
 11 12  2  0
 12 13  1  0
 13 14  2  0
 14 15  1  0
 15 16  2  0
  9 17  1  0
 17 18  1  0
 18 19  1  0
 19 20  2  0
 20 21  1  0
 21 22  2  3
 21 23  1  0
  6 24  1  0
 24 25  2  0
 25  3  1  0
 23  7  1  0
 16 11  1  0
 23 17  2  0
  1 26  1  0
  1 27  1  0
  1 28  1  0
  4 29  1  0
  5 30  1  0
  8 31  1  0
 10 32  1  0
 10 33  1  0
 12 34  1  0
 13 35  1  0
 14 36  1  0
 15 37  1  0
 16 38  1  0
 18 39  1  0
 19 40  1  0
 22 41  1  0
 24 42  1  0
 25 43  1  0
M  END
>  <smiles>  (72) 
COc1ccc(-c2cn(Cc3ccccc3)c3[nH]cnc(=N)c23)cc1

>  <score_type>  (72) 
oracle

>  <origin>  (72) 
adg

>  <m_score__min__energy>  (72) 
-7.1900000000000004

>  <m_primary>  (72) 
energy

$$$$
72:0
     RDKit          3D

 53 54  0  0  0  0  0  0  0  0999 V2000
   57.4470   31.9250   42.3090 C   0  0  0  0  0  0  0  0  0  0  0  0
   57.6860   31.9710   43.7830 C   0  0  0  0  0  0  0  0  0  0  0  0
   57.7840   33.3870   44.3120 C   0  0  0  0  0  0  0  0  0  0  0  0
   56.5840   31.3420   44.4620 N   0  0  0  0  0  0  0  0  0  0  0  0
   56.9770   29.7180   44.8000 S   0  0  0  0  0  0  0  0  0  0  0  0
   55.7230   29.0000   45.2410 O   0  0  0  0  0  0  0  0  0  0  0  0
   57.3900   29.0480   43.5130 O   0  0  0  0  0  0  0  0  0  0  0  0
   58.2030   29.5330   46.0310 C   0  0  0  0  0  0  0  0  0  0  0  0
   58.9760   30.6550   46.3220 C   0  0  0  0  0  0  0  0  0  0  0  0
   59.9690   30.5900   47.2820 C   0  0  0  0  0  0  0  0  0  0  0  0
   60.1770   29.3800   47.9490 C   0  0  0  0  0  0  0  0  0  0  0  0
   61.1890   29.3830   48.9010 O   0  0  0  0  0  0  0  0  0  0  0  0
   61.0480   29.8650   50.2190 C   0  0  0  0  0  0  0  0  0  0  0  0
   62.0460   30.9930   50.3760 C   0  0  0  0  0  0  0  0  0  0  0  0
   61.8880   31.6820   51.4090 O   0  0  0  0  0  0  0  0  0  0  0  0
   63.0590   31.2200   49.4190 N   0  0  0  0  0  0  0  0  0  0  0  0
   64.0780   32.2020   49.4210 C   0  0  0  0  0  0  0  0  0  0  0  0
   63.9700   33.3770   48.5400 C   0  0  0  0  0  0  0  0  0  0  0  0
   63.2960   33.1570   47.2340 C   0  0  0  0  0  0  0  0  0  0  0  0
   61.8570   33.6500   47.4470 C   0  0  0  0  0  0  0  0  0  0  0  0
   61.3680   33.8010   48.7270 C   0  0  0  0  0  0  0  0  0  0  0  0
   60.0710   34.2450   48.8660 C   0  0  0  0  0  0  0  0  0  0  0  0
   59.2570   34.5400   47.7800 C   0  0  0  0  0  0  0  0  0  0  0  0
   59.7710   34.3810   46.4890 C   0  0  0  0  0  0  0  0  0  0  0  0
   61.0780   33.9340   46.3380 C   0  0  0  0  0  0  0  0  0  0  0  0
   59.4190   28.2590   47.6720 C   0  0  0  0  0  0  0  0  0  0  0  0
   58.4290   28.3510   46.7040 C   0  0  0  0  0  0  0  0  0  0  0  0
   56.3835   31.7203   42.1162 H   0  0  0  0  0  0  0  0  0  0  0  0
   57.7210   32.8924   41.8627 H   0  0  0  0  0  0  0  0  0  0  0  0
   58.0605   31.1284   41.8627 H   0  0  0  0  0  0  0  0  0  0  0  0
   58.6394   31.4539   43.9664 H   0  0  0  0  0  0  0  0  0  0  0  0
   57.7827   33.3684   45.4118 H   0  0  0  0  0  0  0  0  0  0  0  0
   58.7162   33.8484   43.9542 H   0  0  0  0  0  0  0  0  0  0  0  0
   56.9242   33.9724   43.9542 H   0  0  0  0  0  0  0  0  0  0  0  0
   55.7240   31.4910   43.9300 H   0  0  0  0  0  0  0  0  0  0  0  0
   58.7953   31.5979   45.7850 H   0  0  0  0  0  0  0  0  0  0  0  0
   60.5825   31.4726   47.5158 H   0  0  0  0  0  0  0  0  0  0  0  0
   60.0256   30.2377   50.3795 H   0  0  0  0  0  0  0  0  0  0  0  0
   61.2311   29.0680   50.9547 H   0  0  0  0  0  0  0  0  0  0  0  0
   63.0380   30.5440   48.5860 H   0  0  0  0  0  0  0  0  0  0  0  0
   64.1502   32.5826   50.4505 H   0  0  0  0  0  0  0  0  0  0  0  0
   64.9488   31.6636   49.0187 H   0  0  0  0  0  0  0  0  0  0  0  0
   63.4080   34.1522   49.0815 H   0  0  0  0  0  0  0  0  0  0  0  0
   65.0049   33.6572   48.2941 H   0  0  0  0  0  0  0  0  0  0  0  0
   63.7905   33.7362   46.4403 H   0  0  0  0  0  0  0  0  0  0  0  0
   63.3317   32.1032   46.9207 H   0  0  0  0  0  0  0  0  0  0  0  0
   61.9905   33.5753   49.6054 H   0  0  0  0  0  0  0  0  0  0  0  0
   59.6631   34.3711   49.8798 H   0  0  0  0  0  0  0  0  0  0  0  0
   58.2262   34.8925   47.9326 H   0  0  0  0  0  0  0  0  0  0  0  0
   59.1513   34.6059   45.6084 H   0  0  0  0  0  0  0  0  0  0  0  0
   61.4972   33.8047   45.3293 H   0  0  0  0  0  0  0  0  0  0  0  0
   59.5962   27.3143   48.2069 H   0  0  0  0  0  0  0  0  0  0  0  0
   57.8157   27.4683   46.4702 H   0  0  0  0  0  0  0  0  0  0  0  0
  1  2  1  0
  2  3  1  0
  2  4  1  0
  4  5  1  0
  5  6  2  0
  5  7  2  0
  5  8  1  0
  8  9  2  0
  9 10  1  0
 10 11  2  0
 11 12  1  0
 12 13  1  0
 13 14  1  0
 14 15  2  0
 14 16  1  0
 16 17  1  0
 17 18  1  0
 18 19  1  0
 19 20  1  0
 20 21  2  0
 21 22  1  0
 22 23  2  0
 23 24  1  0
 24 25  2  0
 11 26  1  0
 26 27  2  0
 27  8  1  0
 25 20  1  0
  1 28  1  0
  1 29  1  0
  1 30  1  0
  2 31  1  0
  3 32  1  0
  3 33  1  0
  3 34  1  0
  4 35  1  0
  9 36  1  0
 10 37  1  0
 13 38  1  0
 13 39  1  0
 16 40  1  0
 17 41  1  0
 17 42  1  0
 18 43  1  0
 18 44  1  0
 19 45  1  0
 19 46  1  0
 21 47  1  0
 22 48  1  0
 23 49  1  0
 24 50  1  0
 25 51  1  0
 26 52  1  0
 27 53  1  0
M  END
>  <smiles>  (73) 
CC(C)NS(=O)(=O)c1ccc(OCC(=O)NCCCc2ccccc2)cc1

>  <score_type>  (73) 
oracle

>  <origin>  (73) 
adg

>  <m_score__min__energy>  (73) 
-8.1099999999999994

>  <m_primary>  (73) 
energy

$$$$
73:0
     RDKit          3D

 79 82  0  0  1  0  0  0  0  0999 V2000
   57.4560   32.2330   51.6530 C   0  0  0  0  0  0  0  0  0  0  0  0
   58.1580   33.4590   51.6870 O   0  0  0  0  0  0  0  0  0  0  0  0
   59.4750   33.6070   51.2890 C   0  0  0  0  0  0  0  0  0  0  0  0
   60.5530   33.4100   52.1270 C   0  0  0  0  0  0  0  0  0  0  0  0
   61.8620   33.5750   51.6680 C   0  0  0  0  0  0  0  0  0  0  0  0
   62.0670   33.9440   50.3480 C   0  0  0  0  0  0  0  0  0  0  0  0
   63.3580   34.1230   49.8260 O   0  0  0  0  0  0  0  0  0  0  0  0
   64.4420   33.4340   50.3810 C   0  0  0  0  0  0  0  0  0  0  0  0
   64.5660   32.0040   49.8380 C   0  0  2  0  0  0  0  0  0  0  0  0
   63.9830   32.0320   48.5740 O   0  0  0  0  0  0  0  0  0  0  0  0
   63.7600   31.0660   50.7030 C   0  0  0  0  0  0  0  0  0  0  0  0
   62.4560   30.8040   50.1760 N   0  0  0  0  0  0  0  0  0  0  0  0
   61.6330   29.9410   50.9880 C   0  0  0  0  0  0  0  0  0  0  0  0
   60.1450   30.3380   50.8710 C   0  0  0  0  0  0  0  0  0  0  0  0
   59.4270   29.3180   50.0850 C   0  0  0  0  0  0  0  0  0  0  0  0
   59.8010   29.1650   48.6870 N   0  0  0  0  0  0  0  0  0  0  0  0
   60.0780   27.8910   48.0700 C   0  0  0  0  0  0  0  0  0  0  0  0
   59.4140   27.5500   46.8320 C   0  0  0  0  0  0  0  0  0  0  0  0
   59.4480   28.0730   45.6520 C   0  0  0  0  0  0  0  0  0  0  0  0
   58.5370   28.9660   44.9950 C   0  0  0  0  0  0  0  0  0  0  0  0
   58.7790   30.1610   44.4130 C   0  0  0  0  0  0  0  0  0  0  0  0
   57.8150   31.0340   43.9270 C   0  0  0  0  0  0  0  0  0  0  0  0
   56.4940   30.6710   44.0350 C   0  0  0  0  0  0  0  0  0  0  0  0
   56.2220   29.4630   44.6200 C   0  0  0  0  0  0  0  0  0  0  0  0
   57.1800   28.6050   45.0970 C   0  0  0  0  0  0  0  0  0  0  0  0
   59.8700   30.4210   47.9680 C   0  0  0  0  0  0  0  0  0  0  0  0
   61.0820   30.8750   47.4500 C   0  0  0  0  0  0  0  0  0  0  0  0
   61.1890   32.1180   46.8320 C   0  0  0  0  0  0  0  0  0  0  0  0
   60.1070   32.9590   46.7010 C   0  0  0  0  0  0  0  0  0  0  0  0
   58.9050   32.5200   47.2080 C   0  0  0  0  0  0  0  0  0  0  0  0
   58.8050   31.2690   47.8300 C   0  0  0  0  0  0  0  0  0  0  0  0
   57.5940   33.2140   47.1990 C   0  0  0  0  0  0  0  0  0  0  0  0
   57.1260   33.5930   45.8090 C   0  0  0  0  0  0  0  0  0  0  0  0
   58.2100   34.1080   44.9920 N   0  0  0  0  0  0  0  0  0  0  0  0
   59.0960   34.9590   45.7980 C   0  0  0  0  0  0  0  0  0  0  0  0
   60.4200   34.2390   46.0140 C   0  0  0  0  0  0  0  0  0  0  0  0
   60.9670   34.1390   49.5160 C   0  0  0  0  0  0  0  0  0  0  0  0
   59.6680   33.9790   49.9560 C   0  0  0  0  0  0  0  0  0  0  0  0
   57.2615   31.8932   52.6810 H   0  0  0  0  0  0  0  0  0  0  0  0
   56.5006   32.3720   51.1258 H   0  0  0  0  0  0  0  0  0  0  0  0
   58.0595   31.4794   51.1258 H   0  0  0  0  0  0  0  0  0  0  0  0
   60.3790   33.1184   53.1733 H   0  0  0  0  0  0  0  0  0  0  0  0
   62.7157   33.4147   52.3429 H   0  0  0  0  0  0  0  0  0  0  0  0
   65.3664   33.9822   50.1468 H   0  0  0  0  0  0  0  0  0  0  0  0
   64.2770   33.3675   51.4665 H   0  0  0  0  0  0  0  0  0  0  0  0
   65.6136   31.6691   49.8186 H   0  0  0  0  0  0  0  0  0  0  0  0
   63.0290   32.3000   48.5740 H   0  0  0  0  0  0  0  0  0  0  0  0
   64.3025   30.1128   50.7871 H   0  0  0  0  0  0  0  0  0  0  0  0
   63.6290   31.5505   51.6818 H   0  0  0  0  0  0  0  0  0  0  0  0
   62.4710   30.5610   49.1740 H   0  0  0  0  0  0  0  0  0  0  0  0
   61.7570   28.9014   50.6505 H   0  0  0  0  0  0  0  0  0  0  0  0
   61.9443   30.0408   52.0383 H   0  0  0  0  0  0  0  0  0  0  0  0
   59.7029   30.4054   51.8760 H   0  0  0  0  0  0  0  0  0  0  0  0
   60.0631   31.3136   50.3695 H   0  0  0  0  0  0  0  0  0  0  0  0
   59.5879   28.3478   50.5778 H   0  0  0  0  0  0  0  0  0  0  0  0
   58.3832   29.6642   50.0610 H   0  0  0  0  0  0  0  0  0  0  0  0
   61.1600   27.8564   47.8750 H   0  0  0  0  0  0  0  0  0  0  0  0
   59.6831   27.1591   48.7900 H   0  0  0  0  0  0  0  0  0  0  0  0
   58.7514   26.6755   46.9105 H   0  0  0  0  0  0  0  0  0  0  0  0
   60.3221   27.7858   45.0491 H   0  0  0  0  0  0  0  0  0  0  0  0
   59.8306   30.4689   44.3158 H   0  0  0  0  0  0  0  0  0  0  0  0
   58.1012   31.9915   43.4674 H   0  0  0  0  0  0  0  0  0  0  0  0
   55.6886   31.3236   43.6669 H   0  0  0  0  0  0  0  0  0  0  0  0
   55.1682   29.1616   44.7133 H   0  0  0  0  0  0  0  0  0  0  0  0
   56.8916   27.6467   45.5536 H   0  0  0  0  0  0  0  0  0  0  0  0
   61.9741   30.2366   47.5314 H   0  0  0  0  0  0  0  0  0  0  0  0
   62.1651   32.4369   46.4375 H   0  0  0  0  0  0  0  0  0  0  0  0
   57.8276   30.9545   48.2248 H   0  0  0  0  0  0  0  0  0  0  0  0
   56.8436   32.5485   47.6507 H   0  0  0  0  0  0  0  0  0  0  0  0
   57.7158   34.1478   47.7676 H   0  0  0  0  0  0  0  0  0  0  0  0
   56.7056   32.7016   45.3204 H   0  0  0  0  0  0  0  0  0  0  0  0
   56.3698   34.3856   45.9093 H   0  0  0  0  0  0  0  0  0  0  0  0
   57.7710   34.7500   44.2920 H   0  0  0  0  0  0  0  0  0  0  0  0
   59.2747   35.9077   45.2708 H   0  0  0  0  0  0  0  0  0  0  0  0
   58.6252   35.1670   46.7701 H   0  0  0  0  0  0  0  0  0  0  0  0
   60.9051   34.0407   45.0469 H   0  0  0  0  0  0  0  0  0  0  0  0
   61.1081   34.8512   46.6155 H   0  0  0  0  0  0  0  0  0  0  0  0
   61.1396   34.4313   48.4697 H   0  0  0  0  0  0  0  0  0  0  0  0
   58.8146   34.1388   49.2806 H   0  0  0  0  0  0  0  0  0  0  0  0
  1  2  1  0
  2  3  1  0
  3  4  2  0
  4  5  1  0
  5  6  2  0
  6  7  1  0
  7  8  1  0
  8  9  1  0
  9 10  1  0
  9 11  1  0
 11 12  1  0
 12 13  1  0
 13 14  1  0
 14 15  1  0
 15 16  1  0
 16 17  1  0
 17 18  1  0
 18 19  2  0
 19 20  1  0
 20 21  2  0
 21 22  1  0
 22 23  2  0
 23 24  1  0
 24 25  2  0
 16 26  1  0
 26 27  2  0
 27 28  1  0
 28 29  2  0
 29 30  1  0
 30 31  2  0
 30 32  1  0
 32 33  1  0
 33 34  1  0
 34 35  1  0
 35 36  1  0
  6 37  1  0
 37 38  2  0
 38  3  1  0
 25 20  1  0
 31 26  1  0
 36 29  1  0
  1 39  1  0
  1 40  1  0
  1 41  1  0
  4 42  1  0
  5 43  1  0
  8 44  1  0
  8 45  1  0
  9 46  1  6
 10 47  1  0
 11 48  1  0
 11 49  1  0
 12 50  1  0
 13 51  1  0
 13 52  1  0
 14 53  1  0
 14 54  1  0
 15 55  1  0
 15 56  1  0
 17 57  1  0
 17 58  1  0
 18 59  1  0
 19 60  1  0
 21 61  1  0
 22 62  1  0
 23 63  1  0
 24 64  1  0
 25 65  1  0
 27 66  1  0
 28 67  1  0
 31 68  1  0
 32 69  1  0
 32 70  1  0
 33 71  1  0
 33 72  1  0
 34 73  1  0
 35 74  1  0
 35 75  1  0
 36 76  1  0
 36 77  1  0
 37 78  1  0
 38 79  1  0
M  END
>  <smiles>  (74) 
COc1ccc(OCC(O)CNCCCN(CC=Cc2ccccc2)c2ccc3c(c2)CCNCC3)cc1

>  <score_type>  (74) 
oracle

>  <origin>  (74) 
adg

>  <m_score__min__energy>  (74) 
-7.2999999999999998

>  <m_primary>  (74) 
energy

$$$$
74:0
     RDKit          3D

 36 38  0  0  1  0  0  0  0  0999 V2000
   62.7690   34.1500   49.0260 C   0  0  0  0  0  0  0  0  0  0  0  0
   61.7620   34.1130   48.0420 O   0  0  0  0  0  0  0  0  0  0  0  0
   61.0320   32.9770   47.8050 C   0  0  0  0  0  0  0  0  0  0  0  0
   61.6870   31.8170   47.4730 C   0  0  0  0  0  0  0  0  0  0  0  0
   60.9960   30.6550   47.2260 C   0  0  0  0  0  0  0  0  0  0  0  0
   59.5990   30.5750   47.2960 C   0  0  0  0  0  0  0  0  0  0  0  0
   58.9100   29.3330   47.0570 N   0  0  0  0  0  0  0  0  0  0  0  0
   59.4540   28.1050   47.5820 C   0  0  0  0  0  0  0  0  0  0  0  0
   59.9440   27.9850   48.7620 O   0  0  0  0  0  0  0  0  0  0  0  0
   59.4000   26.9920   46.6430 C   0  0  0  0  0  0  0  0  0  0  0  0
   57.8220   27.3000   45.8310 S   0  0  0  0  0  0  0  0  0  0  0  0
   57.6820   29.0740   46.3480 C   0  0  2  0  0  0  0  0  0  0  0  0
   57.4830   29.7730   45.0740 C   0  0  0  0  0  0  0  0  0  0  0  0
   58.4630   30.5170   44.4250 C   0  0  0  0  0  0  0  0  0  0  0  0
   58.2420   31.2080   43.2620 C   0  0  0  0  0  0  0  0  0  0  0  0
   57.0150   31.1990   42.6670 C   0  0  0  0  0  0  0  0  0  0  0  0
   56.0120   30.4770   43.2700 C   0  0  0  0  0  0  0  0  0  0  0  0
   56.2360   29.7750   44.4500 C   0  0  0  0  0  0  0  0  0  0  0  0
   55.1480   29.0850   44.9620 O   0  0  0  0  0  0  0  0  0  0  0  0
   58.9670   31.7410   47.6290 C   0  0  0  0  0  0  0  0  0  0  0  0
   59.6630   32.9330   47.8820 C   0  0  0  0  0  0  0  0  0  0  0  0
   62.3071   34.1330   50.0242 H   0  0  0  0  0  0  0  0  0  0  0  0
   63.4262   33.2754   48.9112 H   0  0  0  0  0  0  0  0  0  0  0  0
   63.3602   35.0705   48.9112 H   0  0  0  0  0  0  0  0  0  0  0  0
   62.7848   31.8177   47.4034 H   0  0  0  0  0  0  0  0  0  0  0  0
   61.5633   29.7502   46.9624 H   0  0  0  0  0  0  0  0  0  0  0  0
   60.2353   27.0263   45.9280 H   0  0  0  0  0  0  0  0  0  0  0  0
   59.4818   26.0002   47.1116 H   0  0  0  0  0  0  0  0  0  0  0  0
   56.8689   29.3831   47.0213 H   0  0  0  0  0  0  0  0  0  0  0  0
   59.4689   30.5527   44.8688 H   0  0  0  0  0  0  0  0  0  0  0  0
   59.0643   31.7766   42.8031 H   0  0  0  0  0  0  0  0  0  0  0  0
   56.8332   31.7521   41.7337 H   0  0  0  0  0  0  0  0  0  0  0  0
   55.0129   30.4541   42.8103 H   0  0  0  0  0  0  0  0  0  0  0  0
   55.1470   28.0740   44.8680 H   0  0  0  0  0  0  0  0  0  0  0  0
   57.8694   31.7448   47.7014 H   0  0  0  0  0  0  0  0  0  0  0  0
   59.1041   33.8431   48.1452 H   0  0  0  0  0  0  0  0  0  0  0  0
  1  2  1  0
  2  3  1  0
  3  4  2  0
  4  5  1  0
  5  6  2  0
  6  7  1  0
  7  8  1  0
  8  9  2  0
  8 10  1  0
 10 11  1  0
 11 12  1  0
 12 13  1  0
 13 14  2  0
 14 15  1  0
 15 16  2  0
 16 17  1  0
 17 18  2  0
 18 19  1  0
  6 20  1  0
 20 21  2  0
 21  3  1  0
 12  7  1  0
 18 13  1  0
  1 22  1  0
  1 23  1  0
  1 24  1  0
  4 25  1  0
  5 26  1  0
 10 27  1  0
 10 28  1  0
 12 29  1  1
 14 30  1  0
 15 31  1  0
 16 32  1  0
 17 33  1  0
 19 34  1  0
 20 35  1  0
 21 36  1  0
M  END
>  <smiles>  (75) 
COc1ccc(N2C(=O)CSC2c2ccccc2O)cc1

>  <score_type>  (75) 
oracle

>  <origin>  (75) 
adg

>  <m_score__min__energy>  (75) 
-7.3399999999999999

>  <m_primary>  (75) 
energy

$$$$
75:0
     RDKit          3D

 46 48  0  0  0  0  0  0  0  0999 V2000
   57.6480   24.9860   45.9710 C   0  0  0  0  0  0  0  0  0  0  0  0
   56.8490   26.5480   46.0250 S   0  0  0  0  0  0  0  0  0  0  0  0
   57.4060   27.3560   47.1820 O   0  0  0  0  0  0  0  0  0  0  0  0
   55.3800   26.3440   46.2240 O   0  0  0  0  0  0  0  0  0  0  0  0
   57.0720   27.4340   44.5730 N   0  0  0  0  0  0  0  0  0  0  0  0
   57.3530   28.8140   44.6040 C   0  0  0  0  0  0  0  0  0  0  0  0
   58.6420   29.2620   44.7790 C   0  0  0  0  0  0  0  0  0  0  0  0
   58.9190   30.6170   44.8100 C   0  0  0  0  0  0  0  0  0  0  0  0
   57.9600   31.5920   44.6730 C   0  0  0  0  0  0  0  0  0  0  0  0
   58.2040   33.0350   44.7030 C   0  0  0  0  0  0  0  0  0  0  0  0
   58.7200   33.4560   45.9890 N   0  0  0  0  0  0  0  0  0  0  0  0
   57.9080   33.3030   47.2060 C   0  0  0  0  0  0  0  0  0  0  0  0
   58.5530   32.4180   48.2000 C   0  0  0  0  0  0  0  0  0  0  0  0
   58.9390   32.8160   49.4620 C   0  0  0  0  0  0  0  0  0  0  0  0
   59.5040   31.7160   50.0990 C   0  0  0  0  0  0  0  0  0  0  0  0
   59.4600   30.6970   49.2570 O   0  0  0  0  0  0  0  0  0  0  0  0
   58.8990   31.0860   48.1170 C   0  0  0  0  0  0  0  0  0  0  0  0
   60.0090   34.0250   46.1730 C   0  0  0  0  0  0  0  0  0  0  0  0
   60.2010   35.2910   46.1490 O   0  0  0  0  0  0  0  0  0  0  0  0
   61.1820   33.2490   46.3990 N   0  0  0  0  0  0  0  0  0  0  0  0
   62.4730   33.8610   46.5800 C   0  0  0  0  0  0  0  0  0  0  0  0
   62.9280   33.8950   48.0510 C   0  0  0  0  0  0  0  0  0  0  0  0
   63.6650   33.1040   46.9910 C   0  0  0  0  0  0  0  0  0  0  0  0
   56.6520   31.1320   44.4950 C   0  0  0  0  0  0  0  0  0  0  0  0
   56.3700   29.7660   44.4640 C   0  0  0  0  0  0  0  0  0  0  0  0
   55.0970   29.3180   44.2920 F   0  0  0  0  0  0  0  0  0  0  0  0
   57.8294   24.6313   46.9963 H   0  0  0  0  0  0  0  0  0  0  0  0
   57.0080   24.2649   45.4414 H   0  0  0  0  0  0  0  0  0  0  0  0
   58.6072   25.0829   45.4414 H   0  0  0  0  0  0  0  0  0  0  0  0
   57.0050   26.9610   43.6290 H   0  0  0  0  0  0  0  0  0  0  0  0
   59.4601   28.5359   44.8954 H   0  0  0  0  0  0  0  0  0  0  0  0
   59.9636   30.9312   44.9520 H   0  0  0  0  0  0  0  0  0  0  0  0
   58.9357   33.2908   43.9224 H   0  0  0  0  0  0  0  0  0  0  0  0
   57.2491   33.5518   44.5266 H   0  0  0  0  0  0  0  0  0  0  0  0
   57.7579   34.2942   47.6587 H   0  0  0  0  0  0  0  0  0  0  0  0
   56.9501   32.8456   46.9177 H   0  0  0  0  0  0  0  0  0  0  0  0
   58.8213   33.8230   49.8889 H   0  0  0  0  0  0  0  0  0  0  0  0
   59.9138   31.6971   51.1197 H   0  0  0  0  0  0  0  0  0  0  0  0
   58.7354   30.4427   47.2399 H   0  0  0  0  0  0  0  0  0  0  0  0
   61.1300   32.2100   46.4460 H   0  0  0  0  0  0  0  0  0  0  0  0
   62.3146   34.5550   45.7414 H   0  0  0  0  0  0  0  0  0  0  0  0
   63.3732   34.8071   48.4750 H   0  0  0  0  0  0  0  0  0  0  0  0
   62.4699   33.6762   49.0268 H   0  0  0  0  0  0  0  0  0  0  0  0
   64.6604   33.4344   46.6594 H   0  0  0  0  0  0  0  0  0  0  0  0
   63.9735   32.0523   46.8973 H   0  0  0  0  0  0  0  0  0  0  0  0
   55.8334   31.8574   44.3777 H   0  0  0  0  0  0  0  0  0  0  0  0
  1  2  1  0
  2  3  2  0
  2  4  2  0
  2  5  1  0
  5  6  1  0
  6  7  2  0
  7  8  1  0
  8  9  2  0
  9 10  1  0
 10 11  1  0
 11 12  1  0
 12 13  1  0
 13 14  1  0
 14 15  2  0
 15 16  1  0
 16 17  1  0
 11 18  1  0
 18 19  2  0
 18 20  1  0
 20 21  1  0
 21 22  1  0
 22 23  1  0
  9 24  1  0
 24 25  2  0
 25 26  1  0
 25  6  1  0
 17 13  2  0
 23 21  1  0
  1 27  1  0
  1 28  1  0
  1 29  1  0
  5 30  1  0
  7 31  1  0
  8 32  1  0
 10 33  1  0
 10 34  1  0
 12 35  1  0
 12 36  1  0
 14 37  1  0
 15 38  1  0
 17 39  1  0
 20 40  1  0
 21 41  1  0
 22 42  1  0
 22 43  1  0
 23 44  1  0
 23 45  1  0
 24 46  1  0
M  END
>  <smiles>  (76) 
CS(=O)(=O)Nc1ccc(CN(Cc2ccoc2)C(=O)NC2CC2)cc1F

>  <score_type>  (76) 
oracle

>  <origin>  (76) 
adg

>  <m_score__min__energy>  (76) 
-7.6299999999999999

>  <m_primary>  (76) 
energy

$$$$
76:0
     RDKit          3D

 48 51  0  0  0  0  0  0  0  0999 V2000
   61.1380   30.1040   46.4080 C   0  0  0  0  0  0  0  0  0  0  0  0
   59.9460   29.3180   46.7090 N   0  0  0  0  0  0  0  0  0  0  0  0
   59.4400   28.4860   45.6320 C   0  0  0  0  0  0  0  0  0  0  0  0
   58.3610   29.2350   44.9460 C   0  0  0  0  0  0  0  0  0  0  0  0
   57.0720   28.7110   45.0980 C   0  0  0  0  0  0  0  0  0  0  0  0
   55.9770   29.3290   44.5000 C   0  0  0  0  0  0  0  0  0  0  0  0
   56.1360   30.4750   43.7430 C   0  0  0  0  0  0  0  0  0  0  0  0
   57.4140   30.9960   43.5920 C   0  0  0  0  0  0  0  0  0  0  0  0
   58.4950   30.3550   44.2020 C   0  0  0  0  0  0  0  0  0  0  0  0
   59.3530   29.4410   47.9790 C   0  0  0  0  0  0  0  0  0  0  0  0
   58.1580   29.0370   48.0950 O   0  0  0  0  0  0  0  0  0  0  0  0
   60.0450   30.0050   49.1550 C   0  0  0  0  0  0  0  0  0  0  0  0
   59.4650   31.7000   49.4110 S   0  0  0  0  0  0  0  0  0  0  0  0
   60.0040   32.6830   48.0210 C   0  0  0  0  0  0  0  0  0  0  0  0
   61.3790   32.9510   47.9520 C   0  0  0  0  0  0  0  0  0  0  0  0
   61.9180   33.6950   46.9260 C   0  0  0  0  0  0  0  0  0  0  0  0
   61.0550   34.1500   45.9950 N   0  0  0  0  0  0  0  0  0  0  0  0
   59.7280   33.9170   46.0180 C   0  0  0  0  0  0  0  0  0  0  0  0
   58.8910   34.4110   45.0100 C   0  0  0  0  0  0  0  0  0  0  0  0
   57.5320   34.1350   45.0740 C   0  0  0  0  0  0  0  0  0  0  0  0
   57.0180   33.3910   46.1040 C   0  0  0  0  0  0  0  0  0  0  0  0
   57.8150   32.8900   47.1130 C   0  0  0  0  0  0  0  0  0  0  0  0
   59.1700   33.1630   47.0540 C   0  0  0  0  0  0  0  0  0  0  0  0
   63.4020   33.8140   47.1280 C   0  0  0  0  0  0  0  0  0  0  0  0
   63.6710   32.5220   47.9040 C   0  0  0  0  0  0  0  0  0  0  0  0
   62.5070   32.5400   48.8700 C   0  0  0  0  0  0  0  0  0  0  0  0
   61.6161   30.4193   47.3472 H   0  0  0  0  0  0  0  0  0  0  0  0
   61.8426   29.4928   45.8250 H   0  0  0  0  0  0  0  0  0  0  0  0
   60.8538   30.9924   45.8250 H   0  0  0  0  0  0  0  0  0  0  0  0
   60.2491   28.2615   44.9214 H   0  0  0  0  0  0  0  0  0  0  0  0
   59.0535   27.5365   46.0307 H   0  0  0  0  0  0  0  0  0  0  0  0
   56.9224   27.8005   45.6968 H   0  0  0  0  0  0  0  0  0  0  0  0
   54.9726   28.9001   44.6315 H   0  0  0  0  0  0  0  0  0  0  0  0
   55.2701   30.9626   43.2714 H   0  0  0  0  0  0  0  0  0  0  0  0
   57.5742   31.9068   42.9964 H   0  0  0  0  0  0  0  0  0  0  0  0
   59.5005   30.7812   44.0708 H   0  0  0  0  0  0  0  0  0  0  0  0
   59.8188   29.3980   50.0440 H   0  0  0  0  0  0  0  0  0  0  0  0
   61.1322   30.0019   48.9876 H   0  0  0  0  0  0  0  0  0  0  0  0
   59.3029   35.0070   44.1823 H   0  0  0  0  0  0  0  0  0  0  0  0
   56.8611   34.5171   44.2905 H   0  0  0  0  0  0  0  0  0  0  0  0
   55.9373   33.1871   46.1270 H   0  0  0  0  0  0  0  0  0  0  0  0
   57.3885   32.2953   47.9342 H   0  0  0  0  0  0  0  0  0  0  0  0
   63.9436   33.8352   46.1708 H   0  0  0  0  0  0  0  0  0  0  0  0
   63.7275   34.7344   47.6349 H   0  0  0  0  0  0  0  0  0  0  0  0
   63.6419   31.6396   47.2479 H   0  0  0  0  0  0  0  0  0  0  0  0
   64.6621   32.4673   48.3780 H   0  0  0  0  0  0  0  0  0  0  0  0
   62.3300   31.5467   49.3083 H   0  0  0  0  0  0  0  0  0  0  0  0
   62.6483   33.1993   49.7391 H   0  0  0  0  0  0  0  0  0  0  0  0
  1  2  1  0
  2  3  1  0
  3  4  1  0
  4  5  2  0
  5  6  1  0
  6  7  2  0
  7  8  1  0
  8  9  2  0
  2 10  1  0
 10 11  2  0
 10 12  1  0
 12 13  1  0
 13 14  1  0
 14 15  2  0
 15 16  1  0
 16 17  2  0
 17 18  1  0
 18 19  2  0
 19 20  1  0
 20 21  2  0
 21 22  1  0
 22 23  2  0
 16 24  1  0
 24 25  1  0
 25 26  1  0
  9  4  1  0
 23 14  1  0
 26 15  1  0
 23 18  1  0
  1 27  1  0
  1 28  1  0
  1 29  1  0
  3 30  1  0
  3 31  1  0
  5 32  1  0
  6 33  1  0
  7 34  1  0
  8 35  1  0
  9 36  1  0
 12 37  1  0
 12 38  1  0
 19 39  1  0
 20 40  1  0
 21 41  1  0
 22 42  1  0
 24 43  1  0
 24 44  1  0
 25 45  1  0
 25 46  1  0
 26 47  1  0
 26 48  1  0
M  END
>  <smiles>  (77) 
CN(Cc1ccccc1)C(=O)CSc1c2c(nc3ccccc13)CCC2

>  <score_type>  (77) 
oracle

>  <origin>  (77) 
adg

>  <m_score__min__energy>  (77) 
-8.7300000000000004

>  <m_primary>  (77) 
energy

$$$$
77:0
     RDKit          3D

 57 60  0  0  1  0  0  0  0  0999 V2000
   56.2380   22.5620   42.9170 C   0  0  0  0  0  0  0  0  0  0  0  0
   56.6960   23.9550   43.3200 C   0  0  0  0  0  0  0  0  0  0  0  0
   57.1510   23.9730   44.7490 C   0  0  0  0  0  0  0  0  0  0  0  0
   56.0920   24.4880   45.6970 C   0  0  0  0  0  0  0  0  0  0  0  0
   56.3540   25.9560   45.8630 C   0  0  0  0  0  0  0  0  0  0  0  0
   55.3420   26.7080   46.0240 O   0  0  0  0  0  0  0  0  0  0  0  0
   57.6800   26.4450   45.8360 N   0  0  0  0  0  0  0  0  0  0  0  0
   57.8500   27.8570   46.0020 C   0  0  0  0  0  0  0  0  0  0  0  0
   58.5010   28.4110   47.0740 C   0  0  0  0  0  0  0  0  0  0  0  0
   59.2110   33.9950   52.4660 C   0  0  0  0  0  0  0  0  0  0  0  0
   58.8930   33.4220   51.2080 C   0  0  0  0  0  0  0  0  0  0  0  0
   58.1610   32.0180   46.1670 N   0  0  0  0  0  0  0  0  0  0  0  0
   59.1000   32.4660   46.9320 C   0  0  0  0  0  0  0  0  0  0  0  0
   58.8220   32.9960   48.1280 N   0  0  0  0  0  0  0  0  0  0  0  0
   59.7460   33.4860   48.9820 C   0  0  0  0  0  0  0  0  0  0  0  0
   59.3760   33.9520   50.0570 N   0  0  0  0  0  0  0  0  0  0  0  0
   58.0510   30.5780   46.1070 C   0  0  0  0  0  0  0  0  0  0  0  0
   58.6040   29.8030   47.1270 C   0  0  0  0  0  0  0  0  0  0  0  0
   58.7790   33.3440   53.6000 C   0  0  0  0  0  0  0  0  0  0  0  0
   58.0620   32.1740   53.5880 C   0  0  0  0  0  0  0  0  0  0  0  0
   57.6390   31.5350   54.7040 F   0  0  0  0  0  0  0  0  0  0  0  0
   57.7520   31.6160   52.3640 C   0  0  0  0  0  0  0  0  0  0  0  0
   57.0050   30.3960   52.2790 C   0  0  0  0  0  0  0  0  0  0  0  0
   56.4000   29.4340   52.2240 N   0  0  0  0  0  0  0  0  0  0  0  0
   57.3970   30.0180   45.0300 C   0  0  0  0  0  0  0  0  0  0  0  0
   61.0660   33.4500   48.6300 C   0  0  0  0  0  0  0  0  0  0  0  0
   62.0540   33.9260   49.4420 C   0  0  0  0  0  0  0  0  0  0  0  0
   63.3960   33.8600   49.0220 C   0  0  0  0  0  0  0  0  0  0  0  0
   63.6100   33.3090   47.7960 C   0  0  0  0  0  0  0  0  0  0  0  0
   62.6320   32.8250   46.9650 C   0  0  0  0  0  0  0  0  0  0  0  0
   61.3420   32.8950   47.3850 C   0  0  0  0  0  0  0  0  0  0  0  0
   60.3900   32.4200   46.5660 N   0  0  0  0  0  0  0  0  0  0  0  0
   58.1520   32.2140   51.1870 C   0  0  0  0  0  0  0  0  0  0  0  0
   57.2990   28.6430   44.9830 C   0  0  0  0  0  0  0  0  0  0  0  0
   56.0417   21.9651   43.8198 H   0  0  0  0  0  0  0  0  0  0  0  0
   55.3173   22.6372   42.3198 H   0  0  0  0  0  0  0  0  0  0  0  0
   57.0237   22.0761   42.3198 H   0  0  0  0  0  0  0  0  0  0  0  0
   57.5301   24.2620   42.6720 H   0  0  0  0  0  0  0  0  0  0  0  0
   55.8504   24.6499   43.2103 H   0  0  0  0  0  0  0  0  0  0  0  0
   57.4187   22.9480   45.0451 H   0  0  0  0  0  0  0  0  0  0  0  0
   58.0114   24.6554   44.8130 H   0  0  0  0  0  0  0  0  0  0  0  0
   55.0899   24.3254   45.2734 H   0  0  0  0  0  0  0  0  0  0  0  0
   56.1304   23.9631   46.6629 H   0  0  0  0  0  0  0  0  0  0  0  0
   58.4790   25.7880   45.7030 H   0  0  0  0  0  0  0  0  0  0  0  0
   58.9284   27.7795   47.8668 H   0  0  0  0  0  0  0  0  0  0  0  0
   59.7852   34.9308   52.5337 H   0  0  0  0  0  0  0  0  0  0  0  0
   57.7910   33.0170   48.3850 H   0  0  0  0  0  0  0  0  0  0  0  0
   59.1193   30.2866   47.9700 H   0  0  0  0  0  0  0  0  0  0  0  0
   59.0238   33.7893   54.5756 H   0  0  0  0  0  0  0  0  0  0  0  0
   56.9681   30.6463   44.2355 H   0  0  0  0  0  0  0  0  0  0  0  0
   61.8027   34.3597   50.4212 H   0  0  0  0  0  0  0  0  0  0  0  0
   64.2217   34.2313   49.6468 H   0  0  0  0  0  0  0  0  0  0  0  0
   64.6501   33.2469   47.4435 H   0  0  0  0  0  0  0  0  0  0  0  0
   62.8851   32.3923   45.9859 H   0  0  0  0  0  0  0  0  0  0  0  0
   60.6380   32.0140   45.6440 H   0  0  0  0  0  0  0  0  0  0  0  0
   57.8937   31.7494   50.2240 H   0  0  0  0  0  0  0  0  0  0  0  0
   56.7843   28.1607   44.1389 H   0  0  0  0  0  0  0  0  0  0  0  0
  1  2  1  0
  2  3  1  0
  3  4  1  0
  4  5  1  0
  5  6  2  0
  5  7  1  0
  7  8  1  0
  8  9  2  0
  9 10  1  0
 10 11  2  0
 11 12  1  0
 12 13  2  0
 13 14  1  0
 14 15  1  0
 15 16  2  0
 16 17  1  0
 17 18  2  0
 18 19  1  0
 19 20  2  0
 20 21  1  0
 20 22  1  0
 22 23  1  0
 23 24  3  0
 22 25  2  0
 15 26  1  0
 26 27  2  0
 27 28  1  0
 28 29  2  0
 29 30  1  0
 30 31  2  0
 31 32  1  0
 11 33  1  0
 33 34  2  0
 34  8  1  0
 32 13  1  0
 25 17  1  0
 31 26  1  0
  1 35  1  0
  1 36  1  0
  1 37  1  0
  2 38  1  0
  2 39  1  0
  3 40  1  0
  3 41  1  0
  4 42  1  0
  4 43  1  0
  7 44  1  0
  9 45  1  0
 10 46  1  0
 14 47  1  0
 18 48  1  0
 19 49  1  0
 25 50  1  0
 27 51  1  0
 28 52  1  0
 29 53  1  0
 30 54  1  0
 32 55  1  0
 33 56  1  0
 34 57  1  0
M  END
>  <smiles>  (78) 
CCCCC(=O)Nc1ccc(N=c2[nH]c(=Nc3ccc(F)c(C#N)c3)c3ccccc3[nH]2)cc1

>  <score_type>  (78) 
oracle

>  <origin>  (78) 
adg

>  <m_score__min__energy>  (78) 
-9.0999999999999996

>  <m_primary>  (78) 
energy

$$$$
78:0
     RDKit          3D

 44 48  0  0  1  0  0  0  0  0999 V2000
   57.9270   34.3490   44.9390 C   0  0  0  0  0  0  0  0  0  0  0  0
   58.9090   33.9670   45.8980 O   0  0  0  0  0  0  0  0  0  0  0  0
   59.2850   32.6550   46.0670 C   0  0  0  0  0  0  0  0  0  0  0  0
   60.4740   32.4180   46.7370 C   0  0  0  0  0  0  0  0  0  0  0  0
   60.8660   31.1230   46.9170 C   0  0  0  0  0  0  0  0  0  0  0  0
   60.0890   30.0670   46.4370 C   0  0  0  0  0  0  0  0  0  0  0  0
   58.9020   30.2750   45.7670 C   0  0  0  0  0  0  0  0  0  0  0  0
   58.5210   31.6020   45.5950 C   0  0  0  0  0  0  0  0  0  0  0  0
   58.0700   29.1930   45.2550 C   0  0  1  0  0  0  0  0  0  0  0  0
   56.6260   29.3290   45.6260 C   0  0  0  0  0  0  0  0  0  0  0  0
   56.1240   30.1420   44.5790 O   0  0  0  0  0  0  0  0  0  0  0  0
   56.7520   29.7280   43.4130 C   0  0  0  0  0  0  0  0  0  0  0  0
   56.2640   29.7010   42.2000 N   0  0  0  0  0  0  0  0  0  0  0  0
   58.0510   29.3300   43.7930 N   0  0  0  0  0  0  0  0  0  0  0  0
   58.6660   27.9020   45.5510 C   0  0  0  0  0  0  0  0  0  0  0  0
   58.0040   26.7550   45.1340 C   0  0  0  0  0  0  0  0  0  0  0  0
   58.5100   25.5030   45.3800 C   0  0  0  0  0  0  0  0  0  0  0  0
   57.7780   24.3440   44.9210 C   0  0  0  0  0  0  0  0  0  0  0  0
   58.4880   23.2770   44.5100 N   0  0  0  0  0  0  0  0  0  0  0  0
   57.9540   22.1350   44.0590 C   0  0  0  0  0  0  0  0  0  0  0  0
   56.5990   22.0080   44.0000 C   0  0  0  0  0  0  0  0  0  0  0  0
   55.8220   23.0860   44.4150 C   0  0  0  0  0  0  0  0  0  0  0  0
   56.4020   24.2620   44.8780 C   0  0  0  0  0  0  0  0  0  0  0  0
   55.6740   25.3250   45.2880 F   0  0  0  0  0  0  0  0  0  0  0  0
   59.7030   25.3290   46.0540 C   0  0  0  0  0  0  0  0  0  0  0  0
   60.3730   26.4540   46.4750 C   0  0  0  0  0  0  0  0  0  0  0  0
   59.8540   27.7090   46.2220 C   0  0  0  0  0  0  0  0  0  0  0  0
   60.5830   28.7960   46.6750 O   0  0  0  0  0  0  0  0  0  0  0  0
   57.0237   34.7004   45.4592 H   0  0  0  0  0  0  0  0  0  0  0  0
   58.3252   35.1578   44.3087 H   0  0  0  0  0  0  0  0  0  0  0  0
   57.6740   33.4837   44.3087 H   0  0  0  0  0  0  0  0  0  0  0  0
   61.0858   33.2509   47.1138 H   0  0  0  0  0  0  0  0  0  0  0  0
   61.8058   30.9087   47.4469 H   0  0  0  0  0  0  0  0  0  0  0  0
   57.5816   31.8214   45.0665 H   0  0  0  0  0  0  0  0  0  0  0  0
   56.1252   28.3498   45.6459 H   0  0  0  0  0  0  0  0  0  0  0  0
   56.4653   29.7510   46.6290 H   0  0  0  0  0  0  0  0  0  0  0  0
   55.5710   28.9790   41.8940 H   0  0  0  0  0  0  0  0  0  0  0  0
   58.8550   29.1660   43.1340 H   0  0  0  0  0  0  0  0  0  0  0  0
   57.0509   26.8520   44.5934 H   0  0  0  0  0  0  0  0  0  0  0  0
   58.6035   21.3069   43.7390 H   0  0  0  0  0  0  0  0  0  0  0  0
   56.1325   21.0810   43.6352 H   0  0  0  0  0  0  0  0  0  0  0  0
   54.7256   23.0058   44.3758 H   0  0  0  0  0  0  0  0  0  0  0  0
   60.1042   24.3233   46.2478 H   0  0  0  0  0  0  0  0  0  0  0  0
   61.3259   26.3540   47.0153 H   0  0  0  0  0  0  0  0  0  0  0  0
  1  2  1  0
  2  3  1  0
  3  4  2  0
  4  5  1  0
  5  6  2  0
  6  7  1  0
  7  8  2  0
  7  9  1  0
  9 10  1  0
 10 11  1  0
 11 12  1  0
 12 13  2  3
 12 14  1  0
  9 15  1  0
 15 16  2  0
 16 17  1  0
 17 18  1  0
 18 19  2  0
 19 20  1  0
 20 21  2  0
 21 22  1  0
 22 23  2  0
 23 24  1  0
 17 25  2  0
 25 26  1  0
 26 27  2  0
 27 28  1  0
  8  3  1  0
  9 14  1  6
 27 15  1  0
 28  6  1  0
 23 18  1  0
  1 29  1  0
  1 30  1  0
  1 31  1  0
  4 32  1  0
  5 33  1  0
  8 34  1  0
 10 35  1  0
 10 36  1  0
 13 37  1  0
 14 38  1  0
 16 39  1  0
 20 40  1  0
 21 41  1  0
 22 42  1  0
 25 43  1  0
 26 44  1  0
M  END
>  <smiles>  (79) 
COc1ccc2c(c1)C1(COC(=N)N1)c1cc(-c3ncccc3F)ccc1O2

>  <score_type>  (79) 
oracle

>  <origin>  (79) 
adg

>  <m_score__min__energy>  (79) 
-7.8499999999999996

>  <m_primary>  (79) 
energy

$$$$
79:0
     RDKit          3D

 51 54  0  0  0  0  0  0  0  0999 V2000
   60.2070   34.2150   49.5450 C   0  0  0  0  0  0  0  0  0  0  0  0
   59.1310   33.4460   49.0450 O   0  0  0  0  0  0  0  0  0  0  0  0
   58.9130   33.3990   47.6770 C   0  0  0  0  0  0  0  0  0  0  0  0
   59.2440   34.5070   46.8900 C   0  0  0  0  0  0  0  0  0  0  0  0
   59.0370   34.4900   45.5170 C   0  0  0  0  0  0  0  0  0  0  0  0
   58.4970   33.3600   44.9330 C   0  0  0  0  0  0  0  0  0  0  0  0
   58.1620   32.2600   45.6770 C   0  0  0  0  0  0  0  0  0  0  0  0
   57.4780   30.8030   44.9970 S   0  0  0  0  0  0  0  0  0  0  0  0
   56.1370   31.1010   44.3490 O   0  0  0  0  0  0  0  0  0  0  0  0
   57.3260   29.7270   46.0340 O   0  0  0  0  0  0  0  0  0  0  0  0
   58.5010   30.1940   43.7510 N   0  0  0  0  0  0  0  0  0  0  0  0
   58.9230   28.8620   44.1410 C   0  0  0  0  0  0  0  0  0  0  0  0
   60.2260   29.0360   44.8880 C   0  0  0  0  0  0  0  0  0  0  0  0
   60.1400   28.8930   46.3320 C   0  0  0  0  0  0  0  0  0  0  0  0
   59.4810   27.9620   47.1060 C   0  0  0  0  0  0  0  0  0  0  0  0
   58.6700   26.8220   46.7410 C   0  0  0  0  0  0  0  0  0  0  0  0
   59.3310   25.6610   46.3250 C   0  0  0  0  0  0  0  0  0  0  0  0
   58.6300   24.5230   45.9530 C   0  0  0  0  0  0  0  0  0  0  0  0
   57.2550   24.4620   45.9670 C   0  0  0  0  0  0  0  0  0  0  0  0
   56.6370   23.3390   45.5980 F   0  0  0  0  0  0  0  0  0  0  0  0
   56.5960   25.6000   46.3750 C   0  0  0  0  0  0  0  0  0  0  0  0
   57.3080   26.7490   46.7510 C   0  0  0  0  0  0  0  0  0  0  0  0
   59.7190   28.2970   48.3940 N   0  0  0  0  0  0  0  0  0  0  0  0
   60.4890   29.3850   48.4910 C   0  0  0  0  0  0  0  0  0  0  0  0
   60.9970   30.1020   49.5490 C   0  0  0  0  0  0  0  0  0  0  0  0
   61.7870   31.2170   49.3800 C   0  0  0  0  0  0  0  0  0  0  0  0
   62.0790   31.6300   48.0980 C   0  0  0  0  0  0  0  0  0  0  0  0
   61.5620   30.9010   47.0490 C   0  0  0  0  0  0  0  0  0  0  0  0
   60.7710   29.7840   47.2170 C   0  0  0  0  0  0  0  0  0  0  0  0
   58.3780   32.3060   47.0290 C   0  0  0  0  0  0  0  0  0  0  0  0
   60.1877   34.2012   50.6447 H   0  0  0  0  0  0  0  0  0  0  0  0
   61.1575   33.7903   49.1896 H   0  0  0  0  0  0  0  0  0  0  0  0
   60.1130   35.2518   49.1896 H   0  0  0  0  0  0  0  0  0  0  0  0
   59.6732   35.4020   47.3641 H   0  0  0  0  0  0  0  0  0  0  0  0
   59.2993   35.3640   44.9027 H   0  0  0  0  0  0  0  0  0  0  0  0
   58.3324   33.3436   43.8455 H   0  0  0  0  0  0  0  0  0  0  0  0
   57.9240   30.0930   42.8880 H   0  0  0  0  0  0  0  0  0  0  0  0
   58.1683   28.3982   44.7931 H   0  0  0  0  0  0  0  0  0  0  0  0
   59.0463   28.2075   43.2656 H   0  0  0  0  0  0  0  0  0  0  0  0
   60.9350   28.2828   44.5139 H   0  0  0  0  0  0  0  0  0  0  0  0
   60.5450   30.0726   44.7042 H   0  0  0  0  0  0  0  0  0  0  0  0
   60.4305   25.6503   46.2922 H   0  0  0  0  0  0  0  0  0  0  0  0
   59.1952   23.6347   45.6344 H   0  0  0  0  0  0  0  0  0  0  0  0
   55.4965   25.6084   46.4066 H   0  0  0  0  0  0  0  0  0  0  0  0
   56.7395   27.6351   47.0697 H   0  0  0  0  0  0  0  0  0  0  0  0
   59.3780   27.8140   49.2800 H   0  0  0  0  0  0  0  0  0  0  0  0
   60.7627   29.7713   50.5716 H   0  0  0  0  0  0  0  0  0  0  0  0
   62.1767   31.7664   50.2496 H   0  0  0  0  0  0  0  0  0  0  0  0
   62.7062   32.5154   47.9174 H   0  0  0  0  0  0  0  0  0  0  0  0
   61.7924   31.2272   46.0240 H   0  0  0  0  0  0  0  0  0  0  0  0
   58.1104   31.4241   47.6295 H   0  0  0  0  0  0  0  0  0  0  0  0
  1  2  1  0
  2  3  1  0
  3  4  2  0
  4  5  1  0
  5  6  2  0
  6  7  1  0
  7  8  1  0
  8  9  2  0
  8 10  2  0
  8 11  1  0
 11 12  1  0
 12 13  1  0
 13 14  1  0
 14 15  2  0
 15 16  1  0
 16 17  2  0
 17 18  1  0
 18 19  2  0
 19 20  1  0
 19 21  1  0
 21 22  2  0
 15 23  1  0
 23 24  1  0
 24 25  2  0
 25 26  1  0
 26 27  2  0
 27 28  1  0
 28 29  2  0
  7 30  2  0
 30  3  1  0
 29 14  1  0
 22 16  1  0
 29 24  1  0
  1 31  1  0
  1 32  1  0
  1 33  1  0
  4 34  1  0
  5 35  1  0
  6 36  1  0
 11 37  1  0
 12 38  1  0
 12 39  1  0
 13 40  1  0
 13 41  1  0
 17 42  1  0
 18 43  1  0
 21 44  1  0
 22 45  1  0
 23 46  1  0
 25 47  1  0
 26 48  1  0
 27 49  1  0
 28 50  1  0
 30 51  1  0
M  END
>  <smiles>  (80) 
COc1cccc(S(=O)(=O)NCCc2c(-c3ccc(F)cc3)[nH]c3ccccc23)c1

>  <score_type>  (80) 
oracle

>  <origin>  (80) 
adg

>  <m_score__min__energy>  (80) 
-9.1799999999999997

>  <m_primary>  (80) 
energy

$$$$
80:0
     RDKit          3D

 44 46  0  0  0  0  0  0  0  0999 V2000
   56.9850   29.0700   43.0160 N   0  0  0  0  0  0  0  0  0  0  0  0
   56.7210   29.5930   44.6300 S   0  0  0  0  0  0  0  0  0  0  0  0
   55.2550   29.7350   44.8700 O   0  0  0  0  0  0  0  0  0  0  0  0
   57.3020   28.5620   45.5570 O   0  0  0  0  0  0  0  0  0  0  0  0
   57.4890   31.1080   44.9930 C   0  0  0  0  0  0  0  0  0  0  0  0
   57.4050   32.1190   44.0310 C   0  0  0  0  0  0  0  0  0  0  0  0
   58.0100   33.3530   44.2820 C   0  0  0  0  0  0  0  0  0  0  0  0
   58.6780   33.5400   45.4820 C   0  0  0  0  0  0  0  0  0  0  0  0
   58.7390   32.5200   46.4040 C   0  0  0  0  0  0  0  0  0  0  0  0
   59.4430   32.7870   47.6140 N   0  0  0  0  0  0  0  0  0  0  0  0
   60.8450   32.9930   47.5070 C   0  0  0  0  0  0  0  0  0  0  0  0
   61.3410   32.9200   46.3520 O   0  0  0  0  0  0  0  0  0  0  0  0
   61.6700   33.2730   48.6740 C   0  0  0  0  0  0  0  0  0  0  0  0
   63.0140   33.5640   48.6040 C   0  0  0  0  0  0  0  0  0  0  0  0
   63.7090   33.8150   49.7650 C   0  0  0  0  0  0  0  0  0  0  0  0
   63.0970   33.7840   51.0080 C   0  0  0  0  0  0  0  0  0  0  0  0
   63.7250   34.0130   52.0750 O   0  0  0  0  0  0  0  0  0  0  0  0
   61.7800   33.4970   51.0600 N   0  0  0  0  0  0  0  0  0  0  0  0
   61.0370   33.4380   52.3100 C   0  0  0  0  0  0  0  0  0  0  0  0
   59.7370   32.7110   52.1450 C   0  0  0  0  0  0  0  0  0  0  0  0
   59.7320   31.3410   51.9740 C   0  0  0  0  0  0  0  0  0  0  0  0
   58.5430   30.6210   51.8170 C   0  0  0  0  0  0  0  0  0  0  0  0
   57.3380   31.2990   51.8330 C   0  0  0  0  0  0  0  0  0  0  0  0
   57.3520   32.6680   52.0040 C   0  0  0  0  0  0  0  0  0  0  0  0
   58.5280   33.3840   52.1600 C   0  0  0  0  0  0  0  0  0  0  0  0
   61.0790   33.2460   49.9210 C   0  0  0  0  0  0  0  0  0  0  0  0
   58.1430   31.2830   46.1720 C   0  0  0  0  0  0  0  0  0  0  0  0
   57.9330   29.2990   42.6640 H   0  0  0  0  0  0  0  0  0  0  0  0
   56.6850   28.0930   42.8460 H   0  0  0  0  0  0  0  0  0  0  0  0
   56.8684   31.9447   43.0867 H   0  0  0  0  0  0  0  0  0  0  0  0
   57.9571   34.1629   43.5395 H   0  0  0  0  0  0  0  0  0  0  0  0
   59.1600   34.5049   45.6977 H   0  0  0  0  0  0  0  0  0  0  0  0
   58.9540   32.8280   48.5140 H   0  0  0  0  0  0  0  0  0  0  0  0
   63.5264   33.5955   47.6311 H   0  0  0  0  0  0  0  0  0  0  0  0
   64.7825   34.0472   49.7045 H   0  0  0  0  0  0  0  0  0  0  0  0
   61.6454   32.9151   53.0626 H   0  0  0  0  0  0  0  0  0  0  0  0
   60.8174   34.4676   52.6288 H   0  0  0  0  0  0  0  0  0  0  0  0
   60.6899   30.8005   51.9608 H   0  0  0  0  0  0  0  0  0  0  0  0
   58.5663   29.5295   51.6825 H   0  0  0  0  0  0  0  0  0  0  0  0
   56.3879   30.7581   51.7119 H   0  0  0  0  0  0  0  0  0  0  0  0
   56.3952   33.2106   52.0170 H   0  0  0  0  0  0  0  0  0  0  0  0
   58.5008   34.4754   52.2943 H   0  0  0  0  0  0  0  0  0  0  0  0
   60.0064   33.0140   49.9966 H   0  0  0  0  0  0  0  0  0  0  0  0
   58.1994   30.4755   46.9168 H   0  0  0  0  0  0  0  0  0  0  0  0
  1  2  1  0
  2  3  2  0
  2  4  2  0
  2  5  1  0
  5  6  2  0
  6  7  1  0
  7  8  2  0
  8  9  1  0
  9 10  1  0
 10 11  1  0
 11 12  2  0
 11 13  1  0
 13 14  1  0
 14 15  2  0
 15 16  1  0
 16 17  2  0
 16 18  1  0
 18 19  1  0
 19 20  1  0
 20 21  2  0
 21 22  1  0
 22 23  2  0
 23 24  1  0
 24 25  2  0
 18 26  1  0
  9 27  2  0
 27  5  1  0
 26 13  2  0
 25 20  1  0
  1 28  1  0
  1 29  1  0
  6 30  1  0
  7 31  1  0
  8 32  1  0
 10 33  1  0
 14 34  1  0
 15 35  1  0
 19 36  1  0
 19 37  1  0
 21 38  1  0
 22 39  1  0
 23 40  1  0
 24 41  1  0
 25 42  1  0
 26 43  1  0
 27 44  1  0
M  END
>  <smiles>  (81) 
NS(=O)(=O)c1cccc(NC(=O)c2ccc(=O)n(Cc3ccccc3)c2)c1

>  <score_type>  (81) 
oracle

>  <origin>  (81) 
adg

>  <m_score__min__energy>  (81) 
-9.3599999999999994

>  <m_primary>  (81) 
energy

$$$$
81:0
     RDKit          3D

 50 54  0  0  1  0  0  0  0  0999 V2000
   56.8090   30.3080   42.9930 S   0  0  0  0  0  0  0  0  0  0  0  0
   57.2490   29.6080   44.4630 C   0  0  0  0  0  0  0  0  0  0  0  0
   57.7470   30.4890   45.4170 N   0  0  0  0  0  0  0  0  0  0  0  0
   57.9350   31.8830   45.3950 C   0  0  0  0  0  0  0  0  0  0  0  0
   57.1130   32.8230   44.8370 C   0  0  0  0  0  0  0  0  0  0  0  0
   57.3810   34.2000   44.9050 C   0  0  0  0  0  0  0  0  0  0  0  0
   58.5020   34.6460   45.5480 C   0  0  0  0  0  0  0  0  0  0  0  0
   59.3510   33.7360   46.1200 C   0  0  0  0  0  0  0  0  0  0  0  0
   60.5130   34.1940   46.8000 N   0  0  0  0  0  0  0  0  0  0  0  0
   60.6630   33.9780   48.0460 C   0  0  0  0  0  0  0  0  0  0  0  0
   59.6400   34.0940   48.9840 C   0  0  0  0  0  0  0  0  0  0  0  0
   59.8810   33.8590   50.3140 C   0  0  0  0  0  0  0  0  0  0  0  0
   61.0880   33.5140   50.7780 N   0  0  0  0  0  0  0  0  0  0  0  0
   62.1080   33.3900   49.9080 C   0  0  0  0  0  0  0  0  0  0  0  0
   63.3630   33.0370   50.3690 C   0  0  0  0  0  0  0  0  0  0  0  0
   64.4270   32.9080   49.4800 C   0  0  0  0  0  0  0  0  0  0  0  0
   66.0120   32.4500   50.1220 Cl  0  0  0  0  0  0  0  0  0  0  0  0
   64.2480   33.1300   48.1160 C   0  0  0  0  0  0  0  0  0  0  0  0
   62.9860   33.4870   47.6440 C   0  0  0  0  0  0  0  0  0  0  0  0
   61.9210   33.6160   48.5410 C   0  0  0  0  0  0  0  0  0  0  0  0
   59.0710   32.3920   46.0430 C   0  0  0  0  0  0  0  0  0  0  0  0
   57.0450   28.2310   44.5080 N   0  0  0  0  0  0  0  0  0  0  0  0
   57.2120   27.2310   45.4540 C   0  0  0  0  0  0  0  0  0  0  0  0
   56.4430   26.1320   45.6850 C   0  0  0  0  0  0  0  0  0  0  0  0
   56.6920   25.1930   46.6830 C   0  0  0  0  0  0  0  0  0  0  0  0
   57.7730   25.3420   47.5130 C   0  0  0  0  0  0  0  0  0  0  0  0
   58.5780   26.4340   47.3180 C   0  0  0  0  0  0  0  0  0  0  0  0
   59.6690   26.5650   48.1590 C   0  0  0  0  0  0  0  0  0  0  0  0
   60.5340   27.6280   48.0310 C   0  0  0  0  0  0  0  0  0  0  0  0
   60.2520   28.5490   47.0240 C   0  0  0  0  0  0  0  0  0  0  0  0
   59.1790   28.3830   46.2270 N   0  0  0  0  0  0  0  0  0  0  0  0
   58.3200   27.3550   46.3290 C   0  0  0  0  0  0  0  0  0  0  0  0
   58.0700   30.0250   46.3280 H   0  0  0  0  0  0  0  0  0  0  0  0
   56.2055   32.4870   44.3139 H   0  0  0  0  0  0  0  0  0  0  0  0
   56.6896   34.9190   44.4413 H   0  0  0  0  0  0  0  0  0  0  0  0
   58.7195   35.7228   45.6053 H   0  0  0  0  0  0  0  0  0  0  0  0
   58.6291   34.3768   48.6553 H   0  0  0  0  0  0  0  0  0  0  0  0
   59.0494   33.9580   51.0271 H   0  0  0  0  0  0  0  0  0  0  0  0
   61.2210   33.3490   51.8020 H   0  0  0  0  0  0  0  0  0  0  0  0
   63.5215   32.8573   51.4426 H   0  0  0  0  0  0  0  0  0  0  0  0
   65.0930   33.0247   47.4197 H   0  0  0  0  0  0  0  0  0  0  0  0
   62.8285   33.6665   46.5702 H   0  0  0  0  0  0  0  0  0  0  0  0
   59.7698   31.6830   46.5110 H   0  0  0  0  0  0  0  0  0  0  0  0
   56.6380   27.8530   43.5560 H   0  0  0  0  0  0  0  0  0  0  0  0
   55.5658   25.9749   45.0401 H   0  0  0  0  0  0  0  0  0  0  0  0
   56.0203   24.3305   46.8055 H   0  0  0  0  0  0  0  0  0  0  0  0
   57.9866   24.6113   48.3070 H   0  0  0  0  0  0  0  0  0  0  0  0
   59.8472   25.8105   48.9393 H   0  0  0  0  0  0  0  0  0  0  0  0
   61.4057   27.7448   48.6917 H   0  0  0  0  0  0  0  0  0  0  0  0
   60.9106   29.4180   46.8789 H   0  0  0  0  0  0  0  0  0  0  0  0
  1  2  2  0
  2  3  1  0
  3  4  1  0
  4  5  2  0
  5  6  1  0
  6  7  2  0
  7  8  1  0
  8  9  1  0
  9 10  2  0
 10 11  1  0
 11 12  2  0
 12 13  1  0
 13 14  1  0
 14 15  2  0
 15 16  1  0
 16 17  1  0
 16 18  2  0
 18 19  1  0
 19 20  2  0
  8 21  2  0
  2 22  1  0
 22 23  1  0
 23 24  2  0
 24 25  1  0
 25 26  2  0
 26 27  1  0
 27 28  2  0
 28 29  1  0
 29 30  2  0
 30 31  1  0
 31 32  2  0
 21  4  1  0
 32 23  1  0
 20 10  1  0
 32 27  1  0
 20 14  1  0
  3 33  1  0
  5 34  1  0
  6 35  1  0
  7 36  1  0
 11 37  1  0
 12 38  1  0
 13 39  1  0
 15 40  1  0
 18 41  1  0
 19 42  1  0
 21 43  1  0
 22 44  1  0
 24 45  1  0
 25 46  1  0
 26 47  1  0
 28 48  1  0
 29 49  1  0
 30 50  1  0
M  END
>  <smiles>  (82) 
S=C(Nc1cccc(N=c2cc[nH]c3cc(Cl)ccc23)c1)Nc1cccc2cccnc12

>  <score_type>  (82) 
oracle

>  <origin>  (82) 
adg

>  <m_score__min__energy>  (82) 
-10.640000000000001

>  <m_primary>  (82) 
energy

$$$$
82:0
     RDKit          3D

 53 55  0  0  1  0  0  0  0  0999 V2000
   55.5630   28.6240   53.9940 C   0  0  0  0  0  0  0  0  0  0  0  0
   55.5250   30.1400   53.8500 C   0  0  0  0  0  0  0  0  0  0  0  0
   54.5440   30.4830   52.7470 C   0  0  0  0  0  0  0  0  0  0  0  0
   56.7900   30.6800   53.6360 O   0  0  0  0  0  0  0  0  0  0  0  0
   57.4570   30.8330   52.4430 C   0  0  0  0  0  0  0  0  0  0  0  0
   58.1130   29.8360   51.7650 C   0  0  0  0  0  0  0  0  0  0  0  0
   58.7730   30.0350   50.5650 C   0  0  0  0  0  0  0  0  0  0  0  0
   58.7670   31.3070   50.0260 C   0  0  0  0  0  0  0  0  0  0  0  0
   59.4560   31.4830   48.7890 N   0  0  0  0  0  0  0  0  0  0  0  0
   58.9140   31.2870   47.6490 C   0  0  0  0  0  0  0  0  0  0  0  0
   58.5260   30.0260   47.3600 N   0  0  0  0  0  0  0  0  0  0  0  0
   57.9480   29.7330   46.1800 C   0  0  0  0  0  0  0  0  0  0  0  0
   57.5760   28.5800   45.8770 O   0  0  0  0  0  0  0  0  0  0  0  0
   57.7740   30.7400   45.3040 N   0  0  0  0  0  0  0  0  0  0  0  0
   57.1520   30.4350   44.0300 C   0  0  0  0  0  0  0  0  0  0  0  0
   55.6440   30.3950   44.1400 C   0  0  0  0  0  0  0  0  0  0  0  0
   55.2670   29.4630   45.1360 O   0  0  0  0  0  0  0  0  0  0  0  0
   58.1650   31.9930   45.6040 C   0  0  0  0  0  0  0  0  0  0  0  0
   57.9610   32.8680   44.7240 O   0  0  0  0  0  0  0  0  0  0  0  0
   58.7480   32.3140   46.7830 N   0  0  0  0  0  0  0  0  0  0  0  0
   59.1620   33.6660   47.0890 C   0  0  0  0  0  0  0  0  0  0  0  0
   60.6080   33.7400   47.3920 C   0  0  0  0  0  0  0  0  0  0  0  0
   61.5980   33.4730   46.4650 C   0  0  0  0  0  0  0  0  0  0  0  0
   62.9450   33.5450   46.7560 C   0  0  0  0  0  0  0  0  0  0  0  0
   63.3680   33.8980   48.0220 C   0  0  0  0  0  0  0  0  0  0  0  0
   62.4170   34.1670   48.9580 C   0  0  0  0  0  0  0  0  0  0  0  0
   61.0580   34.0940   48.6660 C   0  0  0  0  0  0  0  0  0  0  0  0
   58.1190   32.3380   50.6770 C   0  0  0  0  0  0  0  0  0  0  0  0
   57.4710   32.0920   51.8770 C   0  0  0  0  0  0  0  0  0  0  0  0
   56.8410   33.1220   52.4970 F   0  0  0  0  0  0  0  0  0  0  0  0
   55.5697   28.3571   55.0611 H   0  0  0  0  0  0  0  0  0  0  0  0
   54.6755   28.1876   53.5124 H   0  0  0  0  0  0  0  0  0  0  0  0
   56.4712   28.2326   53.5124 H   0  0  0  0  0  0  0  0  0  0  0  0
   55.1826   30.5954   54.7909 H   0  0  0  0  0  0  0  0  0  0  0  0
   53.5941   30.8151   53.1913 H   0  0  0  0  0  0  0  0  0  0  0  0
   54.9593   31.2892   52.1245 H   0  0  0  0  0  0  0  0  0  0  0  0
   54.3665   29.5936   52.1245 H   0  0  0  0  0  0  0  0  0  0  0  0
   58.1142   28.8250   52.1985 H   0  0  0  0  0  0  0  0  0  0  0  0
   59.2865   29.2060   50.0561 H   0  0  0  0  0  0  0  0  0  0  0  0
   58.6710   29.2660   48.0520 H   0  0  0  0  0  0  0  0  0  0  0  0
   57.4360   31.2077   43.3004 H   0  0  0  0  0  0  0  0  0  0  0  0
   57.4991   29.4423   43.7074 H   0  0  0  0  0  0  0  0  0  0  0  0
   55.2698   31.3931   44.4117 H   0  0  0  0  0  0  0  0  0  0  0  0
   55.2143   30.0921   43.1737 H   0  0  0  0  0  0  0  0  0  0  0  0
   55.6870   29.7240   45.9860 H   0  0  0  0  0  0  0  0  0  0  0  0
   58.9457   34.3096   46.2235 H   0  0  0  0  0  0  0  0  0  0  0  0
   58.6077   34.0015   47.9780 H   0  0  0  0  0  0  0  0  0  0  0  0
   61.2974   33.1893   45.4456 H   0  0  0  0  0  0  0  0  0  0  0  0
   63.6860   33.3199   45.9748 H   0  0  0  0  0  0  0  0  0  0  0  0
   64.4387   33.9598   48.2663 H   0  0  0  0  0  0  0  0  0  0  0  0
   62.7312   34.4500   49.9735 H   0  0  0  0  0  0  0  0  0  0  0  0
   60.3242   34.3195   49.4538 H   0  0  0  0  0  0  0  0  0  0  0  0
   58.1172   33.3497   50.2452 H   0  0  0  0  0  0  0  0  0  0  0  0
  1  2  1  0
  2  3  1  0
  2  4  1  0
  4  5  1  0
  5  6  2  0
  6  7  1  0
  7  8  2  0
  8  9  1  0
  9 10  2  0
 10 11  1  0
 11 12  1  0
 12 13  2  0
 12 14  1  0
 14 15  1  0
 15 16  1  0
 16 17  1  0
 14 18  1  0
 18 19  2  0
 18 20  1  0
 20 21  1  0
 21 22  1  0
 22 23  2  0
 23 24  1  0
 24 25  2  0
 25 26  1  0
 26 27  2  0
  8 28  1  0
 28 29  2  0
 29 30  1  0
 29  5  1  0
 20 10  1  0
 27 22  1  0
  1 31  1  0
  1 32  1  0
  1 33  1  0
  2 34  1  0
  3 35  1  0
  3 36  1  0
  3 37  1  0
  6 38  1  0
  7 39  1  0
 11 40  1  0
 15 41  1  0
 15 42  1  0
 16 43  1  0
 16 44  1  0
 17 45  1  0
 21 46  1  0
 21 47  1  0
 23 48  1  0
 24 49  1  0
 25 50  1  0
 26 51  1  0
 27 52  1  0
 28 53  1  0
M  END
>  <smiles>  (83) 
CC(C)Oc1ccc(N=c2[nH]c(=O)n(CCO)c(=O)n2Cc2ccccc2)cc1F

>  <score_type>  (83) 
oracle

>  <origin>  (83) 
adg

>  <m_score__min__energy>  (83) 
-8.0800000000000001

>  <m_primary>  (83) 
energy

$$$$
83:0
     RDKit          3D

 40 42  0  0  0  0  0  0  0  0999 V2000
   67.1750   28.8100   51.2500 C   0  0  0  0  0  0  0  0  0  0  0  0
   66.7570   30.3220   52.0510 S   0  0  0  0  0  0  0  0  0  0  0  0
   67.8970   31.2780   52.1100 O   0  0  0  0  0  0  0  0  0  0  0  0
   66.2920   30.0210   53.4680 O   0  0  0  0  0  0  0  0  0  0  0  0
   65.4390   31.0700   51.2330 N   0  0  0  0  0  0  0  0  0  0  0  0
   65.6020   32.1240   50.2920 C   0  0  0  0  0  0  0  0  0  0  0  0
   66.7960   32.4960   50.0780 O   0  0  0  0  0  0  0  0  0  0  0  0
   64.4680   32.7420   49.6130 C   0  0  0  0  0  0  0  0  0  0  0  0
   64.4700   33.1250   48.3040 C   0  0  0  0  0  0  0  0  0  0  0  0
   63.3600   33.7020   47.7350 C   0  0  0  0  0  0  0  0  0  0  0  0
   62.1840   33.9280   48.4530 C   0  0  0  0  0  0  0  0  0  0  0  0
   61.1460   34.5070   47.7870 O   0  0  0  0  0  0  0  0  0  0  0  0
   60.1530   33.8660   47.0730 C   0  0  0  0  0  0  0  0  0  0  0  0
   59.1350   34.6350   46.5230 C   0  0  0  0  0  0  0  0  0  0  0  0
   58.1120   34.0480   45.7970 C   0  0  0  0  0  0  0  0  0  0  0  0
   58.0620   32.6680   45.5920 C   0  0  0  0  0  0  0  0  0  0  0  0
   57.0440   32.0850   44.8700 C   0  0  0  0  0  0  0  0  0  0  0  0
   57.0380   30.7220   44.6940 C   0  0  0  0  0  0  0  0  0  0  0  0
   55.9930   30.1200   43.9540 C   0  0  0  0  0  0  0  0  0  0  0  0
   55.1320   29.6310   43.3540 N   0  0  0  0  0  0  0  0  0  0  0  0
   58.0500   29.9320   45.2390 C   0  0  0  0  0  0  0  0  0  0  0  0
   59.0690   30.5340   45.9630 C   0  0  0  0  0  0  0  0  0  0  0  0
   59.0810   31.9160   46.1450 C   0  0  0  0  0  0  0  0  0  0  0  0
   60.1010   32.5050   46.8690 C   0  0  0  0  0  0  0  0  0  0  0  0
   62.1840   33.5420   49.7730 C   0  0  0  0  0  0  0  0  0  0  0  0
   61.0880   33.7340   50.5060 F   0  0  0  0  0  0  0  0  0  0  0  0
   63.3160   32.9550   50.3440 C   0  0  0  0  0  0  0  0  0  0  0  0
   67.3877   28.0407   52.0069 H   0  0  0  0  0  0  0  0  0  0  0  0
   66.3335   28.4832   50.6214 H   0  0  0  0  0  0  0  0  0  0  0  0
   68.0649   28.9619   50.6214 H   0  0  0  0  0  0  0  0  0  0  0  0
   64.4790   30.7020   51.4680 H   0  0  0  0  0  0  0  0  0  0  0  0
   65.3728   32.9699   47.6951 H   0  0  0  0  0  0  0  0  0  0  0  0
   63.3995   33.9964   46.6759 H   0  0  0  0  0  0  0  0  0  0  0  0
   59.1416   35.7256   46.6662 H   0  0  0  0  0  0  0  0  0  0  0  0
   57.3210   34.6835   45.3723 H   0  0  0  0  0  0  0  0  0  0  0  0
   56.2438   32.7043   44.4386 H   0  0  0  0  0  0  0  0  0  0  0  0
   58.0403   28.8414   45.0961 H   0  0  0  0  0  0  0  0  0  0  0  0
   59.8711   29.9179   46.3954 H   0  0  0  0  0  0  0  0  0  0  0  0
   60.8922   31.8695   47.2935 H   0  0  0  0  0  0  0  0  0  0  0  0
   63.2889   32.6551   51.4020 H   0  0  0  0  0  0  0  0  0  0  0  0
  1  2  1  0
  2  3  2  0
  2  4  2  0
  2  5  1  0
  5  6  1  0
  6  7  2  0
  6  8  1  0
  8  9  2  0
  9 10  1  0
 10 11  2  0
 11 12  1  0
 12 13  1  0
 13 14  2  0
 14 15  1  0
 15 16  2  0
 16 17  1  0
 17 18  2  0
 18 19  1  0
 19 20  3  0
 18 21  1  0
 21 22  2  0
 22 23  1  0
 23 24  2  0
 11 25  1  0
 25 26  1  0
 25 27  2  0
 27  8  1  0
 24 13  1  0
 23 16  1  0
  1 28  1  0
  1 29  1  0
  1 30  1  0
  5 31  1  0
  9 32  1  0
 10 33  1  0
 14 34  1  0
 15 35  1  0
 17 36  1  0
 21 37  1  0
 22 38  1  0
 24 39  1  0
 27 40  1  0
M  END
>  <smiles>  (84) 
CS(=O)(=O)NC(=O)c1ccc(Oc2ccc3cc(C#N)ccc3c2)c(F)c1

>  <score_type>  (84) 
oracle

>  <origin>  (84) 
adg

>  <m_score__min__energy>  (84) 
-7.8499999999999996

>  <m_primary>  (84) 
energy

$$$$
84:0
     RDKit          3D

 43 44  0  0  0  0  0  0  0  0999 V2000
   60.5130   33.8320   49.9080 C   0  0  0  0  0  0  0  0  0  0  0  0
   61.5120   33.7240   48.8160 C   0  0  0  0  0  0  0  0  0  0  0  0
   62.8450   33.4120   49.0820 C   0  0  0  0  0  0  0  0  0  0  0  0
   63.7790   33.3090   48.0590 C   0  0  0  0  0  0  0  0  0  0  0  0
   63.4280   33.5090   46.7400 C   0  0  0  0  0  0  0  0  0  0  0  0
   62.0990   33.8210   46.4740 C   0  0  0  0  0  0  0  0  0  0  0  0
   61.1620   33.9240   47.5000 C   0  0  0  0  0  0  0  0  0  0  0  0
   59.7800   34.2610   47.0970 C   0  0  0  0  0  0  0  0  0  0  0  0
   59.4310   33.7140   45.7950 N   0  0  0  0  0  0  0  0  0  0  0  0
   58.4530   34.5890   45.1740 C   0  0  0  0  0  0  0  0  0  0  0  0
   57.1610   33.8480   44.9310 C   0  0  0  0  0  0  0  0  0  0  0  0
   57.3990   32.4990   44.2900 C   0  0  0  0  0  0  0  0  0  0  0  0
   57.3730   31.4530   45.2370 O   0  0  0  0  0  0  0  0  0  0  0  0
   57.8130   30.1650   44.9770 C   0  0  0  0  0  0  0  0  0  0  0  0
   57.2990   29.3990   43.9400 C   0  0  0  0  0  0  0  0  0  0  0  0
   56.2460   29.9360   43.0620 C   0  0  0  0  0  0  0  0  0  0  0  0
   57.8030   28.1190   43.7570 C   0  0  0  0  0  0  0  0  0  0  0  0
   58.7920   27.5980   44.5730 C   0  0  0  0  0  0  0  0  0  0  0  0
   59.2890   28.3660   45.5930 C   0  0  0  0  0  0  0  0  0  0  0  0
   58.8000   29.6410   45.7890 C   0  0  0  0  0  0  0  0  0  0  0  0
   59.5260   30.6670   47.2200 Br  0  0  0  0  0  0  0  0  0  0  0  0
   61.0249   33.7767   50.8801 H   0  0  0  0  0  0  0  0  0  0  0  0
   59.9833   34.7926   49.8267 H   0  0  0  0  0  0  0  0  0  0  0  0
   59.7903   33.0068   49.8267 H   0  0  0  0  0  0  0  0  0  0  0  0
   63.1628   33.2443   50.1217 H   0  0  0  0  0  0  0  0  0  0  0  0
   64.8221   33.0624   48.3062 H   0  0  0  0  0  0  0  0  0  0  0  0
   64.1691   33.4251   45.9315 H   0  0  0  0  0  0  0  0  0  0  0  0
   61.7818   33.9896   45.4343 H   0  0  0  0  0  0  0  0  0  0  0  0
   59.0850   33.8565   47.8475 H   0  0  0  0  0  0  0  0  0  0  0  0
   59.7090   35.3566   47.0295 H   0  0  0  0  0  0  0  0  0  0  0  0
   58.9380   32.8130   45.9670 H   0  0  0  0  0  0  0  0  0  0  0  0
   58.2602   35.4451   45.8372 H   0  0  0  0  0  0  0  0  0  0  0  0
   58.8497   34.9388   44.2095 H   0  0  0  0  0  0  0  0  0  0  0  0
   56.6493   33.6996   45.8933 H   0  0  0  0  0  0  0  0  0  0  0  0
   56.5462   34.4489   44.2447 H   0  0  0  0  0  0  0  0  0  0  0  0
   56.6150   32.3187   43.5398 H   0  0  0  0  0  0  0  0  0  0  0  0
   58.3965   32.5137   43.8265 H   0  0  0  0  0  0  0  0  0  0  0  0
   55.4329   30.3507   43.6759 H   0  0  0  0  0  0  0  0  0  0  0  0
   56.6673   30.7294   42.4271 H   0  0  0  0  0  0  0  0  0  0  0  0
   55.8512   29.1291   42.4271 H   0  0  0  0  0  0  0  0  0  0  0  0
   57.4047   27.5003   42.9393 H   0  0  0  0  0  0  0  0  0  0  0  0
   59.1742   26.5803   44.4048 H   0  0  0  0  0  0  0  0  0  0  0  0
   60.0742   27.9678   46.2525 H   0  0  0  0  0  0  0  0  0  0  0  0
  1  2  1  0
  2  3  2  0
  3  4  1  0
  4  5  2  0
  5  6  1  0
  6  7  2  0
  7  8  1  0
  8  9  1  0
  9 10  1  0
 10 11  1  0
 11 12  1  0
 12 13  1  0
 13 14  1  0
 14 15  2  0
 15 16  1  0
 15 17  1  0
 17 18  2  0
 18 19  1  0
 19 20  2  0
 20 21  1  0
  7  2  1  0
 20 14  1  0
  1 22  1  0
  1 23  1  0
  1 24  1  0
  3 25  1  0
  4 26  1  0
  5 27  1  0
  6 28  1  0
  8 29  1  0
  8 30  1  0
  9 31  1  0
 10 32  1  0
 10 33  1  0
 11 34  1  0
 11 35  1  0
 12 36  1  0
 12 37  1  0
 16 38  1  0
 16 39  1  0
 16 40  1  0
 17 41  1  0
 18 42  1  0
 19 43  1  0
M  END
>  <smiles>  (85) 
Cc1ccccc1CNCCCOc1c(C)cccc1Br

>  <score_type>  (85) 
oracle

>  <origin>  (85) 
adg

>  <m_score__min__energy>  (85) 
-7.6100000000000003

>  <m_primary>  (85) 
energy

$$$$
85:0
     RDKit          3D

 21 22  0  0  0  0  0  0  0  0999 V2000
   56.6000   26.3120   45.8830 O   0  0  0  0  0  0  0  0  0  0  0  0
   56.9440   27.4960   45.7210 C   0  0  0  0  0  0  0  0  0  0  0  0
   56.1130   28.3880   45.1810 N   0  0  0  0  0  0  0  0  0  0  0  0
   56.4820   29.6740   45.0030 C   0  0  0  0  0  0  0  0  0  0  0  0
   55.6860   30.4780   44.4990 O   0  0  0  0  0  0  0  0  0  0  0  0
   57.7090   30.1020   45.3670 N   0  0  0  0  0  0  0  0  0  0  0  0
   58.0700   31.4800   45.1620 C   0  0  0  0  0  0  0  0  0  0  0  0
   59.1000   32.0590   45.6740 N   0  0  0  0  0  0  0  0  0  0  0  0
   59.1550   33.4430   45.2580 C   0  0  0  0  0  0  0  0  0  0  0  0
   57.7100   33.7170   44.9040 C   0  0  0  0  0  0  0  0  0  0  0  0
   57.3290   32.4130   44.3550 N   0  0  0  0  0  0  0  0  0  0  0  0
   58.5620   29.2150   45.9140 C   0  0  0  0  0  0  0  0  0  0  0  0
   58.1960   27.9180   46.0950 C   0  0  0  0  0  0  0  0  0  0  0  0
   59.4690   26.7270   46.8770 Br  0  0  0  0  0  0  0  0  0  0  0  0
   55.1500   28.1000   44.8840 H   0  0  0  0  0  0  0  0  0  0  0  0
   59.4974   34.0939   46.0760 H   0  0  0  0  0  0  0  0  0  0  0  0
   59.8593   33.6332   44.4347 H   0  0  0  0  0  0  0  0  0  0  0  0
   57.1144   33.9755   45.7920 H   0  0  0  0  0  0  0  0  0  0  0  0
   57.5534   34.5683   44.2252 H   0  0  0  0  0  0  0  0  0  0  0  0
   56.6780   32.1980   43.5680 H   0  0  0  0  0  0  0  0  0  0  0  0
   59.5668   29.5436   46.2180 H   0  0  0  0  0  0  0  0  0  0  0  0
  1  2  2  0
  2  3  1  0
  3  4  1  0
  4  5  2  0
  4  6  1  0
  6  7  1  0
  7  8  2  0
  8  9  1  0
  9 10  1  0
 10 11  1  0
  6 12  1  0
 12 13  2  0
 13 14  1  0
 13  2  1  0
 11  7  1  0
  3 15  1  0
  9 16  1  0
  9 17  1  0
 10 18  1  0
 10 19  1  0
 11 20  1  0
 12 21  1  0
M  END
>  <smiles>  (86) 
O=c1[nH]c(=O)n(C2=NCCN2)cc1Br

>  <score_type>  (86) 
oracle

>  <origin>  (86) 
adg

>  <m_score__min__energy>  (86) 
-5.8600000000000003

>  <m_primary>  (86) 
energy

$$$$
86:0
     RDKit          3D

 43 45  0  0  0  0  0  0  0  0999 V2000
   61.4870   32.8060   47.8720 O   0  0  0  0  0  0  0  0  0  0  0  0
   61.1150   33.8390   48.4680 C   0  0  0  0  0  0  0  0  0  0  0  0
   61.8520   34.2800   49.5950 N   0  0  0  0  0  0  0  0  0  0  0  0
   62.9880   33.5140   49.9900 C   0  0  0  0  0  0  0  0  0  0  0  0
   64.0430   33.4810   49.0860 C   0  0  0  0  0  0  0  0  0  0  0  0
   65.1830   32.7660   49.3800 C   0  0  0  0  0  0  0  0  0  0  0  0
   65.2440   32.0990   50.5750 C   0  0  0  0  0  0  0  0  0  0  0  0
   64.2070   32.1100   51.5050 C   0  0  0  0  0  0  0  0  0  0  0  0
   63.0700   32.8370   51.1820 C   0  0  0  0  0  0  0  0  0  0  0  0
   59.9670   34.5060   47.9690 N   0  0  0  0  0  0  0  0  0  0  0  0
   59.3340   33.9410   46.8280 C   0  0  0  0  0  0  0  0  0  0  0  0
   59.5780   34.3610   45.5390 C   0  0  0  0  0  0  0  0  0  0  0  0
   58.9120   33.7490   44.4880 C   0  0  0  0  0  0  0  0  0  0  0  0
   58.0020   32.7180   44.7370 C   0  0  0  0  0  0  0  0  0  0  0  0
   57.3530   32.1350   43.6120 N   0  0  0  0  0  0  0  0  0  0  0  0
   56.7390   30.5150   43.7280 S   0  0  0  0  0  0  0  0  0  0  0  0
   55.4560   30.4570   44.5180 O   0  0  0  0  0  0  0  0  0  0  0  0
   56.4020   30.0130   42.3540 O   0  0  0  0  0  0  0  0  0  0  0  0
   57.9000   29.4660   44.5060 C   0  0  0  0  0  0  0  0  0  0  0  0
   59.2570   29.6970   44.4930 C   0  0  0  0  0  0  0  0  0  0  0  0
   60.0990   28.7950   45.1450 C   0  0  0  0  0  0  0  0  0  0  0  0
   59.5890   27.6830   45.7990 C   0  0  0  0  0  0  0  0  0  0  0  0
   58.2390   27.4490   45.8150 C   0  0  0  0  0  0  0  0  0  0  0  0
   57.4070   28.3530   45.1620 C   0  0  0  0  0  0  0  0  0  0  0  0
   57.7480   32.2880   46.0230 C   0  0  0  0  0  0  0  0  0  0  0  0
   58.4240   32.9140   47.0530 C   0  0  0  0  0  0  0  0  0  0  0  0
   61.5450   35.1360   50.0900 H   0  0  0  0  0  0  0  0  0  0  0  0
   63.9675   34.0268   48.1340 H   0  0  0  0  0  0  0  0  0  0  0  0
   66.0243   32.7314   48.6722 H   0  0  0  0  0  0  0  0  0  0  0  0
   66.1542   31.5282   50.8111 H   0  0  0  0  0  0  0  0  0  0  0  0
   64.2862   31.5645   52.4569 H   0  0  0  0  0  0  0  0  0  0  0  0
   62.2266   32.8713   51.8873 H   0  0  0  0  0  0  0  0  0  0  0  0
   59.6360   35.3700   48.4490 H   0  0  0  0  0  0  0  0  0  0  0  0
   60.2938   35.1735   45.3454 H   0  0  0  0  0  0  0  0  0  0  0  0
   59.1006   34.0761   43.4548 H   0  0  0  0  0  0  0  0  0  0  0  0
   57.2600   32.7030   42.7300 H   0  0  0  0  0  0  0  0  0  0  0  0
   59.6703   30.5767   43.9780 H   0  0  0  0  0  0  0  0  0  0  0  0
   61.1852   28.9687   45.1402 H   0  0  0  0  0  0  0  0  0  0  0  0
   60.2715   26.9859   46.3071 H   0  0  0  0  0  0  0  0  0  0  0  0
   57.8242   26.5701   46.3302 H   0  0  0  0  0  0  0  0  0  0  0  0
   56.3213   28.1765   45.1678 H   0  0  0  0  0  0  0  0  0  0  0  0
   57.0330   31.4759   46.2214 H   0  0  0  0  0  0  0  0  0  0  0  0
   58.2357   32.5885   48.0867 H   0  0  0  0  0  0  0  0  0  0  0  0
  1  2  2  0
  2  3  1  0
  3  4  1  0
  4  5  2  0
  5  6  1  0
  6  7  2  0
  7  8  1  0
  8  9  2  0
  2 10  1  0
 10 11  1  0
 11 12  2  0
 12 13  1  0
 13 14  2  0
 14 15  1  0
 15 16  1  0
 16 17  2  0
 16 18  2  0
 16 19  1  0
 19 20  2  0
 20 21  1  0
 21 22  2  0
 22 23  1  0
 23 24  2  0
 14 25  1  0
 25 26  2  0
  9  4  1  0
 26 11  1  0
 24 19  1  0
  3 27  1  0
  5 28  1  0
  6 29  1  0
  7 30  1  0
  8 31  1  0
  9 32  1  0
 10 33  1  0
 12 34  1  0
 13 35  1  0
 15 36  1  0
 20 37  1  0
 21 38  1  0
 22 39  1  0
 23 40  1  0
 24 41  1  0
 25 42  1  0
 26 43  1  0
M  END
>  <smiles>  (87) 
O=C(Nc1ccccc1)Nc1ccc(NS(=O)(=O)c2ccccc2)cc1

>  <score_type>  (87) 
oracle

>  <origin>  (87) 
adg

>  <m_score__min__energy>  (87) 
-8.5099999999999998

>  <m_primary>  (87) 
energy

$$$$
87:0
     RDKit          3D

 44 47  0  0  0  0  0  0  0  0999 V2000
   56.9890   31.4960   43.8120 O   0  0  0  0  0  0  0  0  0  0  0  0
   57.7610   31.0600   44.7190 C   0  0  0  0  0  0  0  0  0  0  0  0
   57.8660   29.6170   44.8860 C   0  0  0  0  0  0  0  0  0  0  0  0
   59.0840   29.0060   44.6650 C   0  0  0  0  0  0  0  0  0  0  0  0
   59.1190   27.6370   44.8410 C   0  0  0  0  0  0  0  0  0  0  0  0
   58.0030   26.9860   45.2050 C   0  0  0  0  0  0  0  0  0  0  0  0
   57.7620   25.1840   45.5110 S   0  0  0  0  0  0  0  0  0  0  0  0
   55.9510   25.4450   45.9280 C   0  0  0  0  0  0  0  0  0  0  0  0
   55.2080   24.4900   46.2430 O   0  0  0  0  0  0  0  0  0  0  0  0
   55.7720   26.7620   45.7920 N   0  0  0  0  0  0  0  0  0  0  0  0
   56.7550   27.5300   45.4420 C   0  0  0  0  0  0  0  0  0  0  0  0
   56.7310   28.9380   45.2580 C   0  0  0  0  0  0  0  0  0  0  0  0
   58.4500   32.0170   45.4860 N   0  0  0  0  0  0  0  0  0  0  0  0
   58.2220   33.4260   45.1550 C   0  0  0  0  0  0  0  0  0  0  0  0
   59.3630   34.1720   45.8510 C   0  0  0  0  0  0  0  0  0  0  0  0
   59.1470   34.0770   47.2920 N   0  0  0  0  0  0  0  0  0  0  0  0
   60.1590   34.8300   47.9900 C   0  0  0  0  0  0  0  0  0  0  0  0
   61.4330   34.1130   47.9670 C   0  0  0  0  0  0  0  0  0  0  0  0
   62.2310   33.8740   46.8830 C   0  0  0  0  0  0  0  0  0  0  0  0
   63.4270   33.1740   47.0050 C   0  0  0  0  0  0  0  0  0  0  0  0
   63.8600   32.6900   48.2210 C   0  0  0  0  0  0  0  0  0  0  0  0
   63.0730   32.9210   49.3190 C   0  0  0  0  0  0  0  0  0  0  0  0
   61.8930   33.6120   49.1930 C   0  0  0  0  0  0  0  0  0  0  0  0
   59.1740   32.7040   47.7270 C   0  0  0  0  0  0  0  0  0  0  0  0
   59.3550   31.7260   46.5690 C   0  0  0  0  0  0  0  0  0  0  0  0
   59.9754   29.5770   44.3659 H   0  0  0  0  0  0  0  0  0  0  0  0
   60.0562   27.0829   44.6838 H   0  0  0  0  0  0  0  0  0  0  0  0
   54.7750   27.1360   45.9900 H   0  0  0  0  0  0  0  0  0  0  0  0
   55.7932   29.4911   45.4151 H   0  0  0  0  0  0  0  0  0  0  0  0
   58.2625   33.5813   44.0668 H   0  0  0  0  0  0  0  0  0  0  0  0
   57.2319   33.7776   45.4808 H   0  0  0  0  0  0  0  0  0  0  0  0
   60.3266   33.7123   45.5863 H   0  0  0  0  0  0  0  0  0  0  0  0
   59.3818   35.2253   45.5346 H   0  0  0  0  0  0  0  0  0  0  0  0
   60.2844   35.8079   47.5022 H   0  0  0  0  0  0  0  0  0  0  0  0
   59.8450   34.9671   49.0353 H   0  0  0  0  0  0  0  0  0  0  0  0
   61.9210   34.2427   45.8941 H   0  0  0  0  0  0  0  0  0  0  0  0
   64.0422   33.0025   46.1094 H   0  0  0  0  0  0  0  0  0  0  0  0
   64.8066   32.1363   48.3072 H   0  0  0  0  0  0  0  0  0  0  0  0
   63.3881   32.5511   50.3059 H   0  0  0  0  0  0  0  0  0  0  0  0
   61.2825   33.7796   50.0926 H   0  0  0  0  0  0  0  0  0  0  0  0
   60.0083   32.5739   48.4320 H   0  0  0  0  0  0  0  0  0  0  0  0
   58.2056   32.4849   48.2005 H   0  0  0  0  0  0  0  0  0  0  0  0
   60.3888   31.7965   46.1998 H   0  0  0  0  0  0  0  0  0  0  0  0
   59.1389   30.7120   46.9365 H   0  0  0  0  0  0  0  0  0  0  0  0
  1  2  2  0
  2  3  1  0
  3  4  2  0
  4  5  1  0
  5  6  2  0
  6  7  1  0
  7  8  1  0
  8  9  2  0
  8 10  1  0
 10 11  1  0
 11 12  2  0
  2 13  1  0
 13 14  1  0
 14 15  1  0
 15 16  1  0
 16 17  1  0
 17 18  1  0
 18 19  2  0
 19 20  1  0
 20 21  2  0
 21 22  1  0
 22 23  2  0
 16 24  1  0
 24 25  1  0
 12  3  1  0
 25 13  1  0
 11  6  1  0
 23 18  1  0
  4 26  1  0
  5 27  1  0
 10 28  1  0
 12 29  1  0
 14 30  1  0
 14 31  1  0
 15 32  1  0
 15 33  1  0
 17 34  1  0
 17 35  1  0
 19 36  1  0
 20 37  1  0
 21 38  1  0
 22 39  1  0
 23 40  1  0
 24 41  1  0
 24 42  1  0
 25 43  1  0
 25 44  1  0
M  END
>  <smiles>  (88) 
O=C(c1ccc2sc(=O)[nH]c2c1)N1CCN(Cc2ccccc2)CC1

>  <score_type>  (88) 
oracle

>  <origin>  (88) 
adg

>  <m_score__min__energy>  (88) 
-9.5899999999999999

>  <m_primary>  (88) 
energy

$$$$
88:0
     RDKit          3D

 50 51  0  0  0  0  0  0  0  0999 V2000
   65.4570   32.7700   50.3060 C   0  0  0  0  0  0  0  0  0  0  0  0
   64.2070   33.3850   50.1890 O   0  0  0  0  0  0  0  0  0  0  0  0
   63.4640   33.5250   49.0440 C   0  0  0  0  0  0  0  0  0  0  0  0
   64.0510   33.4000   47.8020 C   0  0  0  0  0  0  0  0  0  0  0  0
   63.2340   33.5540   46.6880 C   0  0  0  0  0  0  0  0  0  0  0  0
   61.8850   33.8230   46.7890 C   0  0  0  0  0  0  0  0  0  0  0  0
   61.3210   33.9450   48.0600 C   0  0  0  0  0  0  0  0  0  0  0  0
   59.8760   34.2310   48.1490 C   0  0  0  0  0  0  0  0  0  0  0  0
   59.0510   33.0690   47.7930 N   0  0  0  0  0  0  0  0  0  0  0  0
   58.7330   32.8760   46.4190 C   0  0  0  0  0  0  0  0  0  0  0  0
   59.1810   33.7090   45.5950 O   0  0  0  0  0  0  0  0  0  0  0  0
   57.9370   31.7820   45.9870 N   0  0  0  0  0  0  0  0  0  0  0  0
   57.5910   31.5510   44.6270 C   0  0  0  0  0  0  0  0  0  0  0  0
   58.0590   32.4620   43.7030 C   0  0  0  0  0  0  0  0  0  0  0  0
   57.7870   32.3490   42.3590 C   0  0  0  0  0  0  0  0  0  0  0  0
   57.0180   31.2760   41.9640 C   0  0  0  0  0  0  0  0  0  0  0  0
   56.5440   30.3510   42.9020 C   0  0  0  0  0  0  0  0  0  0  0  0
   56.8050   30.4530   44.2410 C   0  0  0  0  0  0  0  0  0  0  0  0
   56.4000   29.6180   45.2290 O   0  0  0  0  0  0  0  0  0  0  0  0
   57.0430   28.4420   45.6020 C   0  0  0  0  0  0  0  0  0  0  0  0
   58.5270   28.5310   45.6760 C   0  0  0  0  0  0  0  0  0  0  0  0
   59.0220   29.4540   46.6890 N   0  0  0  0  0  0  0  0  0  0  0  0
   60.3690   29.8850   46.4590 C   0  0  0  0  0  0  0  0  0  0  0  0
   58.9100   28.8570   48.0090 C   0  0  0  0  0  0  0  0  0  0  0  0
   62.1150   33.7940   49.1790 C   0  0  0  0  0  0  0  0  0  0  0  0
   65.7070   32.6470   51.3701 H   0  0  0  0  0  0  0  0  0  0  0  0
   65.4273   31.7837   49.8200 H   0  0  0  0  0  0  0  0  0  0  0  0
   66.2203   33.3954   49.8200 H   0  0  0  0  0  0  0  0  0  0  0  0
   65.1250   33.1865   47.6971 H   0  0  0  0  0  0  0  0  0  0  0  0
   63.6805   33.4576   45.6873 H   0  0  0  0  0  0  0  0  0  0  0  0
   61.2665   33.9390   45.8868 H   0  0  0  0  0  0  0  0  0  0  0  0
   59.6382   34.5301   49.1805 H   0  0  0  0  0  0  0  0  0  0  0  0
   59.6490   35.0347   47.4331 H   0  0  0  0  0  0  0  0  0  0  0  0
   58.7120   32.4100   48.5330 H   0  0  0  0  0  0  0  0  0  0  0  0
   57.5880   31.1080   46.7190 H   0  0  0  0  0  0  0  0  0  0  0  0
   58.6702   33.3072   44.0524 H   0  0  0  0  0  0  0  0  0  0  0  0
   58.1665   33.0824   41.6323 H   0  0  0  0  0  0  0  0  0  0  0  0
   56.7737   31.1447   40.8995 H   0  0  0  0  0  0  0  0  0  0  0  0
   55.9357   29.5060   42.5471 H   0  0  0  0  0  0  0  0  0  0  0  0
   56.6691   28.1489   46.5941 H   0  0  0  0  0  0  0  0  0  0  0  0
   56.8186   27.7068   44.8151 H   0  0  0  0  0  0  0  0  0  0  0  0
   58.9216   27.5290   45.9005 H   0  0  0  0  0  0  0  0  0  0  0  0
   58.8685   28.9168   44.7041 H   0  0  0  0  0  0  0  0  0  0  0  0
   60.8722   30.0460   47.4238 H   0  0  0  0  0  0  0  0  0  0  0  0
   60.9081   29.1145   45.8883 H   0  0  0  0  0  0  0  0  0  0  0  0
   60.3607   30.8253   45.8883 H   0  0  0  0  0  0  0  0  0  0  0  0
   59.0555   29.6323   48.7756 H   0  0  0  0  0  0  0  0  0  0  0  0
   57.9121   28.4090   48.1253 H   0  0  0  0  0  0  0  0  0  0  0  0
   59.6776   28.0778   48.1253 H   0  0  0  0  0  0  0  0  0  0  0  0
   61.6726   33.8881   50.1817 H   0  0  0  0  0  0  0  0  0  0  0  0
  1  2  1  0
  2  3  1  0
  3  4  2  0
  4  5  1  0
  5  6  2  0
  6  7  1  0
  7  8  1  0
  8  9  1  0
  9 10  1  0
 10 11  2  0
 10 12  1  0
 12 13  1  0
 13 14  2  0
 14 15  1  0
 15 16  2  0
 16 17  1  0
 17 18  2  0
 18 19  1  0
 19 20  1  0
 20 21  1  0
 21 22  1  0
 22 23  1  0
 22 24  1  0
  7 25  2  0
 25  3  1  0
 18 13  1  0
  1 26  1  0
  1 27  1  0
  1 28  1  0
  4 29  1  0
  5 30  1  0
  6 31  1  0
  8 32  1  0
  8 33  1  0
  9 34  1  0
 12 35  1  0
 14 36  1  0
 15 37  1  0
 16 38  1  0
 17 39  1  0
 20 40  1  0
 20 41  1  0
 21 42  1  0
 21 43  1  0
 23 44  1  0
 23 45  1  0
 23 46  1  0
 24 47  1  0
 24 48  1  0
 24 49  1  0
 25 50  1  0
M  END
>  <smiles>  (89) 
COc1cccc(CNC(=O)Nc2ccccc2OCCN(C)C)c1

>  <score_type>  (89) 
oracle

>  <origin>  (89) 
adg

>  <m_score__min__energy>  (89) 
-7.3799999999999999

>  <m_primary>  (89) 
energy

$$$$
89:0
     RDKit          3D

 31 33  0  0  0  0  0  0  0  0999 V2000
   59.0530   34.6200   47.1420 C   0  0  0  0  0  0  0  0  0  0  0  0
   58.6670   33.6180   46.1200 C   0  0  0  0  0  0  0  0  0  0  0  0
   58.6360   34.0640   44.7990 C   0  0  0  0  0  0  0  0  0  0  0  0
   58.2960   33.2200   43.7650 C   0  0  0  0  0  0  0  0  0  0  0  0
   57.9910   31.9200   44.0960 C   0  0  0  0  0  0  0  0  0  0  0  0
   57.6520   31.0690   43.0530 O   0  0  0  0  0  0  0  0  0  0  0  0
   58.0190   31.4600   45.4200 C   0  0  0  0  0  0  0  0  0  0  0  0
   57.6720   30.0490   45.5820 C   0  0  0  0  0  0  0  0  0  0  0  0
   56.4450   29.7020   45.0950 N   0  0  0  0  0  0  0  0  0  0  0  0
   56.0720   28.4290   45.2510 N   0  0  0  0  0  0  0  0  0  0  0  0
   56.8360   27.5070   45.8530 C   0  0  0  0  0  0  0  0  0  0  0  0
   56.3370   25.9610   46.0190 S   0  0  0  0  0  0  0  0  0  0  0  0
   58.0710   27.8380   46.3490 C   0  0  0  0  0  0  0  0  0  0  0  0
   58.8700   26.8980   46.9920 C   0  0  0  0  0  0  0  0  0  0  0  0
   60.0920   27.2870   47.4860 C   0  0  0  0  0  0  0  0  0  0  0  0
   60.5200   28.5950   47.3440 C   0  0  0  0  0  0  0  0  0  0  0  0
   59.7240   29.5440   46.7010 C   0  0  0  0  0  0  0  0  0  0  0  0
   58.4960   29.1460   46.2080 C   0  0  0  0  0  0  0  0  0  0  0  0
   58.3550   32.2980   46.4420 C   0  0  0  0  0  0  0  0  0  0  0  0
   58.8914   34.2006   48.1460 H   0  0  0  0  0  0  0  0  0  0  0  0
   60.1151   34.8786   47.0192 H   0  0  0  0  0  0  0  0  0  0  0  0
   58.4389   35.5243   47.0192 H   0  0  0  0  0  0  0  0  0  0  0  0
   58.8883   35.1117   44.5782 H   0  0  0  0  0  0  0  0  0  0  0  0
   58.2696   33.5694   42.7223 H   0  0  0  0  0  0  0  0  0  0  0  0
   58.0460   30.1300   42.9870 H   0  0  0  0  0  0  0  0  0  0  0  0
   55.1430   28.1820   44.8800 H   0  0  0  0  0  0  0  0  0  0  0  0
   58.5285   25.8583   47.1034 H   0  0  0  0  0  0  0  0  0  0  0  0
   60.7335   26.5542   47.9973 H   0  0  0  0  0  0  0  0  0  0  0  0
   61.5012   28.8910   47.7434 H   0  0  0  0  0  0  0  0  0  0  0  0
   60.0658   30.5836   46.5894 H   0  0  0  0  0  0  0  0  0  0  0  0
   58.3790   31.9449   47.4835 H   0  0  0  0  0  0  0  0  0  0  0  0
  1  2  1  0
  2  3  2  0
  3  4  1  0
  4  5  2  0
  5  6  1  0
  5  7  1  0
  7  8  1  0
  8  9  2  0
  9 10  1  0
 10 11  1  0
 11 12  2  0
 11 13  1  0
 13 14  2  0
 14 15  1  0
 15 16  2  0
 16 17  1  0
 17 18  2  0
  7 19  2  0
 19  2  1  0
 18  8  1  0
 18 13  1  0
  1 20  1  0
  1 21  1  0
  1 22  1  0
  3 23  1  0
  4 24  1  0
  6 25  1  0
 10 26  1  0
 14 27  1  0
 15 28  1  0
 16 29  1  0
 17 30  1  0
 19 31  1  0
M  END
>  <smiles>  (90) 
Cc1ccc(O)c(-c2n[nH]c(=S)c3ccccc23)c1

>  <score_type>  (90) 
oracle

>  <origin>  (90) 
adg

>  <m_score__min__energy>  (90) 
-8.0600000000000005

>  <m_primary>  (90) 
energy

$$$$
90:0
     RDKit          3D

 52 52  0  0  1  0  0  0  0  0999 V2000
   56.0920   28.1020   45.2620 N   0  0  0  0  0  0  0  0  0  0  0  0
   56.2120   29.3590   44.5650 C   0  0  0  0  0  0  0  0  0  0  0  0
   55.1600   29.7780   43.7050 N   0  0  0  0  0  0  0  0  0  0  0  0
   57.2820   30.0240   44.7750 N   0  0  0  0  0  0  0  0  0  0  0  0
   58.5870   29.7220   44.2270 C   0  0  0  0  0  0  0  0  0  0  0  0
   58.8470   28.2100   44.2360 C   0  0  0  0  0  0  0  0  0  0  0  0
   59.9440   27.9860   45.2510 C   0  0  0  0  0  0  0  0  0  0  0  0
   59.4690   27.4700   46.5690 C   0  0  1  0  0  0  0  0  0  0  0  0
   58.8660   28.6100   47.2580 N   0  0  0  0  0  0  0  0  0  0  0  0
   59.3840   29.9120   47.2180 C   0  0  0  0  0  0  0  0  0  0  0  0
   60.4190   30.1600   46.5680 O   0  0  0  0  0  0  0  0  0  0  0  0
   58.6680   30.9230   47.9540 N   0  0  0  0  0  0  0  0  0  0  0  0
   59.1050   32.2780   47.9830 C   0  0  0  0  0  0  0  0  0  0  0  0
   58.8620   33.0190   46.8300 C   0  0  0  0  0  0  0  0  0  0  0  0
   59.2530   34.3600   46.7580 C   0  0  0  0  0  0  0  0  0  0  0  0
   59.8830   34.9390   47.8450 C   0  0  0  0  0  0  0  0  0  0  0  0
   60.1170   34.1830   48.9880 C   0  0  0  0  0  0  0  0  0  0  0  0
   59.7320   32.8480   49.0710 C   0  0  0  0  0  0  0  0  0  0  0  0
   58.4240   26.4360   46.4940 C   0  0  0  0  0  0  0  0  0  0  0  0
   57.2770   26.6270   47.0150 O   0  0  0  0  0  0  0  0  0  0  0  0
   58.6020   25.1730   45.8510 N   0  0  0  0  0  0  0  0  0  0  0  0
   57.5070   24.1810   45.8140 C   0  0  2  0  0  0  0  0  0  0  0  0
   58.0930   22.8550   45.3830 C   0  0  0  0  0  0  0  0  0  0  0  0
   59.3100   22.7370   45.2590 O   0  0  0  0  0  0  0  0  0  0  0  0
   56.4700   24.5580   44.8140 C   0  0  0  0  0  0  0  0  0  0  0  0
   55.1670   24.7900   45.4720 C   0  0  0  0  0  0  0  0  0  0  0  0
   54.2590   23.9370   45.5890 O   0  0  0  0  0  0  0  0  0  0  0  0
   54.9510   26.0750   46.0000 O   0  0  0  0  0  0  0  0  0  0  0  0
   55.9280   28.0540   46.2930 H   0  0  0  0  0  0  0  0  0  0  0  0
   56.1820   27.2490   44.6560 H   0  0  0  0  0  0  0  0  0  0  0  0
   55.1810   29.5360   42.6910 H   0  0  0  0  0  0  0  0  0  0  0  0
   54.3800   30.3310   44.1450 H   0  0  0  0  0  0  0  0  0  0  0  0
   58.6370   30.0900   43.1916 H   0  0  0  0  0  0  0  0  0  0  0  0
   59.3512   30.2141   44.8465 H   0  0  0  0  0  0  0  0  0  0  0  0
   57.9368   27.6667   44.5298 H   0  0  0  0  0  0  0  0  0  0  0  0
   59.1364   27.8434   43.2401 H   0  0  0  0  0  0  0  0  0  0  0  0
   60.6560   27.2589   44.8333 H   0  0  0  0  0  0  0  0  0  0  0  0
   60.3984   28.9690   45.4441 H   0  0  0  0  0  0  0  0  0  0  0  0
   60.3367   27.0138   47.0680 H   0  0  0  0  0  0  0  0  0  0  0  0
   57.9960   28.4000   47.8050 H   0  0  0  0  0  0  0  0  0  0  0  0
   57.7980   30.6860   48.4940 H   0  0  0  0  0  0  0  0  0  0  0  0
   58.3603   32.5480   45.9718 H   0  0  0  0  0  0  0  0  0  0  0  0
   59.0618   34.9473   45.8478 H   0  0  0  0  0  0  0  0  0  0  0  0
   60.1973   35.9924   47.8052 H   0  0  0  0  0  0  0  0  0  0  0  0
   60.6186   34.6513   49.8477 H   0  0  0  0  0  0  0  0  0  0  0  0
   59.9232   32.2620   49.9821 H   0  0  0  0  0  0  0  0  0  0  0  0
   59.5270   24.9740   45.4100 H   0  0  0  0  0  0  0  0  0  0  0  0
   57.0447   24.1300   46.8109 H   0  0  0  0  0  0  0  0  0  0  0  0
   57.4322   21.9991   45.1812 H   0  0  0  0  0  0  0  0  0  0  0  0
   56.7831   25.4783   44.2991 H   0  0  0  0  0  0  0  0  0  0  0  0
   56.3595   23.7348   44.0928 H   0  0  0  0  0  0  0  0  0  0  0  0
   55.1420   26.3180   46.9640 H   0  0  0  0  0  0  0  0  0  0  0  0
  1  2  1  0
  2  3  1  0
  2  4  2  3
  4  5  1  0
  5  6  1  0
  6  7  1  0
  7  8  1  0
  8  9  1  0
  9 10  1  0
 10 11  2  0
 10 12  1  0
 12 13  1  0
 13 14  2  0
 14 15  1  0
 15 16  2  0
 16 17  1  0
 17 18  2  0
  8 19  1  0
 19 20  2  0
 19 21  1  0
 21 22  1  0
 22 23  1  0
 23 24  2  0
 22 25  1  0
 25 26  1  0
 26 27  2  0
 26 28  1  0
 18 13  1  0
  1 29  1  0
  1 30  1  0
  3 31  1  0
  3 32  1  0
  5 33  1  0
  5 34  1  0
  6 35  1  0
  6 36  1  0
  7 37  1  0
  7 38  1  0
  8 39  1  1
  9 40  1  0
 12 41  1  0
 14 42  1  0
 15 43  1  0
 16 44  1  0
 17 45  1  0
 18 46  1  0
 21 47  1  0
 22 48  1  1
 23 49  1  0
 25 50  1  0
 25 51  1  0
 28 52  1  0
M  END
>  <smiles>  (91) 
NC(N)=NCCCC(NC(=O)Nc1ccccc1)C(=O)NC(C=O)CC(=O)O

>  <score_type>  (91) 
oracle

>  <origin>  (91) 
adg

>  <m_score__min__energy>  (91) 
-8.4199999999999999

>  <m_primary>  (91) 
energy

$$$$
91:0
     RDKit          3D

 52 54  0  0  0  0  0  0  0  0999 V2000
   57.4400   21.0880   43.4220 C   0  0  0  0  0  0  0  0  0  0  0  0
   56.6240   22.0560   42.6620 C   0  0  0  0  0  0  0  0  0  0  0  0
   56.5930   23.4800   43.0450 C   0  0  0  0  0  0  0  0  0  0  0  0
   55.5780   23.9400   44.0090 C   0  0  0  0  0  0  0  0  0  0  0  0
   55.5550   23.3160   45.3260 C   0  0  0  0  0  0  0  0  0  0  0  0
   54.6210   22.6890   46.0360 N   0  0  0  0  0  0  0  0  0  0  0  0
   55.0590   22.2880   47.1980 N   0  0  0  0  0  0  0  0  0  0  0  0
   56.3410   22.6650   47.2660 C   0  0  0  0  0  0  0  0  0  0  0  0
   57.0630   22.4290   48.2690 O   0  0  0  0  0  0  0  0  0  0  0  0
   56.6660   23.2990   46.1240 N   0  0  0  0  0  0  0  0  0  0  0  0
   57.9810   23.8360   45.8830 C   0  0  0  0  0  0  0  0  0  0  0  0
   58.0250   25.3290   45.9160 C   0  0  0  0  0  0  0  0  0  0  0  0
   58.3150   26.0250   47.0920 C   0  0  0  0  0  0  0  0  0  0  0  0
   58.3400   27.3960   47.1590 C   0  0  0  0  0  0  0  0  0  0  0  0
   58.0720   28.1460   46.0340 C   0  0  0  0  0  0  0  0  0  0  0  0
   58.0770   29.5600   46.1000 N   0  0  0  0  0  0  0  0  0  0  0  0
   59.2090   30.3550   46.4140 C   0  0  0  0  0  0  0  0  0  0  0  0
   60.3090   29.8150   46.6600 O   0  0  0  0  0  0  0  0  0  0  0  0
   58.9960   31.8060   46.4290 C   0  0  0  0  0  0  0  0  0  0  0  0
   59.5720   32.5350   47.4560 C   0  0  0  0  0  0  0  0  0  0  0  0
   59.4500   33.9010   47.5720 C   0  0  0  0  0  0  0  0  0  0  0  0
   58.7180   34.5710   46.6160 C   0  0  0  0  0  0  0  0  0  0  0  0
   58.1450   33.8480   45.5960 C   0  0  0  0  0  0  0  0  0  0  0  0
   58.2640   32.4720   45.4740 C   0  0  0  0  0  0  0  0  0  0  0  0
   57.5230   31.5810   44.1660 S   0  0  0  0  0  0  0  0  0  0  0  0
   57.4270   32.4240   42.9030 O   0  0  0  0  0  0  0  0  0  0  0  0
   56.2330   30.9530   44.5310 O   0  0  0  0  0  0  0  0  0  0  0  0
   58.5960   30.3270   43.7540 O   0  0  0  0  0  0  0  0  0  0  0  0
   57.7810   27.4990   44.8490 C   0  0  0  0  0  0  0  0  0  0  0  0
   57.7640   26.1100   44.8130 C   0  0  0  0  0  0  0  0  0  0  0  0
   57.2986   21.2558   44.4999 H   0  0  0  0  0  0  0  0  0  0  0  0
   57.1279   20.0647   43.1661 H   0  0  0  0  0  0  0  0  0  0  0  0
   58.5013   21.2225   43.1661 H   0  0  0  0  0  0  0  0  0  0  0  0
   56.9797   22.0182   41.6218 H   0  0  0  0  0  0  0  0  0  0  0  0
   55.5956   21.7245   42.8681 H   0  0  0  0  0  0  0  0  0  0  0  0
   57.5770   23.7194   43.4745 H   0  0  0  0  0  0  0  0  0  0  0  0
   56.3237   23.9975   42.1124 H   0  0  0  0  0  0  0  0  0  0  0  0
   55.7349   25.0182   44.1602 H   0  0  0  0  0  0  0  0  0  0  0  0
   54.6174   23.6575   43.5535 H   0  0  0  0  0  0  0  0  0  0  0  0
   54.4870   21.7750   47.9100 H   0  0  0  0  0  0  0  0  0  0  0  0
   58.6628   23.4495   46.6549 H   0  0  0  0  0  0  0  0  0  0  0  0
   58.2801   23.5236   44.8716 H   0  0  0  0  0  0  0  0  0  0  0  0
   58.5328   25.4496   48.0039 H   0  0  0  0  0  0  0  0  0  0  0  0
   58.5739   27.8960   48.1105 H   0  0  0  0  0  0  0  0  0  0  0  0
   57.1430   30.0280   45.8920 H   0  0  0  0  0  0  0  0  0  0  0  0
   60.1558   31.9957   48.2165 H   0  0  0  0  0  0  0  0  0  0  0  0
   59.9234   34.4425   48.4043 H   0  0  0  0  0  0  0  0  0  0  0  0
   58.5943   35.6628   46.6676 H   0  0  0  0  0  0  0  0  0  0  0  0
   57.5616   34.3899   44.8370 H   0  0  0  0  0  0  0  0  0  0  0  0
   58.4840   30.2340   42.7540 H   0  0  0  0  0  0  0  0  0  0  0  0
   57.5642   28.0792   43.9400 H   0  0  0  0  0  0  0  0  0  0  0  0
   57.5315   25.6121   43.8601 H   0  0  0  0  0  0  0  0  0  0  0  0
  1  2  1  0
  2  3  1  0
  3  4  1  0
  4  5  1  0
  5  6  2  0
  6  7  1  0
  7  8  1  0
  8  9  2  0
  8 10  1  0
 10 11  1  0
 11 12  1  0
 12 13  2  0
 13 14  1  0
 14 15  2  0
 15 16  1  0
 16 17  1  0
 17 18  2  0
 17 19  1  0
 19 20  2  0
 20 21  1  0
 21 22  2  0
 22 23  1  0
 23 24  2  0
 24 25  1  0
 25 26  2  0
 25 27  2  0
 25 28  1  0
 15 29  1  0
 29 30  2  0
 10  5  1  0
 30 12  1  0
 24 19  1  0
  1 31  1  0
  1 32  1  0
  1 33  1  0
  2 34  1  0
  2 35  1  0
  3 36  1  0
  3 37  1  0
  4 38  1  0
  4 39  1  0
  7 40  1  0
 11 41  1  0
 11 42  1  0
 13 43  1  0
 14 44  1  0
 16 45  1  0
 20 46  1  0
 21 47  1  0
 22 48  1  0
 23 49  1  0
 28 50  1  0
 29 51  1  0
 30 52  1  0
M  END
>  <smiles>  (92) 
CCCCc1n[nH]c(=O)n1Cc1ccc(NC(=O)c2ccccc2S(=O)(=O)O)cc1

>  <score_type>  (92) 
oracle

>  <origin>  (92) 
adg

>  <m_score__min__energy>  (92) 
-8.7699999999999996

>  <m_primary>  (92) 
energy

$$$$
92:0
     RDKit          3D

 28 29  0  0  1  0  0  0  0  0999 V2000
   57.7860   32.0790   42.9770 N   0  0  0  0  0  0  0  0  0  0  0  0
   58.2180   31.5090   44.2110 C   0  0  0  0  0  0  0  0  0  0  0  0
   58.7040   30.2450   44.2740 N   0  0  0  0  0  0  0  0  0  0  0  0
   59.1150   29.7040   45.4510 C   0  0  0  0  0  0  0  0  0  0  0  0
   59.5580   28.5060   45.4080 N   0  0  0  0  0  0  0  0  0  0  0  0
   58.7200   27.4010   45.6980 C   0  0  0  0  0  0  0  0  0  0  0  0
   59.2200   26.1120   45.8950 C   0  0  0  0  0  0  0  0  0  0  0  0
   58.3700   25.0580   46.1760 C   0  0  0  0  0  0  0  0  0  0  0  0
   57.0060   25.2360   46.2710 C   0  0  0  0  0  0  0  0  0  0  0  0
   56.4950   26.5060   46.0800 C   0  0  0  0  0  0  0  0  0  0  0  0
   55.1120   26.6470   46.1850 O   0  0  0  0  0  0  0  0  0  0  0  0
   57.3380   27.5590   45.7990 C   0  0  0  0  0  0  0  0  0  0  0  0
   59.0530   30.4050   46.5960 N   0  0  0  0  0  0  0  0  0  0  0  0
   58.5770   31.6720   46.6000 C   0  0  0  0  0  0  0  0  0  0  0  0
   58.4960   32.3690   47.6250 O   0  0  0  0  0  0  0  0  0  0  0  0
   58.1590   32.2240   45.4060 C   0  0  0  0  0  0  0  0  0  0  0  0
   57.6490   33.5550   45.3510 N   0  0  0  0  0  0  0  0  0  0  0  0
   56.6680   33.8500   46.0620 O   0  0  0  0  0  0  0  0  0  0  0  0
   58.2610   34.4590   44.5160 O   0  0  0  0  0  0  0  0  0  0  0  0
   57.7090   31.4960   42.1100 H   0  0  0  0  0  0  0  0  0  0  0  0
   57.5470   33.0960   42.9560 H   0  0  0  0  0  0  0  0  0  0  0  0
   58.7590   29.6750   43.3780 H   0  0  0  0  0  0  0  0  0  0  0  0
   60.3031   25.9329   45.8258 H   0  0  0  0  0  0  0  0  0  0  0  0
   58.7921   24.0536   46.3273 H   0  0  0  0  0  0  0  0  0  0  0  0
   56.3411   24.3884   46.4933 H   0  0  0  0  0  0  0  0  0  0  0  0
   54.7260   26.7160   47.1170 H   0  0  0  0  0  0  0  0  0  0  0  0
   56.9058   28.5594   45.6491 H   0  0  0  0  0  0  0  0  0  0  0  0
   59.3750   29.9660   47.4840 H   0  0  0  0  0  0  0  0  0  0  0  0
  1  2  1  0
  2  3  1  0
  3  4  1  0
  4  5  2  0
  5  6  1  0
  6  7  2  0
  7  8  1  0
  8  9  2  0
  9 10  1  0
 10 11  1  0
 10 12  2  0
  4 13  1  0
 13 14  1  0
 14 15  2  0
 14 16  1  0
 16 17  1  0
 17 18  2  0
 17 19  1  0
 16  2  2  0
 12  6  1  0
  1 20  1  0
  1 21  1  0
  3 22  1  0
  7 23  1  0
  8 24  1  0
  9 25  1  0
 11 26  1  0
 12 27  1  0
 13 28  1  0
M  CHG  2  17   1  19  -1
M  END
>  <smiles>  (93) 
Nc1[nH]c(=Nc2cccc(O)c2)[nH]c(=O)c1[N+](=O)[O-]

>  <score_type>  (93) 
oracle

>  <origin>  (93) 
adg

>  <m_score__min__energy>  (93) 
-6.8300000000000001

>  <m_primary>  (93) 
energy

$$$$
93:0
     RDKit          3D

 44 45  0  0  1  0  0  0  0  0999 V2000
   57.1630   21.2110   43.3230 C   0  0  0  0  0  0  0  0  0  0  0  0
   55.9070   21.8720   43.3360 O   0  0  0  0  0  0  0  0  0  0  0  0
   55.7120   23.1260   43.8940 C   0  0  0  0  0  0  0  0  0  0  0  0
   54.7990   23.9130   43.4860 O   0  0  0  0  0  0  0  0  0  0  0  0
   56.6320   23.5270   45.0100 C   0  0  1  0  0  0  0  0  0  0  0  0
   57.7750   24.2990   44.4060 C   0  0  0  0  0  0  0  0  0  0  0  0
   57.5430   25.7250   44.5440 N   0  0  0  0  0  0  0  0  0  0  0  0
   57.6960   26.0010   45.9680 C   0  0  1  0  0  0  0  0  0  0  0  0
   57.9370   27.4540   46.1650 C   0  0  0  0  0  0  0  0  0  0  0  0
   58.1060   27.9530   47.3090 O   0  0  0  0  0  0  0  0  0  0  0  0
   57.9800   28.3120   45.0370 N   0  0  0  0  0  0  0  0  0  0  0  0
   58.2150   29.6980   45.2920 C   0  0  0  0  0  0  0  0  0  0  0  0
   59.3920   30.1510   45.8060 C   0  0  0  0  0  0  0  0  0  0  0  0
   59.5600   31.4970   46.0290 C   0  0  0  0  0  0  0  0  0  0  0  0
   58.5900   32.4430   45.7610 C   0  0  0  0  0  0  0  0  0  0  0  0
   58.7890   33.7990   46.0000 O   0  0  0  0  0  0  0  0  0  0  0  0
   59.2210   34.6210   44.9220 C   0  0  0  0  0  0  0  0  0  0  0  0
   57.3970   31.9630   45.2390 C   0  0  0  0  0  0  0  0  0  0  0  0
   57.2040   30.5970   45.0030 C   0  0  0  0  0  0  0  0  0  0  0  0
   56.0220   30.1330   44.4860 O   0  0  0  0  0  0  0  0  0  0  0  0
   55.8790   29.6910   43.1400 C   0  0  0  0  0  0  0  0  0  0  0  0
   56.5040   25.4990   46.7290 C   0  0  0  0  0  0  0  0  0  0  0  0
   55.9360   24.3050   46.0420 C   0  0  0  0  0  0  0  0  0  0  0  0
   54.8060   23.9500   46.3660 O   0  0  0  0  0  0  0  0  0  0  0  0
   57.4959   21.0358   44.3567 H   0  0  0  0  0  0  0  0  0  0  0  0
   57.0650   20.2477   42.8011 H   0  0  0  0  0  0  0  0  0  0  0  0
   57.9015   21.8373   42.8011 H   0  0  0  0  0  0  0  0  0  0  0  0
   57.0115   22.6298   45.5209 H   0  0  0  0  0  0  0  0  0  0  0  0
   58.7083   24.0307   44.9227 H   0  0  0  0  0  0  0  0  0  0  0  0
   57.8530   24.0491   43.3376 H   0  0  0  0  0  0  0  0  0  0  0  0
   56.5220   25.8800   44.3070 H   0  0  0  0  0  0  0  0  0  0  0  0
   58.5689   25.4632   46.3667 H   0  0  0  0  0  0  0  0  0  0  0  0
   57.8450   27.9520   44.0520 H   0  0  0  0  0  0  0  0  0  0  0  0
   60.2022   29.4451   46.0410 H   0  0  0  0  0  0  0  0  0  0  0  0
   60.5196   31.8394   46.4436 H   0  0  0  0  0  0  0  0  0  0  0  0
   59.6979   35.5284   45.3211 H   0  0  0  0  0  0  0  0  0  0  0  0
   59.9446   34.0672   44.3058 H   0  0  0  0  0  0  0  0  0  0  0  0
   58.3545   34.9029   44.3058 H   0  0  0  0  0  0  0  0  0  0  0  0
   56.5872   32.6701   45.0062 H   0  0  0  0  0  0  0  0  0  0  0  0
   55.5404   28.6444   43.1318 H   0  0  0  0  0  0  0  0  0  0  0  0
   55.1385   30.3200   42.6242 H   0  0  0  0  0  0  0  0  0  0  0  0
   56.8476   29.7671   42.6242 H   0  0  0  0  0  0  0  0  0  0  0  0
   56.8109   25.2227   47.7485 H   0  0  0  0  0  0  0  0  0  0  0  0
   55.7412   26.2903   46.7745 H   0  0  0  0  0  0  0  0  0  0  0  0
  1  2  1  0
  2  3  1  0
  3  4  2  0
  3  5  1  0
  5  6  1  0
  6  7  1  0
  7  8  1  0
  8  9  1  0
  9 10  2  0
  9 11  1  0
 11 12  1  0
 12 13  2  0
 13 14  1  0
 14 15  2  0
 15 16  1  0
 16 17  1  0
 15 18  1  0
 18 19  2  0
 19 20  1  0
 20 21  1  0
  8 22  1  0
 22 23  1  0
 23 24  2  0
 23  5  1  0
 19 12  1  0
  1 25  1  0
  1 26  1  0
  1 27  1  0
  5 28  1  1
  6 29  1  0
  6 30  1  0
  7 31  1  0
  8 32  1  1
 11 33  1  0
 13 34  1  0
 14 35  1  0
 17 36  1  0
 17 37  1  0
 17 38  1  0
 18 39  1  0
 21 40  1  0
 21 41  1  0
 21 42  1  0
 22 43  1  0
 22 44  1  0
M  END
>  <smiles>  (94) 
COC(=O)C1CNC(C(=O)Nc2ccc(OC)cc2OC)CC1=O

>  <score_type>  (94) 
oracle

>  <origin>  (94) 
adg

>  <m_score__min__energy>  (94) 
-7.29

>  <m_primary>  (94) 
energy

$$$$
