0:0
     RDKit          3D

 48 50  0  0  0  0  0  0  0  0999 V2000
   53.6340   30.8770   53.6800 O   0  0  0  0  0  0  0  0  0  0  0  0
   53.5260   30.6280   52.4510 C   0  0  0  0  0  0  0  0  0  0  0  0
   54.7720   30.6290   51.6140 C   0  0  0  0  0  0  0  0  0  0  0  0
   55.9400   30.7410   52.4810 N   0  0  0  0  0  0  0  0  0  0  0  0
   57.0820   31.5610   52.2070 C   0  0  0  0  0  0  0  0  0  0  0  0
   57.1010   32.7420   52.6470 O   0  0  0  0  0  0  0  0  0  0  0  0
   58.2430   31.0610   51.4480 C   0  0  0  0  0  0  0  0  0  0  0  0
   59.4190   30.6740   52.1080 C   0  0  0  0  0  0  0  0  0  0  0  0
   60.5090   30.1920   51.3810 C   0  0  0  0  0  0  0  0  0  0  0  0
   60.4300   30.0790   49.9910 C   0  0  0  0  0  0  0  0  0  0  0  0
   59.2530   30.4410   49.3200 C   0  0  0  0  0  0  0  0  0  0  0  0
   59.1570   30.3010   47.5630 S   0  0  0  0  0  0  0  0  0  0  0  0
   60.5430   30.1310   47.0060 O   0  0  0  0  0  0  0  0  0  0  0  0
   58.3580   29.0790   47.2040 O   0  0  0  0  0  0  0  0  0  0  0  0
   58.4160   31.7110   46.8470 N   0  0  0  0  0  0  0  0  0  0  0  0
   59.0450   32.9410   47.3710 C   0  0  0  0  0  0  0  0  0  0  0  0
   58.6290   34.2000   46.5750 C   0  0  0  0  0  0  0  0  0  0  0  0
   57.4030   33.9370   45.6960 C   0  0  0  0  0  0  0  0  0  0  0  0
   57.6500   32.7560   44.7410 C   0  0  0  0  0  0  0  0  0  0  0  0
   58.5150   31.6530   45.3800 C   0  0  0  0  0  0  0  0  0  0  0  0
   58.1590   30.9210   50.0530 C   0  0  0  0  0  0  0  0  0  0  0  0
   52.2110   30.3630   51.9240 N   0  0  0  0  0  0  0  0  0  0  0  0
   51.7590   30.5110   50.7090 C   0  0  0  0  0  0  0  0  0  0  0  0
   51.8740   29.5220   49.7790 N   0  0  0  0  0  0  0  0  0  0  0  0
   51.4150   29.6650   48.5080 C   0  0  0  0  0  0  0  0  0  0  0  0
   50.8040   30.8580   48.1170 C   0  0  0  0  0  0  0  0  0  0  0  0
   50.6730   31.8910   49.0440 C   0  0  0  0  0  0  0  0  0  0  0  0
   51.1530   31.7240   50.3470 C   0  0  0  0  0  0  0  0  0  0  0  0
   51.0240   32.7580   51.2690 O   0  0  0  0  0  0  0  0  0  0  0  0
   54.8294   29.6920   51.0407 H   0  0  0  0  0  0  0  0  0  0  0  0
   54.7471   31.4823   50.9202 H   0  0  0  0  0  0  0  0  0  0  0  0
   59.4825   30.7507   53.2035 H   0  0  0  0  0  0  0  0  0  0  0  0
   61.4319   29.9006   51.9038 H   0  0  0  0  0  0  0  0  0  0  0  0
   61.2934   29.7050   49.4211 H   0  0  0  0  0  0  0  0  0  0  0  0
   58.7448   33.0717   48.4212 H   0  0  0  0  0  0  0  0  0  0  0  0
   60.1349   32.8279   47.2749 H   0  0  0  0  0  0  0  0  0  0  0  0
   58.3926   35.0074   47.2836 H   0  0  0  0  0  0  0  0  0  0  0  0
   59.4659   34.4823   45.9193 H   0  0  0  0  0  0  0  0  0  0  0  0
   56.5422   33.7044   46.3401 H   0  0  0  0  0  0  0  0  0  0  0  0
   57.2039   34.8367   45.0953 H   0  0  0  0  0  0  0  0  0  0  0  0
   56.6796   32.3232   44.4566 H   0  0  0  0  0  0  0  0  0  0  0  0
   58.1925   33.1416   43.8652 H   0  0  0  0  0  0  0  0  0  0  0  0
   58.1652   30.6701   45.0314 H   0  0  0  0  0  0  0  0  0  0  0  0
   59.5639   31.8060   45.0861 H   0  0  0  0  0  0  0  0  0  0  0  0
   57.2282   31.1899   49.5321 H   0  0  0  0  0  0  0  0  0  0  0  0
   51.5248   28.8411   47.7874 H   0  0  0  0  0  0  0  0  0  0  0  0
   50.4304   30.9814   47.0898 H   0  0  0  0  0  0  0  0  0  0  0  0
   50.1927   32.8362   48.7510 H   0  0  0  0  0  0  0  0  0  0  0  0
  1  2  2  0
  2  3  1  0
  3  4  1  0
  4  5  1  0
  5  6  2  0
  5  7  1  0
  7  8  2  0
  8  9  1  0
  9 10  2  0
 10 11  1  0
 11 12  1  0
 12 13  2  0
 12 14  2  0
 12 15  1  0
 15 16  1  0
 16 17  1  0
 17 18  1  0
 18 19  1  0
 19 20  1  0
 11 21  2  0
  2 22  1  0
 22 23  2  3
 23 24  1  0
 24 25  1  0
 25 26  2  0
 26 27  1  0
 27 28  2  0
 28 29  1  0
 21  7  1  0
 28 23  1  0
 20 15  1  0
  3 30  1  0
  3 31  1  0
  8 32  1  0
  9 33  1  0
 10 34  1  0
 16 35  1  0
 16 36  1  0
 17 37  1  0
 17 38  1  0
 18 39  1  0
 18 40  1  0
 19 41  1  0
 19 42  1  0
 20 43  1  0
 20 44  1  0
 21 45  1  0
 25 46  1  0
 26 47  1  0
 27 48  1  0
M  CHG  3   4  -1  24  -1  29  -1
M  END
>  <UniqueID>  (1) 
1

>  <SMILES>  (1) 
O=C(C[N-]C(=O)c1cccc(S(=O)(=O)N2CCCCC2)c1)N=c1[n-]cccc1[O-]

>  <Energy>  (1) 
59.71011545679245

>  <Genealogy>  (1) 
O=C(C[N-]C(=O)c1cccc(S(=O)(=O)N2CCCCC2)c1)N=c1[n-]cccc1[O-] (protonated)
O=C(C[N-]C(=O)c1cccc(S(=O)(=O)N2CCCCC2)c1)N=c1[n-]cccc1[O-] (3D coordinates assigned)
O=C(C[N-]C(=O)c1cccc(S(=O)(=O)N2CCCCC2)c1)N=c1[n-]cccc1[O-] (nonaromatic ring conformer: 59.71011545679245 kcal/mol)

>  <smiles>  (1) 
O=C(CNC(=O)c1cccc(S(=O)(=O)N2CCCCC2)c1)N=c1[nH]cccc1O

>  <score_type>  (1) 
oracle

>  <origin>  (1) 
adg

>  <m_score__min__energy>  (1) 
-16.050000000000001

>  <m_primary>  (1) 
energy

$$$$
1:0
     RDKit          3D

 46 48  0  0  1  0  0  0  0  0999 V2000
   57.0190   28.8030   43.0150 N   0  0  0  0  0  0  0  0  0  0  0  0
   56.5010   29.5940   43.8690 C   0  0  0  0  0  0  0  0  0  0  0  0
   55.2830   29.1730   44.4950 N   0  0  0  0  0  0  0  0  0  0  0  0
   57.1300   30.8790   44.1910 C   0  0  0  0  0  0  0  0  0  0  0  0
   57.4400   31.1070   45.5020 C   0  0  0  0  0  0  0  0  0  0  0  0
   58.0280   32.2840   45.8730 C   0  0  0  0  0  0  0  0  0  0  0  0
   58.3210   33.2610   44.9440 C   0  0  0  0  0  0  0  0  0  0  0  0
   58.9580   34.5180   45.3900 C   0  0  0  0  0  0  0  0  0  0  0  0
   60.3170   34.3310   45.8460 N   0  0  0  0  0  0  0  0  0  0  0  0
   60.5220   34.2110   47.2480 C   0  0  0  0  0  0  0  0  0  0  0  0
   59.4640   34.2830   47.9630 O   0  0  0  0  0  0  0  0  0  0  0  0
   61.8500   34.0170   47.8590 C   0  0  2  0  0  0  0  0  0  0  0  0
   62.8090   33.5190   46.8150 C   0  0  0  0  0  0  0  0  0  0  0  0
   64.1280   33.0840   47.3530 C   0  0  0  0  0  0  0  0  0  0  0  0
   64.1950   33.0700   48.8280 C   0  0  0  0  0  0  0  0  0  0  0  0
   65.3950   33.0880   49.4490 N   0  0  0  0  0  0  0  0  0  0  0  0
   65.4620   33.0750   50.7930 C   0  0  0  0  0  0  0  0  0  0  0  0
   66.6500   33.0930   51.3340 N   0  0  0  0  0  0  0  0  0  0  0  0
   64.3770   33.0440   51.5880 N   0  0  0  0  0  0  0  0  0  0  0  0
   63.1560   33.0250   51.0220 C   0  0  0  0  0  0  0  0  0  0  0  0
   62.0590   32.9940   51.7130 N   0  0  0  0  0  0  0  0  0  0  0  0
   63.0840   33.0380   49.6450 C   0  0  0  0  0  0  0  0  0  0  0  0
   61.7550   33.0180   49.0110 C   0  0  0  0  0  0  0  0  0  0  0  0
   57.9960   32.9970   43.6350 C   0  0  0  0  0  0  0  0  0  0  0  0
   57.4020   31.8250   43.2130 C   0  0  0  0  0  0  0  0  0  0  0  0
   56.7030   27.8480   42.7740 H   0  0  0  0  0  0  0  0  0  0  0  0
   55.1540   28.2160   44.8910 H   0  0  0  0  0  0  0  0  0  0  0  0
   54.5120   29.8800   44.5400 H   0  0  0  0  0  0  0  0  0  0  0  0
   57.2160   30.3422   46.2602 H   0  0  0  0  0  0  0  0  0  0  0  0
   58.2721   32.4553   46.9318 H   0  0  0  0  0  0  0  0  0  0  0  0
   58.9650   35.2256   44.5478 H   0  0  0  0  0  0  0  0  0  0  0  0
   58.3745   34.8989   46.2411 H   0  0  0  0  0  0  0  0  0  0  0  0
   61.1390   34.2810   45.2070 H   0  0  0  0  0  0  0  0  0  0  0  0
   62.2142   34.9753   48.2576 H   0  0  0  0  0  0  0  0  0  0  0  0
   62.3464   32.6626   46.3026 H   0  0  0  0  0  0  0  0  0  0  0  0
   63.0072   34.3645   46.1399 H   0  0  0  0  0  0  0  0  0  0  0  0
   64.3336   32.0673   46.9869 H   0  0  0  0  0  0  0  0  0  0  0  0
   64.8726   33.8154   47.0055 H   0  0  0  0  0  0  0  0  0  0  0  0
   66.2670   33.1120   48.8620 H   0  0  0  0  0  0  0  0  0  0  0  0
   67.0690   34.0100   51.6040 H   0  0  0  0  0  0  0  0  0  0  0  0
   64.4310   33.0330   52.6160 H   0  0  0  0  0  0  0  0  0  0  0  0
   61.9760   33.7610   52.4340 H   0  0  0  0  0  0  0  0  0  0  0  0
   61.5229   32.0119   48.6318 H   0  0  0  0  0  0  0  0  0  0  0  0
   60.9557   33.2802   49.7198 H   0  0  0  0  0  0  0  0  0  0  0  0
   58.2224   33.7643   42.8800 H   0  0  0  0  0  0  0  0  0  0  0  0
   57.1566   31.6497   42.1551 H   0  0  0  0  0  0  0  0  0  0  0  0
  1  2  2  3
  2  3  1  0
  2  4  1  0
  4  5  2  0
  5  6  1  0
  6  7  2  0
  7  8  1  0
  8  9  1  0
  9 10  1  0
 10 11  2  0
 10 12  1  0
 12 13  1  0
 13 14  1  0
 14 15  1  0
 15 16  1  0
 16 17  1  0
 17 18  2  3
 17 19  1  0
 19 20  1  0
 20 21  2  3
 20 22  1  0
 22 23  1  0
  7 24  1  0
 24 25  2  0
 25  4  1  0
 23 12  1  0
 22 15  2  0
  1 26  1  0
  3 27  1  0
  3 28  1  0
  5 29  1  0
  6 30  1  0
  8 31  1  0
  8 32  1  0
  9 33  1  0
 12 34  1  1
 13 35  1  0
 13 36  1  0
 14 37  1  0
 14 38  1  0
 16 39  1  0
 18 40  1  0
 19 41  1  0
 21 42  1  0
 23 43  1  0
 23 44  1  0
 24 45  1  0
 25 46  1  0
M  END
>  <smiles>  (2) 
N=C(N)c1ccc(CNC(=O)C2CCc3[nH]c(=N)[nH]c(=N)c3C2)cc1

>  <score_type>  (2) 
oracle

>  <origin>  (2) 
adg

>  <m_score__min__energy>  (2) 
-8.1099999999999994

>  <m_primary>  (2) 
energy

$$$$
2:0
     RDKit          3D

 55 59  0  0  0  0  0  0  0  0999 V2000
   58.3400   30.7640   48.1770 O   0  0  0  0  0  0  0  0  0  0  0  0
   59.0990   30.3030   47.2830 C   0  0  0  0  0  0  0  0  0  0  0  0
   59.9090   31.1920   46.4970 N   0  0  0  0  0  0  0  0  0  0  0  0
   59.7260   32.6150   46.5480 C   0  0  0  0  0  0  0  0  0  0  0  0
   58.6420   33.1830   45.8610 C   0  0  0  0  0  0  0  0  0  0  0  0
   58.3910   34.5550   45.9440 C   0  0  0  0  0  0  0  0  0  0  0  0
   59.2250   35.3730   46.7070 C   0  0  0  0  0  0  0  0  0  0  0  0
   60.3220   34.8250   47.3760 C   0  0  0  0  0  0  0  0  0  0  0  0
   60.5890   33.4490   47.2940 C   0  0  0  0  0  0  0  0  0  0  0  0
   61.7860   32.9330   47.8950 N   0  0  0  0  0  0  0  0  0  0  0  0
   63.0850   33.4580   47.4660 C   0  0  0  0  0  0  0  0  0  0  0  0
   64.1830   33.0350   48.4420 C   0  0  0  0  0  0  0  0  0  0  0  0
   63.7250   33.2860   49.8110 N   0  0  0  0  0  0  0  0  0  0  0  0
   62.5780   32.4380   50.1950 C   0  0  0  0  0  0  0  0  0  0  0  0
   61.7100   31.9760   49.0050 C   0  0  0  0  0  0  0  0  0  0  0  0
   59.0140   28.8670   46.9550 C   0  0  0  0  0  0  0  0  0  0  0  0
   59.6290   28.0260   47.7800 O   0  0  0  0  0  0  0  0  0  0  0  0
   59.6120   26.7080   47.6340 C   0  0  0  0  0  0  0  0  0  0  0  0
   60.2240   25.9930   48.4730 O   0  0  0  0  0  0  0  0  0  0  0  0
   58.9210   26.1230   46.5610 C   0  0  0  0  0  0  0  0  0  0  0  0
   58.8820   24.7270   46.3840 C   0  0  0  0  0  0  0  0  0  0  0  0
   58.2030   24.1740   45.2980 C   0  0  0  0  0  0  0  0  0  0  0  0
   57.5610   25.0020   44.3770 C   0  0  0  0  0  0  0  0  0  0  0  0
   57.5910   26.3890   44.5390 C   0  0  0  0  0  0  0  0  0  0  0  0
   58.2640   26.9700   45.6360 C   0  0  0  0  0  0  0  0  0  0  0  0
   58.3170   28.3720   45.8290 C   0  0  0  0  0  0  0  0  0  0  0  0
   57.7590   29.2920   44.8110 C   0  0  0  0  0  0  0  0  0  0  0  0
   58.6000   30.2010   44.1490 C   0  0  0  0  0  0  0  0  0  0  0  0
   58.0650   31.1250   43.2480 C   0  0  0  0  0  0  0  0  0  0  0  0
   56.6870   31.1630   43.0180 C   0  0  0  0  0  0  0  0  0  0  0  0
   55.8410   30.2750   43.6880 C   0  0  0  0  0  0  0  0  0  0  0  0
   56.3720   29.3360   44.5790 C   0  0  0  0  0  0  0  0  0  0  0  0
   55.5180   28.4580   45.2370 O   0  0  0  0  0  0  0  0  0  0  0  0
   60.3590   30.8040   45.6390 H   0  0  0  0  0  0  0  0  0  0  0  0
   57.9853   32.5435   45.2529 H   0  0  0  0  0  0  0  0  0  0  0  0
   57.5352   34.9906   45.4074 H   0  0  0  0  0  0  0  0  0  0  0  0
   59.0184   36.4508   46.7818 H   0  0  0  0  0  0  0  0  0  0  0  0
   60.9805   35.4753   47.9705 H   0  0  0  0  0  0  0  0  0  0  0  0
   63.3205   33.0674   46.4650 H   0  0  0  0  0  0  0  0  0  0  0  0
   63.0342   34.5566   47.4425 H   0  0  0  0  0  0  0  0  0  0  0  0
   64.3969   31.9635   48.3150 H   0  0  0  0  0  0  0  0  0  0  0  0
   65.0989   33.6112   48.2444 H   0  0  0  0  0  0  0  0  0  0  0  0
   64.5190   33.0840   50.4630 H   0  0  0  0  0  0  0  0  0  0  0  0
   62.9649   31.5450   50.7077 H   0  0  0  0  0  0  0  0  0  0  0  0
   61.9317   33.0514   50.8400 H   0  0  0  0  0  0  0  0  0  0  0  0
   62.0671   30.9948   48.6590 H   0  0  0  0  0  0  0  0  0  0  0  0
   60.6641   31.9098   49.3393 H   0  0  0  0  0  0  0  0  0  0  0  0
   59.3892   24.0692   47.1052 H   0  0  0  0  0  0  0  0  0  0  0  0
   58.1738   23.0821   45.1676 H   0  0  0  0  0  0  0  0  0  0  0  0
   57.0296   24.5613   43.5206 H   0  0  0  0  0  0  0  0  0  0  0  0
   57.0858   27.0345   43.8054 H   0  0  0  0  0  0  0  0  0  0  0  0
   59.6831   30.1855   44.3404 H   0  0  0  0  0  0  0  0  0  0  0  0
   58.7295   31.8238   42.7187 H   0  0  0  0  0  0  0  0  0  0  0  0
   56.2680   31.8923   42.3091 H   0  0  0  0  0  0  0  0  0  0  0  0
   54.7555   30.3144   43.5145 H   0  0  0  0  0  0  0  0  0  0  0  0
  1  2  2  0
  2  3  1  0
  3  4  1  0
  4  5  2  0
  5  6  1  0
  6  7  2  0
  7  8  1  0
  8  9  2  0
  9 10  1  0
 10 11  1  0
 11 12  1  0
 12 13  1  0
 13 14  1  0
 14 15  1  0
  2 16  1  0
 16 17  1  0
 17 18  1  0
 18 19  2  0
 18 20  1  0
 20 21  2  0
 21 22  1  0
 22 23  2  0
 23 24  1  0
 24 25  2  0
 25 26  1  0
 26 27  1  0
 27 28  2  0
 28 29  1  0
 29 30  2  0
 30 31  1  0
 31 32  2  0
 32 33  1  0
  9  4  1  0
 15 10  1  0
 26 16  2  0
 32 27  1  0
 25 20  1  0
  3 34  1  0
  5 35  1  0
  6 36  1  0
  7 37  1  0
  8 38  1  0
 11 39  1  0
 11 40  1  0
 12 41  1  0
 12 42  1  0
 13 43  1  0
 14 44  1  0
 14 45  1  0
 15 46  1  0
 15 47  1  0
 21 48  1  0
 22 49  1  0
 23 50  1  0
 24 51  1  0
 28 52  1  0
 29 53  1  0
 30 54  1  0
 31 55  1  0
M  CHG  1  33  -1
M  END
>  <UniqueID>  (3) 
2

>  <SMILES>  (3) 
O=C(Nc1ccccc1N1CCNCC1)c1oc(=O)c2ccccc2c1-c1ccccc1[O-]

>  <Energy>  (3) 
93.58765963011895

>  <Genealogy>  (3) 
O=C(Nc1ccccc1N1CCNCC1)c1oc(=O)c2ccccc2c1-c1ccccc1[O-] (protonated)
O=C(Nc1ccccc1N1CCNCC1)c1oc(=O)c2ccccc2c1-c1ccccc1[O-] (3D coordinates assigned)
O=C(Nc1ccccc1N1CCNCC1)c1oc(=O)c2ccccc2c1-c1ccccc1[O-] (nonaromatic ring conformer: 93.58765963011895 kcal/mol)

>  <smiles>  (3) 
O=C(Nc1ccccc1N1CCNCC1)c1oc(=O)c2ccccc2c1-c1ccccc1O

>  <score_type>  (3) 
oracle

>  <origin>  (3) 
adg

>  <m_score__min__energy>  (3) 
-12.220000000000001

>  <m_primary>  (3) 
energy

$$$$
3:0
     RDKit          3D

 55 58  0  0  0  0  0  0  0  0999 V2000
   59.0530   30.3550   46.9320 C   0  0  0  0  0  0  0  0  0  0  0  0
   58.8770   31.3830   46.0860 C   0  0  0  0  0  0  0  0  0  0  0  0
   58.0770   31.4170   44.9300 C   0  0  0  0  0  0  0  0  0  0  0  0
   57.4060   30.4410   44.2880 C   0  0  0  0  0  0  0  0  0  0  0  0
   57.2510   29.0480   44.7530 C   0  0  0  0  0  0  0  0  0  0  0  0
   56.0030   28.5520   45.1680 C   0  0  0  0  0  0  0  0  0  0  0  0
   54.8660   29.3510   45.1100 O   0  0  0  0  0  0  0  0  0  0  0  0
   55.8990   27.2800   45.6320 N   0  0  0  0  0  0  0  0  0  0  0  0
   56.9920   26.4770   45.7240 C   0  0  0  0  0  0  0  0  0  0  0  0
   56.8350   24.9480   46.2680 S   0  0  0  0  0  0  0  0  0  0  0  0
   58.2110   26.9390   45.3470 N   0  0  0  0  0  0  0  0  0  0  0  0
   58.3670   28.2070   44.8810 C   0  0  0  0  0  0  0  0  0  0  0  0
   59.5150   28.6120   44.5610 O   0  0  0  0  0  0  0  0  0  0  0  0
   58.0920   32.7320   44.4890 C   0  0  0  0  0  0  0  0  0  0  0  0
   58.9300   33.4290   45.3320 C   0  0  0  0  0  0  0  0  0  0  0  0
   59.2330   34.8920   45.2230 C   0  0  0  0  0  0  0  0  0  0  0  0
   59.3990   32.6160   46.3000 N   0  0  0  0  0  0  0  0  0  0  0  0
   60.2880   33.0050   47.3580 C   0  0  0  0  0  0  0  0  0  0  0  0
   59.7720   33.2600   48.6400 C   0  0  0  0  0  0  0  0  0  0  0  0
   60.6380   33.6000   49.6840 C   0  0  0  0  0  0  0  0  0  0  0  0
   62.0220   33.7120   49.4460 C   0  0  0  0  0  0  0  0  0  0  0  0
   62.9350   34.0480   50.5480 C   0  0  0  0  0  0  0  0  0  0  0  0
   63.3300   35.2400   50.6590 O   0  0  0  0  0  0  0  0  0  0  0  0
   63.4500   33.0070   51.4230 N   0  0  0  0  0  0  0  0  0  0  0  0
   64.3390   33.5610   52.4710 C   0  0  0  0  0  0  0  0  0  0  0  0
   65.7270   33.9830   51.9360 C   0  0  0  0  0  0  0  0  0  0  0  0
   66.0470   33.3690   50.6320 N   0  0  0  0  0  0  0  0  0  0  0  0
   67.4900   33.4630   50.3680 C   0  0  0  0  0  0  0  0  0  0  0  0
   65.6130   31.9650   50.6160 C   0  0  0  0  0  0  0  0  0  0  0  0
   64.0740   31.9020   50.6430 C   0  0  0  0  0  0  0  0  0  0  0  0
   62.5340   33.4820   48.1550 C   0  0  0  0  0  0  0  0  0  0  0  0
   61.6700   33.1100   47.1190 C   0  0  0  0  0  0  0  0  0  0  0  0
   59.7133   30.4676   47.8045 H   0  0  0  0  0  0  0  0  0  0  0  0
   58.5369   29.4003   46.7524 H   0  0  0  0  0  0  0  0  0  0  0  0
   56.9310   30.7054   43.3317 H   0  0  0  0  0  0  0  0  0  0  0  0
   57.5400   33.1407   43.6298 H   0  0  0  0  0  0  0  0  0  0  0  0
   59.3225   35.3240   46.2307 H   0  0  0  0  0  0  0  0  0  0  0  0
   60.1790   35.0310   44.6791 H   0  0  0  0  0  0  0  0  0  0  0  0
   58.4200   35.3953   44.6791 H   0  0  0  0  0  0  0  0  0  0  0  0
   58.6893   33.1923   48.8219 H   0  0  0  0  0  0  0  0  0  0  0  0
   60.2379   33.7803   50.6927 H   0  0  0  0  0  0  0  0  0  0  0  0
   62.6300   32.5870   51.9300 H   0  0  0  0  0  0  0  0  0  0  0  0
   63.8517   34.4433   52.9115 H   0  0  0  0  0  0  0  0  0  0  0  0
   64.5040   32.7651   53.2121 H   0  0  0  0  0  0  0  0  0  0  0  0
   65.7426   35.0771   51.8229 H   0  0  0  0  0  0  0  0  0  0  0  0
   66.4804   33.6375   52.6592 H   0  0  0  0  0  0  0  0  0  0  0  0
   68.0358   33.4986   51.3224 H   0  0  0  0  0  0  0  0  0  0  0  0
   67.8154   32.5841   49.7920 H   0  0  0  0  0  0  0  0  0  0  0  0
   67.6986   34.3766   49.7920 H   0  0  0  0  0  0  0  0  0  0  0  0
   65.9838   31.4771   49.7025 H   0  0  0  0  0  0  0  0  0  0  0  0
   66.0164   31.4468   51.4985 H   0  0  0  0  0  0  0  0  0  0  0  0
   63.7047   31.9540   49.6081 H   0  0  0  0  0  0  0  0  0  0  0  0
   63.7963   30.9591   51.1368 H   0  0  0  0  0  0  0  0  0  0  0  0
   63.6109   33.5945   47.9610 H   0  0  0  0  0  0  0  0  0  0  0  0
   62.0720   32.8995   46.1170 H   0  0  0  0  0  0  0  0  0  0  0  0
  1  2  2  0
  2  3  1  0
  3  4  2  3
  4  5  1  0
  5  6  2  0
  6  7  1  0
  6  8  1  0
  8  9  1  0
  9 10  2  0
  9 11  1  0
 11 12  1  0
 12 13  2  0
  3 14  1  0
 14 15  2  0
 15 16  1  0
 15 17  1  0
 17 18  1  0
 18 19  2  0
 19 20  1  0
 20 21  2  0
 21 22  1  0
 22 23  2  0
 22 24  1  0
 24 25  1  0
 25 26  1  0
 26 27  1  0
 27 28  1  0
 27 29  1  0
 29 30  1  0
 21 31  1  0
 31 32  2  0
 17  2  1  0
 32 18  1  0
 12  5  1  0
 30 24  1  0
  1 33  1  0
  1 34  1  0
  4 35  1  0
 14 36  1  0
 16 37  1  0
 16 38  1  0
 16 39  1  0
 19 40  1  0
 20 41  1  0
 24 42  1  0
 25 43  1  0
 25 44  1  0
 26 45  1  0
 26 46  1  0
 28 47  1  0
 28 48  1  0
 28 49  1  0
 29 50  1  0
 29 51  1  0
 30 52  1  0
 30 53  1  0
 31 54  1  0
 32 55  1  0
M  CHG  4   7  -1   8  -1  11  -1  24   1
M  END
>  <UniqueID>  (4) 
3

>  <SMILES>  (4) 
C=c1c(=Cc2c([O-])[n-]c(=S)[n-]c2=O)cc(C)n1-c1ccc(C(=O)[NH+]2CCN(C)CC2)cc1

>  <Energy>  (4) 
126.48208331216621

>  <Genealogy>  (4) 
C=c1c(=Cc2c([O-])[n-]c(=S)[n-]c2=O)cc(C)n1-c1ccc(C(=O)[NH+]2CCN(C)CC2)cc1 (protonated)
C=c1c(=Cc2c([O-])[n-]c(=S)[n-]c2=O)cc(C)n1-c1ccc(C(=O)[NH+]2CCN(C)CC2)cc1 (3D coordinates assigned)
C=c1c(=Cc2c([O-])[n-]c(=S)[n-]c2=O)cc(C)n1-c1ccc(C(=O)[NH+]2CCN(C)CC2)cc1 (nonaromatic ring conformer: 126.48208331216621 kcal/mol)

>  <smiles>  (4) 
C=c1c(=Cc2c(O)[nH]c(=S)[nH]c2=O)cc(C)n1-c1ccc(C(=O)N2CCN(C)CC2)cc1

>  <score_type>  (4) 
oracle

>  <origin>  (4) 
adg

>  <m_score__min__energy>  (4) 
-14.56

>  <m_primary>  (4) 
energy

$$$$
4:0
     RDKit          3D

 51 54  0  0  0  0  0  0  0  0999 V2000
   58.9940   33.5810   48.5810 H   0  0  0  0  0  0  0  0  0  0  0  0
   58.4610   32.9050   48.0490 O   0  0  0  0  0  0  0  0  0  0  0  0
   58.8270   31.5600   47.9570 C   0  0  0  0  0  0  0  0  0  0  0  0
   59.2000   30.8260   49.0820 C   0  0  0  0  0  0  0  0  0  0  0  0
   59.2090   31.3130   50.4980 C   0  0  0  0  0  0  0  0  0  0  0  0
   59.8645   30.6672   51.1007 H   0  0  0  0  0  0  0  0  0  0  0  0
   58.1840   31.2816   50.8959 H   0  0  0  0  0  0  0  0  0  0  0  0
   59.7160   32.7280   50.5550 C   0  0  0  0  0  0  0  0  0  0  0  0
   58.9070   33.6610   50.8130 O   0  0  0  0  0  0  0  0  0  0  0  0
   61.1080   33.0400   50.4000 N   0  0  0  0  0  0  0  0  0  0  0  0
   61.8290   33.0570   49.1570 C   0  0  0  0  0  0  0  0  0  0  0  0
   63.0340   32.3460   49.0630 C   0  0  0  0  0  0  0  0  0  0  0  0
   63.4059   31.7833   49.9319 H   0  0  0  0  0  0  0  0  0  0  0  0
   63.7660   32.3480   47.8710 C   0  0  0  0  0  0  0  0  0  0  0  0
   64.7015   31.7738   47.7996 H   0  0  0  0  0  0  0  0  0  0  0  0
   63.3090   33.0800   46.7690 C   0  0  0  0  0  0  0  0  0  0  0  0
   63.8790   33.0712   45.8282 H   0  0  0  0  0  0  0  0  0  0  0  0
   62.1270   33.8230   46.8640 C   0  0  0  0  0  0  0  0  0  0  0  0
   61.7758   34.4073   46.0007 H   0  0  0  0  0  0  0  0  0  0  0  0
   61.3890   33.8250   48.0560 C   0  0  0  0  0  0  0  0  0  0  0  0
   60.2410   34.6080   48.1440 O   0  0  0  0  0  0  0  0  0  0  0  0
   59.5230   29.2440   48.6070 S   0  0  0  0  0  0  0  0  0  0  0  0
   59.2160   29.5620   46.9750 C   0  0  0  0  0  0  0  0  0  0  0  0
   59.2510   28.6850   46.0110 N   0  0  0  0  0  0  0  0  0  0  0  0
   58.4240   27.5210   45.8750 C   0  0  0  0  0  0  0  0  0  0  0  0
   58.9580   26.2740   45.4960 C   0  0  0  0  0  0  0  0  0  0  0  0
   60.0412   26.1659   45.3380 H   0  0  0  0  0  0  0  0  0  0  0  0
   58.1130   25.1720   45.3200 C   0  0  0  0  0  0  0  0  0  0  0  0
   58.5352   24.1962   45.0380 H   0  0  0  0  0  0  0  0  0  0  0  0
   56.7330   25.3090   45.5020 C   0  0  0  0  0  0  0  0  0  0  0  0
   56.0722   24.4388   45.3749 H   0  0  0  0  0  0  0  0  0  0  0  0
   56.1930   26.5540   45.8460 C   0  0  0  0  0  0  0  0  0  0  0  0
   54.8200   26.6950   46.0110 O   0  0  0  0  0  0  0  0  0  0  0  0
   57.0360   27.6580   46.0220 C   0  0  0  0  0  0  0  0  0  0  0  0
   56.6072   28.6384   46.2770 H   0  0  0  0  0  0  0  0  0  0  0  0
   58.8410   30.8570   46.7810 N   0  0  0  0  0  0  0  0  0  0  0  0
   58.4520   31.4130   45.4740 C   0  0  0  0  0  0  0  0  0  0  0  0
   57.8085   32.2906   45.6345 H   0  0  0  0  0  0  0  0  0  0  0  0
   59.3652   31.6961   44.9300 H   0  0  0  0  0  0  0  0  0  0  0  0
   57.6870   30.3770   44.6350 C   0  0  1  0  0  0  0  0  0  0  0  0
   58.2714   29.4460   44.6762 H   0  0  0  0  0  0  0  0  0  0  0  0
   56.3930   30.1930   45.1670 O   0  0  0  0  0  0  0  0  0  0  0  0
   55.5040   30.0300   44.0800 C   0  0  0  0  0  0  0  0  0  0  0  0
   54.7441   30.8248   44.1065 H   0  0  0  0  0  0  0  0  0  0  0  0
   55.0136   29.0482   44.1540 H   0  0  0  0  0  0  0  0  0  0  0  0
   56.2740   30.1110   42.7740 C   0  0  0  0  0  0  0  0  0  0  0  0
   55.7281   30.7090   42.0294 H   0  0  0  0  0  0  0  0  0  0  0  0
   56.4327   29.1300   42.3024 H   0  0  0  0  0  0  0  0  0  0  0  0
   57.5490   30.7860   43.1770 C   0  0  0  0  0  0  0  0  0  0  0  0
   57.4704   31.8785   43.0757 H   0  0  0  0  0  0  0  0  0  0  0  0
   58.4121   30.5022   42.5569 H   0  0  0  0  0  0  0  0  0  0  0  0
  1  2  1  0
  2  3  1  0
  3  4  2  0
  4  5  1  0
  5  6  1  0
  5  7  1  0
  5  8  1  0
  8  9  2  0
  8 10  1  0
 10 11  1  0
 11 12  2  0
 12 13  1  0
 12 14  1  0
 14 15  1  0
 14 16  2  0
 16 17  1  0
 16 18  1  0
 18 19  1  0
 18 20  2  0
 20 21  1  0
  4 22  1  0
 22 23  1  0
 23 24  2  0
 24 25  1  0
 25 26  2  0
 26 27  1  0
 26 28  1  0
 28 29  1  0
 28 30  2  0
 30 31  1  0
 30 32  1  0
 32 33  1  0
 32 34  2  0
 34 35  1  0
 23 36  1  0
 36 37  1  0
 37 38  1  0
 37 39  1  0
 37 40  1  0
 40 41  1  6
 40 42  1  0
 42 43  1  0
 43 44  1  0
 43 45  1  0
 43 46  1  0
 46 47  1  0
 46 48  1  0
 46 49  1  0
 49 50  1  0
 49 51  1  0
 36  3  1  0
 49 40  1  0
 20 11  1  0
 34 25  1  0
M  CHG  3  10  -1  21  -1  33  -1
M  END
>  <UniqueID>  (5) 
4

>  <SMILES>  (5) 
O=C(Cc1s/c(=N\c2cccc([O-])c2)n(C[C@@H]2CCCO2)c1O)[N-]c1ccccc1[O-]

>  <Energy>  (5) 
95.17759191745067

>  <Genealogy>  (5) 
O=C(Cc1sc(=Nc2cccc([O-])c2)n(CC2CCCO2)c1O)[N-]c1ccccc1[O-] (protonated)
O=C(Cc1sc(=Nc2cccc([O-])c2)n(C[C@@H]2CCCO2)c1O)[N-]c1ccccc1[O-] (chirality)
O=C(Cc1s/c(=N\c2cccc([O-])c2)n(C[C@@H]2CCCO2)c1O)[N-]c1ccccc1[O-] (cis-trans isomerization)
O=C(Cc1s/c(=N\c2cccc([O-])c2)n(C[C@@H]2CCCO2)c1O)[N-]c1ccccc1[O-] (3D coordinates assigned)
O=C(Cc1s/c(=N\c2cccc([O-])c2)n(C[C@@H]2CCCO2)c1O)[N-]c1ccccc1[O-] (nonaromatic ring conformer: 95.17759191745067 kcal/mol)

>  <smiles>  (5) 
O=C(Cc1sc(=Nc2cccc(O)c2)n(CC2CCCO2)c1O)Nc1ccccc1O

>  <score_type>  (5) 
oracle

>  <origin>  (5) 
adg

>  <m_score__min__energy>  (5) 
-15.31

>  <m_primary>  (5) 
energy

$$$$
5:0
     RDKit          3D

 56 59  0  0  0  0  0  0  0  0999 V2000
   60.7980   30.4820   46.7590 C   0  0  0  0  0  0  0  0  0  0  0  0
   60.9840   29.3940   45.8590 O   0  0  0  0  0  0  0  0  0  0  0  0
   59.9920   28.4570   45.5300 C   0  0  0  0  0  0  0  0  0  0  0  0
   59.6230   27.5150   46.4940 C   0  0  0  0  0  0  0  0  0  0  0  0
   58.6420   26.5610   46.2170 C   0  0  0  0  0  0  0  0  0  0  0  0
   58.0080   26.5290   44.9600 C   0  0  0  0  0  0  0  0  0  0  0  0
   57.0190   25.5750   44.6590 O   0  0  0  0  0  0  0  0  0  0  0  0
   57.2180   24.4340   43.8290 C   0  0  0  0  0  0  0  0  0  0  0  0
   58.3780   27.4770   43.9800 C   0  0  0  0  0  0  0  0  0  0  0  0
   57.7520   27.4840   42.6080 C   0  0  0  0  0  0  0  0  0  0  0  0
   56.7970   28.5400   42.5300 O   0  0  0  0  0  0  0  0  0  0  0  0
   56.9130   29.7600   43.2120 C   0  0  0  0  0  0  0  0  0  0  0  0
   57.3970   30.9300   42.6080 C   0  0  0  0  0  0  0  0  0  0  0  0
   57.5040   32.0730   43.3340 N   0  0  0  0  0  0  0  0  0  0  0  0
   57.1410   32.1150   44.6420 C   0  0  0  0  0  0  0  0  0  0  0  0
   57.2970   33.2220   45.3080 N   0  0  0  0  0  0  0  0  0  0  0  0
   58.3790   33.5460   46.1980 C   0  0  0  0  0  0  0  0  0  0  0  0
   59.5810   34.1090   45.7340 C   0  0  0  0  0  0  0  0  0  0  0  0
   60.6240   34.3800   46.6250 C   0  0  0  0  0  0  0  0  0  0  0  0
   60.4910   34.0880   47.9930 C   0  0  0  0  0  0  0  0  0  0  0  0
   61.6530   34.3550   48.9300 C   0  0  2  0  0  0  0  0  0  0  0  0
   63.0080   34.1890   48.2120 C   0  0  0  0  0  0  0  0  0  0  0  0
   63.3640   32.7850   47.9580 N   0  0  0  0  0  0  0  0  0  0  0  0
   63.4030   31.9060   49.1450 C   0  0  0  0  0  0  0  0  0  0  0  0
   63.1470   32.6150   50.4780 C   0  0  0  0  0  0  0  0  0  0  0  0
   61.4960   33.3880   50.4900 S   0  0  0  0  0  0  0  0  0  0  0  0
   59.3030   33.4810   48.4420 C   0  0  0  0  0  0  0  0  0  0  0  0
   58.2620   33.2100   47.5500 C   0  0  0  0  0  0  0  0  0  0  0  0
   56.6690   30.9880   45.2430 N   0  0  0  0  0  0  0  0  0  0  0  0
   56.5420   29.8240   44.5550 C   0  0  0  0  0  0  0  0  0  0  0  0
   59.3650   28.4340   44.2720 C   0  0  0  0  0  0  0  0  0  0  0  0
   60.8606   30.1161   47.7945 H   0  0  0  0  0  0  0  0  0  0  0  0
   61.5802   31.2365   46.5888 H   0  0  0  0  0  0  0  0  0  0  0  0
   59.8096   30.9338   46.5888 H   0  0  0  0  0  0  0  0  0  0  0  0
   60.1100   27.5252   47.4803 H   0  0  0  0  0  0  0  0  0  0  0  0
   58.3618   25.8277   46.9876 H   0  0  0  0  0  0  0  0  0  0  0  0
   57.3730   23.5453   44.4584 H   0  0  0  0  0  0  0  0  0  0  0  0
   56.3325   24.2836   43.1939 H   0  0  0  0  0  0  0  0  0  0  0  0
   58.1021   24.5923   43.1939 H   0  0  0  0  0  0  0  0  0  0  0  0
   58.5329   27.6382   41.8488 H   0  0  0  0  0  0  0  0  0  0  0  0
   57.2517   26.5212   42.4268 H   0  0  0  0  0  0  0  0  0  0  0  0
   57.6895   30.9218   41.5476 H   0  0  0  0  0  0  0  0  0  0  0  0
   59.7014   34.3374   44.6647 H   0  0  0  0  0  0  0  0  0  0  0  0
   61.5575   34.8260   46.2514 H   0  0  0  0  0  0  0  0  0  0  0  0
   61.6178   35.4102   49.2387 H   0  0  0  0  0  0  0  0  0  0  0  0
   62.9592   34.7166   47.2480 H   0  0  0  0  0  0  0  0  0  0  0  0
   63.7808   34.6061   48.8744 H   0  0  0  0  0  0  0  0  0  0  0  0
   62.7100   32.3850   47.2450 H   0  0  0  0  0  0  0  0  0  0  0  0
   62.6367   31.1269   49.0191 H   0  0  0  0  0  0  0  0  0  0  0  0
   64.4256   31.5044   49.1994 H   0  0  0  0  0  0  0  0  0  0  0  0
   63.2080   31.8809   51.2950 H   0  0  0  0  0  0  0  0  0  0  0  0
   63.9059   33.3998   50.6126 H   0  0  0  0  0  0  0  0  0  0  0  0
   59.1931   33.2177   49.5043 H   0  0  0  0  0  0  0  0  0  0  0  0
   57.3428   32.7283   47.9147 H   0  0  0  0  0  0  0  0  0  0  0  0
   56.1457   28.9297   45.0580 H   0  0  0  0  0  0  0  0  0  0  0  0
   59.6498   29.1727   43.5083 H   0  0  0  0  0  0  0  0  0  0  0  0
  1  2  1  0
  2  3  1  0
  3  4  2  0
  4  5  1  0
  5  6  2  0
  6  7  1  0
  7  8  1  0
  6  9  1  0
  9 10  1  0
 10 11  1  0
 11 12  1  0
 12 13  1  0
 13 14  2  0
 14 15  1  0
 15 16  2  3
 16 17  1  0
 17 18  2  0
 18 19  1  0
 19 20  2  0
 20 21  1  0
 21 22  1  0
 22 23  1  0
 23 24  1  0
 24 25  1  0
 25 26  1  0
 20 27  1  0
 27 28  2  0
 15 29  1  0
 29 30  1  0
  9 31  2  0
 31  3  1  0
 30 12  2  0
 28 17  1  0
 26 21  1  0
  1 32  1  0
  1 33  1  0
  1 34  1  0
  4 35  1  0
  5 36  1  0
  8 37  1  0
  8 38  1  0
  8 39  1  0
 10 40  1  0
 10 41  1  0
 13 42  1  0
 18 43  1  0
 19 44  1  0
 21 45  1  1
 22 46  1  0
 22 47  1  0
 23 48  1  0
 24 49  1  0
 24 50  1  0
 25 51  1  0
 25 52  1  0
 27 53  1  0
 28 54  1  0
 30 55  1  0
 31 56  1  0
M  CHG  1  29  -1
M  END
>  <UniqueID>  (6) 
5

>  <SMILES>  (6) 
COc1ccc(OC)c(COc2cnc(=Nc3ccc([C@@H]4CNCCS4)cc3)[n-]c2)c1

>  <Energy>  (6) 
73.56880862996134

>  <Genealogy>  (6) 
COc1ccc(OC)c(COc2cnc(=Nc3ccc(C4CNCCS4)cc3)[n-]c2)c1 (protonated)
COc1ccc(OC)c(COc2cnc(=Nc3ccc([C@@H]4CNCCS4)cc3)[n-]c2)c1 (chirality)
COc1ccc(OC)c(COc2cnc(=Nc3ccc([C@@H]4CNCCS4)cc3)[n-]c2)c1 (3D coordinates assigned)
COc1ccc(OC)c(COc2cnc(=Nc3ccc([C@@H]4CNCCS4)cc3)[n-]c2)c1 (nonaromatic ring conformer: 73.56880862996134 kcal/mol)

>  <smiles>  (6) 
COc1ccc(OC)c(COc2cnc(=Nc3ccc(C4CNCCS4)cc3)[nH]c2)c1

>  <score_type>  (6) 
oracle

>  <origin>  (6) 
adg

>  <m_score__min__energy>  (6) 
-8.9100000000000001

>  <m_primary>  (6) 
energy

$$$$
6:0
     RDKit          3D

 52 55  0  0  0  0  0  0  0  0999 V2000
   56.9790   20.3180   45.3940 C   0  0  0  0  0  0  0  0  0  0  0  0
   56.2130   21.8320   44.8630 S   0  0  0  0  0  0  0  0  0  0  0  0
   54.7750   21.8500   45.3010 O   0  0  0  0  0  0  0  0  0  0  0  0
   56.2610   21.9200   43.3640 O   0  0  0  0  0  0  0  0  0  0  0  0
   57.0680   23.1990   45.5700 C   0  0  0  0  0  0  0  0  0  0  0  0
   58.4090   23.4330   45.2460 C   0  0  0  0  0  0  0  0  0  0  0  0
   59.0870   24.5250   45.7950 C   0  0  0  0  0  0  0  0  0  0  0  0
   58.4290   25.4070   46.6740 C   0  0  0  0  0  0  0  0  0  0  0  0
   59.1260   26.5360   47.2400 N   0  0  0  0  0  0  0  0  0  0  0  0
   60.4640   26.6650   47.3840 C   0  0  0  0  0  0  0  0  0  0  0  0
   60.7640   27.8780   47.9690 C   0  0  0  0  0  0  0  0  0  0  0  0
   59.5550   28.5110   48.1890 C   0  0  0  0  0  0  0  0  0  0  0  0
   59.3550   29.8390   48.7970 C   0  0  0  0  0  0  0  0  0  0  0  0
   59.0470   29.9310   50.0140 O   0  0  0  0  0  0  0  0  0  0  0  0
   59.4090   31.0240   47.9970 N   0  0  0  0  0  0  0  0  0  0  0  0
   58.8710   31.2520   46.8300 C   0  0  0  0  0  0  0  0  0  0  0  0
   58.0120   30.3120   46.3500 N   0  0  0  0  0  0  0  0  0  0  0  0
   57.3940   30.4040   45.1400 C   0  0  0  0  0  0  0  0  0  0  0  0
   56.5000   29.2700   44.6440 C   0  0  0  0  0  0  0  0  0  0  0  0
   55.1450   29.5710   44.8800 O   0  0  0  0  0  0  0  0  0  0  0  0
   56.8600   27.9130   45.2690 C   0  0  0  0  0  0  0  0  0  0  0  0
   57.9080   27.2810   44.3560 C   0  0  0  0  0  0  0  0  0  0  0  0
   57.8770   28.0590   43.0420 C   0  0  0  0  0  0  0  0  0  0  0  0
   56.7240   29.0490   43.1490 C   0  0  0  0  0  0  0  0  0  0  0  0
   57.6730   31.5020   44.3190 C   0  0  0  0  0  0  0  0  0  0  0  0
   58.5220   32.5050   44.7790 C   0  0  0  0  0  0  0  0  0  0  0  0
   59.1210   32.4110   46.0390 C   0  0  0  0  0  0  0  0  0  0  0  0
   60.0370   33.8200   46.5710 Cl  0  0  0  0  0  0  0  0  0  0  0  0
   58.5660   27.6620   47.7300 C   0  0  0  0  0  0  0  0  0  0  0  0
   57.0770   25.1690   46.9860 C   0  0  0  0  0  0  0  0  0  0  0  0
   56.4040   24.0740   46.4370 C   0  0  0  0  0  0  0  0  0  0  0  0
   56.9971   20.2821   46.4933 H   0  0  0  0  0  0  0  0  0  0  0  0
   56.4055   19.4621   45.0086 H   0  0  0  0  0  0  0  0  0  0  0  0
   58.0083   20.2730   45.0086 H   0  0  0  0  0  0  0  0  0  0  0  0
   58.9320   22.7544   44.5561 H   0  0  0  0  0  0  0  0  0  0  0  0
   60.1428   24.6969   45.5385 H   0  0  0  0  0  0  0  0  0  0  0  0
   61.2058   25.9122   47.0790 H   0  0  0  0  0  0  0  0  0  0  0  0
   61.7650   28.2641   48.2118 H   0  0  0  0  0  0  0  0  0  0  0  0
   55.1010   30.0890   45.7260 H   0  0  0  0  0  0  0  0  0  0  0  0
   57.2723   28.0568   46.2786 H   0  0  0  0  0  0  0  0  0  0  0  0
   55.9728   27.2695   45.3622 H   0  0  0  0  0  0  0  0  0  0  0  0
   58.9045   27.3545   44.8160 H   0  0  0  0  0  0  0  0  0  0  0  0
   57.6935   26.2152   44.1883 H   0  0  0  0  0  0  0  0  0  0  0  0
   58.8259   28.5960   42.8964 H   0  0  0  0  0  0  0  0  0  0  0  0
   57.7415   27.3836   42.1844 H   0  0  0  0  0  0  0  0  0  0  0  0
   56.9868   29.9972   42.6571 H   0  0  0  0  0  0  0  0  0  0  0  0
   55.8172   28.6680   42.6565 H   0  0  0  0  0  0  0  0  0  0  0  0
   57.2247   31.5723   43.3170 H   0  0  0  0  0  0  0  0  0  0  0  0
   58.7237   33.3807   44.1445 H   0  0  0  0  0  0  0  0  0  0  0  0
   57.4866   27.8719   47.7595 H   0  0  0  0  0  0  0  0  0  0  0  0
   56.5461   25.8502   47.6672 H   0  0  0  0  0  0  0  0  0  0  0  0
   55.3473   23.8992   46.6876 H   0  0  0  0  0  0  0  0  0  0  0  0
  1  2  1  0
  2  3  2  0
  2  4  2  0
  2  5  1  0
  5  6  2  0
  6  7  1  0
  7  8  2  0
  8  9  1  0
  9 10  1  0
 10 11  2  0
 11 12  1  0
 12 13  1  0
 13 14  2  0
 13 15  1  0
 15 16  2  3
 16 17  1  0
 17 18  1  0
 18 19  1  0
 19 20  1  0
 19 21  1  0
 21 22  1  0
 22 23  1  0
 23 24  1  0
 18 25  2  0
 25 26  1  0
 26 27  2  0
 27 28  1  0
 12 29  2  0
  8 30  1  0
 30 31  2  0
 31  5  1  0
 29  9  1  0
 27 16  1  0
 24 19  1  0
  1 32  1  0
  1 33  1  0
  1 34  1  0
  6 35  1  0
  7 36  1  0
 10 37  1  0
 11 38  1  0
 20 39  1  0
 21 40  1  0
 21 41  1  0
 22 42  1  0
 22 43  1  0
 23 44  1  0
 23 45  1  0
 24 46  1  0
 24 47  1  0
 25 48  1  0
 26 49  1  0
 29 50  1  0
 30 51  1  0
 31 52  1  0
M  CHG  1  17  -1
M  END
>  <UniqueID>  (7) 
6

>  <SMILES>  (7) 
CS(=O)(=O)c1ccc(-n2ccc(C(=O)N=c3[n-]c(C4(O)CCCC4)ccc3Cl)c2)cc1

>  <Energy>  (7) 
101.29233376854593

>  <Genealogy>  (7) 
CS(=O)(=O)c1ccc(-n2ccc(C(=O)N=c3[n-]c(C4(O)CCCC4)ccc3Cl)c2)cc1 (protonated)
CS(=O)(=O)c1ccc(-n2ccc(C(=O)N=c3[n-]c(C4(O)CCCC4)ccc3Cl)c2)cc1 (3D coordinates assigned)
CS(=O)(=O)c1ccc(-n2ccc(C(=O)N=c3[n-]c(C4(O)CCCC4)ccc3Cl)c2)cc1 (nonaromatic ring conformer: 101.29233376854593 kcal/mol)

>  <smiles>  (7) 
CS(=O)(=O)c1ccc(-n2ccc(C(=O)N=c3[nH]c(C4(O)CCCC4)ccc3Cl)c2)cc1

>  <score_type>  (7) 
oracle

>  <origin>  (7) 
adg

>  <m_score__min__energy>  (7) 
-11.390000000000001

>  <m_primary>  (7) 
energy

$$$$
7:0
     RDKit          3D

 59 61  0  0  0  0  0  0  0  0999 V2000
   60.4133   28.4473   45.4008 H   0  0  0  0  0  0  0  0  0  0  0  0
   60.2230   29.0860   46.2760 C   0  0  0  0  0  0  0  0  0  0  0  0
   59.0670   28.8970   47.0520 C   0  0  0  0  0  0  0  0  0  0  0  0
   58.0860   27.8270   46.7350 C   0  0  0  0  0  0  0  0  0  0  0  0
   56.9450   28.0850   45.9410 C   0  0  0  0  0  0  0  0  0  0  0  0
   56.7520   29.3810   45.3560 N   0  0  0  0  0  0  0  0  0  0  0  0
   55.8220   29.7100   44.3190 C   0  0  0  0  0  0  0  0  0  0  0  0
   54.7970   29.0020   44.1230 O   0  0  0  0  0  0  0  0  0  0  0  0
   56.0620   30.8680   43.5160 N   0  0  0  0  0  0  0  0  0  0  0  0
   57.3860   31.4400   43.2980 C   0  0  0  0  0  0  0  0  0  0  0  0
   58.1473   30.6641   43.4668 H   0  0  0  0  0  0  0  0  0  0  0  0
   57.5315   32.2748   43.9994 H   0  0  0  0  0  0  0  0  0  0  0  0
   57.5150   31.9670   41.8730 C   0  0  0  0  0  0  0  0  0  0  0  0
   57.7765   33.0351   41.8994 H   0  0  0  0  0  0  0  0  0  0  0  0
   58.3032   31.4095   41.3458 H   0  0  0  0  0  0  0  0  0  0  0  0
   56.5584   31.8366   41.3458 H   0  0  0  0  0  0  0  0  0  0  0  0
   56.0490   27.0870   45.7070 N   0  0  0  0  0  0  0  0  0  0  0  0
   56.1990   25.8310   46.2120 C   0  0  0  0  0  0  0  0  0  0  0  0
   55.3250   24.8960   45.9750 N   0  0  0  0  0  0  0  0  0  0  0  0
   55.2550   24.0430   44.8170 C   0  0  0  0  0  0  0  0  0  0  0  0
   54.1410   23.6290   44.3920 O   0  0  0  0  0  0  0  0  0  0  0  0
   56.5430   23.6130   44.1370 C   0  0  0  0  0  0  0  0  0  0  0  0
   57.4520   22.9310   45.1770 C   0  0  0  0  0  0  0  0  0  0  0  0
   57.1083   23.1889   46.1896 H   0  0  0  0  0  0  0  0  0  0  0  0
   57.4094   21.8401   45.0420 H   0  0  0  0  0  0  0  0  0  0  0  0
   58.4874   23.2770   45.0420 H   0  0  0  0  0  0  0  0  0  0  0  0
   56.2610   22.6220   42.9860 C   0  0  0  0  0  0  0  0  0  0  0  0
   55.9826   21.6436   43.4045 H   0  0  0  0  0  0  0  0  0  0  0  0
   55.4360   23.0042   42.3669 H   0  0  0  0  0  0  0  0  0  0  0  0
   57.1637   22.5126   42.3669 H   0  0  0  0  0  0  0  0  0  0  0  0
   57.2560   24.8520   43.5630 C   0  0  0  0  0  0  0  0  0  0  0  0
   57.6185   25.4819   44.3888 H   0  0  0  0  0  0  0  0  0  0  0  0
   58.1078   24.5315   42.9452 H   0  0  0  0  0  0  0  0  0  0  0  0
   56.5509   25.4274   42.9452 H   0  0  0  0  0  0  0  0  0  0  0  0
   57.3130   25.5390   46.9990 C   0  0  0  0  0  0  0  0  0  0  0  0
   57.4493   24.5282   47.4108 H   0  0  0  0  0  0  0  0  0  0  0  0
   58.2530   26.5350   47.2610 C   0  0  0  0  0  0  0  0  0  0  0  0
   59.1309   26.3077   47.8835 H   0  0  0  0  0  0  0  0  0  0  0  0
   58.8550   29.7050   48.1270 N   0  0  0  0  0  0  0  0  0  0  0  0
   59.7230   30.6920   48.4880 C   0  0  0  0  0  0  0  0  0  0  0  0
   59.4870   31.4410   49.5240 N   0  0  0  0  0  0  0  0  0  0  0  0
   59.3460   32.8980   49.4860 C   0  0  0  0  0  0  0  0  0  0  0  0
   58.5767   33.2049   50.2098 H   0  0  0  0  0  0  0  0  0  0  0  0
   60.3146   33.3528   49.7409 H   0  0  0  0  0  0  0  0  0  0  0  0
   58.9420   33.3610   48.1090 C   0  0  0  0  0  0  0  0  0  0  0  0
   57.8500   32.7710   47.4490 C   0  0  0  0  0  0  0  0  0  0  0  0
   57.2969   31.9503   47.9292 H   0  0  0  0  0  0  0  0  0  0  0  0
   57.4650   33.2250   46.1830 C   0  0  0  0  0  0  0  0  0  0  0  0
   56.6086   32.7621   45.6709 H   0  0  0  0  0  0  0  0  0  0  0  0
   58.1660   34.2650   45.5680 C   0  0  0  0  0  0  0  0  0  0  0  0
   57.8604   34.6204   44.5729 H   0  0  0  0  0  0  0  0  0  0  0  0
   59.2560   34.8550   46.2160 C   0  0  0  0  0  0  0  0  0  0  0  0
   59.9530   35.8890   45.6020 O   0  0  0  0  0  0  0  0  0  0  0  0
   59.6440   34.4040   47.4830 C   0  0  0  0  0  0  0  0  0  0  0  0
   60.5023   34.8684   47.9905 H   0  0  0  0  0  0  0  0  0  0  0  0
   60.8840   30.8970   47.7360 C   0  0  0  0  0  0  0  0  0  0  0  0
   61.5968   31.6858   48.0184 H   0  0  0  0  0  0  0  0  0  0  0  0
   61.1290   30.0910   46.6240 C   0  0  0  0  0  0  0  0  0  0  0  0
   62.0357   30.2468   46.0210 H   0  0  0  0  0  0  0  0  0  0  0  0
  1  2  1  0
  2  3  2  0
  3  4  1  0
  4  5  2  0
  5  6  1  0
  6  7  1  0
  7  8  2  0
  7  9  1  0
  9 10  1  0
 10 11  1  0
 10 12  1  0
 10 13  1  0
 13 14  1  0
 13 15  1  0
 13 16  1  0
  5 17  1  0
 17 18  1  0
 18 19  2  0
 19 20  1  0
 20 21  2  0
 20 22  1  0
 22 23  1  0
 23 24  1  0
 23 25  1  0
 23 26  1  0
 22 27  1  0
 27 28  1  0
 27 29  1  0
 27 30  1  0
 22 31  1  0
 31 32  1  0
 31 33  1  0
 31 34  1  0
 18 35  1  0
 35 36  1  0
 35 37  2  0
 37 38  1  0
  3 39  1  0
 39 40  1  0
 40 41  2  3
 41 42  1  0
 42 43  1  0
 42 44  1  0
 42 45  1  0
 45 46  2  0
 46 47  1  0
 46 48  1  0
 48 49  1  0
 48 50  2  0
 50 51  1  0
 50 52  1  0
 52 53  1  0
 52 54  2  0
 54 55  1  0
 40 56  1  0
 56 57  1  0
 56 58  2  0
 58 59  1  0
 58  2  1  0
 37  4  1  0
 54 45  1  0
M  CHG  5   6  -1   9  -1  17  -1  39  -1  53  -1
M  END
>  <UniqueID>  (8) 
7

>  <SMILES>  (8) 
CC[N-]C(=O)[N-]c1[n-]/c(=N\C(=O)C(C)(C)C)ccc1-c1cccc(=NCc2cccc([O-])c2)[n-]1

>  <Energy>  (8) 
58.47271329635321

>  <Genealogy>  (8) 
CC[N-]C(=O)[N-]c1[n-]c(=NC(=O)C(C)(C)C)ccc1-c1cccc(=NCc2cccc([O-])c2)[n-]1 (protonated)
CC[N-]C(=O)[N-]c1[n-]/c(=N\C(=O)C(C)(C)C)ccc1-c1cccc(=NCc2cccc([O-])c2)[n-]1 (cis-trans isomerization)
CC[N-]C(=O)[N-]c1[n-]/c(=N\C(=O)C(C)(C)C)ccc1-c1cccc(=NCc2cccc([O-])c2)[n-]1 (3D coordinates assigned)
CC[N-]C(=O)[N-]c1[n-]/c(=N\C(=O)C(C)(C)C)ccc1-c1cccc(=NCc2cccc([O-])c2)[n-]1 (optimized conformer: 58.47271329635321 kcal/mol)

>  <smiles>  (8) 
CCNC(=O)Nc1[nH]c(=NC(=O)C(C)(C)C)ccc1-c1cccc(=NCc2cccc(O)c2)[nH]1

>  <score_type>  (8) 
oracle

>  <origin>  (8) 
adg

>  <m_score__min__energy>  (8) 
-16.800000000000001

>  <m_primary>  (8) 
energy

$$$$
8:0
     RDKit          3D

 53 56  0  0  0  0  0  0  0  0999 V2000
   56.8450   28.6970   46.7570 H   0  0  0  0  0  0  0  0  0  0  0  0
   57.3860   29.5100   46.4880 O   0  0  0  0  0  0  0  0  0  0  0  0
   57.3050   30.0700   45.2120 C   0  0  0  0  0  0  0  0  0  0  0  0
   56.2000   29.8030   44.3850 C   0  0  0  0  0  0  0  0  0  0  0  0
   55.1740   28.9710   44.8220 O   0  0  0  0  0  0  0  0  0  0  0  0
   56.1220   30.3740   43.1110 C   0  0  0  0  0  0  0  0  0  0  0  0
   55.2572   30.1605   42.4656 H   0  0  0  0  0  0  0  0  0  0  0  0
   57.1390   31.2140   42.6570 C   0  0  0  0  0  0  0  0  0  0  0  0
   57.0724   31.6648   41.6558 H   0  0  0  0  0  0  0  0  0  0  0  0
   58.2420   31.4840   43.4710 C   0  0  0  0  0  0  0  0  0  0  0  0
   59.0388   32.1505   43.1091 H   0  0  0  0  0  0  0  0  0  0  0  0
   58.3390   30.9090   44.7490 C   0  0  0  0  0  0  0  0  0  0  0  0
   59.5190   31.2380   45.6320 C   0  0  0  0  0  0  0  0  0  0  0  0
   60.4221   31.3313   45.0109 H   0  0  0  0  0  0  0  0  0  0  0  0
   59.6499   30.4320   46.3690 H   0  0  0  0  0  0  0  0  0  0  0  0
   59.2870   32.5040   46.3440 N   0  0  0  0  0  0  0  0  0  0  0  0
   58.1850   33.2560   46.1440 C   0  0  0  0  0  0  0  0  0  0  0  0
   57.4979   33.1685   45.2894 H   0  0  0  0  0  0  0  0  0  0  0  0
   58.0600   34.1490   47.1810 C   0  0  0  0  0  0  0  0  0  0  0  0
   57.2524   34.8881   47.2884 H   0  0  0  0  0  0  0  0  0  0  0  0
   59.0770   33.9800   48.0440 N   0  0  0  0  0  0  0  0  0  0  0  0
   59.8180   32.9920   47.5020 C   0  0  0  0  0  0  0  0  0  0  0  0
   60.9510   32.6400   48.0470 N   0  0  0  0  0  0  0  0  0  0  0  0
   61.3110   31.3920   48.6500 C   0  0  0  0  0  0  0  0  0  0  0  0
   62.3650   30.8150   48.2770 O   0  0  0  0  0  0  0  0  0  0  0  0
   60.4760   30.7550   49.6280 N   0  0  0  0  0  0  0  0  0  0  0  0
   59.4510   31.3840   50.4080 C   0  0  0  0  0  0  0  0  0  0  0  0
   59.6380   32.7050   50.8300 C   0  0  0  0  0  0  0  0  0  0  0  0
   60.5607   33.2397   50.5601 H   0  0  0  0  0  0  0  0  0  0  0  0
   58.6600   33.3490   51.5920 C   0  0  0  0  0  0  0  0  0  0  0  0
   58.8074   34.3932   51.9050 H   0  0  0  0  0  0  0  0  0  0  0  0
   57.4960   32.6700   51.9570 C   0  0  0  0  0  0  0  0  0  0  0  0
   56.7235   33.1833   52.5484 H   0  0  0  0  0  0  0  0  0  0  0  0
   57.3100   31.3350   51.5710 C   0  0  0  0  0  0  0  0  0  0  0  0
   56.1020   30.5990   51.9780 C   0  0  0  0  0  0  0  0  0  0  0  0
   56.1700   29.3530   52.1410 O   0  0  0  0  0  0  0  0  0  0  0  0
   54.8610   31.2700   52.2410 N   0  0  0  0  0  0  0  0  0  0  0  0
   53.6400   31.1130   51.4540 C   0  0  0  0  0  0  0  0  0  0  0  0
   53.6439   31.8447   50.6327 H   0  0  0  0  0  0  0  0  0  0  0  0
   53.6077   30.0886   51.0544 H   0  0  0  0  0  0  0  0  0  0  0  0
   52.4160   31.3370   52.3110 C   0  0  0  0  0  0  0  0  0  0  0  0
   52.3210   30.6970   53.5600 C   0  0  0  0  0  0  0  0  0  0  0  0
   53.1220   30.0180   53.8875 H   0  0  0  0  0  0  0  0  0  0  0  0
   51.2170   30.9170   54.3880 C   0  0  0  0  0  0  0  0  0  0  0  0
   51.1553   30.4184   55.3666 H   0  0  0  0  0  0  0  0  0  0  0  0
   50.1920   31.7700   53.9730 C   0  0  0  0  0  0  0  0  0  0  0  0
   49.3261   31.9474   54.6278 H   0  0  0  0  0  0  0  0  0  0  0  0
   50.2650   32.3980   52.7280 C   0  0  0  0  0  0  0  0  0  0  0  0
   49.4533   33.0653   52.4026 H   0  0  0  0  0  0  0  0  0  0  0  0
   51.3660   32.1820   51.8930 C   0  0  0  0  0  0  0  0  0  0  0  0
   51.4070   32.8110   50.6530 O   0  0  0  0  0  0  0  0  0  0  0  0
   58.2890   30.6940   50.7980 C   0  0  0  0  0  0  0  0  0  0  0  0
   58.1474   29.6461   50.4951 H   0  0  0  0  0  0  0  0  0  0  0  0
  1  2  1  0
  2  3  1  0
  3  4  2  0
  4  5  1  0
  4  6  1  0
  6  7  1  0
  6  8  2  0
  8  9  1  0
  8 10  1  0
 10 11  1  0
 10 12  2  0
 12 13  1  0
 13 14  1  0
 13 15  1  0
 13 16  1  0
 16 17  1  0
 17 18  1  0
 17 19  2  0
 19 20  1  0
 19 21  1  0
 21 22  1  0
 22 23  2  0
 23 24  1  0
 24 25  2  0
 24 26  1  0
 26 27  1  0
 27 28  2  0
 28 29  1  0
 28 30  1  0
 30 31  1  0
 30 32  2  0
 32 33  1  0
 32 34  1  0
 34 35  1  0
 35 36  2  0
 35 37  1  0
 37 38  1  0
 38 39  1  0
 38 40  1  0
 38 41  1  0
 41 42  2  0
 42 43  1  0
 42 44  1  0
 44 45  1  0
 44 46  2  0
 46 47  1  0
 46 48  1  0
 48 49  1  0
 48 50  2  0
 50 51  1  0
 34 52  2  0
 52 53  1  0
 12  3  1  0
 22 16  1  0
 52 27  1  0
 50 41  1  0
M  CHG  5   5  -1  21  -1  26  -1  37  -1  51  -1
M  END
>  <UniqueID>  (9) 
8

>  <SMILES>  (9) 
O=C(/N=c1/[n-]ccn1Cc1cccc([O-])c1O)[N-]c1cccc(C(=O)[N-]Cc2ccccc2[O-])c1

>  <Energy>  (9) 
107.35979548136092

>  <Genealogy>  (9) 
O=C(N=c1[n-]ccn1Cc1cccc([O-])c1O)[N-]c1cccc(C(=O)[N-]Cc2ccccc2[O-])c1 (protonated)
O=C(/N=c1/[n-]ccn1Cc1cccc([O-])c1O)[N-]c1cccc(C(=O)[N-]Cc2ccccc2[O-])c1 (cis-trans isomerization)
O=C(/N=c1/[n-]ccn1Cc1cccc([O-])c1O)[N-]c1cccc(C(=O)[N-]Cc2ccccc2[O-])c1 (3D coordinates assigned)
O=C(/N=c1/[n-]ccn1Cc1cccc([O-])c1O)[N-]c1cccc(C(=O)[N-]Cc2ccccc2[O-])c1 (optimized conformer: 107.35979548136092 kcal/mol)

>  <smiles>  (9) 
O=C(N=c1[nH]ccn1Cc1cccc(O)c1O)Nc1cccc(C(=O)NCc2ccccc2O)c1

>  <score_type>  (9) 
oracle

>  <origin>  (9) 
adg

>  <m_score__min__energy>  (9) 
-20.489999999999998

>  <m_primary>  (9) 
energy

$$$$
9:0
     RDKit          3D

 54 57  0  0  0  0  0  0  0  0999 V2000
   62.0120   33.1870   49.5000 O   0  0  0  0  0  0  0  0  0  0  0  0
   60.8130   33.4930   49.2630 C   0  0  0  0  0  0  0  0  0  0  0  0
   60.5350   34.3750   48.1660 N   0  0  0  0  0  0  0  0  0  0  0  0
   59.7930   34.0480   46.9810 C   0  0  0  0  0  0  0  0  0  0  0  0
   59.4930   35.0660   46.0710 C   0  0  0  0  0  0  0  0  0  0  0  0
   58.7750   34.7830   44.9080 C   0  0  0  0  0  0  0  0  0  0  0  0
   58.3360   33.4810   44.6530 C   0  0  0  0  0  0  0  0  0  0  0  0
   58.5970   32.4490   45.5710 C   0  0  0  0  0  0  0  0  0  0  0  0
   58.1390   31.0620   45.3100 C   0  0  0  0  0  0  0  0  0  0  0  0
   56.9050   30.8320   45.1760 O   0  0  0  0  0  0  0  0  0  0  0  0
   59.0830   29.9890   45.1660 N   0  0  0  0  0  0  0  0  0  0  0  0
   58.7420   28.6000   45.3220 C   0  0  0  0  0  0  0  0  0  0  0  0
   59.7110   27.7010   45.7920 C   0  0  0  0  0  0  0  0  0  0  0  0
   59.3980   26.3510   45.9730 C   0  0  0  0  0  0  0  0  0  0  0  0
   58.1060   25.8770   45.6900 C   0  0  0  0  0  0  0  0  0  0  0  0
   57.7630   24.4510   45.8920 C   0  0  0  0  0  0  0  0  0  0  0  0
   57.7830   23.9780   47.0610 O   0  0  0  0  0  0  0  0  0  0  0  0
   57.3950   23.5960   44.7920 N   0  0  0  0  0  0  0  0  0  0  0  0
   57.8610   22.2080   44.7410 C   0  0  0  0  0  0  0  0  0  0  0  0
   56.7360   21.3090   44.2140 C   0  0  0  0  0  0  0  0  0  0  0  0
   56.2240   21.8080   42.9920 O   0  0  0  0  0  0  0  0  0  0  0  0
   55.6100   23.0650   43.2050 C   0  0  0  0  0  0  0  0  0  0  0  0
   56.6430   24.1080   43.6420 C   0  0  0  0  0  0  0  0  0  0  0  0
   57.1260   26.7830   45.2570 C   0  0  0  0  0  0  0  0  0  0  0  0
   57.4400   28.1330   45.0750 C   0  0  0  0  0  0  0  0  0  0  0  0
   59.3250   32.7450   46.7390 C   0  0  0  0  0  0  0  0  0  0  0  0
   59.7350   32.8980   50.0880 C   0  0  0  0  0  0  0  0  0  0  0  0
   59.2010   31.6350   49.7770 C   0  0  0  0  0  0  0  0  0  0  0  0
   58.1770   31.0890   50.5560 C   0  0  0  0  0  0  0  0  0  0  0  0
   57.6840   31.7900   51.6600 C   0  0  0  0  0  0  0  0  0  0  0  0
   56.3980   31.1030   52.6350 Cl  0  0  0  0  0  0  0  0  0  0  0  0
   58.2230   33.0370   51.9900 C   0  0  0  0  0  0  0  0  0  0  0  0
   59.2460   33.5880   51.2120 C   0  0  0  0  0  0  0  0  0  0  0  0
   59.8245   36.0953   46.2726 H   0  0  0  0  0  0  0  0  0  0  0  0
   58.5541   35.5869   44.1903 H   0  0  0  0  0  0  0  0  0  0  0  0
   57.7826   33.2623   43.7278 H   0  0  0  0  0  0  0  0  0  0  0  0
   60.0410   30.2200   44.8190 H   0  0  0  0  0  0  0  0  0  0  0  0
   60.7250   28.0614   46.0198 H   0  0  0  0  0  0  0  0  0  0  0  0
   60.1676   25.6555   46.3391 H   0  0  0  0  0  0  0  0  0  0  0  0
   58.7306   22.1377   44.0710 H   0  0  0  0  0  0  0  0  0  0  0  0
   58.1484   21.8808   45.7511 H   0  0  0  0  0  0  0  0  0  0  0  0
   57.1305   20.2950   44.0524 H   0  0  0  0  0  0  0  0  0  0  0  0
   55.9234   21.2902   44.9552 H   0  0  0  0  0  0  0  0  0  0  0  0
   55.1352   23.3974   42.2701 H   0  0  0  0  0  0  0  0  0  0  0  0
   54.8574   22.9595   44.0003 H   0  0  0  0  0  0  0  0  0  0  0  0
   57.3351   24.3097   42.8112 H   0  0  0  0  0  0  0  0  0  0  0  0
   56.1290   25.0388   43.9238 H   0  0  0  0  0  0  0  0  0  0  0  0
   56.1036   26.4286   45.0594 H   0  0  0  0  0  0  0  0  0  0  0  0
   56.6629   28.8341   44.7363 H   0  0  0  0  0  0  0  0  0  0  0  0
   59.5296   31.9485   47.4696 H   0  0  0  0  0  0  0  0  0  0  0  0
   59.5914   31.0733   48.9156 H   0  0  0  0  0  0  0  0  0  0  0  0
   57.7580   30.1048   50.2994 H   0  0  0  0  0  0  0  0  0  0  0  0
   57.8415   33.5859   52.8636 H   0  0  0  0  0  0  0  0  0  0  0  0
   59.6707   34.5665   51.4805 H   0  0  0  0  0  0  0  0  0  0  0  0
  1  2  2  0
  2  3  1  0
  3  4  1  0
  4  5  2  0
  5  6  1  0
  6  7  2  0
  7  8  1  0
  8  9  1  0
  9 10  2  0
  9 11  1  0
 11 12  1  0
 12 13  2  0
 13 14  1  0
 14 15  2  0
 15 16  1  0
 16 17  2  0
 16 18  1  0
 18 19  1  0
 19 20  1  0
 20 21  1  0
 21 22  1  0
 22 23  1  0
 15 24  1  0
 24 25  2  0
  8 26  2  0
  2 27  1  0
 27 28  2  0
 28 29  1  0
 29 30  2  0
 30 31  1  0
 30 32  1  0
 32 33  2  0
 26  4  1  0
 33 27  1  0
 25 12  1  0
 23 18  1  0
  5 34  1  0
  6 35  1  0
  7 36  1  0
 11 37  1  0
 13 38  1  0
 14 39  1  0
 19 40  1  0
 19 41  1  0
 20 42  1  0
 20 43  1  0
 22 44  1  0
 22 45  1  0
 23 46  1  0
 23 47  1  0
 24 48  1  0
 25 49  1  0
 26 50  1  0
 28 51  1  0
 29 52  1  0
 32 53  1  0
 33 54  1  0
M  CHG  1   3  -1
M  END
>  <UniqueID>  (10) 
9

>  <SMILES>  (10) 
O=C([N-]c1cccc(C(=O)Nc2ccc(C(=O)N3CCOCC3)cc2)c1)c1ccc(Cl)cc1

>  <Energy>  (10) 
76.52152013322383

>  <Genealogy>  (10) 
O=C([N-]c1cccc(C(=O)Nc2ccc(C(=O)N3CCOCC3)cc2)c1)c1ccc(Cl)cc1 (protonated)
O=C([N-]c1cccc(C(=O)Nc2ccc(C(=O)N3CCOCC3)cc2)c1)c1ccc(Cl)cc1 (3D coordinates assigned)
O=C([N-]c1cccc(C(=O)Nc2ccc(C(=O)N3CCOCC3)cc2)c1)c1ccc(Cl)cc1 (nonaromatic ring conformer: 76.52152013322383 kcal/mol)

>  <smiles>  (10) 
O=C(Nc1cccc(C(=O)Nc2ccc(C(=O)N3CCOCC3)cc2)c1)c1ccc(Cl)cc1

>  <score_type>  (10) 
oracle

>  <origin>  (10) 
adg

>  <m_score__min__energy>  (10) 
-11.300000000000001

>  <m_primary>  (10) 
energy

$$$$
10:0
     RDKit          3D

 40 42  0  0  0  0  0  0  0  0999 V2000
   65.1620   33.1270   50.4900 C   0  0  0  0  0  0  0  0  0  0  0  0
   64.2460   33.1120   49.3230 C   0  0  0  0  0  0  0  0  0  0  0  0
   62.8510   33.1110   49.4170 C   0  0  0  0  0  0  0  0  0  0  0  0
   62.3420   33.0950   48.1290 C   0  0  0  0  0  0  0  0  0  0  0  0
   60.9060   33.0900   47.8260 C   0  0  0  0  0  0  0  0  0  0  0  0
   60.2790   32.0280   48.0560 O   0  0  0  0  0  0  0  0  0  0  0  0
   60.2650   34.2350   47.2990 N   0  0  0  0  0  0  0  0  0  0  0  0
   58.8800   34.3380   46.9700 C   0  0  0  0  0  0  0  0  0  0  0  0
   58.4190   33.3440   45.9520 C   0  0  0  0  0  0  0  0  0  0  0  0
   57.6490   33.6740   44.8780 C   0  0  0  0  0  0  0  0  0  0  0  0
   57.4400   32.4730   44.1980 C   0  0  0  0  0  0  0  0  0  0  0  0
   58.0730   31.4390   44.8510 C   0  0  0  0  0  0  0  0  0  0  0  0
   58.0900   30.0310   44.4510 C   0  0  0  0  0  0  0  0  0  0  0  0
   59.1090   29.1190   44.6330 C   0  0  0  0  0  0  0  0  0  0  0  0
   60.4370   29.2750   45.2590 C   0  0  0  0  0  0  0  0  0  0  0  0
   58.7090   27.9200   44.1130 N   0  0  0  0  0  0  0  0  0  0  0  0
   57.5090   28.0290   43.6180 N   0  0  0  0  0  0  0  0  0  0  0  0
   57.0920   29.3190   43.8080 C   0  0  0  0  0  0  0  0  0  0  0  0
   55.7580   29.7640   43.3520 C   0  0  0  0  0  0  0  0  0  0  0  0
   58.6580   32.0140   45.9160 N   0  0  0  0  0  0  0  0  0  0  0  0
   63.3920   33.0880   47.3200 N   0  0  0  0  0  0  0  0  0  0  0  0
   64.5240   33.0970   48.0080 N   0  0  0  0  0  0  0  0  0  0  0  0
   64.5727   33.1173   51.4188 H   0  0  0  0  0  0  0  0  0  0  0  0
   65.8109   32.2394   50.4582 H   0  0  0  0  0  0  0  0  0  0  0  0
   65.7815   34.0354   50.4582 H   0  0  0  0  0  0  0  0  0  0  0  0
   62.2633   33.1211   50.3468 H   0  0  0  0  0  0  0  0  0  0  0  0
   60.9040   35.0770   47.1470 H   0  0  0  0  0  0  0  0  0  0  0  0
   58.2945   34.1882   47.8891 H   0  0  0  0  0  0  0  0  0  0  0  0
   58.7317   35.3351   46.5298 H   0  0  0  0  0  0  0  0  0  0  0  0
   57.2732   34.6712   44.6055 H   0  0  0  0  0  0  0  0  0  0  0  0
   56.8538   32.3677   43.2732 H   0  0  0  0  0  0  0  0  0  0  0  0
   60.3301   29.2624   46.3537 H   0  0  0  0  0  0  0  0  0  0  0  0
   61.0900   28.4474   44.9448 H   0  0  0  0  0  0  0  0  0  0  0  0
   60.8804   30.2314   44.9448 H   0  0  0  0  0  0  0  0  0  0  0  0
   56.9930   27.2440   43.1660 H   0  0  0  0  0  0  0  0  0  0  0  0
   55.1237   29.9756   44.2254 H   0  0  0  0  0  0  0  0  0  0  0  0
   55.8631   30.6757   42.7456 H   0  0  0  0  0  0  0  0  0  0  0  0
   55.2946   28.9718   42.7456 H   0  0  0  0  0  0  0  0  0  0  0  0
   59.2320   31.5700   46.6660 H   0  0  0  0  0  0  0  0  0  0  0  0
   65.4870   33.0950   47.5980 H   0  0  0  0  0  0  0  0  0  0  0  0
  1  2  1  0
  2  3  2  0
  3  4  1  0
  4  5  1  0
  5  6  2  0
  5  7  1  0
  7  8  1  0
  8  9  1  0
  9 10  2  0
 10 11  1  0
 11 12  2  0
 12 13  1  0
 13 14  1  0
 14 15  1  0
 14 16  2  0
 16 17  1  0
 17 18  1  0
 18 19  1  0
 12 20  1  0
  4 21  2  0
 21 22  1  0
 22  2  1  0
 20  9  1  0
 18 13  2  0
  1 23  1  0
  1 24  1  0
  1 25  1  0
  3 26  1  0
  7 27  1  0
  8 28  1  0
  8 29  1  0
 10 30  1  0
 11 31  1  0
 15 32  1  0
 15 33  1  0
 15 34  1  0
 17 35  1  0
 19 36  1  0
 19 37  1  0
 19 38  1  0
 20 39  1  0
 22 40  1  0
M  END
>  <smiles>  (11) 
Cc1cc(C(=O)NCc2ccc(-c3c(C)n[nH]c3C)[nH]2)n[nH]1

>  <score_type>  (11) 
oracle

>  <origin>  (11) 
adg

>  <m_score__min__energy>  (11) 
-7.54

>  <m_primary>  (11) 
energy

$$$$
11:0
     RDKit          3D

 33 35  0  0  0  0  0  0  0  0999 V2000
   53.6370   26.5690   46.3710 H   0  0  0  0  0  0  0  0  0  0  0  0
   54.4250   26.0070   45.9770 N   0  0  0  0  0  0  0  0  0  0  0  0
   55.6420   26.4420   46.0000 C   0  0  0  0  0  0  0  0  0  0  0  0
   55.9320   27.6930   45.5580 N   0  0  0  0  0  0  0  0  0  0  0  0
   57.2020   28.1810   45.5750 C   0  0  0  0  0  0  0  0  0  0  0  0
   57.4290   29.5590   45.0810 C   0  0  0  0  0  0  0  0  0  0  0  0
   56.9700   29.9260   43.8060 C   0  0  0  0  0  0  0  0  0  0  0  0
   56.4529   29.1868   43.1765 H   0  0  0  0  0  0  0  0  0  0  0  0
   57.1670   31.2260   43.3330 C   0  0  0  0  0  0  0  0  0  0  0  0
   56.8198   31.5016   42.3263 H   0  0  0  0  0  0  0  0  0  0  0  0
   57.8030   32.1760   44.1340 C   0  0  0  0  0  0  0  0  0  0  0  0
   57.9706   33.1932   43.7504 H   0  0  0  0  0  0  0  0  0  0  0  0
   58.2300   31.8360   45.4300 C   0  0  0  0  0  0  0  0  0  0  0  0
   58.8750   32.7610   46.2640 O   0  0  0  0  0  0  0  0  0  0  0  0
   60.2220   32.7050   46.6520 C   0  0  0  0  0  0  0  0  0  0  0  0
   60.7770   31.5620   47.2590 C   0  0  0  0  0  0  0  0  0  0  0  0
   60.1450   30.6830   47.4537 H   0  0  0  0  0  0  0  0  0  0  0  0
   62.1290   31.5410   47.6150 C   0  0  0  0  0  0  0  0  0  0  0  0
   62.5562   30.6501   48.0985 H   0  0  0  0  0  0  0  0  0  0  0  0
   62.9380   32.6510   47.3570 C   0  0  0  0  0  0  0  0  0  0  0  0
   64.0002   32.6352   47.6426 H   0  0  0  0  0  0  0  0  0  0  0  0
   62.3990   33.7800   46.7370 C   0  0  0  0  0  0  0  0  0  0  0  0
   63.0384   34.6506   46.5290 H   0  0  0  0  0  0  0  0  0  0  0  0
   61.0460   33.8050   46.3800 C   0  0  0  0  0  0  0  0  0  0  0  0
   60.6274   34.6928   45.8834 H   0  0  0  0  0  0  0  0  0  0  0  0
   58.0500   30.5260   45.8910 C   0  0  0  0  0  0  0  0  0  0  0  0
   58.3981   30.2506   46.8975 H   0  0  0  0  0  0  0  0  0  0  0  0
   58.2490   27.3550   46.0430 C   0  0  0  0  0  0  0  0  0  0  0  0
   59.6300   27.7800   46.0040 C   0  0  0  0  0  0  0  0  0  0  0  0
   60.7370   28.1200   45.9740 N   0  0  0  0  0  0  0  0  0  0  0  0
   57.9230   26.0670   46.4960 C   0  0  0  0  0  0  0  0  0  0  0  0
   58.8190   25.2910   46.9260 O   0  0  0  0  0  0  0  0  0  0  0  0
   56.6340   25.6430   46.4670 N   0  0  0  0  0  0  0  0  0  0  0  0
  1  2  1  0
  2  3  2  0
  3  4  1  0
  4  5  1  0
  5  6  1  0
  6  7  2  0
  7  8  1  0
  7  9  1  0
  9 10  1  0
  9 11  2  0
 11 12  1  0
 11 13  1  0
 13 14  1  0
 14 15  1  0
 15 16  2  0
 16 17  1  0
 16 18  1  0
 18 19  1  0
 18 20  2  0
 20 21  1  0
 20 22  1  0
 22 23  1  0
 22 24  2  0
 24 25  1  0
 13 26  2  0
 26 27  1  0
  5 28  2  0
 28 29  1  0
 29 30  3  0
 28 31  1  0
 31 32  2  0
 31 33  1  0
 33  3  1  0
 26  6  1  0
 24 15  1  0
M  CHG  2   4  -1  33  -1
M  END
>  <UniqueID>  (12) 
10

>  <SMILES>  (12) 
[H]/N=c1\[n-]c(-c2cccc(Oc3ccccc3)c2)c(C#N)c(=O)[n-]1

>  <Energy>  (12) 
50.39564814529148

>  <Genealogy>  (12) 
N#Cc1c(-c2cccc(Oc3ccccc3)c2)[n-]c(=N)[n-]c1=O (protonated)
[H]/N=c1\[n-]c(-c2cccc(Oc3ccccc3)c2)c(C#N)c(=O)[n-]1 (cis-trans isomerization)
[H]/N=c1\[n-]c(-c2cccc(Oc3ccccc3)c2)c(C#N)c(=O)[n-]1 (3D coordinates assigned)
[H]/N=c1\[n-]c(-c2cccc(Oc3ccccc3)c2)c(C#N)c(=O)[n-]1 (optimized conformer: 50.39564814529148 kcal/mol)

>  <smiles>  (12) 
N#Cc1c(-c2cccc(Oc3ccccc3)c2)[nH]c(=N)[nH]c1=O

>  <score_type>  (12) 
oracle

>  <origin>  (12) 
adg

>  <m_score__min__energy>  (12) 
-12.27

>  <m_primary>  (12) 
energy

$$$$
12:0
     RDKit          3D

 27 28  0  0  0  0  0  0  0  0999 V2000
   56.0707   22.1260   42.5148 H   0  0  0  0  0  0  0  0  0  0  0  0
   56.3520   22.2200   43.5740 C   0  0  0  0  0  0  0  0  0  0  0  0
   55.8130   23.2090   44.3350 N   0  0  0  0  0  0  0  0  0  0  0  0
   56.1370   23.3690   45.6500 C   0  0  0  0  0  0  0  0  0  0  0  0
   55.5970   24.3140   46.3660 N   0  0  0  0  0  0  0  0  0  0  0  0
   55.5740   25.7150   46.0470 C   0  0  0  0  0  0  0  0  0  0  0  0
   54.4580   26.2930   45.9650 O   0  0  0  0  0  0  0  0  0  0  0  0
   56.8160   26.5110   45.8930 C   0  0  0  0  0  0  0  0  0  0  0  0
   58.0630   25.9160   46.1490 C   0  0  0  0  0  0  0  0  0  0  0  0
   58.1114   24.8601   46.4535 H   0  0  0  0  0  0  0  0  0  0  0  0
   59.2410   26.6540   46.0200 C   0  0  0  0  0  0  0  0  0  0  0  0
   60.2121   26.1757   46.2155 H   0  0  0  0  0  0  0  0  0  0  0  0
   59.1900   27.9960   45.6440 C   0  0  0  0  0  0  0  0  0  0  0  0
   60.1220   28.5706   45.5381 H   0  0  0  0  0  0  0  0  0  0  0  0
   57.9550   28.6170   45.4000 C   0  0  0  0  0  0  0  0  0  0  0  0
   57.9040   30.0610   44.9860 C   0  0  0  0  0  0  0  0  0  0  0  0
   57.8815   30.6987   45.8820 H   0  0  0  0  0  0  0  0  0  0  0  0
   58.7942   30.3022   44.3865 H   0  0  0  0  0  0  0  0  0  0  0  0
   56.9990   30.2388   44.3865 H   0  0  0  0  0  0  0  0  0  0  0  0
   56.7660   27.8710   45.5200 C   0  0  0  0  0  0  0  0  0  0  0  0
   55.5420   28.4790   45.2530 O   0  0  0  0  0  0  0  0  0  0  0  0
   57.0410   22.4780   46.2490 C   0  0  0  0  0  0  0  0  0  0  0  0
   57.3810   22.6050   47.5910 O   0  0  0  0  0  0  0  0  0  0  0  0
   57.6050   21.4540   45.4820 C   0  0  0  0  0  0  0  0  0  0  0  0
   58.3180   20.7521   45.9391 H   0  0  0  0  0  0  0  0  0  0  0  0
   57.2620   21.3240   44.1360 C   0  0  0  0  0  0  0  0  0  0  0  0
   57.7042   20.5238   43.5244 H   0  0  0  0  0  0  0  0  0  0  0  0
  1  2  1  0
  2  3  1  0
  3  4  1  0
  4  5  2  0
  5  6  1  0
  6  7  2  0
  6  8  1  0
  8  9  2  0
  9 10  1  0
  9 11  1  0
 11 12  1  0
 11 13  2  0
 13 14  1  0
 13 15  1  0
 15 16  1  0
 16 17  1  0
 16 18  1  0
 16 19  1  0
 15 20  2  0
 20 21  1  0
  4 22  1  0
 22 23  1  0
 22 24  2  0
 24 25  1  0
 24 26  1  0
 26 27  1  0
 26  2  2  0
 20  8  1  0
M  CHG  3   3  -1  21  -1  23  -1
M  END
>  <UniqueID>  (13) 
11

>  <SMILES>  (13) 
Cc1cccc(C(=O)/N=c2\[n-]cccc2[O-])c1[O-]

>  <Energy>  (13) 
37.99724042525548

>  <Genealogy>  (13) 
Cc1cccc(C(=O)N=c2[n-]cccc2[O-])c1[O-] (protonated)
Cc1cccc(C(=O)/N=c2\[n-]cccc2[O-])c1[O-] (cis-trans isomerization)
Cc1cccc(C(=O)/N=c2\[n-]cccc2[O-])c1[O-] (3D coordinates assigned)
Cc1cccc(C(=O)/N=c2\[n-]cccc2[O-])c1[O-] (optimized conformer: 37.99724042525548 kcal/mol)

>  <smiles>  (13) 
Cc1cccc(C(=O)N=c2[nH]cccc2O)c1O

>  <score_type>  (13) 
oracle

>  <origin>  (13) 
adg

>  <m_score__min__energy>  (13) 
-14.68

>  <m_primary>  (13) 
energy

$$$$
13:0
     RDKit          3D

 59 62  0  0  0  0  0  0  0  0999 V2000
   63.3360   33.3510   47.0530 C   0  0  0  0  0  0  0  0  0  0  0  0
   62.4680   32.1730   47.4810 C   0  0  0  0  0  0  0  0  0  0  0  0
   61.0050   32.4830   47.2800 C   0  0  0  0  0  0  0  0  0  0  0  0
   60.6060   33.8140   47.0630 C   0  0  0  0  0  0  0  0  0  0  0  0
   59.2550   34.1280   46.9040 C   0  0  0  0  0  0  0  0  0  0  0  0
   58.2900   33.1220   46.9550 C   0  0  0  0  0  0  0  0  0  0  0  0
   58.6700   31.7970   47.1830 C   0  0  0  0  0  0  0  0  0  0  0  0
   60.0250   31.4710   47.3730 C   0  0  0  0  0  0  0  0  0  0  0  0
   60.4240   30.1120   47.6090 N   0  0  0  0  0  0  0  0  0  0  0  0
   59.7570   29.1720   48.4610 C   0  0  0  0  0  0  0  0  0  0  0  0
   58.5700   29.4120   48.8010 O   0  0  0  0  0  0  0  0  0  0  0  0
   60.4070   27.9010   48.8560 C   0  0  0  0  0  0  0  0  0  0  0  0
   60.9800   27.8280   49.9750 O   0  0  0  0  0  0  0  0  0  0  0  0
   60.4240   26.7460   48.0090 N   0  0  0  0  0  0  0  0  0  0  0  0
   60.3540   26.7530   46.5540 C   0  0  0  0  0  0  0  0  0  0  0  0
   59.1830   25.9360   46.1070 C   0  0  0  0  0  0  0  0  0  0  0  0
   59.3310   24.6820   45.6110 N   0  0  0  0  0  0  0  0  0  0  0  0
   58.0650   24.3170   45.3320 C   0  0  0  0  0  0  0  0  0  0  0  0
   57.1950   25.3080   45.6500 C   0  0  0  0  0  0  0  0  0  0  0  0
   55.8300   25.1340   45.4210 C   0  0  0  0  0  0  0  0  0  0  0  0
   55.0100   26.0600   45.6670 O   0  0  0  0  0  0  0  0  0  0  0  0
   55.4020   23.9280   44.9080 N   0  0  0  0  0  0  0  0  0  0  0  0
   53.9710   23.7140   44.6330 C   0  0  0  0  0  0  0  0  0  0  0  0
   56.3170   22.9400   44.5870 C   0  0  0  0  0  0  0  0  0  0  0  0
   55.9120   21.8440   44.1050 O   0  0  0  0  0  0  0  0  0  0  0  0
   57.6650   23.1370   44.7850 N   0  0  0  0  0  0  0  0  0  0  0  0
   58.6420   22.0770   44.4910 C   0  0  0  0  0  0  0  0  0  0  0  0
   57.8860   26.3510   46.1600 N   0  0  0  0  0  0  0  0  0  0  0  0
   57.3960   27.6470   46.6440 C   0  0  0  0  0  0  0  0  0  0  0  0
   57.3870   28.6640   45.5350 C   0  0  0  0  0  0  0  0  0  0  0  0
   58.5780   29.3030   45.1460 C   0  0  0  0  0  0  0  0  0  0  0  0
   58.5660   30.2480   44.1160 C   0  0  0  0  0  0  0  0  0  0  0  0
   57.3680   30.5590   43.4610 C   0  0  0  0  0  0  0  0  0  0  0  0
   57.3630   31.4730   42.4540 F   0  0  0  0  0  0  0  0  0  0  0  0
   56.1820   29.9220   43.8380 C   0  0  0  0  0  0  0  0  0  0  0  0
   56.1880   28.9760   44.8670 C   0  0  0  0  0  0  0  0  0  0  0  0
   63.7175   33.8687   47.9455 H   0  0  0  0  0  0  0  0  0  0  0  0
   64.1815   32.9843   46.4524 H   0  0  0  0  0  0  0  0  0  0  0  0
   62.7353   34.0499   46.4524 H   0  0  0  0  0  0  0  0  0  0  0  0
   62.7354   31.2912   46.8802 H   0  0  0  0  0  0  0  0  0  0  0  0
   62.6428   31.9766   48.5491 H   0  0  0  0  0  0  0  0  0  0  0  0
   61.3622   34.6116   47.0183 H   0  0  0  0  0  0  0  0  0  0  0  0
   58.9506   35.1719   46.7380 H   0  0  0  0  0  0  0  0  0  0  0  0
   57.2280   33.3723   46.8155 H   0  0  0  0  0  0  0  0  0  0  0  0
   57.9065   31.0057   47.2140 H   0  0  0  0  0  0  0  0  0  0  0  0
   60.2371   27.7870   46.1975 H   0  0  0  0  0  0  0  0  0  0  0  0
   61.2790   26.3249   46.1404 H   0  0  0  0  0  0  0  0  0  0  0  0
   53.4232   23.6321   45.5834 H   0  0  0  0  0  0  0  0  0  0  0  0
   53.5777   24.5633   44.0551 H   0  0  0  0  0  0  0  0  0  0  0  0
   53.8433   22.7868   44.0551 H   0  0  0  0  0  0  0  0  0  0  0  0
   59.0259   21.6604   45.4339 H   0  0  0  0  0  0  0  0  0  0  0  0
   58.1548   21.2803   43.9096 H   0  0  0  0  0  0  0  0  0  0  0  0
   59.4757   22.4977   43.9096 H   0  0  0  0  0  0  0  0  0  0  0  0
   56.3729   27.5246   47.0291 H   0  0  0  0  0  0  0  0  0  0  0  0
   58.0659   28.0013   47.4413 H   0  0  0  0  0  0  0  0  0  0  0  0
   59.5224   29.0582   45.6541 H   0  0  0  0  0  0  0  0  0  0  0  0
   59.4996   30.7484   43.8194 H   0  0  0  0  0  0  0  0  0  0  0  0
   55.2410   30.1661   43.3232 H   0  0  0  0  0  0  0  0  0  0  0  0
   55.2528   28.4738   45.1556 H   0  0  0  0  0  0  0  0  0  0  0  0
  1  2  1  0
  2  3  1  0
  3  4  2  0
  4  5  1  0
  5  6  2  0
  6  7  1  0
  7  8  2  0
  8  9  1  0
  9 10  1  0
 10 11  2  0
 10 12  1  0
 12 13  2  0
 12 14  1  0
 14 15  1  0
 15 16  1  0
 16 17  2  0
 17 18  1  0
 18 19  2  0
 19 20  1  0
 20 21  2  0
 20 22  1  0
 22 23  1  0
 22 24  1  0
 24 25  2  0
 24 26  1  0
 26 27  1  0
 19 28  1  0
 28 29  1  0
 29 30  1  0
 30 31  2  0
 31 32  1  0
 32 33  2  0
 33 34  1  0
 33 35  1  0
 35 36  2  0
  8  3  1  0
 28 16  1  0
 36 30  1  0
 26 18  1  0
  1 37  1  0
  1 38  1  0
  1 39  1  0
  2 40  1  0
  2 41  1  0
  4 42  1  0
  5 43  1  0
  6 44  1  0
  7 45  1  0
 15 46  1  0
 15 47  1  0
 23 48  1  0
 23 49  1  0
 23 50  1  0
 27 51  1  0
 27 52  1  0
 27 53  1  0
 29 54  1  0
 29 55  1  0
 31 56  1  0
 32 57  1  0
 35 58  1  0
 36 59  1  0
M  CHG  2   9  -1  14  -1
M  END
>  <UniqueID>  (14) 
12

>  <SMILES>  (14) 
CCc1ccccc1[N-]C(=O)C(=O)[N-]Cc1nc2c(c(=O)n(C)c(=O)n2C)n1Cc1ccc(F)cc1

>  <Energy>  (14) 
109.08154321056189

>  <Genealogy>  (14) 
CCc1ccccc1[N-]C(=O)C(=O)[N-]Cc1nc2c(c(=O)n(C)c(=O)n2C)n1Cc1ccc(F)cc1 (protonated)
CCc1ccccc1[N-]C(=O)C(=O)[N-]Cc1nc2c(c(=O)n(C)c(=O)n2C)n1Cc1ccc(F)cc1 (3D coordinates assigned)
CCc1ccccc1[N-]C(=O)C(=O)[N-]Cc1nc2c(c(=O)n(C)c(=O)n2C)n1Cc1ccc(F)cc1 (optimized conformer: 109.08154321056189 kcal/mol)

>  <smiles>  (14) 
CCc1ccccc1NC(=O)C(=O)NCc1nc2c(c(=O)n(C)c(=O)n2C)n1Cc1ccc(F)cc1

>  <score_type>  (14) 
oracle

>  <origin>  (14) 
adg

>  <m_score__min__energy>  (14) 
-12.33

>  <m_primary>  (14) 
energy

$$$$
14:0
     RDKit          3D

 54 58  0  0  0  0  0  0  0  0999 V2000
   58.4700   29.5920   47.5960 C   0  0  0  0  0  0  0  0  0  0  0  0
   57.9770   29.3710   46.3680 C   0  0  0  0  0  0  0  0  0  0  0  0
   57.6290   28.1290   45.8250 C   0  0  0  0  0  0  0  0  0  0  0  0
   57.7100   26.9230   46.4200 C   0  0  0  0  0  0  0  0  0  0  0  0
   57.0670   25.7040   45.8800 C   0  0  0  0  0  0  0  0  0  0  0  0
   55.6770   25.6250   45.6890 C   0  0  0  0  0  0  0  0  0  0  0  0
   54.8570   26.7040   46.0040 O   0  0  0  0  0  0  0  0  0  0  0  0
   55.1250   24.4940   45.1730 N   0  0  0  0  0  0  0  0  0  0  0  0
   55.9020   23.4390   44.8130 C   0  0  0  0  0  0  0  0  0  0  0  0
   55.3760   22.4000   44.3340 O   0  0  0  0  0  0  0  0  0  0  0  0
   57.2490   23.5050   44.9620 N   0  0  0  0  0  0  0  0  0  0  0  0
   57.8470   24.6080   45.4770 C   0  0  0  0  0  0  0  0  0  0  0  0
   59.1020   24.6340   45.5980 O   0  0  0  0  0  0  0  0  0  0  0  0
   57.1290   28.3840   44.5550 C   0  0  0  0  0  0  0  0  0  0  0  0
   57.2080   29.7500   44.3670 C   0  0  0  0  0  0  0  0  0  0  0  0
   56.7530   30.4650   43.1300 C   0  0  0  0  0  0  0  0  0  0  0  0
   57.7160   30.3500   45.4670 N   0  0  0  0  0  0  0  0  0  0  0  0
   57.9380   31.7630   45.6240 C   0  0  0  0  0  0  0  0  0  0  0  0
   57.1840   32.6820   44.8800 C   0  0  0  0  0  0  0  0  0  0  0  0
   57.3950   34.0530   45.0400 C   0  0  0  0  0  0  0  0  0  0  0  0
   58.3510   34.5160   45.9460 C   0  0  0  0  0  0  0  0  0  0  0  0
   59.1020   33.6090   46.7120 C   0  0  0  0  0  0  0  0  0  0  0  0
   60.1220   34.0920   47.6680 C   0  0  0  0  0  0  0  0  0  0  0  0
   59.8080   34.9700   48.5170 O   0  0  0  0  0  0  0  0  0  0  0  0
   61.4720   33.6000   47.6220 N   0  0  0  0  0  0  0  0  0  0  0  0
   62.3150   33.6620   46.4230 C   0  0  0  0  0  0  0  0  0  0  0  0
   63.7730   33.4620   46.9060 C   0  0  0  0  0  0  0  0  0  0  0  0
   63.6290   33.3090   48.3790 C   0  0  0  0  0  0  0  0  0  0  0  0
   64.6340   33.0900   49.3210 C   0  0  0  0  0  0  0  0  0  0  0  0
   64.2690   32.9530   50.6710 C   0  0  0  0  0  0  0  0  0  0  0  0
   62.9150   33.0310   51.0490 C   0  0  0  0  0  0  0  0  0  0  0  0
   61.9210   33.2500   50.0810 C   0  0  0  0  0  0  0  0  0  0  0  0
   62.3140   33.4000   48.7460 C   0  0  0  0  0  0  0  0  0  0  0  0
   58.8990   32.2290   46.5340 C   0  0  0  0  0  0  0  0  0  0  0  0
   58.7086   30.6168   47.9167 H   0  0  0  0  0  0  0  0  0  0  0  0
   58.6356   28.7484   48.2822 H   0  0  0  0  0  0  0  0  0  0  0  0
   58.2834   26.8399   47.3551 H   0  0  0  0  0  0  0  0  0  0  0  0
   54.0880   24.4440   45.0420 H   0  0  0  0  0  0  0  0  0  0  0  0
   56.7450   27.6429   43.8386 H   0  0  0  0  0  0  0  0  0  0  0  0
   56.1824   31.3616   43.4137 H   0  0  0  0  0  0  0  0  0  0  0  0
   57.6291   30.7611   42.5344 H   0  0  0  0  0  0  0  0  0  0  0  0
   56.1137   29.7967   42.5344 H   0  0  0  0  0  0  0  0  0  0  0  0
   56.4253   32.3223   44.1694 H   0  0  0  0  0  0  0  0  0  0  0  0
   56.8060   34.7707   44.4502 H   0  0  0  0  0  0  0  0  0  0  0  0
   58.5171   35.5973   46.0607 H   0  0  0  0  0  0  0  0  0  0  0  0
   62.0344   32.8651   45.7185 H   0  0  0  0  0  0  0  0  0  0  0  0
   62.1954   34.6219   45.8993 H   0  0  0  0  0  0  0  0  0  0  0  0
   64.2162   32.5605   46.4579 H   0  0  0  0  0  0  0  0  0  0  0  0
   64.4374   34.2917   46.6228 H   0  0  0  0  0  0  0  0  0  0  0  0
   65.6884   33.0260   49.0141 H   0  0  0  0  0  0  0  0  0  0  0  0
   65.0429   32.7844   51.4343 H   0  0  0  0  0  0  0  0  0  0  0  0
   62.6344   32.9200   52.1068 H   0  0  0  0  0  0  0  0  0  0  0  0
   60.8596   33.3023   50.3652 H   0  0  0  0  0  0  0  0  0  0  0  0
   59.4977   31.5098   47.1122 H   0  0  0  0  0  0  0  0  0  0  0  0
  1  2  2  0
  2  3  1  0
  3  4  2  3
  4  5  1  0
  5  6  2  0
  6  7  1  0
  6  8  1  0
  8  9  1  0
  9 10  2  0
  9 11  1  0
 11 12  1  0
 12 13  2  0
  3 14  1  0
 14 15  2  0
 15 16  1  0
 15 17  1  0
 17 18  1  0
 18 19  2  0
 19 20  1  0
 20 21  2  0
 21 22  1  0
 22 23  1  0
 23 24  2  0
 23 25  1  0
 25 26  1  0
 26 27  1  0
 27 28  1  0
 28 29  2  0
 29 30  1  0
 30 31  2  0
 31 32  1  0
 32 33  2  0
 22 34  2  0
 17  2  1  0
 34 18  1  0
 12  5  1  0
 33 25  1  0
 33 28  1  0
  1 35  1  0
  1 36  1  0
  4 37  1  0
  8 38  1  0
 14 39  1  0
 16 40  1  0
 16 41  1  0
 16 42  1  0
 19 43  1  0
 20 44  1  0
 21 45  1  0
 26 46  1  0
 26 47  1  0
 27 48  1  0
 27 49  1  0
 29 50  1  0
 30 51  1  0
 31 52  1  0
 32 53  1  0
 34 54  1  0
M  CHG  2   7  -1  11  -1
M  END
>  <UniqueID>  (15) 
13

>  <SMILES>  (15) 
C=c1c(=Cc2c([O-])[nH]c(=O)[n-]c2=O)cc(C)n1-c1cccc(C(=O)N2CCc3ccccc32)c1

>  <Energy>  (15) 
124.93829330899624

>  <Genealogy>  (15) 
C=c1c(=Cc2c([O-])[nH]c(=O)[n-]c2=O)cc(C)n1-c1cccc(C(=O)N2CCc3ccccc32)c1 (protonated)
C=c1c(=Cc2c([O-])[nH]c(=O)[n-]c2=O)cc(C)n1-c1cccc(C(=O)N2CCc3ccccc32)c1 (3D coordinates assigned)
C=c1c(=Cc2c([O-])[nH]c(=O)[n-]c2=O)cc(C)n1-c1cccc(C(=O)N2CCc3ccccc32)c1 (nonaromatic ring conformer: 124.93829330899624 kcal/mol)

>  <smiles>  (15) 
C=c1c(=Cc2c(O)[nH]c(=O)[nH]c2=O)cc(C)n1-c1cccc(C(=O)N2CCc3ccccc32)c1

>  <score_type>  (15) 
oracle

>  <origin>  (15) 
adg

>  <m_score__min__energy>  (15) 
-16.239999999999998

>  <m_primary>  (15) 
energy

$$$$
15:0
     RDKit          3D

 43 45  0  0  0  0  0  0  0  0999 V2000
   59.6160   29.9760   53.1340 N   0  0  0  0  0  0  0  0  0  0  0  0
   59.5930   31.2470   52.4710 C   0  0  0  0  0  0  0  0  0  0  0  0
   60.7850   31.7500   51.9210 C   0  0  0  0  0  0  0  0  0  0  0  0
   60.8160   33.0210   51.3410 C   0  0  0  0  0  0  0  0  0  0  0  0
   59.6590   33.8050   51.3080 C   0  0  0  0  0  0  0  0  0  0  0  0
   58.4650   33.3130   51.8380 C   0  0  0  0  0  0  0  0  0  0  0  0
   58.4120   32.0280   52.4010 C   0  0  0  0  0  0  0  0  0  0  0  0
   57.1590   31.5440   52.9040 N   0  0  0  0  0  0  0  0  0  0  0  0
   56.6620   30.2350   52.5840 C   0  0  0  0  0  0  0  0  0  0  0  0
   57.1860   29.5820   51.6390 O   0  0  0  0  0  0  0  0  0  0  0  0
   55.5400   29.6410   53.3490 C   0  0  0  0  0  0  0  0  0  0  0  0
   54.7120   28.6600   52.7720 C   0  0  0  0  0  0  0  0  0  0  0  0
   53.6250   28.1450   53.4810 C   0  0  0  0  0  0  0  0  0  0  0  0
   53.3450   28.6000   54.7780 C   0  0  0  0  0  0  0  0  0  0  0  0
   52.0840   28.1750   55.4780 C   0  0  0  0  0  0  0  0  0  0  0  0
   51.0840   29.2240   55.3340 N   0  0  0  0  0  0  0  0  0  0  0  0
   50.7860   29.8360   54.0770 C   0  0  0  0  0  0  0  0  0  0  0  0
   50.0430   29.2520   53.2440 O   0  0  0  0  0  0  0  0  0  0  0  0
   51.4630   31.1090   53.7020 C   0  0  0  0  0  0  0  0  0  0  0  0
   51.4620   31.2400   52.2110 C   0  0  0  0  0  0  0  0  0  0  0  0
   51.7370   30.2310   51.3660 N   0  0  0  0  0  0  0  0  0  0  0  0
   51.4870   30.7670   50.1510 C   0  0  0  0  0  0  0  0  0  0  0  0
   51.6340   30.1180   49.0820 O   0  0  0  0  0  0  0  0  0  0  0  0
   51.0520   32.0430   50.1740 N   0  0  0  0  0  0  0  0  0  0  0  0
   51.0360   32.3240   51.4860 C   0  0  0  0  0  0  0  0  0  0  0  0
   50.6270   33.5430   52.0130 O   0  0  0  0  0  0  0  0  0  0  0  0
   54.1690   29.5760   55.3560 C   0  0  0  0  0  0  0  0  0  0  0  0
   55.2570   30.0900   54.6500 C   0  0  0  0  0  0  0  0  0  0  0  0
   58.8730   29.2610   52.9430 H   0  0  0  0  0  0  0  0  0  0  0  0
   60.4120   29.6900   53.7450 H   0  0  0  0  0  0  0  0  0  0  0  0
   61.6993   31.1390   51.9474 H   0  0  0  0  0  0  0  0  0  0  0  0
   61.7522   33.4052   50.9098 H   0  0  0  0  0  0  0  0  0  0  0  0
   59.6895   34.8109   50.8638 H   0  0  0  0  0  0  0  0  0  0  0  0
   57.5591   33.9366   51.8144 H   0  0  0  0  0  0  0  0  0  0  0  0
   56.4950   32.2380   53.3130 H   0  0  0  0  0  0  0  0  0  0  0  0
   54.9227   28.2965   51.7554 H   0  0  0  0  0  0  0  0  0  0  0  0
   52.9848   27.3784   53.0200 H   0  0  0  0  0  0  0  0  0  0  0  0
   51.7088   27.2438   55.0285 H   0  0  0  0  0  0  0  0  0  0  0  0
   52.2912   28.0036   56.5446 H   0  0  0  0  0  0  0  0  0  0  0  0
   50.9243   31.9584   54.1473 H   0  0  0  0  0  0  0  0  0  0  0  0
   52.4981   31.1033   54.0741 H   0  0  0  0  0  0  0  0  0  0  0  0
   53.9563   29.9387   56.3725 H   0  0  0  0  0  0  0  0  0  0  0  0
   55.8984   30.8528   55.1156 H   0  0  0  0  0  0  0  0  0  0  0  0
  1  2  1  0
  2  3  2  0
  3  4  1  0
  4  5  2  0
  5  6  1  0
  6  7  2  0
  7  8  1  0
  8  9  1  0
  9 10  2  0
  9 11  1  0
 11 12  2  0
 12 13  1  0
 13 14  2  0
 14 15  1  0
 15 16  1  0
 16 17  1  0
 17 18  2  0
 17 19  1  0
 19 20  1  0
 20 21  1  0
 21 22  1  0
 22 23  2  0
 22 24  1  0
 24 25  1  0
 25 26  1  0
 14 27  1  0
 27 28  2  0
  7  2  1  0
 28 11  1  0
 25 20  2  0
  1 29  1  0
  1 30  1  0
  3 31  1  0
  4 32  1  0
  5 33  1  0
  6 34  1  0
  8 35  1  0
 12 36  1  0
 13 37  1  0
 15 38  1  0
 15 39  1  0
 19 40  1  0
 19 41  1  0
 27 42  1  0
 28 43  1  0
M  CHG  4  16  -1  21  -1  24  -1  26  -1
M  END
>  <UniqueID>  (16) 
14

>  <SMILES>  (16) 
Nc1ccccc1NC(=O)c1ccc(C[N-]C(=O)Cc2[n-]c(=O)[n-]c2[O-])cc1

>  <Energy>  (16) 
76.59744806287695

>  <Genealogy>  (16) 
Nc1ccccc1NC(=O)c1ccc(C[N-]C(=O)Cc2[n-]c(=O)[n-]c2[O-])cc1 (protonated)
Nc1ccccc1NC(=O)c1ccc(C[N-]C(=O)Cc2[n-]c(=O)[n-]c2[O-])cc1 (3D coordinates assigned)
Nc1ccccc1NC(=O)c1ccc(C[N-]C(=O)Cc2[n-]c(=O)[n-]c2[O-])cc1 (optimized conformer: 76.59744806287695 kcal/mol)

>  <smiles>  (16) 
Nc1ccccc1NC(=O)c1ccc(CNC(=O)Cc2[nH]c(=O)[nH]c2O)cc1

>  <score_type>  (16) 
oracle

>  <origin>  (16) 
adg

>  <m_score__min__energy>  (16) 
-17.920000000000002

>  <m_primary>  (16) 
energy

$$$$
16:0
     RDKit          3D

 73 77  0  0  0  0  0  0  0  0999 V2000
   59.1747   35.3502   46.4106 H   0  0  0  0  0  0  0  0  0  0  0  0
   59.2290   34.2940   46.1080 C   0  0  0  0  0  0  0  0  0  0  0  0
   58.5390   33.9020   45.0750 N   0  0  0  0  0  0  0  0  0  0  0  0
   57.1800   33.3560   45.1120 C   0  0  0  0  0  0  0  0  0  0  0  0
   56.7925   33.4192   46.1395 H   0  0  0  0  0  0  0  0  0  0  0  0
   56.5439   33.9392   44.4299 H   0  0  0  0  0  0  0  0  0  0  0  0
   57.1770   31.9230   44.6710 C   0  0  0  0  0  0  0  0  0  0  0  0
   56.1690   31.0990   44.8580 O   0  0  0  0  0  0  0  0  0  0  0  0
   56.4830   29.9340   44.3390 C   0  0  0  0  0  0  0  0  0  0  0  0
   55.8350   29.0451   44.3410 H   0  0  0  0  0  0  0  0  0  0  0  0
   57.7500   29.9930   43.7900 C   0  0  0  0  0  0  0  0  0  0  0  0
   58.2886   29.1793   43.2822 H   0  0  0  0  0  0  0  0  0  0  0  0
   58.2030   31.2770   44.0070 C   0  0  0  0  0  0  0  0  0  0  0  0
   59.1758   31.6985   43.7136 H   0  0  0  0  0  0  0  0  0  0  0  0
   60.0820   33.3740   46.8890 C   0  0  0  0  0  0  0  0  0  0  0  0
   59.5180   32.2980   47.5750 C   0  0  0  0  0  0  0  0  0  0  0  0
   58.1360   32.1140   47.5350 O   0  0  0  0  0  0  0  0  0  0  0  0
   60.3100   31.4370   48.2820 N   0  0  0  0  0  0  0  0  0  0  0  0
   59.6810   30.3260   49.0240 C   0  0  0  0  0  0  0  0  0  0  0  0
   60.2626   30.1284   49.9365 H   0  0  0  0  0  0  0  0  0  0  0  0
   58.6503   30.6142   49.2779 H   0  0  0  0  0  0  0  0  0  0  0  0
   59.6360   29.0720   48.1870 C   0  0  0  0  0  0  0  0  0  0  0  0
   59.0530   29.0970   46.9090 C   0  0  0  0  0  0  0  0  0  0  0  0
   58.7037   30.0506   46.4864 H   0  0  0  0  0  0  0  0  0  0  0  0
   58.9140   27.9200   46.1720 C   0  0  0  0  0  0  0  0  0  0  0  0
   58.4587   27.9493   45.1711 H   0  0  0  0  0  0  0  0  0  0  0  0
   59.3550   26.6970   46.7070 C   0  0  0  0  0  0  0  0  0  0  0  0
   59.0610   25.4260   46.0120 C   0  0  0  0  0  0  0  0  0  0  0  0
   59.9340   24.5210   46.0120 O   0  0  0  0  0  0  0  0  0  0  0  0
   57.7850   25.1880   45.3760 N   0  0  0  0  0  0  0  0  0  0  0  0
   56.5660   25.8690   45.8430 C   0  0  0  0  0  0  0  0  0  0  0  0
   56.7562   26.3062   46.8343 H   0  0  0  0  0  0  0  0  0  0  0  0
   56.3048   26.6538   45.1178 H   0  0  0  0  0  0  0  0  0  0  0  0
   55.3890   24.8880   45.9450 C   0  0  0  0  0  0  0  0  0  0  0  0
   55.4429   24.3820   46.9202 H   0  0  0  0  0  0  0  0  0  0  0  0
   54.4687   25.4789   45.8272 H   0  0  0  0  0  0  0  0  0  0  0  0
   55.3770   23.8530   44.8810 N   0  0  0  0  0  0  0  0  0  0  0  0
   54.0130   23.4290   44.4860 C   0  0  0  0  0  0  0  0  0  0  0  0
   53.5216   24.2721   43.9784 H   0  0  0  0  0  0  0  0  0  0  0  0
   54.1279   22.5517   43.8325 H   0  0  0  0  0  0  0  0  0  0  0  0
   53.1410   22.9990   45.6520 C   0  0  0  0  0  0  0  0  0  0  0  0
   53.6870   22.2850   46.7350 C   0  0  0  0  0  0  0  0  0  0  0  0
   54.7541   22.0181   46.7324 H   0  0  0  0  0  0  0  0  0  0  0  0
   52.8790   21.9130   47.8150 C   0  0  0  0  0  0  0  0  0  0  0  0
   53.3152   21.3666   48.6642 H   0  0  0  0  0  0  0  0  0  0  0  0
   51.5200   22.2340   47.8170 C   0  0  0  0  0  0  0  0  0  0  0  0
   50.8865   21.9411   48.6672 H   0  0  0  0  0  0  0  0  0  0  0  0
   50.9660   22.9270   46.7390 C   0  0  0  0  0  0  0  0  0  0  0  0
   49.8948   23.1769   46.7397 H   0  0  0  0  0  0  0  0  0  0  0  0
   51.7690   23.3040   45.6590 C   0  0  0  0  0  0  0  0  0  0  0  0
   51.3245   23.8428   44.8092 H   0  0  0  0  0  0  0  0  0  0  0  0
   56.2700   24.1320   43.7410 C   0  0  0  0  0  0  0  0  0  0  0  0
   56.2067   23.3076   43.0155 H   0  0  0  0  0  0  0  0  0  0  0  0
   55.9638   25.0711   43.2570 H   0  0  0  0  0  0  0  0  0  0  0  0
   57.7090   24.2620   44.2400 C   0  0  0  0  0  0  0  0  0  0  0  0
   58.0718   23.2728   44.5561 H   0  0  0  0  0  0  0  0  0  0  0  0
   58.3315   24.6549   43.4226 H   0  0  0  0  0  0  0  0  0  0  0  0
   60.0080   26.6840   47.9500 C   0  0  0  0  0  0  0  0  0  0  0  0
   60.4174   25.7420   48.3438 H   0  0  0  0  0  0  0  0  0  0  0  0
   60.1400   27.8630   48.6890 C   0  0  0  0  0  0  0  0  0  0  0  0
   60.6411   27.8427   49.6680 H   0  0  0  0  0  0  0  0  0  0  0  0
   61.6730   31.6090   48.2920 C   0  0  0  0  0  0  0  0  0  0  0  0
   62.4030   30.7940   48.9270 O   0  0  0  0  0  0  0  0  0  0  0  0
   62.2520   32.6590   47.6230 N   0  0  0  0  0  0  0  0  0  0  0  0
   63.7160   32.8470   47.6740 C   0  0  0  0  0  0  0  0  0  0  0  0
   64.0070   33.6176   46.9450 H   0  0  0  0  0  0  0  0  0  0  0  0
   64.2046   31.8913   47.4334 H   0  0  0  0  0  0  0  0  0  0  0  0
   64.1530   33.2850   49.0670 C   0  0  0  0  0  0  0  0  0  0  0  0
   63.5887   32.7194   49.8231 H   0  0  0  0  0  0  0  0  0  0  0  0
   65.2287   33.0915   49.1916 H   0  0  0  0  0  0  0  0  0  0  0  0
   63.9570   34.3602   49.1916 H   0  0  0  0  0  0  0  0  0  0  0  0
   61.4660   33.5590   46.9500 C   0  0  0  0  0  0  0  0  0  0  0  0
   61.9830   34.5550   46.3700 O   0  0  0  0  0  0  0  0  0  0  0  0
  1  2  1  0
  2  3  2  0
  3  4  1  0
  4  5  1  0
  4  6  1  0
  4  7  1  0
  7  8  1  0
  8  9  1  0
  9 10  1  0
  9 11  2  0
 11 12  1  0
 11 13  1  0
 13 14  1  0
  2 15  1  0
 15 16  2  0
 16 17  1  0
 16 18  1  0
 18 19  1  0
 19 20  1  0
 19 21  1  0
 19 22  1  0
 22 23  2  0
 23 24  1  0
 23 25  1  0
 25 26  1  0
 25 27  2  0
 27 28  1  0
 28 29  2  0
 28 30  1  0
 30 31  1  0
 31 32  1  0
 31 33  1  0
 31 34  1  0
 34 35  1  0
 34 36  1  0
 34 37  1  0
 37 38  1  0
 38 39  1  0
 38 40  1  0
 38 41  1  0
 41 42  2  0
 42 43  1  0
 42 44  1  0
 44 45  1  0
 44 46  2  0
 46 47  1  0
 46 48  1  0
 48 49  1  0
 48 50  2  0
 50 51  1  0
 37 52  1  0
 52 53  1  0
 52 54  1  0
 52 55  1  0
 55 56  1  0
 55 57  1  0
 27 58  1  0
 58 59  1  0
 58 60  2  0
 60 61  1  0
 18 62  1  0
 62 63  2  0
 62 64  1  0
 64 65  1  0
 65 66  1  0
 65 67  1  0
 65 68  1  0
 68 69  1  0
 68 70  1  0
 68 71  1  0
 64 72  1  0
 72 73  2  0
 13  7  2  0
 72 15  1  0
 60 22  1  0
 55 30  1  0
 50 41  1  0
M  CHG  1  17  -1
M  END
>  <UniqueID>  (17) 
15

>  <SMILES>  (17) 
CCn1c(=O)c(/C=N\Cc2ccco2)c([O-])n(Cc2ccc(C(=O)N3CCN(Cc4ccccc4)CC3)cc2)c1=O

>  <Energy>  (17) 
127.88923407419495

>  <Genealogy>  (17) 
CCn1c(=O)c(C=NCc2ccco2)c([O-])n(Cc2ccc(C(=O)N3CCN(Cc4ccccc4)CC3)cc2)c1=O (protonated)
CCn1c(=O)c(/C=N\Cc2ccco2)c([O-])n(Cc2ccc(C(=O)N3CCN(Cc4ccccc4)CC3)cc2)c1=O (cis-trans isomerization)
CCn1c(=O)c(/C=N\Cc2ccco2)c([O-])n(Cc2ccc(C(=O)N3CCN(Cc4ccccc4)CC3)cc2)c1=O (3D coordinates assigned)
CCn1c(=O)c(/C=N\Cc2ccco2)c([O-])n(Cc2ccc(C(=O)N3CCN(Cc4ccccc4)CC3)cc2)c1=O (nonaromatic ring conformer: 127.88923407419495 kcal/mol)

>  <smiles>  (17) 
CCn1c(=O)c(C=NCc2ccco2)c(O)n(Cc2ccc(C(=O)N3CCN(Cc4ccccc4)CC3)cc2)c1=O

>  <score_type>  (17) 
oracle

>  <origin>  (17) 
adg

>  <m_score__min__energy>  (17) 
-12.42

>  <m_primary>  (17) 
energy

$$$$
17:0
     RDKit          3D

 31 32  0  0  0  0  0  0  0  0999 V2000
   55.4080   30.2830   44.4090 O   0  0  0  0  0  0  0  0  0  0  0  0
   56.6170   29.9910   44.6130 C   0  0  0  0  0  0  0  0  0  0  0  0
   57.6250   31.0540   44.8240 C   0  0  0  0  0  0  0  0  0  0  0  0
   57.3580   32.3010   45.2430 C   0  0  0  0  0  0  0  0  0  0  0  0
   58.2030   33.0820   46.1680 C   0  0  0  0  0  0  0  0  0  0  0  0
   58.3560   32.6360   47.4890 C   0  0  0  0  0  0  0  0  0  0  0  0
   59.1330   33.3660   48.3960 C   0  0  0  0  0  0  0  0  0  0  0  0
   59.3520   32.7380   50.1860 Br  0  0  0  0  0  0  0  0  0  0  0  0
   59.7440   34.5560   47.9920 C   0  0  0  0  0  0  0  0  0  0  0  0
   59.5730   35.0240   46.6870 C   0  0  0  0  0  0  0  0  0  0  0  0
   58.7950   34.3010   45.7770 C   0  0  0  0  0  0  0  0  0  0  0  0
   58.6050   34.8060   44.4940 O   0  0  0  0  0  0  0  0  0  0  0  0
   57.0380   28.5500   44.5670 C   0  0  0  0  0  0  0  0  0  0  0  0
   57.3820   28.0490   45.9440 C   0  0  0  0  0  0  0  0  0  0  0  0
   57.7690   28.8840   46.8070 O   0  0  0  0  0  0  0  0  0  0  0  0
   57.2470   26.6170   46.3270 C   0  0  0  0  0  0  0  0  0  0  0  0
   55.9790   26.0050   46.3520 C   0  0  0  0  0  0  0  0  0  0  0  0
   54.8370   26.7150   46.0020 O   0  0  0  0  0  0  0  0  0  0  0  0
   55.8590   24.7000   46.7060 N   0  0  0  0  0  0  0  0  0  0  0  0
   56.9440   23.9610   47.0430 C   0  0  0  0  0  0  0  0  0  0  0  0
   56.8060   22.7520   47.3640 O   0  0  0  0  0  0  0  0  0  0  0  0
   58.1770   24.5240   47.0370 N   0  0  0  0  0  0  0  0  0  0  0  0
   58.3560   25.8260   46.6940 C   0  0  0  0  0  0  0  0  0  0  0  0
   59.5170   26.3100   46.7330 O   0  0  0  0  0  0  0  0  0  0  0  0
   58.6764   30.8022   44.6214 H   0  0  0  0  0  0  0  0  0  0  0  0
   56.4398   32.7772   44.8687 H   0  0  0  0  0  0  0  0  0  0  0  0
   57.8629   31.7079   47.8138 H   0  0  0  0  0  0  0  0  0  0  0  0
   60.3608   35.1253   48.7030 H   0  0  0  0  0  0  0  0  0  0  0  0
   60.0516   35.9638   46.3742 H   0  0  0  0  0  0  0  0  0  0  0  0
   56.2138   27.9464   44.1592 H   0  0  0  0  0  0  0  0  0  0  0  0
   57.9290   28.4634   43.9277 H   0  0  0  0  0  0  0  0  0  0  0  0
  1  2  2  0
  2  3  1  0
  3  4  2  3
  4  5  1  0
  5  6  2  0
  6  7  1  0
  7  8  1  0
  7  9  2  0
  9 10  1  0
 10 11  2  0
 11 12  1  0
  2 13  1  0
 13 14  1  0
 14 15  2  0
 14 16  1  0
 16 17  2  0
 17 18  1  0
 17 19  1  0
 19 20  1  0
 20 21  2  0
 20 22  1  0
 22 23  1  0
 23 24  2  0
 11  5  1  0
 23 16  1  0
  3 25  1  0
  4 26  1  0
  6 27  1  0
  9 28  1  0
 10 29  1  0
 13 30  1  0
 13 31  1  0
M  CHG  4  12  -1  18  -1  19  -1  22  -1
M  END
>  <UniqueID>  (18) 
16

>  <SMILES>  (18) 
O=C(C=Cc1cc(Br)ccc1[O-])CC(=O)c1c([O-])[n-]c(=O)[n-]c1=O

>  <Energy>  (18) 
45.956445319169084

>  <Genealogy>  (18) 
O=C(C=Cc1cc(Br)ccc1[O-])CC(=O)c1c([O-])[n-]c(=O)[n-]c1=O (protonated)
O=C(C=Cc1cc(Br)ccc1[O-])CC(=O)c1c([O-])[n-]c(=O)[n-]c1=O (3D coordinates assigned)
O=C(C=Cc1cc(Br)ccc1[O-])CC(=O)c1c([O-])[n-]c(=O)[n-]c1=O (optimized conformer: 45.956445319169084 kcal/mol)

>  <smiles>  (18) 
O=C(C=Cc1cc(Br)ccc1O)CC(=O)c1c(O)[nH]c(=O)[nH]c1=O

>  <score_type>  (18) 
oracle

>  <origin>  (18) 
adg

>  <m_score__min__energy>  (18) 
-17.260000000000002

>  <m_primary>  (18) 
energy

$$$$
18:0
     RDKit          3D

 42 44  0  0  1  0  0  0  0  0999 V2000
   56.6360   24.6900   45.1450 C   0  0  0  0  0  0  0  0  0  0  0  0
   57.3840   25.7960   45.8420 C   0  0  0  0  0  0  0  0  0  0  0  0
   58.3610   25.4500   46.7590 C   0  0  0  0  0  0  0  0  0  0  0  0
   59.0820   26.4530   47.4240 C   0  0  0  0  0  0  0  0  0  0  0  0
   58.7650   27.7550   47.1140 C   0  0  0  0  0  0  0  0  0  0  0  0
   57.7660   28.0430   46.1750 C   0  0  0  0  0  0  0  0  0  0  0  0
   57.5410   29.2660   45.9500 N   0  0  0  0  0  0  0  0  0  0  0  0
   56.7060   29.7430   44.9270 C   0  0  0  0  0  0  0  0  0  0  0  0
   55.5290   29.3710   44.7220 O   0  0  0  0  0  0  0  0  0  0  0  0
   57.2270   30.7720   43.9970 C   0  0  0  0  0  0  0  0  0  0  0  0
   57.9910   31.7770   44.5400 C   0  0  0  0  0  0  0  0  0  0  0  0
   58.5180   32.8130   43.7330 C   0  0  0  0  0  0  0  0  0  0  0  0
   59.2550   33.7470   44.3620 O   0  0  0  0  0  0  0  0  0  0  0  0
   59.1740   34.3880   45.5520 C   0  0  0  0  0  0  0  0  0  0  0  0
   59.2150   33.5920   46.7930 C   0  0  0  0  0  0  0  0  0  0  0  0
   58.1460   33.1170   47.4870 C   0  0  0  0  0  0  0  0  0  0  0  0
   56.8780   33.4230   47.1220 F   0  0  0  0  0  0  0  0  0  0  0  0
   58.3000   32.3380   48.6080 C   0  0  0  0  0  0  0  0  0  0  0  0
   59.5810   32.0190   49.0590 C   0  0  0  0  0  0  0  0  0  0  0  0
   60.6900   32.4840   48.3820 C   0  0  0  0  0  0  0  0  0  0  0  0
   60.4890   33.2590   47.2660 C   0  0  0  0  0  0  0  0  0  0  0  0
   61.9350   33.8340   46.4280 Cl  0  0  0  0  0  0  0  0  0  0  0  0
   58.2110   32.7180   42.4410 N   0  0  0  0  0  0  0  0  0  0  0  0
   57.4820   31.7580   41.9140 N   0  0  0  0  0  0  0  0  0  0  0  0
   56.9540   30.7420   42.6530 C   0  0  0  0  0  0  0  0  0  0  0  0
   56.2690   29.8850   42.0310 N   0  0  0  0  0  0  0  0  0  0  0  0
   57.0840   27.0720   45.5480 N   0  0  0  0  0  0  0  0  0  0  0  0
   56.1850   24.0232   45.8947 H   0  0  0  0  0  0  0  0  0  0  0  0
   55.8444   25.1227   44.5156 H   0  0  0  0  0  0  0  0  0  0  0  0
   57.3323   24.1164   44.5156 H   0  0  0  0  0  0  0  0  0  0  0  0
   58.5719   24.3904   46.9661 H   0  0  0  0  0  0  0  0  0  0  0  0
   59.8638   26.2097   48.1586 H   0  0  0  0  0  0  0  0  0  0  0  0
   59.3013   28.5784   47.6083 H   0  0  0  0  0  0  0  0  0  0  0  0
   58.1964   31.7761   45.6207 H   0  0  0  0  0  0  0  0  0  0  0  0
   60.0140   35.0969   45.5950 H   0  0  0  0  0  0  0  0  0  0  0  0
   58.1646   34.8251   45.5501 H   0  0  0  0  0  0  0  0  0  0  0  0
   57.4164   31.9671   49.1481 H   0  0  0  0  0  0  0  0  0  0  0  0
   59.7074   31.3954   49.9563 H   0  0  0  0  0  0  0  0  0  0  0  0
   61.7060   32.2409   48.7263 H   0  0  0  0  0  0  0  0  0  0  0  0
   57.3060   31.7820   40.8760 H   0  0  0  0  0  0  0  0  0  0  0  0
   55.5390   29.2390   42.2780 H   0  0  0  0  0  0  0  0  0  0  0  0
   56.3490   27.3560   44.8620 H   0  0  0  0  0  0  0  0  0  0  0  0
  1  2  1  0
  2  3  2  0
  3  4  1  0
  4  5  2  0
  5  6  1  0
  6  7  2  0
  7  8  1  0
  8  9  2  0
  8 10  1  0
 10 11  2  0
 11 12  1  0
 12 13  1  0
 13 14  1  0
 14 15  1  0
 15 16  2  0
 16 17  1  0
 16 18  1  0
 18 19  2  0
 19 20  1  0
 20 21  2  0
 21 22  1  0
 12 23  2  0
 23 24  1  0
 24 25  1  0
 25 26  2  3
  6 27  1  0
 27  2  1  0
 25 10  1  0
 21 15  1  0
  1 28  1  0
  1 29  1  0
  1 30  1  0
  3 31  1  0
  4 32  1  0
  5 33  1  0
 11 34  1  0
 14 35  1  0
 14 36  1  0
 18 37  1  0
 19 38  1  0
 20 39  1  0
 24 40  1  0
 26 41  1  0
 27 42  1  0
M  END
>  <smiles>  (19) 
Cc1cccc(=NC(=O)c2cc(OCc3c(F)cccc3Cl)n[nH]c2=N)[nH]1

>  <score_type>  (19) 
oracle

>  <origin>  (19) 
adg

>  <m_score__min__energy>  (19) 
-7.9100000000000001

>  <m_primary>  (19) 
energy

$$$$
19:0
     RDKit          3D

 57 59  0  0  0  0  0  0  0  0999 V2000
   60.0330   28.6060   48.4700 C   0  0  0  0  0  0  0  0  0  0  0  0
   60.7520   29.8920   48.0310 C   0  0  0  0  0  0  0  0  0  0  0  0
   61.0100   30.8520   49.1300 N   0  0  0  0  0  0  0  0  0  0  0  0
   62.2740   31.5990   48.9600 C   0  0  0  0  0  0  0  0  0  0  0  0
   62.5190   31.8970   47.4830 C   0  0  0  0  0  0  0  0  0  0  0  0
   59.6480   31.9200   49.4210 S   0  0  0  0  0  0  0  0  0  0  0  0
   58.4410   31.1110   49.8160 O   0  0  0  0  0  0  0  0  0  0  0  0
   59.9580   32.8810   50.5360 O   0  0  0  0  0  0  0  0  0  0  0  0
   59.2500   32.8080   47.9510 C   0  0  0  0  0  0  0  0  0  0  0  0
   59.5260   34.1780   47.8760 C   0  0  0  0  0  0  0  0  0  0  0  0
   59.1970   34.8990   46.7250 C   0  0  0  0  0  0  0  0  0  0  0  0
   58.5720   34.2620   45.6480 C   0  0  0  0  0  0  0  0  0  0  0  0
   58.3120   34.9900   44.4930 O   0  0  0  0  0  0  0  0  0  0  0  0
   58.2490   32.8930   45.7340 C   0  0  0  0  0  0  0  0  0  0  0  0
   57.5950   32.1970   44.6640 N   0  0  0  0  0  0  0  0  0  0  0  0
   57.0230   30.8860   44.7450 C   0  0  0  0  0  0  0  0  0  0  0  0
   55.8010   30.7000   44.5000 O   0  0  0  0  0  0  0  0  0  0  0  0
   57.8910   29.7310   45.1440 C   0  0  0  0  0  0  0  0  0  0  0  0
   57.1040   28.4220   45.3280 C   0  0  0  0  0  0  0  0  0  0  0  0
   57.7550   27.4190   46.2970 C   0  0  0  0  0  0  0  0  0  0  0  0
   57.1710   26.0790   46.1760 N   0  0  0  0  0  0  0  0  0  0  0  0
   57.8400   24.9030   46.1670 C   0  0  0  0  0  0  0  0  0  0  0  0
   59.2180   24.7820   46.3200 O   0  0  0  0  0  0  0  0  0  0  0  0
   56.9630   23.8520   45.9930 C   0  0  0  0  0  0  0  0  0  0  0  0
   55.7070   24.4000   45.9070 C   0  0  0  0  0  0  0  0  0  0  0  0
   55.8630   25.7690   46.0270 C   0  0  0  0  0  0  0  0  0  0  0  0
   54.8320   26.7020   45.9940 O   0  0  0  0  0  0  0  0  0  0  0  0
   54.4550   23.6070   45.7040 C   0  0  0  0  0  0  0  0  0  0  0  0
   54.7440   22.1220   45.5940 C   0  0  0  0  0  0  0  0  0  0  0  0
   55.9830   21.5810   45.6710 C   0  0  0  0  0  0  0  0  0  0  0  0
   57.2510   22.3890   45.8790 C   0  0  0  0  0  0  0  0  0  0  0  0
   58.6220   32.1680   46.8720 C   0  0  0  0  0  0  0  0  0  0  0  0
   60.0060   28.5578   49.5686 H   0  0  0  0  0  0  0  0  0  0  0  0
   59.0053   28.6083   48.0778 H   0  0  0  0  0  0  0  0  0  0  0  0
   60.5732   27.7317   48.0778 H   0  0  0  0  0  0  0  0  0  0  0  0
   61.7175   29.6117   47.5847 H   0  0  0  0  0  0  0  0  0  0  0  0
   60.0836   30.3995   47.3199 H   0  0  0  0  0  0  0  0  0  0  0  0
   62.2133   32.5462   49.5160 H   0  0  0  0  0  0  0  0  0  0  0  0
   63.1046   30.9888   49.3444 H   0  0  0  0  0  0  0  0  0  0  0  0
   63.2151   32.7437   47.3903 H   0  0  0  0  0  0  0  0  0  0  0  0
   62.9530   31.0106   46.9972 H   0  0  0  0  0  0  0  0  0  0  0  0
   61.5655   32.1514   46.9972 H   0  0  0  0  0  0  0  0  0  0  0  0
   60.0032   34.6887   48.7254 H   0  0  0  0  0  0  0  0  0  0  0  0
   59.4306   35.9723   46.6657 H   0  0  0  0  0  0  0  0  0  0  0  0
   58.6499   29.5767   44.3628 H   0  0  0  0  0  0  0  0  0  0  0  0
   58.3449   29.9808   46.1144 H   0  0  0  0  0  0  0  0  0  0  0  0
   56.1045   28.6728   45.7128 H   0  0  0  0  0  0  0  0  0  0  0  0
   57.0743   27.9327   44.3432 H   0  0  0  0  0  0  0  0  0  0  0  0
   58.8308   27.3587   46.0757 H   0  0  0  0  0  0  0  0  0  0  0  0
   57.5788   27.7748   47.3229 H   0  0  0  0  0  0  0  0  0  0  0  0
   53.7827   23.7772   46.5578 H   0  0  0  0  0  0  0  0  0  0  0  0
   53.9887   23.9365   44.7638 H   0  0  0  0  0  0  0  0  0  0  0  0
   53.8932   21.4415   45.4421 H   0  0  0  0  0  0  0  0  0  0  0  0
   56.0763   20.4890   45.5770 H   0  0  0  0  0  0  0  0  0  0  0  0
   57.7424   22.0495   46.8027 H   0  0  0  0  0  0  0  0  0  0  0  0
   57.9024   22.2351   45.0061 H   0  0  0  0  0  0  0  0  0  0  0  0
   58.4210   31.0876   46.9206 H   0  0  0  0  0  0  0  0  0  0  0  0
  1  2  1  0
  2  3  1  0
  3  4  1  0
  4  5  1  0
  3  6  1  0
  6  7  2  0
  6  8  2  0
  6  9  1  0
  9 10  2  0
 10 11  1  0
 11 12  2  0
 12 13  1  0
 12 14  1  0
 14 15  1  0
 15 16  1  0
 16 17  2  0
 16 18  1  0
 18 19  1  0
 19 20  1  0
 20 21  1  0
 21 22  1  0
 22 23  1  0
 22 24  2  0
 24 25  1  0
 25 26  2  0
 26 27  1  0
 25 28  1  0
 28 29  1  0
 29 30  2  0
 30 31  1  0
 14 32  2  0
 32  9  1  0
 26 21  1  0
 31 24  1  0
  1 33  1  0
  1 34  1  0
  1 35  1  0
  2 36  1  0
  2 37  1  0
  4 38  1  0
  4 39  1  0
  5 40  1  0
  5 41  1  0
  5 42  1  0
 10 43  1  0
 11 44  1  0
 18 45  1  0
 18 46  1  0
 19 47  1  0
 19 48  1  0
 20 49  1  0
 20 50  1  0
 28 51  1  0
 28 52  1  0
 29 53  1  0
 30 54  1  0
 31 55  1  0
 31 56  1  0
 32 57  1  0
M  CHG  4  13  -1  15  -1  23  -1  27  -1
M  END
>  <UniqueID>  (20) 
17

>  <SMILES>  (20) 
CCN(CC)S(=O)(=O)c1ccc([O-])c([N-]C(=O)CCCn2c([O-])c3c(c2[O-])CC=CC3)c1

>  <Energy>  (20) 
89.38387091449867

>  <Genealogy>  (20) 
CCN(CC)S(=O)(=O)c1ccc([O-])c([N-]C(=O)CCCn2c([O-])c3c(c2[O-])CC=CC3)c1 (protonated)
CCN(CC)S(=O)(=O)c1ccc([O-])c([N-]C(=O)CCCn2c([O-])c3c(c2[O-])CC=CC3)c1 (3D coordinates assigned)
CCN(CC)S(=O)(=O)c1ccc([O-])c([N-]C(=O)CCCn2c([O-])c3c(c2[O-])CC=CC3)c1 (nonaromatic ring conformer: 89.38387091449867 kcal/mol)

>  <smiles>  (20) 
CCN(CC)S(=O)(=O)c1ccc(O)c(NC(=O)CCCn2c(O)c3c(c2O)CC=CC3)c1

>  <score_type>  (20) 
oracle

>  <origin>  (20) 
adg

>  <m_score__min__energy>  (20) 
-16.949999999999999

>  <m_primary>  (20) 
energy

$$$$
20:0
     RDKit          3D

 53 56  0  0  0  0  0  0  0  0999 V2000
   59.4059   34.9587   44.4951 H   0  0  0  0  0  0  0  0  0  0  0  0
   59.3450   34.5640   45.5200 C   0  0  0  0  0  0  0  0  0  0  0  0
   58.3890   33.6390   45.9280 C   0  0  0  0  0  0  0  0  0  0  0  0
   57.3650   33.0080   45.0750 C   0  0  0  0  0  0  0  0  0  0  0  0
   56.2680   33.5990   44.9020 O   0  0  0  0  0  0  0  0  0  0  0  0
   57.5880   31.7540   44.4120 N   0  0  0  0  0  0  0  0  0  0  0  0
   57.5710   30.5860   44.9840 C   0  0  0  0  0  0  0  0  0  0  0  0
   58.3680   30.2370   46.0180 N   0  0  0  0  0  0  0  0  0  0  0  0
   58.1340   28.9660   46.4390 C   0  0  0  0  0  0  0  0  0  0  0  0
   58.9760   28.3630   47.4950 C   0  0  0  0  0  0  0  0  0  0  0  0
   59.6450   27.1570   47.2280 C   0  0  0  0  0  0  0  0  0  0  0  0
   59.4977   26.6548   46.2605 H   0  0  0  0  0  0  0  0  0  0  0  0
   60.4950   26.5900   48.1790 C   0  0  0  0  0  0  0  0  0  0  0  0
   61.0054   25.6400   47.9624 H   0  0  0  0  0  0  0  0  0  0  0  0
   60.6980   27.2260   49.4030 C   0  0  0  0  0  0  0  0  0  0  0  0
   61.5300   26.6770   50.3220 F   0  0  0  0  0  0  0  0  0  0  0  0
   60.0510   28.4320   49.6810 C   0  0  0  0  0  0  0  0  0  0  0  0
   60.2189   28.9308   50.6469 H   0  0  0  0  0  0  0  0  0  0  0  0
   59.1870   29.0140   48.7370 C   0  0  0  0  0  0  0  0  0  0  0  0
   58.5310   30.3310   49.0580 C   0  0  0  0  0  0  0  0  0  0  0  0
   58.4698   30.4538   50.1494 H   0  0  0  0  0  0  0  0  0  0  0  0
   59.1259   31.1510   48.6295 H   0  0  0  0  0  0  0  0  0  0  0  0
   57.5181   30.3502   48.6295 H   0  0  0  0  0  0  0  0  0  0  0  0
   57.1160   28.3010   45.7370 C   0  0  0  0  0  0  0  0  0  0  0  0
   56.5670   26.9580   45.9940 C   0  0  0  0  0  0  0  0  0  0  0  0
   57.3460   25.9990   46.2360 O   0  0  0  0  0  0  0  0  0  0  0  0
   55.1990   26.7240   45.9410 O   0  0  0  0  0  0  0  0  0  0  0  0
   56.5220   29.3510   44.5560 S   0  0  0  0  0  0  0  0  0  0  0  0
   58.6110   33.3130   47.5640 S   0  0  0  0  0  0  0  0  0  0  0  0
   59.9390   34.3280   47.7570 C   0  0  0  0  0  0  0  0  0  0  0  0
   60.7460   34.4570   49.0120 C   0  0  0  0  0  0  0  0  0  0  0  0
   61.1181   35.4884   49.1002 H   0  0  0  0  0  0  0  0  0  0  0  0
   60.1091   34.2122   49.8748 H   0  0  0  0  0  0  0  0  0  0  0  0
   61.8910   33.5270   48.9800 N   0  0  0  0  0  0  0  0  0  0  0  0
   61.4510   32.1210   48.9630 C   0  0  0  0  0  0  0  0  0  0  0  0
   60.7209   31.9573   49.7693 H   0  0  0  0  0  0  0  0  0  0  0  0
   60.9868   31.8979   47.9910 H   0  0  0  0  0  0  0  0  0  0  0  0
   62.6610   31.1920   49.1730 C   0  0  0  0  0  0  0  0  0  0  0  0
   62.7724   31.0027   50.2509 H   0  0  0  0  0  0  0  0  0  0  0  0
   62.4643   30.2695   48.6071 H   0  0  0  0  0  0  0  0  0  0  0  0
   63.9330   31.7570   48.6610 N   0  0  0  0  0  0  0  0  0  0  0  0
   64.7210   32.4070   49.7230 C   0  0  0  0  0  0  0  0  0  0  0  0
   64.3405   32.0931   50.7062 H   0  0  0  0  0  0  0  0  0  0  0  0
   65.7769   32.1137   49.6278 H   0  0  0  0  0  0  0  0  0  0  0  0
   64.6339   33.4994   49.6278 H   0  0  0  0  0  0  0  0  0  0  0  0
   63.7240   32.6470   47.5030 C   0  0  0  0  0  0  0  0  0  0  0  0
   64.6949   33.0673   47.2019 H   0  0  0  0  0  0  0  0  0  0  0  0
   63.2747   32.0466   46.6982 H   0  0  0  0  0  0  0  0  0  0  0  0
   62.7560   33.8110   47.8150 C   0  0  0  0  0  0  0  0  0  0  0  0
   63.3465   34.7149   48.0253 H   0  0  0  0  0  0  0  0  0  0  0  0
   62.1049   33.9500   46.9394 H   0  0  0  0  0  0  0  0  0  0  0  0
   60.2210   34.9420   46.5430 C   0  0  0  0  0  0  0  0  0  0  0  0
   61.0485   35.6527   46.4008 H   0  0  0  0  0  0  0  0  0  0  0  0
  1  2  1  0
  2  3  2  0
  3  4  1  0
  4  5  2  0
  4  6  1  0
  6  7  2  0
  7  8  1  0
  8  9  1  0
  9 10  1  0
 10 11  2  0
 11 12  1  0
 11 13  1  0
 13 14  1  0
 13 15  2  0
 15 16  1  0
 15 17  1  0
 17 18  1  0
 17 19  2  0
 19 20  1  0
 20 21  1  0
 20 22  1  0
 20 23  1  0
  9 24  2  0
 24 25  1  0
 25 26  2  0
 25 27  1  0
 24 28  1  0
  3 29  1  0
 29 30  1  0
 30 31  1  0
 31 32  1  0
 31 33  1  0
 31 34  1  0
 34 35  1  0
 35 36  1  0
 35 37  1  0
 35 38  1  0
 38 39  1  0
 38 40  1  0
 38 41  1  0
 41 42  1  0
 42 43  1  0
 42 44  1  0
 42 45  1  0
 41 46  1  0
 46 47  1  0
 46 48  1  0
 46 49  1  0
 49 50  1  0
 49 51  1  0
 30 52  2  0
 52 53  1  0
 52  2  1  0
 28  7  1  0
 49 34  1  0
 19 10  1  0
M  CHG  2   8  -1  27  -1
M  END
>  <UniqueID>  (21) 
18

>  <SMILES>  (21) 
Cc1cc(F)ccc1-c1[n-]/c(=N\C(=O)c2ccc(CN3CCN(C)CC3)s2)sc1C(=O)[O-]

>  <Energy>  (21) 
131.2995643528535

>  <Genealogy>  (21) 
Cc1cc(F)ccc1-c1[n-]c(=NC(=O)c2ccc(CN3CCN(C)CC3)s2)sc1C(=O)[O-] (protonated)
Cc1cc(F)ccc1-c1[n-]/c(=N\C(=O)c2ccc(CN3CCN(C)CC3)s2)sc1C(=O)[O-] (cis-trans isomerization)
Cc1cc(F)ccc1-c1[n-]/c(=N\C(=O)c2ccc(CN3CCN(C)CC3)s2)sc1C(=O)[O-] (3D coordinates assigned)
Cc1cc(F)ccc1-c1[n-]/c(=N\C(=O)c2ccc(CN3CCN(C)CC3)s2)sc1C(=O)[O-] (nonaromatic ring conformer: 131.2995643528535 kcal/mol)

>  <smiles>  (21) 
Cc1cc(F)ccc1-c1[nH]c(=NC(=O)c2ccc(CN3CCN(C)CC3)s2)sc1C(=O)O

>  <score_type>  (21) 
oracle

>  <origin>  (21) 
adg

>  <m_score__min__energy>  (21) 
-12.27

>  <m_primary>  (21) 
energy

$$$$
21:0
     RDKit          3D

 58 61  0  0  0  0  0  0  0  0999 V2000
   63.1060   33.9850   50.8550 H   0  0  0  0  0  0  0  0  0  0  0  0
   63.4160   33.9390   49.8920 O   0  0  0  0  0  0  0  0  0  0  0  0
   62.5570   33.9230   48.7900 C   0  0  0  0  0  0  0  0  0  0  0  0
   63.1350   33.6980   47.5350 C   0  0  0  0  0  0  0  0  0  0  0  0
   64.1986   33.4264   47.4640 H   0  0  0  0  0  0  0  0  0  0  0  0
   62.3710   33.8160   46.3740 C   0  0  0  0  0  0  0  0  0  0  0  0
   62.8228   33.6256   45.3893 H   0  0  0  0  0  0  0  0  0  0  0  0
   61.0320   34.1770   46.4750 C   0  0  0  0  0  0  0  0  0  0  0  0
   60.4318   34.3241   45.5650 H   0  0  0  0  0  0  0  0  0  0  0  0
   60.4650   34.3480   47.6980 N   0  0  0  0  0  0  0  0  0  0  0  0
   61.1550   34.1820   48.8630 C   0  0  0  0  0  0  0  0  0  0  0  0
   60.4700   34.2280   49.9730 N   0  0  0  0  0  0  0  0  0  0  0  0
   60.6510   33.4420   51.1590 C   0  0  0  0  0  0  0  0  0  0  0  0
   61.6110   33.7010   51.9270 O   0  0  0  0  0  0  0  0  0  0  0  0
   59.6970   32.3440   51.4500 C   0  0  0  0  0  0  0  0  0  0  0  0
   59.5057   32.1249   52.5109 H   0  0  0  0  0  0  0  0  0  0  0  0
   59.0430   31.5900   50.5520 C   0  0  0  0  0  0  0  0  0  0  0  0
   58.1139   31.1097   50.8928 H   0  0  0  0  0  0  0  0  0  0  0  0
   59.4450   31.3400   49.1520 C   0  0  0  0  0  0  0  0  0  0  0  0
   60.6840   30.7640   48.8270 C   0  0  0  0  0  0  0  0  0  0  0  0
   61.3904   30.4958   49.6264 H   0  0  0  0  0  0  0  0  0  0  0  0
   61.0230   30.5300   47.4890 C   0  0  0  0  0  0  0  0  0  0  0  0
   62.0076   30.1090   47.2375 H   0  0  0  0  0  0  0  0  0  0  0  0
   60.1110   30.8310   46.4710 C   0  0  0  0  0  0  0  0  0  0  0  0
   60.3900   30.6659   45.4199 H   0  0  0  0  0  0  0  0  0  0  0  0
   58.8410   31.3430   46.7850 C   0  0  0  0  0  0  0  0  0  0  0  0
   57.8620   31.6590   45.7210 C   0  0  0  0  0  0  0  0  0  0  0  0
   57.7530   32.8360   45.2850 O   0  0  0  0  0  0  0  0  0  0  0  0
   56.9900   30.6420   45.2180 N   0  0  0  0  0  0  0  0  0  0  0  0
   57.4500   29.3030   45.0120 C   0  0  0  0  0  0  0  0  0  0  0  0
   58.6670   29.0690   44.3530 C   0  0  0  0  0  0  0  0  0  0  0  0
   59.2855   29.9174   44.0250 H   0  0  0  0  0  0  0  0  0  0  0  0
   59.0940   27.7620   44.1130 C   0  0  0  0  0  0  0  0  0  0  0  0
   60.0383   27.5810   43.5787 H   0  0  0  0  0  0  0  0  0  0  0  0
   58.3210   26.6830   44.5520 C   0  0  0  0  0  0  0  0  0  0  0  0
   58.6537   25.6540   44.3506 H   0  0  0  0  0  0  0  0  0  0  0  0
   57.1250   26.9050   45.2470 C   0  0  0  0  0  0  0  0  0  0  0  0
   56.2020   25.5330   45.8770 S   0  0  0  0  0  0  0  0  0  0  0  0
   56.4590   25.3930   47.3540 O   0  0  0  0  0  0  0  0  0  0  0  0
   54.7370   25.8040   45.6820 O   0  0  0  0  0  0  0  0  0  0  0  0
   56.6280   24.0360   45.0780 N   0  0  0  0  0  0  0  0  0  0  0  0
   55.9410   22.8980   45.7110 C   0  0  0  0  0  0  0  0  0  0  0  0
   56.2661   22.8101   46.7582 H   0  0  0  0  0  0  0  0  0  0  0  0
   54.8538   23.0615   45.6764 H   0  0  0  0  0  0  0  0  0  0  0  0
   56.2870   21.6080   44.9590 C   0  0  0  0  0  0  0  0  0  0  0  0
   57.3722   21.4369   45.0151 H   0  0  0  0  0  0  0  0  0  0  0  0
   55.7451   20.7708   45.4232 H   0  0  0  0  0  0  0  0  0  0  0  0
   55.9010   21.7040   43.6010 O   0  0  0  0  0  0  0  0  0  0  0  0
   56.6080   22.7590   42.9770 C   0  0  0  0  0  0  0  0  0  0  0  0
   57.6878   22.5635   43.0535 H   0  0  0  0  0  0  0  0  0  0  0  0
   56.3005   22.8121   41.9222 H   0  0  0  0  0  0  0  0  0  0  0  0
   56.2920   24.1040   43.6480 C   0  0  0  0  0  0  0  0  0  0  0  0
   56.8842   24.8987   43.1707 H   0  0  0  0  0  0  0  0  0  0  0  0
   55.2200   24.3239   43.5359 H   0  0  0  0  0  0  0  0  0  0  0  0
   56.6770   28.2200   45.4520 C   0  0  0  0  0  0  0  0  0  0  0  0
   55.7175   28.4004   45.9589 H   0  0  0  0  0  0  0  0  0  0  0  0
   58.5130   31.5820   48.1300 C   0  0  0  0  0  0  0  0  0  0  0  0
   57.5135   31.9635   48.3857 H   0  0  0  0  0  0  0  0  0  0  0  0
  1  2  1  0
  2  3  1  0
  3  4  2  0
  4  5  1  0
  4  6  1  0
  6  7  1  0
  6  8  2  0
  8  9  1  0
  8 10  1  0
 10 11  1  0
 11 12  2  0
 12 13  1  0
 13 14  2  0
 13 15  1  0
 15 16  1  0
 15 17  2  3
 17 18  1  0
 17 19  1  0
 19 20  2  0
 20 21  1  0
 20 22  1  0
 22 23  1  0
 22 24  2  0
 24 25  1  0
 24 26  1  0
 26 27  1  0
 27 28  2  0
 27 29  1  0
 29 30  1  0
 30 31  2  0
 31 32  1  0
 31 33  1  0
 33 34  1  0
 33 35  2  0
 35 36  1  0
 35 37  1  0
 37 38  1  0
 38 39  2  0
 38 40  2  0
 38 41  1  0
 41 42  1  0
 42 43  1  0
 42 44  1  0
 42 45  1  0
 45 46  1  0
 45 47  1  0
 45 48  1  0
 48 49  1  0
 49 50  1  0
 49 51  1  0
 49 52  1  0
 52 53  1  0
 52 54  1  0
 37 55  2  0
 55 56  1  0
 26 57  2  0
 57 58  1  0
 11  3  1  0
 57 19  1  0
 55 30  1  0
 52 41  1  0
M  CHG  2  10  -1  29  -1
M  END
>  <UniqueID>  (22) 
19

>  <SMILES>  (22) 
O=C(C=Cc1cccc(C(=O)[N-]c2cccc(S(=O)(=O)N3CCOCC3)c2)c1)/N=c1/[n-]cccc1O

>  <Energy>  (22) 
99.74582022228888

>  <Genealogy>  (22) 
O=C(C=Cc1cccc(C(=O)[N-]c2cccc(S(=O)(=O)N3CCOCC3)c2)c1)N=c1[n-]cccc1O (protonated)
O=C(C=Cc1cccc(C(=O)[N-]c2cccc(S(=O)(=O)N3CCOCC3)c2)c1)/N=c1/[n-]cccc1O (cis-trans isomerization)
O=C(C=Cc1cccc(C(=O)[N-]c2cccc(S(=O)(=O)N3CCOCC3)c2)c1)/N=c1/[n-]cccc1O (3D coordinates assigned)
O=C(C=Cc1cccc(C(=O)[N-]c2cccc(S(=O)(=O)N3CCOCC3)c2)c1)/N=c1/[n-]cccc1O (nonaromatic ring conformer: 99.74582022228888 kcal/mol)

>  <smiles>  (22) 
O=C(C=Cc1cccc(C(=O)Nc2cccc(S(=O)(=O)N3CCOCC3)c2)c1)N=c1[nH]cccc1O

>  <score_type>  (22) 
oracle

>  <origin>  (22) 
adg

>  <m_score__min__energy>  (22) 
-13.9

>  <m_primary>  (22) 
energy

$$$$
22:0
     RDKit          3D

 66 70  0  0  0  0  0  0  0  0999 V2000
   57.2960   31.5980   43.4020 O   0  0  0  0  0  0  0  0  0  0  0  0
   56.9430   31.5500   44.6150 C   0  0  0  0  0  0  0  0  0  0  0  0
   56.8060   32.7710   45.3460 N   0  0  0  0  0  0  0  0  0  0  0  0
   57.8690   33.6530   45.7420 C   0  0  0  0  0  0  0  0  0  0  0  0
   58.6100   34.3970   44.8060 C   0  0  0  0  0  0  0  0  0  0  0  0
   59.6330   35.2490   45.2360 C   0  0  0  0  0  0  0  0  0  0  0  0
   59.9300   35.3620   46.5970 C   0  0  0  0  0  0  0  0  0  0  0  0
   59.2260   34.6010   47.5410 C   0  0  0  0  0  0  0  0  0  0  0  0
   59.5320   34.7430   48.9410 N   0  0  0  0  0  0  0  0  0  0  0  0
   60.7270   34.2150   49.5370 C   0  0  0  0  0  0  0  0  0  0  0  0
   61.7630   34.0710   48.8320 O   0  0  0  0  0  0  0  0  0  0  0  0
   60.7590   33.8430   50.9740 C   0  0  0  0  0  0  0  0  0  0  0  0
   61.9650   33.4330   51.5670 C   0  0  0  0  0  0  0  0  0  0  0  0
   61.9900   32.9940   52.8970 C   0  0  0  0  0  0  0  0  0  0  0  0
   60.8130   32.9660   53.6510 C   0  0  0  0  0  0  0  0  0  0  0  0
   59.6090   33.3880   53.0770 C   0  0  0  0  0  0  0  0  0  0  0  0
   59.5780   33.8260   51.7480 C   0  0  0  0  0  0  0  0  0  0  0  0
   58.1940   33.7490   47.1030 C   0  0  0  0  0  0  0  0  0  0  0  0
   56.7160   30.3130   45.2360 O   0  0  0  0  0  0  0  0  0  0  0  0
   57.3260   29.1290   44.8080 C   0  0  0  0  0  0  0  0  0  0  0  0
   57.2090   28.7380   43.4630 C   0  0  0  0  0  0  0  0  0  0  0  0
   57.8460   27.5870   43.0050 C   0  0  0  0  0  0  0  0  0  0  0  0
   58.5850   26.8010   43.8930 C   0  0  0  0  0  0  0  0  0  0  0  0
   58.7000   27.1730   45.2370 C   0  0  0  0  0  0  0  0  0  0  0  0
   58.0920   28.3510   45.7060 C   0  0  0  0  0  0  0  0  0  0  0  0
   58.2160   28.7250   47.1390 C   0  0  0  0  0  0  0  0  0  0  0  0
   57.9790   27.8670   48.0310 O   0  0  0  0  0  0  0  0  0  0  0  0
   58.6770   30.0230   47.5430 N   0  0  0  0  0  0  0  0  0  0  0  0
   60.0420   30.4130   47.7600 C   0  0  0  0  0  0  0  0  0  0  0  0
   60.9520   30.5010   46.6910 C   0  0  0  0  0  0  0  0  0  0  0  0
   62.2570   30.9450   46.9100 C   0  0  0  0  0  0  0  0  0  0  0  0
   62.6620   31.3240   48.1900 C   0  0  0  0  0  0  0  0  0  0  0  0
   61.7630   31.2550   49.2580 C   0  0  0  0  0  0  0  0  0  0  0  0
   60.4530   30.7960   49.0540 C   0  0  0  0  0  0  0  0  0  0  0  0
   59.5400   30.7180   50.1620 N   0  0  0  0  0  0  0  0  0  0  0  0
   58.2920   31.4870   50.1230 C   0  0  0  0  0  0  0  0  0  0  0  0
   57.3630   31.0430   51.2570 C   0  0  0  0  0  0  0  0  0  0  0  0
   57.4470   29.6420   51.4070 O   0  0  0  0  0  0  0  0  0  0  0  0
   58.6790   29.2910   52.0200 C   0  0  0  0  0  0  0  0  0  0  0  0
   59.9120   29.9620   51.3660 C   0  0  0  0  0  0  0  0  0  0  0  0
   58.3845   34.3087   43.7330 H   0  0  0  0  0  0  0  0  0  0  0  0
   60.2058   35.8322   44.5000 H   0  0  0  0  0  0  0  0  0  0  0  0
   60.7201   36.0515   46.9293 H   0  0  0  0  0  0  0  0  0  0  0  0
   58.9020   35.3300   49.5300 H   0  0  0  0  0  0  0  0  0  0  0  0
   62.8965   33.4569   50.9825 H   0  0  0  0  0  0  0  0  0  0  0  0
   62.9388   32.6702   53.3497 H   0  0  0  0  0  0  0  0  0  0  0  0
   60.8336   32.6131   54.6927 H   0  0  0  0  0  0  0  0  0  0  0  0
   58.6839   33.3755   53.6720 H   0  0  0  0  0  0  0  0  0  0  0  0
   58.6283   34.1589   51.3039 H   0  0  0  0  0  0  0  0  0  0  0  0
   57.6353   33.1508   47.8379 H   0  0  0  0  0  0  0  0  0  0  0  0
   56.6105   29.3448   42.7676 H   0  0  0  0  0  0  0  0  0  0  0  0
   57.7674   27.2975   41.9467 H   0  0  0  0  0  0  0  0  0  0  0  0
   59.0785   25.8858   43.5340 H   0  0  0  0  0  0  0  0  0  0  0  0
   59.2703   26.5391   45.9319 H   0  0  0  0  0  0  0  0  0  0  0  0
   60.6334   30.2183   45.6768 H   0  0  0  0  0  0  0  0  0  0  0  0
   62.9674   30.9962   46.0717 H   0  0  0  0  0  0  0  0  0  0  0  0
   63.6899   31.6775   48.3590 H   0  0  0  0  0  0  0  0  0  0  0  0
   62.0844   31.5623   50.2641 H   0  0  0  0  0  0  0  0  0  0  0  0
   58.5204   32.5569   50.2379 H   0  0  0  0  0  0  0  0  0  0  0  0
   57.7918   31.3119   49.1591 H   0  0  0  0  0  0  0  0  0  0  0  0
   57.6674   31.5319   52.1942 H   0  0  0  0  0  0  0  0  0  0  0  0
   56.3275   31.3267   51.0177 H   0  0  0  0  0  0  0  0  0  0  0  0
   58.6394   29.5923   53.0772 H   0  0  0  0  0  0  0  0  0  0  0  0
   58.8012   28.2046   51.8981 H   0  0  0  0  0  0  0  0  0  0  0  0
   60.3714   30.6493   52.0916 H   0  0  0  0  0  0  0  0  0  0  0  0
   60.6188   29.1720   51.0721 H   0  0  0  0  0  0  0  0  0  0  0  0
  1  2  2  0
  2  3  1  0
  3  4  1  0
  4  5  2  0
  5  6  1  0
  6  7  2  0
  7  8  1  0
  8  9  1  0
  9 10  1  0
 10 11  2  0
 10 12  1  0
 12 13  2  0
 13 14  1  0
 14 15  2  0
 15 16  1  0
 16 17  2  0
  8 18  2  0
  2 19  1  0
 19 20  1  0
 20 21  2  0
 21 22  1  0
 22 23  2  0
 23 24  1  0
 24 25  2  0
 25 26  1  0
 26 27  2  0
 26 28  1  0
 28 29  1  0
 29 30  2  0
 30 31  1  0
 31 32  2  0
 32 33  1  0
 33 34  2  0
 34 35  1  0
 35 36  1  0
 36 37  1  0
 37 38  1  0
 38 39  1  0
 39 40  1  0
 18  4  1  0
 25 20  1  0
 34 29  1  0
 40 35  1  0
 17 12  1  0
  5 41  1  0
  6 42  1  0
  7 43  1  0
  9 44  1  0
 13 45  1  0
 14 46  1  0
 15 47  1  0
 16 48  1  0
 17 49  1  0
 18 50  1  0
 21 51  1  0
 22 52  1  0
 23 53  1  0
 24 54  1  0
 30 55  1  0
 31 56  1  0
 32 57  1  0
 33 58  1  0
 36 59  1  0
 36 60  1  0
 37 61  1  0
 37 62  1  0
 39 63  1  0
 39 64  1  0
 40 65  1  0
 40 66  1  0
M  CHG  2   3  -1  28  -1
M  END
>  <UniqueID>  (23) 
20

>  <SMILES>  (23) 
O=C([N-]c1cccc(NC(=O)c2ccccc2)c1)Oc1ccccc1C(=O)[N-]c1ccccc1N1CCOCC1

>  <Energy>  (23) 
106.13285942865683

>  <Genealogy>  (23) 
O=C([N-]c1cccc(NC(=O)c2ccccc2)c1)Oc1ccccc1C(=O)[N-]c1ccccc1N1CCOCC1 (protonated)
O=C([N-]c1cccc(NC(=O)c2ccccc2)c1)Oc1ccccc1C(=O)[N-]c1ccccc1N1CCOCC1 (3D coordinates assigned)
O=C([N-]c1cccc(NC(=O)c2ccccc2)c1)Oc1ccccc1C(=O)[N-]c1ccccc1N1CCOCC1 (nonaromatic ring conformer: 106.13285942865683 kcal/mol)

>  <smiles>  (23) 
O=C(Nc1cccc(NC(=O)c2ccccc2)c1)Oc1ccccc1C(=O)Nc1ccccc1N1CCOCC1

>  <score_type>  (23) 
oracle

>  <origin>  (23) 
adg

>  <m_score__min__energy>  (23) 
-14.710000000000001

>  <m_primary>  (23) 
energy

$$$$
23:0
     RDKit          3D

 30 31  0  0  0  0  0  0  0  0999 V2000
   59.9470   34.6060   48.9440 O   0  0  0  0  0  0  0  0  0  0  0  0
   60.2120   34.2990   47.7520 C   0  0  0  0  0  0  0  0  0  0  0  0
   59.2410   33.5660   46.9200 C   0  0  0  0  0  0  0  0  0  0  0  0
   59.0910   32.1740   47.0340 C   0  0  0  0  0  0  0  0  0  0  0  0
   58.1650   31.4970   46.2370 C   0  0  0  0  0  0  0  0  0  0  0  0
   57.3770   32.1910   45.3120 C   0  0  0  0  0  0  0  0  0  0  0  0
   56.4690   31.4550   44.5330 O   0  0  0  0  0  0  0  0  0  0  0  0
   56.6950   30.1470   44.0060 C   0  0  0  0  0  0  0  0  0  0  0  0
   55.9310   29.0840   44.8050 C   0  0  0  0  0  0  0  0  0  0  0  0
   56.8510   28.0650   45.3370 N   0  0  0  0  0  0  0  0  0  0  0  0
   58.1990   28.2740   45.2370 C   0  0  0  0  0  0  0  0  0  0  0  0
   59.1000   27.3210   45.7060 C   0  0  0  0  0  0  0  0  0  0  0  0
   58.6000   26.1530   46.2710 C   0  0  0  0  0  0  0  0  0  0  0  0
   59.3850   25.2690   46.7050 O   0  0  0  0  0  0  0  0  0  0  0  0
   57.2590   25.9650   46.3540 N   0  0  0  0  0  0  0  0  0  0  0  0
   56.3860   26.8990   45.8940 C   0  0  0  0  0  0  0  0  0  0  0  0
   55.1480   26.6780   45.9930 O   0  0  0  0  0  0  0  0  0  0  0  0
   57.5230   33.5870   45.2010 C   0  0  0  0  0  0  0  0  0  0  0  0
   58.4490   34.2660   45.9980 C   0  0  0  0  0  0  0  0  0  0  0  0
   61.1849   34.5827   47.3242 H   0  0  0  0  0  0  0  0  0  0  0  0
   59.7057   31.6144   47.7544 H   0  0  0  0  0  0  0  0  0  0  0  0
   58.0541   30.4072   46.3375 H   0  0  0  0  0  0  0  0  0  0  0  0
   56.3579   30.1194   42.9593 H   0  0  0  0  0  0  0  0  0  0  0  0
   57.7704   29.9263   44.0748 H   0  0  0  0  0  0  0  0  0  0  0  0
   55.4081   29.5694   45.6422 H   0  0  0  0  0  0  0  0  0  0  0  0
   55.2102   28.5917   44.1356 H   0  0  0  0  0  0  0  0  0  0  0  0
   58.5747   29.2025   44.7824 H   0  0  0  0  0  0  0  0  0  0  0  0
   60.1845   27.4889   45.6310 H   0  0  0  0  0  0  0  0  0  0  0  0
   56.9050   34.1463   44.4832 H   0  0  0  0  0  0  0  0  0  0  0  0
   58.5573   35.3564   45.9015 H   0  0  0  0  0  0  0  0  0  0  0  0
  1  2  2  0
  2  3  1  0
  3  4  2  0
  4  5  1  0
  5  6  2  0
  6  7  1  0
  7  8  1  0
  8  9  1  0
  9 10  1  0
 10 11  1  0
 11 12  2  0
 12 13  1  0
 13 14  2  0
 13 15  1  0
 15 16  1  0
 16 17  2  0
  6 18  1  0
 18 19  2  0
 19  3  1  0
 16 10  1  0
  2 20  1  0
  4 21  1  0
  5 22  1  0
  8 23  1  0
  8 24  1  0
  9 25  1  0
  9 26  1  0
 11 27  1  0
 12 28  1  0
 18 29  1  0
 19 30  1  0
M  CHG  1  15  -1
M  END
>  <UniqueID>  (24) 
21

>  <SMILES>  (24) 
O=Cc1ccc(OCCn2ccc(=O)[n-]c2=O)cc1

>  <Energy>  (24) 
31.30139132097753

>  <Genealogy>  (24) 
O=Cc1ccc(OCCn2ccc(=O)[n-]c2=O)cc1 (protonated)
O=Cc1ccc(OCCn2ccc(=O)[n-]c2=O)cc1 (3D coordinates assigned)
O=Cc1ccc(OCCn2ccc(=O)[n-]c2=O)cc1 (optimized conformer: 31.30139132097753 kcal/mol)

>  <smiles>  (24) 
O=Cc1ccc(OCCn2ccc(=O)[nH]c2=O)cc1

>  <score_type>  (24) 
oracle

>  <origin>  (24) 
adg

>  <m_score__min__energy>  (24) 
-8.0600000000000005

>  <m_primary>  (24) 
energy

$$$$
24:0
     RDKit          3D

 33 36  0  0  0  0  0  0  0  0999 V2000
   54.4800   21.6930   45.9300 C   0  0  0  0  0  0  0  0  0  0  0  0
   53.8860   22.8650   45.6960 C   0  0  0  0  0  0  0  0  0  0  0  0
   52.6510   22.9630   45.1710 N   0  0  0  0  0  0  0  0  0  0  0  0
   52.4390   24.2930   45.1010 C   0  0  0  0  0  0  0  0  0  0  0  0
   51.0570   24.9410   44.5230 S   0  0  0  0  0  0  0  0  0  0  0  0
   53.4660   25.0440   45.5520 N   0  0  0  0  0  0  0  0  0  0  0  0
   54.3900   24.1390   45.9250 C   0  0  0  0  0  0  0  0  0  0  0  0
   55.5750   24.4620   46.4690 C   0  0  0  0  0  0  0  0  0  0  0  0
   56.3570   25.6440   46.0610 C   0  0  0  0  0  0  0  0  0  0  0  0
   55.8080   26.8640   45.9170 N   0  0  0  0  0  0  0  0  0  0  0  0
   56.8010   27.7140   45.5860 C   0  0  0  0  0  0  0  0  0  0  0  0
   58.0130   27.0320   45.5350 C   0  0  0  0  0  0  0  0  0  0  0  0
   57.7240   25.7110   45.8330 C   0  0  0  0  0  0  0  0  0  0  0  0
   58.9040   24.4220   46.0400 Cl  0  0  0  0  0  0  0  0  0  0  0  0
   59.3450   27.5390   45.1390 C   0  0  0  0  0  0  0  0  0  0  0  0
   59.7420   28.8110   45.2520 C   0  0  0  0  0  0  0  0  0  0  0  0
   58.9280   29.8760   45.9270 C   0  0  1  0  0  0  0  0  0  0  0  0
   59.6440   31.1100   45.9190 O   0  0  0  0  0  0  0  0  0  0  0  0
   58.8260   32.0980   45.3140 C   0  0  0  0  0  0  0  0  0  0  0  0
   57.6010   31.4160   44.9020 C   0  0  0  0  0  0  0  0  0  0  0  0
   56.6210   31.9630   44.3300 O   0  0  0  0  0  0  0  0  0  0  0  0
   57.6650   30.0600   45.2380 N   0  0  0  0  0  0  0  0  0  0  0  0
   56.5730   29.1340   45.2640 C   0  0  0  0  0  0  0  0  0  0  0  0
   55.4020   29.5310   45.0210 O   0  0  0  0  0  0  0  0  0  0  0  0
   55.4917   21.6655   46.3609 H   0  0  0  0  0  0  0  0  0  0  0  0
   53.9579   20.7545   45.6919 H   0  0  0  0  0  0  0  0  0  0  0  0
   55.9823   23.8127   47.2579 H   0  0  0  0  0  0  0  0  0  0  0  0
   54.7970   27.1020   46.0300 H   0  0  0  0  0  0  0  0  0  0  0  0
   60.0616   26.8167   44.7209 H   0  0  0  0  0  0  0  0  0  0  0  0
   60.7172   29.0917   44.8276 H   0  0  0  0  0  0  0  0  0  0  0  0
   58.7348   29.5617   46.9633 H   0  0  0  0  0  0  0  0  0  0  0  0
   58.5944   32.8955   46.0354 H   0  0  0  0  0  0  0  0  0  0  0  0
   59.3313   32.5673   44.4570 H   0  0  0  0  0  0  0  0  0  0  0  0
  1  2  2  0
  2  3  1  0
  3  4  1  0
  4  5  2  0
  4  6  1  0
  6  7  1  0
  7  8  2  3
  8  9  1  0
  9 10  1  0
 10 11  1  0
 11 12  2  0
 12 13  1  0
 13 14  1  0
 12 15  1  0
 15 16  2  0
 16 17  1  0
 17 18  1  0
 18 19  1  0
 19 20  1  0
 20 21  2  0
 20 22  1  0
 22 23  1  0
 23 24  2  0
  7  2  1  0
 13  9  2  0
 22 17  1  0
 23 11  1  0
  1 25  1  0
  1 26  1  0
  8 27  1  0
 10 28  1  0
 15 29  1  0
 16 30  1  0
 17 31  1  1
 19 32  1  0
 19 33  1  0
M  CHG  2   3  -1   6  -1
M  END
>  <UniqueID>  (25) 
22

>  <SMILES>  (25) 
C=c1[n-]c(=S)[n-]c1=Cc1[nH]c2c(c1Cl)C=C[C@H]1OCC(=O)N1C2=O

>  <Energy>  (25) 
112.63318311048195

>  <Genealogy>  (25) 
C=c1[n-]c(=S)[n-]c1=Cc1[nH]c2c(c1Cl)C=CC1OCC(=O)N1C2=O (protonated)
C=c1[n-]c(=S)[n-]c1=Cc1[nH]c2c(c1Cl)C=C[C@H]1OCC(=O)N1C2=O (chirality)
C=c1[n-]c(=S)[n-]c1=Cc1[nH]c2c(c1Cl)C=C[C@H]1OCC(=O)N1C2=O (3D coordinates assigned)
C=c1[n-]c(=S)[n-]c1=Cc1[nH]c2c(c1Cl)C=C[C@H]1OCC(=O)N1C2=O (nonaromatic ring conformer: 112.63318311048195 kcal/mol)

>  <smiles>  (25) 
C=c1[nH]c(=S)[nH]c1=Cc1[nH]c2c(c1Cl)C=CC1OCC(=O)N1C2=O

>  <score_type>  (25) 
oracle

>  <origin>  (25) 
adg

>  <m_score__min__energy>  (25) 
-9.7599999999999998

>  <m_primary>  (25) 
energy

$$$$
25:0
     RDKit          3D

 47 49  0  0  0  0  0  0  0  0999 V2000
   60.3267   35.4644   46.0023 H   0  0  0  0  0  0  0  0  0  0  0  0
   59.7570   34.5260   45.9320 C   0  0  0  0  0  0  0  0  0  0  0  0
   58.2670   34.3290   45.1740 S   0  0  0  0  0  0  0  0  0  0  0  0
   58.1730   32.6870   45.5400 C   0  0  0  0  0  0  0  0  0  0  0  0
   57.1890   31.8860   45.2530 N   0  0  0  0  0  0  0  0  0  0  0  0
   57.2490   30.7400   44.3920 C   0  0  0  0  0  0  0  0  0  0  0  0
   56.2770   30.5030   43.6280 O   0  0  0  0  0  0  0  0  0  0  0  0
   58.3850   29.7520   44.4620 C   0  0  0  0  0  0  0  0  0  0  0  0
   58.7080   29.5010   43.4409 H   0  0  0  0  0  0  0  0  0  0  0  0
   59.2134   30.2068   45.0250 H   0  0  0  0  0  0  0  0  0  0  0  0
   57.9560   28.4920   45.1680 C   0  0  0  0  0  0  0  0  0  0  0  0
   58.9020   27.6590   45.7850 C   0  0  0  0  0  0  0  0  0  0  0  0
   59.9719   27.9070   45.7229 H   0  0  0  0  0  0  0  0  0  0  0  0
   58.4930   26.5160   46.4780 C   0  0  0  0  0  0  0  0  0  0  0  0
   59.2426   25.8703   46.9587 H   0  0  0  0  0  0  0  0  0  0  0  0
   57.1280   26.1870   46.5640 C   0  0  0  0  0  0  0  0  0  0  0  0
   56.6720   25.0520   47.2530 O   0  0  0  0  0  0  0  0  0  0  0  0
   55.9370   23.9900   46.6540 C   0  0  0  0  0  0  0  0  0  0  0  0
   55.4994   23.3577   47.4406 H   0  0  0  0  0  0  0  0  0  0  0  0
   55.1333   24.4070   46.0293 H   0  0  0  0  0  0  0  0  0  0  0  0
   56.6104   23.3848   46.0293 H   0  0  0  0  0  0  0  0  0  0  0  0
   56.1840   27.0170   45.9420 C   0  0  0  0  0  0  0  0  0  0  0  0
   54.8310   26.7080   46.0150 O   0  0  0  0  0  0  0  0  0  0  0  0
   56.5940   28.1600   45.2490 C   0  0  0  0  0  0  0  0  0  0  0  0
   55.8449   28.8033   44.7642 H   0  0  0  0  0  0  0  0  0  0  0  0
   59.2500   32.2830   46.2460 N   0  0  0  0  0  0  0  0  0  0  0  0
   59.3670   31.3090   46.6060 H   0  0  0  0  0  0  0  0  0  0  0  0
   60.1440   33.2910   46.4560 C   0  0  0  0  0  0  0  0  0  0  0  0
   61.4150   33.0890   47.1880 C   0  0  0  0  0  0  0  0  0  0  0  0
   62.5400   33.8560   46.8450 C   0  0  0  0  0  0  0  0  0  0  0  0
   62.4700   34.5916   46.0301 H   0  0  0  0  0  0  0  0  0  0  0  0
   63.7460   33.6940   47.5280 C   0  0  0  0  0  0  0  0  0  0  0  0
   64.6177   34.3058   47.2525 H   0  0  0  0  0  0  0  0  0  0  0  0
   63.8520   32.7540   48.5650 C   0  0  0  0  0  0  0  0  0  0  0  0
   65.0420   32.5560   49.2830 O   0  0  0  0  0  0  0  0  0  0  0  0
   65.1120   31.9590   50.5740 C   0  0  0  0  0  0  0  0  0  0  0  0
   65.0205   32.7391   51.3441 H   0  0  0  0  0  0  0  0  0  0  0  0
   64.2927   31.2338   50.6875 H   0  0  0  0  0  0  0  0  0  0  0  0
   66.0768   31.4430   50.6875 H   0  0  0  0  0  0  0  0  0  0  0  0
   62.7370   31.9790   48.9030 C   0  0  0  0  0  0  0  0  0  0  0  0
   62.8152   31.2422   49.7160 H   0  0  0  0  0  0  0  0  0  0  0  0
   61.5160   32.1290   48.2170 C   0  0  0  0  0  0  0  0  0  0  0  0
   60.4020   31.3270   48.5160 O   0  0  0  0  0  0  0  0  0  0  0  0
   60.3650   29.9090   48.3930 C   0  0  0  0  0  0  0  0  0  0  0  0
   60.3531   29.4543   49.3945 H   0  0  0  0  0  0  0  0  0  0  0  0
   59.4588   29.6120   47.8447 H   0  0  0  0  0  0  0  0  0  0  0  0
   61.2545   29.5652   47.8447 H   0  0  0  0  0  0  0  0  0  0  0  0
  1  2  1  0
  2  3  1  0
  3  4  1  0
  4  5  2  0
  5  6  1  0
  6  7  2  0
  6  8  1  0
  8  9  1  0
  8 10  1  0
  8 11  1  0
 11 12  2  0
 12 13  1  0
 12 14  1  0
 14 15  1  0
 14 16  2  0
 16 17  1  0
 17 18  1  0
 18 19  1  0
 18 20  1  0
 18 21  1  0
 16 22  1  0
 22 23  1  0
 22 24  2  0
 24 25  1  0
  4 26  1  0
 26 27  1  0
 26 28  1  0
 28 29  1  0
 29 30  2  0
 30 31  1  0
 30 32  1  0
 32 33  1  0
 32 34  2  0
 34 35  1  0
 35 36  1  0
 36 37  1  0
 36 38  1  0
 36 39  1  0
 34 40  1  0
 40 41  1  0
 40 42  2  0
 42 43  1  0
 43 44  1  0
 44 45  1  0
 44 46  1  0
 44 47  1  0
 28  2  2  0
 42 29  1  0
 24 11  1  0
M  CHG  1  23  -1
M  END
>  <UniqueID>  (26) 
23

>  <SMILES>  (26) 
COc1ccc(-c2cs/c(=N\C(=O)Cc3ccc(OC)c([O-])c3)[nH]2)c(OC)c1

>  <Energy>  (26) 
87.777704286502

>  <Genealogy>  (26) 
COc1ccc(-c2csc(=NC(=O)Cc3ccc(OC)c([O-])c3)[nH]2)c(OC)c1 (protonated)
COc1ccc(-c2cs/c(=N\C(=O)Cc3ccc(OC)c([O-])c3)[nH]2)c(OC)c1 (cis-trans isomerization)
COc1ccc(-c2cs/c(=N\C(=O)Cc3ccc(OC)c([O-])c3)[nH]2)c(OC)c1 (3D coordinates assigned)
COc1ccc(-c2cs/c(=N\C(=O)Cc3ccc(OC)c([O-])c3)[nH]2)c(OC)c1 (optimized conformer: 87.777704286502 kcal/mol)

>  <smiles>  (26) 
COc1ccc(-c2csc(=NC(=O)Cc3ccc(OC)c(O)c3)[nH]2)c(OC)c1

>  <score_type>  (26) 
oracle

>  <origin>  (26) 
adg

>  <m_score__min__energy>  (26) 
-11.720000000000001

>  <m_primary>  (26) 
energy

$$$$
26:0
     RDKit          3D

 51 53  0  0  0  0  0  0  0  0999 V2000
   59.1630   29.7640   48.6780 C   0  0  0  0  0  0  0  0  0  0  0  0
   58.7050   30.9190   47.9860 O   0  0  0  0  0  0  0  0  0  0  0  0
   59.5410   31.9280   47.4810 C   0  0  0  0  0  0  0  0  0  0  0  0
   60.9440   31.8560   47.5970 C   0  0  0  0  0  0  0  0  0  0  0  0
   61.7520   32.8650   47.0660 C   0  0  0  0  0  0  0  0  0  0  0  0
   61.1720   33.9520   46.4080 C   0  0  0  0  0  0  0  0  0  0  0  0
   59.7870   34.0380   46.2920 C   0  0  0  0  0  0  0  0  0  0  0  0
   58.9590   33.0430   46.8400 C   0  0  0  0  0  0  0  0  0  0  0  0
   57.4590   33.1660   46.7020 C   0  0  0  0  0  0  0  0  0  0  0  0
   57.0110   33.1050   45.2410 C   0  0  0  0  0  0  0  0  0  0  0  0
   57.5580   31.9180   44.5900 N   0  0  0  0  0  0  0  0  0  0  0  0
   57.1280   30.5800   44.8610 C   0  0  0  0  0  0  0  0  0  0  0  0
   55.8950   30.3260   44.8530 O   0  0  0  0  0  0  0  0  0  0  0  0
   58.0850   29.4940   45.1590 C   0  0  0  0  0  0  0  0  0  0  0  0
   59.4480   29.6500   44.8670 C   0  0  0  0  0  0  0  0  0  0  0  0
   60.3540   28.6330   45.1750 C   0  0  0  0  0  0  0  0  0  0  0  0
   59.9100   27.4610   45.7890 C   0  0  0  0  0  0  0  0  0  0  0  0
   58.5580   27.2970   46.1140 C   0  0  0  0  0  0  0  0  0  0  0  0
   58.1740   26.1070   46.7510 O   0  0  0  0  0  0  0  0  0  0  0  0
   57.9190   24.8600   46.0980 C   0  0  0  0  0  0  0  0  0  0  0  0
   57.0720   25.0670   44.8400 C   0  0  0  0  0  0  0  0  0  0  0  0
   55.7100   24.5910   45.0710 N   0  0  0  0  0  0  0  0  0  0  0  0
   54.6910   25.2890   45.6070 C   0  0  0  0  0  0  0  0  0  0  0  0
   54.8030   26.5870   46.0850 O   0  0  0  0  0  0  0  0  0  0  0  0
   53.5290   24.5450   45.6050 C   0  0  0  0  0  0  0  0  0  0  0  0
   53.8510   23.3320   45.0250 C   0  0  0  0  0  0  0  0  0  0  0  0
   55.1930   23.4040   44.7060 C   0  0  0  0  0  0  0  0  0  0  0  0
   55.9240   22.3990   44.0840 O   0  0  0  0  0  0  0  0  0  0  0  0
   57.6460   28.3260   45.8020 C   0  0  0  0  0  0  0  0  0  0  0  0
   59.0951   29.9353   49.7625 H   0  0  0  0  0  0  0  0  0  0  0  0
   58.5392   28.9006   48.4034 H   0  0  0  0  0  0  0  0  0  0  0  0
   60.2090   29.5627   48.4034 H   0  0  0  0  0  0  0  0  0  0  0  0
   61.4062   30.9993   48.1093 H   0  0  0  0  0  0  0  0  0  0  0  0
   62.8457   32.8031   47.1663 H   0  0  0  0  0  0  0  0  0  0  0  0
   61.8095   34.7404   45.9813 H   0  0  0  0  0  0  0  0  0  0  0  0
   59.3365   34.8929   45.7664 H   0  0  0  0  0  0  0  0  0  0  0  0
   56.9829   32.3423   47.2541 H   0  0  0  0  0  0  0  0  0  0  0  0
   57.1595   34.1432   47.1086 H   0  0  0  0  0  0  0  0  0  0  0  0
   55.9124   33.0670   45.2001 H   0  0  0  0  0  0  0  0  0  0  0  0
   57.3781   34.0001   44.7176 H   0  0  0  0  0  0  0  0  0  0  0  0
   59.8045   30.5768   44.3937 H   0  0  0  0  0  0  0  0  0  0  0  0
   61.4200   28.7559   44.9331 H   0  0  0  0  0  0  0  0  0  0  0  0
   60.6278   26.6599   46.0194 H   0  0  0  0  0  0  0  0  0  0  0  0
   58.8768   24.3985   45.8157 H   0  0  0  0  0  0  0  0  0  0  0  0
   57.3676   24.2065   46.7900 H   0  0  0  0  0  0  0  0  0  0  0  0
   57.0462   26.1380   44.5903 H   0  0  0  0  0  0  0  0  0  0  0  0
   57.5163   24.5007   44.0082 H   0  0  0  0  0  0  0  0  0  0  0  0
   52.5452   24.8544   45.9876 H   0  0  0  0  0  0  0  0  0  0  0  0
   53.1751   22.4815   44.8525 H   0  0  0  0  0  0  0  0  0  0  0  0
   55.5170   21.8420   43.3440 H   0  0  0  0  0  0  0  0  0  0  0  0
   56.5837   28.2128   46.0641 H   0  0  0  0  0  0  0  0  0  0  0  0
  1  2  1  0
  2  3  1  0
  3  4  2  0
  4  5  1  0
  5  6  2  0
  6  7  1  0
  7  8  2  0
  8  9  1  0
  9 10  1  0
 10 11  1  0
 11 12  1  0
 12 13  2  0
 12 14  1  0
 14 15  2  0
 15 16  1  0
 16 17  2  0
 17 18  1  0
 18 19  1  0
 19 20  1  0
 20 21  1  0
 21 22  1  0
 22 23  1  0
 23 24  1  0
 23 25  2  0
 25 26  1  0
 26 27  2  0
 27 28  1  0
 18 29  2  0
  8  3  1  0
 29 14  1  0
 27 22  1  0
  1 30  1  0
  1 31  1  0
  1 32  1  0
  4 33  1  0
  5 34  1  0
  6 35  1  0
  7 36  1  0
  9 37  1  0
  9 38  1  0
 10 39  1  0
 10 40  1  0
 15 41  1  0
 16 42  1  0
 17 43  1  0
 20 44  1  0
 20 45  1  0
 21 46  1  0
 21 47  1  0
 25 48  1  0
 26 49  1  0
 28 50  1  0
 29 51  1  0
M  CHG  2  11  -1  24  -1
M  END
>  <UniqueID>  (27) 
24

>  <SMILES>  (27) 
COc1ccccc1CC[N-]C(=O)c1cccc(OCCn2c([O-])ccc2O)c1

>  <Energy>  (27) 
79.42310411711664

>  <Genealogy>  (27) 
COc1ccccc1CC[N-]C(=O)c1cccc(OCCn2c([O-])ccc2O)c1 (protonated)
COc1ccccc1CC[N-]C(=O)c1cccc(OCCn2c([O-])ccc2O)c1 (3D coordinates assigned)
COc1ccccc1CC[N-]C(=O)c1cccc(OCCn2c([O-])ccc2O)c1 (optimized conformer: 79.42310411711664 kcal/mol)

>  <smiles>  (27) 
COc1ccccc1CCNC(=O)c1cccc(OCCn2c(O)ccc2O)c1

>  <score_type>  (27) 
oracle

>  <origin>  (27) 
adg

>  <m_score__min__energy>  (27) 
-12.93

>  <m_primary>  (27) 
energy

$$$$
27:0
     RDKit          3D

 56 58  0  0  0  0  0  0  0  0999 V2000
   61.0630   32.6293   49.3721 H   0  0  0  0  0  0  0  0  0  0  0  0
   60.1780   32.3250   48.7940 C   0  0  0  0  0  0  0  0  0  0  0  0
   60.1030   31.0380   48.3900 C   0  0  0  0  0  0  0  0  0  0  0  0
   60.9140   30.6140   47.1930 C   0  0  0  0  0  0  0  0  0  0  0  0
   61.8415   30.1291   47.5316 H   0  0  0  0  0  0  0  0  0  0  0  0
   60.3302   29.9057   46.5868 H   0  0  0  0  0  0  0  0  0  0  0  0
   61.1624   31.4976   46.5868 H   0  0  0  0  0  0  0  0  0  0  0  0
   59.2530   30.0200   49.1120 C   0  0  0  0  0  0  0  0  0  0  0  0
   59.3644   30.1534   50.1982 H   0  0  0  0  0  0  0  0  0  0  0  0
   58.1983   30.1581   48.8319 H   0  0  0  0  0  0  0  0  0  0  0  0
   59.5771   29.0068   48.8319 H   0  0  0  0  0  0  0  0  0  0  0  0
   59.1310   33.3750   48.5070 C   0  0  0  0  0  0  0  0  0  0  0  0
   58.6916   33.7086   49.4586 H   0  0  0  0  0  0  0  0  0  0  0  0
   58.3679   32.9264   47.8539 H   0  0  0  0  0  0  0  0  0  0  0  0
   59.7250   34.5920   47.7800 C   0  0  0  0  0  0  0  0  0  0  0  0
   60.5074   35.0370   48.4123 H   0  0  0  0  0  0  0  0  0  0  0  0
   58.9112   35.3081   47.5931 H   0  0  0  0  0  0  0  0  0  0  0  0
   60.3330   34.2110   46.4420 C   0  0  0  0  0  0  0  0  0  0  0  0
   59.6320   34.2150   45.2870 C   0  0  0  0  0  0  0  0  0  0  0  0
   60.1986   34.2893   44.3471 H   0  0  0  0  0  0  0  0  0  0  0  0
   58.1280   34.1250   45.1920 C   0  0  0  0  0  0  0  0  0  0  0  0
   57.8334   34.1299   44.1322 H   0  0  0  0  0  0  0  0  0  0  0  0
   57.6911   34.9873   45.7170 H   0  0  0  0  0  0  0  0  0  0  0  0
   57.6360   32.8980   45.8200 N   0  0  0  0  0  0  0  0  0  0  0  0
   57.3830   32.9480   46.8330 H   0  0  0  0  0  0  0  0  0  0  0  0
   57.4890   31.6350   45.1420 C   0  0  0  0  0  0  0  0  0  0  0  0
   57.0830   31.5560   43.7970 C   0  0  0  0  0  0  0  0  0  0  0  0
   56.8678   32.4770   43.2354 H   0  0  0  0  0  0  0  0  0  0  0  0
   56.9520   30.3150   43.1720 C   0  0  0  0  0  0  0  0  0  0  0  0
   56.6389   30.2632   42.1188 H   0  0  0  0  0  0  0  0  0  0  0  0
   57.2160   29.1400   43.8760 C   0  0  0  0  0  0  0  0  0  0  0  0
   57.1130   28.1669   43.3736 H   0  0  0  0  0  0  0  0  0  0  0  0
   57.6130   29.1920   45.2240 C   0  0  0  0  0  0  0  0  0  0  0  0
   57.8970   27.9470   45.9780 C   0  0  0  0  0  0  0  0  0  0  0  0
   59.0690   27.7080   46.7280 C   0  0  0  0  0  0  0  0  0  0  0  0
   59.9069   28.4147   46.8205 H   0  0  0  0  0  0  0  0  0  0  0  0
   59.0080   26.1660   47.4750 S   0  0  0  0  0  0  0  0  0  0  0  0
   57.5050   25.8310   46.8260 C   0  0  0  0  0  0  0  0  0  0  0  0
   56.5100   24.8980   46.8340 C   0  0  0  0  0  0  0  0  0  0  0  0
   56.5070   23.8000   47.4500 O   0  0  0  0  0  0  0  0  0  0  0  0
   55.4920   25.3800   46.0750 N   0  0  0  0  0  0  0  0  0  0  0  0
   54.1940   24.7460   45.8600 C   0  0  0  0  0  0  0  0  0  0  0  0
   53.4438   25.5197   45.6395 H   0  0  0  0  0  0  0  0  0  0  0  0
   53.9092   24.1946   46.7682 H   0  0  0  0  0  0  0  0  0  0  0  0
   54.2710   23.7730   44.6920 C   0  0  0  0  0  0  0  0  0  0  0  0
   54.3523   22.7453   45.0757 H   0  0  0  0  0  0  0  0  0  0  0  0
   53.3628   23.8644   44.0781 H   0  0  0  0  0  0  0  0  0  0  0  0
   55.1535   24.0061   44.0781 H   0  0  0  0  0  0  0  0  0  0  0  0
   55.8080   26.5910   45.6130 N   0  0  0  0  0  0  0  0  0  0  0  0
   57.0510   26.8420   46.0720 C   0  0  0  0  0  0  0  0  0  0  0  0
   57.7480   30.4460   45.8450 C   0  0  0  0  0  0  0  0  0  0  0  0
   58.0614   30.4974   46.8982 H   0  0  0  0  0  0  0  0  0  0  0  0
   61.7940   33.8440   46.3880 C   0  0  0  0  0  0  0  0  0  0  0  0
   62.1854   33.7457   47.4113 H   0  0  0  0  0  0  0  0  0  0  0  0
   61.9126   32.8882   45.8567 H   0  0  0  0  0  0  0  0  0  0  0  0
   62.3502   34.6303   45.8567 H   0  0  0  0  0  0  0  0  0  0  0  0
  1  2  1  0
  2  3  2  3
  3  4  1  0
  4  5  1  0
  4  6  1  0
  4  7  1  0
  3  8  1  0
  8  9  1  0
  8 10  1  0
  8 11  1  0
  2 12  1  0
 12 13  1  0
 12 14  1  0
 12 15  1  0
 15 16  1  0
 15 17  1  0
 15 18  1  0
 18 19  2  0
 19 20  1  0
 19 21  1  0
 21 22  1  0
 21 23  1  0
 21 24  1  0
 24 25  1  0
 24 26  1  0
 26 27  2  0
 27 28  1  0
 27 29  1  0
 29 30  1  0
 29 31  2  0
 31 32  1  0
 31 33  1  0
 33 34  1  0
 34 35  2  0
 35 36  1  0
 35 37  1  0
 37 38  1  0
 38 39  1  0
 39 40  2  0
 39 41  1  0
 41 42  1  0
 42 43  1  0
 42 44  1  0
 42 45  1  0
 45 46  1  0
 45 47  1  0
 45 48  1  0
 41 49  1  0
 49 50  1  0
 33 51  2  0
 51 52  1  0
 18 53  1  0
 53 54  1  0
 53 55  1  0
 53 56  1  0
 51 26  1  0
 50 34  1  0
 50 38  2  0
M  CHG  1  49  -1
M  END
>  <UniqueID>  (28) 
25

>  <SMILES>  (28) 
CCn1[n-]c2c(-c3cccc(NC/C=C(/C)CCC=C(C)C)c3)csc2c1=O

>  <Energy>  (28) 
130.73949224730265

>  <Genealogy>  (28) 
CCn1[n-]c2c(-c3cccc(NCC=C(C)CCC=C(C)C)c3)csc2c1=O (protonated)
CCn1[n-]c2c(-c3cccc(NC/C=C(/C)CCC=C(C)C)c3)csc2c1=O (cis-trans isomerization)
CCn1[n-]c2c(-c3cccc(NC/C=C(/C)CCC=C(C)C)c3)csc2c1=O (3D coordinates assigned)
CCn1[n-]c2c(-c3cccc(NC/C=C(/C)CCC=C(C)C)c3)csc2c1=O (optimized conformer: 130.73949224730265 kcal/mol)

>  <smiles>  (28) 
CCn1[nH]c2c(-c3cccc(NCC=C(C)CCC=C(C)C)c3)csc2c1=O

>  <score_type>  (28) 
oracle

>  <origin>  (28) 
adg

>  <m_score__min__energy>  (28) 
-9.6699999999999999

>  <m_primary>  (28) 
energy

$$$$
28:0
     RDKit          3D

 54 56  0  0  0  0  0  0  0  0999 V2000
   59.6091   35.2789   47.6742 H   0  0  0  0  0  0  0  0  0  0  0  0
   59.1650   34.6160   46.9170 C   0  0  0  0  0  0  0  0  0  0  0  0
   59.4270   34.8300   45.5610 C   0  0  0  0  0  0  0  0  0  0  0  0
   60.0831   35.6573   45.2526 H   0  0  0  0  0  0  0  0  0  0  0  0
   58.8570   33.9950   44.5960 C   0  0  0  0  0  0  0  0  0  0  0  0
   59.0751   34.1599   43.5305 H   0  0  0  0  0  0  0  0  0  0  0  0
   58.0050   32.9440   44.9830 C   0  0  0  0  0  0  0  0  0  0  0  0
   57.4110   32.0210   43.9520 C   0  0  0  0  0  0  0  0  0  0  0  0
   58.1962   31.3431   43.5860 H   0  0  0  0  0  0  0  0  0  0  0  0
   57.0076   32.6356   43.1338 H   0  0  0  0  0  0  0  0  0  0  0  0
   56.3170   31.2240   44.5050 N   0  0  0  0  0  0  0  0  0  0  0  0
   56.2630   29.7930   44.6080 C   0  0  0  0  0  0  0  0  0  0  0  0
   55.1530   29.2480   44.8480 O   0  0  0  0  0  0  0  0  0  0  0  0
   57.4800   28.9190   44.4510 C   0  0  0  0  0  0  0  0  0  0  0  0
   57.9764   29.1675   43.5013 H   0  0  0  0  0  0  0  0  0  0  0  0
   57.1504   27.8696   44.4629 H   0  0  0  0  0  0  0  0  0  0  0  0
   58.4550   29.1130   45.5730 C   0  0  0  0  0  0  0  0  0  0  0  0
   58.5530   28.2980   46.6840 C   0  0  0  0  0  0  0  0  0  0  0  0
   57.9625   27.3946   46.8962 H   0  0  0  0  0  0  0  0  0  0  0  0
   59.5430   28.8480   47.4740 C   0  0  0  0  0  0  0  0  0  0  0  0
   59.9560   28.3470   48.7990 C   0  0  0  0  0  0  0  0  0  0  0  0
   60.9330   27.5550   48.8740 O   0  0  0  0  0  0  0  0  0  0  0  0
   59.2880   28.7420   50.0040 N   0  0  0  0  0  0  0  0  0  0  0  0
   58.9870   29.9670   50.3130 C   0  0  0  0  0  0  0  0  0  0  0  0
   57.7720   30.4590   50.3470 O   0  0  0  0  0  0  0  0  0  0  0  0
   57.8090   31.7100   50.6930 N   0  0  0  0  0  0  0  0  0  0  0  0
   56.9640   32.3160   50.7810 H   0  0  0  0  0  0  0  0  0  0  0  0
   59.1010   32.0530   50.9020 C   0  0  0  0  0  0  0  0  0  0  0  0
   59.6070   33.4360   51.2900 C   0  0  0  0  0  0  0  0  0  0  0  0
   59.9540   34.2220   50.0120 C   0  0  0  0  0  0  0  0  0  0  0  0
   60.3842   35.1965   50.2863 H   0  0  0  0  0  0  0  0  0  0  0  0
   60.6845   33.6527   49.4184 H   0  0  0  0  0  0  0  0  0  0  0  0
   59.0412   34.3782   49.4184 H   0  0  0  0  0  0  0  0  0  0  0  0
   60.8670   33.2900   52.1630 C   0  0  0  0  0  0  0  0  0  0  0  0
   60.5830   33.3229   53.2252 H   0  0  0  0  0  0  0  0  0  0  0  0
   61.3557   32.3292   51.9437 H   0  0  0  0  0  0  0  0  0  0  0  0
   61.5625   34.1136   51.9437 H   0  0  0  0  0  0  0  0  0  0  0  0
   58.5460   34.2250   52.0850 C   0  0  0  0  0  0  0  0  0  0  0  0
   58.7227   34.0936   53.1627 H   0  0  0  0  0  0  0  0  0  0  0  0
   58.6154   35.2927   51.8295 H   0  0  0  0  0  0  0  0  0  0  0  0
   57.5435   33.8513   51.8295 H   0  0  0  0  0  0  0  0  0  0  0  0
   59.8960   30.9390   50.6650 C   0  0  0  0  0  0  0  0  0  0  0  0
   60.9901   30.8538   50.7405 H   0  0  0  0  0  0  0  0  0  0  0  0
   60.0450   29.9430   46.7810 C   0  0  0  0  0  0  0  0  0  0  0  0
   61.1510   30.8530   47.2150 C   0  0  0  0  0  0  0  0  0  0  0  0
   61.1897   30.8849   48.3139 H   0  0  0  0  0  0  0  0  0  0  0  0
   62.1088   30.4779   46.8251 H   0  0  0  0  0  0  0  0  0  0  0  0
   60.9675   31.8651   46.8251 H   0  0  0  0  0  0  0  0  0  0  0  0
   59.3740   30.0970   45.6230 N   0  0  0  0  0  0  0  0  0  0  0  0
   59.5310   30.8430   44.9100 H   0  0  0  0  0  0  0  0  0  0  0  0
   57.7690   32.7200   46.3500 C   0  0  0  0  0  0  0  0  0  0  0  0
   57.1328   31.8798   46.6653 H   0  0  0  0  0  0  0  0  0  0  0  0
   58.3390   33.5600   47.3110 C   0  0  0  0  0  0  0  0  0  0  0  0
   58.1371   33.3895   48.3788 H   0  0  0  0  0  0  0  0  0  0  0  0
  1  2  1  0
  2  3  2  0
  3  4  1  0
  3  5  1  0
  5  6  1  0
  5  7  2  0
  7  8  1  0
  8  9  1  0
  8 10  1  0
  8 11  1  0
 11 12  1  0
 12 13  2  0
 12 14  1  0
 14 15  1  0
 14 16  1  0
 14 17  1  0
 17 18  2  0
 18 19  1  0
 18 20  1  0
 20 21  1  0
 21 22  2  0
 21 23  1  0
 23 24  2  0
 24 25  1  0
 25 26  1  0
 26 27  1  0
 26 28  1  0
 28 29  1  0
 29 30  1  0
 30 31  1  0
 30 32  1  0
 30 33  1  0
 29 34  1  0
 34 35  1  0
 34 36  1  0
 34 37  1  0
 29 38  1  0
 38 39  1  0
 38 40  1  0
 38 41  1  0
 28 42  2  0
 42 43  1  0
 20 44  2  0
 44 45  1  0
 45 46  1  0
 45 47  1  0
 45 48  1  0
 44 49  1  0
 49 50  1  0
  7 51  1  0
 51 52  1  0
 51 53  2  0
 53 54  1  0
 53  2  1  0
 49 17  1  0
 42 24  1  0
M  CHG  1  11  -1
M  END
>  <UniqueID>  (29) 
26

>  <SMILES>  (29) 
Cc1[nH]c(CC(=O)[N-]Cc2ccccc2)cc1C(=O)/N=c1/cc(C(C)(C)C)[nH]o1

>  <Energy>  (29) 
109.52346732795927

>  <Genealogy>  (29) 
Cc1[nH]c(CC(=O)[N-]Cc2ccccc2)cc1C(=O)N=c1cc(C(C)(C)C)[nH]o1 (protonated)
Cc1[nH]c(CC(=O)[N-]Cc2ccccc2)cc1C(=O)/N=c1/cc(C(C)(C)C)[nH]o1 (cis-trans isomerization)
Cc1[nH]c(CC(=O)[N-]Cc2ccccc2)cc1C(=O)/N=c1/cc(C(C)(C)C)[nH]o1 (3D coordinates assigned)
Cc1[nH]c(CC(=O)[N-]Cc2ccccc2)cc1C(=O)/N=c1/cc(C(C)(C)C)[nH]o1 (optimized conformer: 109.52346732795927 kcal/mol)

>  <smiles>  (29) 
Cc1[nH]c(CC(=O)NCc2ccccc2)cc1C(=O)N=c1cc(C(C)(C)C)[nH]o1

>  <score_type>  (29) 
oracle

>  <origin>  (29) 
adg

>  <m_score__min__energy>  (29) 
-11.23

>  <m_primary>  (29) 
energy

$$$$
29:0
     RDKit          3D

 93 96  0  0  0  0  0  0  0  0999 V2000
   58.9060   34.6920   53.4410 C   0  0  0  0  0  0  0  0  0  0  0  0
   58.5410   34.3590   52.1180 O   0  0  0  0  0  0  0  0  0  0  0  0
   57.7820   33.1680   52.1250 C   0  0  0  0  0  0  0  0  0  0  0  0
   58.5600   32.0850   51.4230 C   0  0  0  0  0  0  0  0  0  0  0  0
   59.9310   32.2610   51.1760 C   0  0  0  0  0  0  0  0  0  0  0  0
   60.6710   31.2700   50.5330 C   0  0  0  0  0  0  0  0  0  0  0  0
   60.0420   30.1000   50.0800 C   0  0  0  0  0  0  0  0  0  0  0  0
   60.8500   28.9910   49.4560 C   0  0  0  0  0  0  0  0  0  0  0  0
   60.6520   28.9350   48.0080 N   0  0  0  0  0  0  0  0  0  0  0  0
   59.8200   27.9880   47.3290 C   0  0  0  0  0  0  0  0  0  0  0  0
   59.7310   26.8150   47.7860 O   0  0  0  0  0  0  0  0  0  0  0  0
   59.0160   28.3650   46.1500 C   0  0  0  0  0  0  0  0  0  0  0  0
   58.8120   27.4480   45.1290 C   0  0  0  0  0  0  0  0  0  0  0  0
   58.0110   27.7670   44.0300 C   0  0  0  0  0  0  0  0  0  0  0  0
   57.7750   26.6820   42.9960 C   0  0  0  0  0  0  0  0  0  0  0  0
   57.4150   25.3600   43.6220 C   0  0  0  0  0  0  0  0  0  0  0  0
   57.4730   25.2060   44.8750 O   0  0  0  0  0  0  0  0  0  0  0  0
   57.0280   24.2630   42.7810 N   0  0  0  0  0  0  0  0  0  0  0  0
   56.6180   22.9640   43.3110 C   0  0  0  0  0  0  0  0  0  0  0  0
   55.5620   23.1340   44.3700 C   0  0  0  0  0  0  0  0  0  0  0  0
   55.8110   22.7240   45.6890 C   0  0  0  0  0  0  0  0  0  0  0  0
   54.8370   22.9010   46.6790 C   0  0  0  0  0  0  0  0  0  0  0  0
   53.6100   23.4870   46.3600 C   0  0  0  0  0  0  0  0  0  0  0  0
   53.3560   23.8980   45.0520 C   0  0  0  0  0  0  0  0  0  0  0  0
   54.3290   23.7240   44.0600 C   0  0  0  0  0  0  0  0  0  0  0  0
   57.4200   29.0590   43.9580 C   0  0  0  0  0  0  0  0  0  0  0  0
   56.4450   29.3900   42.8390 C   0  0  0  0  0  0  0  0  0  0  0  0
   57.6870   29.9870   44.9550 N   0  0  0  0  0  0  0  0  0  0  0  0
   57.2240   31.3970   44.8550 C   0  0  0  0  0  0  0  0  0  0  0  0
   58.4080   32.3830   44.8530 C   0  0  0  0  0  0  0  0  0  0  0  0
   58.0950   33.5990   45.6400 N   0  0  0  0  0  0  0  0  0  0  0  0
   58.9730   34.7030   45.2170 C   0  0  0  0  0  0  0  0  0  0  0  0
   58.2120   33.3480   47.0980 C   0  0  0  0  0  0  0  0  0  0  0  0
   59.2710   34.2720   47.7360 C   0  0  0  0  0  0  0  0  0  0  0  0
   60.6320   33.6280   47.8270 C   0  0  0  0  0  0  0  0  0  0  0  0
   61.6440   34.2030   48.6160 C   0  0  0  0  0  0  0  0  0  0  0  0
   62.8940   33.5890   48.7190 C   0  0  0  0  0  0  0  0  0  0  0  0
   63.1500   32.4050   48.0220 C   0  0  0  0  0  0  0  0  0  0  0  0
   62.1540   31.8290   47.2280 C   0  0  0  0  0  0  0  0  0  0  0  0
   60.9010   32.4370   47.1260 C   0  0  0  0  0  0  0  0  0  0  0  0
   58.4200   29.6270   46.0610 C   0  0  0  0  0  0  0  0  0  0  0  0
   58.5720   30.4380   47.0190 O   0  0  0  0  0  0  0  0  0  0  0  0
   58.6680   29.9230   50.3150 C   0  0  0  0  0  0  0  0  0  0  0  0
   57.9180   30.9110   50.9860 C   0  0  0  0  0  0  0  0  0  0  0  0
   56.5430   30.7650   51.2570 O   0  0  0  0  0  0  0  0  0  0  0  0
   55.9720   30.2540   52.4630 C   0  0  0  0  0  0  0  0  0  0  0  0
   54.4590   30.4790   52.4870 C   0  0  0  0  0  0  0  0  0  0  0  0
   54.0370   31.1310   51.3150 O   0  0  0  0  0  0  0  0  0  0  0  0
   58.2830   34.1236   54.1473 H   0  0  0  0  0  0  0  0  0  0  0  0
   59.9650   34.4424   53.6031 H   0  0  0  0  0  0  0  0  0  0  0  0
   58.7543   35.7694   53.6031 H   0  0  0  0  0  0  0  0  0  0  0  0
   57.5822   32.8644   53.1632 H   0  0  0  0  0  0  0  0  0  0  0  0
   56.8262   33.3339   51.6065 H   0  0  0  0  0  0  0  0  0  0  0  0
   60.4262   33.1906   51.4932 H   0  0  0  0  0  0  0  0  0  0  0  0
   61.7519   31.4055   50.3801 H   0  0  0  0  0  0  0  0  0  0  0  0
   61.9160   29.1640   49.6649 H   0  0  0  0  0  0  0  0  0  0  0  0
   60.5172   28.0356   49.8877 H   0  0  0  0  0  0  0  0  0  0  0  0
   59.2869   26.4574   45.1857 H   0  0  0  0  0  0  0  0  0  0  0  0
   56.9528   26.9958   42.3361 H   0  0  0  0  0  0  0  0  0  0  0  0
   58.7114   26.5436   42.4357 H   0  0  0  0  0  0  0  0  0  0  0  0
   57.0060   24.4050   41.7460 H   0  0  0  0  0  0  0  0  0  0  0  0
   56.2136   22.3507   42.4923 H   0  0  0  0  0  0  0  0  0  0  0  0
   57.4935   22.4710   43.7587 H   0  0  0  0  0  0  0  0  0  0  0  0
   56.7755   22.2617   45.9460 H   0  0  0  0  0  0  0  0  0  0  0  0
   55.0387   22.5777   47.7109 H   0  0  0  0  0  0  0  0  0  0  0  0
   52.8456   23.6240   47.1390 H   0  0  0  0  0  0  0  0  0  0  0  0
   52.3901   24.3595   44.7990 H   0  0  0  0  0  0  0  0  0  0  0  0
   54.1242   24.0526   43.0304 H   0  0  0  0  0  0  0  0  0  0  0  0
   55.4872   29.7151   43.2714 H   0  0  0  0  0  0  0  0  0  0  0  0
   56.8600   30.1976   42.2181 H   0  0  0  0  0  0  0  0  0  0  0  0
   56.2825   28.4967   42.2181 H   0  0  0  0  0  0  0  0  0  0  0  0
   56.6547   31.5206   43.9219 H   0  0  0  0  0  0  0  0  0  0  0  0
   56.5949   31.6159   45.7304 H   0  0  0  0  0  0  0  0  0  0  0  0
   59.2873   31.8885   45.2915 H   0  0  0  0  0  0  0  0  0  0  0  0
   58.6092   32.6831   43.8140 H   0  0  0  0  0  0  0  0  0  0  0  0
   59.3770   35.2110   46.1051 H   0  0  0  0  0  0  0  0  0  0  0  0
   59.8018   34.3023   44.6150 H   0  0  0  0  0  0  0  0  0  0  0  0
   58.3960   35.4204   44.6150 H   0  0  0  0  0  0  0  0  0  0  0  0
   57.2382   33.5346   47.5743 H   0  0  0  0  0  0  0  0  0  0  0  0
   58.5218   32.3035   47.2497 H   0  0  0  0  0  0  0  0  0  0  0  0
   59.3541   35.1841   47.1268 H   0  0  0  0  0  0  0  0  0  0  0  0
   58.9411   34.4941   48.7616 H   0  0  0  0  0  0  0  0  0  0  0  0
   61.4499   35.1419   49.1552 H   0  0  0  0  0  0  0  0  0  0  0  0
   63.6769   34.0371   49.3485 H   0  0  0  0  0  0  0  0  0  0  0  0
   64.1370   31.9255   48.0983 H   0  0  0  0  0  0  0  0  0  0  0  0
   62.3576   30.8955   46.6828 H   0  0  0  0  0  0  0  0  0  0  0  0
   60.1215   31.9839   46.4958 H   0  0  0  0  0  0  0  0  0  0  0  0
   58.1717   29.0033   49.9717 H   0  0  0  0  0  0  0  0  0  0  0  0
   56.1771   29.1754   52.5301 H   0  0  0  0  0  0  0  0  0  0  0  0
   56.4203   30.7834   53.3167 H   0  0  0  0  0  0  0  0  0  0  0  0
   53.9501   29.5068   52.5630 H   0  0  0  0  0  0  0  0  0  0  0  0
   54.2078   31.1088   53.3532 H   0  0  0  0  0  0  0  0  0  0  0  0
   54.8440   31.5560   50.9260 H   0  0  0  0  0  0  0  0  0  0  0  0
  1  2  1  0
  2  3  1  0
  3  4  1  0
  4  5  2  0
  5  6  1  0
  6  7  2  0
  7  8  1  0
  8  9  1  0
  9 10  1  0
 10 11  2  0
 10 12  1  0
 12 13  2  0
 13 14  1  0
 14 15  1  0
 15 16  1  0
 16 17  2  0
 16 18  1  0
 18 19  1  0
 19 20  1  0
 20 21  2  0
 21 22  1  0
 22 23  2  0
 23 24  1  0
 24 25  2  0
 14 26  2  0
 26 27  1  0
 26 28  1  0
 28 29  1  0
 29 30  1  0
 30 31  1  0
 31 32  1  0
 31 33  1  0
 33 34  1  0
 34 35  1  0
 35 36  2  0
 36 37  1  0
 37 38  2  0
 38 39  1  0
 39 40  2  0
 28 41  1  0
 41 42  2  0
  7 43  1  0
 43 44  2  0
 44 45  1  0
 45 46  1  0
 46 47  1  0
 47 48  1  0
 44  4  1  0
 41 12  1  0
 25 20  1  0
 40 35  1  0
  1 49  1  0
  1 50  1  0
  1 51  1  0
  3 52  1  0
  3 53  1  0
  5 54  1  0
  6 55  1  0
  8 56  1  0
  8 57  1  0
 13 58  1  0
 15 59  1  0
 15 60  1  0
 18 61  1  0
 19 62  1  0
 19 63  1  0
 21 64  1  0
 22 65  1  0
 23 66  1  0
 24 67  1  0
 25 68  1  0
 27 69  1  0
 27 70  1  0
 27 71  1  0
 29 72  1  0
 29 73  1  0
 30 74  1  0
 30 75  1  0
 32 76  1  0
 32 77  1  0
 32 78  1  0
 33 79  1  0
 33 80  1  0
 34 81  1  0
 34 82  1  0
 36 83  1  0
 37 84  1  0
 38 85  1  0
 39 86  1  0
 40 87  1  0
 43 88  1  0
 46 89  1  0
 46 90  1  0
 47 91  1  0
 47 92  1  0
 48 93  1  0
M  CHG  1   9  -1
M  END
>  <UniqueID>  (30) 
27

>  <SMILES>  (30) 
COCc1ccc(C[N-]C(=O)c2cc(CC(=O)NCc3ccccc3)c(C)n(CCN(C)CCc3ccccc3)c2=O)cc1OCCO

>  <Energy>  (30) 
102.67106286425562

>  <Genealogy>  (30) 
COCc1ccc(C[N-]C(=O)c2cc(CC(=O)NCc3ccccc3)c(C)n(CCN(C)CCc3ccccc3)c2=O)cc1OCCO (protonated)
COCc1ccc(C[N-]C(=O)c2cc(CC(=O)NCc3ccccc3)c(C)n(CCN(C)CCc3ccccc3)c2=O)cc1OCCO (3D coordinates assigned)
COCc1ccc(C[N-]C(=O)c2cc(CC(=O)NCc3ccccc3)c(C)n(CCN(C)CCc3ccccc3)c2=O)cc1OCCO (optimized conformer: 102.67106286425562 kcal/mol)

>  <smiles>  (30) 
COCc1ccc(CNC(=O)c2cc(CC(=O)NCc3ccccc3)c(C)n(CCN(C)CCc3ccccc3)c2=O)cc1OCCO

>  <score_type>  (30) 
oracle

>  <origin>  (30) 
adg

>  <m_score__min__energy>  (30) 
-11.18

>  <m_primary>  (30) 
energy

$$$$
30:0
     RDKit          3D

 48 51  0  0  0  0  0  0  0  0999 V2000
   55.2120   29.3330   44.6510 O   0  0  0  0  0  0  0  0  0  0  0  0
   56.3900   29.3620   44.2080 C   0  0  0  0  0  0  0  0  0  0  0  0
   56.9010   30.3640   43.2590 C   0  0  0  0  0  0  0  0  0  0  0  0
   57.4350   31.5610   43.9950 C   0  0  0  0  0  0  0  0  0  0  0  0
   57.7830   32.7590   43.4830 N   0  0  0  0  0  0  0  0  0  0  0  0
   58.2090   33.5230   44.5130 C   0  0  0  0  0  0  0  0  0  0  0  0
   58.6290   34.7110   44.4980 O   0  0  0  0  0  0  0  0  0  0  0  0
   58.1220   32.7890   45.6520 N   0  0  0  0  0  0  0  0  0  0  0  0
   57.6410   31.5680   45.3410 C   0  0  0  0  0  0  0  0  0  0  0  0
   57.4010   30.5150   46.2220 O   0  0  0  0  0  0  0  0  0  0  0  0
   57.2730   28.3490   44.6670 N   0  0  0  0  0  0  0  0  0  0  0  0
   56.8240   27.3170   45.6170 C   0  0  0  0  0  0  0  0  0  0  0  0
   58.0070   26.9520   46.4940 C   0  0  0  0  0  0  0  0  0  0  0  0
   58.9840   27.9540   46.5940 N   0  0  0  0  0  0  0  0  0  0  0  0
   59.4490   28.3150   47.8780 C   0  0  0  0  0  0  0  0  0  0  0  0
   59.9120   29.7460   47.9530 C   0  0  0  0  0  0  0  0  0  0  0  0
   58.9770   30.6420   48.3160 N   0  0  0  0  0  0  0  0  0  0  0  0
   59.2640   31.9600   48.4240 C   0  0  0  0  0  0  0  0  0  0  0  0
   58.3980   32.8000   48.7610 O   0  0  0  0  0  0  0  0  0  0  0  0
   60.5770   32.3120   48.1340 C   0  0  0  0  0  0  0  0  0  0  0  0
   60.8940   33.6510   48.2370 C   0  0  0  0  0  0  0  0  0  0  0  0
   62.1700   34.1130   47.9730 C   0  0  0  0  0  0  0  0  0  0  0  0
   63.1160   33.1730   47.6020 C   0  0  0  0  0  0  0  0  0  0  0  0
   62.7890   31.8310   47.5010 C   0  0  0  0  0  0  0  0  0  0  0  0
   61.5150   31.3700   47.7650 C   0  0  0  0  0  0  0  0  0  0  0  0
   61.1850   30.0850   47.6730 N   0  0  0  0  0  0  0  0  0  0  0  0
   59.4970   28.5800   45.4610 C   0  0  0  0  0  0  0  0  0  0  0  0
   58.6600   28.2490   44.2490 C   0  0  0  0  0  0  0  0  0  0  0  0
   57.7084   29.9171   42.6604 H   0  0  0  0  0  0  0  0  0  0  0  0
   56.0780   30.6866   42.6043 H   0  0  0  0  0  0  0  0  0  0  0  0
   57.7340   33.0450   42.4820 H   0  0  0  0  0  0  0  0  0  0  0  0
   58.3810   33.1130   46.6110 H   0  0  0  0  0  0  0  0  0  0  0  0
   58.1650   29.9630   46.5800 H   0  0  0  0  0  0  0  0  0  0  0  0
   56.0048   27.7096   46.2372 H   0  0  0  0  0  0  0  0  0  0  0  0
   56.4557   26.4314   45.0784 H   0  0  0  0  0  0  0  0  0  0  0  0
   57.6320   26.7347   47.5050 H   0  0  0  0  0  0  0  0  0  0  0  0
   58.4927   26.0852   46.0220 H   0  0  0  0  0  0  0  0  0  0  0  0
   58.6316   28.1723   48.6002 H   0  0  0  0  0  0  0  0  0  0  0  0
   60.3143   27.6758   48.1073 H   0  0  0  0  0  0  0  0  0  0  0  0
   60.1140   34.3668   48.5358 H   0  0  0  0  0  0  0  0  0  0  0  0
   62.4224   35.1806   48.0542 H   0  0  0  0  0  0  0  0  0  0  0  0
   64.1443   33.4972   47.3838 H   0  0  0  0  0  0  0  0  0  0  0  0
   63.5663   31.1124   47.2020 H   0  0  0  0  0  0  0  0  0  0  0  0
   61.8850   29.3640   47.3940 H   0  0  0  0  0  0  0  0  0  0  0  0
   59.4940   29.6689   45.6165 H   0  0  0  0  0  0  0  0  0  0  0  0
   60.5239   28.2237   45.2921 H   0  0  0  0  0  0  0  0  0  0  0  0
   58.8653   28.9638   43.4385 H   0  0  0  0  0  0  0  0  0  0  0  0
   58.8898   27.2425   43.8693 H   0  0  0  0  0  0  0  0  0  0  0  0
  1  2  2  0
  2  3  1  0
  3  4  1  0
  4  5  1  0
  5  6  1  0
  6  7  2  0
  6  8  1  0
  8  9  1  0
  9 10  1  0
  2 11  1  0
 11 12  1  0
 12 13  1  0
 13 14  1  0
 14 15  1  0
 15 16  1  0
 16 17  2  0
 17 18  1  0
 18 19  2  0
 18 20  1  0
 20 21  2  0
 21 22  1  0
 22 23  2  0
 23 24  1  0
 24 25  2  0
 25 26  1  0
 14 27  1  0
 27 28  1  0
  9  4  2  0
 28 11  1  0
 26 16  1  0
 25 20  1  0
  3 29  1  0
  3 30  1  0
  5 31  1  0
  8 32  1  0
 10 33  1  0
 12 34  1  0
 12 35  1  0
 13 36  1  0
 13 37  1  0
 15 38  1  0
 15 39  1  0
 21 40  1  0
 22 41  1  0
 23 42  1  0
 24 43  1  0
 26 44  1  0
 27 45  1  0
 27 46  1  0
 28 47  1  0
 28 48  1  0
M  END
>  <smiles>  (31) 
O=C(Cc1[nH]c(=O)[nH]c1O)N1CCN(Cc2nc(=O)c3ccccc3[nH]2)CC1

>  <score_type>  (31) 
oracle

>  <origin>  (31) 
adg

>  <m_score__min__energy>  (31) 
-9.9199999999999999

>  <m_primary>  (31) 
energy

$$$$
31:0
     RDKit          3D

 60 63  0  0  0  0  0  0  0  0999 V2000
   54.6460   26.1850   45.9950 O   0  0  0  0  0  0  0  0  0  0  0  0
   55.7710   25.6280   45.8830 C   0  0  0  0  0  0  0  0  0  0  0  0
   55.8920   24.3780   45.0520 C   0  0  0  0  0  0  0  0  0  0  0  0
   57.1950   23.6360   45.3680 C   0  0  0  0  0  0  0  0  0  0  0  0
   56.9400   22.1560   45.4980 C   0  0  0  0  0  0  0  0  0  0  0  0
   56.5490   21.4100   44.3730 C   0  0  0  0  0  0  0  0  0  0  0  0
   56.2670   20.0460   44.4910 C   0  0  0  0  0  0  0  0  0  0  0  0
   56.3660   19.4160   45.7340 C   0  0  0  0  0  0  0  0  0  0  0  0
   56.7420   20.1490   46.8610 C   0  0  0  0  0  0  0  0  0  0  0  0
   57.0260   21.5150   46.7510 C   0  0  0  0  0  0  0  0  0  0  0  0
   57.3850   22.2300   47.8890 O   0  0  0  0  0  0  0  0  0  0  0  0
   56.9130   26.2430   46.4920 N   0  0  0  0  0  0  0  0  0  0  0  0
   57.6210   27.3850   45.9910 C   0  0  0  0  0  0  0  0  0  0  0  0
   59.0120   27.5030   46.1380 C   0  0  0  0  0  0  0  0  0  0  0  0
   59.6760   28.6290   45.6510 C   0  0  0  0  0  0  0  0  0  0  0  0
   58.9590   29.6520   45.0250 C   0  0  0  0  0  0  0  0  0  0  0  0
   57.5620   29.5640   44.8910 C   0  0  0  0  0  0  0  0  0  0  0  0
   56.8010   30.6460   44.2210 C   0  0  0  0  0  0  0  0  0  0  0  0
   56.2670   30.4280   43.1020 O   0  0  0  0  0  0  0  0  0  0  0  0
   56.6530   31.9190   44.8690 N   0  0  0  0  0  0  0  0  0  0  0  0
   57.6550   32.7980   45.4090 C   0  0  0  0  0  0  0  0  0  0  0  0
   58.1650   33.7990   44.5700 C   0  0  0  0  0  0  0  0  0  0  0  0
   59.1500   34.6760   45.0260 C   0  0  0  0  0  0  0  0  0  0  0  0
   59.6340   34.5680   46.3300 C   0  0  0  0  0  0  0  0  0  0  0  0
   59.1230   33.5910   47.1910 C   0  0  0  0  0  0  0  0  0  0  0  0
   59.7640   33.4630   48.8280 S   0  0  0  0  0  0  0  0  0  0  0  0
   59.9420   34.8490   49.3850 O   0  0  0  0  0  0  0  0  0  0  0  0
   58.8040   32.7100   49.7090 O   0  0  0  0  0  0  0  0  0  0  0  0
   61.3010   32.6350   48.7770 N   0  0  0  0  0  0  0  0  0  0  0  0
   61.4270   31.8900   47.5120 C   0  0  0  0  0  0  0  0  0  0  0  0
   62.9000   31.5400   47.2370 C   0  0  0  0  0  0  0  0  0  0  0  0
   63.7690   32.6640   47.1570 O   0  0  0  0  0  0  0  0  0  0  0  0
   63.2330   33.8440   47.7310 C   0  0  0  0  0  0  0  0  0  0  0  0
   62.4230   33.5730   49.0110 C   0  0  0  0  0  0  0  0  0  0  0  0
   58.1270   32.7120   46.7360 C   0  0  0  0  0  0  0  0  0  0  0  0
   56.9010   28.4270   45.3940 C   0  0  0  0  0  0  0  0  0  0  0  0
   55.0396   23.7174   45.2687 H   0  0  0  0  0  0  0  0  0  0  0  0
   55.8975   24.6614   43.9892 H   0  0  0  0  0  0  0  0  0  0  0  0
   57.9166   23.8093   44.5561 H   0  0  0  0  0  0  0  0  0  0  0  0
   57.5980   24.0131   46.3195 H   0  0  0  0  0  0  0  0  0  0  0  0
   56.4643   21.9027   43.3932 H   0  0  0  0  0  0  0  0  0  0  0  0
   55.9669   19.4682   43.6044 H   0  0  0  0  0  0  0  0  0  0  0  0
   56.1475   18.3417   45.8247 H   0  0  0  0  0  0  0  0  0  0  0  0
   56.8153   19.6511   47.8391 H   0  0  0  0  0  0  0  0  0  0  0  0
   59.5801   26.7052   46.6387 H   0  0  0  0  0  0  0  0  0  0  0  0
   60.7674   28.7118   45.7601 H   0  0  0  0  0  0  0  0  0  0  0  0
   59.4909   30.5320   44.6344 H   0  0  0  0  0  0  0  0  0  0  0  0
   57.7849   33.8939   43.5421 H   0  0  0  0  0  0  0  0  0  0  0  0
   59.5455   35.4538   44.3562 H   0  0  0  0  0  0  0  0  0  0  0  0
   60.4195   35.2529   46.6821 H   0  0  0  0  0  0  0  0  0  0  0  0
   60.8407   30.9616   47.5787 H   0  0  0  0  0  0  0  0  0  0  0  0
   61.0512   32.5177   46.6906 H   0  0  0  0  0  0  0  0  0  0  0  0
   63.2554   30.8881   48.0486 H   0  0  0  0  0  0  0  0  0  0  0  0
   62.9269   31.0532   46.2509 H   0  0  0  0  0  0  0  0  0  0  0  0
   64.0629   34.5224   47.9779 H   0  0  0  0  0  0  0  0  0  0  0  0
   62.5471   34.2873   46.9941 H   0  0  0  0  0  0  0  0  0  0  0  0
   63.0930   33.1413   49.7691 H   0  0  0  0  0  0  0  0  0  0  0  0
   61.9977   34.5293   49.3494 H   0  0  0  0  0  0  0  0  0  0  0  0
   57.7131   31.9534   47.4166 H   0  0  0  0  0  0  0  0  0  0  0  0
   55.8060   28.3565   45.3170 H   0  0  0  0  0  0  0  0  0  0  0  0
  1  2  2  0
  2  3  1  0
  3  4  1  0
  4  5  1  0
  5  6  2  0
  6  7  1  0
  7  8  2  0
  8  9  1  0
  9 10  2  0
 10 11  1  0
  2 12  1  0
 12 13  1  0
 13 14  2  0
 14 15  1  0
 15 16  2  0
 16 17  1  0
 17 18  1  0
 18 19  2  0
 18 20  1  0
 20 21  1  0
 21 22  2  0
 22 23  1  0
 23 24  2  0
 24 25  1  0
 25 26  1  0
 26 27  2  0
 26 28  2  0
 26 29  1  0
 29 30  1  0
 30 31  1  0
 31 32  1  0
 32 33  1  0
 33 34  1  0
 25 35  2  0
 17 36  2  0
 10  5  1  0
 36 13  1  0
 35 21  1  0
 34 29  1  0
  3 37  1  0
  3 38  1  0
  4 39  1  0
  4 40  1  0
  6 41  1  0
  7 42  1  0
  8 43  1  0
  9 44  1  0
 14 45  1  0
 15 46  1  0
 16 47  1  0
 22 48  1  0
 23 49  1  0
 24 50  1  0
 30 51  1  0
 30 52  1  0
 31 53  1  0
 31 54  1  0
 33 55  1  0
 33 56  1  0
 34 57  1  0
 34 58  1  0
 35 59  1  0
 36 60  1  0
M  CHG  3  11  -1  12  -1  20  -1
M  END
>  <UniqueID>  (32) 
28

>  <SMILES>  (32) 
O=C(CCc1ccccc1[O-])[N-]c1cccc(C(=O)[N-]c2cccc(S(=O)(=O)N3CCOCC3)c2)c1

>  <Energy>  (32) 
83.57192525901515

>  <Genealogy>  (32) 
O=C(CCc1ccccc1[O-])[N-]c1cccc(C(=O)[N-]c2cccc(S(=O)(=O)N3CCOCC3)c2)c1 (protonated)
O=C(CCc1ccccc1[O-])[N-]c1cccc(C(=O)[N-]c2cccc(S(=O)(=O)N3CCOCC3)c2)c1 (3D coordinates assigned)
O=C(CCc1ccccc1[O-])[N-]c1cccc(C(=O)[N-]c2cccc(S(=O)(=O)N3CCOCC3)c2)c1 (nonaromatic ring conformer: 83.57192525901515 kcal/mol)

>  <smiles>  (32) 
O=C(CCc1ccccc1O)Nc1cccc(C(=O)Nc2cccc(S(=O)(=O)N3CCOCC3)c2)c1

>  <score_type>  (32) 
oracle

>  <origin>  (32) 
adg

>  <m_score__min__energy>  (32) 
-16.440000000000001

>  <m_primary>  (32) 
energy

$$$$
32:0
     RDKit          3D

 63 66  0  0  0  0  0  0  0  0999 V2000
   54.4380   26.3310   45.9850 O   0  0  0  0  0  0  0  0  0  0  0  0
   55.5370   25.5520   45.6400 C   0  0  0  0  0  0  0  0  0  0  0  0
   55.3690   24.4680   44.7740 C   0  0  0  0  0  0  0  0  0  0  0  0
   56.4690   23.6780   44.4030 C   0  0  0  0  0  0  0  0  0  0  0  0
   56.2780   22.5060   43.4790 C   0  0  0  0  0  0  0  0  0  0  0  0
   56.8040   21.2830   44.0950 N   0  0  0  0  0  0  0  0  0  0  0  0
   55.7750   20.5990   44.8890 C   0  0  0  0  0  0  0  0  0  0  0  0
   55.6620   21.2480   46.2460 C   0  0  0  0  0  0  0  0  0  0  0  0
   54.3850   21.5990   46.7210 C   0  0  0  0  0  0  0  0  0  0  0  0
   54.2300   22.1900   47.9750 C   0  0  0  0  0  0  0  0  0  0  0  0
   55.3480   22.4370   48.7750 C   0  0  0  0  0  0  0  0  0  0  0  0
   56.6200   22.0770   48.3260 C   0  0  0  0  0  0  0  0  0  0  0  0
   56.7900   21.4710   47.0750 C   0  0  0  0  0  0  0  0  0  0  0  0
   58.0850   21.1050   46.6970 O   0  0  0  0  0  0  0  0  0  0  0  0
   57.7330   23.9700   44.9340 C   0  0  0  0  0  0  0  0  0  0  0  0
   57.9010   25.0480   45.8040 C   0  0  0  0  0  0  0  0  0  0  0  0
   56.8060   25.8630   46.1480 C   0  0  0  0  0  0  0  0  0  0  0  0
   56.9420   26.9950   46.9710 O   0  0  0  0  0  0  0  0  0  0  0  0
   58.1440   27.7530   47.1240 C   0  0  0  0  0  0  0  0  0  0  0  0
   58.1600   28.9070   46.1550 C   0  0  0  0  0  0  0  0  0  0  0  0
   57.0990   29.1030   45.2570 C   0  0  0  0  0  0  0  0  0  0  0  0
   57.0480   30.2580   44.4730 C   0  0  0  0  0  0  0  0  0  0  0  0
   58.0520   31.2340   44.5780 C   0  0  0  0  0  0  0  0  0  0  0  0
   57.9320   32.5310   43.8120 C   0  0  0  0  0  0  0  0  0  0  0  0
   57.8700   33.7230   44.6880 N   0  0  0  0  0  0  0  0  0  0  0  0
   59.1450   34.4650   44.8510 C   0  0  0  0  0  0  0  0  0  0  0  0
   59.4230   34.8860   46.3010 C   0  0  0  0  0  0  0  0  0  0  0  0
   59.2030   33.7060   47.2430 C   0  0  0  0  0  0  0  0  0  0  0  0
   57.7690   33.1540   47.1500 C   0  0  0  0  0  0  0  0  0  0  0  0
   57.0080   33.6070   45.8860 C   0  0  0  0  0  0  0  0  0  0  0  0
   59.1550   30.9920   45.4120 C   0  0  0  0  0  0  0  0  0  0  0  0
   59.2070   29.8390   46.1970 C   0  0  0  0  0  0  0  0  0  0  0  0
   54.3691   24.2323   44.3807 H   0  0  0  0  0  0  0  0  0  0  0  0
   55.2051   22.3767   43.2735 H   0  0  0  0  0  0  0  0  0  0  0  0
   56.8202   22.6968   42.5411 H   0  0  0  0  0  0  0  0  0  0  0  0
   57.5790   21.5590   44.7420 H   0  0  0  0  0  0  0  0  0  0  0  0
   54.8077   20.6672   44.3698 H   0  0  0  0  0  0  0  0  0  0  0  0
   56.0548   19.5425   45.0136 H   0  0  0  0  0  0  0  0  0  0  0  0
   53.4999   21.4054   46.0972 H   0  0  0  0  0  0  0  0  0  0  0  0
   53.2264   22.4618   48.3341 H   0  0  0  0  0  0  0  0  0  0  0  0
   55.2263   22.9149   49.7583 H   0  0  0  0  0  0  0  0  0  0  0  0
   57.4970   22.2712   48.9609 H   0  0  0  0  0  0  0  0  0  0  0  0
   58.3140   20.7010   45.7980 H   0  0  0  0  0  0  0  0  0  0  0  0
   58.5974   23.3458   44.6633 H   0  0  0  0  0  0  0  0  0  0  0  0
   58.8950   25.2622   46.2235 H   0  0  0  0  0  0  0  0  0  0  0  0
   58.2002   28.1410   48.1517 H   0  0  0  0  0  0  0  0  0  0  0  0
   59.0067   27.1018   46.9200 H   0  0  0  0  0  0  0  0  0  0  0  0
   56.3061   28.3455   45.1705 H   0  0  0  0  0  0  0  0  0  0  0  0
   56.2158   30.4039   43.7687 H   0  0  0  0  0  0  0  0  0  0  0  0
   58.8056   32.6284   43.1507 H   0  0  0  0  0  0  0  0  0  0  0  0
   56.9886   32.4909   43.2478 H   0  0  0  0  0  0  0  0  0  0  0  0
   59.9693   33.8212   44.5105 H   0  0  0  0  0  0  0  0  0  0  0  0
   59.0639   35.3859   44.2548 H   0  0  0  0  0  0  0  0  0  0  0  0
   60.4644   35.2300   46.3863 H   0  0  0  0  0  0  0  0  0  0  0  0
   58.7355   35.6991   46.5771 H   0  0  0  0  0  0  0  0  0  0  0  0
   59.9097   32.9051   46.9801 H   0  0  0  0  0  0  0  0  0  0  0  0
   59.3657   34.0579   48.2724 H   0  0  0  0  0  0  0  0  0  0  0  0
   57.8197   32.0552   47.1491 H   0  0  0  0  0  0  0  0  0  0  0  0
   57.2168   33.5493   48.0153 H   0  0  0  0  0  0  0  0  0  0  0  0
   56.2155   32.8738   45.6751 H   0  0  0  0  0  0  0  0  0  0  0  0
   56.6046   34.6092   46.0928 H   0  0  0  0  0  0  0  0  0  0  0  0
   59.9831   31.7152   45.4471 H   0  0  0  0  0  0  0  0  0  0  0  0
   60.0730   29.6606   46.8514 H   0  0  0  0  0  0  0  0  0  0  0  0
  1  2  1  0
  2  3  2  0
  3  4  1  0
  4  5  1  0
  5  6  1  0
  6  7  1  0
  7  8  1  0
  8  9  2  0
  9 10  1  0
 10 11  2  0
 11 12  1  0
 12 13  2  0
 13 14  1  0
  4 15  2  0
 15 16  1  0
 16 17  2  0
 17 18  1  0
 18 19  1  0
 19 20  1  0
 20 21  2  0
 21 22  1  0
 22 23  2  0
 23 24  1  0
 24 25  1  0
 25 26  1  0
 26 27  1  0
 27 28  1  0
 28 29  1  0
 29 30  1  0
 23 31  1  0
 31 32  2  0
 17  2  1  0
 32 20  1  0
 13  8  1  0
 30 25  1  0
  3 33  1  0
  5 34  1  0
  5 35  1  0
  6 36  1  0
  7 37  1  0
  7 38  1  0
  9 39  1  0
 10 40  1  0
 11 41  1  0
 12 42  1  0
 14 43  1  0
 15 44  1  0
 16 45  1  0
 19 46  1  0
 19 47  1  0
 21 48  1  0
 22 49  1  0
 24 50  1  0
 24 51  1  0
 26 52  1  0
 26 53  1  0
 27 54  1  0
 27 55  1  0
 28 56  1  0
 28 57  1  0
 29 58  1  0
 29 59  1  0
 30 60  1  0
 30 61  1  0
 31 62  1  0
 32 63  1  0
M  CHG  1   1  -1
M  END
>  <UniqueID>  (33) 
29

>  <SMILES>  (33) 
[O-]c1cc(CNCc2ccccc2O)ccc1OCc1ccc(CN2CCCCC2)cc1

>  <Energy>  (33) 
75.02205897025702

>  <Genealogy>  (33) 
[O-]c1cc(CNCc2ccccc2O)ccc1OCc1ccc(CN2CCCCC2)cc1 (protonated)
[O-]c1cc(CNCc2ccccc2O)ccc1OCc1ccc(CN2CCCCC2)cc1 (3D coordinates assigned)
[O-]c1cc(CNCc2ccccc2O)ccc1OCc1ccc(CN2CCCCC2)cc1 (nonaromatic ring conformer: 75.02205897025702 kcal/mol)

>  <smiles>  (33) 
Oc1ccccc1CNCc1ccc(OCc2ccc(CN3CCCCC3)cc2)c(O)c1

>  <score_type>  (33) 
oracle

>  <origin>  (33) 
adg

>  <m_score__min__energy>  (33) 
-14.699999999999999

>  <m_primary>  (33) 
energy

$$$$
33:0
     RDKit          3D

 42 45  0  0  0  0  0  0  0  0999 V2000
   55.7110   23.9050   44.1320 N   0  0  0  0  0  0  0  0  0  0  0  0
   56.0450   24.8230   44.9780 C   0  0  0  0  0  0  0  0  0  0  0  0
   55.2460   25.2110   45.9920 N   0  0  0  0  0  0  0  0  0  0  0  0
   55.7880   26.1740   46.7340 N   0  0  0  0  0  0  0  0  0  0  0  0
   57.0230   26.5400   46.3190 C   0  0  0  0  0  0  0  0  0  0  0  0
   57.8020   27.6570   46.9310 C   0  0  0  0  0  0  0  0  0  0  0  0
   57.6130   28.8790   46.1490 N   0  0  0  0  0  0  0  0  0  0  0  0
   56.5580   29.1760   45.3530 C   0  0  0  0  0  0  0  0  0  0  0  0
   55.5210   28.2920   45.0810 O   0  0  0  0  0  0  0  0  0  0  0  0
   56.6310   30.4750   44.8670 C   0  0  0  0  0  0  0  0  0  0  0  0
   57.7870   30.9870   45.4200 C   0  0  0  0  0  0  0  0  0  0  0  0
   58.3310   32.2660   45.3350 C   0  0  0  0  0  0  0  0  0  0  0  0
   59.4940   32.5420   46.0840 C   0  0  0  0  0  0  0  0  0  0  0  0
   60.1770   34.1680   46.0600 S   0  0  0  0  0  0  0  0  0  0  0  0
   59.7080   34.8750   47.3000 O   0  0  0  0  0  0  0  0  0  0  0  0
   59.6410   34.9300   44.8800 O   0  0  0  0  0  0  0  0  0  0  0  0
   61.9270   34.2180   46.0440 N   0  0  0  0  0  0  0  0  0  0  0  0
   62.6550   33.7630   47.2450 C   0  0  0  0  0  0  0  0  0  0  0  0
   63.3450   32.3930   47.1620 C   0  0  0  0  0  0  0  0  0  0  0  0
   63.0820   31.7000   48.5000 C   0  0  0  0  0  0  0  0  0  0  0  0
   62.4270   32.7260   49.4160 C   0  0  0  0  0  0  0  0  0  0  0  0
   61.8020   33.7710   48.5080 C   0  0  0  0  0  0  0  0  0  0  0  0
   60.1060   31.5150   46.8420 C   0  0  0  0  0  0  0  0  0  0  0  0
   59.5310   30.2350   46.9100 C   0  0  0  0  0  0  0  0  0  0  0  0
   58.3590   30.0030   46.1890 C   0  0  0  0  0  0  0  0  0  0  0  0
   57.4970   25.6750   44.9490 S   0  0  0  0  0  0  0  0  0  0  0  0
   56.2480   23.0120   44.0630 H   0  0  0  0  0  0  0  0  0  0  0  0
   57.4529   27.8246   47.9606 H   0  0  0  0  0  0  0  0  0  0  0  0
   58.8698   27.3930   46.9403 H   0  0  0  0  0  0  0  0  0  0  0  0
   55.9254   30.9821   44.1924 H   0  0  0  0  0  0  0  0  0  0  0  0
   57.8678   33.0379   44.7028 H   0  0  0  0  0  0  0  0  0  0  0  0
   63.4484   34.5232   47.2961 H   0  0  0  0  0  0  0  0  0  0  0  0
   62.9210   31.8020   46.3368 H   0  0  0  0  0  0  0  0  0  0  0  0
   64.4231   32.4985   46.9707 H   0  0  0  0  0  0  0  0  0  0  0  0
   62.4102   30.8412   48.3543 H   0  0  0  0  0  0  0  0  0  0  0  0
   64.0195   31.3268   48.9380 H   0  0  0  0  0  0  0  0  0  0  0  0
   61.6533   32.2463   50.0335 H   0  0  0  0  0  0  0  0  0  0  0  0
   63.1610   33.1779   50.0995 H   0  0  0  0  0  0  0  0  0  0  0  0
   60.7611   33.5046   48.2724 H   0  0  0  0  0  0  0  0  0  0  0  0
   61.7756   34.7640   48.9805 H   0  0  0  0  0  0  0  0  0  0  0  0
   61.0412   31.7212   47.3832 H   0  0  0  0  0  0  0  0  0  0  0  0
   59.9911   29.4390   47.5139 H   0  0  0  0  0  0  0  0  0  0  0  0
  1  2  2  3
  2  3  1  0
  3  4  1  0
  4  5  2  0
  5  6  1  0
  6  7  1  0
  7  8  1  0
  8  9  1  0
  8 10  2  0
 10 11  1  0
 11 12  2  0
 12 13  1  0
 13 14  1  0
 14 15  2  0
 14 16  2  0
 14 17  1  0
 17 18  1  0
 18 19  1  0
 19 20  1  0
 20 21  1  0
 21 22  1  0
 13 23  2  0
 23 24  1  0
 24 25  2  0
  5 26  1  0
 26  2  1  0
 25  7  1  0
 25 11  1  0
 22 18  1  0
  1 27  1  0
  6 28  1  0
  6 29  1  0
 10 30  1  0
 12 31  1  0
 18 32  1  0
 19 33  1  0
 19 34  1  0
 20 35  1  0
 20 36  1  0
 21 37  1  0
 21 38  1  0
 22 39  1  0
 22 40  1  0
 23 41  1  0
 24 42  1  0
M  CHG  3   3  -1   9  -1  17  -1
M  END
>  <UniqueID>  (34) 
30

>  <SMILES>  (34) 
N=c1[n-]nc(Cn2c([O-])cc3cc(S(=O)(=O)[N-]C4CCCC4)ccc32)s1

>  <Energy>  (34) 
119.31488469426564

>  <Genealogy>  (34) 
N=c1[n-]nc(Cn2c([O-])cc3cc(S(=O)(=O)[N-]C4CCCC4)ccc32)s1 (protonated)
N=c1[n-]nc(Cn2c([O-])cc3cc(S(=O)(=O)[N-]C4CCCC4)ccc32)s1 (3D coordinates assigned)
N=c1[n-]nc(Cn2c([O-])cc3cc(S(=O)(=O)[N-]C4CCCC4)ccc32)s1 (nonaromatic ring conformer: 119.31488469426564 kcal/mol)

>  <smiles>  (34) 
N=c1[nH]nc(Cn2c(O)cc3cc(S(=O)(=O)NC4CCCC4)ccc32)s1

>  <score_type>  (34) 
oracle

>  <origin>  (34) 
adg

>  <m_score__min__energy>  (34) 
-13.529999999999999

>  <m_primary>  (34) 
energy

$$$$
34:0
     RDKit          3D

 41 44  0  0  0  0  0  0  0  0999 V2000
   58.5160   35.2280   44.8410 N   0  0  0  0  0  0  0  0  0  0  0  0
   58.3840   34.0960   45.0420 C   0  0  0  0  0  0  0  0  0  0  0  0
   58.2210   32.6880   45.2920 C   0  0  0  0  0  0  0  0  0  0  0  0
   57.9910   31.8090   44.2260 C   0  0  0  0  0  0  0  0  0  0  0  0
   57.8350   30.4400   44.4670 C   0  0  0  0  0  0  0  0  0  0  0  0
   57.9240   29.9400   45.7740 C   0  0  0  0  0  0  0  0  0  0  0  0
   57.7320   28.5010   46.0340 C   0  0  0  0  0  0  0  0  0  0  0  0
   56.5350   27.8640   45.6250 C   0  0  0  0  0  0  0  0  0  0  0  0
   55.5210   28.5950   45.0140 O   0  0  0  0  0  0  0  0  0  0  0  0
   56.3570   26.4770   45.8210 C   0  0  0  0  0  0  0  0  0  0  0  0
   57.3650   25.7040   46.4160 C   0  0  0  0  0  0  0  0  0  0  0  0
   58.5300   26.3500   46.8140 C   0  0  0  0  0  0  0  0  0  0  0  0
   59.5880   25.7930   47.4250 N   0  0  0  0  0  0  0  0  0  0  0  0
   60.4570   26.7650   47.6710 N   0  0  0  0  0  0  0  0  0  0  0  0
   59.9590   27.9400   47.2200 C   0  0  0  0  0  0  0  0  0  0  0  0
   60.6720   29.2470   47.4360 C   0  0  0  0  0  0  0  0  0  0  0  0
   60.7520   29.6570   48.8870 C   0  0  0  0  0  0  0  0  0  0  0  0
   60.1990   28.9250   49.7500 O   0  0  0  0  0  0  0  0  0  0  0  0
   61.4520   30.8280   49.3290 N   0  0  0  0  0  0  0  0  0  0  0  0
   62.0330   31.8310   48.4870 C   0  0  0  0  0  0  0  0  0  0  0  0
   61.2600   32.5200   47.5380 C   0  0  0  0  0  0  0  0  0  0  0  0
   61.8500   33.4930   46.7250 C   0  0  0  0  0  0  0  0  0  0  0  0
   61.1040   34.1500   45.8030 F   0  0  0  0  0  0  0  0  0  0  0  0
   63.2090   33.7920   46.8650 C   0  0  0  0  0  0  0  0  0  0  0  0
   63.9760   33.1260   47.8240 C   0  0  0  0  0  0  0  0  0  0  0  0
   63.3890   32.1540   48.6410 C   0  0  0  0  0  0  0  0  0  0  0  0
   64.1440   31.5050   49.5630 F   0  0  0  0  0  0  0  0  0  0  0  0
   58.7160   27.6980   46.6430 C   0  0  0  0  0  0  0  0  0  0  0  0
   58.1350   30.8260   46.8420 C   0  0  0  0  0  0  0  0  0  0  0  0
   58.2890   32.1950   46.6010 C   0  0  0  0  0  0  0  0  0  0  0  0
   57.9330   32.1958   43.1979 H   0  0  0  0  0  0  0  0  0  0  0  0
   57.6420   29.7539   43.6291 H   0  0  0  0  0  0  0  0  0  0  0  0
   55.4188   25.9981   45.5040 H   0  0  0  0  0  0  0  0  0  0  0  0
   57.2378   24.6213   46.5630 H   0  0  0  0  0  0  0  0  0  0  0  0
   61.6954   29.1543   47.0435 H   0  0  0  0  0  0  0  0  0  0  0  0
   60.0928   30.0218   46.9124 H   0  0  0  0  0  0  0  0  0  0  0  0
   60.1885   32.2938   47.4341 H   0  0  0  0  0  0  0  0  0  0  0  0
   63.6741   34.5518   46.2198 H   0  0  0  0  0  0  0  0  0  0  0  0
   65.0435   33.3663   47.9369 H   0  0  0  0  0  0  0  0  0  0  0  0
   58.1794   30.4423   47.8720 H   0  0  0  0  0  0  0  0  0  0  0  0
   58.4636   32.8847   47.4399 H   0  0  0  0  0  0  0  0  0  0  0  0
  1  2  3  0
  2  3  1  0
  3  4  2  0
  4  5  1  0
  5  6  2  0
  6  7  1  0
  7  8  2  0
  8  9  1  0
  8 10  1  0
 10 11  2  0
 11 12  1  0
 12 13  1  0
 13 14  1  0
 14 15  2  0
 15 16  1  0
 16 17  1  0
 17 18  2  0
 17 19  1  0
 19 20  1  0
 20 21  2  0
 21 22  1  0
 22 23  1  0
 22 24  2  0
 24 25  1  0
 25 26  2  0
 26 27  1  0
 15 28  1  0
  6 29  1  0
 29 30  2  0
 30  3  1  0
 28  7  1  0
 28 12  2  0
 26 20  1  0
  4 31  1  0
  5 32  1  0
 10 33  1  0
 11 34  1  0
 16 35  1  0
 16 36  1  0
 21 37  1  0
 24 38  1  0
 25 39  1  0
 29 40  1  0
 30 41  1  0
M  CHG  3   9  -1  13  -1  19  -1
M  END
>  <UniqueID>  (35) 
31

>  <SMILES>  (35) 
N#Cc1ccc(-c2c([O-])ccc3[n-]nc(CC(=O)[N-]c4cc(F)ccc4F)c23)cc1

>  <Energy>  (35) 
93.61350664020419

>  <Genealogy>  (35) 
N#Cc1ccc(-c2c([O-])ccc3[n-]nc(CC(=O)[N-]c4cc(F)ccc4F)c23)cc1 (protonated)
N#Cc1ccc(-c2c([O-])ccc3[n-]nc(CC(=O)[N-]c4cc(F)ccc4F)c23)cc1 (3D coordinates assigned)
N#Cc1ccc(-c2c([O-])ccc3[n-]nc(CC(=O)[N-]c4cc(F)ccc4F)c23)cc1 (optimized conformer: 93.61350664020419 kcal/mol)

>  <smiles>  (35) 
N#Cc1ccc(-c2c(O)ccc3[nH]nc(CC(=O)Nc4cc(F)ccc4F)c23)cc1

>  <score_type>  (35) 
oracle

>  <origin>  (35) 
adg

>  <m_score__min__energy>  (35) 
-12.640000000000001

>  <m_primary>  (35) 
energy

$$$$
35:0
     RDKit          3D

 48 51  0  0  0  0  0  0  0  0999 V2000
   54.1740   28.5840   54.0170 C   0  0  0  0  0  0  0  0  0  0  0  0
   54.5330   29.5820   53.1940 C   0  0  0  0  0  0  0  0  0  0  0  0
   53.6770   30.4620   52.5130 C   0  0  0  0  0  0  0  0  0  0  0  0
   52.3440   30.4270   52.3180 C   0  0  0  0  0  0  0  0  0  0  0  0
   51.6500   30.7980   51.0740 C   0  0  0  0  0  0  0  0  0  0  0  0
   51.6070   30.0360   49.9640 N   0  0  0  0  0  0  0  0  0  0  0  0
   51.0350   30.8490   49.0490 C   0  0  0  0  0  0  0  0  0  0  0  0
   50.8050   30.4860   47.8650 O   0  0  0  0  0  0  0  0  0  0  0  0
   50.7300   32.0850   49.5010 N   0  0  0  0  0  0  0  0  0  0  0  0
   51.1390   32.0370   50.7810 C   0  0  0  0  0  0  0  0  0  0  0  0
   51.0230   33.1000   51.6730 O   0  0  0  0  0  0  0  0  0  0  0  0
   54.4810   31.4650   51.9970 C   0  0  0  0  0  0  0  0  0  0  0  0
   55.7830   31.1300   52.3030 C   0  0  0  0  0  0  0  0  0  0  0  0
   56.9800   31.9240   51.8740 C   0  0  0  0  0  0  0  0  0  0  0  0
   55.8190   29.9940   53.0370 N   0  0  0  0  0  0  0  0  0  0  0  0
   57.0070   29.3590   53.5460 C   0  0  0  0  0  0  0  0  0  0  0  0
   57.2320   27.9960   53.3090 C   0  0  0  0  0  0  0  0  0  0  0  0
   58.3930   27.3770   53.7780 C   0  0  0  0  0  0  0  0  0  0  0  0
   59.3570   28.1170   54.4900 C   0  0  0  0  0  0  0  0  0  0  0  0
   60.5970   27.4810   55.0140 C   0  0  0  0  0  0  0  0  0  0  0  0
   60.5280   26.8370   56.1020 O   0  0  0  0  0  0  0  0  0  0  0  0
   61.8350   27.5030   54.2480 N   0  0  0  0  0  0  0  0  0  0  0  0
   62.3370   26.1600   53.9140 C   0  0  0  0  0  0  0  0  0  0  0  0
   61.6940   25.7530   52.5950 C   0  0  0  0  0  0  0  0  0  0  0  0
   61.2880   27.0620   51.9330 C   0  0  0  0  0  0  0  0  0  0  0  0
   61.6210   28.1550   52.9440 C   0  0  0  0  0  0  0  0  0  0  0  0
   59.1320   29.4870   54.7120 C   0  0  0  0  0  0  0  0  0  0  0  0
   57.9640   30.1020   54.2500 C   0  0  0  0  0  0  0  0  0  0  0  0
   54.9444   27.9601   54.4936 H   0  0  0  0  0  0  0  0  0  0  0  0
   53.1094   28.3902   54.2147 H   0  0  0  0  0  0  0  0  0  0  0  0
   51.7211   30.0925   53.1607 H   0  0  0  0  0  0  0  0  0  0  0  0
   54.1452   32.3574   51.4485 H   0  0  0  0  0  0  0  0  0  0  0  0
   57.5201   32.2823   52.7628 H   0  0  0  0  0  0  0  0  0  0  0  0
   57.6456   31.2877   51.2722 H   0  0  0  0  0  0  0  0  0  0  0  0
   56.6526   32.7846   51.2722 H   0  0  0  0  0  0  0  0  0  0  0  0
   56.4886   27.4093   52.7494 H   0  0  0  0  0  0  0  0  0  0  0  0
   58.5554   26.3054   53.5902 H   0  0  0  0  0  0  0  0  0  0  0  0
   62.5790   28.0030   54.7870 H   0  0  0  0  0  0  0  0  0  0  0  0
   63.4317   26.1825   53.8083 H   0  0  0  0  0  0  0  0  0  0  0  0
   62.0866   25.4413   54.7082 H   0  0  0  0  0  0  0  0  0  0  0  0
   62.4138   25.2088   51.9659 H   0  0  0  0  0  0  0  0  0  0  0  0
   60.8351   25.0821   52.7442 H   0  0  0  0  0  0  0  0  0  0  0  0
   61.8553   27.2138   51.0029 H   0  0  0  0  0  0  0  0  0  0  0  0
   60.2213   27.0680   51.6643 H   0  0  0  0  0  0  0  0  0  0  0  0
   62.5335   28.6862   52.6356 H   0  0  0  0  0  0  0  0  0  0  0  0
   60.8021   28.8867   53.0068 H   0  0  0  0  0  0  0  0  0  0  0  0
   59.8822   30.0811   55.2545 H   0  0  0  0  0  0  0  0  0  0  0  0
   57.7960   31.1724   54.4399 H   0  0  0  0  0  0  0  0  0  0  0  0
  1  2  2  0
  2  3  1  0
  3  4  2  3
  4  5  1  0
  5  6  1  0
  6  7  1  0
  7  8  2  0
  7  9  1  0
  9 10  1  0
 10 11  1  0
  3 12  1  0
 12 13  2  0
 13 14  1  0
 13 15  1  0
 15 16  1  0
 16 17  2  0
 17 18  1  0
 18 19  2  0
 19 20  1  0
 20 21  2  0
 20 22  1  0
 22 23  1  0
 23 24  1  0
 24 25  1  0
 25 26  1  0
 19 27  1  0
 27 28  2  0
 15  2  1  0
 28 16  1  0
 10  5  2  0
 26 22  1  0
  1 29  1  0
  1 30  1  0
  4 31  1  0
 12 32  1  0
 14 33  1  0
 14 34  1  0
 14 35  1  0
 17 36  1  0
 18 37  1  0
 22 38  1  0
 23 39  1  0
 23 40  1  0
 24 41  1  0
 24 42  1  0
 25 43  1  0
 25 44  1  0
 26 45  1  0
 26 46  1  0
 27 47  1  0
 28 48  1  0
M  CHG  4   6  -1   9  -1  11  -1  22   1
M  END
>  <UniqueID>  (36) 
32

>  <SMILES>  (36) 
C=c1c(=Cc2[n-]c(=O)[n-]c2[O-])cc(C)n1-c1ccc(C(=O)[NH+]2CCCC2)cc1

>  <Energy>  (36) 
135.85632699767322

>  <Genealogy>  (36) 
C=c1c(=Cc2[n-]c(=O)[n-]c2[O-])cc(C)n1-c1ccc(C(=O)[NH+]2CCCC2)cc1 (protonated)
C=c1c(=Cc2[n-]c(=O)[n-]c2[O-])cc(C)n1-c1ccc(C(=O)[NH+]2CCCC2)cc1 (3D coordinates assigned)
C=c1c(=Cc2[n-]c(=O)[n-]c2[O-])cc(C)n1-c1ccc(C(=O)[NH+]2CCCC2)cc1 (nonaromatic ring conformer: 135.85632699767322 kcal/mol)

>  <smiles>  (36) 
C=c1c(=Cc2[nH]c(=O)[nH]c2O)cc(C)n1-c1ccc(C(=O)N2CCCC2)cc1

>  <score_type>  (36) 
oracle

>  <origin>  (36) 
adg

>  <m_score__min__energy>  (36) 
-14.5

>  <m_primary>  (36) 
energy

$$$$
36:0
     RDKit          3D

 52 54  0  0  0  0  0  0  0  0999 V2000
   53.3050   23.0050   46.3800 C   0  0  0  0  0  0  0  0  0  0  0  0
   53.9710   24.1250   45.8050 O   0  0  0  0  0  0  0  0  0  0  0  0
   55.3520   24.3600   45.9000 C   0  0  0  0  0  0  0  0  0  0  0  0
   56.2920   23.3090   45.8820 C   0  0  0  0  0  0  0  0  0  0  0  0
   57.6550   23.5910   45.9610 C   0  0  0  0  0  0  0  0  0  0  0  0
   58.0950   24.9110   46.0510 C   0  0  0  0  0  0  0  0  0  0  0  0
   57.1750   25.9660   46.0650 C   0  0  0  0  0  0  0  0  0  0  0  0
   57.6620   27.3950   46.1880 C   0  0  0  0  0  0  0  0  0  0  0  0
   57.1150   28.2630   45.1420 N   0  0  0  0  0  0  0  0  0  0  0  0
   57.4290   29.6610   45.0580 C   0  0  0  0  0  0  0  0  0  0  0  0
   57.9810   30.3230   46.1660 C   0  0  0  0  0  0  0  0  0  0  0  0
   58.2460   31.7060   46.1080 C   0  0  0  0  0  0  0  0  0  0  0  0
   58.7390   32.4190   47.2180 O   0  0  0  0  0  0  0  0  0  0  0  0
   60.0970   32.5500   47.5210 C   0  0  0  0  0  0  0  0  0  0  0  0
   60.7930   31.4500   48.0300 C   0  0  0  0  0  0  0  0  0  0  0  0
   62.1540   31.5500   48.3260 C   0  0  0  0  0  0  0  0  0  0  0  0
   62.8410   32.7560   48.1070 C   0  0  0  0  0  0  0  0  0  0  0  0
   64.2430   32.8360   48.4330 N   0  0  0  0  0  0  0  0  0  0  0  0
   64.7640   33.0940   49.7480 C   0  0  0  0  0  0  0  0  0  0  0  0
   66.2200   32.8990   50.0250 C   0  0  0  0  0  0  0  0  0  0  0  0
   64.0210   33.5720   50.6490 O   0  0  0  0  0  0  0  0  0  0  0  0
   62.1310   33.8760   47.6350 C   0  0  0  0  0  0  0  0  0  0  0  0
   60.7550   33.7820   47.3480 C   0  0  0  0  0  0  0  0  0  0  0  0
   60.0020   34.9770   46.8370 C   0  0  0  0  0  0  0  0  0  0  0  0
   57.9490   32.4130   44.9410 C   0  0  0  0  0  0  0  0  0  0  0  0
   57.3760   31.7600   43.8450 C   0  0  0  0  0  0  0  0  0  0  0  0
   57.1060   30.3920   43.9030 C   0  0  0  0  0  0  0  0  0  0  0  0
   56.2450   29.6280   42.5810 Cl  0  0  0  0  0  0  0  0  0  0  0  0
   55.8000   25.6830   45.9990 C   0  0  0  0  0  0  0  0  0  0  0  0
   54.8690   26.7140   46.0100 O   0  0  0  0  0  0  0  0  0  0  0  0
   53.3475   23.0765   47.4768 H   0  0  0  0  0  0  0  0  0  0  0  0
   52.2546   22.9958   46.0536 H   0  0  0  0  0  0  0  0  0  0  0  0
   53.7985   22.0777   46.0536 H   0  0  0  0  0  0  0  0  0  0  0  0
   55.9497   22.2664   45.8056 H   0  0  0  0  0  0  0  0  0  0  0  0
   58.3860   22.7691   45.9523 H   0  0  0  0  0  0  0  0  0  0  0  0
   59.1723   25.1248   46.1114 H   0  0  0  0  0  0  0  0  0  0  0  0
   57.3576   27.7888   47.1689 H   0  0  0  0  0  0  0  0  0  0  0  0
   58.7566   27.3871   46.0791 H   0  0  0  0  0  0  0  0  0  0  0  0
   56.2100   27.9570   44.7190 H   0  0  0  0  0  0  0  0  0  0  0  0
   58.2077   29.7599   47.0834 H   0  0  0  0  0  0  0  0  0  0  0  0
   60.2654   30.4996   48.1985 H   0  0  0  0  0  0  0  0  0  0  0  0
   62.6910   30.6803   48.7326 H   0  0  0  0  0  0  0  0  0  0  0  0
   64.9370   32.7220   47.6570 H   0  0  0  0  0  0  0  0  0  0  0  0
   66.3867   32.8767   51.1121 H   0  0  0  0  0  0  0  0  0  0  0  0
   66.5531   31.9482   49.5834 H   0  0  0  0  0  0  0  0  0  0  0  0
   66.7916   33.7286   49.5834 H   0  0  0  0  0  0  0  0  0  0  0  0
   62.6547   34.8322   47.4891 H   0  0  0  0  0  0  0  0  0  0  0  0
   59.6301   35.5672   47.6875 H   0  0  0  0  0  0  0  0  0  0  0  0
   60.6721   35.5983   46.2246 H   0  0  0  0  0  0  0  0  0  0  0  0
   59.1524   34.6407   46.2246 H   0  0  0  0  0  0  0  0  0  0  0  0
   58.1670   33.4896   44.8834 H   0  0  0  0  0  0  0  0  0  0  0  0
   57.1371   32.3271   42.9333 H   0  0  0  0  0  0  0  0  0  0  0  0
  1  2  1  0
  2  3  1  0
  3  4  2  0
  4  5  1  0
  5  6  2  0
  6  7  1  0
  7  8  1  0
  8  9  1  0
  9 10  1  0
 10 11  2  0
 11 12  1  0
 12 13  1  0
 13 14  1  0
 14 15  2  0
 15 16  1  0
 16 17  2  0
 17 18  1  0
 18 19  1  0
 19 20  1  0
 19 21  2  0
 17 22  1  0
 22 23  2  0
 23 24  1  0
 12 25  2  0
 25 26  1  0
 26 27  2  0
 27 28  1  0
  7 29  2  0
 29 30  1  0
 29  3  1  0
 27 10  1  0
 23 14  1  0
  1 31  1  0
  1 32  1  0
  1 33  1  0
  4 34  1  0
  5 35  1  0
  6 36  1  0
  8 37  1  0
  8 38  1  0
  9 39  1  0
 11 40  1  0
 15 41  1  0
 16 42  1  0
 18 43  1  0
 20 44  1  0
 20 45  1  0
 20 46  1  0
 22 47  1  0
 24 48  1  0
 24 49  1  0
 24 50  1  0
 25 51  1  0
 26 52  1  0
M  CHG  1  30  -1
M  END
>  <UniqueID>  (37) 
33

>  <SMILES>  (37) 
COc1cccc(CNc2cc(Oc3ccc(NC(C)=O)cc3C)ccc2Cl)c1[O-]

>  <Energy>  (37) 
72.4592914857424

>  <Genealogy>  (37) 
COc1cccc(CNc2cc(Oc3ccc(NC(C)=O)cc3C)ccc2Cl)c1[O-] (protonated)
COc1cccc(CNc2cc(Oc3ccc(NC(C)=O)cc3C)ccc2Cl)c1[O-] (3D coordinates assigned)
COc1cccc(CNc2cc(Oc3ccc(NC(C)=O)cc3C)ccc2Cl)c1[O-] (optimized conformer: 72.4592914857424 kcal/mol)

>  <smiles>  (37) 
COc1cccc(CNc2cc(Oc3ccc(NC(C)=O)cc3C)ccc2Cl)c1O

>  <score_type>  (37) 
oracle

>  <origin>  (37) 
adg

>  <m_score__min__energy>  (37) 
-13.210000000000001

>  <m_primary>  (37) 
energy

$$$$
37:0
     RDKit          3D

 53 55  0  0  0  0  0  0  0  0999 V2000
   59.8730   34.4850   48.2270 C   0  0  0  0  0  0  0  0  0  0  0  0
   59.2450   34.9470   46.9160 C   0  0  0  0  0  0  0  0  0  0  0  0
   58.0190   34.1660   46.6320 N   0  0  0  0  0  0  0  0  0  0  0  0
   58.1440   32.7430   46.9980 C   0  0  0  0  0  0  0  0  0  0  0  0
   59.0190   31.9630   46.0030 C   0  0  0  0  0  0  0  0  0  0  0  0
   58.5780   32.1200   44.6060 N   0  0  0  0  0  0  0  0  0  0  0  0
   57.2090   31.1040   44.1920 S   0  0  0  0  0  0  0  0  0  0  0  0
   57.0150   31.1030   42.7020 O   0  0  0  0  0  0  0  0  0  0  0  0
   55.9600   31.6260   44.8440 O   0  0  0  0  0  0  0  0  0  0  0  0
   57.5220   29.4400   44.7010 C   0  0  0  0  0  0  0  0  0  0  0  0
   58.8490   28.9980   44.7920 C   0  0  0  0  0  0  0  0  0  0  0  0
   59.1350   27.6960   45.2020 C   0  0  0  0  0  0  0  0  0  0  0  0
   58.0970   26.8120   45.5010 C   0  0  0  0  0  0  0  0  0  0  0  0
   56.7620   27.2170   45.3710 C   0  0  0  0  0  0  0  0  0  0  0  0
   55.7160   26.2820   45.6800 N   0  0  0  0  0  0  0  0  0  0  0  0
   55.8960   25.1750   46.5810 C   0  0  0  0  0  0  0  0  0  0  0  0
   56.9350   25.0960   47.2870 O   0  0  0  0  0  0  0  0  0  0  0  0
   54.8940   24.1620   46.7140 N   0  0  0  0  0  0  0  0  0  0  0  0
   54.2980   23.4490   45.5920 C   0  0  0  0  0  0  0  0  0  0  0  0
   55.3820   22.7810   44.7940 C   0  0  0  0  0  0  0  0  0  0  0  0
   55.6370   23.1890   43.4740 C   0  0  0  0  0  0  0  0  0  0  0  0
   56.6210   22.5490   42.7140 C   0  0  0  0  0  0  0  0  0  0  0  0
   57.3500   21.4910   43.2620 C   0  0  0  0  0  0  0  0  0  0  0  0
   57.0930   21.0670   44.5690 C   0  0  0  0  0  0  0  0  0  0  0  0
   56.1090   21.7030   45.3330 C   0  0  0  0  0  0  0  0  0  0  0  0
   55.8630   21.2650   46.5940 F   0  0  0  0  0  0  0  0  0  0  0  0
   56.4730   28.5440   44.9890 C   0  0  0  0  0  0  0  0  0  0  0  0
   55.1500   28.9710   44.9220 O   0  0  0  0  0  0  0  0  0  0  0  0
   58.3780   33.5290   44.2230 C   0  0  0  0  0  0  0  0  0  0  0  0
   57.5350   34.3180   45.2440 C   0  0  0  0  0  0  0  0  0  0  0  0
   59.3059   34.9022   49.0722 H   0  0  0  0  0  0  0  0  0  0  0  0
   59.8507   33.3864   48.2771 H   0  0  0  0  0  0  0  0  0  0  0  0
   60.9152   34.8333   48.2771 H   0  0  0  0  0  0  0  0  0  0  0  0
   58.9866   36.0134   46.9930 H   0  0  0  0  0  0  0  0  0  0  0  0
   59.9656   34.7928   46.0993 H   0  0  0  0  0  0  0  0  0  0  0  0
   58.5961   32.6727   47.9983 H   0  0  0  0  0  0  0  0  0  0  0  0
   57.1372   32.3002   46.9822 H   0  0  0  0  0  0  0  0  0  0  0  0
   60.0542   32.3253   46.0871 H   0  0  0  0  0  0  0  0  0  0  0  0
   58.9367   30.8959   46.2571 H   0  0  0  0  0  0  0  0  0  0  0  0
   59.6711   29.6833   44.5381 H   0  0  0  0  0  0  0  0  0  0  0  0
   60.1804   27.3652   45.2899 H   0  0  0  0  0  0  0  0  0  0  0  0
   58.3284   25.7916   45.8406 H   0  0  0  0  0  0  0  0  0  0  0  0
   54.7500   26.5170   45.3610 H   0  0  0  0  0  0  0  0  0  0  0  0
   53.5986   22.6887   45.9699 H   0  0  0  0  0  0  0  0  0  0  0  0
   53.7544   24.1593   44.9517 H   0  0  0  0  0  0  0  0  0  0  0  0
   55.0595   24.0164   43.0360 H   0  0  0  0  0  0  0  0  0  0  0  0
   56.8211   22.8790   41.6839 H   0  0  0  0  0  0  0  0  0  0  0  0
   58.1268   20.9912   42.6647 H   0  0  0  0  0  0  0  0  0  0  0  0
   57.6658   20.2314   44.9976 H   0  0  0  0  0  0  0  0  0  0  0  0
   59.3627   34.0112   44.1346 H   0  0  0  0  0  0  0  0  0  0  0  0
   57.8298   33.5356   43.2693 H   0  0  0  0  0  0  0  0  0  0  0  0
   57.5676   35.3844   44.9761 H   0  0  0  0  0  0  0  0  0  0  0  0
   56.5116   33.9165   45.2063 H   0  0  0  0  0  0  0  0  0  0  0  0
  1  2  1  0
  2  3  1  0
  3  4  1  0
  4  5  1  0
  5  6  1  0
  6  7  1  0
  7  8  2  0
  7  9  2  0
  7 10  1  0
 10 11  2  0
 11 12  1  0
 12 13  2  0
 13 14  1  0
 14 15  1  0
 15 16  1  0
 16 17  2  0
 16 18  1  0
 18 19  1  0
 19 20  1  0
 20 21  2  0
 21 22  1  0
 22 23  2  0
 23 24  1  0
 24 25  2  0
 25 26  1  0
 14 27  2  0
 27 28  1  0
  6 29  1  0
 29 30  1  0
 30  3  1  0
 27 10  1  0
 25 20  1  0
  1 31  1  0
  1 32  1  0
  1 33  1  0
  2 34  1  0
  2 35  1  0
  4 36  1  0
  4 37  1  0
  5 38  1  0
  5 39  1  0
 11 40  1  0
 12 41  1  0
 13 42  1  0
 15 43  1  0
 19 44  1  0
 19 45  1  0
 21 46  1  0
 22 47  1  0
 23 48  1  0
 24 49  1  0
 29 50  1  0
 29 51  1  0
 30 52  1  0
 30 53  1  0
M  CHG  2  18  -1  28  -1
M  END
>  <UniqueID>  (38) 
34

>  <SMILES>  (38) 
CCN1CCN(S(=O)(=O)c2cccc(NC(=O)[N-]Cc3ccccc3F)c2[O-])CC1

>  <Energy>  (38) 
64.53092919035569

>  <Genealogy>  (38) 
CCN1CCN(S(=O)(=O)c2cccc(NC(=O)[N-]Cc3ccccc3F)c2[O-])CC1 (protonated)
CCN1CCN(S(=O)(=O)c2cccc(NC(=O)[N-]Cc3ccccc3F)c2[O-])CC1 (3D coordinates assigned)
CCN1CCN(S(=O)(=O)c2cccc(NC(=O)[N-]Cc3ccccc3F)c2[O-])CC1 (nonaromatic ring conformer: 64.53092919035569 kcal/mol)

>  <smiles>  (38) 
CCN1CCN(S(=O)(=O)c2cccc(NC(=O)NCc3ccccc3F)c2O)CC1

>  <score_type>  (38) 
oracle

>  <origin>  (38) 
adg

>  <m_score__min__energy>  (38) 
-15.449999999999999

>  <m_primary>  (38) 
energy

$$$$
38:0
     RDKit          3D

 62 65  0  0  0  0  0  0  0  0999 V2000
   56.0980   30.9180   52.5060 C   0  0  0  0  0  0  0  0  0  0  0  0
   57.3530   31.7050   52.2850 C   0  0  0  0  0  0  0  0  0  0  0  0
   57.4090   33.0770   52.1280 C   0  0  0  0  0  0  0  0  0  0  0  0
   58.7410   33.3990   51.9650 C   0  0  0  0  0  0  0  0  0  0  0  0
   59.4450   32.2120   52.0330 C   0  0  0  0  0  0  0  0  0  0  0  0
   60.9360   32.0920   51.8950 C   0  0  0  0  0  0  0  0  0  0  0  0
   61.3180   32.1640   50.4880 N   0  0  0  0  0  0  0  0  0  0  0  0
   62.2020   33.1720   49.9800 C   0  0  0  0  0  0  0  0  0  0  0  0
   62.7850   33.9640   50.7740 O   0  0  0  0  0  0  0  0  0  0  0  0
   62.4720   33.2370   48.5010 C   0  0  0  0  0  0  0  0  0  0  0  0
   61.3460   32.6530   47.6850 C   0  0  0  0  0  0  0  0  0  0  0  0
   61.4580   31.3650   47.1420 C   0  0  0  0  0  0  0  0  0  0  0  0
   60.4250   30.8350   46.3630 C   0  0  0  0  0  0  0  0  0  0  0  0
   59.2670   31.5890   46.1040 C   0  0  0  0  0  0  0  0  0  0  0  0
   58.1750   31.0280   45.2700 C   0  0  0  0  0  0  0  0  0  0  0  0
   57.7300   31.7120   44.1250 C   0  0  0  0  0  0  0  0  0  0  0  0
   56.6910   31.1900   43.3500 C   0  0  0  0  0  0  0  0  0  0  0  0
   56.0900   29.9800   43.7030 C   0  0  0  0  0  0  0  0  0  0  0  0
   56.5360   29.2710   44.8310 C   0  0  0  0  0  0  0  0  0  0  0  0
   55.9210   28.0430   45.2470 N   0  0  0  0  0  0  0  0  0  0  0  0
   56.5170   27.0350   46.0710 C   0  0  0  0  0  0  0  0  0  0  0  0
   55.8050   26.1580   46.6300 O   0  0  0  0  0  0  0  0  0  0  0  0
   57.9400   27.0020   46.2070 N   0  0  0  0  0  0  0  0  0  0  0  0
   58.6320   26.3610   47.3200 C   0  0  0  0  0  0  0  0  0  0  0  0
   59.2750   27.3960   48.2020 C   0  0  0  0  0  0  0  0  0  0  0  0
   60.4320   27.0810   48.9290 C   0  0  0  0  0  0  0  0  0  0  0  0
   61.0390   28.0620   49.7190 C   0  0  0  0  0  0  0  0  0  0  0  0
   60.5130   29.3160   49.7760 N   0  0  0  0  0  0  0  0  0  0  0  0
   59.3930   29.6500   49.0800 C   0  0  0  0  0  0  0  0  0  0  0  0
   58.9380   30.8210   49.1580 O   0  0  0  0  0  0  0  0  0  0  0  0
   58.7520   28.6970   48.2790 C   0  0  0  0  0  0  0  0  0  0  0  0
   57.5640   29.8080   45.6180 C   0  0  0  0  0  0  0  0  0  0  0  0
   59.1640   32.8830   46.6420 C   0  0  0  0  0  0  0  0  0  0  0  0
   60.1950   33.4120   47.4250 C   0  0  0  0  0  0  0  0  0  0  0  0
   58.5940   31.1750   52.2000 N   0  0  0  0  0  0  0  0  0  0  0  0
   58.9550   29.7660   52.3760 C   0  0  0  0  0  0  0  0  0  0  0  0
   55.9204   30.8066   53.5858 H   0  0  0  0  0  0  0  0  0  0  0  0
   55.2488   31.4456   52.0472 H   0  0  0  0  0  0  0  0  0  0  0  0
   56.2031   29.9238   52.0472 H   0  0  0  0  0  0  0  0  0  0  0  0
   56.5589   33.7751   52.1321 H   0  0  0  0  0  0  0  0  0  0  0  0
   59.1603   34.4042   51.8110 H   0  0  0  0  0  0  0  0  0  0  0  0
   61.4193   32.9126   52.4455 H   0  0  0  0  0  0  0  0  0  0  0  0
   61.2584   31.1239   52.3060 H   0  0  0  0  0  0  0  0  0  0  0  0
   60.9310   31.4510   49.8290 H   0  0  0  0  0  0  0  0  0  0  0  0
   62.6082   34.2898   48.2127 H   0  0  0  0  0  0  0  0  0  0  0  0
   63.3758   32.6436   48.2986 H   0  0  0  0  0  0  0  0  0  0  0  0
   62.3630   30.7687   47.3298 H   0  0  0  0  0  0  0  0  0  0  0  0
   60.5191   29.8200   45.9495 H   0  0  0  0  0  0  0  0  0  0  0  0
   58.2022   32.6630   43.8378 H   0  0  0  0  0  0  0  0  0  0  0  0
   56.3453   31.7342   42.4587 H   0  0  0  0  0  0  0  0  0  0  0  0
   55.2644   29.5805   43.0957 H   0  0  0  0  0  0  0  0  0  0  0  0
   57.9084   25.7801   47.9107 H   0  0  0  0  0  0  0  0  0  0  0  0
   59.4127   25.6970   46.9206 H   0  0  0  0  0  0  0  0  0  0  0  0
   60.8593   26.0687   48.8781 H   0  0  0  0  0  0  0  0  0  0  0  0
   61.9438   27.8197   50.2958 H   0  0  0  0  0  0  0  0  0  0  0  0
   57.8465   28.9651   47.7149 H   0  0  0  0  0  0  0  0  0  0  0  0
   57.8973   29.2702   46.5178 H   0  0  0  0  0  0  0  0  0  0  0  0
   58.2646   33.4851   46.4456 H   0  0  0  0  0  0  0  0  0  0  0  0
   60.1032   34.4271   47.8386 H   0  0  0  0  0  0  0  0  0  0  0  0
   59.0144   29.5341   53.4496 H   0  0  0  0  0  0  0  0  0  0  0  0
   58.1908   29.1301   51.9053 H   0  0  0  0  0  0  0  0  0  0  0  0
   59.9309   29.5759   51.9053 H   0  0  0  0  0  0  0  0  0  0  0  0
  1  2  1  0
  2  3  2  0
  3  4  1  0
  4  5  2  0
  5  6  1  0
  6  7  1  0
  7  8  1  0
  8  9  2  0
  8 10  1  0
 10 11  1  0
 11 12  2  0
 12 13  1  0
 13 14  2  0
 14 15  1  0
 15 16  2  0
 16 17  1  0
 17 18  2  0
 18 19  1  0
 19 20  1  0
 20 21  1  0
 21 22  2  0
 21 23  1  0
 23 24  1  0
 24 25  1  0
 25 26  1  0
 26 27  2  0
 27 28  1  0
 28 29  1  0
 29 30  2  0
 29 31  1  0
 19 32  2  0
 14 33  1  0
 33 34  2  0
  5 35  1  0
 35 36  1  0
 35  2  1  0
 34 11  1  0
 32 15  1  0
 31 25  2  0
  1 37  1  0
  1 38  1  0
  1 39  1  0
  3 40  1  0
  4 41  1  0
  6 42  1  0
  6 43  1  0
  7 44  1  0
 10 45  1  0
 10 46  1  0
 12 47  1  0
 13 48  1  0
 16 49  1  0
 17 50  1  0
 18 51  1  0
 24 52  1  0
 24 53  1  0
 26 54  1  0
 27 55  1  0
 31 56  1  0
 32 57  1  0
 33 58  1  0
 34 59  1  0
 36 60  1  0
 36 61  1  0
 36 62  1  0
M  CHG  3  20  -1  23  -1  28  -1
M  END
>  <UniqueID>  (39) 
35

>  <SMILES>  (39) 
Cc1ccc(CNC(=O)Cc2ccc(-c3cccc([N-]C(=O)[N-]Cc4cc[n-]c(=O)c4)c3)cc2)n1C

>  <Energy>  (39) 
94.3668549331972

>  <Genealogy>  (39) 
Cc1ccc(CNC(=O)Cc2ccc(-c3cccc([N-]C(=O)[N-]Cc4cc[n-]c(=O)c4)c3)cc2)n1C (protonated)
Cc1ccc(CNC(=O)Cc2ccc(-c3cccc([N-]C(=O)[N-]Cc4cc[n-]c(=O)c4)c3)cc2)n1C (3D coordinates assigned)
Cc1ccc(CNC(=O)Cc2ccc(-c3cccc([N-]C(=O)[N-]Cc4cc[n-]c(=O)c4)c3)cc2)n1C (optimized conformer: 94.3668549331972 kcal/mol)

>  <smiles>  (39) 
Cc1ccc(CNC(=O)Cc2ccc(-c3cccc(NC(=O)NCc4cc[nH]c(=O)c4)c3)cc2)n1C

>  <score_type>  (39) 
oracle

>  <origin>  (39) 
adg

>  <m_score__min__energy>  (39) 
-14.93

>  <m_primary>  (39) 
energy

$$$$
39:0
     RDKit          3D

 54 56  0  0  0  0  0  0  0  0999 V2000
   56.2780   23.4240   43.0060 C   0  0  0  0  0  0  0  0  0  0  0  0
   56.8020   21.9930   43.0710 C   0  0  0  0  0  0  0  0  0  0  0  0
   55.9320   21.1880   43.8450 O   0  0  0  0  0  0  0  0  0  0  0  0
   56.5820   20.7330   45.0140 C   0  0  0  0  0  0  0  0  0  0  0  0
   55.5290   20.4280   46.0820 C   0  0  0  0  0  0  0  0  0  0  0  0
   55.6320   21.3720   47.2880 C   0  0  0  0  0  0  0  0  0  0  0  0
   56.8250   22.2170   47.2160 N   0  0  0  0  0  0  0  0  0  0  0  0
   56.7430   23.5970   46.8410 C   0  0  0  0  0  0  0  0  0  0  0  0
   55.6190   24.1180   46.5990 O   0  0  0  0  0  0  0  0  0  0  0  0
   58.0010   24.4220   46.7750 C   0  0  0  0  0  0  0  0  0  0  0  0
   57.8010   25.7190   46.0320 C   0  0  0  0  0  0  0  0  0  0  0  0
   57.5410   26.9040   46.7360 C   0  0  0  0  0  0  0  0  0  0  0  0
   57.3920   28.1140   46.0510 C   0  0  0  0  0  0  0  0  0  0  0  0
   57.4940   28.1500   44.6480 C   0  0  0  0  0  0  0  0  0  0  0  0
   57.3750   29.3780   43.9180 N   0  0  0  0  0  0  0  0  0  0  0  0
   56.9320   30.6260   44.4620 C   0  0  0  0  0  0  0  0  0  0  0  0
   55.6980   30.8780   44.4810 O   0  0  0  0  0  0  0  0  0  0  0  0
   57.8590   31.5640   45.0360 N   0  0  0  0  0  0  0  0  0  0  0  0
   57.5050   32.9550   45.3280 C   0  0  0  0  0  0  0  0  0  0  0  0
   58.6510   33.4310   46.1390 C   0  0  0  0  0  0  0  0  0  0  0  0
   58.8450   34.6990   46.6860 C   0  0  0  0  0  0  0  0  0  0  0  0
   60.0080   34.9340   47.4390 C   0  0  0  0  0  0  0  0  0  0  0  0
   60.9480   33.9030   47.6320 C   0  0  0  0  0  0  0  0  0  0  0  0
   60.7300   32.6320   47.0740 C   0  0  0  0  0  0  0  0  0  0  0  0
   59.5680   32.4230   46.3290 C   0  0  0  0  0  0  0  0  0  0  0  0
   59.1320   31.1770   45.6540 C   0  0  0  0  0  0  0  0  0  0  0  0
   57.7840   26.9720   43.9500 C   0  0  0  0  0  0  0  0  0  0  0  0
   57.9360   25.7630   44.6350 C   0  0  0  0  0  0  0  0  0  0  0  0
   56.1368   23.8095   44.0265 H   0  0  0  0  0  0  0  0  0  0  0  0
   57.0030   24.0561   42.4723 H   0  0  0  0  0  0  0  0  0  0  0  0
   55.3163   23.4384   42.4723 H   0  0  0  0  0  0  0  0  0  0  0  0
   56.8661   21.5830   42.0523 H   0  0  0  0  0  0  0  0  0  0  0  0
   57.7979   21.9965   43.5380 H   0  0  0  0  0  0  0  0  0  0  0  0
   57.1527   19.8204   44.7873 H   0  0  0  0  0  0  0  0  0  0  0  0
   57.2713   21.5074   45.3817 H   0  0  0  0  0  0  0  0  0  0  0  0
   54.5299   20.5340   45.6341 H   0  0  0  0  0  0  0  0  0  0  0  0
   55.7014   19.4028   46.4415 H   0  0  0  0  0  0  0  0  0  0  0  0
   54.7405   22.0159   47.3134 H   0  0  0  0  0  0  0  0  0  0  0  0
   55.7021   20.7580   48.1980 H   0  0  0  0  0  0  0  0  0  0  0  0
   57.7630   21.8250   47.4640 H   0  0  0  0  0  0  0  0  0  0  0  0
   58.3283   24.6493   47.8003 H   0  0  0  0  0  0  0  0  0  0  0  0
   58.7568   23.8371   46.2303 H   0  0  0  0  0  0  0  0  0  0  0  0
   57.4539   26.8814   47.8323 H   0  0  0  0  0  0  0  0  0  0  0  0
   57.1945   29.0403   46.6105 H   0  0  0  0  0  0  0  0  0  0  0  0
   57.4068   33.5402   44.4017 H   0  0  0  0  0  0  0  0  0  0  0  0
   56.5388   33.0559   45.8441 H   0  0  0  0  0  0  0  0  0  0  0  0
   58.1043   35.4974   46.5315 H   0  0  0  0  0  0  0  0  0  0  0  0
   60.1848   35.9265   47.8792 H   0  0  0  0  0  0  0  0  0  0  0  0
   61.8566   34.0936   48.2220 H   0  0  0  0  0  0  0  0  0  0  0  0
   61.4580   31.8205   47.2208 H   0  0  0  0  0  0  0  0  0  0  0  0
   59.8617   30.8636   44.8929 H   0  0  0  0  0  0  0  0  0  0  0  0
   59.0384   30.3224   46.3402 H   0  0  0  0  0  0  0  0  0  0  0  0
   57.8930   26.9977   42.8557 H   0  0  0  0  0  0  0  0  0  0  0  0
   58.1623   24.8422   44.0773 H   0  0  0  0  0  0  0  0  0  0  0  0
  1  2  1  0
  2  3  1  0
  3  4  1  0
  4  5  1  0
  5  6  1  0
  6  7  1  0
  7  8  1  0
  8  9  2  0
  8 10  1  0
 10 11  1  0
 11 12  2  0
 12 13  1  0
 13 14  2  0
 14 15  1  0
 15 16  1  0
 16 17  2  0
 16 18  1  0
 18 19  1  0
 19 20  1  0
 20 21  2  0
 21 22  1  0
 22 23  2  0
 23 24  1  0
 24 25  2  0
 25 26  1  0
 14 27  1  0
 27 28  2  0
 28 11  1  0
 26 18  1  0
 25 20  1  0
  1 29  1  0
  1 30  1  0
  1 31  1  0
  2 32  1  0
  2 33  1  0
  4 34  1  0
  4 35  1  0
  5 36  1  0
  5 37  1  0
  6 38  1  0
  6 39  1  0
  7 40  1  0
 10 41  1  0
 10 42  1  0
 12 43  1  0
 13 44  1  0
 19 45  1  0
 19 46  1  0
 21 47  1  0
 22 48  1  0
 23 49  1  0
 24 50  1  0
 26 51  1  0
 26 52  1  0
 27 53  1  0
 28 54  1  0
M  CHG  1  15  -1
M  END
>  <UniqueID>  (40) 
36

>  <SMILES>  (40) 
CCOCCCNC(=O)Cc1ccc([N-]C(=O)N2Cc3ccccc3C2)cc1

>  <Energy>  (40) 
63.590190202192346

>  <Genealogy>  (40) 
CCOCCCNC(=O)Cc1ccc([N-]C(=O)N2Cc3ccccc3C2)cc1 (protonated)
CCOCCCNC(=O)Cc1ccc([N-]C(=O)N2Cc3ccccc3C2)cc1 (3D coordinates assigned)
CCOCCCNC(=O)Cc1ccc([N-]C(=O)N2Cc3ccccc3C2)cc1 (nonaromatic ring conformer: 63.590190202192346 kcal/mol)

>  <smiles>  (40) 
CCOCCCNC(=O)Cc1ccc(NC(=O)N2Cc3ccccc3C2)cc1

>  <score_type>  (40) 
oracle

>  <origin>  (40) 
adg

>  <m_score__min__energy>  (40) 
-9.3399999999999999

>  <m_primary>  (40) 
energy

$$$$
40:0
     RDKit          3D

 42 44  0  0  0  0  0  0  0  0999 V2000
   60.2700   23.5790   45.6230 O   0  0  0  0  0  0  0  0  0  0  0  0
   59.1930   24.1910   45.8610 C   0  0  0  0  0  0  0  0  0  0  0  0
   57.8930   23.5960   45.4260 C   0  0  0  0  0  0  0  0  0  0  0  0
   56.8270   23.2630   46.8690 S   0  0  0  0  0  0  0  0  0  0  0  0
   55.3930   24.0960   46.1930 C   0  0  0  0  0  0  0  0  0  0  0  0
   54.3580   23.4540   45.6190 N   0  0  0  0  0  0  0  0  0  0  0  0
   53.5560   24.4810   45.2760 C   0  0  0  0  0  0  0  0  0  0  0  0
   54.0730   25.6730   45.6250 N   0  0  0  0  0  0  0  0  0  0  0  0
   55.2340   25.4310   46.2070 N   0  0  0  0  0  0  0  0  0  0  0  0
   59.2010   25.4550   46.5350 N   0  0  0  0  0  0  0  0  0  0  0  0
   58.9350   26.7340   45.9400 C   0  0  0  0  0  0  0  0  0  0  0  0
   57.6150   27.1990   45.9080 C   0  0  0  0  0  0  0  0  0  0  0  0
   57.3180   28.4520   45.3640 C   0  0  0  0  0  0  0  0  0  0  0  0
   58.3450   29.2700   44.8710 C   0  0  0  0  0  0  0  0  0  0  0  0
   58.0280   30.6060   44.2580 C   0  0  0  0  0  0  0  0  0  0  0  0
   57.0750   31.3210   45.1080 N   0  0  0  0  0  0  0  0  0  0  0  0
   57.6580   32.9280   45.4200 S   0  0  0  0  0  0  0  0  0  0  0  0
   56.6930   33.6500   46.3200 O   0  0  0  0  0  0  0  0  0  0  0  0
   57.7630   33.6800   44.1250 O   0  0  0  0  0  0  0  0  0  0  0  0
   59.2530   32.8480   46.1650 C   0  0  0  0  0  0  0  0  0  0  0  0
   59.6140   31.7140   46.9030 C   0  0  0  0  0  0  0  0  0  0  0  0
   60.8700   31.6440   47.5150 C   0  0  0  0  0  0  0  0  0  0  0  0
   61.7680   32.7080   47.3930 C   0  0  0  0  0  0  0  0  0  0  0  0
   61.4100   33.8440   46.6600 C   0  0  0  0  0  0  0  0  0  0  0  0
   60.1550   33.9170   46.0480 C   0  0  0  0  0  0  0  0  0  0  0  0
   59.6700   28.8100   44.9090 C   0  0  0  0  0  0  0  0  0  0  0  0
   59.9660   27.5550   45.4500 C   0  0  0  0  0  0  0  0  0  0  0  0
   57.3809   24.2987   44.7522 H   0  0  0  0  0  0  0  0  0  0  0  0
   58.0926   22.6479   44.9052 H   0  0  0  0  0  0  0  0  0  0  0  0
   52.5880   24.3586   44.7681 H   0  0  0  0  0  0  0  0  0  0  0  0
   56.8058   26.5740   46.3138 H   0  0  0  0  0  0  0  0  0  0  0  0
   56.2746   28.7978   45.3224 H   0  0  0  0  0  0  0  0  0  0  0  0
   58.9520   31.1958   44.1671 H   0  0  0  0  0  0  0  0  0  0  0  0
   57.5881   30.4560   43.2610 H   0  0  0  0  0  0  0  0  0  0  0  0
   57.0290   30.8300   46.0310 H   0  0  0  0  0  0  0  0  0  0  0  0
   58.9082   30.8761   47.0017 H   0  0  0  0  0  0  0  0  0  0  0  0
   61.1510   30.7510   48.0926 H   0  0  0  0  0  0  0  0  0  0  0  0
   62.7560   32.6519   47.8733 H   0  0  0  0  0  0  0  0  0  0  0  0
   62.1169   34.6814   46.5648 H   0  0  0  0  0  0  0  0  0  0  0  0
   59.8744   34.8127   45.4745 H   0  0  0  0  0  0  0  0  0  0  0  0
   60.4797   29.4395   44.5114 H   0  0  0  0  0  0  0  0  0  0  0  0
   61.0092   27.2088   45.4924 H   0  0  0  0  0  0  0  0  0  0  0  0
  1  2  2  0
  2  3  1  0
  3  4  1  0
  4  5  1  0
  5  6  1  0
  6  7  2  0
  7  8  1  0
  8  9  1  0
  2 10  1  0
 10 11  1  0
 11 12  2  0
 12 13  1  0
 13 14  2  0
 14 15  1  0
 15 16  1  0
 16 17  1  0
 17 18  2  0
 17 19  2  0
 17 20  1  0
 20 21  2  0
 21 22  1  0
 22 23  2  0
 23 24  1  0
 24 25  2  0
 14 26  1  0
 26 27  2  0
  9  5  2  0
 27 11  1  0
 25 20  1  0
  3 28  1  0
  3 29  1  0
  7 30  1  0
 12 31  1  0
 13 32  1  0
 15 33  1  0
 15 34  1  0
 16 35  1  0
 21 36  1  0
 22 37  1  0
 23 38  1  0
 24 39  1  0
 25 40  1  0
 26 41  1  0
 27 42  1  0
M  CHG  2   8  -1  10  -1
M  END
>  <UniqueID>  (41) 
37

>  <SMILES>  (41) 
O=C(CSc1nc[n-]n1)[N-]c1ccc(CNS(=O)(=O)c2ccccc2)cc1

>  <Energy>  (41) 
71.13957664821561

>  <Genealogy>  (41) 
O=C(CSc1nc[n-]n1)[N-]c1ccc(CNS(=O)(=O)c2ccccc2)cc1 (protonated)
O=C(CSc1nc[n-]n1)[N-]c1ccc(CNS(=O)(=O)c2ccccc2)cc1 (3D coordinates assigned)
O=C(CSc1nc[n-]n1)[N-]c1ccc(CNS(=O)(=O)c2ccccc2)cc1 (optimized conformer: 71.13957664821561 kcal/mol)

>  <smiles>  (41) 
O=C(CSc1nc[nH]n1)Nc1ccc(CNS(=O)(=O)c2ccccc2)cc1

>  <score_type>  (41) 
oracle

>  <origin>  (41) 
adg

>  <m_score__min__energy>  (41) 
-12.550000000000001

>  <m_primary>  (41) 
energy

$$$$
41:0
     RDKit          3D

 51 54  0  0  0  0  0  0  0  0999 V2000
   55.1660   28.3790   44.5010 H   0  0  0  0  0  0  0  0  0  0  0  0
   55.1570   29.3650   44.8540 N   0  0  0  0  0  0  0  0  0  0  0  0
   56.7600   29.9840   44.6550 S   0  0  0  0  0  0  0  0  0  0  0  0
   56.7090   31.4800   44.4760 O   0  0  0  0  0  0  0  0  0  0  0  0
   57.3820   29.3740   43.4260 O   0  0  0  0  0  0  0  0  0  0  0  0
   57.7270   29.5900   46.0720 C   0  0  0  0  0  0  0  0  0  0  0  0
   58.2250   30.6110   46.8980 C   0  0  0  0  0  0  0  0  0  0  0  0
   58.0352   31.6637   46.6416 H   0  0  0  0  0  0  0  0  0  0  0  0
   58.9610   30.2960   48.0450 C   0  0  0  0  0  0  0  0  0  0  0  0
   59.3559   31.1016   48.6814 H   0  0  0  0  0  0  0  0  0  0  0  0
   59.1970   28.9570   48.3860 C   0  0  0  0  0  0  0  0  0  0  0  0
   59.8720   28.6630   49.6180 N   0  0  0  0  0  0  0  0  0  0  0  0
   59.9770   29.5280   50.7660 C   0  0  0  0  0  0  0  0  0  0  0  0
   60.7520   30.5270   50.6970 O   0  0  0  0  0  0  0  0  0  0  0  0
   59.1720   29.3210   52.0010 C   0  0  0  0  0  0  0  0  0  0  0  0
   59.8140   29.0180   53.2180 C   0  0  0  0  0  0  0  0  0  0  0  0
   60.9121   28.9659   53.2573 H   0  0  0  0  0  0  0  0  0  0  0  0
   59.0670   28.7830   54.3760 C   0  0  0  0  0  0  0  0  0  0  0  0
   59.5780   28.5468   55.3210 H   0  0  0  0  0  0  0  0  0  0  0  0
   57.6690   28.8480   54.3340 C   0  0  0  0  0  0  0  0  0  0  0  0
   57.0821   28.6304   55.2386 H   0  0  0  0  0  0  0  0  0  0  0  0
   57.0150   29.1900   53.1410 C   0  0  0  0  0  0  0  0  0  0  0  0
   55.5770   29.2150   53.0740 N   0  0  0  0  0  0  0  0  0  0  0  0
   54.7460   28.2840   53.6080 C   0  0  0  0  0  0  0  0  0  0  0  0
   55.1840   27.0860   54.3930 C   0  0  0  0  0  0  0  0  0  0  0  0
   55.1046   27.3032   55.4684 H   0  0  0  0  0  0  0  0  0  0  0  0
   54.5410   26.2291   54.1436 H   0  0  0  0  0  0  0  0  0  0  0  0
   56.2281   26.8459   54.1436 H   0  0  0  0  0  0  0  0  0  0  0  0
   53.4360   28.5600   53.2640 C   0  0  0  0  0  0  0  0  0  0  0  0
   52.5423   28.0069   53.5887 H   0  0  0  0  0  0  0  0  0  0  0  0
   53.4650   29.6680   52.4310 C   0  0  0  0  0  0  0  0  0  0  0  0
   52.3700   30.1260   51.7930 C   0  0  0  0  0  0  0  0  0  0  0  0
   52.1123   29.6577   50.8316 H   0  0  0  0  0  0  0  0  0  0  0  0
   51.4860   31.2080   52.2810 C   0  0  0  0  0  0  0  0  0  0  0  0
   51.0790   31.3490   53.5560 N   0  0  0  0  0  0  0  0  0  0  0  0
   50.4440   32.5440   53.5590 C   0  0  0  0  0  0  0  0  0  0  0  0
   49.9100   33.0290   54.5880 O   0  0  0  0  0  0  0  0  0  0  0  0
   50.4490   33.1880   52.3750 N   0  0  0  0  0  0  0  0  0  0  0  0
   51.1220   32.3360   51.5750 C   0  0  0  0  0  0  0  0  0  0  0  0
   51.3970   32.5950   50.2310 O   0  0  0  0  0  0  0  0  0  0  0  0
   52.3310   32.4730   49.8470 H   0  0  0  0  0  0  0  0  0  0  0  0
   54.8050   30.0850   52.3740 C   0  0  0  0  0  0  0  0  0  0  0  0
   55.2740   31.2370   51.8650 C   0  0  0  0  0  0  0  0  0  0  0  0
   56.3538   31.4460   51.8808 H   0  0  0  0  0  0  0  0  0  0  0  0
   54.5780   31.9709   51.4326 H   0  0  0  0  0  0  0  0  0  0  0  0
   57.7690   29.4590   51.9920 C   0  0  0  0  0  0  0  0  0  0  0  0
   57.2605   29.7818   51.0715 H   0  0  0  0  0  0  0  0  0  0  0  0
   58.7530   27.9350   47.5270 C   0  0  0  0  0  0  0  0  0  0  0  0
   58.9886   26.8852   47.7559 H   0  0  0  0  0  0  0  0  0  0  0  0
   58.0110   28.2510   46.3800 C   0  0  0  0  0  0  0  0  0  0  0  0
   57.6509   27.4477   45.7205 H   0  0  0  0  0  0  0  0  0  0  0  0
  1  2  1  0
  2  3  1  0
  3  4  2  0
  3  5  2  0
  3  6  1  0
  6  7  2  0
  7  8  1  0
  7  9  1  0
  9 10  1  0
  9 11  2  0
 11 12  1  0
 12 13  1  0
 13 14  2  0
 13 15  1  0
 15 16  2  0
 16 17  1  0
 16 18  1  0
 18 19  1  0
 18 20  2  0
 20 21  1  0
 20 22  1  0
 22 23  1  0
 23 24  1  0
 24 25  1  0
 25 26  1  0
 25 27  1  0
 25 28  1  0
 24 29  2  0
 29 30  1  0
 29 31  1  0
 31 32  2  0
 32 33  1  0
 32 34  1  0
 34 35  1  0
 35 36  1  0
 36 37  2  0
 36 38  1  0
 38 39  1  0
 39 40  1  0
 40 41  1  0
 31 42  1  0
 42 43  2  0
 43 44  1  0
 43 45  1  0
 22 46  2  0
 46 47  1  0
 11 48  1  0
 48 49  1  0
 48 50  2  0
 50 51  1  0
 50  6  1  0
 46 15  1  0
 42 23  1  0
 39 34  2  0
M  CHG  4   2  -1  12  -1  35  -1  38  -1
M  END
>  <UniqueID>  (42) 
38

>  <SMILES>  (42) 
C=c1/c(=C\c2[n-]c(=O)[n-]c2O)cc(C)n1-c1cccc(C(=O)[N-]c2ccc(S([NH-])(=O)=O)cc2)c1

>  <Energy>  (42) 
135.88158152623012

>  <Genealogy>  (42) 
C=c1c(=Cc2[n-]c(=O)[n-]c2O)cc(C)n1-c1cccc(C(=O)[N-]c2ccc(S([NH-])(=O)=O)cc2)c1 (protonated)
C=c1/c(=C\c2[n-]c(=O)[n-]c2O)cc(C)n1-c1cccc(C(=O)[N-]c2ccc(S([NH-])(=O)=O)cc2)c1 (cis-trans isomerization)
C=c1/c(=C\c2[n-]c(=O)[n-]c2O)cc(C)n1-c1cccc(C(=O)[N-]c2ccc(S([NH-])(=O)=O)cc2)c1 (3D coordinates assigned)
C=c1/c(=C\c2[n-]c(=O)[n-]c2O)cc(C)n1-c1cccc(C(=O)[N-]c2ccc(S([NH-])(=O)=O)cc2)c1 (optimized conformer: 135.88158152623012 kcal/mol)

>  <smiles>  (42) 
C=c1c(=Cc2[nH]c(=O)[nH]c2O)cc(C)n1-c1cccc(C(=O)Nc2ccc(S(N)(=O)=O)cc2)c1

>  <score_type>  (42) 
oracle

>  <origin>  (42) 
adg

>  <m_score__min__energy>  (42) 
-17.879999999999999

>  <m_primary>  (42) 
energy

$$$$
42:0
     RDKit          3D

 45 48  0  0  0  0  0  0  0  0999 V2000
   58.9562   35.4238   46.2983 H   0  0  0  0  0  0  0  0  0  0  0  0
   58.5500   34.5560   45.7580 C   0  0  0  0  0  0  0  0  0  0  0  0
   59.0440   34.2250   44.4940 C   0  0  0  0  0  0  0  0  0  0  0  0
   59.8409   34.8323   44.0399 H   0  0  0  0  0  0  0  0  0  0  0  0
   58.5280   33.1240   43.8050 C   0  0  0  0  0  0  0  0  0  0  0  0
   58.9181   32.8712   42.8080 H   0  0  0  0  0  0  0  0  0  0  0  0
   57.5140   32.3380   44.3780 C   0  0  0  0  0  0  0  0  0  0  0  0
   56.9450   31.1580   43.6340 C   0  0  0  0  0  0  0  0  0  0  0  0
   56.2989   31.5193   42.8204 H   0  0  0  0  0  0  0  0  0  0  0  0
   57.7726   30.5621   43.2217 H   0  0  0  0  0  0  0  0  0  0  0  0
   56.1580   30.3180   44.5390 N   0  0  0  0  0  0  0  0  0  0  0  0
   56.6140   29.2980   45.2040 C   0  0  0  0  0  0  0  0  0  0  0  0
   55.8850   28.1560   45.2510 N   0  0  0  0  0  0  0  0  0  0  0  0
   56.3310   27.0830   45.9620 C   0  0  0  0  0  0  0  0  0  0  0  0
   55.6370   25.9880   46.0220 N   0  0  0  0  0  0  0  0  0  0  0  0
   60.4810   29.2740   46.8890 C   0  0  0  0  0  0  0  0  0  0  0  0
   61.4207   28.8762   47.2997 H   0  0  0  0  0  0  0  0  0  0  0  0
   60.5449   29.3839   45.7964 H   0  0  0  0  0  0  0  0  0  0  0  0
   60.2240   30.6340   47.4850 C   0  0  0  0  0  0  0  0  0  0  0  0
   59.2010   30.8150   48.4300 C   0  0  0  0  0  0  0  0  0  0  0  0
   58.5647   29.9649   48.7170 H   0  0  0  0  0  0  0  0  0  0  0  0
   58.9870   32.0700   49.0080 C   0  0  0  0  0  0  0  0  0  0  0  0
   58.1764   32.2077   49.7387 H   0  0  0  0  0  0  0  0  0  0  0  0
   59.8020   33.1490   48.6580 C   0  0  0  0  0  0  0  0  0  0  0  0
   59.6341   34.1353   49.1152 H   0  0  0  0  0  0  0  0  0  0  0  0
   60.8300   32.9770   47.7280 C   0  0  0  0  0  0  0  0  0  0  0  0
   61.4740   33.8267   47.4573 H   0  0  0  0  0  0  0  0  0  0  0  0
   61.0410   31.7260   47.1410 C   0  0  0  0  0  0  0  0  0  0  0  0
   61.8496   31.5950   46.4068 H   0  0  0  0  0  0  0  0  0  0  0  0
   57.5140   27.1590   46.6200 N   0  0  0  0  0  0  0  0  0  0  0  0
   58.2580   28.2940   46.5680 C   0  0  0  0  0  0  0  0  0  0  0  0
   59.3970   28.3390   47.1920 N   0  0  0  0  0  0  0  0  0  0  0  0
   55.9770   24.7770   45.2800 C   0  0  0  0  0  0  0  0  0  0  0  0
   54.9575   24.3793   45.1689 H   0  0  0  0  0  0  0  0  0  0  0  0
   57.1710   24.9640   44.3650 C   0  0  0  0  0  0  0  0  0  0  0  0
   57.2119   24.4385   43.3995 H   0  0  0  0  0  0  0  0  0  0  0  0
   57.6784   25.8300   43.9149 H   0  0  0  0  0  0  0  0  0  0  0  0
   57.3200   24.1840   45.6630 C   0  0  0  0  0  0  0  0  0  0  0  0
   57.4683   23.0944   45.6365 H   0  0  0  0  0  0  0  0  0  0  0  0
   57.9793   24.2517   46.5409 H   0  0  0  0  0  0  0  0  0  0  0  0
   57.8040   29.3610   45.8600 N   0  0  0  0  0  0  0  0  0  0  0  0
   57.0220   32.6800   45.6510 C   0  0  0  0  0  0  0  0  0  0  0  0
   56.2259   32.0756   46.1102 H   0  0  0  0  0  0  0  0  0  0  0  0
   57.5390   33.7830   46.3350 C   0  0  0  0  0  0  0  0  0  0  0  0
   57.1493   34.0436   47.3301 H   0  0  0  0  0  0  0  0  0  0  0  0
  1  2  1  0
  2  3  2  0
  3  4  1  0
  3  5  1  0
  5  6  1  0
  5  7  2  0
  7  8  1  0
  8  9  1  0
  8 10  1  0
  8 11  1  0
 11 12  2  3
 12 13  1  0
 13 14  1  0
 14 15  2  0
 15 16  1  0
 16 17  1  0
 16 18  1  0
 16 19  1  0
 19 20  2  0
 20 21  1  0
 20 22  1  0
 22 23  1  0
 22 24  2  0
 24 25  1  0
 24 26  1  0
 26 27  1  0
 26 28  2  0
 28 29  1  0
 14 30  1  0
 30 31  1  0
 31 32  2  0
 32 33  1  0
 33 34  1  0
 33 35  1  0
 35 36  1  0
 35 37  1  0
 35 38  1  0
 38 39  1  0
 38 40  1  0
 31 41  1  0
  7 42  1  0
 42 43  1  0
 42 44  2  0
 44 45  1  0
 44  2  1  0
 41 12  1  0
 28 19  1  0
 38 33  1  0
M  CHG  3  13  -1  30  -1  41  -1
M  END
>  <UniqueID>  (43) 
39

>  <SMILES>  (43) 
c1ccc(CN=c2[n-]/c(=N\Cc3ccccc3)[n-]/c(=N/C3CC3)[n-]2)cc1

>  <Energy>  (43) 
310.2664807997343

>  <Genealogy>  (43) 
c1ccc(CN=c2[n-]c(=NCc3ccccc3)[n-]c(=NC3CC3)[n-]2)cc1 (protonated)
c1ccc(CN=c2[n-]/c(=N\Cc3ccccc3)[n-]/c(=N/C3CC3)[n-]2)cc1 (cis-trans isomerization)
c1ccc(CN=c2[n-]/c(=N\Cc3ccccc3)[n-]/c(=N/C3CC3)[n-]2)cc1 (3D coordinates assigned)
c1ccc(CN=c2[n-]/c(=N\Cc3ccccc3)[n-]/c(=N/C3CC3)[n-]2)cc1 (nonaromatic ring conformer: 310.2664807997343 kcal/mol)

>  <smiles>  (43) 
c1ccc(CN=c2[nH]c(=NCc3ccccc3)[nH]c(=NC3CC3)[nH]2)cc1

>  <score_type>  (43) 
oracle

>  <origin>  (43) 
adg

>  <m_score__min__energy>  (43) 
-13.01

>  <m_primary>  (43) 
energy

$$$$
43:0
     RDKit          3D

 46 48  0  0  0  0  0  0  0  0999 V2000
   57.0613   32.9450   43.2901 H   0  0  0  0  0  0  0  0  0  0  0  0
   57.4570   32.9760   44.3160 C   0  0  0  0  0  0  0  0  0  0  0  0
   57.6920   34.1720   44.9090 N   0  0  0  0  0  0  0  0  0  0  0  0
   58.1950   34.2610   46.1640 C   0  0  0  0  0  0  0  0  0  0  0  0
   58.3581   35.2487   46.6199 H   0  0  0  0  0  0  0  0  0  0  0  0
   58.5080   33.1010   46.8830 C   0  0  0  0  0  0  0  0  0  0  0  0
   58.2530   31.8390   46.3110 C   0  0  0  0  0  0  0  0  0  0  0  0
   57.7140   31.7760   44.9990 C   0  0  0  0  0  0  0  0  0  0  0  0
   57.4480   30.4610   44.2920 C   0  0  0  0  0  0  0  0  0  0  0  0
   58.4087   29.9795   44.0572 H   0  0  0  0  0  0  0  0  0  0  0  0
   56.8825   30.6693   43.3718 H   0  0  0  0  0  0  0  0  0  0  0  0
   56.6540   29.5590   45.1290 N   0  0  0  0  0  0  0  0  0  0  0  0
   56.9280   28.3300   45.4620 C   0  0  0  0  0  0  0  0  0  0  0  0
   55.8970   27.4570   45.6210 N   0  0  0  0  0  0  0  0  0  0  0  0
   56.0900   26.1570   45.9650 C   0  0  0  0  0  0  0  0  0  0  0  0
   55.2262   25.4865   46.0845 H   0  0  0  0  0  0  0  0  0  0  0  0
   57.3820   25.6710   46.1670 C   0  0  0  0  0  0  0  0  0  0  0  0
   57.5412   24.6210   46.4535 H   0  0  0  0  0  0  0  0  0  0  0  0
   58.4740   26.5310   46.0020 C   0  0  0  0  0  0  0  0  0  0  0  0
   59.8690   26.0410   46.2560 C   0  0  0  0  0  0  0  0  0  0  0  0
   60.0443   25.9794   47.3402 H   0  0  0  0  0  0  0  0  0  0  0  0
   59.9951   25.0448   45.8070 H   0  0  0  0  0  0  0  0  0  0  0  0
   60.5904   26.7395   45.8070 H   0  0  0  0  0  0  0  0  0  0  0  0
   58.2470   27.8730   45.6660 C   0  0  0  0  0  0  0  0  0  0  0  0
   59.0941   28.5670   45.5618 H   0  0  0  0  0  0  0  0  0  0  0  0
   58.6100   30.5700   47.0680 C   0  0  0  0  0  0  0  0  0  0  0  0
   57.6954   29.9689   47.1781 H   0  0  0  0  0  0  0  0  0  0  0  0
   59.3919   30.0685   46.4788 H   0  0  0  0  0  0  0  0  0  0  0  0
   59.2100   30.8000   48.4830 C   0  0  1  0  0  0  0  0  0  0  0  0
   58.3352   30.8658   49.1466 H   0  0  0  0  0  0  0  0  0  0  0  0
   60.0320   29.6330   48.9950 C   0  0  0  0  0  0  0  0  0  0  0  0
   59.5330   28.4760   48.9990 O   0  0  0  0  0  0  0  0  0  0  0  0
   61.4060   29.7900   49.3600 N   0  0  0  0  0  0  0  0  0  0  0  0
   61.9080   30.6980   49.2440 H   0  0  0  0  0  0  0  0  0  0  0  0
   61.9480   28.9680   49.7080 H   0  0  0  0  0  0  0  0  0  0  0  0
   59.9320   32.0880   48.6090 N   0  0  0  0  0  0  0  0  0  0  0  0
   61.4990   32.2030   47.8070 S   0  0  0  0  0  0  0  0  0  0  0  0
   62.5940   32.3330   48.8290 O   0  0  0  0  0  0  0  0  0  0  0  0
   61.7330   30.9340   47.0390 O   0  0  0  0  0  0  0  0  0  0  0  0
   61.6760   33.5640   46.6680 C   0  0  0  0  0  0  0  0  0  0  0  0
   61.7978   34.5006   47.2319 H   0  0  0  0  0  0  0  0  0  0  0  0
   62.5603   33.3996   46.0348 H   0  0  0  0  0  0  0  0  0  0  0  0
   60.7790   33.6312   46.0348 H   0  0  0  0  0  0  0  0  0  0  0  0
   59.0480   33.2170   48.2810 C   0  0  0  0  0  0  0  0  0  0  0  0
   58.2069   33.2309   48.9898 H   0  0  0  0  0  0  0  0  0  0  0  0
   59.6321   34.1465   48.3511 H   0  0  0  0  0  0  0  0  0  0  0  0
  1  2  1  0
  2  3  2  0
  3  4  1  0
  4  5  1  0
  4  6  2  0
  6  7  1  0
  7  8  2  0
  8  9  1  0
  9 10  1  0
  9 11  1  0
  9 12  1  0
 12 13  2  0
 13 14  1  0
 14 15  1  0
 15 16  1  0
 15 17  2  0
 17 18  1  0
 17 19  1  0
 19 20  1  0
 20 21  1  0
 20 22  1  0
 20 23  1  0
 19 24  2  0
 24 25  1  0
  7 26  1  0
 26 27  1  0
 26 28  1  0
 26 29  1  0
 29 30  1  1
 29 31  1  0
 31 32  2  0
 31 33  1  0
 33 34  1  0
 33 35  1  0
 29 36  1  0
 36 37  1  0
 37 38  2  0
 37 39  2  0
 37 40  1  0
 40 41  1  0
 40 42  1  0
 40 43  1  0
 36 44  1  0
 44 45  1  0
 44 46  1  0
  8  2  1  0
 24 13  1  0
 44  6  1  0
M  CHG  1  14  -1
M  END
>  <UniqueID>  (44) 
40

>  <SMILES>  (44) 
Cc1cc[n-]/c(=N/Cc2cncc3c2C[C@@H](C(N)=O)N(S(C)(=O)=O)C3)c1

>  <Energy>  (44) 
59.9058813356164

>  <Genealogy>  (44) 
Cc1cc[n-]c(=NCc2cncc3c2CC(C(N)=O)N(S(C)(=O)=O)C3)c1 (protonated)
Cc1cc[n-]c(=NCc2cncc3c2C[C@@H](C(N)=O)N(S(C)(=O)=O)C3)c1 (chirality)
Cc1cc[n-]/c(=N/Cc2cncc3c2C[C@@H](C(N)=O)N(S(C)(=O)=O)C3)c1 (cis-trans isomerization)
Cc1cc[n-]/c(=N/Cc2cncc3c2C[C@@H](C(N)=O)N(S(C)(=O)=O)C3)c1 (3D coordinates assigned)
Cc1cc[n-]/c(=N/Cc2cncc3c2C[C@@H](C(N)=O)N(S(C)(=O)=O)C3)c1 (nonaromatic ring conformer: 59.9058813356164 kcal/mol)

>  <smiles>  (44) 
Cc1cc[nH]c(=NCc2cncc3c2CC(C(N)=O)N(S(C)(=O)=O)C3)c1

>  <score_type>  (44) 
oracle

>  <origin>  (44) 
adg

>  <m_score__min__energy>  (44) 
-9.1400000000000006

>  <m_primary>  (44) 
energy

$$$$
44:0
     RDKit          3D

 35 35  0  0  0  0  0  0  0  0999 V2000
   60.0975   29.6531   46.2875 H   0  0  0  0  0  0  0  0  0  0  0  0
   59.4820   29.1770   45.5100 C   0  0  0  0  0  0  0  0  0  0  0  0
   59.1310   27.7550   45.6960 C   0  0  0  0  0  0  0  0  0  0  0  0
   60.0360   26.9500   46.0450 O   0  0  0  0  0  0  0  0  0  0  0  0
   57.8180   27.2670   45.3910 N   0  0  0  0  0  0  0  0  0  0  0  0
   57.2670   27.7530   44.6480 H   0  0  0  0  0  0  0  0  0  0  0  0
   57.2490   26.0940   45.9880 C   0  0  0  0  0  0  0  0  0  0  0  0
   55.9190   25.8310   46.2510 C   0  0  0  0  0  0  0  0  0  0  0  0
   54.8490   26.6850   46.0170 O   0  0  0  0  0  0  0  0  0  0  0  0
   55.7900   24.6160   46.7260 O   0  0  0  0  0  0  0  0  0  0  0  0
   56.9820   24.0600   46.7730 C   0  0  0  0  0  0  0  0  0  0  0  0
   57.1882   23.0409   47.1321 H   0  0  0  0  0  0  0  0  0  0  0  0
   57.9380   24.9440   46.3050 C   0  0  0  0  0  0  0  0  0  0  0  0
   59.0191   24.7662   46.2069 H   0  0  0  0  0  0  0  0  0  0  0  0
   59.1090   29.9340   44.4670 C   0  0  0  0  0  0  0  0  0  0  0  0
   59.7770   29.9662   43.5936 H   0  0  0  0  0  0  0  0  0  0  0  0
   57.8600   30.7300   44.4090 C   0  0  0  0  0  0  0  0  0  0  0  0
   56.9270   30.4960   43.4670 C   0  0  0  0  0  0  0  0  0  0  0  0
   57.1353   30.8341   42.4412 H   0  0  0  0  0  0  0  0  0  0  0  0
   55.6180   29.8020   43.7270 C   0  0  0  0  0  0  0  0  0  0  0  0
   54.8287   30.5562   43.8620 H   0  0  0  0  0  0  0  0  0  0  0  0
   55.3810   29.1554   42.8692 H   0  0  0  0  0  0  0  0  0  0  0  0
   55.7070   28.9790   44.9290 N   0  0  0  0  0  0  0  0  0  0  0  0
   54.7620   28.9670   45.3770 H   0  0  0  0  0  0  0  0  0  0  0  0
   55.9060   27.9920   44.6450 H   0  0  0  0  0  0  0  0  0  0  0  0
   57.6910   31.9150   45.3360 C   0  0  0  0  0  0  0  0  0  0  0  0
   58.4681   31.8697   46.1132 H   0  0  0  0  0  0  0  0  0  0  0  0
   56.6827   31.8598   45.7722 H   0  0  0  0  0  0  0  0  0  0  0  0
   57.8100   33.2560   44.5960 C   0  0  0  0  0  0  0  0  0  0  0  0
   56.7995   33.6529   44.4190 H   0  0  0  0  0  0  0  0  0  0  0  0
   58.3414   33.0719   43.6507 H   0  0  0  0  0  0  0  0  0  0  0  0
   58.6110   34.2880   45.3880 C   0  0  0  0  0  0  0  0  0  0  0  0
   58.4736   34.1110   46.4649 H   0  0  0  0  0  0  0  0  0  0  0  0
   59.6776   34.1974   45.1347 H   0  0  0  0  0  0  0  0  0  0  0  0
   58.2586   35.2987   45.1347 H   0  0  0  0  0  0  0  0  0  0  0  0
  1  2  1  0
  2  3  1  0
  3  4  2  0
  3  5  1  0
  5  6  1  0
  5  7  1  0
  7  8  2  0
  8  9  1  0
  8 10  1  0
 10 11  1  0
 11 12  1  0
 11 13  2  0
 13 14  1  0
  2 15  2  0
 15 16  1  0
 15 17  1  0
 17 18  2  0
 18 19  1  0
 18 20  1  0
 20 21  1  0
 20 22  1  0
 20 23  1  0
 23 24  1  0
 23 25  1  0
 17 26  1  0
 26 27  1  0
 26 28  1  0
 26 29  1  0
 29 30  1  0
 29 31  1  0
 29 32  1  0
 32 33  1  0
 32 34  1  0
 32 35  1  0
 13  7  1  0
M  CHG  1   9  -1
M  END
>  <UniqueID>  (45) 
41

>  <SMILES>  (45) 
CCC/C(C=CC(=O)Nc1ccoc1[O-])=C/CN

>  <Energy>  (45) 
63.352749180073594

>  <Genealogy>  (45) 
CCCC(C=CC(=O)Nc1ccoc1[O-])=CCN (protonated)
CCC/C(C=CC(=O)Nc1ccoc1[O-])=C/CN (cis-trans isomerization)
CCC/C(C=CC(=O)Nc1ccoc1[O-])=C/CN (3D coordinates assigned)
CCC/C(C=CC(=O)Nc1ccoc1[O-])=C/CN (optimized conformer: 63.352749180073594 kcal/mol)

>  <smiles>  (45) 
CCCC(C=CC(=O)Nc1ccoc1O)=CCN

>  <score_type>  (45) 
oracle

>  <origin>  (45) 
adg

>  <m_score__min__energy>  (45) 
-9.7300000000000004

>  <m_primary>  (45) 
energy

$$$$
45:0
     RDKit          3D

 49 52  0  0  0  0  0  0  0  0999 V2000
   60.2490   30.2650   51.3510 C   0  0  0  0  0  0  0  0  0  0  0  0
   60.3690   30.7290   49.6320 S   0  0  0  0  0  0  0  0  0  0  0  0
   58.9840   30.8060   49.0540 O   0  0  0  0  0  0  0  0  0  0  0  0
   61.1390   29.6680   48.8980 O   0  0  0  0  0  0  0  0  0  0  0  0
   61.1720   32.2690   49.4200 N   0  0  0  0  0  0  0  0  0  0  0  0
   60.4490   33.3670   50.1040 C   0  0  0  0  0  0  0  0  0  0  0  0
   59.6240   34.2230   49.1320 C   0  0  0  0  0  0  0  0  0  0  0  0
   60.4720   34.8180   48.0740 N   0  0  0  0  0  0  0  0  0  0  0  0
   59.6910   35.3000   46.9110 C   0  0  0  0  0  0  0  0  0  0  0  0
   59.1280   34.1870   46.0620 C   0  0  0  0  0  0  0  0  0  0  0  0
   58.9500   34.2320   44.6910 C   0  0  0  0  0  0  0  0  0  0  0  0
   58.4750   32.9910   44.3190 C   0  0  0  0  0  0  0  0  0  0  0  0
   58.3860   32.2400   45.4780 C   0  0  0  0  0  0  0  0  0  0  0  0
   57.9640   30.8240   45.5400 C   0  0  0  0  0  0  0  0  0  0  0  0
   58.8050   29.8310   46.0620 C   0  0  0  0  0  0  0  0  0  0  0  0
   58.3850   28.4860   46.0860 C   0  0  0  0  0  0  0  0  0  0  0  0
   59.2000   27.4400   46.6010 C   0  0  0  0  0  0  0  0  0  0  0  0
   60.4790   27.6500   47.1260 O   0  0  0  0  0  0  0  0  0  0  0  0
   58.7230   26.1240   46.5960 C   0  0  0  0  0  0  0  0  0  0  0  0
   57.4600   25.8240   46.0920 C   0  0  0  0  0  0  0  0  0  0  0  0
   56.6500   26.8360   45.5810 C   0  0  0  0  0  0  0  0  0  0  0  0
   57.0980   28.1680   45.5710 C   0  0  0  0  0  0  0  0  0  0  0  0
   56.2930   29.2000   45.0490 C   0  0  0  0  0  0  0  0  0  0  0  0
   55.1500   28.9540   44.5790 O   0  0  0  0  0  0  0  0  0  0  0  0
   56.7470   30.4780   45.0470 N   0  0  0  0  0  0  0  0  0  0  0  0
   58.7660   32.9810   46.5400 N   0  0  0  0  0  0  0  0  0  0  0  0
   61.6620   34.0120   47.7120 C   0  0  0  0  0  0  0  0  0  0  0  0
   61.4440   32.5180   47.9890 C   0  0  0  0  0  0  0  0  0  0  0  0
   60.4745   31.1368   51.9827 H   0  0  0  0  0  0  0  0  0  0  0  0
   59.2297   29.9110   51.5649 H   0  0  0  0  0  0  0  0  0  0  0  0
   60.9688   29.4612   51.5649 H   0  0  0  0  0  0  0  0  0  0  0  0
   59.7711   32.9306   50.8523 H   0  0  0  0  0  0  0  0  0  0  0  0
   61.1997   34.0214   50.5712 H   0  0  0  0  0  0  0  0  0  0  0  0
   58.8576   33.5898   48.6611 H   0  0  0  0  0  0  0  0  0  0  0  0
   59.1613   35.0417   49.7026 H   0  0  0  0  0  0  0  0  0  0  0  0
   58.8555   35.9118   47.2819 H   0  0  0  0  0  0  0  0  0  0  0  0
   60.3793   35.8760   46.2750 H   0  0  0  0  0  0  0  0  0  0  0  0
   59.1479   35.0876   44.0285 H   0  0  0  0  0  0  0  0  0  0  0  0
   58.2176   32.6630   43.3011 H   0  0  0  0  0  0  0  0  0  0  0  0
   59.7961   30.1027   46.4542 H   0  0  0  0  0  0  0  0  0  0  0  0
   60.7540   28.4490   47.6770 H   0  0  0  0  0  0  0  0  0  0  0  0
   59.3540   25.3163   46.9954 H   0  0  0  0  0  0  0  0  0  0  0  0
   57.1005   24.7844   46.0973 H   0  0  0  0  0  0  0  0  0  0  0  0
   55.6542   26.5910   45.1831 H   0  0  0  0  0  0  0  0  0  0  0  0
   58.7660   32.6930   47.5430 H   0  0  0  0  0  0  0  0  0  0  0  0
   61.8723   34.1486   46.6410 H   0  0  0  0  0  0  0  0  0  0  0  0
   62.5070   34.3542   48.3275 H   0  0  0  0  0  0  0  0  0  0  0  0
   60.5879   32.1651   47.3953 H   0  0  0  0  0  0  0  0  0  0  0  0
   62.3608   31.9771   47.7117 H   0  0  0  0  0  0  0  0  0  0  0  0
  1  2  1  0
  2  3  2  0
  2  4  2  0
  2  5  1  0
  5  6  1  0
  6  7  1  0
  7  8  1  0
  8  9  1  0
  9 10  1  0
 10 11  2  0
 11 12  1  0
 12 13  2  0
 13 14  1  0
 14 15  2  0
 15 16  1  0
 16 17  2  0
 17 18  1  0
 17 19  1  0
 19 20  2  0
 20 21  1  0
 21 22  2  0
 22 23  1  0
 23 24  2  0
 23 25  1  0
 13 26  1  0
  8 27  1  0
 27 28  1  0
 28  5  1  0
 26 10  1  0
 25 14  1  0
 22 16  1  0
  1 29  1  0
  1 30  1  0
  1 31  1  0
  6 32  1  0
  6 33  1  0
  7 34  1  0
  7 35  1  0
  9 36  1  0
  9 37  1  0
 11 38  1  0
 12 39  1  0
 15 40  1  0
 18 41  1  0
 19 42  1  0
 20 43  1  0
 21 44  1  0
 26 45  1  0
 27 46  1  0
 27 47  1  0
 28 48  1  0
 28 49  1  0
M  CHG  1  25  -1
M  END
>  <UniqueID>  (46) 
42

>  <SMILES>  (46) 
CS(=O)(=O)N1CCN(Cc2ccc(-c3cc4c(O)cccc4c(=O)[n-]3)[nH]2)CC1

>  <Energy>  (46) 
92.52986072832226

>  <Genealogy>  (46) 
CS(=O)(=O)N1CCN(Cc2ccc(-c3cc4c(O)cccc4c(=O)[n-]3)[nH]2)CC1 (protonated)
CS(=O)(=O)N1CCN(Cc2ccc(-c3cc4c(O)cccc4c(=O)[n-]3)[nH]2)CC1 (3D coordinates assigned)
CS(=O)(=O)N1CCN(Cc2ccc(-c3cc4c(O)cccc4c(=O)[n-]3)[nH]2)CC1 (nonaromatic ring conformer: 92.52986072832226 kcal/mol)

>  <smiles>  (46) 
CS(=O)(=O)N1CCN(Cc2ccc(-c3cc4c(O)cccc4c(=O)[nH]3)[nH]2)CC1

>  <score_type>  (46) 
oracle

>  <origin>  (46) 
adg

>  <m_score__min__energy>  (46) 
-11.130000000000001

>  <m_primary>  (46) 
energy

$$$$
46:0
     RDKit          3D

 57 60  0  0  0  0  0  0  0  0999 V2000
   55.1410   27.1340   45.0530 H   0  0  0  0  0  0  0  0  0  0  0  0
   55.1680   26.6900   46.0000 N   0  0  0  0  0  0  0  0  0  0  0  0
   56.6590   25.8220   46.0990 S   0  0  0  0  0  0  0  0  0  0  0  0
   56.8620   25.0530   44.8210 O   0  0  0  0  0  0  0  0  0  0  0  0
   56.6050   24.8460   47.2420 O   0  0  0  0  0  0  0  0  0  0  0  0
   57.9920   26.9580   46.3500 C   0  0  0  0  0  0  0  0  0  0  0  0
   58.8170   26.8150   47.4780 C   0  0  0  0  0  0  0  0  0  0  0  0
   58.6346   25.9941   48.1872 H   0  0  0  0  0  0  0  0  0  0  0  0
   59.8680   27.7080   47.7060 C   0  0  0  0  0  0  0  0  0  0  0  0
   60.5090   27.5872   48.5917 H   0  0  0  0  0  0  0  0  0  0  0  0
   60.1050   28.7520   46.8120 C   0  0  0  0  0  0  0  0  0  0  0  0
   60.9329   29.4531   46.9938 H   0  0  0  0  0  0  0  0  0  0  0  0
   59.2930   28.9090   45.6860 C   0  0  0  0  0  0  0  0  0  0  0  0
   59.4848   29.7334   44.9835 H   0  0  0  0  0  0  0  0  0  0  0  0
   58.2340   28.0200   45.4470 C   0  0  0  0  0  0  0  0  0  0  0  0
   57.4160   28.2070   44.2340 C   0  0  0  0  0  0  0  0  0  0  0  0
   57.5440   27.4891   43.4104 H   0  0  0  0  0  0  0  0  0  0  0  0
   56.5270   29.1960   44.0720 C   0  0  0  0  0  0  0  0  0  0  0  0
   55.4686   28.9117   43.9780 H   0  0  0  0  0  0  0  0  0  0  0  0
   56.8490   30.6370   44.0090 C   0  0  0  0  0  0  0  0  0  0  0  0
   57.2730   31.1700   42.9470 O   0  0  0  0  0  0  0  0  0  0  0  0
   56.7060   31.4250   45.1960 N   0  0  0  0  0  0  0  0  0  0  0  0
   56.9820   32.8560   45.2540 C   0  0  0  0  0  0  0  0  0  0  0  0
   56.8263   33.2953   44.2576 H   0  0  0  0  0  0  0  0  0  0  0  0
   56.3021   33.3200   45.9837 H   0  0  0  0  0  0  0  0  0  0  0  0
   58.4010   33.1020   45.6870 C   0  0  0  0  0  0  0  0  0  0  0  0
   58.9630   34.3810   45.5620 C   0  0  0  0  0  0  0  0  0  0  0  0
   58.3656   35.2017   45.1381 H   0  0  0  0  0  0  0  0  0  0  0  0
   60.2780   34.6190   45.9730 C   0  0  0  0  0  0  0  0  0  0  0  0
   60.7121   35.6238   45.8640 H   0  0  0  0  0  0  0  0  0  0  0  0
   61.0470   33.5820   46.5240 C   0  0  0  0  0  0  0  0  0  0  0  0
   62.4310   33.8430   46.9710 C   0  0  0  0  0  0  0  0  0  0  0  0
   63.2820   34.2290   46.1230 O   0  0  0  0  0  0  0  0  0  0  0  0
   62.8240   33.6810   48.3480 N   0  0  0  0  0  0  0  0  0  0  0  0
   64.2420   33.4220   48.6680 C   0  0  0  0  0  0  0  0  0  0  0  0
   64.7825   34.3801   48.6685 H   0  0  0  0  0  0  0  0  0  0  0  0
   64.6323   32.7326   47.9049 H   0  0  0  0  0  0  0  0  0  0  0  0
   64.4290   32.7630   50.0120 C   0  0  0  0  0  0  0  0  0  0  0  0
   65.5710   31.9880   50.2680 C   0  0  0  0  0  0  0  0  0  0  0  0
   66.3096   31.8214   49.4701 H   0  0  0  0  0  0  0  0  0  0  0  0
   65.7740   31.4270   51.5320 C   0  0  0  0  0  0  0  0  0  0  0  0
   66.6642   30.8096   51.7229 H   0  0  0  0  0  0  0  0  0  0  0  0
   64.8470   31.6500   52.5530 C   0  0  0  0  0  0  0  0  0  0  0  0
   65.0065   31.2049   53.5462 H   0  0  0  0  0  0  0  0  0  0  0  0
   63.7180   32.4370   52.3150 C   0  0  0  0  0  0  0  0  0  0  0  0
   62.9997   32.6273   53.1261 H   0  0  0  0  0  0  0  0  0  0  0  0
   63.4990   32.9860   51.0400 C   0  0  0  0  0  0  0  0  0  0  0  0
   62.3080   33.8580   50.7720 C   0  0  0  0  0  0  0  0  0  0  0  0
   62.6051   34.9144   50.8477 H   0  0  0  0  0  0  0  0  0  0  0  0
   61.5244   33.6379   51.5120 H   0  0  0  0  0  0  0  0  0  0  0  0
   61.7660   33.5830   49.3680 C   0  0  0  0  0  0  0  0  0  0  0  0
   60.9803   34.3179   49.1387 H   0  0  0  0  0  0  0  0  0  0  0  0
   61.3647   32.5590   49.3493 H   0  0  0  0  0  0  0  0  0  0  0  0
   60.4970   32.2930   46.6130 C   0  0  0  0  0  0  0  0  0  0  0  0
   61.1048   31.4651   47.0069 H   0  0  0  0  0  0  0  0  0  0  0  0
   59.1820   32.0560   46.2040 C   0  0  0  0  0  0  0  0  0  0  0  0
   58.7566   31.0450   46.2875 H   0  0  0  0  0  0  0  0  0  0  0  0
  1  2  1  0
  2  3  1  0
  3  4  2  0
  3  5  2  0
  3  6  1  0
  6  7  2  0
  7  8  1  0
  7  9  1  0
  9 10  1  0
  9 11  2  0
 11 12  1  0
 11 13  1  0
 13 14  1  0
 13 15  2  0
 15 16  1  0
 16 17  1  0
 16 18  2  0
 18 19  1  0
 18 20  1  0
 20 21  2  0
 20 22  1  0
 22 23  1  0
 23 24  1  0
 23 25  1  0
 23 26  1  0
 26 27  2  0
 27 28  1  0
 27 29  1  0
 29 30  1  0
 29 31  2  0
 31 32  1  0
 32 33  2  0
 32 34  1  0
 34 35  1  0
 35 36  1  0
 35 37  1  0
 35 38  1  0
 38 39  2  0
 39 40  1  0
 39 41  1  0
 41 42  1  0
 41 43  2  0
 43 44  1  0
 43 45  1  0
 45 46  1  0
 45 47  2  0
 47 48  1  0
 48 49  1  0
 48 50  1  0
 48 51  1  0
 51 52  1  0
 51 53  1  0
 31 54  1  0
 54 55  1  0
 54 56  2  0
 56 57  1  0
 15  6  1  0
 56 26  1  0
 51 34  1  0
 47 38  1  0
M  CHG  2   2  -1  22  -1
M  END
>  <UniqueID>  (47) 
43

>  <SMILES>  (47) 
[NH-]S(=O)(=O)c1ccccc1/C=C\C(=O)[N-]Cc1ccc(C(=O)N2CCc3ccccc3C2)cc1

>  <Energy>  (47) 
74.99742932438446

>  <Genealogy>  (47) 
[NH-]S(=O)(=O)c1ccccc1C=CC(=O)[N-]Cc1ccc(C(=O)N2CCc3ccccc3C2)cc1 (protonated)
[NH-]S(=O)(=O)c1ccccc1/C=C\C(=O)[N-]Cc1ccc(C(=O)N2CCc3ccccc3C2)cc1 (cis-trans isomerization)
[NH-]S(=O)(=O)c1ccccc1/C=C\C(=O)[N-]Cc1ccc(C(=O)N2CCc3ccccc3C2)cc1 (3D coordinates assigned)
[NH-]S(=O)(=O)c1ccccc1/C=C\C(=O)[N-]Cc1ccc(C(=O)N2CCc3ccccc3C2)cc1 (nonaromatic ring conformer: 74.99742932438446 kcal/mol)

>  <smiles>  (47) 
NS(=O)(=O)c1ccccc1C=CC(=O)NCc1ccc(C(=O)N2CCc3ccccc3C2)cc1

>  <score_type>  (47) 
oracle

>  <origin>  (47) 
adg

>  <m_score__min__energy>  (47) 
-16.109999999999999

>  <m_primary>  (47) 
energy

$$$$
47:0
     RDKit          3D

 60 61  0  0  0  0  0  0  0  0999 V2000
   59.9120   26.4370   46.0240 C   0  0  0  0  0  0  0  0  0  0  0  0
   58.3810   26.3950   45.8540 C   0  0  0  0  0  0  0  0  0  0  0  0
   57.7870   25.5750   47.0130 C   0  0  0  0  0  0  0  0  0  0  0  0
   57.7740   27.8300   45.8100 C   0  0  2  0  0  0  0  0  0  0  0  0
   58.1570   28.6420   46.9730 N   0  0  0  0  0  0  0  0  0  0  0  0
   59.0920   29.7230   47.1570 C   0  0  0  0  0  0  0  0  0  0  0  0
   59.6400   30.1930   46.1250 O   0  0  0  0  0  0  0  0  0  0  0  0
   59.5310   30.2810   48.4920 C   0  0  2  0  0  0  0  0  0  0  0  0
   59.7100   29.1690   49.4900 C   0  0  0  0  0  0  0  0  0  0  0  0
   60.7130   28.4730   49.4830 O   0  0  0  0  0  0  0  0  0  0  0  0
   58.5810   31.2810   48.9790 N   0  0  0  0  0  0  0  0  0  0  0  0
   59.2280   32.2420   50.2810 S   0  0  0  0  0  0  0  0  0  0  0  0
   60.2070   31.4510   51.1060 O   0  0  0  0  0  0  0  0  0  0  0  0
   58.0950   32.6790   51.1640 O   0  0  0  0  0  0  0  0  0  0  0  0
   60.0300   33.6960   49.6240 C   0  0  0  0  0  0  0  0  0  0  0  0
   61.2240   33.3190   48.7930 C   0  0  0  0  0  0  0  0  0  0  0  0
   61.3870   33.8490   47.5020 C   0  0  0  0  0  0  0  0  0  0  0  0
   62.4780   33.4660   46.7160 C   0  0  0  0  0  0  0  0  0  0  0  0
   63.4080   32.5470   47.2100 C   0  0  0  0  0  0  0  0  0  0  0  0
   63.2490   32.0100   48.4890 C   0  0  0  0  0  0  0  0  0  0  0  0
   62.1610   32.3930   49.2800 C   0  0  0  0  0  0  0  0  0  0  0  0
   56.2750   27.8950   45.5790 C   0  0  0  0  0  0  0  0  0  0  0  0
   55.5630   26.8630   45.7110 O   0  0  0  0  0  0  0  0  0  0  0  0
   55.6290   29.1140   45.1940 N   0  0  0  0  0  0  0  0  0  0  0  0
   55.5830   29.6460   43.8370 C   0  0  0  0  0  0  0  0  0  0  0  0
   56.7610   30.5930   43.6110 C   0  0  0  0  0  0  0  0  0  0  0  0
   57.3970   30.9530   44.8810 N   0  0  0  0  0  0  0  0  0  0  0  0
   57.8920   32.2650   45.2090 C   0  0  0  0  0  0  0  0  0  0  0  0
   58.5450   33.0160   44.2160 C   0  0  0  0  0  0  0  0  0  0  0  0
   59.0370   34.2940   44.5010 C   0  0  0  0  0  0  0  0  0  0  0  0
   58.8780   34.8380   45.7780 C   0  0  0  0  0  0  0  0  0  0  0  0
   58.2230   34.1050   46.7700 C   0  0  0  0  0  0  0  0  0  0  0  0
   57.7300   32.8270   46.4910 C   0  0  0  0  0  0  0  0  0  0  0  0
   60.1619   26.4439   47.0952 H   0  0  0  0  0  0  0  0  0  0  0  0
   60.3581   25.5508   45.5491 H   0  0  0  0  0  0  0  0  0  0  0  0
   60.3088   27.3464   45.5491 H   0  0  0  0  0  0  0  0  0  0  0  0
   58.1305   25.9183   44.8948 H   0  0  0  0  0  0  0  0  0  0  0  0
   58.1037   26.0121   47.9715 H   0  0  0  0  0  0  0  0  0  0  0  0
   56.6890   25.5903   46.9480 H   0  0  0  0  0  0  0  0  0  0  0  0
   58.1437   24.5365   46.9480 H   0  0  0  0  0  0  0  0  0  0  0  0
   58.2289   28.2685   44.9096 H   0  0  0  0  0  0  0  0  0  0  0  0
   60.5009   30.7824   48.3582 H   0  0  0  0  0  0  0  0  0  0  0  0
   58.9251   28.9804   50.2373 H   0  0  0  0  0  0  0  0  0  0  0  0
   59.3153   34.2498   48.9975 H   0  0  0  0  0  0  0  0  0  0  0  0
   60.3686   34.3209   50.4636 H   0  0  0  0  0  0  0  0  0  0  0  0
   60.6535   34.5680   47.1082 H   0  0  0  0  0  0  0  0  0  0  0  0
   62.6045   33.8882   45.7082 H   0  0  0  0  0  0  0  0  0  0  0  0
   64.2659   32.2465   46.5906 H   0  0  0  0  0  0  0  0  0  0  0  0
   63.9804   31.2847   48.8750 H   0  0  0  0  0  0  0  0  0  0  0  0
   62.0387   31.9675   50.2870 H   0  0  0  0  0  0  0  0  0  0  0  0
   55.6387   28.8159   43.1174 H   0  0  0  0  0  0  0  0  0  0  0  0
   54.6418   30.1974   43.6952 H   0  0  0  0  0  0  0  0  0  0  0  0
   57.5016   30.0981   42.9655 H   0  0  0  0  0  0  0  0  0  0  0  0
   56.3862   31.5108   43.1344 H   0  0  0  0  0  0  0  0  0  0  0  0
   57.4820   30.1960   45.5980 H   0  0  0  0  0  0  0  0  0  0  0  0
   58.6700   32.5954   43.2073 H   0  0  0  0  0  0  0  0  0  0  0  0
   59.5501   34.8718   43.7182 H   0  0  0  0  0  0  0  0  0  0  0  0
   59.2680   35.8419   46.0017 H   0  0  0  0  0  0  0  0  0  0  0  0
   58.0946   34.5348   47.7744 H   0  0  0  0  0  0  0  0  0  0  0  0
   57.2127   32.2568   47.2767 H   0  0  0  0  0  0  0  0  0  0  0  0
  1  2  1  0
  2  3  1  0
  2  4  1  0
  4  5  1  0
  5  6  1  0
  6  7  2  0
  6  8  1  0
  8  9  1  0
  9 10  2  0
  8 11  1  0
 11 12  1  0
 12 13  2  0
 12 14  2  0
 12 15  1  0
 15 16  1  0
 16 17  2  0
 17 18  1  0
 18 19  2  0
 19 20  1  0
 20 21  2  0
  4 22  1  0
 22 23  2  0
 22 24  1  0
 24 25  1  0
 25 26  1  0
 26 27  1  0
 27 28  1  0
 28 29  2  0
 29 30  1  0
 30 31  2  0
 31 32  1  0
 32 33  2  0
 21 16  1  0
 33 28  1  0
  1 34  1  0
  1 35  1  0
  1 36  1  0
  2 37  1  0
  3 38  1  0
  3 39  1  0
  3 40  1  0
  4 41  1  6
  8 42  1  6
  9 43  1  0
 15 44  1  0
 15 45  1  0
 17 46  1  0
 18 47  1  0
 19 48  1  0
 20 49  1  0
 21 50  1  0
 25 51  1  0
 25 52  1  0
 26 53  1  0
 26 54  1  0
 27 55  1  0
 29 56  1  0
 30 57  1  0
 31 58  1  0
 32 59  1  0
 33 60  1  0
M  CHG  3   5  -1  11  -1  24  -1
M  END
>  <UniqueID>  (48) 
44

>  <SMILES>  (48) 
CC(C)[C@H]([N-]C(=O)[C@H](C=O)[N-]S(=O)(=O)Cc1ccccc1)C(=O)[N-]CCNc1ccccc1

>  <Energy>  (48) 
50.00025920546947

>  <Genealogy>  (48) 
CC(C)C([N-]C(=O)C(C=O)[N-]S(=O)(=O)Cc1ccccc1)C(=O)[N-]CCNc1ccccc1 (protonated)
CC(C)[C@H]([N-]C(=O)[C@H](C=O)[N-]S(=O)(=O)Cc1ccccc1)C(=O)[N-]CCNc1ccccc1 (chirality)
CC(C)[C@H]([N-]C(=O)[C@H](C=O)[N-]S(=O)(=O)Cc1ccccc1)C(=O)[N-]CCNc1ccccc1 (3D coordinates assigned)
CC(C)[C@H]([N-]C(=O)[C@H](C=O)[N-]S(=O)(=O)Cc1ccccc1)C(=O)[N-]CCNc1ccccc1 (optimized conformer: 50.00025920546947 kcal/mol)

>  <smiles>  (48) 
CC(C)C(NC(=O)C(C=O)NS(=O)(=O)Cc1ccccc1)C(=O)NCCNc1ccccc1

>  <score_type>  (48) 
oracle

>  <origin>  (48) 
adg

>  <m_score__min__energy>  (48) 
-12.91

>  <m_primary>  (48) 
energy

$$$$
48:0
     RDKit          3D

 42 44  0  0  0  0  0  0  0  0999 V2000
   55.9630   25.6360   46.0690 O   0  0  0  0  0  0  0  0  0  0  0  0
   56.6140   26.6740   45.7730 C   0  0  0  0  0  0  0  0  0  0  0  0
   58.1250   26.6070   45.6720 C   0  0  0  0  0  0  0  0  0  0  0  0
   58.8180   27.8300   46.1370 N   0  0  0  0  0  0  0  0  0  0  0  0
   59.8230   28.3520   45.1970 C   0  0  0  0  0  0  0  0  0  0  0  0
   60.2140   29.7910   45.5950 C   0  0  0  0  0  0  0  0  0  0  0  0
   59.8530   30.1160   47.0010 N   0  0  0  0  0  0  0  0  0  0  0  0
   60.5550   31.3540   47.4210 C   0  0  0  0  0  0  0  0  0  0  0  0
   59.5870   32.5100   47.7360 C   0  0  0  0  0  0  0  0  0  0  0  0
   58.2890   32.0120   47.9270 O   0  0  0  0  0  0  0  0  0  0  0  0
   60.1700   28.9770   47.8940 C   0  0  0  0  0  0  0  0  0  0  0  0
   59.3660   27.7140   47.5040 C   0  0  0  0  0  0  0  0  0  0  0  0
   55.8960   27.9020   45.5780 N   0  0  0  0  0  0  0  0  0  0  0  0
   56.3740   28.9920   45.0520 C   0  0  0  0  0  0  0  0  0  0  0  0
   56.2660   29.2480   43.7230 N   0  0  0  0  0  0  0  0  0  0  0  0
   56.8960   30.4260   43.6060 C   0  0  0  0  0  0  0  0  0  0  0  0
   57.0850   31.1830   42.4510 C   0  0  0  0  0  0  0  0  0  0  0  0
   57.7770   32.4040   42.5740 C   0  0  0  0  0  0  0  0  0  0  0  0
   58.2580   32.8290   43.8350 C   0  0  0  0  0  0  0  0  0  0  0  0
   58.0510   32.0360   44.9800 C   0  0  0  0  0  0  0  0  0  0  0  0
   57.3610   30.8360   44.8200 C   0  0  0  0  0  0  0  0  0  0  0  0
   57.0480   29.9360   45.7640 N   0  0  0  0  0  0  0  0  0  0  0  0
   58.4744   25.7598   46.2804 H   0  0  0  0  0  0  0  0  0  0  0  0
   58.3663   26.4927   44.6049 H   0  0  0  0  0  0  0  0  0  0  0  0
   60.7161   27.7103   45.2238 H   0  0  0  0  0  0  0  0  0  0  0  0
   59.4012   28.3582   44.1811 H   0  0  0  0  0  0  0  0  0  0  0  0
   61.3014   29.9061   45.4753 H   0  0  0  0  0  0  0  0  0  0  0  0
   59.6577   30.4792   44.9416 H   0  0  0  0  0  0  0  0  0  0  0  0
   58.8180   30.2910   47.0350 H   0  0  0  0  0  0  0  0  0  0  0  0
   61.1459   31.1346   48.3225 H   0  0  0  0  0  0  0  0  0  0  0  0
   61.1926   31.6741   46.5838 H   0  0  0  0  0  0  0  0  0  0  0  0
   59.9183   33.0232   48.6508 H   0  0  0  0  0  0  0  0  0  0  0  0
   59.5818   33.2160   46.8925 H   0  0  0  0  0  0  0  0  0  0  0  0
   58.0390   31.5390   47.0900 H   0  0  0  0  0  0  0  0  0  0  0  0
   61.2447   28.7537   47.8218 H   0  0  0  0  0  0  0  0  0  0  0  0
   59.8981   29.2569   48.9224 H   0  0  0  0  0  0  0  0  0  0  0  0
   60.0292   26.8377   47.5514 H   0  0  0  0  0  0  0  0  0  0  0  0
   58.5272   27.6044   48.2072 H   0  0  0  0  0  0  0  0  0  0  0  0
   56.7069   30.8389   41.4770 H   0  0  0  0  0  0  0  0  0  0  0  0
   57.9442   33.0301   41.6852 H   0  0  0  0  0  0  0  0  0  0  0  0
   58.7966   33.7842   43.9213 H   0  0  0  0  0  0  0  0  0  0  0  0
   58.4210   32.3527   45.9663 H   0  0  0  0  0  0  0  0  0  0  0  0
  1  2  2  0
  2  3  1  0
  3  4  1  0
  4  5  1  0
  5  6  1  0
  6  7  1  0
  7  8  1  0
  8  9  1  0
  9 10  1  0
  7 11  1  0
 11 12  1  0
  2 13  1  0
 13 14  2  3
 14 15  1  0
 15 16  1  0
 16 17  2  0
 17 18  1  0
 18 19  2  0
 19 20  1  0
 20 21  2  0
 21 22  1  0
 12  4  1  0
 22 14  1  0
 21 16  1  0
  3 23  1  0
  3 24  1  0
  5 25  1  0
  5 26  1  0
  6 27  1  0
  6 28  1  0
  7 29  1  0
  8 30  1  0
  8 31  1  0
  9 32  1  0
  9 33  1  0
 10 34  1  0
 11 35  1  0
 11 36  1  0
 12 37  1  0
 12 38  1  0
 17 39  1  0
 18 40  1  0
 19 41  1  0
 20 42  1  0
M  CHG  3   7   1  15  -1  22  -1
M  END
>  <UniqueID>  (49) 
45

>  <SMILES>  (49) 
O=C(CN1CC[NH+](CCO)CC1)N=c1[n-]c2ccccc2[n-]1

>  <Energy>  (49) 
96.11675555906793

>  <Genealogy>  (49) 
O=C(CN1CC[NH+](CCO)CC1)N=c1[n-]c2ccccc2[n-]1 (protonated)
O=C(CN1CC[NH+](CCO)CC1)N=c1[n-]c2ccccc2[n-]1 (3D coordinates assigned)
O=C(CN1CC[NH+](CCO)CC1)N=c1[n-]c2ccccc2[n-]1 (nonaromatic ring conformer: 96.11675555906793 kcal/mol)

>  <smiles>  (49) 
O=C(CN1CCN(CCO)CC1)N=c1[nH]c2ccccc2[nH]1

>  <score_type>  (49) 
oracle

>  <origin>  (49) 
adg

>  <m_score__min__energy>  (49) 
-7.3499999999999996

>  <m_primary>  (49) 
energy

$$$$
49:0
     RDKit          3D

 56 59  0  0  0  0  0  0  0  0999 V2000
   57.6470   25.7410   43.9830 O   0  0  0  0  0  0  0  0  0  0  0  0
   57.4540   25.7480   45.2290 C   0  0  0  0  0  0  0  0  0  0  0  0
   56.3390   24.8880   45.7770 C   0  0  2  0  0  0  0  0  0  0  0  0
   56.0190   23.7170   44.8640 C   0  0  0  0  0  0  0  0  0  0  0  0
   54.5570   23.4980   45.1120 C   0  0  0  0  0  0  0  0  0  0  0  0
   54.0700   24.8520   45.6010 C   0  0  0  0  0  0  0  0  0  0  0  0
   55.1680   25.6400   46.0000 O   0  0  0  0  0  0  0  0  0  0  0  0
   58.3060   26.5630   46.0690 N   0  0  0  0  0  0  0  0  0  0  0  0
   59.6800   26.8330   45.6240 C   0  0  0  0  0  0  0  0  0  0  0  0
   60.5220   27.3860   46.7770 C   0  0  0  0  0  0  0  0  0  0  0  0
   59.8990   28.5970   47.3610 N   0  0  0  0  0  0  0  0  0  0  0  0
   60.6090   28.9930   48.5650 C   0  0  0  0  0  0  0  0  0  0  0  0
   60.6110   28.2310   49.5720 O   0  0  0  0  0  0  0  0  0  0  0  0
   61.2870   30.3060   48.6740 C   0  0  0  0  0  0  0  0  0  0  0  0
   62.0150   30.7460   49.7050 C   0  0  0  0  0  0  0  0  0  0  0  0
   62.4850   32.0890   49.3730 C   0  0  0  0  0  0  0  0  0  0  0  0
   63.1620   32.8250   50.1380 O   0  0  0  0  0  0  0  0  0  0  0  0
   62.0520   32.4750   48.0740 N   0  0  0  0  0  0  0  0  0  0  0  0
   61.9770   33.8380   47.5440 C   0  0  0  0  0  0  0  0  0  0  0  0
   60.6940   34.5480   47.9980 C   0  0  0  0  0  0  0  0  0  0  0  0
   59.5440   34.2800   47.0610 C   0  0  0  0  0  0  0  0  0  0  0  0
   59.5440   34.8170   45.7610 C   0  0  0  0  0  0  0  0  0  0  0  0
   58.4950   34.5320   44.8820 C   0  0  0  0  0  0  0  0  0  0  0  0
   57.4410   33.7100   45.2900 C   0  0  0  0  0  0  0  0  0  0  0  0
   57.4360   33.1690   46.5790 C   0  0  0  0  0  0  0  0  0  0  0  0
   58.4840   33.4490   47.4620 C   0  0  0  0  0  0  0  0  0  0  0  0
   61.2850   31.3560   47.6490 C   0  0  0  0  0  0  0  0  0  0  0  0
   60.6690   31.3040   46.5500 O   0  0  0  0  0  0  0  0  0  0  0  0
   58.4370   28.4670   47.6350 C   0  0  0  0  0  0  0  0  0  0  0  0
   57.8740   27.0590   47.3830 C   0  0  0  0  0  0  0  0  0  0  0  0
   56.7010   24.4924   46.7375 H   0  0  0  0  0  0  0  0  0  0  0  0
   56.2093   23.9712   43.8108 H   0  0  0  0  0  0  0  0  0  0  0  0
   56.6342   22.8270   45.0625 H   0  0  0  0  0  0  0  0  0  0  0  0
   54.0409   23.2064   44.1854 H   0  0  0  0  0  0  0  0  0  0  0  0
   54.3623   22.6888   45.8312 H   0  0  0  0  0  0  0  0  0  0  0  0
   53.5314   25.3614   44.7883 H   0  0  0  0  0  0  0  0  0  0  0  0
   53.3969   24.7071   46.4589 H   0  0  0  0  0  0  0  0  0  0  0  0
   60.1328   25.8982   45.2619 H   0  0  0  0  0  0  0  0  0  0  0  0
   59.6506   27.5798   44.8169 H   0  0  0  0  0  0  0  0  0  0  0  0
   60.6114   26.6162   47.5577 H   0  0  0  0  0  0  0  0  0  0  0  0
   61.5135   27.6578   46.3858 H   0  0  0  0  0  0  0  0  0  0  0  0
   60.0240   29.3450   46.6410 H   0  0  0  0  0  0  0  0  0  0  0  0
   62.2227   30.1965   50.6350 H   0  0  0  0  0  0  0  0  0  0  0  0
   62.8469   34.4088   47.9010 H   0  0  0  0  0  0  0  0  0  0  0  0
   61.9700   33.7814   46.4455 H   0  0  0  0  0  0  0  0  0  0  0  0
   60.4254   34.1898   49.0028 H   0  0  0  0  0  0  0  0  0  0  0  0
   60.8860   35.6311   48.0024 H   0  0  0  0  0  0  0  0  0  0  0  0
   60.3722   35.4634   45.4349 H   0  0  0  0  0  0  0  0  0  0  0  0
   58.4992   34.9557   43.8669 H   0  0  0  0  0  0  0  0  0  0  0  0
   56.6157   33.4888   44.5972 H   0  0  0  0  0  0  0  0  0  0  0  0
   56.6063   32.5218   46.8995 H   0  0  0  0  0  0  0  0  0  0  0  0
   58.4785   33.0173   48.4737 H   0  0  0  0  0  0  0  0  0  0  0  0
   58.2586   28.7268   48.6889 H   0  0  0  0  0  0  0  0  0  0  0  0
   57.9221   29.1440   46.9375 H   0  0  0  0  0  0  0  0  0  0  0  0
   58.2385   26.3773   48.1656 H   0  0  0  0  0  0  0  0  0  0  0  0
   56.7751   27.1047   47.4039 H   0  0  0  0  0  0  0  0  0  0  0  0
  1  2  2  0
  2  3  1  0
  3  4  1  0
  4  5  1  0
  5  6  1  0
  6  7  1  0
  2  8  1  0
  8  9  1  0
  9 10  1  0
 10 11  1  0
 11 12  1  0
 12 13  2  0
 12 14  1  0
 14 15  2  0
 15 16  1  0
 16 17  2  0
 16 18  1  0
 18 19  1  0
 19 20  1  0
 20 21  1  0
 21 22  2  0
 22 23  1  0
 23 24  2  0
 24 25  1  0
 25 26  2  0
 18 27  1  0
 27 28  2  0
 11 29  1  0
 29 30  1  0
  7  3  1  0
 30  8  1  0
 27 14  1  0
 26 21  1  0
  3 31  1  1
  4 32  1  0
  4 33  1  0
  5 34  1  0
  5 35  1  0
  6 36  1  0
  6 37  1  0
  9 38  1  0
  9 39  1  0
 10 40  1  0
 10 41  1  0
 11 42  1  0
 15 43  1  0
 19 44  1  0
 19 45  1  0
 20 46  1  0
 20 47  1  0
 22 48  1  0
 23 49  1  0
 24 50  1  0
 25 51  1  0
 26 52  1  0
 29 53  1  0
 29 54  1  0
 30 55  1  0
 30 56  1  0
M  CHG  1  11   1
M  END
>  <UniqueID>  (50) 
46

>  <SMILES>  (50) 
O=C([C@@H]1CCCO1)N1CC[NH+](C(=O)C2=CC(=O)N(CCc3ccccc3)C2=O)CC1

>  <Energy>  (50) 
90.33265234704615

>  <Genealogy>  (50) 
O=C(C1CCCO1)N1CC[NH+](C(=O)C2=CC(=O)N(CCc3ccccc3)C2=O)CC1 (protonated)
O=C([C@@H]1CCCO1)N1CC[NH+](C(=O)C2=CC(=O)N(CCc3ccccc3)C2=O)CC1 (chirality)
O=C([C@@H]1CCCO1)N1CC[NH+](C(=O)C2=CC(=O)N(CCc3ccccc3)C2=O)CC1 (3D coordinates assigned)
O=C([C@@H]1CCCO1)N1CC[NH+](C(=O)C2=CC(=O)N(CCc3ccccc3)C2=O)CC1 (nonaromatic ring conformer: 90.33265234704615 kcal/mol)

>  <smiles>  (50) 
O=C(C1=CC(=O)N(CCc2ccccc2)C1=O)N1CCN(C(=O)C2CCCO2)CC1

>  <score_type>  (50) 
oracle

>  <origin>  (50) 
adg

>  <m_score__min__energy>  (50) 
-7.9299999999999997

>  <m_primary>  (50) 
energy

$$$$
50:0
     RDKit          3D

 28 29  0  0  0  0  0  0  0  0999 V2000
   52.9590   21.7570   45.2320 H   0  0  0  0  0  0  0  0  0  0  0  0
   52.8920   22.7690   45.2400 O   0  0  0  0  0  0  0  0  0  0  0  0
   54.0290   23.5710   45.3250 C   0  0  0  0  0  0  0  0  0  0  0  0
   53.9210   24.9310   45.6430 C   0  0  0  0  0  0  0  0  0  0  0  0
   52.9312   25.3767   45.8208 H   0  0  0  0  0  0  0  0  0  0  0  0
   55.0370   25.7000   45.7320 N   0  0  0  0  0  0  0  0  0  0  0  0
   56.2830   25.1900   45.5150 C   0  0  0  0  0  0  0  0  0  0  0  0
   57.4840   26.0710   45.6950 C   0  0  0  0  0  0  0  0  0  0  0  0
   58.2925   25.4853   46.1568 H   0  0  0  0  0  0  0  0  0  0  0  0
   57.2016   26.9174   46.3384 H   0  0  0  0  0  0  0  0  0  0  0  0
   58.0670   26.7320   44.0910 S   0  0  0  0  0  0  0  0  0  0  0  0
   57.8440   28.4540   44.5400 C   0  0  0  0  0  0  0  0  0  0  0  0
   56.5480   29.4130   44.0670 S   0  0  0  0  0  0  0  0  0  0  0  0
   57.1750   30.7880   44.8250 C   0  0  0  0  0  0  0  0  0  0  0  0
   56.6470   31.9770   44.8490 N   0  0  0  0  0  0  0  0  0  0  0  0
   57.2150   33.2270   45.2830 C   0  0  0  0  0  0  0  0  0  0  0  0
   56.6970   33.8050   46.2770 O   0  0  0  0  0  0  0  0  0  0  0  0
   58.4250   33.8480   44.6470 C   0  0  0  0  0  0  0  0  0  0  0  0
   59.1113   34.2002   45.4311 H   0  0  0  0  0  0  0  0  0  0  0  0
   58.9352   33.1003   44.0220 H   0  0  0  0  0  0  0  0  0  0  0  0
   58.1150   34.6984   44.0220 H   0  0  0  0  0  0  0  0  0  0  0  0
   58.3400   30.5180   45.4560 N   0  0  0  0  0  0  0  0  0  0  0  0
   58.7170   29.2210   45.2980 C   0  0  0  0  0  0  0  0  0  0  0  0
   59.6398   28.8128   45.7359 H   0  0  0  0  0  0  0  0  0  0  0  0
   56.4330   23.8340   45.1850 C   0  0  0  0  0  0  0  0  0  0  0  0
   57.4328   23.4147   44.9991 H   0  0  0  0  0  0  0  0  0  0  0  0
   55.2990   23.0220   45.0950 C   0  0  0  0  0  0  0  0  0  0  0  0
   55.4260   21.7990   44.8160 O   0  0  0  0  0  0  0  0  0  0  0  0
  1  2  1  0
  2  3  1  0
  3  4  2  0
  4  5  1  0
  4  6  1  0
  6  7  1  0
  7  8  1  0
  8  9  1  0
  8 10  1  0
  8 11  1  0
 11 12  1  0
 12 13  1  0
 13 14  1  0
 14 15  2  0
 15 16  1  0
 16 17  2  0
 16 18  1  0
 18 19  1  0
 18 20  1  0
 18 21  1  0
 14 22  1  0
 22 23  1  0
 23 24  1  0
  7 25  2  0
 25 26  1  0
 25 27  1  0
 27 28  2  0
 27  3  1  0
 23 12  2  0
M  CHG  2   6  -1  22  -1
M  END
>  <UniqueID>  (51) 
47

>  <SMILES>  (51) 
CC(=O)/N=c1/[n-]cc(SCc2cc(=O)c(O)c[n-]2)s1

>  <Energy>  (51) 
58.9168013928933

>  <Genealogy>  (51) 
CC(=O)N=c1[n-]cc(SCc2cc(=O)c(O)c[n-]2)s1 (protonated)
CC(=O)/N=c1/[n-]cc(SCc2cc(=O)c(O)c[n-]2)s1 (cis-trans isomerization)
CC(=O)/N=c1/[n-]cc(SCc2cc(=O)c(O)c[n-]2)s1 (3D coordinates assigned)
CC(=O)/N=c1/[n-]cc(SCc2cc(=O)c(O)c[n-]2)s1 (optimized conformer: 58.9168013928933 kcal/mol)

>  <smiles>  (51) 
CC(=O)N=c1[nH]cc(SCc2cc(=O)c(O)c[nH]2)s1

>  <score_type>  (51) 
oracle

>  <origin>  (51) 
adg

>  <m_score__min__energy>  (51) 
-10.27

>  <m_primary>  (51) 
energy

$$$$
51:0
     RDKit          3D

 50 53  0  0  0  0  0  0  0  0999 V2000
   59.2340   32.6510   49.7280 C   0  0  0  0  0  0  0  0  0  0  0  0
   59.3680   33.8740   49.0140 O   0  0  0  0  0  0  0  0  0  0  0  0
   59.0790   34.0330   47.6510 C   0  0  0  0  0  0  0  0  0  0  0  0
   59.7930   34.9230   46.8290 C   0  0  0  0  0  0  0  0  0  0  0  0
   59.4770   35.0310   45.4730 C   0  0  0  0  0  0  0  0  0  0  0  0
   58.4490   34.2630   44.9250 C   0  0  0  0  0  0  0  0  0  0  0  0
   57.7110   33.3880   45.7410 C   0  0  0  0  0  0  0  0  0  0  0  0
   56.6730   32.5460   45.2170 N   0  0  0  0  0  0  0  0  0  0  0  0
   56.8200   31.4870   44.2610 C   0  0  0  0  0  0  0  0  0  0  0  0
   57.2790   31.7190   43.1130 O   0  0  0  0  0  0  0  0  0  0  0  0
   56.4570   30.1460   44.6050 N   0  0  0  0  0  0  0  0  0  0  0  0
   57.3610   29.1230   45.0430 C   0  0  0  0  0  0  0  0  0  0  0  0
   57.7770   29.1130   46.3800 C   0  0  0  0  0  0  0  0  0  0  0  0
   58.6770   28.1440   46.8340 C   0  0  0  0  0  0  0  0  0  0  0  0
   59.1940   27.1900   45.9450 C   0  0  0  0  0  0  0  0  0  0  0  0
   60.3660   25.9920   46.4890 S   0  0  0  0  0  0  0  0  0  0  0  0
   61.7480   26.3240   45.9980 O   0  0  0  0  0  0  0  0  0  0  0  0
   60.3810   25.9790   47.9910 O   0  0  0  0  0  0  0  0  0  0  0  0
   59.9090   24.4230   45.9110 N   0  0  0  0  0  0  0  0  0  0  0  0
   58.5650   23.9630   45.7290 C   0  0  0  0  0  0  0  0  0  0  0  0
   58.3530   22.6050   45.4660 C   0  0  0  0  0  0  0  0  0  0  0  0
   57.0620   22.1030   45.2950 C   0  0  0  0  0  0  0  0  0  0  0  0
   55.9560   22.9600   45.3900 C   0  0  0  0  0  0  0  0  0  0  0  0
   54.6570   22.4680   45.2110 C   0  0  0  0  0  0  0  0  0  0  0  0
   53.5730   23.3410   45.3130 C   0  0  0  0  0  0  0  0  0  0  0  0
   52.2820   22.8620   45.1240 O   0  0  0  0  0  0  0  0  0  0  0  0
   53.7790   24.6530   45.6000 N   0  0  0  0  0  0  0  0  0  0  0  0
   55.0230   25.1690   45.7840 C   0  0  0  0  0  0  0  0  0  0  0  0
   55.1490   26.3920   46.0520 O   0  0  0  0  0  0  0  0  0  0  0  0
   56.1530   24.3320   45.6710 C   0  0  0  0  0  0  0  0  0  0  0  0
   57.4590   24.8260   45.8320 C   0  0  0  0  0  0  0  0  0  0  0  0
   58.7950   27.2090   44.6040 C   0  0  0  0  0  0  0  0  0  0  0  0
   57.8840   28.1690   44.1520 C   0  0  0  0  0  0  0  0  0  0  0  0
   58.0460   33.2700   47.0960 C   0  0  0  0  0  0  0  0  0  0  0  0
   59.2562   32.8532   50.8090 H   0  0  0  0  0  0  0  0  0  0  0  0
   58.2783   32.1748   49.4636 H   0  0  0  0  0  0  0  0  0  0  0  0
   60.0639   31.9792   49.4636 H   0  0  0  0  0  0  0  0  0  0  0  0
   60.6017   35.5351   47.2548 H   0  0  0  0  0  0  0  0  0  0  0  0
   60.0416   35.7253   44.8334 H   0  0  0  0  0  0  0  0  0  0  0  0
   58.2157   34.3423   43.8529 H   0  0  0  0  0  0  0  0  0  0  0  0
   57.3934   29.8722   47.0775 H   0  0  0  0  0  0  0  0  0  0  0  0
   58.9805   28.1297   47.8912 H   0  0  0  0  0  0  0  0  0  0  0  0
   59.2144   21.9248   45.3931 H   0  0  0  0  0  0  0  0  0  0  0  0
   56.9118   21.0336   45.0854 H   0  0  0  0  0  0  0  0  0  0  0  0
   54.4926   21.4027   44.9919 H   0  0  0  0  0  0  0  0  0  0  0  0
   51.5490   23.0720   45.7900 H   0  0  0  0  0  0  0  0  0  0  0  0
   57.6172   25.8945   46.0399 H   0  0  0  0  0  0  0  0  0  0  0  0
   59.1998   26.4652   43.9019 H   0  0  0  0  0  0  0  0  0  0  0  0
   57.5756   28.1779   43.0962 H   0  0  0  0  0  0  0  0  0  0  0  0
   57.4888   32.5672   47.7329 H   0  0  0  0  0  0  0  0  0  0  0  0
  1  2  1  0
  2  3  1  0
  3  4  2  0
  4  5  1  0
  5  6  2  0
  6  7  1  0
  7  8  1  0
  8  9  1  0
  9 10  2  0
  9 11  1  0
 11 12  1  0
 12 13  2  0
 13 14  1  0
 14 15  2  0
 15 16  1  0
 16 17  2  0
 16 18  2  0
 16 19  1  0
 19 20  1  0
 20 21  2  0
 21 22  1  0
 22 23  2  0
 23 24  1  0
 24 25  2  0
 25 26  1  0
 25 27  1  0
 27 28  1  0
 28 29  2  0
 28 30  1  0
 30 31  2  0
 15 32  1  0
 32 33  2  0
  7 34  2  0
 34  3  1  0
 33 12  1  0
 31 20  1  0
 30 23  1  0
  1 35  1  0
  1 36  1  0
  1 37  1  0
  4 38  1  0
  5 39  1  0
  6 40  1  0
 13 41  1  0
 14 42  1  0
 21 43  1  0
 22 44  1  0
 24 45  1  0
 26 46  1  0
 31 47  1  0
 32 48  1  0
 33 49  1  0
 34 50  1  0
M  CHG  4   8  -1  11  -1  19  -1  27  -1
M  END
>  <UniqueID>  (52) 
48

>  <SMILES>  (52) 
COc1cccc([N-]C(=O)[N-]c2ccc(S(=O)(=O)[N-]c3ccc4cc(O)[n-]c(=O)c4c3)cc2)c1

>  <Energy>  (52) 
68.82525920492724

>  <Genealogy>  (52) 
COc1cccc([N-]C(=O)[N-]c2ccc(S(=O)(=O)[N-]c3ccc4cc(O)[n-]c(=O)c4c3)cc2)c1 (protonated)
COc1cccc([N-]C(=O)[N-]c2ccc(S(=O)(=O)[N-]c3ccc4cc(O)[n-]c(=O)c4c3)cc2)c1 (3D coordinates assigned)
COc1cccc([N-]C(=O)[N-]c2ccc(S(=O)(=O)[N-]c3ccc4cc(O)[n-]c(=O)c4c3)cc2)c1 (optimized conformer: 68.82525920492724 kcal/mol)

>  <smiles>  (52) 
COc1cccc(NC(=O)Nc2ccc(S(=O)(=O)Nc3ccc4cc(O)[nH]c(=O)c4c3)cc2)c1

>  <score_type>  (52) 
oracle

>  <origin>  (52) 
adg

>  <m_score__min__energy>  (52) 
-14.550000000000001

>  <m_primary>  (52) 
energy

$$$$
52:0
     RDKit          3D

 50 53  0  0  0  0  0  0  0  0999 V2000
   59.6440   28.1190   47.6450 C   0  0  0  0  0  0  0  0  0  0  0  0
   59.0510   28.9140   46.7420 C   0  0  0  0  0  0  0  0  0  0  0  0
   58.1200   28.5330   45.7620 C   0  0  0  0  0  0  0  0  0  0  0  0
   57.7540   27.3160   45.3160 C   0  0  0  0  0  0  0  0  0  0  0  0
   57.2420   26.2150   46.1490 C   0  0  0  0  0  0  0  0  0  0  0  0
   57.9930   25.2160   46.6470 N   0  0  0  0  0  0  0  0  0  0  0  0
   57.0830   24.3930   47.2110 C   0  0  0  0  0  0  0  0  0  0  0  0
   57.4040   23.3310   47.8050 O   0  0  0  0  0  0  0  0  0  0  0  0
   55.7990   24.7920   47.0790 N   0  0  0  0  0  0  0  0  0  0  0  0
   55.9190   25.9400   46.3920 C   0  0  0  0  0  0  0  0  0  0  0  0
   54.8390   26.7160   45.9890 O   0  0  0  0  0  0  0  0  0  0  0  0
   57.5860   29.7070   45.2560 C   0  0  0  0  0  0  0  0  0  0  0  0
   58.2510   30.7470   45.8730 C   0  0  0  0  0  0  0  0  0  0  0  0
   57.9960   32.1980   45.6000 C   0  0  0  0  0  0  0  0  0  0  0  0
   59.1390   30.2690   46.7730 N   0  0  0  0  0  0  0  0  0  0  0  0
   59.9820   31.0650   47.6270 C   0  0  0  0  0  0  0  0  0  0  0  0
   59.7850   31.0520   49.0110 C   0  0  0  0  0  0  0  0  0  0  0  0
   60.6070   31.8090   49.8450 C   0  0  0  0  0  0  0  0  0  0  0  0
   61.6350   32.5990   49.3070 C   0  0  0  0  0  0  0  0  0  0  0  0
   62.4940   33.3570   50.2380 C   0  0  0  0  0  0  0  0  0  0  0  0
   61.9890   34.2960   50.9100 O   0  0  0  0  0  0  0  0  0  0  0  0
   63.8900   33.0410   50.3860 N   0  0  0  0  0  0  0  0  0  0  0  0
   64.7780   33.7880   51.2570 C   0  0  0  0  0  0  0  0  0  0  0  0
   66.0550   32.9620   51.3500 C   0  0  0  0  0  0  0  0  0  0  0  0
   65.9920   31.9580   50.2030 C   0  0  0  0  0  0  0  0  0  0  0  0
   64.5270   31.8740   49.7980 C   0  0  0  0  0  0  0  0  0  0  0  0
   61.8340   32.6370   47.9030 C   0  0  0  0  0  0  0  0  0  0  0  0
   62.9310   33.4810   47.2840 C   0  0  0  0  0  0  0  0  0  0  0  0
   62.5620   33.8860   46.0130 F   0  0  0  0  0  0  0  0  0  0  0  0
   63.1530   34.5960   48.0710 F   0  0  0  0  0  0  0  0  0  0  0  0
   64.1180   32.7770   47.1770 F   0  0  0  0  0  0  0  0  0  0  0  0
   61.0050   31.8500   47.0800 C   0  0  0  0  0  0  0  0  0  0  0  0
   60.3605   28.5425   48.3642 H   0  0  0  0  0  0  0  0  0  0  0  0
   59.4138   27.0436   47.6663 H   0  0  0  0  0  0  0  0  0  0  0  0
   57.8455   27.1283   44.2360 H   0  0  0  0  0  0  0  0  0  0  0  0
   56.7856   29.7935   44.5064 H   0  0  0  0  0  0  0  0  0  0  0  0
   57.9009   32.7392   46.5529 H   0  0  0  0  0  0  0  0  0  0  0  0
   58.8345   32.6155   45.0233 H   0  0  0  0  0  0  0  0  0  0  0  0
   57.0654   32.3046   45.0233 H   0  0  0  0  0  0  0  0  0  0  0  0
   58.9783   30.4421   49.4438 H   0  0  0  0  0  0  0  0  0  0  0  0
   60.4486   31.7869   50.9333 H   0  0  0  0  0  0  0  0  0  0  0  0
   64.9920   34.7782   50.8285 H   0  0  0  0  0  0  0  0  0  0  0  0
   64.3295   33.9551   52.2474 H   0  0  0  0  0  0  0  0  0  0  0  0
   66.9376   33.6097   51.2427 H   0  0  0  0  0  0  0  0  0  0  0  0
   66.1374   32.4564   52.3234 H   0  0  0  0  0  0  0  0  0  0  0  0
   66.6030   32.3056   49.3569 H   0  0  0  0  0  0  0  0  0  0  0  0
   66.3829   30.9755   50.5060 H   0  0  0  0  0  0  0  0  0  0  0  0
   64.4299   31.8949   48.7025 H   0  0  0  0  0  0  0  0  0  0  0  0
   64.0623   30.9392   50.1448 H   0  0  0  0  0  0  0  0  0  0  0  0
   61.1633   31.8519   45.9915 H   0  0  0  0  0  0  0  0  0  0  0  0
  1  2  2  0
  2  3  1  0
  3  4  2  3
  4  5  1  0
  5  6  1  0
  6  7  1  0
  7  8  2  0
  7  9  1  0
  9 10  1  0
 10 11  1  0
  3 12  1  0
 12 13  2  0
 13 14  1  0
 13 15  1  0
 15 16  1  0
 16 17  2  0
 17 18  1  0
 18 19  2  0
 19 20  1  0
 20 21  2  0
 20 22  1  0
 22 23  1  0
 23 24  1  0
 24 25  1  0
 25 26  1  0
 19 27  1  0
 27 28  1  0
 28 29  1  0
 28 30  1  0
 28 31  1  0
 27 32  2  0
 15  2  1  0
 32 16  1  0
 10  5  2  0
 26 22  1  0
  1 33  1  0
  1 34  1  0
  4 35  1  0
 12 36  1  0
 14 37  1  0
 14 38  1  0
 14 39  1  0
 17 40  1  0
 18 41  1  0
 23 42  1  0
 23 43  1  0
 24 44  1  0
 24 45  1  0
 25 46  1  0
 25 47  1  0
 26 48  1  0
 26 49  1  0
 32 50  1  0
M  CHG  3   6  -1   9  -1  11  -1
M  END
>  <UniqueID>  (53) 
49

>  <SMILES>  (53) 
C=c1c(=Cc2[n-]c(=O)[n-]c2[O-])cc(C)n1-c1ccc(C(=O)N2CCCC2)c(C(F)(F)F)c1

>  <Energy>  (53) 
135.09565425789665

>  <Genealogy>  (53) 
C=c1c(=Cc2[n-]c(=O)[n-]c2[O-])cc(C)n1-c1ccc(C(=O)N2CCCC2)c(C(F)(F)F)c1 (protonated)
C=c1c(=Cc2[n-]c(=O)[n-]c2[O-])cc(C)n1-c1ccc(C(=O)N2CCCC2)c(C(F)(F)F)c1 (3D coordinates assigned)
C=c1c(=Cc2[n-]c(=O)[n-]c2[O-])cc(C)n1-c1ccc(C(=O)N2CCCC2)c(C(F)(F)F)c1 (nonaromatic ring conformer: 135.09565425789665 kcal/mol)

>  <smiles>  (53) 
C=c1c(=Cc2[nH]c(=O)[nH]c2O)cc(C)n1-c1ccc(C(=O)N2CCCC2)c(C(F)(F)F)c1

>  <score_type>  (53) 
oracle

>  <origin>  (53) 
adg

>  <m_score__min__energy>  (53) 
-15.76

>  <m_primary>  (53) 
energy

$$$$
53:0
     RDKit          3D

 32 33  0  0  0  0  0  0  0  0999 V2000
   53.2520   23.1850   44.8100 O   0  0  0  0  0  0  0  0  0  0  0  0
   54.2140   23.7140   44.1920 C   0  0  0  0  0  0  0  0  0  0  0  0
   55.6180   23.5440   44.6400 C   0  0  0  0  0  0  0  0  0  0  0  0
   56.4330   22.5920   43.9990 C   0  0  0  0  0  0  0  0  0  0  0  0
   55.9340   21.8110   42.9610 O   0  0  0  0  0  0  0  0  0  0  0  0
   57.7560   22.4120   44.4010 C   0  0  0  0  0  0  0  0  0  0  0  0
   58.2980   23.1800   45.4310 C   0  0  0  0  0  0  0  0  0  0  0  0
   59.6060   22.9350   45.8320 O   0  0  0  0  0  0  0  0  0  0  0  0
   57.5160   24.1660   46.0630 C   0  0  0  0  0  0  0  0  0  0  0  0
   58.0970   25.0570   47.0980 C   0  0  0  0  0  0  0  0  0  0  0  0
   57.4950   25.1970   48.1980 O   0  0  0  0  0  0  0  0  0  0  0  0
   59.3300   25.8850   46.8320 C   0  0  0  0  0  0  0  0  0  0  0  0
   59.3490   26.4550   45.4040 C   0  0  0  0  0  0  0  0  0  0  0  0
   58.6070   27.7650   45.3020 C   0  0  0  0  0  0  0  0  0  0  0  0
   59.3110   28.9810   45.2870 C   0  0  0  0  0  0  0  0  0  0  0  0
   58.6300   30.1900   45.1200 C   0  0  0  0  0  0  0  0  0  0  0  0
   57.2400   30.1980   44.9730 C   0  0  0  0  0  0  0  0  0  0  0  0
   56.5700   31.4030   44.7970 O   0  0  0  0  0  0  0  0  0  0  0  0
   56.5270   28.9940   45.0040 C   0  0  0  0  0  0  0  0  0  0  0  0
   55.1450   28.9960   44.8580 O   0  0  0  0  0  0  0  0  0  0  0  0
   57.2070   27.7830   45.1740 C   0  0  0  0  0  0  0  0  0  0  0  0
   56.1660   24.3260   45.6830 C   0  0  0  0  0  0  0  0  0  0  0  0
   55.3850   25.2830   46.3280 O   0  0  0  0  0  0  0  0  0  0  0  0
   54.0074   24.3181   43.2963 H   0  0  0  0  0  0  0  0  0  0  0  0
   58.3788   21.6561   43.9003 H   0  0  0  0  0  0  0  0  0  0  0  0
   59.3571   26.7202   47.5473 H   0  0  0  0  0  0  0  0  0  0  0  0
   60.2073   25.2314   46.9468 H   0  0  0  0  0  0  0  0  0  0  0  0
   60.3941   26.6156   45.1008 H   0  0  0  0  0  0  0  0  0  0  0  0
   58.8471   25.7310   44.7453 H   0  0  0  0  0  0  0  0  0  0  0  0
   60.4044   28.9814   45.4074 H   0  0  0  0  0  0  0  0  0  0  0  0
   59.1891   31.1372   45.1042 H   0  0  0  0  0  0  0  0  0  0  0  0
   56.6428   26.8393   45.2077 H   0  0  0  0  0  0  0  0  0  0  0  0
  1  2  2  0
  2  3  1  0
  3  4  2  0
  4  5  1  0
  4  6  1  0
  6  7  2  0
  7  8  1  0
  7  9  1  0
  9 10  1  0
 10 11  2  0
 10 12  1  0
 12 13  1  0
 13 14  1  0
 14 15  2  0
 15 16  1  0
 16 17  2  0
 17 18  1  0
 17 19  1  0
 19 20  1  0
 19 21  2  0
  9 22  2  0
 22 23  1  0
 22  3  1  0
 21 14  1  0
  2 24  1  0
  6 25  1  0
 12 26  1  0
 12 27  1  0
 13 28  1  0
 13 29  1  0
 15 30  1  0
 16 31  1  0
 21 32  1  0
M  CHG  5   5  -1   8  -1  18  -1  20  -1  23  -1
M  END
>  <UniqueID>  (54) 
50

>  <SMILES>  (54) 
O=Cc1c([O-])cc([O-])c(C(=O)CCc2ccc([O-])c([O-])c2)c1[O-]

>  <Energy>  (54) 
37.08019094439124

>  <Genealogy>  (54) 
O=Cc1c([O-])cc([O-])c(C(=O)CCc2ccc([O-])c([O-])c2)c1[O-] (protonated)
O=Cc1c([O-])cc([O-])c(C(=O)CCc2ccc([O-])c([O-])c2)c1[O-] (3D coordinates assigned)
O=Cc1c([O-])cc([O-])c(C(=O)CCc2ccc([O-])c([O-])c2)c1[O-] (optimized conformer: 37.08019094439124 kcal/mol)

>  <smiles>  (54) 
O=Cc1c(O)cc(O)c(C(=O)CCc2ccc(O)c(O)c2)c1O

>  <score_type>  (54) 
oracle

>  <origin>  (54) 
adg

>  <m_score__min__energy>  (54) 
-18.449999999999999

>  <m_primary>  (54) 
energy

$$$$
54:0
     RDKit          3D

 51 54  0  0  0  0  0  0  0  0999 V2000
   56.1130   20.7200   43.1410 O   0  0  0  0  0  0  0  0  0  0  0  0
   56.2850   21.9620   43.2700 C   0  0  0  0  0  0  0  0  0  0  0  0
   55.3980   22.8340   42.6490 O   0  0  0  0  0  0  0  0  0  0  0  0
   57.4140   22.4850   44.0710 C   0  0  0  0  0  0  0  0  0  0  0  0
   58.5970   21.7380   44.1990 C   0  0  0  0  0  0  0  0  0  0  0  0
   59.6640   22.2260   44.9570 C   0  0  0  0  0  0  0  0  0  0  0  0
   59.5640   23.4640   45.5930 C   0  0  0  0  0  0  0  0  0  0  0  0
   58.3930   24.2280   45.4750 C   0  0  0  0  0  0  0  0  0  0  0  0
   58.2680   25.5480   46.1860 C   0  0  0  0  0  0  0  0  0  0  0  0
   56.5300   26.1130   46.2170 S   0  0  0  0  0  0  0  0  0  0  0  0
   56.8760   27.7010   45.4670 C   0  0  0  0  0  0  0  0  0  0  0  0
   55.8710   28.5850   45.2460 N   0  0  0  0  0  0  0  0  0  0  0  0
   56.1210   29.7850   44.6660 C   0  0  0  0  0  0  0  0  0  0  0  0
   55.1750   30.5930   44.4720 O   0  0  0  0  0  0  0  0  0  0  0  0
   57.4350   30.1050   44.2880 C   0  0  0  0  0  0  0  0  0  0  0  0
   57.7930   31.4290   43.6720 C   0  0  0  0  0  0  0  0  0  0  0  0
   58.3100   32.3700   44.7250 C   0  0  0  0  0  0  0  0  0  0  0  0
   58.6850   31.8890   45.9880 C   0  0  0  0  0  0  0  0  0  0  0  0
   59.1340   32.7750   46.9690 C   0  0  0  0  0  0  0  0  0  0  0  0
   59.2000   34.1410   46.6840 C   0  0  0  0  0  0  0  0  0  0  0  0
   59.6540   35.0270   47.6670 O   0  0  0  0  0  0  0  0  0  0  0  0
   60.1960   34.6060   48.9170 C   0  0  0  0  0  0  0  0  0  0  0  0
   61.5640   34.0100   48.7230 C   0  0  0  0  0  0  0  0  0  0  0  0
   62.1100   33.9150   47.4330 C   0  0  0  0  0  0  0  0  0  0  0  0
   63.3880   33.3800   47.2460 C   0  0  0  0  0  0  0  0  0  0  0  0
   64.1310   32.9410   48.3450 C   0  0  0  0  0  0  0  0  0  0  0  0
   63.5960   33.0350   49.6340 C   0  0  0  0  0  0  0  0  0  0  0  0
   62.3180   33.5690   49.8240 C   0  0  0  0  0  0  0  0  0  0  0  0
   58.8190   34.5930   45.4550 N   0  0  0  0  0  0  0  0  0  0  0  0
   58.3800   33.7500   44.4840 C   0  0  0  0  0  0  0  0  0  0  0  0
   58.4170   29.2010   44.5430 N   0  0  0  0  0  0  0  0  0  0  0  0
   58.1460   28.0270   45.1160 N   0  0  0  0  0  0  0  0  0  0  0  0
   57.3200   23.7320   44.7150 C   0  0  0  0  0  0  0  0  0  0  0  0
   58.6836   20.7621   43.6989 H   0  0  0  0  0  0  0  0  0  0  0  0
   60.5854   21.6329   45.0528 H   0  0  0  0  0  0  0  0  0  0  0  0
   60.4070   23.8427   46.1896 H   0  0  0  0  0  0  0  0  0  0  0  0
   58.6282   25.4356   47.2192 H   0  0  0  0  0  0  0  0  0  0  0  0
   58.8698   26.2947   45.6473 H   0  0  0  0  0  0  0  0  0  0  0  0
   58.5700   31.2761   42.9085 H   0  0  0  0  0  0  0  0  0  0  0  0
   56.8941   31.8650   43.2117 H   0  0  0  0  0  0  0  0  0  0  0  0
   58.6253   30.8124   46.2058 H   0  0  0  0  0  0  0  0  0  0  0  0
   59.4335   32.4003   47.9589 H   0  0  0  0  0  0  0  0  0  0  0  0
   60.2707   35.4730   49.5898 H   0  0  0  0  0  0  0  0  0  0  0  0
   59.5340   33.8438   49.3537 H   0  0  0  0  0  0  0  0  0  0  0  0
   61.5297   34.2630   46.5657 H   0  0  0  0  0  0  0  0  0  0  0  0
   63.8091   33.3046   46.2326 H   0  0  0  0  0  0  0  0  0  0  0  0
   65.1369   32.5214   48.1964 H   0  0  0  0  0  0  0  0  0  0  0  0
   64.1811   32.6886   50.4986 H   0  0  0  0  0  0  0  0  0  0  0  0
   61.9010   33.6443   50.8391 H   0  0  0  0  0  0  0  0  0  0  0  0
   58.0784   34.1513   43.5052 H   0  0  0  0  0  0  0  0  0  0  0  0
   56.3978   24.3246   44.6229 H   0  0  0  0  0  0  0  0  0  0  0  0
  1  2  2  0
  2  3  1  0
  2  4  1  0
  4  5  2  0
  5  6  1  0
  6  7  2  0
  7  8  1  0
  8  9  1  0
  9 10  1  0
 10 11  1  0
 11 12  2  0
 12 13  1  0
 13 14  2  0
 13 15  1  0
 15 16  1  0
 16 17  1  0
 17 18  2  0
 18 19  1  0
 19 20  2  0
 20 21  1  0
 21 22  1  0
 22 23  1  0
 23 24  2  0
 24 25  1  0
 25 26  2  0
 26 27  1  0
 27 28  2  0
 20 29  1  0
 29 30  2  0
 15 31  2  0
 31 32  1  0
  8 33  2  0
 33  4  1  0
 32 11  1  0
 30 17  1  0
 28 23  1  0
  5 34  1  0
  6 35  1  0
  7 36  1  0
  9 37  1  0
  9 38  1  0
 16 39  1  0
 16 40  1  0
 18 41  1  0
 19 42  1  0
 22 43  1  0
 22 44  1  0
 24 45  1  0
 25 46  1  0
 26 47  1  0
 27 48  1  0
 28 49  1  0
 30 50  1  0
 33 51  1  0
M  CHG  2   3  -1  32  -1
M  END
>  <UniqueID>  (55) 
51

>  <SMILES>  (55) 
O=C([O-])c1cccc(CSc2nc(=O)c(Cc3ccc(OCc4ccccc4)nc3)n[n-]2)c1

>  <Energy>  (55) 
51.77977869177461

>  <Genealogy>  (55) 
O=C([O-])c1cccc(CSc2nc(=O)c(Cc3ccc(OCc4ccccc4)nc3)n[n-]2)c1 (protonated)
O=C([O-])c1cccc(CSc2nc(=O)c(Cc3ccc(OCc4ccccc4)nc3)n[n-]2)c1 (3D coordinates assigned)
O=C([O-])c1cccc(CSc2nc(=O)c(Cc3ccc(OCc4ccccc4)nc3)n[n-]2)c1 (optimized conformer: 51.77977869177461 kcal/mol)

>  <smiles>  (55) 
O=C(O)c1cccc(CSc2nc(=O)c(Cc3ccc(OCc4ccccc4)nc3)n[nH]2)c1

>  <score_type>  (55) 
oracle

>  <origin>  (55) 
adg

>  <m_score__min__energy>  (55) 
-13.289999999999999

>  <m_primary>  (55) 
energy

$$$$
55:0
     RDKit          3D

 61 65  0  0  0  0  0  0  0  0999 V2000
   60.7835   28.1016   50.6155 H   0  0  0  0  0  0  0  0  0  0  0  0
   60.2000   29.0020   50.3730 C   0  0  0  0  0  0  0  0  0  0  0  0
   60.5810   29.7190   49.1340 C   0  0  0  0  0  0  0  0  0  0  0  0
   61.4540   30.8240   49.2000 C   0  0  0  0  0  0  0  0  0  0  0  0
   61.8070   31.1816   50.1785 H   0  0  0  0  0  0  0  0  0  0  0  0
   61.8750   31.4690   48.0350 C   0  0  0  0  0  0  0  0  0  0  0  0
   62.9300   32.8670   48.1370 Cl  0  0  0  0  0  0  0  0  0  0  0  0
   61.4710   30.9900   46.7890 C   0  0  0  0  0  0  0  0  0  0  0  0
   61.7903   31.5065   45.8718 H   0  0  0  0  0  0  0  0  0  0  0  0
   60.6620   29.8560   46.7050 C   0  0  0  0  0  0  0  0  0  0  0  0
   60.3692   29.4678   45.7183 H   0  0  0  0  0  0  0  0  0  0  0  0
   60.2190   29.2070   47.8650 C   0  0  0  0  0  0  0  0  0  0  0  0
   59.5020   28.0140   47.7100 O   0  0  0  0  0  0  0  0  0  0  0  0
   58.3180   27.8590   46.9820 C   0  0  0  0  0  0  0  0  0  0  0  0
   57.8650   28.9040   46.2470 N   0  0  0  0  0  0  0  0  0  0  0  0
   56.6980   28.8110   45.5580 C   0  0  0  0  0  0  0  0  0  0  0  0
   56.2540   29.8080   44.8520 N   0  0  0  0  0  0  0  0  0  0  0  0
   57.0840   30.6720   44.0130 C   0  0  0  0  0  0  0  0  0  0  0  0
   57.9590   30.1046   43.6630 H   0  0  0  0  0  0  0  0  0  0  0  0
   56.4871   31.0151   43.1551 H   0  0  0  0  0  0  0  0  0  0  0  0
   57.5510   31.8720   44.7930 C   0  0  0  0  0  0  0  0  0  0  0  0
   57.7760   33.1020   44.1510 C   0  0  0  0  0  0  0  0  0  0  0  0
   57.5868   33.1991   43.0718 H   0  0  0  0  0  0  0  0  0  0  0  0
   58.2390   34.2020   44.8780 C   0  0  0  0  0  0  0  0  0  0  0  0
   58.4134   35.1618   44.3698 H   0  0  0  0  0  0  0  0  0  0  0  0
   58.4810   34.0850   46.2500 C   0  0  0  0  0  0  0  0  0  0  0  0
   58.8448   34.9521   46.8209 H   0  0  0  0  0  0  0  0  0  0  0  0
   58.2600   32.8640   46.8960 C   0  0  0  0  0  0  0  0  0  0  0  0
   58.4501   32.7717   47.9755 H   0  0  0  0  0  0  0  0  0  0  0  0
   57.7980   31.7610   46.1720 C   0  0  0  0  0  0  0  0  0  0  0  0
   57.6271   30.8024   46.6837 H   0  0  0  0  0  0  0  0  0  0  0  0
   55.9780   27.6640   45.6170 N   0  0  0  0  0  0  0  0  0  0  0  0
   56.4160   26.6120   46.3530 C   0  0  0  0  0  0  0  0  0  0  0  0
   55.6860   25.5400   46.4140 N   0  0  0  0  0  0  0  0  0  0  0  0
   55.1990   24.8010   45.2550 C   0  0  0  0  0  0  0  0  0  0  0  0
   54.2457   24.3124   45.5049 H   0  0  0  0  0  0  0  0  0  0  0  0
   55.0446   25.4939   44.4147 H   0  0  0  0  0  0  0  0  0  0  0  0
   56.2100   23.7600   44.8690 C   0  0  0  0  0  0  0  0  0  0  0  0
   57.4010   23.6230   45.6020 C   0  0  0  0  0  0  0  0  0  0  0  0
   57.5824   24.2624   46.4785 H   0  0  0  0  0  0  0  0  0  0  0  0
   58.3560   22.6760   45.2200 C   0  0  0  0  0  0  0  0  0  0  0  0
   59.2830   22.5655   45.8018 H   0  0  0  0  0  0  0  0  0  0  0  0
   58.1350   21.8700   44.1010 C   0  0  0  0  0  0  0  0  0  0  0  0
   58.8862   21.1233   43.8041 H   0  0  0  0  0  0  0  0  0  0  0  0
   56.9590   22.0120   43.3580 C   0  0  0  0  0  0  0  0  0  0  0  0
   56.7869   21.3787   42.4752 H   0  0  0  0  0  0  0  0  0  0  0  0
   56.0020   22.9580   43.7360 C   0  0  0  0  0  0  0  0  0  0  0  0
   55.0826   23.0744   43.1435 H   0  0  0  0  0  0  0  0  0  0  0  0
   57.5940   26.7080   47.0340 N   0  0  0  0  0  0  0  0  0  0  0  0
   59.2050   29.3340   51.2480 C   0  0  0  0  0  0  0  0  0  0  0  0
   58.1480   30.1590   50.7850 C   0  0  0  0  0  0  0  0  0  0  0  0
   58.1760   30.6710   49.6320 O   0  0  0  0  0  0  0  0  0  0  0  0
   57.0840   30.3860   51.5410 O   0  0  0  0  0  0  0  0  0  0  0  0
   56.9540   29.8780   52.7530 C   0  0  0  0  0  0  0  0  0  0  0  0
   55.9070   30.1100   53.4160 O   0  0  0  0  0  0  0  0  0  0  0  0
   57.9480   29.1320   53.2940 N   0  0  0  0  0  0  0  0  0  0  0  0
   57.8290   28.7900   54.2760 H   0  0  0  0  0  0  0  0  0  0  0  0
   59.1070   28.8960   52.6100 C   0  0  0  0  0  0  0  0  0  0  0  0
   60.1330   28.3620   53.2980 C   0  0  0  0  0  0  0  0  0  0  0  0
   61.0865   28.1540   52.7905 H   0  0  0  0  0  0  0  0  0  0  0  0
   60.0181   28.1336   54.3679 H   0  0  0  0  0  0  0  0  0  0  0  0
  1  2  1  0
  2  3  1  0
  3  4  2  0
  4  5  1  0
  4  6  1  0
  6  7  1  0
  6  8  2  0
  8  9  1  0
  8 10  1  0
 10 11  1  0
 10 12  2  0
 12 13  1  0
 13 14  1  0
 14 15  2  0
 15 16  1  0
 16 17  2  0
 17 18  1  0
 18 19  1  0
 18 20  1  0
 18 21  1  0
 21 22  2  0
 22 23  1  0
 22 24  1  0
 24 25  1  0
 24 26  2  0
 26 27  1  0
 26 28  1  0
 28 29  1  0
 28 30  2  0
 30 31  1  0
 16 32  1  0
 32 33  1  0
 33 34  2  3
 34 35  1  0
 35 36  1  0
 35 37  1  0
 35 38  1  0
 38 39  2  0
 39 40  1  0
 39 41  1  0
 41 42  1  0
 41 43  2  0
 43 44  1  0
 43 45  1  0
 45 46  1  0
 45 47  2  0
 47 48  1  0
 33 49  1  0
  2 50  2  3
 50 51  1  0
 51 52  2  0
 51 53  1  0
 53 54  1  0
 54 55  2  0
 54 56  1  0
 56 57  1  0
 56 58  1  0
 58 59  2  0
 59 60  1  0
 59 61  1  0
 12  3  1  0
 49 14  1  0
 58 50  1  0
 30 21  1  0
 47 38  1  0
M  CHG  2  32  -1  49  -1
M  END
>  <UniqueID>  (56) 
52

>  <SMILES>  (56) 
C=c1[nH]c(=O)oc(=O)c1=Cc1cc(Cl)ccc1Oc1n/c(=N\Cc2ccccc2)[n-]c(=NCc2ccccc2)[n-]1

>  <Energy>  (56) 
96.46416364547447

>  <Genealogy>  (56) 
C=c1[nH]c(=O)oc(=O)c1=Cc1cc(Cl)ccc1Oc1nc(=NCc2ccccc2)[n-]c(=NCc2ccccc2)[n-]1 (protonated)
C=c1[nH]c(=O)oc(=O)c1=Cc1cc(Cl)ccc1Oc1n/c(=N\Cc2ccccc2)[n-]c(=NCc2ccccc2)[n-]1 (cis-trans isomerization)
C=c1[nH]c(=O)oc(=O)c1=Cc1cc(Cl)ccc1Oc1n/c(=N\Cc2ccccc2)[n-]c(=NCc2ccccc2)[n-]1 (3D coordinates assigned)
C=c1[nH]c(=O)oc(=O)c1=Cc1cc(Cl)ccc1Oc1n/c(=N\Cc2ccccc2)[n-]c(=NCc2ccccc2)[n-]1 (optimized conformer: 96.46416364547447 kcal/mol)

>  <smiles>  (56) 
C=c1[nH]c(=O)oc(=O)c1=Cc1cc(Cl)ccc1Oc1nc(=NCc2ccccc2)[nH]c(=NCc2ccccc2)[nH]1

>  <score_type>  (56) 
oracle

>  <origin>  (56) 
adg

>  <m_score__min__energy>  (56) 
-13.74

>  <m_primary>  (56) 
energy

$$$$
56:0
     RDKit          3D

 28 29  0  0  0  0  0  0  0  0999 V2000
   58.7659   32.9740   42.9142 H   0  0  0  0  0  0  0  0  0  0  0  0
   58.0850   32.3580   43.5200 C   0  0  0  0  0  0  0  0  0  0  0  0
   57.7510   32.5440   44.8440 C   0  0  0  0  0  0  0  0  0  0  0  0
   58.3950   33.9470   45.9640 Br  0  0  0  0  0  0  0  0  0  0  0  0
   56.9100   31.6150   45.2320 O   0  0  0  0  0  0  0  0  0  0  0  0
   56.6770   30.8100   44.2200 C   0  0  0  0  0  0  0  0  0  0  0  0
   55.7480   29.6660   44.3150 C   0  0  0  0  0  0  0  0  0  0  0  0
   54.7320   29.6630   43.5730 O   0  0  0  0  0  0  0  0  0  0  0  0
   55.9150   28.5790   45.2380 N   0  0  0  0  0  0  0  0  0  0  0  0
   57.0130   27.6240   45.2630 C   0  0  0  0  0  0  0  0  0  0  0  0
   57.9667   28.1552   45.1281 H   0  0  0  0  0  0  0  0  0  0  0  0
   56.8881   26.8933   44.4503 H   0  0  0  0  0  0  0  0  0  0  0  0
   57.0150   26.9180   46.5800 C   0  0  0  0  0  0  0  0  0  0  0  0
   56.2350   25.9450   46.7600 O   0  0  0  0  0  0  0  0  0  0  0  0
   57.9470   27.3290   47.5930 N   0  0  0  0  0  0  0  0  0  0  0  0
   58.7590   28.3520   47.6050 C   0  0  0  0  0  0  0  0  0  0  0  0
   59.9880   28.3470   48.3000 C   0  0  0  0  0  0  0  0  0  0  0  0
   60.3037   27.4540   48.8594 H   0  0  0  0  0  0  0  0  0  0  0  0
   60.8000   29.4820   48.2730 C   0  0  0  0  0  0  0  0  0  0  0  0
   61.7621   29.4822   48.8063 H   0  0  0  0  0  0  0  0  0  0  0  0
   60.3930   30.6150   47.5710 C   0  0  0  0  0  0  0  0  0  0  0  0
   61.4940   32.1730   47.5280 Br  0  0  0  0  0  0  0  0  0  0  0  0
   59.1650   30.5990   46.9100 C   0  0  0  0  0  0  0  0  0  0  0  0
   58.8286   31.4890   46.3580 H   0  0  0  0  0  0  0  0  0  0  0  0
   58.3810   29.4870   46.9450 N   0  0  0  0  0  0  0  0  0  0  0  0
   57.4660   29.5100   46.4400 H   0  0  0  0  0  0  0  0  0  0  0  0
   57.3890   31.2400   43.1120 C   0  0  0  0  0  0  0  0  0  0  0  0
   57.3973   30.7829   42.1115 H   0  0  0  0  0  0  0  0  0  0  0  0
  1  2  1  0
  2  3  2  0
  3  4  1  0
  3  5  1  0
  5  6  1  0
  6  7  1  0
  7  8  2  0
  7  9  1  0
  9 10  1  0
 10 11  1  0
 10 12  1  0
 10 13  1  0
 13 14  2  0
 13 15  1  0
 15 16  2  0
 16 17  1  0
 17 18  1  0
 17 19  2  0
 19 20  1  0
 19 21  1  0
 21 22  1  0
 21 23  2  0
 23 24  1  0
 23 25  1  0
 25 26  1  0
  6 27  2  0
 27 28  1  0
 27  2  1  0
 25 16  1  0
M  CHG  1   9  -1
M  END
>  <UniqueID>  (57) 
53

>  <SMILES>  (57) 
O=C(C[N-]C(=O)c1ccc(Br)o1)/N=c1\ccc(Br)c[nH]1

>  <Energy>  (57) 
62.89169246245165

>  <Genealogy>  (57) 
O=C(C[N-]C(=O)c1ccc(Br)o1)N=c1ccc(Br)c[nH]1 (protonated)
O=C(C[N-]C(=O)c1ccc(Br)o1)/N=c1\ccc(Br)c[nH]1 (cis-trans isomerization)
O=C(C[N-]C(=O)c1ccc(Br)o1)/N=c1\ccc(Br)c[nH]1 (3D coordinates assigned)
O=C(C[N-]C(=O)c1ccc(Br)o1)/N=c1\ccc(Br)c[nH]1 (optimized conformer: 62.89169246245165 kcal/mol)

>  <smiles>  (57) 
O=C(CNC(=O)c1ccc(Br)o1)N=c1ccc(Br)c[nH]1

>  <score_type>  (57) 
oracle

>  <origin>  (57) 
adg

>  <m_score__min__energy>  (57) 
-9.0999999999999996

>  <m_primary>  (57) 
energy

$$$$
57:0
     RDKit          3D

 46 49  0  0  0  0  0  0  0  0999 V2000
   57.1590   29.1820   54.1480 H   0  0  0  0  0  0  0  0  0  0  0  0
   57.9660   29.1930   53.4890 N   0  0  0  0  0  0  0  0  0  0  0  0
   58.0530   29.9330   52.4270 C   0  0  0  0  0  0  0  0  0  0  0  0
   59.2680   30.0560   51.8300 N   0  0  0  0  0  0  0  0  0  0  0  0
   59.4800   30.8570   50.7550 C   0  0  0  0  0  0  0  0  0  0  0  0
   60.4796   30.9081   50.2987 H   0  0  0  0  0  0  0  0  0  0  0  0
   58.4310   31.6190   50.2240 C   0  0  0  0  0  0  0  0  0  0  0  0
   58.6530   32.5150   49.0600 C   0  0  0  0  0  0  0  0  0  0  0  0
   59.5860   33.5620   49.1330 C   0  0  0  0  0  0  0  0  0  0  0  0
   60.1559   33.7219   50.0601 H   0  0  0  0  0  0  0  0  0  0  0  0
   59.7950   34.4000   48.0390 C   0  0  0  0  0  0  0  0  0  0  0  0
   60.5287   35.2166   48.1089 H   0  0  0  0  0  0  0  0  0  0  0  0
   59.0790   34.2100   46.8540 C   0  0  0  0  0  0  0  0  0  0  0  0
   59.3090   35.0590   45.8210 F   0  0  0  0  0  0  0  0  0  0  0  0
   58.1380   33.1640   46.7520 C   0  0  0  0  0  0  0  0  0  0  0  0
   57.3570   32.9390   45.5060 C   0  0  0  0  0  0  0  0  0  0  0  0
   57.1090   33.9090   44.7390 O   0  0  0  0  0  0  0  0  0  0  0  0
   56.7840   31.6530   45.2280 N   0  0  0  0  0  0  0  0  0  0  0  0
   57.3540   30.4790   45.2370 C   0  0  0  0  0  0  0  0  0  0  0  0
   58.7150   30.4390   45.2050 N   0  0  0  0  0  0  0  0  0  0  0  0
   59.4170   29.2760   45.2210 C   0  0  0  0  0  0  0  0  0  0  0  0
   60.5165   29.2967   45.1961 H   0  0  0  0  0  0  0  0  0  0  0  0
   58.7440   28.0570   45.2690 C   0  0  0  0  0  0  0  0  0  0  0  0
   59.3060   27.1120   45.3018 H   0  0  0  0  0  0  0  0  0  0  0  0
   57.3510   28.0490   45.2750 C   0  0  0  0  0  0  0  0  0  0  0  0
   56.8089   27.0924   45.3074 H   0  0  0  0  0  0  0  0  0  0  0  0
   56.6390   29.2520   45.2400 C   0  0  0  0  0  0  0  0  0  0  0  0
   55.2530   29.1940   45.1550 O   0  0  0  0  0  0  0  0  0  0  0  0
   57.9330   32.3260   47.8660 C   0  0  0  0  0  0  0  0  0  0  0  0
   57.1978   31.5104   47.8012 H   0  0  0  0  0  0  0  0  0  0  0  0
   57.1620   31.5070   50.8120 C   0  0  0  0  0  0  0  0  0  0  0  0
   56.3246   32.0971   50.4113 H   0  0  0  0  0  0  0  0  0  0  0  0
   56.9460   30.6520   51.9050 C   0  0  0  0  0  0  0  0  0  0  0  0
   55.5660   30.5270   52.4270 C   0  0  0  0  0  0  0  0  0  0  0  0
   55.3220   30.7800   53.6380 O   0  0  0  0  0  0  0  0  0  0  0  0
   54.5110   30.1390   51.5290 N   0  0  0  0  0  0  0  0  0  0  0  0
   53.3970   30.7580   51.2470 C   0  0  0  0  0  0  0  0  0  0  0  0
   52.6150   30.2610   50.1960 C   0  0  0  0  0  0  0  0  0  0  0  0
   52.9483   29.3766   49.6332 H   0  0  0  0  0  0  0  0  0  0  0  0
   51.4130   30.8880   49.8630 C   0  0  0  0  0  0  0  0  0  0  0  0
   50.8052   30.5034   49.0307 H   0  0  0  0  0  0  0  0  0  0  0  0
   50.9930   31.9720   50.5650 N   0  0  0  0  0  0  0  0  0  0  0  0
   51.7150   32.4710   51.6010 C   0  0  0  0  0  0  0  0  0  0  0  0
   51.3459   33.3474   52.1538 H   0  0  0  0  0  0  0  0  0  0  0  0
   52.9250   31.8760   51.9680 C   0  0  0  0  0  0  0  0  0  0  0  0
   53.5054   32.2759   52.8125 H   0  0  0  0  0  0  0  0  0  0  0  0
  1  2  1  0
  2  3  2  3
  3  4  1  0
  4  5  1  0
  5  6  1  0
  5  7  2  0
  7  8  1  0
  8  9  2  0
  9 10  1  0
  9 11  1  0
 11 12  1  0
 11 13  2  0
 13 14  1  0
 13 15  1  0
 15 16  1  0
 16 17  2  0
 16 18  1  0
 18 19  2  0
 19 20  1  0
 20 21  1  0
 21 22  1  0
 21 23  2  0
 23 24  1  0
 23 25  1  0
 25 26  1  0
 25 27  2  0
 27 28  1  0
 15 29  2  0
 29 30  1  0
  7 31  1  0
 31 32  1  0
 31 33  2  0
 33 34  1  0
 34 35  2  0
 34 36  1  0
 36 37  2  3
 37 38  1  0
 38 39  1  0
 38 40  2  0
 40 41  1  0
 40 42  1  0
 42 43  1  0
 43 44  1  0
 43 45  2  0
 45 46  1  0
 33  3  1  0
 45 37  1  0
 29  8  1  0
 27 19  1  0
M  CHG  4   4  -1  20  -1  28  -1  42  -1
M  END
>  <UniqueID>  (58) 
54

>  <SMILES>  (58) 
N=c1[n-]cc(-c2ccc(F)c(C(=O)/N=c3/[n-]cccc3[O-])c2)cc1C(=O)N=c1cc[n-]cc1

>  <Energy>  (58) 
88.07017243519662

>  <Genealogy>  (58) 
N=c1[n-]cc(-c2ccc(F)c(C(=O)N=c3[n-]cccc3[O-])c2)cc1C(=O)N=c1cc[n-]cc1 (protonated)
N=c1[n-]cc(-c2ccc(F)c(C(=O)/N=c3/[n-]cccc3[O-])c2)cc1C(=O)N=c1cc[n-]cc1 (cis-trans isomerization)
N=c1[n-]cc(-c2ccc(F)c(C(=O)/N=c3/[n-]cccc3[O-])c2)cc1C(=O)N=c1cc[n-]cc1 (3D coordinates assigned)
N=c1[n-]cc(-c2ccc(F)c(C(=O)/N=c3/[n-]cccc3[O-])c2)cc1C(=O)N=c1cc[n-]cc1 (optimized conformer: 88.07017243519662 kcal/mol)

>  <smiles>  (58) 
N=c1[nH]cc(-c2ccc(F)c(C(=O)N=c3[nH]cccc3O)c2)cc1C(=O)N=c1cc[nH]cc1

>  <score_type>  (58) 
oracle

>  <origin>  (58) 
adg

>  <m_score__min__energy>  (58) 
-16.27

>  <m_primary>  (58) 
energy

$$$$
58:0
     RDKit          3D

 48 51  0  0  0  0  0  0  0  0999 V2000
   58.4060   34.6430   46.6100 N   0  0  0  0  0  0  0  0  0  0  0  0
   58.0110   33.9740   45.0660 S   0  0  0  0  0  0  0  0  0  0  0  0
   56.7790   34.6430   44.5240 O   0  0  0  0  0  0  0  0  0  0  0  0
   59.1480   34.2250   44.1180 O   0  0  0  0  0  0  0  0  0  0  0  0
   57.7270   32.2370   45.2290 C   0  0  0  0  0  0  0  0  0  0  0  0
   56.8980   31.5820   44.3080 C   0  0  0  0  0  0  0  0  0  0  0  0
   56.6760   30.2070   44.4070 C   0  0  0  0  0  0  0  0  0  0  0  0
   57.2900   29.4560   45.4190 C   0  0  0  0  0  0  0  0  0  0  0  0
   57.0590   28.0340   45.4790 N   0  0  0  0  0  0  0  0  0  0  0  0
   57.7450   27.1200   46.3960 C   0  0  0  0  0  0  0  0  0  0  0  0
   57.2530   25.7030   46.2130 C   0  0  0  0  0  0  0  0  0  0  0  0
   58.1810   24.6480   46.1950 C   0  0  0  0  0  0  0  0  0  0  0  0
   57.7530   23.3300   46.0230 C   0  0  0  0  0  0  0  0  0  0  0  0
   58.6790   22.2930   46.0150 O   0  0  0  0  0  0  0  0  0  0  0  0
   56.3940   23.0510   45.8560 C   0  0  0  0  0  0  0  0  0  0  0  0
   55.4630   24.0920   45.8530 C   0  0  0  0  0  0  0  0  0  0  0  0
   55.8830   25.4190   46.0230 C   0  0  0  0  0  0  0  0  0  0  0  0
   54.9420   26.4490   46.0050 O   0  0  0  0  0  0  0  0  0  0  0  0
   58.1220   30.1130   46.3410 C   0  0  0  0  0  0  0  0  0  0  0  0
   58.3260   31.5010   46.2680 C   0  0  0  0  0  0  0  0  0  0  0  0
   59.2440   32.1460   47.1670 N   0  0  0  0  0  0  0  0  0  0  0  0
   60.1270   31.5860   47.9530 C   0  0  0  0  0  0  0  0  0  0  0  0
   59.8000   30.4930   48.7840 C   0  0  0  0  0  0  0  0  0  0  0  0
   60.7710   29.9280   49.6090 C   0  0  0  0  0  0  0  0  0  0  0  0
   62.0290   30.4340   49.6320 N   0  0  0  0  0  0  0  0  0  0  0  0
   62.3870   31.4970   48.8670 C   0  0  0  0  0  0  0  0  0  0  0  0
   63.6970   31.9870   48.9320 C   0  0  0  0  0  0  0  0  0  0  0  0
   64.0770   33.0820   48.1520 C   0  0  0  0  0  0  0  0  0  0  0  0
   63.1520   33.6920   47.3030 C   0  0  0  0  0  0  0  0  0  0  0  0
   61.8410   33.2120   47.2270 C   0  0  0  0  0  0  0  0  0  0  0  0
   61.4400   32.1080   48.0080 C   0  0  0  0  0  0  0  0  0  0  0  0
   59.3480   34.2770   46.8740 H   0  0  0  0  0  0  0  0  0  0  0  0
   56.4186   32.1555   43.5010 H   0  0  0  0  0  0  0  0  0  0  0  0
   56.0133   29.7085   43.6843 H   0  0  0  0  0  0  0  0  0  0  0  0
   56.3530   27.6160   44.8310 H   0  0  0  0  0  0  0  0  0  0  0  0
   58.8263   27.1544   46.1969 H   0  0  0  0  0  0  0  0  0  0  0  0
   57.5344   27.4346   47.4288 H   0  0  0  0  0  0  0  0  0  0  0  0
   59.2530   24.8621   46.3174 H   0  0  0  0  0  0  0  0  0  0  0  0
   56.0576   22.0117   45.7269 H   0  0  0  0  0  0  0  0  0  0  0  0
   54.3944   23.8697   45.7165 H   0  0  0  0  0  0  0  0  0  0  0  0
   54.0240   26.3380   46.4180 H   0  0  0  0  0  0  0  0  0  0  0  0
   58.6207   29.5324   47.1311 H   0  0  0  0  0  0  0  0  0  0  0  0
   58.7778   30.0867   48.7805 H   0  0  0  0  0  0  0  0  0  0  0  0
   60.5156   29.0673   50.2446 H   0  0  0  0  0  0  0  0  0  0  0  0
   64.4291   31.5084   49.5991 H   0  0  0  0  0  0  0  0  0  0  0  0
   65.1070   33.4642   48.2070 H   0  0  0  0  0  0  0  0  0  0  0  0
   63.4558   34.5541   46.6911 H   0  0  0  0  0  0  0  0  0  0  0  0
   61.1186   33.6978   46.5547 H   0  0  0  0  0  0  0  0  0  0  0  0
  1  2  1  0
  2  3  2  0
  2  4  2  0
  2  5  1  0
  5  6  2  0
  6  7  1  0
  7  8  2  0
  8  9  1  0
  9 10  1  0
 10 11  1  0
 11 12  2  0
 12 13  1  0
 13 14  1  0
 13 15  2  0
 15 16  1  0
 16 17  2  0
 17 18  1  0
  8 19  1  0
 19 20  2  0
 20 21  1  0
 21 22  2  3
 22 23  1  0
 23 24  2  0
 24 25  1  0
 25 26  1  0
 26 27  2  0
 27 28  1  0
 28 29  2  0
 29 30  1  0
 30 31  2  0
 20  5  1  0
 31 22  1  0
 17 11  1  0
 31 26  1  0
  1 32  1  0
  6 33  1  0
  7 34  1  0
  9 35  1  0
 10 36  1  0
 10 37  1  0
 12 38  1  0
 15 39  1  0
 16 40  1  0
 18 41  1  0
 19 42  1  0
 23 43  1  0
 24 44  1  0
 27 45  1  0
 28 46  1  0
 29 47  1  0
 30 48  1  0
M  CHG  3   1  -1  14  -1  25  -1
M  END
>  <UniqueID>  (59) 
55

>  <SMILES>  (59) 
[NH-]S(=O)(=O)c1ccc(NCc2cc([O-])ccc2O)cc1N=c1cc[n-]c2ccccc12

>  <Energy>  (59) 
66.43560753190336

>  <Genealogy>  (59) 
[NH-]S(=O)(=O)c1ccc(NCc2cc([O-])ccc2O)cc1N=c1cc[n-]c2ccccc12 (protonated)
[NH-]S(=O)(=O)c1ccc(NCc2cc([O-])ccc2O)cc1N=c1cc[n-]c2ccccc12 (3D coordinates assigned)
[NH-]S(=O)(=O)c1ccc(NCc2cc([O-])ccc2O)cc1N=c1cc[n-]c2ccccc12 (optimized conformer: 66.43560753190336 kcal/mol)

>  <smiles>  (59) 
NS(=O)(=O)c1ccc(NCc2cc(O)ccc2O)cc1N=c1cc[nH]c2ccccc12

>  <score_type>  (59) 
oracle

>  <origin>  (59) 
adg

>  <m_score__min__energy>  (59) 
-14.300000000000001

>  <m_primary>  (59) 
energy

$$$$
59:0
     RDKit          3D

 71 76  0  0  0  0  0  0  0  0999 V2000
   59.8970   30.4031   50.6348 H   0  0  0  0  0  0  0  0  0  0  0  0
   60.2370   29.3870   50.3860 C   0  0  0  0  0  0  0  0  0  0  0  0
   61.0090   28.6980   51.2640 N   0  0  0  0  0  0  0  0  0  0  0  0
   61.4650   27.4430   50.9990 C   0  0  0  0  0  0  0  0  0  0  0  0
   62.1660   26.8310   51.9090 N   0  0  0  0  0  0  0  0  0  0  0  0
   63.3300   27.3620   52.5570 C   0  0  0  0  0  0  0  0  0  0  0  0
   63.8860   26.6770   53.4550 O   0  0  0  0  0  0  0  0  0  0  0  0
   63.8460   28.7090   52.1900 C   0  0  0  0  0  0  0  0  0  0  0  0
   63.0310   29.8360   52.4130 C   0  0  0  0  0  0  0  0  0  0  0  0
   62.0209   29.7005   52.8270 H   0  0  0  0  0  0  0  0  0  0  0  0
   63.4850   31.1210   52.1170 C   0  0  0  0  0  0  0  0  0  0  0  0
   62.8423   31.9887   52.3269 H   0  0  0  0  0  0  0  0  0  0  0  0
   64.7520   31.3150   51.5550 C   0  0  0  0  0  0  0  0  0  0  0  0
   65.2410   32.7050   51.1960 C   0  0  0  0  0  0  0  0  0  0  0  0
   65.1166   33.3540   52.0754 H   0  0  0  0  0  0  0  0  0  0  0  0
   66.2931   32.6049   50.8910 H   0  0  0  0  0  0  0  0  0  0  0  0
   64.5190   33.3190   50.0570 N   0  0  0  0  0  0  0  0  0  0  0  0
   63.4310   34.2490   50.4460 C   0  0  0  0  0  0  0  0  0  0  0  0
   63.4720   34.4085   51.5336 H   0  0  0  0  0  0  0  0  0  0  0  0
   63.5786   35.1924   49.8999 H   0  0  0  0  0  0  0  0  0  0  0  0
   62.0480   33.7000   50.0780 C   0  0  0  0  0  0  0  0  0  0  0  0
   61.8849   32.7513   50.6104 H   0  0  0  0  0  0  0  0  0  0  0  0
   61.2895   34.4420   50.3681 H   0  0  0  0  0  0  0  0  0  0  0  0
   61.9390   33.4620   48.6240 N   0  0  0  0  0  0  0  0  0  0  0  0
   60.5890   32.4010   48.2890 S   0  0  0  0  0  0  0  0  0  0  0  0
   61.1180   31.0860   47.7850 O   0  0  0  0  0  0  0  0  0  0  0  0
   59.8240   32.1370   49.5570 O   0  0  0  0  0  0  0  0  0  0  0  0
   59.4970   33.0880   47.0820 C   0  0  0  0  0  0  0  0  0  0  0  0
   58.1410   32.7280   47.0720 C   0  0  0  0  0  0  0  0  0  0  0  0
   57.7582   32.0134   47.8155 H   0  0  0  0  0  0  0  0  0  0  0  0
   57.2750   33.2740   46.1210 C   0  0  0  0  0  0  0  0  0  0  0  0
   56.2109   32.9953   46.1230 H   0  0  0  0  0  0  0  0  0  0  0  0
   57.7590   34.1740   45.1670 C   0  0  0  0  0  0  0  0  0  0  0  0
   57.0769   34.6014   44.4172 H   0  0  0  0  0  0  0  0  0  0  0  0
   59.1100   34.5300   45.1670 C   0  0  0  0  0  0  0  0  0  0  0  0
   59.4934   35.2301   44.4102 H   0  0  0  0  0  0  0  0  0  0  0  0
   59.9750   33.9980   46.1270 C   0  0  0  0  0  0  0  0  0  0  0  0
   61.0345   34.2937   46.1340 H   0  0  0  0  0  0  0  0  0  0  0  0
   63.1900   32.9860   47.9870 C   0  0  0  0  0  0  0  0  0  0  0  0
   62.9341   32.2352   47.2249 H   0  0  0  0  0  0  0  0  0  0  0  0
   63.6917   33.8585   47.5432 H   0  0  0  0  0  0  0  0  0  0  0  0
   64.1590   32.3540   48.9940 C   0  0  0  0  0  0  0  0  0  0  0  0
   63.6805   31.4757   49.4518 H   0  0  0  0  0  0  0  0  0  0  0  0
   65.0755   32.0585   48.4622 H   0  0  0  0  0  0  0  0  0  0  0  0
   65.5720   30.2000   51.3240 C   0  0  0  0  0  0  0  0  0  0  0  0
   66.5736   30.3445   50.8928 H   0  0  0  0  0  0  0  0  0  0  0  0
   65.1350   28.9060   51.6340 C   0  0  0  0  0  0  0  0  0  0  0  0
   66.2280   27.5770   51.2540 Cl  0  0  0  0  0  0  0  0  0  0  0  0
   61.1350   26.8390   49.7680 C   0  0  0  0  0  0  0  0  0  0  0  0
   61.5174   25.8364   49.5261 H   0  0  0  0  0  0  0  0  0  0  0  0
   60.3220   27.5160   48.8570 C   0  0  0  0  0  0  0  0  0  0  0  0
   59.9840   26.8790   47.6540 O   0  0  0  0  0  0  0  0  0  0  0  0
   58.6800   26.8020   47.1490 C   0  0  0  0  0  0  0  0  0  0  0  0
   57.8930   25.7010   47.5020 C   0  0  0  0  0  0  0  0  0  0  0  0
   58.2954   24.9414   48.1884 H   0  0  0  0  0  0  0  0  0  0  0  0
   56.6030   25.5570   46.9920 C   0  0  0  0  0  0  0  0  0  0  0  0
   56.0017   24.6779   47.2670 H   0  0  0  0  0  0  0  0  0  0  0  0
   56.0700   26.5210   46.1350 C   0  0  0  0  0  0  0  0  0  0  0  0
   54.7820   26.3450   45.6370 O   0  0  0  0  0  0  0  0  0  0  0  0
   56.8290   27.6560   45.7890 C   0  0  0  0  0  0  0  0  0  0  0  0
   56.3010   28.6480   44.9430 C   0  0  0  0  0  0  0  0  0  0  0  0
   55.2901   28.5297   44.5257 H   0  0  0  0  0  0  0  0  0  0  0  0
   57.0530   29.7820   44.6300 C   0  0  0  0  0  0  0  0  0  0  0  0
   56.6339   30.5510   43.9644 H   0  0  0  0  0  0  0  0  0  0  0  0
   58.3330   29.9430   45.1580 C   0  0  0  0  0  0  0  0  0  0  0  0
   58.9171   30.8423   44.9128 H   0  0  0  0  0  0  0  0  0  0  0  0
   58.8770   28.9690   45.9960 C   0  0  0  0  0  0  0  0  0  0  0  0
   59.8847   29.1090   46.4143 H   0  0  0  0  0  0  0  0  0  0  0  0
   58.1440   27.8070   46.3100 C   0  0  0  0  0  0  0  0  0  0  0  0
   59.8730   28.8100   49.1680 C   0  0  0  0  0  0  0  0  0  0  0  0
   59.2405   29.3636   48.4585 H   0  0  0  0  0  0  0  0  0  0  0  0
  1  2  1  0
  2  3  1  0
  3  4  1  0
  4  5  2  0
  5  6  1  0
  6  7  2  0
  6  8  1  0
  8  9  2  0
  9 10  1  0
  9 11  1  0
 11 12  1  0
 11 13  2  0
 13 14  1  0
 14 15  1  0
 14 16  1  0
 14 17  1  0
 17 18  1  0
 18 19  1  0
 18 20  1  0
 18 21  1  0
 21 22  1  0
 21 23  1  0
 21 24  1  0
 24 25  1  0
 25 26  2  0
 25 27  2  0
 25 28  1  0
 28 29  2  0
 29 30  1  0
 29 31  1  0
 31 32  1  0
 31 33  2  0
 33 34  1  0
 33 35  1  0
 35 36  1  0
 35 37  2  0
 37 38  1  0
 24 39  1  0
 39 40  1  0
 39 41  1  0
 39 42  1  0
 42 43  1  0
 42 44  1  0
 13 45  1  0
 45 46  1  0
 45 47  2  0
 47 48  1  0
  4 49  1  0
 49 50  1  0
 49 51  2  0
 51 52  1  0
 52 53  1  0
 53 54  2  0
 54 55  1  0
 54 56  1  0
 56 57  1  0
 56 58  2  0
 58 59  1  0
 58 60  1  0
 60 61  2  0
 61 62  1  0
 61 63  1  0
 63 64  1  0
 63 65  2  0
 65 66  1  0
 65 67  1  0
 67 68  1  0
 67 69  2  0
 51 70  1  0
 70 71  1  0
 70  2  2  0
 47  8  1  0
 69 53  1  0
 42 17  1  0
 69 60  1  0
 37 28  1  0
M  CHG  2   3  -1  59  -1
M  END
>  <UniqueID>  (60) 
56

>  <SMILES>  (60) 
O=C(/N=c1\cc(Oc2ccc([O-])c3ccccc23)cc[n-]1)c1ccc(CN2CCN(S(=O)(=O)c3ccccc3)CC2)cc1Cl

>  <Energy>  (60) 
116.42121730874187

>  <Genealogy>  (60) 
O=C(N=c1cc(Oc2ccc([O-])c3ccccc23)cc[n-]1)c1ccc(CN2CCN(S(=O)(=O)c3ccccc3)CC2)cc1Cl (protonated)
O=C(/N=c1\cc(Oc2ccc([O-])c3ccccc23)cc[n-]1)c1ccc(CN2CCN(S(=O)(=O)c3ccccc3)CC2)cc1Cl (cis-trans isomerization)
O=C(/N=c1\cc(Oc2ccc([O-])c3ccccc23)cc[n-]1)c1ccc(CN2CCN(S(=O)(=O)c3ccccc3)CC2)cc1Cl (3D coordinates assigned)
O=C(/N=c1\cc(Oc2ccc([O-])c3ccccc23)cc[n-]1)c1ccc(CN2CCN(S(=O)(=O)c3ccccc3)CC2)cc1Cl (nonaromatic ring conformer: 116.42121730874187 kcal/mol)

>  <smiles>  (60) 
O=C(N=c1cc(Oc2ccc(O)c3ccccc23)cc[nH]1)c1ccc(CN2CCN(S(=O)(=O)c3ccccc3)CC2)cc1Cl

>  <score_type>  (60) 
oracle

>  <origin>  (60) 
adg

>  <m_score__min__energy>  (60) 
-17.09

>  <m_primary>  (60) 
energy

$$$$
60:0
     RDKit          3D

 52 54  0  0  0  0  0  0  0  0999 V2000
   59.3980   33.8220   44.4730 O   0  0  0  0  0  0  0  0  0  0  0  0
   58.3080   33.3840   44.9300 C   0  0  0  0  0  0  0  0  0  0  0  0
   57.4720   32.4430   44.1040 C   0  0  0  0  0  0  0  0  0  0  0  0
   56.6470   31.5780   44.9540 N   0  0  0  0  0  0  0  0  0  0  0  0
   56.6930   29.9250   44.3970 S   0  0  0  0  0  0  0  0  0  0  0  0
   56.6960   29.8990   42.8920 O   0  0  0  0  0  0  0  0  0  0  0  0
   55.4600   29.2290   44.9040 O   0  0  0  0  0  0  0  0  0  0  0  0
   58.1300   29.0840   45.0110 C   0  0  0  0  0  0  0  0  0  0  0  0
   59.3890   29.6880   44.8340 C   0  0  0  0  0  0  0  0  0  0  0  0
   60.5520   29.0570   45.2740 C   0  0  0  0  0  0  0  0  0  0  0  0
   60.4800   27.8170   45.9030 C   0  0  0  0  0  0  0  0  0  0  0  0
   59.2410   27.2050   46.1000 C   0  0  0  0  0  0  0  0  0  0  0  0
   58.0530   27.8220   45.6670 C   0  0  0  0  0  0  0  0  0  0  0  0
   56.7490   27.1100   45.9580 C   0  0  0  0  0  0  0  0  0  0  0  0
   56.6950   25.8340   45.2430 N   0  0  0  0  0  0  0  0  0  0  0  0
   57.5110   25.5090   44.0860 C   0  0  0  0  0  0  0  0  0  0  0  0
   57.0650   24.1060   43.6310 C   0  0  0  0  0  0  0  0  0  0  0  0
   55.8410   23.7160   44.4740 C   0  0  0  0  0  0  0  0  0  0  0  0
   55.7320   24.8190   45.4470 C   0  0  0  0  0  0  0  0  0  0  0  0
   54.8660   24.8610   46.3610 O   0  0  0  0  0  0  0  0  0  0  0  0
   57.8650   33.8430   46.2120 N   0  0  0  0  0  0  0  0  0  0  0  0
   58.2790   33.2600   47.4850 C   0  0  0  0  0  0  0  0  0  0  0  0
   59.1060   31.9970   47.2440 C   0  0  0  0  0  0  0  0  0  0  0  0
   60.5840   32.2990   47.2400 C   0  0  0  0  0  0  0  0  0  0  0  0
   61.0450   33.5860   46.9140 C   0  0  0  0  0  0  0  0  0  0  0  0
   62.4180   33.8560   46.8900 C   0  0  0  0  0  0  0  0  0  0  0  0
   63.3370   32.8450   47.1910 C   0  0  0  0  0  0  0  0  0  0  0  0
   62.8860   31.5600   47.5080 C   0  0  0  0  0  0  0  0  0  0  0  0
   61.5150   31.2850   47.5250 C   0  0  0  0  0  0  0  0  0  0  0  0
   56.8150   33.0308   43.4460 H   0  0  0  0  0  0  0  0  0  0  0  0
   58.1468   31.8070   43.5123 H   0  0  0  0  0  0  0  0  0  0  0  0
   59.4563   30.6698   44.3426 H   0  0  0  0  0  0  0  0  0  0  0  0
   61.5288   29.5401   45.1238 H   0  0  0  0  0  0  0  0  0  0  0  0
   61.3996   27.3195   46.2448 H   0  0  0  0  0  0  0  0  0  0  0  0
   59.1928   26.2268   46.6007 H   0  0  0  0  0  0  0  0  0  0  0  0
   56.6711   26.9234   47.0393 H   0  0  0  0  0  0  0  0  0  0  0  0
   55.9139   27.7428   45.6231 H   0  0  0  0  0  0  0  0  0  0  0  0
   57.3443   26.2420   43.2829 H   0  0  0  0  0  0  0  0  0  0  0  0
   58.5832   25.5308   44.3307 H   0  0  0  0  0  0  0  0  0  0  0  0
   56.7963   24.1245   42.5645 H   0  0  0  0  0  0  0  0  0  0  0  0
   57.8778   23.3774   43.7669 H   0  0  0  0  0  0  0  0  0  0  0  0
   54.9376   23.6507   43.8499 H   0  0  0  0  0  0  0  0  0  0  0  0
   55.9441   22.7303   44.9513 H   0  0  0  0  0  0  0  0  0  0  0  0
   58.8858   33.9912   48.0391 H   0  0  0  0  0  0  0  0  0  0  0  0
   57.3835   32.9967   48.0670 H   0  0  0  0  0  0  0  0  0  0  0  0
   58.8913   31.2710   48.0420 H   0  0  0  0  0  0  0  0  0  0  0  0
   58.8338   31.5876   46.2600 H   0  0  0  0  0  0  0  0  0  0  0  0
   60.3249   34.3831   46.6771 H   0  0  0  0  0  0  0  0  0  0  0  0
   62.7751   34.8645   46.6341 H   0  0  0  0  0  0  0  0  0  0  0  0
   64.4155   33.0612   47.1783 H   0  0  0  0  0  0  0  0  0  0  0  0
   63.6094   30.7656   47.7439 H   0  0  0  0  0  0  0  0  0  0  0  0
   61.1633   30.2702   47.7626 H   0  0  0  0  0  0  0  0  0  0  0  0
  1  2  2  0
  2  3  1  0
  3  4  1  0
  4  5  1  0
  5  6  2  0
  5  7  2  0
  5  8  1  0
  8  9  2  0
  9 10  1  0
 10 11  2  0
 11 12  1  0
 12 13  2  0
 13 14  1  0
 14 15  1  0
 15 16  1  0
 16 17  1  0
 17 18  1  0
 18 19  1  0
 19 20  2  0
  2 21  1  0
 21 22  1  0
 22 23  1  0
 23 24  1  0
 24 25  2  0
 25 26  1  0
 26 27  2  0
 27 28  1  0
 28 29  2  0
 13  8  1  0
 19 15  1  0
 29 24  1  0
  3 30  1  0
  3 31  1  0
  9 32  1  0
 10 33  1  0
 11 34  1  0
 12 35  1  0
 14 36  1  0
 14 37  1  0
 16 38  1  0
 16 39  1  0
 17 40  1  0
 17 41  1  0
 18 42  1  0
 18 43  1  0
 22 44  1  0
 22 45  1  0
 23 46  1  0
 23 47  1  0
 25 48  1  0
 26 49  1  0
 27 50  1  0
 28 51  1  0
 29 52  1  0
M  CHG  2   4  -1  21  -1
M  END
>  <UniqueID>  (61) 
57

>  <SMILES>  (61) 
O=C(C[N-]S(=O)(=O)c1ccccc1CN1CCCC1=O)[N-]CCc1ccccc1

>  <Energy>  (61) 
55.6629780079236

>  <Genealogy>  (61) 
O=C(C[N-]S(=O)(=O)c1ccccc1CN1CCCC1=O)[N-]CCc1ccccc1 (protonated)
O=C(C[N-]S(=O)(=O)c1ccccc1CN1CCCC1=O)[N-]CCc1ccccc1 (3D coordinates assigned)
O=C(C[N-]S(=O)(=O)c1ccccc1CN1CCCC1=O)[N-]CCc1ccccc1 (nonaromatic ring conformer: 55.6629780079236 kcal/mol)

>  <smiles>  (61) 
O=C(CNS(=O)(=O)c1ccccc1CN1CCCC1=O)NCCc1ccccc1

>  <score_type>  (61) 
oracle

>  <origin>  (61) 
adg

>  <m_score__min__energy>  (61) 
-12

>  <m_primary>  (61) 
energy

$$$$
61:0
     RDKit          3D

 37 39  0  0  0  0  0  0  0  0999 V2000
   58.1500   27.6950   43.6680 C   0  0  0  0  0  0  0  0  0  0  0  0
   58.0520   27.5750   45.0830 O   0  0  0  0  0  0  0  0  0  0  0  0
   58.5600   28.5410   45.9570 C   0  0  0  0  0  0  0  0  0  0  0  0
   59.2950   28.2050   46.9260 O   0  0  0  0  0  0  0  0  0  0  0  0
   58.2350   29.9550   45.7430 C   0  0  0  0  0  0  0  0  0  0  0  0
   57.1190   30.3360   45.2270 N   0  0  0  0  0  0  0  0  0  0  0  0
   57.0910   31.7040   45.1480 O   0  0  0  0  0  0  0  0  0  0  0  0
   58.2700   32.3050   45.6630 C   0  0  1  0  0  0  0  0  0  0  0  0
   58.9180   33.2370   44.6310 C   0  0  0  0  0  0  0  0  0  0  0  0
   58.8850   34.5660   45.3080 C   0  0  0  0  0  0  0  0  0  0  0  0
   59.2280   35.5910   44.7370 O   0  0  0  0  0  0  0  0  0  0  0  0
   58.3670   34.5770   46.6480 N   0  0  2  0  0  0  0  0  0  0  0  0
   59.4150   34.9000   47.6400 C   0  0  0  0  0  0  0  0  0  0  0  0
   60.5540   33.9100   47.5890 C   0  0  0  0  0  0  0  0  0  0  0  0
   60.5300   32.7660   48.4040 C   0  0  0  0  0  0  0  0  0  0  0  0
   61.5910   31.8560   48.3720 C   0  0  0  0  0  0  0  0  0  0  0  0
   62.6840   32.0820   47.5290 C   0  0  0  0  0  0  0  0  0  0  0  0
   63.7120   31.2000   47.4990 F   0  0  0  0  0  0  0  0  0  0  0  0
   62.7160   33.2200   46.7170 C   0  0  0  0  0  0  0  0  0  0  0  0
   61.6560   34.1330   46.7470 C   0  0  0  0  0  0  0  0  0  0  0  0
   57.9410   33.2170   46.8040 C   0  0  0  0  0  0  0  0  0  0  0  0
   57.3110   32.8430   47.7840 O   0  0  0  0  0  0  0  0  0  0  0  0
   59.1390   31.0960   46.0820 C   0  0  0  0  0  0  0  0  0  0  0  0
   58.8274   28.5244   43.4164 H   0  0  0  0  0  0  0  0  0  0  0  0
   58.5448   26.7586   43.2471 H   0  0  0  0  0  0  0  0  0  0  0  0
   57.1536   27.8948   43.2471 H   0  0  0  0  0  0  0  0  0  0  0  0
   59.9518   32.9293   44.4151 H   0  0  0  0  0  0  0  0  0  0  0  0
   58.4010   33.2333   43.6601 H   0  0  0  0  0  0  0  0  0  0  0  0
   57.5400   35.2160   46.7170 H   0  0  0  0  0  0  0  0  0  0  0  0
   59.8071   35.9061   47.4301 H   0  0  0  0  0  0  0  0  0  0  0  0
   58.9648   34.8546   48.6426 H   0  0  0  0  0  0  0  0  0  0  0  0
   59.6732   32.5855   49.0698 H   0  0  0  0  0  0  0  0  0  0  0  0
   61.5661   30.9609   49.0108 H   0  0  0  0  0  0  0  0  0  0  0  0
   63.5755   33.3977   46.0539 H   0  0  0  0  0  0  0  0  0  0  0  0
   61.6858   35.0285   46.1089 H   0  0  0  0  0  0  0  0  0  0  0  0
   60.0748   31.0535   45.5054 H   0  0  0  0  0  0  0  0  0  0  0  0
   59.4638   31.1169   47.1327 H   0  0  0  0  0  0  0  0  0  0  0  0
  1  2  1  0
  2  3  1  0
  3  4  2  0
  3  5  1  0
  5  6  2  0
  6  7  1  0
  8  7  1  6
  8  9  1  0
  9 10  1  0
 10 11  2  0
 10 12  1  0
 12 13  1  0
 13 14  1  0
 14 15  2  0
 15 16  1  0
 16 17  2  0
 17 18  1  0
 17 19  1  0
 19 20  2  0
 12 21  1  0
 21 22  2  0
  8 23  1  0
 23  5  1  0
 21  8  1  0
 20 14  1  0
  1 24  1  0
  1 25  1  0
  1 26  1  0
  9 27  1  0
  9 28  1  0
 12 29  1  6
 13 30  1  0
 13 31  1  0
 15 32  1  0
 16 33  1  0
 19 34  1  0
 20 35  1  0
 23 36  1  0
 23 37  1  0
M  CHG  1  12   1
M  END
>  <UniqueID>  (62) 
58

>  <SMILES>  (62) 
COC(=O)C1=NO[C@]2(CC(=O)[N@H+](Cc3ccc(F)cc3)C2=O)C1

>  <Energy>  (62) 
53.60230828197221

>  <Genealogy>  (62) 
COC(=O)C1=NOC2(CC(=O)[NH+](Cc3ccc(F)cc3)C2=O)C1 (protonated)
COC(=O)C1=NO[C@]2(CC(=O)[N@H+](Cc3ccc(F)cc3)C2=O)C1 (chirality)
COC(=O)C1=NO[C@]2(CC(=O)[N@H+](Cc3ccc(F)cc3)C2=O)C1 (3D coordinates assigned)
COC(=O)C1=NO[C@]2(CC(=O)[N@H+](Cc3ccc(F)cc3)C2=O)C1 (nonaromatic ring conformer: 53.60230828197221 kcal/mol)

>  <smiles>  (62) 
COC(=O)C1=NOC2(CC(=O)N(Cc3ccc(F)cc3)C2=O)C1

>  <score_type>  (62) 
oracle

>  <origin>  (62) 
adg

>  <m_score__min__energy>  (62) 
-6.2199999999999998

>  <m_primary>  (62) 
energy

$$$$
62:0
     RDKit          3D

 28 28  0  0  0  0  0  0  0  0999 V2000
   58.7370   21.5580   43.8530 C   0  0  0  0  0  0  0  0  0  0  0  0
   57.4460   21.9150   43.9740 C   0  0  0  0  0  0  0  0  0  0  0  0
   56.4690   20.8490   44.4490 C   0  0  0  0  0  0  0  0  0  0  0  0
   55.9770   20.1180   43.3600 O   0  0  0  0  0  0  0  0  0  0  0  0
   56.9940   23.2990   43.4870 C   0  0  1  0  0  0  0  0  0  0  0  0
   55.5600   23.3220   43.0180 C   0  0  0  0  0  0  0  0  0  0  0  0
   54.5560   23.6260   43.8400 C   0  0  0  0  0  0  0  0  0  0  0  0
   54.8020   24.0910   45.2160 C   0  0  0  0  0  0  0  0  0  0  0  0
   53.8240   24.1900   46.0060 O   0  0  0  0  0  0  0  0  0  0  0  0
   56.2000   24.4550   45.6960 C   0  0  2  0  0  0  0  0  0  0  0  0
   56.6220   23.4590   46.7950 C   0  0  0  0  0  0  0  0  0  0  0  0
   56.1870   25.8590   46.2780 C   0  0  0  0  0  0  0  0  0  0  0  0
   57.0800   26.2220   47.0900 O   0  0  0  0  0  0  0  0  0  0  0  0
   55.1380   26.7280   46.0010 O   0  0  0  0  0  0  0  0  0  0  0  0
   57.2160   24.4400   44.5150 C   0  0  0  0  0  0  0  0  0  0  0  0
   59.4814   22.2931   43.5132 H   0  0  0  0  0  0  0  0  0  0  0  0
   59.0485   20.5309   44.0938 H   0  0  0  0  0  0  0  0  0  0  0  0
   56.9850   20.1665   45.1403 H   0  0  0  0  0  0  0  0  0  0  0  0
   55.6269   21.3387   44.9599 H   0  0  0  0  0  0  0  0  0  0  0  0
   56.5390   19.3020   43.2890 H   0  0  0  0  0  0  0  0  0  0  0  0
   57.6528   23.4929   42.6277 H   0  0  0  0  0  0  0  0  0  0  0  0
   55.3370   23.0811   41.9681 H   0  0  0  0  0  0  0  0  0  0  0  0
   53.5202   23.5275   43.4829 H   0  0  0  0  0  0  0  0  0  0  0  0
   56.4340   23.9027   47.7838 H   0  0  0  0  0  0  0  0  0  0  0  0
   56.0395   22.5315   46.6926 H   0  0  0  0  0  0  0  0  0  0  0  0
   57.6935   23.2323   46.6926 H   0  0  0  0  0  0  0  0  0  0  0  0
   57.1391   25.4002   43.9839 H   0  0  0  0  0  0  0  0  0  0  0  0
   58.2081   24.2711   44.9591 H   0  0  0  0  0  0  0  0  0  0  0  0
  1  2  2  0
  2  3  1  0
  3  4  1  0
  2  5  1  0
  5  6  1  0
  6  7  2  0
  7  8  1  0
  8  9  2  0
  8 10  1  0
 10 11  1  1
 10 12  1  0
 12 13  2  0
 12 14  1  0
 10 15  1  0
 15  5  1  0
  1 16  1  0
  1 17  1  0
  3 18  1  0
  3 19  1  0
  4 20  1  0
  5 21  1  6
  6 22  1  0
  7 23  1  0
 11 24  1  0
 11 25  1  0
 11 26  1  0
 15 27  1  0
 15 28  1  0
M  CHG  1  14  -1
M  END
>  <UniqueID>  (63) 
59

>  <SMILES>  (63) 
C=C(CO)[C@H]1C=CC(=O)[C@](C)(C(=O)[O-])C1

>  <Energy>  (63) 
29.112593925728376

>  <Genealogy>  (63) 
C=C(CO)C1C=CC(=O)C(C)(C(=O)[O-])C1 (protonated)
C=C(CO)[C@H]1C=CC(=O)[C@](C)(C(=O)[O-])C1 (chirality)
C=C(CO)[C@H]1C=CC(=O)[C@](C)(C(=O)[O-])C1 (3D coordinates assigned)
C=C(CO)[C@H]1C=CC(=O)[C@](C)(C(=O)[O-])C1 (nonaromatic ring conformer: 29.112593925728376 kcal/mol)

>  <smiles>  (63) 
C=C(CO)C1C=CC(=O)C(C)(C(=O)O)C1

>  <score_type>  (63) 
oracle

>  <origin>  (63) 
adg

>  <m_score__min__energy>  (63) 
-8.8000000000000007

>  <m_primary>  (63) 
energy

$$$$
63:0
     RDKit          3D

 36 37  0  0  0  0  0  0  0  0999 V2000
   59.0397   32.7887   47.7906 H   0  0  0  0  0  0  0  0  0  0  0  0
   58.5850   32.7810   46.7890 C   0  0  0  0  0  0  0  0  0  0  0  0
   57.7720   31.7770   46.3650 N   0  0  0  0  0  0  0  0  0  0  0  0
   57.3410   31.9930   45.1020 C   0  0  0  0  0  0  0  0  0  0  0  0
   56.5390   31.2020   44.4540 N   0  0  0  0  0  0  0  0  0  0  0  0
   56.3240   29.8070   44.7170 C   0  0  0  0  0  0  0  0  0  0  0  0
   55.1600   29.3350   44.8320 O   0  0  0  0  0  0  0  0  0  0  0  0
   57.5080   28.8920   44.7970 C   0  0  0  0  0  0  0  0  0  0  0  0
   57.4161   28.1209   44.0179 H   0  0  0  0  0  0  0  0  0  0  0  0
   58.4172   29.4935   44.6503 H   0  0  0  0  0  0  0  0  0  0  0  0
   57.6030   28.2060   46.1680 C   0  0  0  0  0  0  0  0  0  0  0  0
   58.5769   28.4455   46.6199 H   0  0  0  0  0  0  0  0  0  0  0  0
   56.7770   28.5744   46.7941 H   0  0  0  0  0  0  0  0  0  0  0  0
   57.4770   26.7520   46.0550 N   0  0  0  0  0  0  0  0  0  0  0  0
   58.3490   26.1790   45.9990 H   0  0  0  0  0  0  0  0  0  0  0  0
   56.2190   26.0730   46.1250 C   0  0  0  0  0  0  0  0  0  0  0  0
   55.1410   26.7130   45.9890 O   0  0  0  0  0  0  0  0  0  0  0  0
   56.2020   24.6560   46.3270 N   0  0  0  0  0  0  0  0  0  0  0  0
   56.6770   23.6600   45.4090 C   0  0  0  0  0  0  0  0  0  0  0  0
   58.0340   23.2830   45.4190 C   0  0  0  0  0  0  0  0  0  0  0  0
   58.7205   23.7430   46.1450 H   0  0  0  0  0  0  0  0  0  0  0  0
   58.5180   22.3330   44.5190 C   0  0  0  0  0  0  0  0  0  0  0  0
   59.5782   22.0410   44.5445 H   0  0  0  0  0  0  0  0  0  0  0  0
   57.6590   21.7550   43.5890 C   0  0  0  0  0  0  0  0  0  0  0  0
   58.0382   20.9981   42.8866 H   0  0  0  0  0  0  0  0  0  0  0  0
   56.3170   22.1350   43.5470 C   0  0  0  0  0  0  0  0  0  0  0  0
   55.6472   21.6754   42.8052 H   0  0  0  0  0  0  0  0  0  0  0  0
   55.8090   23.0930   44.4350 C   0  0  0  0  0  0  0  0  0  0  0  0
   54.4450   23.4130   44.2920 O   0  0  0  0  0  0  0  0  0  0  0  0
   53.4990   23.6480   45.3310 C   0  0  0  0  0  0  0  0  0  0  0  0
   53.8828   23.2289   46.2729 H   0  0  0  0  0  0  0  0  0  0  0  0
   53.2900   25.0070   45.4840 F   0  0  0  0  0  0  0  0  0  0  0  0
   52.3010   23.0530   44.9850 F   0  0  0  0  0  0  0  0  0  0  0  0
   57.9400   33.4240   44.4650 S   0  0  0  0  0  0  0  0  0  0  0  0
   58.8000   33.7980   45.8640 C   0  0  0  0  0  0  0  0  0  0  0  0
   59.4233   34.6910   46.0194 H   0  0  0  0  0  0  0  0  0  0  0  0
  1  2  1  0
  2  3  1  0
  3  4  1  0
  4  5  2  0
  5  6  1  0
  6  7  2  0
  6  8  1  0
  8  9  1  0
  8 10  1  0
  8 11  1  0
 11 12  1  0
 11 13  1  0
 11 14  1  0
 14 15  1  0
 14 16  1  0
 16 17  2  0
 16 18  1  0
 18 19  1  0
 19 20  2  0
 20 21  1  0
 20 22  1  0
 22 23  1  0
 22 24  2  0
 24 25  1  0
 24 26  1  0
 26 27  1  0
 26 28  2  0
 28 29  1  0
 29 30  1  0
 30 31  1  0
 30 32  1  0
 30 33  1  0
  4 34  1  0
 34 35  1  0
 35 36  1  0
 35  2  2  0
 28 19  1  0
M  CHG  2   3  -1  18  -1
M  END
>  <UniqueID>  (64) 
60

>  <SMILES>  (64) 
O=C(CCNC(=O)[N-]c1ccccc1OC(F)F)/N=c1\[n-]ccs1

>  <Energy>  (64) 
68.50571068547913

>  <Genealogy>  (64) 
O=C(CCNC(=O)[N-]c1ccccc1OC(F)F)N=c1[n-]ccs1 (protonated)
O=C(CCNC(=O)[N-]c1ccccc1OC(F)F)/N=c1\[n-]ccs1 (cis-trans isomerization)
O=C(CCNC(=O)[N-]c1ccccc1OC(F)F)/N=c1\[n-]ccs1 (3D coordinates assigned)
O=C(CCNC(=O)[N-]c1ccccc1OC(F)F)/N=c1\[n-]ccs1 (optimized conformer: 68.50571068547913 kcal/mol)

>  <smiles>  (64) 
O=C(CCNC(=O)Nc1ccccc1OC(F)F)N=c1[nH]ccs1

>  <score_type>  (64) 
oracle

>  <origin>  (64) 
adg

>  <m_score__min__energy>  (64) 
-10.44

>  <m_primary>  (64) 
energy

$$$$
64:0
     RDKit          3D

 36 38  0  0  1  0  0  0  0  0999 V2000
   55.5270   25.4160   45.9930 O   0  0  0  0  0  0  0  0  0  0  0  0
   56.7740   25.4140   45.7240 C   0  0  0  0  0  0  0  0  0  0  0  0
   57.3820   24.1550   45.3230 C   0  0  0  0  0  0  0  0  0  0  0  0
   58.6390   23.7330   45.6590 C   0  0  0  0  0  0  0  0  0  0  0  0
   59.0470   22.4930   45.1920 C   0  0  0  0  0  0  0  0  0  0  0  0
   60.2060   22.0380   45.4660 O   0  0  0  0  0  0  0  0  0  0  0  0
   58.2400   21.7170   44.4300 N   0  0  0  0  0  0  0  0  0  0  0  0
   56.9870   22.1600   44.1090 C   0  0  0  0  0  0  0  0  0  0  0  0
   56.2090   21.4700   43.4050 O   0  0  0  0  0  0  0  0  0  0  0  0
   56.5840   23.3550   44.5530 N   0  0  0  0  0  0  0  0  0  0  0  0
   57.5190   26.6410   45.8200 N   0  0  0  0  0  0  0  0  0  0  0  0
   58.7390   26.6810   46.5970 C   0  0  0  0  0  0  0  0  0  0  0  0
   58.6060   27.9090   47.5060 C   0  0  0  0  0  0  0  0  0  0  0  0
   58.6120   29.0920   46.5500 C   0  0  0  0  0  0  0  0  0  0  0  0
   57.2700   29.0630   45.8340 C   0  0  1  0  0  0  0  0  0  0  0  0
   57.3200   30.2340   44.8880 C   0  0  0  0  0  0  0  0  0  0  0  0
   57.2960   30.2220   43.5130 C   0  0  0  0  0  0  0  0  0  0  0  0
   57.3510   31.4940   43.0810 N   0  0  0  0  0  0  0  0  0  0  0  0
   57.4080   32.3220   44.1350 C   0  0  0  0  0  0  0  0  0  0  0  0
   57.3890   31.5400   45.2390 N   0  0  0  0  0  0  0  0  0  0  0  0
   57.0680   27.7890   45.1000 C   0  0  0  0  0  0  0  0  0  0  0  0
   59.3024   24.3552   46.2776 H   0  0  0  0  0  0  0  0  0  0  0  0
   58.5280   20.7780   44.0660 H   0  0  0  0  0  0  0  0  0  0  0  0
   55.6260   23.6620   44.2910 H   0  0  0  0  0  0  0  0  0  0  0  0
   58.8413   25.7662   47.1992 H   0  0  0  0  0  0  0  0  0  0  0  0
   59.6299   26.7433   45.9548 H   0  0  0  0  0  0  0  0  0  0  0  0
   57.6645   27.8725   48.0737 H   0  0  0  0  0  0  0  0  0  0  0  0
   59.4137   27.9682   48.2503 H   0  0  0  0  0  0  0  0  0  0  0  0
   58.7267   30.0330   47.1079 H   0  0  0  0  0  0  0  0  0  0  0  0
   59.4485   29.0292   45.8384 H   0  0  0  0  0  0  0  0  0  0  0  0
   56.4279   29.1299   46.5386 H   0  0  0  0  0  0  0  0  0  0  0  0
   57.2413   29.3264   42.8766 H   0  0  0  0  0  0  0  0  0  0  0  0
   57.3490   31.8190   42.0640 H   0  0  0  0  0  0  0  0  0  0  0  0
   57.4600   33.4204   44.1072 H   0  0  0  0  0  0  0  0  0  0  0  0
   55.9937   27.6717   44.8946 H   0  0  0  0  0  0  0  0  0  0  0  0
   57.6642   27.8481   44.1775 H   0  0  0  0  0  0  0  0  0  0  0  0
  1  2  2  0
  2  3  1  0
  3  4  2  0
  4  5  1  0
  5  6  2  0
  5  7  1  0
  7  8  1  0
  8  9  2  0
  8 10  1  0
  2 11  1  0
 11 12  1  0
 12 13  1  0
 13 14  1  0
 14 15  1  0
 15 16  1  0
 16 17  2  0
 17 18  1  0
 18 19  1  0
 19 20  2  0
 15 21  1  0
 10  3  1  0
 21 11  1  0
 20 16  1  0
  4 22  1  0
  7 23  1  0
 10 24  1  0
 12 25  1  0
 12 26  1  0
 13 27  1  0
 13 28  1  0
 14 29  1  0
 14 30  1  0
 15 31  1  1
 17 32  1  0
 18 33  1  0
 19 34  1  0
 21 35  1  0
 21 36  1  0
M  END
>  <smiles>  (65) 
O=C(c1cc(=O)[nH]c(=O)[nH]1)N1CCCC(c2c[nH]cn2)C1

>  <score_type>  (65) 
oracle

>  <origin>  (65) 
adg

>  <m_score__min__energy>  (65) 
-7.5300000000000002

>  <m_primary>  (65) 
energy

$$$$
65:0
     RDKit          3D

 49 51  0  0  0  0  0  0  0  0999 V2000
   58.5290   23.5370   44.8800 C   0  0  0  0  0  0  0  0  0  0  0  0
   57.1450   24.0640   45.1200 C   0  0  0  0  0  0  0  0  0  0  0  0
   56.7880   25.3820   45.3830 C   0  0  0  0  0  0  0  0  0  0  0  0
   57.6350   26.5320   45.5000 N   0  0  0  0  0  0  0  0  0  0  0  0
   58.8120   26.5600   46.3190 C   0  0  0  0  0  0  0  0  0  0  0  0
   59.2550   25.5010   46.8400 O   0  0  0  0  0  0  0  0  0  0  0  0
   59.5770   27.8380   46.4870 C   0  0  0  0  0  0  0  0  0  0  0  0
   58.6270   28.9880   46.8270 C   0  0  0  0  0  0  0  0  0  0  0  0
   57.8420   29.6230   45.3550 S   0  0  0  0  0  0  0  0  0  0  0  0
   56.4050   29.1850   45.3210 O   0  0  0  0  0  0  0  0  0  0  0  0
   58.5400   29.0740   44.1420 O   0  0  0  0  0  0  0  0  0  0  0  0
   57.9380   31.3820   45.3320 C   0  0  0  0  0  0  0  0  0  0  0  0
   57.7700   32.0890   44.1320 C   0  0  0  0  0  0  0  0  0  0  0  0
   57.8290   33.4860   44.1270 C   0  0  0  0  0  0  0  0  0  0  0  0
   58.0500   34.1820   45.3180 C   0  0  0  0  0  0  0  0  0  0  0  0
   58.2100   33.4820   46.5180 C   0  0  0  0  0  0  0  0  0  0  0  0
   58.1510   32.0850   46.5260 C   0  0  0  0  0  0  0  0  0  0  0  0
   55.4380   25.3390   45.6420 C   0  0  0  0  0  0  0  0  0  0  0  0
   54.7210   26.3200   45.9790 O   0  0  0  0  0  0  0  0  0  0  0  0
   54.9900   24.0750   45.5040 N   0  0  0  0  0  0  0  0  0  0  0  0
   53.6380   23.6340   45.7220 C   0  0  0  0  0  0  0  0  0  0  0  0
   52.6040   24.0630   44.8740 C   0  0  0  0  0  0  0  0  0  0  0  0
   51.2940   23.6210   45.0810 C   0  0  0  0  0  0  0  0  0  0  0  0
   51.0090   22.7410   46.1300 C   0  0  0  0  0  0  0  0  0  0  0  0
   52.0340   22.3010   46.9710 C   0  0  0  0  0  0  0  0  0  0  0  0
   53.3460   22.7420   46.7670 C   0  0  0  0  0  0  0  0  0  0  0  0
   56.0220   23.3030   45.1670 N   0  0  0  0  0  0  0  0  0  0  0  0
   55.9540   21.8600   44.9140 C   0  0  0  0  0  0  0  0  0  0  0  0
   59.0223   23.3492   45.8451 H   0  0  0  0  0  0  0  0  0  0  0  0
   58.4701   22.5984   44.3095 H   0  0  0  0  0  0  0  0  0  0  0  0
   59.1093   24.2771   44.3095 H   0  0  0  0  0  0  0  0  0  0  0  0
   57.4710   27.3300   44.8450 H   0  0  0  0  0  0  0  0  0  0  0  0
   60.3075   27.7188   47.3008 H   0  0  0  0  0  0  0  0  0  0  0  0
   60.0950   28.0701   45.5448 H   0  0  0  0  0  0  0  0  0  0  0  0
   57.8534   28.6234   47.5188 H   0  0  0  0  0  0  0  0  0  0  0  0
   59.2082   29.7978   47.2923 H   0  0  0  0  0  0  0  0  0  0  0  0
   57.5916   31.5435   43.1936 H   0  0  0  0  0  0  0  0  0  0  0  0
   57.7012   34.0378   43.1840 H   0  0  0  0  0  0  0  0  0  0  0  0
   58.0982   35.2809   45.3118 H   0  0  0  0  0  0  0  0  0  0  0  0
   58.3823   34.0305   47.4558 H   0  0  0  0  0  0  0  0  0  0  0  0
   58.2720   31.5362   47.4716 H   0  0  0  0  0  0  0  0  0  0  0  0
   52.8258   24.7495   44.0436 H   0  0  0  0  0  0  0  0  0  0  0  0
   50.4866   23.9657   44.4182 H   0  0  0  0  0  0  0  0  0  0  0  0
   49.9775   22.3953   46.2929 H   0  0  0  0  0  0  0  0  0  0  0  0
   51.8094   21.6071   47.7944 H   0  0  0  0  0  0  0  0  0  0  0  0
   54.1518   22.3889   47.4274 H   0  0  0  0  0  0  0  0  0  0  0  0
   55.9286   21.3205   45.8723 H   0  0  0  0  0  0  0  0  0  0  0  0
   55.0441   21.6309   44.3400 H   0  0  0  0  0  0  0  0  0  0  0  0
   56.8384   21.5463   44.3400 H   0  0  0  0  0  0  0  0  0  0  0  0
  1  2  1  0
  2  3  2  0
  3  4  1  0
  4  5  1  0
  5  6  2  0
  5  7  1  0
  7  8  1  0
  8  9  1  0
  9 10  2  0
  9 11  2  0
  9 12  1  0
 12 13  2  0
 13 14  1  0
 14 15  2  0
 15 16  1  0
 16 17  2  0
  3 18  1  0
 18 19  2  0
 18 20  1  0
 20 21  1  0
 21 22  2  0
 22 23  1  0
 23 24  2  0
 24 25  1  0
 25 26  2  0
 20 27  1  0
 27 28  1  0
 27  2  1  0
 17 12  1  0
 26 21  1  0
  1 29  1  0
  1 30  1  0
  1 31  1  0
  4 32  1  0
  7 33  1  0
  7 34  1  0
  8 35  1  0
  8 36  1  0
 13 37  1  0
 14 38  1  0
 15 39  1  0
 16 40  1  0
 17 41  1  0
 22 42  1  0
 23 43  1  0
 24 44  1  0
 25 45  1  0
 26 46  1  0
 28 47  1  0
 28 48  1  0
 28 49  1  0
M  END
>  <UniqueID>  (66) 
61

>  <SMILES>  (66) 
Cc1c(NC(=O)CCS(=O)(=O)c2ccccc2)c(=O)n(-c2ccccc2)n1C

>  <Energy>  (66) 
89.16792437844677

>  <Genealogy>  (66) 
Cc1c(NC(=O)CCS(=O)(=O)c2ccccc2)c(=O)n(-c2ccccc2)n1C (3D coordinates assigned)
Cc1c(NC(=O)CCS(=O)(=O)c2ccccc2)c(=O)n(-c2ccccc2)n1C (optimized conformer: 89.16792437844677 kcal/mol)

>  <smiles>  (66) 
Cc1c(NC(=O)CCS(=O)(=O)c2ccccc2)c(=O)n(-c2ccccc2)n1C

>  <score_type>  (66) 
oracle

>  <origin>  (66) 
adg

>  <m_score__min__energy>  (66) 
-9.2400000000000002

>  <m_primary>  (66) 
energy

$$$$
66:0
     RDKit          3D

 43 45  0  0  1  0  0  0  0  0999 V2000
   55.9660   30.4700   44.4940 O   0  0  0  0  0  0  0  0  0  0  0  0
   57.0690   30.0800   44.0070 C   0  0  0  0  0  0  0  0  0  0  0  0
   57.4970   28.6520   44.0230 C   0  0  0  0  0  0  0  0  0  0  0  0
   57.5510   27.8850   45.6080 S   0  0  0  0  0  0  0  0  0  0  0  0
   58.6560   28.7990   46.7610 C   0  0  0  0  0  0  0  0  0  0  0  0
   58.9440   28.6970   47.9970 N   0  0  0  0  0  0  0  0  0  0  0  0
   59.7270   29.5020   48.6040 N   0  0  0  0  0  0  0  0  0  0  0  0
   60.2780   30.4990   47.9510 C   0  0  0  0  0  0  0  0  0  0  0  0
   61.0530   31.4000   48.3110 N   0  0  0  0  0  0  0  0  0  0  0  0
   62.1480   31.8410   47.4810 C   0  0  0  0  0  0  0  0  0  0  0  0
   61.8790   33.1640   46.8110 C   0  0  0  0  0  0  0  0  0  0  0  0
   63.2500   33.7970   46.6270 C   0  0  0  0  0  0  0  0  0  0  0  0
   63.9150   33.4660   47.9440 C   0  0  0  0  0  0  0  0  0  0  0  0
   63.4190   32.0700   48.2600 C   0  0  0  0  0  0  0  0  0  0  0  0
   59.6050   30.2690   46.2510 S   0  0  0  0  0  0  0  0  0  0  0  0
   57.9980   31.0000   43.3940 N   0  0  0  0  0  0  0  0  0  0  0  0
   57.7800   32.4110   43.2800 C   0  0  0  0  0  0  0  0  0  0  0  0
   58.0540   33.0940   44.5550 C   0  0  0  0  0  0  0  0  0  0  0  0
   57.5190   32.7950   45.7680 C   0  0  0  0  0  0  0  0  0  0  0  0
   57.8970   33.4970   46.9220 C   0  0  0  0  0  0  0  0  0  0  0  0
   58.8390   34.5260   46.8370 C   0  0  0  0  0  0  0  0  0  0  0  0
   59.3800   34.8330   45.6210 C   0  0  0  0  0  0  0  0  0  0  0  0
   58.9890   34.1280   44.5210 C   0  0  0  0  0  0  0  0  0  0  0  0
   56.7951   28.0823   43.3962 H   0  0  0  0  0  0  0  0  0  0  0  0
   58.5330   28.6467   43.6533 H   0  0  0  0  0  0  0  0  0  0  0  0
   59.9480   29.3710   49.6620 H   0  0  0  0  0  0  0  0  0  0  0  0
   62.2546   31.0247   46.7514 H   0  0  0  0  0  0  0  0  0  0  0  0
   61.3893   33.0122   45.8378 H   0  0  0  0  0  0  0  0  0  0  0  0
   61.2065   33.7996   47.4058 H   0  0  0  0  0  0  0  0  0  0  0  0
   63.7896   33.3475   45.7804 H   0  0  0  0  0  0  0  0  0  0  0  0
   63.2200   34.8725   46.3979 H   0  0  0  0  0  0  0  0  0  0  0  0
   65.0104   33.4791   47.8439 H   0  0  0  0  0  0  0  0  0  0  0  0
   63.6750   34.1914   48.7353 H   0  0  0  0  0  0  0  0  0  0  0  0
   64.1765   31.3288   47.9652 H   0  0  0  0  0  0  0  0  0  0  0  0
   63.2307   31.9658   49.3387 H   0  0  0  0  0  0  0  0  0  0  0  0
   58.8980   30.6030   43.0000 H   0  0  0  0  0  0  0  0  0  0  0  0
   58.4470   32.8162   42.5048 H   0  0  0  0  0  0  0  0  0  0  0  0
   56.7270   32.5814   43.0115 H   0  0  0  0  0  0  0  0  0  0  0  0
   56.7759   31.9877   45.8462 H   0  0  0  0  0  0  0  0  0  0  0  0
   57.4520   33.2377   47.8940 H   0  0  0  0  0  0  0  0  0  0  0  0
   59.1407   35.0812   47.7374 H   0  0  0  0  0  0  0  0  0  0  0  0
   60.1225   35.6395   45.5300 H   0  0  0  0  0  0  0  0  0  0  0  0
   59.4370   34.3901   43.5511 H   0  0  0  0  0  0  0  0  0  0  0  0
  1  2  2  0
  2  3  1  0
  3  4  1  0
  4  5  1  0
  5  6  2  0
  6  7  1  0
  7  8  1  0
  8  9  2  0
  9 10  1  0
 10 11  1  0
 11 12  1  0
 12 13  1  0
 13 14  1  0
  8 15  1  0
  2 16  1  0
 16 17  1  0
 17 18  1  0
 18 19  2  0
 19 20  1  0
 20 21  2  0
 21 22  1  0
 22 23  2  0
 15  5  1  0
 23 18  1  0
 14 10  1  0
  3 24  1  0
  3 25  1  0
  7 26  1  0
 10 27  1  0
 11 28  1  0
 11 29  1  0
 12 30  1  0
 12 31  1  0
 13 32  1  0
 13 33  1  0
 14 34  1  0
 14 35  1  0
 16 36  1  0
 17 37  1  0
 17 38  1  0
 19 39  1  0
 20 40  1  0
 21 41  1  0
 22 42  1  0
 23 43  1  0
M  END
>  <smiles>  (67) 
O=C(CSc1n[nH]c(=NC2CCCC2)s1)NCc1ccccc1

>  <score_type>  (67) 
oracle

>  <origin>  (67) 
adg

>  <m_score__min__energy>  (67) 
-8.4199999999999999

>  <m_primary>  (67) 
energy

$$$$
67:0
     RDKit          3D

 40 42  0  0  0  0  0  0  0  0999 V2000
   54.7430   26.0140   45.9340 O   0  0  0  0  0  0  0  0  0  0  0  0
   55.9620   25.7010   45.8790 C   0  0  0  0  0  0  0  0  0  0  0  0
   56.9080   26.4950   46.6090 N   0  0  0  0  0  0  0  0  0  0  0  0
   57.7830   27.4900   46.0580 C   0  0  0  0  0  0  0  0  0  0  0  0
   59.1380   27.2210   45.7970 C   0  0  0  0  0  0  0  0  0  0  0  0
   59.9570   28.2100   45.2470 C   0  0  0  0  0  0  0  0  0  0  0  0
   59.4300   29.4670   44.9380 C   0  0  0  0  0  0  0  0  0  0  0  0
   58.0730   29.7360   45.1650 C   0  0  0  0  0  0  0  0  0  0  0  0
   57.3970   31.3110   44.7440 S   0  0  0  0  0  0  0  0  0  0  0  0
   55.9220   31.1640   44.4920 O   0  0  0  0  0  0  0  0  0  0  0  0
   58.0370   31.7980   43.4720 O   0  0  0  0  0  0  0  0  0  0  0  0
   57.6520   32.4950   46.0090 N   0  0  0  0  0  0  0  0  0  0  0  0
   59.0690   32.5890   46.3700 C   0  0  0  0  0  0  0  0  0  0  0  0
   59.6730   33.7800   45.6410 C   0  0  0  0  0  0  0  0  0  0  0  0
   58.4990   34.5900   45.1280 C   0  0  0  0  0  0  0  0  0  0  0  0
   57.2520   33.8370   45.5690 C   0  0  0  0  0  0  0  0  0  0  0  0
   57.2550   28.7430   45.7260 C   0  0  0  0  0  0  0  0  0  0  0  0
   56.3720   24.5010   45.1130 C   0  0  0  0  0  0  0  0  0  0  0  0
   56.8750   23.3750   45.7860 C   0  0  0  0  0  0  0  0  0  0  0  0
   57.2520   22.2480   45.0560 C   0  0  0  0  0  0  0  0  0  0  0  0
   57.1360   22.2490   43.6670 C   0  0  0  0  0  0  0  0  0  0  0  0
   56.6470   23.3870   43.0240 C   0  0  0  0  0  0  0  0  0  0  0  0
   56.2840   24.4810   43.7470 N   0  0  0  0  0  0  0  0  0  0  0  0
   59.5544   26.2291   46.0265 H   0  0  0  0  0  0  0  0  0  0  0  0
   61.0196   27.9989   45.0566 H   0  0  0  0  0  0  0  0  0  0  0  0
   60.0811   30.2467   44.5159 H   0  0  0  0  0  0  0  0  0  0  0  0
   59.1669   32.7300   47.4565 H   0  0  0  0  0  0  0  0  0  0  0  0
   59.5937   31.6654   46.0840 H   0  0  0  0  0  0  0  0  0  0  0  0
   60.2817   34.3828   46.3310 H   0  0  0  0  0  0  0  0  0  0  0  0
   60.3329   33.4602   44.8211 H   0  0  0  0  0  0  0  0  0  0  0  0
   58.5108   35.6000   45.5636 H   0  0  0  0  0  0  0  0  0  0  0  0
   58.5353   34.7084   44.0350 H   0  0  0  0  0  0  0  0  0  0  0  0
   56.7696   34.3720   46.4003 H   0  0  0  0  0  0  0  0  0  0  0  0
   56.5396   33.7641   44.7340 H   0  0  0  0  0  0  0  0  0  0  0  0
   56.1900   28.9512   45.9063 H   0  0  0  0  0  0  0  0  0  0  0  0
   56.9709   23.3822   46.8818 H   0  0  0  0  0  0  0  0  0  0  0  0
   57.6403   21.3596   45.5757 H   0  0  0  0  0  0  0  0  0  0  0  0
   57.4267   21.3626   43.0841 H   0  0  0  0  0  0  0  0  0  0  0  0
   56.5546   23.3996   41.9280 H   0  0  0  0  0  0  0  0  0  0  0  0
   55.9480   25.3240   43.2290 H   0  0  0  0  0  0  0  0  0  0  0  0
  1  2  2  0
  2  3  1  0
  3  4  1  0
  4  5  2  0
  5  6  1  0
  6  7  2  0
  7  8  1  0
  8  9  1  0
  9 10  2  0
  9 11  2  0
  9 12  1  0
 12 13  1  0
 13 14  1  0
 14 15  1  0
 15 16  1  0
  8 17  2  0
  2 18  1  0
 18 19  2  0
 19 20  1  0
 20 21  2  0
 21 22  1  0
 22 23  2  0
 17  4  1  0
 23 18  1  0
 16 12  1  0
  5 24  1  0
  6 25  1  0
  7 26  1  0
 13 27  1  0
 13 28  1  0
 14 29  1  0
 14 30  1  0
 15 31  1  0
 15 32  1  0
 16 33  1  0
 16 34  1  0
 17 35  1  0
 19 36  1  0
 20 37  1  0
 21 38  1  0
 22 39  1  0
 23 40  1  0
M  CHG  2   3  -1  23   1
M  END
>  <UniqueID>  (68) 
62

>  <SMILES>  (68) 
O=C([N-]c1cccc(S(=O)(=O)N2CCCC2)c1)c1cccc[nH+]1

>  <Energy>  (68) 
47.927468363897624

>  <Genealogy>  (68) 
O=C([N-]c1cccc(S(=O)(=O)N2CCCC2)c1)c1cccc[nH+]1 (protonated)
O=C([N-]c1cccc(S(=O)(=O)N2CCCC2)c1)c1cccc[nH+]1 (3D coordinates assigned)
O=C([N-]c1cccc(S(=O)(=O)N2CCCC2)c1)c1cccc[nH+]1 (nonaromatic ring conformer: 47.927468363897624 kcal/mol)

>  <smiles>  (68) 
O=C(Nc1cccc(S(=O)(=O)N2CCCC2)c1)c1ccccn1

>  <score_type>  (68) 
oracle

>  <origin>  (68) 
adg

>  <m_score__min__energy>  (68) 
-9.1099999999999994

>  <m_primary>  (68) 
energy

$$$$
68:0
     RDKit          3D

 43 45  0  0  1  0  0  0  0  0999 V2000
   57.8650   25.5710   47.4710 C   0  0  0  0  0  0  0  0  0  0  0  0
   57.3660   26.5490   46.4690 C   0  0  0  0  0  0  0  0  0  0  0  0
   58.1660   27.2750   45.6120 C   0  0  0  0  0  0  0  0  0  0  0  0
   57.3020   28.0460   44.8690 C   0  0  0  0  0  0  0  0  0  0  0  0
   57.5270   28.9030   43.9360 N   0  0  0  0  0  0  0  0  0  0  0  0
   56.9200   30.1680   43.9200 C   0  0  0  0  0  0  0  0  0  0  0  0
   55.7900   30.2240   44.5220 O   0  0  0  0  0  0  0  0  0  0  0  0
   57.3640   31.3930   43.3240 C   0  0  0  0  0  0  0  0  0  0  0  0
   57.5750   32.5520   43.8620 C   0  0  0  0  0  0  0  0  0  0  0  0
   58.3650   32.9000   45.0010 C   0  0  0  0  0  0  0  0  0  0  0  0
   59.0750   34.1090   44.9080 C   0  0  0  0  0  0  0  0  0  0  0  0
   59.7940   34.6160   45.9560 C   0  0  0  0  0  0  0  0  0  0  0  0
   59.8670   33.9710   47.1730 C   0  0  0  0  0  0  0  0  0  0  0  0
   60.6090   34.5400   48.1700 O   0  0  0  0  0  0  0  0  0  0  0  0
   61.8580   34.1300   48.6030 C   0  0  0  0  0  0  0  0  0  0  0  0
   62.3040   34.2270   49.8880 C   0  0  0  0  0  0  0  0  0  0  0  0
   63.5740   33.7790   50.1860 C   0  0  0  0  0  0  0  0  0  0  0  0
   64.4090   33.2400   49.2420 C   0  0  0  0  0  0  0  0  0  0  0  0
   65.6910   32.7800   49.5100 O   0  0  0  0  0  0  0  0  0  0  0  0
   63.9710   33.1350   47.9380 C   0  0  0  0  0  0  0  0  0  0  0  0
   62.7010   33.5860   47.6550 C   0  0  0  0  0  0  0  0  0  0  0  0
   59.1740   32.7840   47.2790 C   0  0  0  0  0  0  0  0  0  0  0  0
   58.4340   32.2650   46.2030 C   0  0  0  0  0  0  0  0  0  0  0  0
   57.7810   31.0810   46.4720 O   0  0  0  0  0  0  0  0  0  0  0  0
   56.0390   27.7660   45.2910 N   0  0  0  0  0  0  0  0  0  0  0  0
   56.0780   26.8630   46.2560 N   0  0  0  0  0  0  0  0  0  0  0  0
   57.6704   25.9525   48.4842 H   0  0  0  0  0  0  0  0  0  0  0  0
   57.3469   24.6102   47.3351 H   0  0  0  0  0  0  0  0  0  0  0  0
   58.9470   25.4266   47.3351 H   0  0  0  0  0  0  0  0  0  0  0  0
   59.2631   27.2442   45.5380 H   0  0  0  0  0  0  0  0  0  0  0  0
   57.5553   31.3410   42.2420 H   0  0  0  0  0  0  0  0  0  0  0  0
   57.0703   33.3954   43.3680 H   0  0  0  0  0  0  0  0  0  0  0  0
   59.0520   34.6670   43.9603 H   0  0  0  0  0  0  0  0  0  0  0  0
   60.3303   35.5673   45.8239 H   0  0  0  0  0  0  0  0  0  0  0  0
   61.6626   34.6548   50.6726 H   0  0  0  0  0  0  0  0  0  0  0  0
   63.9313   33.8574   51.2234 H   0  0  0  0  0  0  0  0  0  0  0  0
   66.4070   32.6750   48.8250 H   0  0  0  0  0  0  0  0  0  0  0  0
   64.6124   32.7069   47.1535 H   0  0  0  0  0  0  0  0  0  0  0  0
   62.3393   33.5087   46.6190 H   0  0  0  0  0  0  0  0  0  0  0  0
   59.2009   32.2297   48.2288 H   0  0  0  0  0  0  0  0  0  0  0  0
   56.9220   30.7970   46.0530 H   0  0  0  0  0  0  0  0  0  0  0  0
   55.1520   28.1950   44.9160 H   0  0  0  0  0  0  0  0  0  0  0  0
   55.2310   26.4890   46.7390 H   0  0  0  0  0  0  0  0  0  0  0  0
  1  2  1  0
  2  3  2  0
  3  4  1  0
  4  5  2  0
  5  6  1  0
  6  7  2  0
  6  8  1  0
  8  9  2  0
  9 10  1  0
 10 11  2  0
 11 12  1  0
 12 13  2  0
 13 14  1  0
 14 15  1  0
 15 16  2  0
 16 17  1  0
 17 18  2  0
 18 19  1  0
 18 20  1  0
 20 21  2  0
 13 22  1  0
 22 23  2  0
 23 24  1  0
  4 25  1  0
 25 26  1  0
 26  2  1  0
 23 10  1  0
 21 15  1  0
  1 27  1  0
  1 28  1  0
  1 29  1  0
  3 30  1  0
  8 31  1  0
  9 32  1  0
 11 33  1  0
 12 34  1  0
 16 35  1  0
 17 36  1  0
 19 37  1  0
 20 38  1  0
 21 39  1  0
 22 40  1  0
 24 41  1  0
 25 42  1  0
 26 43  1  0
M  END
>  <smiles>  (69) 
Cc1cc(=NC(=O)C=Cc2ccc(Oc3ccc(O)cc3)cc2O)[nH][nH]1

>  <score_type>  (69) 
oracle

>  <origin>  (69) 
adg

>  <m_score__min__energy>  (69) 
-8.9100000000000001

>  <m_primary>  (69) 
energy

$$$$
69:0
     RDKit          3D

 37 38  0  0  0  0  0  0  0  0999 V2000
   54.3890   25.0810   45.6020 C   0  0  0  0  0  0  0  0  0  0  0  0
   55.0140   26.3400   45.9870 N   0  0  0  0  0  0  0  0  0  0  0  0
   56.4130   26.5230   46.2550 C   0  0  0  0  0  0  0  0  0  0  0  0
   56.9850   25.7260   47.0470 O   0  0  0  0  0  0  0  0  0  0  0  0
   57.1970   27.6350   45.6730 C   0  0  0  0  0  0  0  0  0  0  0  0
   58.4680   27.3830   45.1360 C   0  0  0  0  0  0  0  0  0  0  0  0
   59.2010   28.4130   44.5440 C   0  0  0  0  0  0  0  0  0  0  0  0
   58.6670   29.7010   44.4720 C   0  0  0  0  0  0  0  0  0  0  0  0
   57.3990   29.9730   44.9980 C   0  0  0  0  0  0  0  0  0  0  0  0
   56.8640   31.2960   44.8440 N   0  0  0  0  0  0  0  0  0  0  0  0
   57.4610   32.3930   44.1380 C   0  0  0  0  0  0  0  0  0  0  0  0
   57.9230   32.2430   42.9760 O   0  0  0  0  0  0  0  0  0  0  0  0
   57.5180   33.7410   44.7920 C   0  0  0  0  0  0  0  0  0  0  0  0
   58.9210   34.0350   45.3280 C   0  0  0  0  0  0  0  0  0  0  0  0
   58.9240   34.0880   47.1600 S   0  0  0  0  0  0  0  0  0  0  0  0
   59.4080   32.3770   47.3790 C   0  0  0  0  0  0  0  0  0  0  0  0
   60.6100   31.9080   46.8400 C   0  0  0  0  0  0  0  0  0  0  0  0
   60.9630   30.5690   47.0200 C   0  0  0  0  0  0  0  0  0  0  0  0
   60.1130   29.7170   47.7290 C   0  0  0  0  0  0  0  0  0  0  0  0
   58.9180   30.2220   48.2490 C   0  0  0  0  0  0  0  0  0  0  0  0
   58.5930   31.5300   48.0630 N   0  0  0  0  0  0  0  0  0  0  0  0
   56.6590   28.9300   45.5860 C   0  0  0  0  0  0  0  0  0  0  0  0
   54.1099   24.5188   46.5054 H   0  0  0  0  0  0  0  0  0  0  0  0
   53.4882   25.2863   45.0050 H   0  0  0  0  0  0  0  0  0  0  0  0
   55.0971   24.4876   45.0050 H   0  0  0  0  0  0  0  0  0  0  0  0
   58.8896   26.3680   45.1816 H   0  0  0  0  0  0  0  0  0  0  0  0
   60.2010   28.2095   44.1335 H   0  0  0  0  0  0  0  0  0  0  0  0
   59.2467   30.5072   43.9988 H   0  0  0  0  0  0  0  0  0  0  0  0
   57.2471   34.5101   44.0537 H   0  0  0  0  0  0  0  0  0  0  0  0
   56.8128   33.7496   45.6362 H   0  0  0  0  0  0  0  0  0  0  0  0
   59.6085   33.2458   44.9895 H   0  0  0  0  0  0  0  0  0  0  0  0
   59.2440   35.0153   44.9477 H   0  0  0  0  0  0  0  0  0  0  0  0
   61.2704   32.5866   46.2802 H   0  0  0  0  0  0  0  0  0  0  0  0
   61.9071   30.1865   46.6049 H   0  0  0  0  0  0  0  0  0  0  0  0
   60.3811   28.6604   47.8764 H   0  0  0  0  0  0  0  0  0  0  0  0
   58.2398   29.5614   48.8091 H   0  0  0  0  0  0  0  0  0  0  0  0
   55.6519   29.1303   45.9804 H   0  0  0  0  0  0  0  0  0  0  0  0
  1  2  1  0
  2  3  1  0
  3  4  2  0
  3  5  1  0
  5  6  2  0
  6  7  1  0
  7  8  2  0
  8  9  1  0
  9 10  1  0
 10 11  1  0
 11 12  2  0
 11 13  1  0
 13 14  1  0
 14 15  1  0
 15 16  1  0
 16 17  2  0
 17 18  1  0
 18 19  2  0
 19 20  1  0
 20 21  2  0
  9 22  2  0
 22  5  1  0
 21 16  1  0
  1 23  1  0
  1 24  1  0
  1 25  1  0
  6 26  1  0
  7 27  1  0
  8 28  1  0
 13 29  1  0
 13 30  1  0
 14 31  1  0
 14 32  1  0
 17 33  1  0
 18 34  1  0
 19 35  1  0
 20 36  1  0
 22 37  1  0
M  CHG  2   2  -1  10  -1
M  END
>  <UniqueID>  (70) 
63

>  <SMILES>  (70) 
C[N-]C(=O)c1cccc([N-]C(=O)CCSc2ccccn2)c1

>  <Energy>  (70) 
37.377565622181116

>  <Genealogy>  (70) 
C[N-]C(=O)c1cccc([N-]C(=O)CCSc2ccccn2)c1 (protonated)
C[N-]C(=O)c1cccc([N-]C(=O)CCSc2ccccn2)c1 (3D coordinates assigned)
C[N-]C(=O)c1cccc([N-]C(=O)CCSc2ccccn2)c1 (optimized conformer: 37.377565622181116 kcal/mol)

>  <smiles>  (70) 
CNC(=O)c1cccc(NC(=O)CCSc2ccccn2)c1

>  <score_type>  (70) 
oracle

>  <origin>  (70) 
adg

>  <m_score__min__energy>  (70) 
-11.15

>  <m_primary>  (70) 
energy

$$$$
70:0
     RDKit          3D

 57 60  0  0  1  0  0  0  0  0999 V2000
   62.6490   33.8160   46.8350 N   0  0  0  0  0  0  0  0  0  0  0  0
   63.4710   33.6960   48.0260 C   0  0  1  0  0  0  0  0  0  0  0  0
   62.7840   34.1840   49.2550 C   0  0  0  0  0  0  0  0  0  0  0  0
   61.4440   34.5950   49.0070 N   0  0  0  0  0  0  0  0  0  0  0  0
   60.4140   33.8690   48.8510 C   0  0  0  0  0  0  0  0  0  0  0  0
   59.7630   33.4210   49.9820 C   0  0  0  0  0  0  0  0  0  0  0  0
   58.6490   32.6350   49.7940 C   0  0  0  0  0  0  0  0  0  0  0  0
   57.9560   32.1570   50.9350 N   0  0  0  0  0  0  0  0  0  0  0  0
   57.5440   32.7690   52.1740 C   0  0  0  0  0  0  0  0  0  0  0  0
   56.9310   31.4620   52.6190 C   0  0  0  0  0  0  0  0  0  0  0  0
   57.3880   30.8670   51.3070 C   0  0  0  0  0  0  0  0  0  0  0  0
   58.2440   32.3410   48.5450 N   0  0  0  0  0  0  0  0  0  0  0  0
   58.8820   32.7800   47.4320 C   0  0  0  0  0  0  0  0  0  0  0  0
   58.3780   32.4160   46.1140 C   0  0  0  0  0  0  0  0  0  0  0  0
   58.4980   33.3100   45.0690 C   0  0  0  0  0  0  0  0  0  0  0  0
   58.0530   33.0500   43.7970 C   0  0  0  0  0  0  0  0  0  0  0  0
   57.4540   31.8330   43.5430 C   0  0  0  0  0  0  0  0  0  0  0  0
   57.3380   30.9420   44.5960 C   0  0  0  0  0  0  0  0  0  0  0  0
   56.5780   29.4010   44.2700 S   0  0  0  0  0  0  0  0  0  0  0  0
   56.6260   29.0940   42.5860 N   0  0  0  0  0  0  0  0  0  0  0  0
   57.3210   28.3430   45.0290 O   0  0  0  0  0  0  0  0  0  0  0  0
   55.1470   29.4530   44.7020 O   0  0  0  0  0  0  0  0  0  0  0  0
   57.7900   31.2180   45.8680 C   0  0  0  0  0  0  0  0  0  0  0  0
   59.9650   33.5430   47.6320 N   0  0  0  0  0  0  0  0  0  0  0  0
   63.8110   32.2370   48.1730 C   0  0  0  0  0  0  0  0  0  0  0  0
   62.6030   31.3890   48.2120 C   0  0  0  0  0  0  0  0  0  0  0  0
   61.8980   30.9740   47.1100 C   0  0  0  0  0  0  0  0  0  0  0  0
   60.7600   30.1750   47.2030 C   0  0  0  0  0  0  0  0  0  0  0  0
   60.3580   29.8080   48.4660 C   0  0  0  0  0  0  0  0  0  0  0  0
   61.0280   30.1960   49.6070 C   0  0  0  0  0  0  0  0  0  0  0  0
   62.1450   30.9840   49.4460 C   0  0  0  0  0  0  0  0  0  0  0  0
   63.2290   34.0740   46.0060 H   0  0  0  0  0  0  0  0  0  0  0  0
   61.9390   34.5850   46.9780 H   0  0  0  0  0  0  0  0  0  0  0  0
   64.3682   34.3221   47.9116 H   0  0  0  0  0  0  0  0  0  0  0  0
   62.7718   33.3725   49.9975 H   0  0  0  0  0  0  0  0  0  0  0  0
   63.3388   35.0606   49.6208 H   0  0  0  0  0  0  0  0  0  0  0  0
   60.1188   33.6807   50.9899 H   0  0  0  0  0  0  0  0  0  0  0  0
   58.3779   33.1111   52.8045 H   0  0  0  0  0  0  0  0  0  0  0  0
   56.9432   33.6904   52.1660 H   0  0  0  0  0  0  0  0  0  0  0  0
   57.3981   31.0176   53.5102 H   0  0  0  0  0  0  0  0  0  0  0  0
   55.8824   31.3995   52.9453 H   0  0  0  0  0  0  0  0  0  0  0  0
   58.1292   30.0609   51.4111 H   0  0  0  0  0  0  0  0  0  0  0  0
   56.6748   30.3555   50.6439 H   0  0  0  0  0  0  0  0  0  0  0  0
   58.9751   34.2813   45.2661 H   0  0  0  0  0  0  0  0  0  0  0  0
   58.1713   33.7957   42.9971 H   0  0  0  0  0  0  0  0  0  0  0  0
   57.0819   31.5799   42.5393 H   0  0  0  0  0  0  0  0  0  0  0  0
   55.7190   29.3570   42.1480 H   0  0  0  0  0  0  0  0  0  0  0  0
   57.4070   29.6390   42.1700 H   0  0  0  0  0  0  0  0  0  0  0  0
   57.6758   30.4773   46.6732 H   0  0  0  0  0  0  0  0  0  0  0  0
   60.4990   33.9130   46.8200 H   0  0  0  0  0  0  0  0  0  0  0  0
   64.4333   31.9296   47.3197 H   0  0  0  0  0  0  0  0  0  0  0  0
   64.3481   32.1074   49.1242 H   0  0  0  0  0  0  0  0  0  0  0  0
   62.2451   31.2845   46.1135 H   0  0  0  0  0  0  0  0  0  0  0  0
   60.2086   29.8527   46.3074 H   0  0  0  0  0  0  0  0  0  0  0  0
   59.4628   29.1773   48.5705 H   0  0  0  0  0  0  0  0  0  0  0  0
   60.6838   29.8883   50.6054 H   0  0  0  0  0  0  0  0  0  0  0  0
   62.6961   31.3044   50.3425 H   0  0  0  0  0  0  0  0  0  0  0  0
  1  2  1  0
  2  3  1  0
  3  4  1  0
  4  5  2  0
  5  6  1  0
  6  7  2  0
  7  8  1  0
  8  9  1  0
  9 10  1  0
 10 11  1  0
  7 12  1  0
 12 13  2  0
 13 14  1  0
 14 15  2  0
 15 16  1  0
 16 17  2  0
 17 18  1  0
 18 19  1  0
 19 20  1  0
 19 21  2  0
 19 22  2  0
 18 23  2  0
 13 24  1  0
  2 25  1  0
 25 26  1  0
 26 27  2  0
 27 28  1  0
 28 29  2  0
 29 30  1  0
 30 31  2  0
 24  5  1  0
 31 26  1  0
 11  8  1  0
 23 14  1  0
  1 32  1  0
  1 33  1  0
  2 34  1  6
  3 35  1  0
  3 36  1  0
  6 37  1  0
  9 38  1  0
  9 39  1  0
 10 40  1  0
 10 41  1  0
 11 42  1  0
 11 43  1  0
 15 44  1  0
 16 45  1  0
 17 46  1  0
 20 47  1  0
 20 48  1  0
 23 49  1  0
 24 50  1  0
 25 51  1  0
 25 52  1  0
 27 53  1  0
 28 54  1  0
 29 55  1  0
 30 56  1  0
 31 57  1  0
M  END
>  <smiles>  (71) 
NC(CN=c1cc(N2CCC2)nc(-c2cccc(S(N)(=O)=O)c2)[nH]1)Cc1ccccc1

>  <score_type>  (71) 
oracle

>  <origin>  (71) 
adg

>  <m_score__min__energy>  (71) 
-10.25

>  <m_primary>  (71) 
energy

$$$$
71:0
     RDKit          3D

 64 67  0  0  0  0  0  0  0  0999 V2000
   55.8910   30.0910   43.0180 C   0  0  0  0  0  0  0  0  0  0  0  0
   56.7260   29.6790   44.1890 C   0  0  0  0  0  0  0  0  0  0  0  0
   57.9150   30.3550   44.4810 C   0  0  0  0  0  0  0  0  0  0  0  0
   58.6960   29.9320   45.5570 C   0  0  0  0  0  0  0  0  0  0  0  0
   58.2890   28.8410   46.3370 C   0  0  0  0  0  0  0  0  0  0  0  0
   59.1600   28.3580   47.4350 C   0  0  0  0  0  0  0  0  0  0  0  0
   59.4740   29.2530   48.4660 C   0  0  0  0  0  0  0  0  0  0  0  0
   60.3060   28.8780   49.5340 C   0  0  0  0  0  0  0  0  0  0  0  0
   60.6130   29.7890   50.6740 C   0  0  0  0  0  0  0  0  0  0  0  0
   60.3420   29.4120   51.8450 O   0  0  0  0  0  0  0  0  0  0  0  0
   61.0490   31.1450   50.4850 N   0  0  0  0  0  0  0  0  0  0  0  0
   60.6730   31.9900   49.3960 C   0  0  0  0  0  0  0  0  0  0  0  0
   61.4240   31.9770   48.2120 C   0  0  0  0  0  0  0  0  0  0  0  0
   61.0240   32.7440   47.1160 C   0  0  0  0  0  0  0  0  0  0  0  0
   59.8830   33.5510   47.2010 C   0  0  0  0  0  0  0  0  0  0  0  0
   59.3150   34.4420   45.7940 S   0  0  0  0  0  0  0  0  0  0  0  0
   57.5550   34.2250   45.6380 C   0  0  0  0  0  0  0  0  0  0  0  0
   59.6340   35.9020   45.9550 O   0  0  0  0  0  0  0  0  0  0  0  0
   59.9930   33.9310   44.5520 O   0  0  0  0  0  0  0  0  0  0  0  0
   59.1550   33.5990   48.3960 C   0  0  0  0  0  0  0  0  0  0  0  0
   59.5430   32.8250   49.5010 C   0  0  0  0  0  0  0  0  0  0  0  0
   58.7320   32.8330   50.6900 N   0  0  0  0  0  0  0  0  0  0  0  0
   57.5520   31.9700   50.7850 C   0  0  0  0  0  0  0  0  0  0  0  0
   57.6550   31.0240   52.0010 C   0  0  0  0  0  0  0  0  0  0  0  0
   58.6010   31.5030   53.0420 N   0  0  0  0  0  0  0  0  0  0  0  0
   58.2820   30.8920   54.3450 C   0  0  0  0  0  0  0  0  0  0  0  0
   58.5960   32.9760   53.1530 C   0  0  0  0  0  0  0  0  0  0  0  0
   59.1540   33.6030   51.8670 C   0  0  0  0  0  0  0  0  0  0  0  0
   60.8540   27.5840   49.5280 C   0  0  0  0  0  0  0  0  0  0  0  0
   60.5400   26.6790   48.5120 C   0  0  0  0  0  0  0  0  0  0  0  0
   59.6710   27.0420   47.4720 C   0  0  0  0  0  0  0  0  0  0  0  0
   59.3290   26.0260   46.4140 C   0  0  0  0  0  0  0  0  0  0  0  0
   57.0970   28.1760   45.9970 C   0  0  0  0  0  0  0  0  0  0  0  0
   56.7180   27.1650   46.6450 O   0  0  0  0  0  0  0  0  0  0  0  0
   56.3540   28.6090   44.9430 N   0  0  0  0  0  0  0  0  0  0  0  0
   54.9584   30.5512   43.3765 H   0  0  0  0  0  0  0  0  0  0  0  0
   56.4477   30.8178   42.4083 H   0  0  0  0  0  0  0  0  0  0  0  0
   55.6529   29.2069   42.4083 H   0  0  0  0  0  0  0  0  0  0  0  0
   58.2314   31.2120   43.8682 H   0  0  0  0  0  0  0  0  0  0  0  0
   59.6337   30.4562   45.7938 H   0  0  0  0  0  0  0  0  0  0  0  0
   59.0600   30.2717   48.4387 H   0  0  0  0  0  0  0  0  0  0  0  0
   62.3322   31.3599   48.1463 H   0  0  0  0  0  0  0  0  0  0  0  0
   61.6067   32.7142   46.1835 H   0  0  0  0  0  0  0  0  0  0  0  0
   57.1023   34.1692   46.6390 H   0  0  0  0  0  0  0  0  0  0  0  0
   57.1277   35.0773   45.0893 H   0  0  0  0  0  0  0  0  0  0  0  0
   57.3475   33.2945   45.0893 H   0  0  0  0  0  0  0  0  0  0  0  0
   58.2708   34.2492   48.4697 H   0  0  0  0  0  0  0  0  0  0  0  0
   56.6550   32.5976   50.8924 H   0  0  0  0  0  0  0  0  0  0  0  0
   57.4888   31.3608   49.8713 H   0  0  0  0  0  0  0  0  0  0  0  0
   56.6572   30.9282   52.4539 H   0  0  0  0  0  0  0  0  0  0  0  0
   58.0379   30.0610   51.6321 H   0  0  0  0  0  0  0  0  0  0  0  0
   59.5690   31.1920   52.7820 H   0  0  0  0  0  0  0  0  0  0  0  0
   58.6269   31.5527   55.1540 H   0  0  0  0  0  0  0  0  0  0  0  0
   57.1943   30.7494   54.4266 H   0  0  0  0  0  0  0  0  0  0  0  0
   58.7867   29.9180   54.4266 H   0  0  0  0  0  0  0  0  0  0  0  0
   57.5651   33.3256   53.3108 H   0  0  0  0  0  0  0  0  0  0  0  0
   59.2266   33.2756   54.0031 H   0  0  0  0  0  0  0  0  0  0  0  0
   58.7816   34.6341   51.7767 H   0  0  0  0  0  0  0  0  0  0  0  0
   60.2528   33.5978   51.9183 H   0  0  0  0  0  0  0  0  0  0  0  0
   61.5387   27.2803   50.3336 H   0  0  0  0  0  0  0  0  0  0  0  0
   60.9788   25.6704   48.5272 H   0  0  0  0  0  0  0  0  0  0  0  0
   59.0133   25.0882   46.8946 H   0  0  0  0  0  0  0  0  0  0  0  0
   58.5107   26.4104   45.7874 H   0  0  0  0  0  0  0  0  0  0  0  0
   60.2132   25.8373   45.7874 H   0  0  0  0  0  0  0  0  0  0  0  0
  1  2  1  0
  2  3  2  0
  3  4  1  0
  4  5  2  0
  5  6  1  0
  6  7  2  0
  7  8  1  0
  8  9  1  0
  9 10  2  0
  9 11  1  0
 11 12  1  0
 12 13  2  0
 13 14  1  0
 14 15  2  0
 15 16  1  0
 16 17  1  0
 16 18  2  0
 16 19  2  0
 15 20  1  0
 20 21  2  0
 21 22  1  0
 22 23  1  0
 23 24  1  0
 24 25  1  0
 25 26  1  0
 25 27  1  0
 27 28  1  0
  8 29  2  0
 29 30  1  0
 30 31  2  0
 31 32  1  0
  5 33  1  0
 33 34  2  0
 33 35  1  0
 35  2  1  0
 31  6  1  0
 21 12  1  0
 28 22  1  0
  1 36  1  0
  1 37  1  0
  1 38  1  0
  3 39  1  0
  4 40  1  0
  7 41  1  0
 13 42  1  0
 14 43  1  0
 17 44  1  0
 17 45  1  0
 17 46  1  0
 20 47  1  0
 23 48  1  0
 23 49  1  0
 24 50  1  0
 24 51  1  0
 25 52  1  0
 26 53  1  0
 26 54  1  0
 26 55  1  0
 27 56  1  0
 27 57  1  0
 28 58  1  0
 28 59  1  0
 29 60  1  0
 30 61  1  0
 32 62  1  0
 32 63  1  0
 32 64  1  0
M  CHG  3  11  -1  25   1  35  -1
M  END
>  <UniqueID>  (72) 
64

>  <SMILES>  (72) 
Cc1ccc(-c2cc(C(=O)[N-]c3ccc(S(C)(=O)=O)cc3N3CC[NH+](C)CC3)ccc2C)c(=O)[n-]1

>  <Energy>  (72) 
93.54607426652736

>  <Genealogy>  (72) 
Cc1ccc(-c2cc(C(=O)[N-]c3ccc(S(C)(=O)=O)cc3N3CC[NH+](C)CC3)ccc2C)c(=O)[n-]1 (protonated)
Cc1ccc(-c2cc(C(=O)[N-]c3ccc(S(C)(=O)=O)cc3N3CC[NH+](C)CC3)ccc2C)c(=O)[n-]1 (3D coordinates assigned)
Cc1ccc(-c2cc(C(=O)[N-]c3ccc(S(C)(=O)=O)cc3N3CC[NH+](C)CC3)ccc2C)c(=O)[n-]1 (nonaromatic ring conformer: 93.54607426652736 kcal/mol)

>  <smiles>  (72) 
Cc1ccc(-c2cc(C(=O)Nc3ccc(S(C)(=O)=O)cc3N3CCN(C)CC3)ccc2C)c(=O)[nH]1

>  <score_type>  (72) 
oracle

>  <origin>  (72) 
adg

>  <m_score__min__energy>  (72) 
-11.6

>  <m_primary>  (72) 
energy

$$$$
72:0
     RDKit          3D

 55 58  0  0  0  0  0  0  0  0999 V2000
   55.8830   25.1680   46.4800 O   0  0  0  0  0  0  0  0  0  0  0  0
   57.0930   24.9210   46.2130 C   0  0  0  0  0  0  0  0  0  0  0  0
   57.4610   23.5940   45.5940 C   0  0  0  0  0  0  0  0  0  0  0  0
   56.2400   22.7590   45.1900 C   0  0  0  0  0  0  0  0  0  0  0  0
   55.4700   22.3430   46.3620 N   0  0  0  0  0  0  0  0  0  0  0  0
   54.1360   22.1270   46.4290 C   0  0  0  0  0  0  0  0  0  0  0  0
   53.2640   22.2640   45.3580 O   0  0  0  0  0  0  0  0  0  0  0  0
   53.7740   21.7390   47.7030 C   0  0  0  0  0  0  0  0  0  0  0  0
   54.9370   21.6820   48.4390 C   0  0  0  0  0  0  0  0  0  0  0  0
   55.9550   22.0770   47.5930 C   0  0  0  0  0  0  0  0  0  0  0  0
   57.2960   22.1840   47.9430 O   0  0  0  0  0  0  0  0  0  0  0  0
   54.9840   21.3520   49.9030 C   0  0  0  0  0  0  0  0  0  0  0  0
   53.7140   20.5830   50.3240 C   0  0  0  0  0  0  0  0  0  0  0  0
   52.4350   21.2500   49.7650 C   0  0  0  0  0  0  0  0  0  0  0  0
   52.4350   21.2960   48.2170 C   0  0  0  0  0  0  0  0  0  0  0  0
   58.0850   25.9430   46.4320 N   0  0  0  0  0  0  0  0  0  0  0  0
   59.3470   25.9630   45.6780 C   0  0  0  0  0  0  0  0  0  0  0  0
   59.7310   27.4130   45.3650 C   0  0  0  0  0  0  0  0  0  0  0  0
   59.8670   28.2350   46.5920 N   0  0  0  0  0  0  0  0  0  0  0  0
   59.8100   29.6960   46.3420 C   0  0  0  0  0  0  0  0  0  0  0  0
   58.5810   30.1410   45.5710 C   0  0  0  0  0  0  0  0  0  0  0  0
   58.5890   31.3480   44.8440 C   0  0  0  0  0  0  0  0  0  0  0  0
   57.4620   31.7490   44.1170 C   0  0  0  0  0  0  0  0  0  0  0  0
   56.3120   30.9550   44.1180 C   0  0  0  0  0  0  0  0  0  0  0  0
   56.2810   29.7700   44.8590 C   0  0  0  0  0  0  0  0  0  0  0  0
   55.1350   28.9870   44.8660 O   0  0  0  0  0  0  0  0  0  0  0  0
   57.4040   29.3700   45.5940 C   0  0  0  0  0  0  0  0  0  0  0  0
   59.0830   27.7730   47.7650 C   0  0  0  0  0  0  0  0  0  0  0  0
   57.7920   27.0380   47.3660 C   0  0  0  0  0  0  0  0  0  0  0  0
   58.0684   23.7828   44.6965 H   0  0  0  0  0  0  0  0  0  0  0  0
   58.0139   23.0205   46.3526 H   0  0  0  0  0  0  0  0  0  0  0  0
   55.5954   23.3613   44.5329 H   0  0  0  0  0  0  0  0  0  0  0  0
   56.5930   21.8573   44.6682 H   0  0  0  0  0  0  0  0  0  0  0  0
   55.8681   20.7296   50.1057 H   0  0  0  0  0  0  0  0  0  0  0  0
   55.0401   22.2884   50.4774 H   0  0  0  0  0  0  0  0  0  0  0  0
   53.7764   19.5535   49.9416 H   0  0  0  0  0  0  0  0  0  0  0  0
   53.6548   20.5902   51.4224 H   0  0  0  0  0  0  0  0  0  0  0  0
   51.5588   20.6776   50.1035 H   0  0  0  0  0  0  0  0  0  0  0  0
   52.4011   22.2850   50.1361 H   0  0  0  0  0  0  0  0  0  0  0  0
   52.2109   20.2928   47.8253 H   0  0  0  0  0  0  0  0  0  0  0  0
   51.6711   22.0135   47.8829 H   0  0  0  0  0  0  0  0  0  0  0  0
   60.1407   25.4948   46.2787 H   0  0  0  0  0  0  0  0  0  0  0  0
   59.2219   25.4054   44.7381 H   0  0  0  0  0  0  0  0  0  0  0  0
   60.6910   27.4170   44.8280 H   0  0  0  0  0  0  0  0  0  0  0  0
   58.9278   27.8501   44.7536 H   0  0  0  0  0  0  0  0  0  0  0  0
   59.8162   30.2138   47.3125 H   0  0  0  0  0  0  0  0  0  0  0  0
   60.6836   29.9481   45.7229 H   0  0  0  0  0  0  0  0  0  0  0  0
   59.4888   31.9807   44.8478 H   0  0  0  0  0  0  0  0  0  0  0  0
   57.4816   32.6885   43.5453 H   0  0  0  0  0  0  0  0  0  0  0  0
   55.4310   31.2625   43.5356 H   0  0  0  0  0  0  0  0  0  0  0  0
   57.3658   28.4480   46.1927 H   0  0  0  0  0  0  0  0  0  0  0  0
   59.7078   27.0892   48.3583 H   0  0  0  0  0  0  0  0  0  0  0  0
   58.7927   28.6638   48.3415 H   0  0  0  0  0  0  0  0  0  0  0  0
   57.3178   26.6254   48.2687 H   0  0  0  0  0  0  0  0  0  0  0  0
   57.1167   27.7524   46.8725 H   0  0  0  0  0  0  0  0  0  0  0  0
  1  2  2  0
  2  3  1  0
  3  4  1  0
  4  5  1  0
  5  6  1  0
  6  7  1  0
  6  8  2  0
  8  9  1  0
  9 10  2  0
 10 11  1  0
  9 12  1  0
 12 13  1  0
 13 14  1  0
 14 15  1  0
  2 16  1  0
 16 17  1  0
 17 18  1  0
 18 19  1  0
 19 20  1  0
 20 21  1  0
 21 22  2  0
 22 23  1  0
 23 24  2  0
 24 25  1  0
 25 26  1  0
 25 27  2  0
 19 28  1  0
 28 29  1  0
 10  5  1  0
 29 16  1  0
 15  8  1  0
 27 21  1  0
  3 30  1  0
  3 31  1  0
  4 32  1  0
  4 33  1  0
 12 34  1  0
 12 35  1  0
 13 36  1  0
 13 37  1  0
 14 38  1  0
 14 39  1  0
 15 40  1  0
 15 41  1  0
 17 42  1  0
 17 43  1  0
 18 44  1  0
 18 45  1  0
 20 46  1  0
 20 47  1  0
 22 48  1  0
 23 49  1  0
 24 50  1  0
 27 51  1  0
 28 52  1  0
 28 53  1  0
 29 54  1  0
 29 55  1  0
M  CHG  3   7  -1  11  -1  26  -1
M  END
>  <UniqueID>  (73) 
65

>  <SMILES>  (73) 
O=C(CCn1c([O-])c2c(c1[O-])CCCC2)N1CCN(Cc2cccc([O-])c2)CC1

>  <Energy>  (73) 
94.01657469120504

>  <Genealogy>  (73) 
O=C(CCn1c([O-])c2c(c1[O-])CCCC2)N1CCN(Cc2cccc([O-])c2)CC1 (protonated)
O=C(CCn1c([O-])c2c(c1[O-])CCCC2)N1CCN(Cc2cccc([O-])c2)CC1 (3D coordinates assigned)
O=C(CCn1c([O-])c2c(c1[O-])CCCC2)N1CCN(Cc2cccc([O-])c2)CC1 (nonaromatic ring conformer: 94.01657469120504 kcal/mol)

>  <smiles>  (73) 
O=C(CCn1c(O)c2c(c1O)CCCC2)N1CCN(Cc2cccc(O)c2)CC1

>  <score_type>  (73) 
oracle

>  <origin>  (73) 
adg

>  <m_score__min__energy>  (73) 
-14.800000000000001

>  <m_primary>  (73) 
energy

$$$$
73:0
     RDKit          3D

 42 44  0  0  0  0  0  0  0  0999 V2000
   66.2070   32.7470   49.8540 N   0  0  0  0  0  0  0  0  0  0  0  0
   65.1060   32.9840   49.5870 C   0  0  0  0  0  0  0  0  0  0  0  0
   63.7370   33.2790   49.2540 C   0  0  0  0  0  0  0  0  0  0  0  0
   63.2600   33.0310   47.9620 C   0  0  0  0  0  0  0  0  0  0  0  0
   61.9300   33.3170   47.6380 C   0  0  0  0  0  0  0  0  0  0  0  0
   61.0610   33.8480   48.6030 C   0  0  0  0  0  0  0  0  0  0  0  0
   59.6990   34.1400   48.2400 N   0  0  0  0  0  0  0  0  0  0  0  0
   59.1350   33.8490   46.9520 C   0  0  0  0  0  0  0  0  0  0  0  0
   58.5180   32.6070   46.7500 C   0  0  0  0  0  0  0  0  0  0  0  0
   57.9660   32.2750   45.5020 C   0  0  0  0  0  0  0  0  0  0  0  0
   57.3640   31.0310   45.2630 O   0  0  0  0  0  0  0  0  0  0  0  0
   57.7200   29.8240   45.8840 C   0  0  0  0  0  0  0  0  0  0  0  0
   58.8620   29.7960   46.6930 C   0  0  0  0  0  0  0  0  0  0  0  0
   59.2570   28.6100   47.3160 C   0  0  0  0  0  0  0  0  0  0  0  0
   58.5180   27.4390   47.1280 C   0  0  0  0  0  0  0  0  0  0  0  0
   57.3810   27.4490   46.3110 C   0  0  0  0  0  0  0  0  0  0  0  0
   56.4610   25.9710   46.0470 S   0  0  0  0  0  0  0  0  0  0  0  0
   54.7730   26.3410   46.0020 N   0  0  0  0  0  0  0  0  0  0  0  0
   56.7340   24.9990   47.1600 O   0  0  0  0  0  0  0  0  0  0  0  0
   56.8680   25.3400   44.7460 O   0  0  0  0  0  0  0  0  0  0  0  0
   56.9920   28.6380   45.6780 C   0  0  0  0  0  0  0  0  0  0  0  0
   58.0600   33.1880   44.4480 C   0  0  0  0  0  0  0  0  0  0  0  0
   58.6500   34.4380   44.6450 C   0  0  0  0  0  0  0  0  0  0  0  0
   59.1750   34.7880   45.8970 C   0  0  0  0  0  0  0  0  0  0  0  0
   59.7120   36.1040   46.0890 N   0  0  0  0  0  0  0  0  0  0  0  0
   61.5510   34.1070   49.8980 C   0  0  0  0  0  0  0  0  0  0  0  0
   62.8820   33.8200   50.2200 C   0  0  0  0  0  0  0  0  0  0  0  0
   63.9324   32.6103   47.1999 H   0  0  0  0  0  0  0  0  0  0  0  0
   61.5626   33.1243   46.6193 H   0  0  0  0  0  0  0  0  0  0  0  0
   59.0420   34.4560   48.9900 H   0  0  0  0  0  0  0  0  0  0  0  0
   58.4655   31.8845   47.5778 H   0  0  0  0  0  0  0  0  0  0  0  0
   59.4516   30.7131   46.8389 H   0  0  0  0  0  0  0  0  0  0  0  0
   60.1516   28.5977   47.9559 H   0  0  0  0  0  0  0  0  0  0  0  0
   58.8302   26.5075   47.6229 H   0  0  0  0  0  0  0  0  0  0  0  0
   54.2630   25.4290   45.9790 H   0  0  0  0  0  0  0  0  0  0  0  0
   56.1129   28.6435   45.0168 H   0  0  0  0  0  0  0  0  0  0  0  0
   57.6664   32.9199   43.4564 H   0  0  0  0  0  0  0  0  0  0  0  0
   58.7033   35.1538   43.8114 H   0  0  0  0  0  0  0  0  0  0  0  0
   60.3790   36.5300   45.4100 H   0  0  0  0  0  0  0  0  0  0  0  0
   59.4910   36.6440   46.9550 H   0  0  0  0  0  0  0  0  0  0  0  0
   60.8840   34.5369   50.6598 H   0  0  0  0  0  0  0  0  0  0  0  0
   63.2568   34.0201   51.2346 H   0  0  0  0  0  0  0  0  0  0  0  0
  1  2  3  0
  2  3  1  0
  3  4  2  0
  4  5  1  0
  5  6  2  0
  6  7  1  0
  7  8  1  0
  8  9  2  0
  9 10  1  0
 10 11  1  0
 11 12  1  0
 12 13  2  0
 13 14  1  0
 14 15  2  0
 15 16  1  0
 16 17  1  0
 17 18  1  0
 17 19  2  0
 17 20  2  0
 16 21  2  0
 10 22  2  0
 22 23  1  0
 23 24  2  0
 24 25  1  0
  6 26  1  0
 26 27  2  0
 27  3  1  0
 24  8  1  0
 21 12  1  0
  4 28  1  0
  5 29  1  0
  7 30  1  0
  9 31  1  0
 13 32  1  0
 14 33  1  0
 15 34  1  0
 18 35  1  0
 21 36  1  0
 22 37  1  0
 23 38  1  0
 25 39  1  0
 25 40  1  0
 26 41  1  0
 27 42  1  0
M  CHG  1  18  -1
M  END
>  <UniqueID>  (74) 
66

>  <SMILES>  (74) 
N#Cc1ccc(Nc2cc(Oc3cccc(S([NH-])(=O)=O)c3)ccc2N)cc1

>  <Energy>  (74) 
56.68525117633817

>  <Genealogy>  (74) 
N#Cc1ccc(Nc2cc(Oc3cccc(S([NH-])(=O)=O)c3)ccc2N)cc1 (protonated)
N#Cc1ccc(Nc2cc(Oc3cccc(S([NH-])(=O)=O)c3)ccc2N)cc1 (3D coordinates assigned)
N#Cc1ccc(Nc2cc(Oc3cccc(S([NH-])(=O)=O)c3)ccc2N)cc1 (optimized conformer: 56.68525117633817 kcal/mol)

>  <smiles>  (74) 
N#Cc1ccc(Nc2cc(Oc3cccc(S(N)(=O)=O)c3)ccc2N)cc1

>  <score_type>  (74) 
oracle

>  <origin>  (74) 
adg

>  <m_score__min__energy>  (74) 
-12.15

>  <m_primary>  (74) 
energy

$$$$
74:0
     RDKit          3D

 33 35  0  0  0  0  0  0  0  0999 V2000
   56.0380   30.8820   43.4930 O   0  0  0  0  0  0  0  0  0  0  0  0
   57.2520   30.6920   43.7770 C   0  0  0  0  0  0  0  0  0  0  0  0
   58.2720   31.6480   43.2220 C   0  0  0  0  0  0  0  0  0  0  0  0
   58.3630   32.8800   44.0740 C   0  0  0  0  0  0  0  0  0  0  0  0
   59.2270   33.8850   43.8480 N   0  0  0  0  0  0  0  0  0  0  0  0
   58.9870   34.7400   44.8660 C   0  0  0  0  0  0  0  0  0  0  0  0
   59.6090   35.8250   45.0010 O   0  0  0  0  0  0  0  0  0  0  0  0
   58.0280   34.3400   45.7260 N   0  0  0  0  0  0  0  0  0  0  0  0
   57.6430   33.1580   45.2160 C   0  0  0  0  0  0  0  0  0  0  0  0
   56.6520   32.3640   45.7890 O   0  0  0  0  0  0  0  0  0  0  0  0
   57.6230   29.5610   44.5960 N   0  0  0  0  0  0  0  0  0  0  0  0
   58.9830   29.4010   45.1240 C   0  0  0  0  0  0  0  0  0  0  0  0
   59.4360   27.9600   44.9260 C   0  0  0  0  0  0  0  0  0  0  0  0
   58.4240   26.9940   45.4800 C   0  0  0  0  0  0  0  0  0  0  0  0
   58.8380   25.7070   45.8550 C   0  0  0  0  0  0  0  0  0  0  0  0
   57.9160   24.7760   46.3320 C   0  0  0  0  0  0  0  0  0  0  0  0
   58.3440   23.5080   46.7080 O   0  0  0  0  0  0  0  0  0  0  0  0
   56.5630   25.1170   46.4300 C   0  0  0  0  0  0  0  0  0  0  0  0
   55.6460   24.1880   46.9100 O   0  0  0  0  0  0  0  0  0  0  0  0
   56.1310   26.3910   46.0440 C   0  0  0  0  0  0  0  0  0  0  0  0
   54.7810   26.7150   46.1480 O   0  0  0  0  0  0  0  0  0  0  0  0
   57.0530   27.3380   45.5560 C   0  0  0  0  0  0  0  0  0  0  0  0
   56.5600   28.7130   45.1540 C   0  0  0  0  0  0  0  0  0  0  0  0
   59.2542   31.1533   43.1964 H   0  0  0  0  0  0  0  0  0  0  0  0
   57.9660   31.9417   42.2071 H   0  0  0  0  0  0  0  0  0  0  0  0
   56.1320   31.6900   45.2440 H   0  0  0  0  0  0  0  0  0  0  0  0
   59.6662   30.0773   44.5894 H   0  0  0  0  0  0  0  0  0  0  0  0
   58.9920   29.6451   46.1965 H   0  0  0  0  0  0  0  0  0  0  0  0
   59.5647   27.7682   43.8505 H   0  0  0  0  0  0  0  0  0  0  0  0
   60.3865   27.8156   45.4605 H   0  0  0  0  0  0  0  0  0  0  0  0
   59.8993   25.4299   45.7720 H   0  0  0  0  0  0  0  0  0  0  0  0
   55.7709   28.5954   44.3967 H   0  0  0  0  0  0  0  0  0  0  0  0
   56.1853   29.2079   46.0621 H   0  0  0  0  0  0  0  0  0  0  0  0
  1  2  2  0
  2  3  1  0
  3  4  1  0
  4  5  1  0
  5  6  1  0
  6  7  2  0
  6  8  1  0
  8  9  1  0
  9 10  1  0
  2 11  1  0
 11 12  1  0
 12 13  1  0
 13 14  1  0
 14 15  2  0
 15 16  1  0
 16 17  1  0
 16 18  2  0
 18 19  1  0
 18 20  1  0
 20 21  1  0
 20 22  2  0
 22 23  1  0
  9  4  2  0
 23 11  1  0
 22 14  1  0
  3 24  1  0
  3 25  1  0
 10 26  1  0
 12 27  1  0
 12 28  1  0
 13 29  1  0
 13 30  1  0
 15 31  1  0
 23 32  1  0
 23 33  1  0
M  CHG  5   5  -1   8  -1  17  -1  19  -1  21  -1
M  END
>  <UniqueID>  (75) 
67

>  <SMILES>  (75) 
O=C(Cc1[n-]c(=O)[n-]c1O)N1CCc2cc([O-])c([O-])c([O-])c2C1

>  <Energy>  (75) 
66.95459731036198

>  <Genealogy>  (75) 
O=C(Cc1[n-]c(=O)[n-]c1O)N1CCc2cc([O-])c([O-])c([O-])c2C1 (protonated)
O=C(Cc1[n-]c(=O)[n-]c1O)N1CCc2cc([O-])c([O-])c([O-])c2C1 (3D coordinates assigned)
O=C(Cc1[n-]c(=O)[n-]c1O)N1CCc2cc([O-])c([O-])c([O-])c2C1 (nonaromatic ring conformer: 66.95459731036198 kcal/mol)

>  <smiles>  (75) 
O=C(Cc1[nH]c(=O)[nH]c1O)N1CCc2cc(O)c(O)c(O)c2C1

>  <score_type>  (75) 
oracle

>  <origin>  (75) 
adg

>  <m_score__min__energy>  (75) 
-16.780000000000001

>  <m_primary>  (75) 
energy

$$$$
75:0
     RDKit          3D

 47 49  0  0  0  0  0  0  0  0999 V2000
   59.3110   35.3790   46.7440 O   0  0  0  0  0  0  0  0  0  0  0  0
   59.6990   34.7060   45.7530 C   0  0  0  0  0  0  0  0  0  0  0  0
   58.9210   33.5550   45.2630 C   0  0  0  0  0  0  0  0  0  0  0  0
   58.6190   33.4510   43.8960 C   0  0  0  0  0  0  0  0  0  0  0  0
   57.8760   32.3680   43.4170 C   0  0  0  0  0  0  0  0  0  0  0  0
   57.4190   31.3750   44.2980 C   0  0  0  0  0  0  0  0  0  0  0  0
   56.6580   30.1810   43.7800 C   0  0  0  0  0  0  0  0  0  0  0  0
   56.0330   29.3720   44.9230 C   0  0  0  0  0  0  0  0  0  0  0  0
   56.8490   28.2000   45.2440 N   0  0  0  0  0  0  0  0  0  0  0  0
   56.4350   27.0240   45.7440 C   0  0  0  0  0  0  0  0  0  0  0  0
   55.1070   26.6890   45.9820 O   0  0  0  0  0  0  0  0  0  0  0  0
   57.5340   26.2350   46.0010 C   0  0  0  0  0  0  0  0  0  0  0  0
   57.5260   24.8900   46.6640 C   0  0  0  0  0  0  0  0  0  0  0  0
   56.5750   23.9360   45.9950 C   0  0  0  0  0  0  0  0  0  0  0  0
   56.4110   22.7700   46.4490 O   0  0  0  0  0  0  0  0  0  0  0  0
   55.8240   24.3740   44.8540 N   0  0  0  0  0  0  0  0  0  0  0  0
   54.8990   23.4970   44.1400 C   0  0  0  0  0  0  0  0  0  0  0  0
   53.5950   23.3920   44.8830 C   0  0  0  0  0  0  0  0  0  0  0  0
   52.4460   24.0240   44.3790 C   0  0  0  0  0  0  0  0  0  0  0  0
   51.2340   23.9370   45.0710 C   0  0  0  0  0  0  0  0  0  0  0  0
   51.1600   23.2190   46.2680 C   0  0  0  0  0  0  0  0  0  0  0  0
   49.9840   23.1370   46.9370 F   0  0  0  0  0  0  0  0  0  0  0  0
   52.3000   22.5890   46.7760 C   0  0  0  0  0  0  0  0  0  0  0  0
   53.5140   22.6760   46.0900 C   0  0  0  0  0  0  0  0  0  0  0  0
   58.6570   26.9160   45.6910 N   0  0  0  0  0  0  0  0  0  0  0  0
   58.1960   28.1020   45.2360 C   0  0  0  0  0  0  0  0  0  0  0  0
   58.9560   29.0310   44.8550 O   0  0  0  0  0  0  0  0  0  0  0  0
   57.7290   31.4730   45.6630 C   0  0  0  0  0  0  0  0  0  0  0  0
   58.4720   32.5550   46.1430 C   0  0  0  0  0  0  0  0  0  0  0  0
   60.6346   34.9822   45.2446 H   0  0  0  0  0  0  0  0  0  0  0  0
   58.9689   34.2258   43.1980 H   0  0  0  0  0  0  0  0  0  0  0  0
   57.6481   32.2934   42.3435 H   0  0  0  0  0  0  0  0  0  0  0  0
   55.8581   30.5303   43.1106 H   0  0  0  0  0  0  0  0  0  0  0  0
   57.3630   29.5299   43.2424 H   0  0  0  0  0  0  0  0  0  0  0  0
   55.9548   30.0110   45.8150 H   0  0  0  0  0  0  0  0  0  0  0  0
   55.0371   29.0292   44.6057 H   0  0  0  0  0  0  0  0  0  0  0  0
   58.5407   24.4675   46.6217 H   0  0  0  0  0  0  0  0  0  0  0  0
   57.1939   25.0265   47.7038 H   0  0  0  0  0  0  0  0  0  0  0  0
   55.9600   25.3480   44.5020 H   0  0  0  0  0  0  0  0  0  0  0  0
   54.7122   23.9074   43.1367 H   0  0  0  0  0  0  0  0  0  0  0  0
   55.3463   22.4951   44.0619 H   0  0  0  0  0  0  0  0  0  0  0  0
   52.4999   24.5892   43.4368 H   0  0  0  0  0  0  0  0  0  0  0  0
   50.3374   24.4344   44.6727 H   0  0  0  0  0  0  0  0  0  0  0  0
   52.2410   22.0236   47.7178 H   0  0  0  0  0  0  0  0  0  0  0  0
   54.4095   22.1825   46.4958 H   0  0  0  0  0  0  0  0  0  0  0  0
   57.3853   30.6938   46.3592 H   0  0  0  0  0  0  0  0  0  0  0  0
   58.7068   32.6245   47.2154 H   0  0  0  0  0  0  0  0  0  0  0  0
  1  2  2  0
  2  3  1  0
  3  4  2  0
  4  5  1  0
  5  6  2  0
  6  7  1  0
  7  8  1  0
  8  9  1  0
  9 10  1  0
 10 11  1  0
 10 12  2  0
 12 13  1  0
 13 14  1  0
 14 15  2  0
 14 16  1  0
 16 17  1  0
 17 18  1  0
 18 19  2  0
 19 20  1  0
 20 21  2  0
 21 22  1  0
 21 23  1  0
 23 24  2  0
 12 25  1  0
 25 26  1  0
 26 27  2  0
  6 28  1  0
 28 29  2  0
 29  3  1  0
 26  9  1  0
 24 18  1  0
  2 30  1  0
  4 31  1  0
  5 32  1  0
  7 33  1  0
  7 34  1  0
  8 35  1  0
  8 36  1  0
 13 37  1  0
 13 38  1  0
 16 39  1  0
 17 40  1  0
 17 41  1  0
 19 42  1  0
 20 43  1  0
 23 44  1  0
 24 45  1  0
 28 46  1  0
 29 47  1  0
M  CHG  2  11  -1  25  -1
M  END
>  <UniqueID>  (76) 
68

>  <SMILES>  (76) 
O=Cc1ccc(CCn2c([O-])c(CC(=O)NCc3ccc(F)cc3)[n-]c2=O)cc1

>  <Energy>  (76) 
70.77727760607773

>  <Genealogy>  (76) 
O=Cc1ccc(CCn2c([O-])c(CC(=O)NCc3ccc(F)cc3)[n-]c2=O)cc1 (protonated)
O=Cc1ccc(CCn2c([O-])c(CC(=O)NCc3ccc(F)cc3)[n-]c2=O)cc1 (3D coordinates assigned)
O=Cc1ccc(CCn2c([O-])c(CC(=O)NCc3ccc(F)cc3)[n-]c2=O)cc1 (optimized conformer: 70.77727760607773 kcal/mol)

>  <smiles>  (76) 
O=Cc1ccc(CCn2c(O)c(CC(=O)NCc3ccc(F)cc3)[nH]c2=O)cc1

>  <score_type>  (76) 
oracle

>  <origin>  (76) 
adg

>  <m_score__min__energy>  (76) 
-13.58

>  <m_primary>  (76) 
energy

$$$$
76:0
     RDKit          3D

 52 54  0  0  0  0  0  0  0  0999 V2000
   61.3320   29.1010   50.1170 C   0  0  0  0  0  0  0  0  0  0  0  0
   60.4660   30.1350   49.5420 N   0  0  0  0  0  0  0  0  0  0  0  0
   59.8530   31.1360   50.4310 C   0  0  0  0  0  0  0  0  0  0  0  0
   58.3860   31.3680   50.0510 C   0  0  0  0  0  0  0  0  0  0  0  0
   58.2060   32.7090   49.5100 N   0  0  0  0  0  0  0  0  0  0  0  0
   59.1120   33.3230   48.5870 C   0  0  0  0  0  0  0  0  0  0  0  0
   60.1370   33.9200   49.0180 O   0  0  0  0  0  0  0  0  0  0  0  0
   58.8320   33.2800   47.1350 C   0  0  0  0  0  0  0  0  0  0  0  0
   59.5720   34.0750   46.2390 C   0  0  0  0  0  0  0  0  0  0  0  0
   59.2780   34.0540   44.8730 C   0  0  0  0  0  0  0  0  0  0  0  0
   58.2280   33.2710   44.3900 C   0  0  0  0  0  0  0  0  0  0  0  0
   57.4520   32.5090   45.2780 C   0  0  0  0  0  0  0  0  0  0  0  0
   56.3170   31.7550   44.8390 N   0  0  0  0  0  0  0  0  0  0  0  0
   56.3780   30.1640   44.1460 S   0  0  0  0  0  0  0  0  0  0  0  0
   55.1420   29.3880   44.5090 O   0  0  0  0  0  0  0  0  0  0  0  0
   56.4760   30.2790   42.6500 O   0  0  0  0  0  0  0  0  0  0  0  0
   57.7750   29.2980   44.7800 C   0  0  0  0  0  0  0  0  0  0  0  0
   59.0670   29.7000   44.4100 C   0  0  0  0  0  0  0  0  0  0  0  0
   60.1820   28.9940   44.8720 C   0  0  0  0  0  0  0  0  0  0  0  0
   60.0130   27.8850   45.7060 C   0  0  0  0  0  0  0  0  0  0  0  0
   58.7270   27.4820   46.0820 C   0  0  0  0  0  0  0  0  0  0  0  0
   58.4930   25.9520   47.2080 Br  0  0  0  0  0  0  0  0  0  0  0  0
   57.6100   28.1880   45.6230 C   0  0  0  0  0  0  0  0  0  0  0  0
   57.7830   32.4850   46.6370 C   0  0  0  0  0  0  0  0  0  0  0  0
   60.3650   30.2330   48.1030 C   0  0  0  0  0  0  0  0  0  0  0  0
   59.2480   30.0400   47.5450 O   0  0  0  0  0  0  0  0  0  0  0  0
   61.5730   30.5620   47.2590 C   0  0  0  0  0  0  0  0  0  0  0  0
   62.3380   31.7420   47.7820 C   0  0  0  0  0  0  0  0  0  0  0  0
   62.5230   32.9490   47.1210 C   0  0  0  0  0  0  0  0  0  0  0  0
   63.2990   33.8620   47.8480 C   0  0  0  0  0  0  0  0  0  0  0  0
   63.7230   33.3780   49.0770 C   0  0  0  0  0  0  0  0  0  0  0  0
   63.1350   31.8120   49.2610 S   0  0  0  0  0  0  0  0  0  0  0  0
   61.2874   29.1542   51.2148 H   0  0  0  0  0  0  0  0  0  0  0  0
   60.9906   28.1098   49.7838 H   0  0  0  0  0  0  0  0  0  0  0  0
   62.3677   29.2632   49.7838 H   0  0  0  0  0  0  0  0  0  0  0  0
   59.9052   30.7775   51.4696 H   0  0  0  0  0  0  0  0  0  0  0  0
   60.4005   32.0845   50.3282 H   0  0  0  0  0  0  0  0  0  0  0  0
   58.0868   30.6287   49.2935 H   0  0  0  0  0  0  0  0  0  0  0  0
   57.7635   31.2606   50.9515 H   0  0  0  0  0  0  0  0  0  0  0  0
   60.3840   34.7145   46.6154 H   0  0  0  0  0  0  0  0  0  0  0  0
   59.8768   34.6574   44.1749 H   0  0  0  0  0  0  0  0  0  0  0  0
   58.0083   33.2510   43.3123 H   0  0  0  0  0  0  0  0  0  0  0  0
   59.2033   30.5729   43.7547 H   0  0  0  0  0  0  0  0  0  0  0  0
   61.1935   29.3117   44.5788 H   0  0  0  0  0  0  0  0  0  0  0  0
   60.8910   27.3292   46.0667 H   0  0  0  0  0  0  0  0  0  0  0  0
   56.6000   27.8725   45.9234 H   0  0  0  0  0  0  0  0  0  0  0  0
   57.2174   31.8379   47.3236 H   0  0  0  0  0  0  0  0  0  0  0  0
   62.2407   29.6880   47.2436 H   0  0  0  0  0  0  0  0  0  0  0  0
   61.2154   30.8171   46.2505 H   0  0  0  0  0  0  0  0  0  0  0  0
   62.1032   33.1665   46.1278 H   0  0  0  0  0  0  0  0  0  0  0  0
   63.5484   34.8677   47.4788 H   0  0  0  0  0  0  0  0  0  0  0  0
   64.3385   33.9246   49.8067 H   0  0  0  0  0  0  0  0  0  0  0  0
  1  2  1  0
  2  3  1  0
  3  4  1  0
  4  5  1  0
  5  6  1  0
  6  7  2  0
  6  8  1  0
  8  9  2  0
  9 10  1  0
 10 11  2  0
 11 12  1  0
 12 13  1  0
 13 14  1  0
 14 15  2  0
 14 16  2  0
 14 17  1  0
 17 18  2  0
 18 19  1  0
 19 20  2  0
 20 21  1  0
 21 22  1  0
 21 23  2  0
 12 24  2  0
  2 25  1  0
 25 26  2  0
 25 27  1  0
 27 28  1  0
 28 29  2  0
 29 30  1  0
 30 31  2  0
 31 32  1  0
 24  8  1  0
 32 28  1  0
 23 17  1  0
  1 33  1  0
  1 34  1  0
  1 35  1  0
  3 36  1  0
  3 37  1  0
  4 38  1  0
  4 39  1  0
  9 40  1  0
 10 41  1  0
 11 42  1  0
 18 43  1  0
 19 44  1  0
 20 45  1  0
 23 46  1  0
 24 47  1  0
 27 48  1  0
 27 49  1  0
 29 50  1  0
 30 51  1  0
 31 52  1  0
M  CHG  2   5  -1  13  -1
M  END
>  <UniqueID>  (77) 
69

>  <SMILES>  (77) 
CN(CC[N-]C(=O)c1cccc([N-]S(=O)(=O)c2cccc(Br)c2)c1)C(=O)Cc1cccs1

>  <Energy>  (77) 
74.6656053934983

>  <Genealogy>  (77) 
CN(CC[N-]C(=O)c1cccc([N-]S(=O)(=O)c2cccc(Br)c2)c1)C(=O)Cc1cccs1 (protonated)
CN(CC[N-]C(=O)c1cccc([N-]S(=O)(=O)c2cccc(Br)c2)c1)C(=O)Cc1cccs1 (3D coordinates assigned)
CN(CC[N-]C(=O)c1cccc([N-]S(=O)(=O)c2cccc(Br)c2)c1)C(=O)Cc1cccs1 (optimized conformer: 74.6656053934983 kcal/mol)

>  <smiles>  (77) 
CN(CCNC(=O)c1cccc(NS(=O)(=O)c2cccc(Br)c2)c1)C(=O)Cc1cccs1

>  <score_type>  (77) 
oracle

>  <origin>  (77) 
adg

>  <m_score__min__energy>  (77) 
-12.210000000000001

>  <m_primary>  (77) 
energy

$$$$
77:0
     RDKit          3D

 54 58  0  0  0  0  0  0  0  0999 V2000
   61.1870   29.1380   50.8350 H   0  0  0  0  0  0  0  0  0  0  0  0
   61.6880   29.4550   50.0160 O   0  0  0  0  0  0  0  0  0  0  0  0
   61.0810   30.1550   48.9720 C   0  0  0  0  0  0  0  0  0  0  0  0
   60.5300   29.4080   47.9090 C   0  0  0  0  0  0  0  0  0  0  0  0
   60.5981   28.3103   47.9304 H   0  0  0  0  0  0  0  0  0  0  0  0
   59.8940   30.0390   46.8200 C   0  0  0  0  0  0  0  0  0  0  0  0
   59.2690   29.2440   45.7470 C   0  0  0  0  0  0  0  0  0  0  0  0
   59.4087   29.5786   44.7085 H   0  0  0  0  0  0  0  0  0  0  0  0
   58.5420   28.1400   45.9590 C   0  0  0  0  0  0  0  0  0  0  0  0
   59.0890   26.9590   46.4660 O   0  0  0  0  0  0  0  0  0  0  0  0
   58.0560   26.0270   46.5540 C   0  0  0  0  0  0  0  0  0  0  0  0
   58.1540   24.7100   46.9990 C   0  0  0  0  0  0  0  0  0  0  0  0
   59.1179   24.2974   47.3317 H   0  0  0  0  0  0  0  0  0  0  0  0
   56.9880   23.9210   47.0120 C   0  0  0  0  0  0  0  0  0  0  0  0
   57.0490   22.6030   47.4490 O   0  0  0  0  0  0  0  0  0  0  0  0
   55.7550   24.4620   46.5840 C   0  0  0  0  0  0  0  0  0  0  0  0
   54.8490   23.8383   46.5980 H   0  0  0  0  0  0  0  0  0  0  0  0
   55.6810   25.7950   46.1400 C   0  0  0  0  0  0  0  0  0  0  0  0
   54.4730   26.3370   45.7180 O   0  0  0  0  0  0  0  0  0  0  0  0
   56.8520   26.5530   46.1350 C   0  0  0  0  0  0  0  0  0  0  0  0
   57.1030   27.9290   45.7470 C   0  0  0  0  0  0  0  0  0  0  0  0
   56.2430   28.7740   45.3810 O   0  0  0  0  0  0  0  0  0  0  0  0
   59.7940   31.4350   46.8560 C   0  0  0  0  0  0  0  0  0  0  0  0
   59.2460   32.3570   45.9810 C   0  0  0  0  0  0  0  0  0  0  0  0
   59.4500   33.5890   46.5760 C   0  0  0  0  0  0  0  0  0  0  0  0
   60.1040   33.4570   47.7100 O   0  0  0  0  0  0  0  0  0  0  0  0
   60.3210   32.1720   47.8940 C   0  0  0  0  0  0  0  0  0  0  0  0
   60.9990   31.5760   48.9650 C   0  0  0  0  0  0  0  0  0  0  0  0
   61.6150   32.4360   50.0470 C   0  0  0  0  0  0  0  0  0  0  0  0
   62.1621   31.7880   50.7476 H   0  0  0  0  0  0  0  0  0  0  0  0
   60.8030   32.9755   50.5565 H   0  0  0  0  0  0  0  0  0  0  0  0
   62.5720   33.4590   49.4790 C   0  0  0  0  0  0  0  0  0  0  0  0
   62.3702   34.5188   49.6935 H   0  0  0  0  0  0  0  0  0  0  0  0
   63.6560   33.1690   48.7280 C   0  0  0  0  0  0  0  0  0  0  0  0
   64.9240   32.7250   49.4150 C   0  0  0  0  0  0  0  0  0  0  0  0
   64.7865   32.7732   50.5053 H   0  0  0  0  0  0  0  0  0  0  0  0
   65.1581   31.6914   49.1203 H   0  0  0  0  0  0  0  0  0  0  0  0
   65.7518   33.3868   49.1203 H   0  0  0  0  0  0  0  0  0  0  0  0
   63.6630   33.3370   47.2290 C   0  0  0  0  0  0  0  0  0  0  0  0
   63.7076   34.4076   46.9802 H   0  0  0  0  0  0  0  0  0  0  0  0
   64.5406   32.8256   46.8068 H   0  0  0  0  0  0  0  0  0  0  0  0
   62.7459   32.9004   46.8068 H   0  0  0  0  0  0  0  0  0  0  0  0
   59.0240   34.8870   45.9650 C   0  0  0  0  0  0  0  0  0  0  0  0
   58.6025   35.5338   46.7486 H   0  0  0  0  0  0  0  0  0  0  0  0
   59.9010   35.3662   45.5054 H   0  0  0  0  0  0  0  0  0  0  0  0
   57.9600   34.6530   44.8760 C   0  0  0  0  0  0  0  0  0  0  0  0
   57.0021   34.4094   45.3587 H   0  0  0  0  0  0  0  0  0  0  0  0
   57.8736   35.5704   44.2752 H   0  0  0  0  0  0  0  0  0  0  0  0
   58.3570   33.4950   43.9370 C   0  0  0  0  0  0  0  0  0  0  0  0
   57.5853   33.3855   43.1608 H   0  0  0  0  0  0  0  0  0  0  0  0
   59.3340   33.7352   43.4923 H   0  0  0  0  0  0  0  0  0  0  0  0
   58.4920   32.1610   44.6980 C   0  0  0  0  0  0  0  0  0  0  0  0
   57.4886   31.7712   44.9246 H   0  0  0  0  0  0  0  0  0  0  0  0
   59.0445   31.4484   44.0680 H   0  0  0  0  0  0  0  0  0  0  0  0
  1  2  1  0
  2  3  1  0
  3  4  2  0
  4  5  1  0
  4  6  1  0
  6  7  1  0
  7  8  1  0
  7  9  2  0
  9 10  1  0
 10 11  1  0
 11 12  2  0
 12 13  1  0
 12 14  1  0
 14 15  1  0
 14 16  2  0
 16 17  1  0
 16 18  1  0
 18 19  1  0
 18 20  2  0
 20 21  1  0
 21 22  2  0
  6 23  2  0
 23 24  1  0
 24 25  2  0
 25 26  1  0
 26 27  1  0
 27 28  2  0
 28 29  1  0
 29 30  1  0
 29 31  1  0
 29 32  1  0
 32 33  1  0
 32 34  2  3
 34 35  1  0
 35 36  1  0
 35 37  1  0
 35 38  1  0
 34 39  1  0
 39 40  1  0
 39 41  1  0
 39 42  1  0
 25 43  1  0
 43 44  1  0
 43 45  1  0
 43 46  1  0
 46 47  1  0
 46 48  1  0
 46 49  1  0
 49 50  1  0
 49 51  1  0
 49 52  1  0
 52 53  1  0
 52 54  1  0
 28  3  1  0
 21  9  1  0
 27 23  1  0
 20 11  1  0
 52 24  1  0
M  CHG  2  15  -1  19  -1
M  END
>  <UniqueID>  (78) 
70

>  <SMILES>  (78) 
CC(C)=CCc1c(O)cc(/C=C2/Oc3cc([O-])cc([O-])c3C2=O)c2c3c(oc12)CCCC3

>  <Energy>  (78) 
128.16487558738095

>  <Genealogy>  (78) 
CC(C)=CCc1c(O)cc(C=C2Oc3cc([O-])cc([O-])c3C2=O)c2c3c(oc12)CCCC3 (protonated)
CC(C)=CCc1c(O)cc(/C=C2/Oc3cc([O-])cc([O-])c3C2=O)c2c3c(oc12)CCCC3 (cis-trans isomerization)
CC(C)=CCc1c(O)cc(/C=C2/Oc3cc([O-])cc([O-])c3C2=O)c2c3c(oc12)CCCC3 (3D coordinates assigned)
CC(C)=CCc1c(O)cc(/C=C2/Oc3cc([O-])cc([O-])c3C2=O)c2c3c(oc12)CCCC3 (nonaromatic ring conformer: 128.16487558738095 kcal/mol)

>  <smiles>  (78) 
CC(C)=CCc1c(O)cc(C=C2Oc3cc(O)cc(O)c3C2=O)c2c3c(oc12)CCCC3

>  <score_type>  (78) 
oracle

>  <origin>  (78) 
adg

>  <m_score__min__energy>  (78) 
-14.859999999999999

>  <m_primary>  (78) 
energy

$$$$
78:0
     RDKit          3D

 75 79  0  0  0  0  0  0  0  0999 V2000
   57.8150   21.5330   45.5660 C   0  0  0  0  0  0  0  0  0  0  0  0
   58.6170   22.7030   45.6850 O   0  0  0  0  0  0  0  0  0  0  0  0
   58.1120   24.0130   45.6990 C   0  0  0  0  0  0  0  0  0  0  0  0
   58.9470   25.1450   45.6910 C   0  0  0  0  0  0  0  0  0  0  0  0
   58.3950   26.4360   45.6920 C   0  0  0  0  0  0  0  0  0  0  0  0
   59.2270   27.6060   45.6220 N   0  0  0  0  0  0  0  0  0  0  0  0
   59.1760   28.6630   46.5970 C   0  0  0  0  0  0  0  0  0  0  0  0
   58.1430   28.8460   47.2960 O   0  0  0  0  0  0  0  0  0  0  0  0
   60.3730   29.5460   46.8150 C   0  0  0  0  0  0  0  0  0  0  0  0
   59.9560   30.9660   46.9180 N   0  0  0  0  0  0  0  0  0  0  0  0
   60.2620   31.6710   48.0600 C   0  0  0  0  0  0  0  0  0  0  0  0
   60.9820   31.1390   48.9530 O   0  0  0  0  0  0  0  0  0  0  0  0
   59.7770   32.9400   48.2620 N   0  0  0  0  0  0  0  0  0  0  0  0
   60.0480   33.6190   49.5500 C   0  0  0  0  0  0  0  0  0  0  0  0
   59.2100   33.0250   50.6560 C   0  0  0  0  0  0  0  0  0  0  0  0
   59.2280   33.5970   51.9390 C   0  0  0  0  0  0  0  0  0  0  0  0
   58.4950   33.0200   52.9800 C   0  0  0  0  0  0  0  0  0  0  0  0
   57.7430   31.8580   52.7530 C   0  0  0  0  0  0  0  0  0  0  0  0
   57.0060   31.2280   53.8610 C   0  0  0  0  0  0  0  0  0  0  0  0
   57.0830   31.7270   55.0140 O   0  0  0  0  0  0  0  0  0  0  0  0
   56.2290   30.0410   53.6710 N   0  0  0  0  0  0  0  0  0  0  0  0
   55.7270   29.5860   52.3770 C   0  0  0  0  0  0  0  0  0  0  0  0
   54.3000   29.0550   52.5260 C   0  0  0  0  0  0  0  0  0  0  0  0
   53.2890   30.1640   52.4030 C   0  0  0  0  0  0  0  0  0  0  0  0
   53.2310   30.9500   51.2400 C   0  0  0  0  0  0  0  0  0  0  0  0
   52.2580   31.9470   51.1110 C   0  0  0  0  0  0  0  0  0  0  0  0
   51.3360   32.1640   52.1410 C   0  0  0  0  0  0  0  0  0  0  0  0
   50.3710   33.1540   52.0110 O   0  0  0  0  0  0  0  0  0  0  0  0
   51.3880   31.3850   53.3000 C   0  0  0  0  0  0  0  0  0  0  0  0
   52.3590   30.3880   53.4300 C   0  0  0  0  0  0  0  0  0  0  0  0
   57.6840   31.3150   51.4610 C   0  0  0  0  0  0  0  0  0  0  0  0
   58.4030   31.8990   50.4170 C   0  0  0  0  0  0  0  0  0  0  0  0
   59.0110   33.5460   47.3040 C   0  0  0  0  0  0  0  0  0  0  0  0
   58.5580   34.7110   47.4950 O   0  0  0  0  0  0  0  0  0  0  0  0
   58.7160   32.8780   46.1100 C   0  0  0  0  0  0  0  0  0  0  0  0
   57.9320   33.4900   45.1110 C   0  0  0  0  0  0  0  0  0  0  0  0
   57.6300   32.8090   43.9340 C   0  0  0  0  0  0  0  0  0  0  0  0
   58.1050   31.5180   43.7360 C   0  0  0  0  0  0  0  0  0  0  0  0
   58.8840   30.8970   44.7140 C   0  0  0  0  0  0  0  0  0  0  0  0
   59.2040   31.5630   45.9250 C   0  0  0  0  0  0  0  0  0  0  0  0
   57.0040   26.5890   45.7720 C   0  0  0  0  0  0  0  0  0  0  0  0
   56.1590   25.4630   45.7820 C   0  0  0  0  0  0  0  0  0  0  0  0
   54.7620   25.5700   45.8430 O   0  0  0  0  0  0  0  0  0  0  0  0
   53.8590   24.5180   45.5190 C   0  0  0  0  0  0  0  0  0  0  0  0
   56.7240   24.1850   45.7270 C   0  0  0  0  0  0  0  0  0  0  0  0
   57.5594   21.1601   46.5688 H   0  0  0  0  0  0  0  0  0  0  0  0
   56.8921   21.7752   45.0186 H   0  0  0  0  0  0  0  0  0  0  0  0
   58.3737   20.7596   45.0186 H   0  0  0  0  0  0  0  0  0  0  0  0
   60.0396   25.0180   45.6839 H   0  0  0  0  0  0  0  0  0  0  0  0
   60.0680   27.5610   45.0030 H   0  0  0  0  0  0  0  0  0  0  0  0
   60.8784   29.2482   47.7455 H   0  0  0  0  0  0  0  0  0  0  0  0
   61.0578   29.4362   45.9612 H   0  0  0  0  0  0  0  0  0  0  0  0
   61.1124   33.5028   49.8020 H   0  0  0  0  0  0  0  0  0  0  0  0
   59.7928   34.6841   49.4476 H   0  0  0  0  0  0  0  0  0  0  0  0
   59.8221   34.5038   52.1254 H   0  0  0  0  0  0  0  0  0  0  0  0
   58.5080   33.4784   53.9798 H   0  0  0  0  0  0  0  0  0  0  0  0
   55.7303   30.4276   51.6687 H   0  0  0  0  0  0  0  0  0  0  0  0
   56.3746   28.7799   52.0019 H   0  0  0  0  0  0  0  0  0  0  0  0
   54.1112   28.3090   51.7400 H   0  0  0  0  0  0  0  0  0  0  0  0
   54.1999   28.6024   53.5236 H   0  0  0  0  0  0  0  0  0  0  0  0
   53.9533   30.7809   50.4278 H   0  0  0  0  0  0  0  0  0  0  0  0
   52.2177   32.5608   50.1991 H   0  0  0  0  0  0  0  0  0  0  0  0
   50.6643   31.5565   54.1105 H   0  0  0  0  0  0  0  0  0  0  0  0
   52.3945   29.7752   54.3428 H   0  0  0  0  0  0  0  0  0  0  0  0
   57.0678   30.4241   51.2696 H   0  0  0  0  0  0  0  0  0  0  0  0
   58.3380   31.4766   49.4034 H   0  0  0  0  0  0  0  0  0  0  0  0
   57.5560   34.5127   45.2620 H   0  0  0  0  0  0  0  0  0  0  0  0
   57.0153   33.2932   43.1609 H   0  0  0  0  0  0  0  0  0  0  0  0
   57.8662   30.9833   42.8048 H   0  0  0  0  0  0  0  0  0  0  0  0
   59.2553   29.8758   44.5430 H   0  0  0  0  0  0  0  0  0  0  0  0
   56.5688   27.5977   45.8275 H   0  0  0  0  0  0  0  0  0  0  0  0
   53.4727   24.0680   46.4454 H   0  0  0  0  0  0  0  0  0  0  0  0
   53.0218   24.9216   44.9306 H   0  0  0  0  0  0  0  0  0  0  0  0
   54.3848   23.7516   44.9306 H   0  0  0  0  0  0  0  0  0  0  0  0
   56.0677   23.3025   45.7054 H   0  0  0  0  0  0  0  0  0  0  0  0
  1  2  1  0
  2  3  1  0
  3  4  2  0
  4  5  1  0
  5  6  1  0
  6  7  1  0
  7  8  2  0
  7  9  1  0
  9 10  1  0
 10 11  1  0
 11 12  2  0
 11 13  1  0
 13 14  1  0
 14 15  1  0
 15 16  2  0
 16 17  1  0
 17 18  2  0
 18 19  1  0
 19 20  2  0
 19 21  1  0
 21 22  1  0
 22 23  1  0
 23 24  1  0
 24 25  2  0
 25 26  1  0
 26 27  2  0
 27 28  1  0
 27 29  1  0
 29 30  2  0
 18 31  1  0
 31 32  2  0
 13 33  1  0
 33 34  2  0
 33 35  1  0
 35 36  2  0
 36 37  1  0
 37 38  2  0
 38 39  1  0
 39 40  2  0
  5 41  2  0
 41 42  1  0
 42 43  1  0
 43 44  1  0
 42 45  2  0
 45  3  1  0
 40 10  1  0
 32 15  1  0
 40 35  1  0
 30 24  1  0
  1 46  1  0
  1 47  1  0
  1 48  1  0
  4 49  1  0
  6 50  1  0
  9 51  1  0
  9 52  1  0
 14 53  1  0
 14 54  1  0
 16 55  1  0
 17 56  1  0
 22 57  1  0
 22 58  1  0
 23 59  1  0
 23 60  1  0
 25 61  1  0
 26 62  1  0
 29 63  1  0
 30 64  1  0
 31 65  1  0
 32 66  1  0
 36 67  1  0
 37 68  1  0
 38 69  1  0
 39 70  1  0
 41 71  1  0
 44 72  1  0
 44 73  1  0
 44 74  1  0
 45 75  1  0
M  CHG  2  21  -1  28  -1
M  END
>  <UniqueID>  (79) 
71

>  <SMILES>  (79) 
COc1cc(NC(=O)Cn2c(=O)n(Cc3ccc(C(=O)[N-]CCc4ccc([O-])cc4)cc3)c(=O)c3ccccc32)cc(OC)c1

>  <Energy>  (79) 
94.32306153339707

>  <Genealogy>  (79) 
COc1cc(NC(=O)Cn2c(=O)n(Cc3ccc(C(=O)[N-]CCc4ccc([O-])cc4)cc3)c(=O)c3ccccc32)cc(OC)c1 (protonated)
COc1cc(NC(=O)Cn2c(=O)n(Cc3ccc(C(=O)[N-]CCc4ccc([O-])cc4)cc3)c(=O)c3ccccc32)cc(OC)c1 (3D coordinates assigned)
COc1cc(NC(=O)Cn2c(=O)n(Cc3ccc(C(=O)[N-]CCc4ccc([O-])cc4)cc3)c(=O)c3ccccc32)cc(OC)c1 (optimized conformer: 94.32306153339707 kcal/mol)

>  <smiles>  (79) 
COc1cc(NC(=O)Cn2c(=O)n(Cc3ccc(C(=O)NCCc4ccc(O)cc4)cc3)c(=O)c3ccccc32)cc(OC)c1

>  <score_type>  (79) 
oracle

>  <origin>  (79) 
adg

>  <m_score__min__energy>  (79) 
-15.82

>  <m_primary>  (79) 
energy

$$$$
79:0
     RDKit          3D

 26 28  0  0  0  0  0  0  0  0999 V2000
   59.5650   34.1510   49.7240 O   0  0  0  0  0  0  0  0  0  0  0  0
   59.6660   34.1350   48.3400 C   0  0  0  0  0  0  0  0  0  0  0  0
   60.8810   34.0070   47.6800 C   0  0  0  0  0  0  0  0  0  0  0  0
   60.5640   34.0220   46.0290 S   0  0  0  0  0  0  0  0  0  0  0  0
   58.9040   34.2060   46.2350 C   0  0  0  0  0  0  0  0  0  0  0  0
   57.9030   34.2290   45.1260 C   0  0  0  0  0  0  0  0  0  0  0  0
   57.7720   32.8650   44.5320 C   0  0  0  0  0  0  0  0  0  0  0  0
   57.7230   31.7350   45.2670 N   0  0  0  0  0  0  0  0  0  0  0  0
   57.6720   30.6140   44.4930 C   0  0  0  0  0  0  0  0  0  0  0  0
   57.6030   29.2580   45.1010 C   0  0  0  0  0  0  0  0  0  0  0  0
   58.7530   28.5860   45.5570 C   0  0  0  0  0  0  0  0  0  0  0  0
   58.6520   27.3490   46.1100 N   0  0  0  0  0  0  0  0  0  0  0  0
   57.4590   26.7130   46.2470 C   0  0  0  0  0  0  0  0  0  0  0  0
   57.4210   25.2230   46.9220 S   0  0  0  0  0  0  0  0  0  0  0  0
   56.2850   27.3410   45.8130 C   0  0  0  0  0  0  0  0  0  0  0  0
   55.0470   26.7160   45.9410 O   0  0  0  0  0  0  0  0  0  0  0  0
   56.3620   28.6130   45.2430 C   0  0  0  0  0  0  0  0  0  0  0  0
   57.6930   30.8650   43.1160 C   0  0  0  0  0  0  0  0  0  0  0  0
   57.7820   32.5290   42.8880 S   0  0  0  0  0  0  0  0  0  0  0  0
   58.5690   34.2370   47.5430 N   0  0  0  0  0  0  0  0  0  0  0  0
   61.8704   33.9129   48.1514 H   0  0  0  0  0  0  0  0  0  0  0  0
   56.9279   34.5500   45.5212 H   0  0  0  0  0  0  0  0  0  0  0  0
   58.2387   34.9318   44.3493 H   0  0  0  0  0  0  0  0  0  0  0  0
   59.7389   29.0651   45.4651 H   0  0  0  0  0  0  0  0  0  0  0  0
   55.4443   29.1146   44.9022 H   0  0  0  0  0  0  0  0  0  0  0  0
   57.6575   30.1056   42.3210 H   0  0  0  0  0  0  0  0  0  0  0  0
  1  2  1  0
  2  3  2  0
  3  4  1  0
  4  5  1  0
  5  6  1  0
  6  7  1  0
  7  8  2  0
  8  9  1  0
  9 10  1  0
 10 11  2  0
 11 12  1  0
 12 13  1  0
 13 14  2  0
 13 15  1  0
 15 16  1  0
 15 17  2  0
  9 18  2  0
 18 19  1  0
  5 20  2  0
 20  2  1  0
 19  7  1  0
 17 10  1  0
  3 21  1  0
  6 22  1  0
  6 23  1  0
 11 24  1  0
 17 25  1  0
 18 26  1  0
M  CHG  3   1  -1  12  -1  16  -1
M  END
>  <UniqueID>  (80) 
72

>  <SMILES>  (80) 
[O-]c1csc(Cc2nc(-c3c[n-]c(=S)c([O-])c3)cs2)n1

>  <Energy>  (80) 
88.87307046649835

>  <Genealogy>  (80) 
[O-]c1csc(Cc2nc(-c3c[n-]c(=S)c([O-])c3)cs2)n1 (protonated)
[O-]c1csc(Cc2nc(-c3c[n-]c(=S)c([O-])c3)cs2)n1 (3D coordinates assigned)
[O-]c1csc(Cc2nc(-c3c[n-]c(=S)c([O-])c3)cs2)n1 (optimized conformer: 88.87307046649835 kcal/mol)

>  <smiles>  (80) 
Oc1csc(Cc2nc(-c3c[nH]c(=S)c(O)c3)cs2)n1

>  <score_type>  (80) 
oracle

>  <origin>  (80) 
adg

>  <m_score__min__energy>  (80) 
-12.77

>  <m_primary>  (80) 
energy

$$$$
80:0
     RDKit          3D

 48 50  0  0  0  0  0  0  0  0999 V2000
   56.0630   28.6380   44.1020 H   0  0  0  0  0  0  0  0  0  0  0  0
   55.8920   28.4490   45.0810 O   0  0  0  0  0  0  0  0  0  0  0  0
   56.1730   27.1990   45.6280 C   0  0  0  0  0  0  0  0  0  0  0  0
   55.2250   26.3210   45.9940 N   0  0  0  0  0  0  0  0  0  0  0  0
   55.9470   25.3190   46.5380 C   0  0  0  0  0  0  0  0  0  0  0  0
   55.4120   24.2910   47.0300 O   0  0  0  0  0  0  0  0  0  0  0  0
   57.2830   25.5170   46.5430 N   0  0  0  0  0  0  0  0  0  0  0  0
   57.4270   26.7050   45.9290 C   0  0  0  0  0  0  0  0  0  0  0  0
   58.7130   27.4160   45.8310 C   0  0  0  0  0  0  0  0  0  0  0  0
   59.5078   26.9600   45.2224 H   0  0  0  0  0  0  0  0  0  0  0  0
   58.9790   28.5880   46.4380 C   0  0  0  0  0  0  0  0  0  0  0  0
   59.4490   28.7590   47.7340 C   0  0  0  0  0  0  0  0  0  0  0  0
   59.6714   27.9647   48.4617 H   0  0  0  0  0  0  0  0  0  0  0  0
   59.5830   30.1190   47.9320 C   0  0  0  0  0  0  0  0  0  0  0  0
   60.1070   30.7410   49.1940 C   0  0  0  0  0  0  0  0  0  0  0  0
   59.6733   30.2262   50.0640 H   0  0  0  0  0  0  0  0  0  0  0  0
   61.2027   30.6476   49.2213 H   0  0  0  0  0  0  0  0  0  0  0  0
   59.8289   31.8049   49.2213 H   0  0  0  0  0  0  0  0  0  0  0  0
   59.2110   30.7940   46.8230 N   0  0  0  0  0  0  0  0  0  0  0  0
   59.3460   32.2110   46.6210 C   0  0  0  0  0  0  0  0  0  0  0  0
   60.5870   32.8790   46.7450 C   0  0  0  0  0  0  0  0  0  0  0  0
   61.8060   32.2140   46.9580 O   0  0  0  0  0  0  0  0  0  0  0  0
   63.0870   32.8320   47.0990 C   0  0  0  0  0  0  0  0  0  0  0  0
   63.7519   32.4502   46.3102 H   0  0  0  0  0  0  0  0  0  0  0  0
   62.9450   33.9196   47.0159 H   0  0  0  0  0  0  0  0  0  0  0  0
   63.7320   32.5460   48.4720 C   0  0  0  0  0  0  0  0  0  0  0  0
   63.1905   31.7073   48.9339 H   0  0  0  0  0  0  0  0  0  0  0  0
   64.7915   32.3289   48.2714 H   0  0  0  0  0  0  0  0  0  0  0  0
   63.7190   33.6820   49.4270 N   0  0  0  0  0  0  0  0  0  0  0  0
   62.3860   34.2760   49.6110 C   0  0  0  0  0  0  0  0  0  0  0  0
   62.1722   34.3713   50.6858 H   0  0  0  0  0  0  0  0  0  0  0  0
   62.3600   35.2709   49.1424 H   0  0  0  0  0  0  0  0  0  0  0  0
   61.6289   33.6301   49.1424 H   0  0  0  0  0  0  0  0  0  0  0  0
   64.3510   33.3760   50.7220 C   0  0  0  0  0  0  0  0  0  0  0  0
   63.6877   33.6971   51.5387 H   0  0  0  0  0  0  0  0  0  0  0  0
   64.5272   32.2928   50.7972 H   0  0  0  0  0  0  0  0  0  0  0  0
   65.3100   33.9096   50.7972 H   0  0  0  0  0  0  0  0  0  0  0  0
   60.6130   34.2370   46.7040 N   0  0  0  0  0  0  0  0  0  0  0  0
   59.4930   34.9860   46.5240 C   0  0  0  0  0  0  0  0  0  0  0  0
   59.5635   36.0834   46.4967 H   0  0  0  0  0  0  0  0  0  0  0  0
   58.2550   34.3630   46.3740 C   0  0  0  0  0  0  0  0  0  0  0  0
   57.3447   34.9614   46.2214 H   0  0  0  0  0  0  0  0  0  0  0  0
   58.1860   32.9720   46.4200 C   0  0  0  0  0  0  0  0  0  0  0  0
   57.2158   32.4682   46.2979 H   0  0  0  0  0  0  0  0  0  0  0  0
   58.8340   29.8720   45.9020 C   0  0  0  0  0  0  0  0  0  0  0  0
   58.4390   30.1760   44.6540 C   0  0  0  0  0  0  0  0  0  0  0  0
   58.3613   31.2282   44.3426 H   0  0  0  0  0  0  0  0  0  0  0  0
   58.1934   29.3727   43.9438 H   0  0  0  0  0  0  0  0  0  0  0  0
  1  2  1  0
  2  3  1  0
  3  4  1  0
  4  5  1  0
  5  6  2  0
  5  7  1  0
  7  8  1  0
  8  9  1  0
  9 10  1  0
  9 11  2  0
 11 12  1  0
 12 13  1  0
 12 14  2  0
 14 15  1  0
 15 16  1  0
 15 17  1  0
 15 18  1  0
 14 19  1  0
 19 20  1  0
 20 21  2  0
 21 22  1  0
 22 23  1  0
 23 24  1  0
 23 25  1  0
 23 26  1  0
 26 27  1  0
 26 28  1  0
 26 29  1  0
 29 30  1  0
 30 31  1  0
 30 32  1  0
 30 33  1  0
 29 34  1  0
 34 35  1  0
 34 36  1  0
 34 37  1  0
 21 38  1  0
 38 39  2  0
 39 40  1  0
 39 41  1  0
 41 42  1  0
 41 43  2  0
 43 44  1  0
 19 45  1  0
 45 46  2  0
 46 47  1  0
 46 48  1  0
  8  3  2  0
 45 11  1  0
 43 20  1  0
M  CHG  2   4  -1   7  -1
M  END
>  <UniqueID>  (81) 
73

>  <SMILES>  (81) 
C=c1/c(=C/c2[n-]c(=O)[n-]c2O)cc(C)n1-c1cccnc1OCCN(C)C

>  <Energy>  (81) 
128.6201759701309

>  <Genealogy>  (81) 
C=c1c(=Cc2[n-]c(=O)[n-]c2O)cc(C)n1-c1cccnc1OCCN(C)C (protonated)
C=c1/c(=C/c2[n-]c(=O)[n-]c2O)cc(C)n1-c1cccnc1OCCN(C)C (cis-trans isomerization)
C=c1/c(=C/c2[n-]c(=O)[n-]c2O)cc(C)n1-c1cccnc1OCCN(C)C (3D coordinates assigned)
C=c1/c(=C/c2[n-]c(=O)[n-]c2O)cc(C)n1-c1cccnc1OCCN(C)C (optimized conformer: 128.6201759701309 kcal/mol)

>  <smiles>  (81) 
C=c1c(=Cc2[nH]c(=O)[nH]c2O)cc(C)n1-c1cccnc1OCCN(C)C

>  <score_type>  (81) 
oracle

>  <origin>  (81) 
adg

>  <m_score__min__energy>  (81) 
-12.029999999999999

>  <m_primary>  (81) 
energy

$$$$
81:0
     RDKit          3D

 33 34  0  0  0  0  0  0  0  0999 V2000
   56.3897   33.7264   44.9640 H   0  0  0  0  0  0  0  0  0  0  0  0
   57.3280   33.1580   45.0450 C   0  0  0  0  0  0  0  0  0  0  0  0
   57.3000   31.9010   45.3680 N   0  0  0  0  0  0  0  0  0  0  0  0
   57.4980   30.8240   44.4420 C   0  0  0  0  0  0  0  0  0  0  0  0
   57.6770   31.0730   43.2180 O   0  0  0  0  0  0  0  0  0  0  0  0
   57.4940   29.4190   44.9320 C   0  0  0  0  0  0  0  0  0  0  0  0
   58.7180   28.7490   45.1330 C   0  0  0  0  0  0  0  0  0  0  0  0
   59.6642   29.2713   44.9285 H   0  0  0  0  0  0  0  0  0  0  0  0
   58.7420   27.4290   45.5890 C   0  0  0  0  0  0  0  0  0  0  0  0
   59.7045   26.9186   45.7409 H   0  0  0  0  0  0  0  0  0  0  0  0
   57.5500   26.7570   45.8520 C   0  0  0  0  0  0  0  0  0  0  0  0
   57.5730   25.7173   46.2105 H   0  0  0  0  0  0  0  0  0  0  0  0
   56.3260   27.4020   45.6610 C   0  0  0  0  0  0  0  0  0  0  0  0
   55.1430   26.7220   45.9270 O   0  0  0  0  0  0  0  0  0  0  0  0
   56.2890   28.7260   45.2040 C   0  0  0  0  0  0  0  0  0  0  0  0
   55.0530   29.3390   45.0270 O   0  0  0  0  0  0  0  0  0  0  0  0
   58.6370   33.8330   44.7830 C   0  0  0  0  0  0  0  0  0  0  0  0
   58.4515   34.8510   44.4097 H   0  0  0  0  0  0  0  0  0  0  0  0
   59.1946   33.2513   44.0342 H   0  0  0  0  0  0  0  0  0  0  0  0
   59.4510   33.9090   46.0470 C   0  0  0  0  0  0  0  0  0  0  0  0
   58.8190   34.1010   47.2860 C   0  0  0  0  0  0  0  0  0  0  0  0
   57.7264   34.2195   47.3314 H   0  0  0  0  0  0  0  0  0  0  0  0
   59.5730   34.1420   48.4610 C   0  0  0  0  0  0  0  0  0  0  0  0
   59.0736   34.3031   49.4278 H   0  0  0  0  0  0  0  0  0  0  0  0
   60.9600   33.9790   48.4120 C   0  0  0  0  0  0  0  0  0  0  0  0
   61.5507   34.0274   49.3387 H   0  0  0  0  0  0  0  0  0  0  0  0
   61.6010   33.7540   47.1860 C   0  0  0  0  0  0  0  0  0  0  0  0
   63.0930   33.6080   47.1290 C   0  0  0  0  0  0  0  0  0  0  0  0
   63.4969   33.5685   48.1514 H   0  0  0  0  0  0  0  0  0  0  0  0
   63.3506   32.6804   46.5969 H   0  0  0  0  0  0  0  0  0  0  0  0
   63.5255   34.4681   46.5969 H   0  0  0  0  0  0  0  0  0  0  0  0
   60.8440   33.7300   46.0030 C   0  0  0  0  0  0  0  0  0  0  0  0
   61.3446   33.5702   45.0366 H   0  0  0  0  0  0  0  0  0  0  0  0
  1  2  1  0
  2  3  2  0
  3  4  1  0
  4  5  2  0
  4  6  1  0
  6  7  2  0
  7  8  1  0
  7  9  1  0
  9 10  1  0
  9 11  2  0
 11 12  1  0
 11 13  1  0
 13 14  1  0
 13 15  2  0
 15 16  1  0
  2 17  1  0
 17 18  1  0
 17 19  1  0
 17 20  1  0
 20 21  2  0
 21 22  1  0
 21 23  1  0
 23 24  1  0
 23 25  2  0
 25 26  1  0
 25 27  1  0
 27 28  1  0
 28 29  1  0
 28 30  1  0
 28 31  1  0
 27 32  2  0
 32 33  1  0
 15  6  1  0
 32 20  1  0
M  CHG  2  14  -1  16  -1
M  END
>  <UniqueID>  (82) 
74

>  <SMILES>  (82) 
Cc1cccc(C/C=N/C(=O)c2cccc([O-])c2[O-])c1

>  <Energy>  (82) 
32.69946184708432

>  <Genealogy>  (82) 
Cc1cccc(CC=NC(=O)c2cccc([O-])c2[O-])c1 (protonated)
Cc1cccc(C/C=N/C(=O)c2cccc([O-])c2[O-])c1 (cis-trans isomerization)
Cc1cccc(C/C=N/C(=O)c2cccc([O-])c2[O-])c1 (3D coordinates assigned)
Cc1cccc(C/C=N/C(=O)c2cccc([O-])c2[O-])c1 (optimized conformer: 32.69946184708432 kcal/mol)

>  <smiles>  (82) 
Cc1cccc(CC=NC(=O)c2cccc(O)c2O)c1

>  <score_type>  (82) 
oracle

>  <origin>  (82) 
adg

>  <m_score__min__energy>  (82) 
-15.16

>  <m_primary>  (82) 
energy

$$$$
82:0
     RDKit          3D

 52 55  0  0  1  0  0  0  0  0999 V2000
   58.1120   32.8340   51.9800 C   0  0  0  0  0  0  0  0  0  0  0  0
   59.0610   32.9250   50.9050 O   0  0  0  0  0  0  0  0  0  0  0  0
   58.8810   32.1070   49.7720 C   0  0  0  0  0  0  0  0  0  0  0  0
   58.1360   32.4510   48.8230 O   0  0  0  0  0  0  0  0  0  0  0  0
   59.5490   30.8550   49.6670 N   0  0  0  0  0  0  0  0  0  0  0  0
   60.9660   30.7550   49.3880 C   0  0  0  0  0  0  0  0  0  0  0  0
   61.3850   29.5000   50.0980 C   0  0  0  0  0  0  0  0  0  0  0  0
   60.1780   28.5730   49.8950 C   0  0  2  0  0  0  0  0  0  0  0  0
   60.3900   27.9450   48.6400 O   0  0  0  0  0  0  0  0  0  0  0  0
   59.4560   27.9480   47.6100 C   0  0  0  0  0  0  0  0  0  0  0  0
   59.4180   28.9500   46.6720 C   0  0  0  0  0  0  0  0  0  0  0  0
   58.4660   28.8840   45.6830 C   0  0  0  0  0  0  0  0  0  0  0  0
   58.3660   29.7580   44.7640 N   0  0  0  0  0  0  0  0  0  0  0  0
   57.4480   30.8100   44.7510 C   0  0  0  0  0  0  0  0  0  0  0  0
   56.2360   30.7910   44.5020 O   0  0  0  0  0  0  0  0  0  0  0  0
   57.9880   32.1590   45.0880 C   0  0  0  0  0  0  0  0  0  0  0  0
   57.3780   33.2990   44.5480 C   0  0  0  0  0  0  0  0  0  0  0  0
   57.8560   34.5620   44.8690 C   0  0  0  0  0  0  0  0  0  0  0  0
   58.9340   34.6380   45.7240 C   0  0  0  0  0  0  0  0  0  0  0  0
   59.5610   33.5490   46.2770 C   0  0  0  0  0  0  0  0  0  0  0  0
   60.7040   33.6440   47.1910 C   0  0  0  0  0  0  0  0  0  0  0  0
   61.9670   33.4950   46.7970 N   0  0  0  0  0  0  0  0  0  0  0  0
   62.9270   33.5420   47.3980 C   0  0  0  0  0  0  0  0  0  0  0  0
   64.2240   33.4440   47.3080 O   0  0  0  0  0  0  0  0  0  0  0  0
   62.2630   33.8930   49.1580 S   0  0  0  0  0  0  0  0  0  0  0  0
   60.5730   33.8810   48.4890 N   0  0  0  0  0  0  0  0  0  0  0  0
   59.0490   32.3030   45.9270 C   0  0  0  0  0  0  0  0  0  0  0  0
   57.5850   27.8450   45.6420 N   0  0  0  0  0  0  0  0  0  0  0  0
   57.6420   26.8620   46.5850 C   0  0  0  0  0  0  0  0  0  0  0  0
   56.6580   25.7770   46.4840 C   0  0  0  0  0  0  0  0  0  0  0  0
   58.5770   26.9390   47.5460 N   0  0  0  0  0  0  0  0  0  0  0  0
   59.0350   29.5090   49.8000 C   0  0  0  0  0  0  0  0  0  0  0  0
   58.6422   32.8848   52.9424 H   0  0  0  0  0  0  0  0  0  0  0  0
   57.3979   33.6678   51.9103 H   0  0  0  0  0  0  0  0  0  0  0  0
   57.5694   31.8797   51.9103 H   0  0  0  0  0  0  0  0  0  0  0  0
   61.1472   30.6720   48.3062 H   0  0  0  0  0  0  0  0  0  0  0  0
   61.5280   31.6397   49.7219 H   0  0  0  0  0  0  0  0  0  0  0  0
   62.2924   29.0733   49.6457 H   0  0  0  0  0  0  0  0  0  0  0  0
   61.6353   29.6624   51.1568 H   0  0  0  0  0  0  0  0  0  0  0  0
   60.0217   27.8140   50.6757 H   0  0  0  0  0  0  0  0  0  0  0  0
   60.1324   29.7855   46.7112 H   0  0  0  0  0  0  0  0  0  0  0  0
   56.5192   33.1929   43.8688 H   0  0  0  0  0  0  0  0  0  0  0  0
   57.3911   35.4693   44.4559 H   0  0  0  0  0  0  0  0  0  0  0  0
   59.3173   35.6367   45.9802 H   0  0  0  0  0  0  0  0  0  0  0  0
   59.7190   34.0470   49.1230 H   0  0  0  0  0  0  0  0  0  0  0  0
   59.5200   31.4009   46.3445 H   0  0  0  0  0  0  0  0  0  0  0  0
   56.3643   25.4532   47.4934 H   0  0  0  0  0  0  0  0  0  0  0  0
   55.7709   26.1358   45.9415 H   0  0  0  0  0  0  0  0  0  0  0  0
   57.1015   24.9291   45.9415 H   0  0  0  0  0  0  0  0  0  0  0  0
   58.6270   26.1700   48.2770 H   0  0  0  0  0  0  0  0  0  0  0  0
   58.4227   29.2579   48.9214 H   0  0  0  0  0  0  0  0  0  0  0  0
   58.4115   29.4329   50.7030 H   0  0  0  0  0  0  0  0  0  0  0  0
  1  2  1  0
  2  3  1  0
  3  4  2  0
  3  5  1  0
  5  6  1  0
  6  7  1  0
  7  8  1  0
  8  9  1  0
  9 10  1  0
 10 11  2  0
 11 12  1  0
 12 13  2  0
 13 14  1  0
 14 15  2  0
 14 16  1  0
 16 17  2  0
 17 18  1  0
 18 19  2  0
 19 20  1  0
 20 21  1  0
 21 22  2  0
 22 23  1  0
 23 24  2  0
 23 25  1  0
 25 26  1  0
 20 27  2  0
 12 28  1  0
 28 29  2  0
 29 30  1  0
 29 31  1  0
  8 32  1  0
 32  5  1  0
 31 10  1  0
 27 16  1  0
 26 21  1  0
  1 33  1  0
  1 34  1  0
  1 35  1  0
  6 36  1  0
  6 37  1  0
  7 38  1  0
  7 39  1  0
  8 40  1  1
 11 41  1  0
 17 42  1  0
 18 43  1  0
 19 44  1  0
 26 45  1  0
 27 46  1  0
 30 47  1  0
 30 48  1  0
 30 49  1  0
 31 50  1  0
 32 51  1  0
 32 52  1  0
M  END
>  <smiles>  (83) 
COC(=O)N1CCC(Oc2cc(=NC(=O)c3cccc(-c4nc(=O)s[nH]4)c3)nc(C)[nH]2)C1

>  <score_type>  (83) 
oracle

>  <origin>  (83) 
adg

>  <m_score__min__energy>  (83) 
-9.9700000000000006

>  <m_primary>  (83) 
energy

$$$$
83:0
     RDKit          3D

 55 59  0  0  0  0  0  0  0  0999 V2000
   59.3730   35.1300   45.6180 C   0  0  0  0  0  0  0  0  0  0  0  0
   58.1830   34.5430   44.8690 C   0  0  0  0  0  0  0  0  0  0  0  0
   57.5460   33.5290   45.6430 O   0  0  0  0  0  0  0  0  0  0  0  0
   57.7400   32.1420   45.5070 C   0  0  0  0  0  0  0  0  0  0  0  0
   57.2940   31.4380   44.3700 C   0  0  0  0  0  0  0  0  0  0  0  0
   57.4850   30.0600   44.2650 C   0  0  0  0  0  0  0  0  0  0  0  0
   58.1270   29.3550   45.2880 C   0  0  0  0  0  0  0  0  0  0  0  0
   58.3720   27.8770   45.1490 C   0  0  0  0  0  0  0  0  0  0  0  0
   57.1480   27.1150   45.5390 C   0  0  0  0  0  0  0  0  0  0  0  0
   57.1700   25.8310   45.9550 N   0  0  0  0  0  0  0  0  0  0  0  0
   55.8690   25.6360   46.2230 C   0  0  0  0  0  0  0  0  0  0  0  0
   55.4000   24.5470   46.6460 O   0  0  0  0  0  0  0  0  0  0  0  0
   55.1460   26.7020   45.9980 O   0  0  0  0  0  0  0  0  0  0  0  0
   55.9140   27.6570   45.5720 N   0  0  0  0  0  0  0  0  0  0  0  0
   58.5940   30.0490   46.4120 C   0  0  0  0  0  0  0  0  0  0  0  0
   58.3960   31.4350   46.5400 C   0  0  0  0  0  0  0  0  0  0  0  0
   58.9110   32.1310   47.7490 C   0  0  0  0  0  0  0  0  0  0  0  0
   58.2470   33.0710   48.2660 O   0  0  0  0  0  0  0  0  0  0  0  0
   60.1700   31.7540   48.3370 N   0  0  0  0  0  0  0  0  0  0  0  0
   60.1300   30.9180   49.5420 C   0  0  0  0  0  0  0  0  0  0  0  0
   61.5360   30.4600   49.9340 C   0  0  0  0  0  0  0  0  0  0  0  0
   62.4450   31.6180   50.0770 N   0  0  1  0  0  0  0  0  0  0  0  0
   63.7630   31.1030   50.5190 C   0  0  0  0  0  0  0  0  0  0  0  0
   63.7920   30.5790   51.9550 C   0  0  0  0  0  0  0  0  0  0  0  0
   64.4450   31.9080   51.6220 C   0  0  0  0  0  0  0  0  0  0  0  0
   62.5340   32.3450   48.8120 C   0  0  0  0  0  0  0  0  0  0  0  0
   63.6860   33.0910   48.4630 C   0  0  0  0  0  0  0  0  0  0  0  0
   63.7470   33.7970   47.2620 C   0  0  0  0  0  0  0  0  0  0  0  0
   62.6580   33.7970   46.3940 C   0  0  0  0  0  0  0  0  0  0  0  0
   61.4920   33.1150   46.7370 C   0  0  0  0  0  0  0  0  0  0  0  0
   61.3980   32.4220   47.9600 C   0  0  0  0  0  0  0  0  0  0  0  0
   59.2022   35.0457   46.7014 H   0  0  0  0  0  0  0  0  0  0  0  0
   60.2853   34.5785   45.3467 H   0  0  0  0  0  0  0  0  0  0  0  0
   59.4906   36.1895   45.3467 H   0  0  0  0  0  0  0  0  0  0  0  0
   57.4590   35.3439   44.6585 H   0  0  0  0  0  0  0  0  0  0  0  0
   58.5434   34.0955   43.9310 H   0  0  0  0  0  0  0  0  0  0  0  0
   56.7900   31.9810   43.5569 H   0  0  0  0  0  0  0  0  0  0  0  0
   57.1286   29.5250   43.3724 H   0  0  0  0  0  0  0  0  0  0  0  0
   58.6261   27.6470   44.1037 H   0  0  0  0  0  0  0  0  0  0  0  0
   59.2027   27.5861   45.8088 H   0  0  0  0  0  0  0  0  0  0  0  0
   59.1232   29.5015   47.2058 H   0  0  0  0  0  0  0  0  0  0  0  0
   59.6964   31.4989   50.3694 H   0  0  0  0  0  0  0  0  0  0  0  0
   59.5157   30.0296   49.3338 H   0  0  0  0  0  0  0  0  0  0  0  0
   61.4857   29.9206   50.8914 H   0  0  0  0  0  0  0  0  0  0  0  0
   61.9255   29.8016   49.1435 H   0  0  0  0  0  0  0  0  0  0  0  0
   62.0390   32.2720   50.7910 H   0  0  0  0  0  0  0  0  0  0  0  0
   64.0686   30.7189   49.5346 H   0  0  0  0  0  0  0  0  0  0  0  0
   62.8672   30.5548   52.5500 H   0  0  0  0  0  0  0  0  0  0  0  0
   64.1263   29.6478   52.4358 H   0  0  0  0  0  0  0  0  0  0  0  0
   63.9931   32.8461   51.9767 H   0  0  0  0  0  0  0  0  0  0  0  0
   65.4482   32.3366   51.7628 H   0  0  0  0  0  0  0  0  0  0  0  0
   64.5453   33.1139   49.1493 H   0  0  0  0  0  0  0  0  0  0  0  0
   64.6577   34.3554   46.9996 H   0  0  0  0  0  0  0  0  0  0  0  0
   62.7182   34.3357   45.4369 H   0  0  0  0  0  0  0  0  0  0  0  0
   60.6363   33.1178   46.0457 H   0  0  0  0  0  0  0  0  0  0  0  0
  1  2  1  0
  2  3  1  0
  3  4  1  0
  4  5  2  0
  5  6  1  0
  6  7  2  0
  7  8  1  0
  8  9  1  0
  9 10  2  0
 10 11  1  0
 11 12  2  0
 11 13  1  0
 13 14  1  0
  7 15  1  0
 15 16  2  0
 16 17  1  0
 17 18  2  0
 17 19  1  0
 19 20  1  0
 20 21  1  0
 21 22  1  0
 22 23  1  0
 23 24  1  0
 24 25  1  0
 22 26  1  0
 26 27  2  0
 27 28  1  0
 28 29  2  0
 29 30  1  0
 30 31  2  0
 16  4  1  0
 31 19  1  0
 14  9  1  0
 25 23  1  0
 31 26  1  0
  1 32  1  0
  1 33  1  0
  1 34  1  0
  2 35  1  0
  2 36  1  0
  5 37  1  0
  6 38  1  0
  8 39  1  0
  8 40  1  0
 15 41  1  0
 20 42  1  0
 20 43  1  0
 21 44  1  0
 21 45  1  0
 22 46  1  1
 23 47  1  0
 24 48  1  0
 24 49  1  0
 25 50  1  0
 25 51  1  0
 27 52  1  0
 28 53  1  0
 29 54  1  0
 30 55  1  0
M  CHG  2  14  -1  22   1
M  END
>  <UniqueID>  (84) 
75

>  <SMILES>  (84) 
CCOc1ccc(Cc2nc(=O)o[n-]2)cc1C(=O)N1CC[N@@H+](C2CC2)c2ccccc21

>  <Energy>  (84) 
372.9176401157117

>  <Genealogy>  (84) 
CCOc1ccc(Cc2nc(=O)o[n-]2)cc1C(=O)N1CC[NH+](C2CC2)c2ccccc21 (protonated)
CCOc1ccc(Cc2nc(=O)o[n-]2)cc1C(=O)N1CC[N@@H+](C2CC2)c2ccccc21 (chirality)
CCOc1ccc(Cc2nc(=O)o[n-]2)cc1C(=O)N1CC[N@@H+](C2CC2)c2ccccc21 (3D coordinates assigned)
CCOc1ccc(Cc2nc(=O)o[n-]2)cc1C(=O)N1CC[N@@H+](C2CC2)c2ccccc21 (nonaromatic ring conformer: 372.9176401157117 kcal/mol)

>  <smiles>  (84) 
CCOc1ccc(Cc2nc(=O)o[nH]2)cc1C(=O)N1CCN(C2CC2)c2ccccc21

>  <score_type>  (84) 
oracle

>  <origin>  (84) 
adg

>  <m_score__min__energy>  (84) 
-9.8800000000000008

>  <m_primary>  (84) 
energy

$$$$
84:0
     RDKit          3D

 77 81  0  0  0  0  0  0  0  0999 V2000
   58.8488   34.2287   43.3624 H   0  0  0  0  0  0  0  0  0  0  0  0
   58.2840   33.4460   43.8900 C   0  0  0  0  0  0  0  0  0  0  0  0
   57.8340   33.7720   45.2640 C   0  0  0  0  0  0  0  0  0  0  0  0
   56.7070   33.3460   45.6340 O   0  0  0  0  0  0  0  0  0  0  0  0
   58.5900   34.5740   46.1820 N   0  0  0  0  0  0  0  0  0  0  0  0
   59.7560   34.1850   46.9210 C   0  0  0  0  0  0  0  0  0  0  0  0
   59.9240   34.5170   48.2760 C   0  0  0  0  0  0  0  0  0  0  0  0
   59.1579   35.1119   48.7948 H   0  0  0  0  0  0  0  0  0  0  0  0
   61.0640   34.0920   48.9660 C   0  0  0  0  0  0  0  0  0  0  0  0
   61.1988   34.3657   50.0228 H   0  0  0  0  0  0  0  0  0  0  0  0
   62.0360   33.3180   48.3150 C   0  0  0  0  0  0  0  0  0  0  0  0
   63.4480   32.7180   49.1800 S   0  0  0  0  0  0  0  0  0  0  0  0
   64.1060   31.6630   48.3370 O   0  0  0  0  0  0  0  0  0  0  0  0
   64.4250   33.8410   49.4030 O   0  0  0  0  0  0  0  0  0  0  0  0
   62.9350   32.0320   50.7080 N   0  0  0  0  0  0  0  0  0  0  0  0
   63.2550   32.9150   51.8530 C   0  0  0  0  0  0  0  0  0  0  0  0
   63.3994   33.9389   51.4777 H   0  0  0  0  0  0  0  0  0  0  0  0
   62.4163   32.8550   52.5622 H   0  0  0  0  0  0  0  0  0  0  0  0
   64.5270   32.4820   52.6020 C   0  0  0  0  0  0  0  0  0  0  0  0
   64.9940   33.3640   53.0647 H   0  0  0  0  0  0  0  0  0  0  0  0
   64.2551   31.7503   53.3770 H   0  0  0  0  0  0  0  0  0  0  0  0
   65.4400   31.8870   51.7090 O   0  0  0  0  0  0  0  0  0  0  0  0
   64.9460   30.6340   51.2740 C   0  0  0  0  0  0  0  0  0  0  0  0
   65.5252   30.3179   50.3939 H   0  0  0  0  0  0  0  0  0  0  0  0
   65.0517   29.9344   52.1163 H   0  0  0  0  0  0  0  0  0  0  0  0
   63.4470   30.6610   50.8900 C   0  0  0  0  0  0  0  0  0  0  0  0
   63.3139   30.1070   49.9491 H   0  0  0  0  0  0  0  0  0  0  0  0
   62.8826   30.2002   51.7141 H   0  0  0  0  0  0  0  0  0  0  0  0
   61.8620   32.9800   46.9680 C   0  0  0  0  0  0  0  0  0  0  0  0
   62.6232   32.3768   46.4516 H   0  0  0  0  0  0  0  0  0  0  0  0
   60.7250   33.4060   46.2770 C   0  0  0  0  0  0  0  0  0  0  0  0
   60.5903   33.1279   45.2213 H   0  0  0  0  0  0  0  0  0  0  0  0
   58.0790   32.3000   43.2160 C   0  0  0  0  0  0  0  0  0  0  0  0
   58.2625   32.3241   42.1317 H   0  0  0  0  0  0  0  0  0  0  0  0
   57.6320   31.0120   43.7860 C   0  0  0  0  0  0  0  0  0  0  0  0
   56.2670   30.8380   44.0590 C   0  0  0  0  0  0  0  0  0  0  0  0
   55.5622   31.6619   43.8736 H   0  0  0  0  0  0  0  0  0  0  0  0
   55.8000   29.6260   44.5640 C   0  0  0  0  0  0  0  0  0  0  0  0
   54.7257   29.4902   44.7577 H   0  0  0  0  0  0  0  0  0  0  0  0
   56.6920   28.5830   44.8250 C   0  0  0  0  0  0  0  0  0  0  0  0
   56.3143   27.6274   45.2176 H   0  0  0  0  0  0  0  0  0  0  0  0
   58.0680   28.7450   44.5900 C   0  0  0  0  0  0  0  0  0  0  0  0
   59.0070   27.6830   44.8440 N   0  0  0  0  0  0  0  0  0  0  0  0
   58.7330   26.7020   44.6180 H   0  0  0  0  0  0  0  0  0  0  0  0
   60.4990   27.9120   45.6980 S   0  0  0  0  0  0  0  0  0  0  0  0
   61.0710   26.5710   46.0720 O   0  0  0  0  0  0  0  0  0  0  0  0
   61.4820   28.6110   44.8000 O   0  0  0  0  0  0  0  0  0  0  0  0
   60.2340   28.9010   47.1350 C   0  0  0  0  0  0  0  0  0  0  0  0
   59.6430   30.1630   47.0090 C   0  0  0  0  0  0  0  0  0  0  0  0
   59.3684   30.5423   46.0136 H   0  0  0  0  0  0  0  0  0  0  0  0
   59.4000   30.9440   48.1430 C   0  0  0  0  0  0  0  0  0  0  0  0
   58.9527   31.9425   48.0291 H   0  0  0  0  0  0  0  0  0  0  0  0
   59.7210   30.4680   49.4300 C   0  0  0  0  0  0  0  0  0  0  0  0
   59.4530   31.2620   50.6120 N   0  0  0  0  0  0  0  0  0  0  0  0
   60.1500   30.9690   51.8730 C   0  0  0  0  0  0  0  0  0  0  0  0
   61.1843   30.6662   51.6526 H   0  0  0  0  0  0  0  0  0  0  0  0
   59.6187   30.1576   52.3920 H   0  0  0  0  0  0  0  0  0  0  0  0
   60.1690   32.2030   52.7760 C   0  0  0  0  0  0  0  0  0  0  0  0
   60.7312   33.0044   52.2743 H   0  0  0  0  0  0  0  0  0  0  0  0
   60.6459   31.9266   53.7279 H   0  0  0  0  0  0  0  0  0  0  0  0
   58.8020   32.6840   53.0650 N   0  0  0  0  0  0  0  0  0  0  0  0
   58.8540   34.0030   53.7150 C   0  0  0  0  0  0  0  0  0  0  0  0
   58.8489   33.8739   54.8074 H   0  0  0  0  0  0  0  0  0  0  0  0
   59.7734   34.5252   53.4118 H   0  0  0  0  0  0  0  0  0  0  0  0
   57.9785   34.5960   53.4118 H   0  0  0  0  0  0  0  0  0  0  0  0
   57.8810   32.6900   51.8950 C   0  0  0  0  0  0  0  0  0  0  0  0
   57.3832   33.6700   51.8527 H   0  0  0  0  0  0  0  0  0  0  0  0
   57.1749   31.8598   52.0439 H   0  0  0  0  0  0  0  0  0  0  0  0
   58.5760   32.4430   50.5450 C   0  0  0  0  0  0  0  0  0  0  0  0
   59.1794   33.3250   50.2842 H   0  0  0  0  0  0  0  0  0  0  0  0
   57.8050   32.2644   49.7810 H   0  0  0  0  0  0  0  0  0  0  0  0
   60.3170   29.1950   49.5420 C   0  0  0  0  0  0  0  0  0  0  0  0
   60.5739   28.8006   50.5362 H   0  0  0  0  0  0  0  0  0  0  0  0
   60.5850   28.4290   48.4050 C   0  0  0  0  0  0  0  0  0  0  0  0
   61.0746   27.4494   48.5084 H   0  0  0  0  0  0  0  0  0  0  0  0
   58.5360   29.9810   44.1050 C   0  0  0  0  0  0  0  0  0  0  0  0
   59.6162   30.1424   43.9743 H   0  0  0  0  0  0  0  0  0  0  0  0
  1  2  1  0
  2  3  1  0
  3  4  2  0
  3  5  1  0
  5  6  1  0
  6  7  2  0
  7  8  1  0
  7  9  1  0
  9 10  1  0
  9 11  2  0
 11 12  1  0
 12 13  2  0
 12 14  2  0
 12 15  1  0
 15 16  1  0
 16 17  1  0
 16 18  1  0
 16 19  1  0
 19 20  1  0
 19 21  1  0
 19 22  1  0
 22 23  1  0
 23 24  1  0
 23 25  1  0
 23 26  1  0
 26 27  1  0
 26 28  1  0
 11 29  1  0
 29 30  1  0
 29 31  2  0
 31 32  1  0
  2 33  2  0
 33 34  1  0
 33 35  1  0
 35 36  2  0
 36 37  1  0
 36 38  1  0
 38 39  1  0
 38 40  2  0
 40 41  1  0
 40 42  1  0
 42 43  1  0
 43 44  1  0
 43 45  1  0
 45 46  2  0
 45 47  2  0
 45 48  1  0
 48 49  2  0
 49 50  1  0
 49 51  1  0
 51 52  1  0
 51 53  2  0
 53 54  1  0
 54 55  1  0
 55 56  1  0
 55 57  1  0
 55 58  1  0
 58 59  1  0
 58 60  1  0
 58 61  1  0
 61 62  1  0
 62 63  1  0
 62 64  1  0
 62 65  1  0
 61 66  1  0
 66 67  1  0
 66 68  1  0
 66 69  1  0
 69 70  1  0
 69 71  1  0
 53 72  1  0
 72 73  1  0
 72 74  2  0
 74 75  1  0
 42 76  2  0
 76 77  1  0
 31  6  1  0
 76 35  1  0
 26 15  1  0
 74 48  1  0
 69 54  1  0
M  CHG  1   5  -1
M  END
>  <UniqueID>  (85) 
76

>  <SMILES>  (85) 
CN1CCN(c2ccc(S(=O)(=O)Nc3cccc(/C=C\C(=O)[N-]c4ccc(S(=O)(=O)N5CCOCC5)cc4)c3)cc2)CC1

>  <Energy>  (85) 
115.70496895090236

>  <Genealogy>  (85) 
CN1CCN(c2ccc(S(=O)(=O)Nc3cccc(C=CC(=O)[N-]c4ccc(S(=O)(=O)N5CCOCC5)cc4)c3)cc2)CC1 (protonated)
CN1CCN(c2ccc(S(=O)(=O)Nc3cccc(/C=C\C(=O)[N-]c4ccc(S(=O)(=O)N5CCOCC5)cc4)c3)cc2)CC1 (cis-trans isomerization)
CN1CCN(c2ccc(S(=O)(=O)Nc3cccc(/C=C\C(=O)[N-]c4ccc(S(=O)(=O)N5CCOCC5)cc4)c3)cc2)CC1 (3D coordinates assigned)
CN1CCN(c2ccc(S(=O)(=O)Nc3cccc(/C=C\C(=O)[N-]c4ccc(S(=O)(=O)N5CCOCC5)cc4)c3)cc2)CC1 (nonaromatic ring conformer: 115.70496895090236 kcal/mol)

>  <smiles>  (85) 
CN1CCN(c2ccc(S(=O)(=O)Nc3cccc(C=CC(=O)Nc4ccc(S(=O)(=O)N5CCOCC5)cc4)c3)cc2)CC1

>  <score_type>  (85) 
oracle

>  <origin>  (85) 
adg

>  <m_score__min__energy>  (85) 
-12.09

>  <m_primary>  (85) 
energy

$$$$
85:0
     RDKit          3D

 55 58  0  0  1  0  0  0  0  0999 V2000
   56.5060   24.5010   44.7300 C   0  0  0  0  0  0  0  0  0  0  0  0
   56.1350   25.6110   46.0830 S   0  0  0  0  0  0  0  0  0  0  0  0
   54.7700   26.1980   45.9780 O   0  0  0  0  0  0  0  0  0  0  0  0
   56.2340   24.8710   47.3920 O   0  0  0  0  0  0  0  0  0  0  0  0
   57.3260   26.8680   46.0880 C   0  0  0  0  0  0  0  0  0  0  0  0
   58.5480   26.6740   46.7390 C   0  0  0  0  0  0  0  0  0  0  0  0
   59.5280   27.6470   46.7540 C   0  0  0  0  0  0  0  0  0  0  0  0
   59.2910   28.8600   46.1010 C   0  0  0  0  0  0  0  0  0  0  0  0
   58.0770   29.0860   45.4400 C   0  0  0  0  0  0  0  0  0  0  0  0
   57.8680   30.3510   44.7380 C   0  0  0  0  0  0  0  0  0  0  0  0
   57.6530   31.4900   45.4610 N   0  0  0  0  0  0  0  0  0  0  0  0
   57.4840   32.6900   44.8760 C   0  0  0  0  0  0  0  0  0  0  0  0
   57.2790   33.7730   45.5830 N   0  0  0  0  0  0  0  0  0  0  0  0
   57.6920   33.7910   46.9500 C   0  0  0  0  0  0  0  0  0  0  0  0
   59.1700   33.6200   47.1380 C   0  0  0  0  0  0  0  0  0  0  0  0
   59.6330   32.5890   47.9110 C   0  0  0  0  0  0  0  0  0  0  0  0
   60.9760   32.3290   48.1270 C   0  0  0  0  0  0  0  0  0  0  0  0
   61.8790   33.1530   47.5280 C   0  0  0  0  0  0  0  0  0  0  0  0
   63.3350   32.9810   47.6740 C   0  0  0  0  0  0  0  0  0  0  0  0
   64.0880   32.6930   46.7270 O   0  0  0  0  0  0  0  0  0  0  0  0
   63.8910   33.1570   48.9630 N   0  0  0  0  0  0  0  0  0  0  0  0
   65.2910   33.0380   49.3610 C   0  0  0  0  0  0  0  0  0  0  0  0
   65.1950   32.1530   50.5640 C   0  0  0  0  0  0  0  0  0  0  0  0
   63.9190   32.6010   51.2400 C   0  0  0  0  0  0  0  0  0  0  0  0
   63.2200   33.4990   50.2250 C   0  0  0  0  0  0  0  0  0  0  0  0
   61.4200   34.1800   46.7570 C   0  0  0  0  0  0  0  0  0  0  0  0
   60.0830   34.4540   46.5320 C   0  0  0  0  0  0  0  0  0  0  0  0
   57.5330   32.7520   43.5020 C   0  0  0  0  0  0  0  0  0  0  0  0
   57.7520   31.6020   42.7550 C   0  0  0  0  0  0  0  0  0  0  0  0
   57.9130   30.4300   43.3950 N   0  0  0  0  0  0  0  0  0  0  0  0
   57.1220   28.0970   45.4430 C   0  0  0  0  0  0  0  0  0  0  0  0
   56.8307   23.5296   45.1312 H   0  0  0  0  0  0  0  0  0  0  0  0
   55.6059   24.3607   44.1134 H   0  0  0  0  0  0  0  0  0  0  0  0
   57.3095   24.9302   44.1134 H   0  0  0  0  0  0  0  0  0  0  0  0
   58.7341   25.7198   47.2536 H   0  0  0  0  0  0  0  0  0  0  0  0
   60.4818   27.4699   47.2726 H   0  0  0  0  0  0  0  0  0  0  0  0
   60.0637   29.6429   46.1063 H   0  0  0  0  0  0  0  0  0  0  0  0
   57.3958   34.7551   47.3891 H   0  0  0  0  0  0  0  0  0  0  0  0
   57.2053   32.9365   47.4430 H   0  0  0  0  0  0  0  0  0  0  0  0
   58.8946   31.9282   48.3886 H   0  0  0  0  0  0  0  0  0  0  0  0
   61.3006   31.4888   48.7584 H   0  0  0  0  0  0  0  0  0  0  0  0
   65.8942   32.5716   48.5682 H   0  0  0  0  0  0  0  0  0  0  0  0
   65.7813   34.0030   49.5568 H   0  0  0  0  0  0  0  0  0  0  0  0
   65.1315   31.0954   50.2684 H   0  0  0  0  0  0  0  0  0  0  0  0
   66.0742   32.2305   51.2205 H   0  0  0  0  0  0  0  0  0  0  0  0
   63.2884   31.7340   51.4861 H   0  0  0  0  0  0  0  0  0  0  0  0
   64.1185   33.1277   52.1848 H   0  0  0  0  0  0  0  0  0  0  0  0
   62.1442   33.2752   50.1740 H   0  0  0  0  0  0  0  0  0  0  0  0
   63.2857   34.5683   50.4748 H   0  0  0  0  0  0  0  0  0  0  0  0
   62.1642   34.8356   46.2813 H   0  0  0  0  0  0  0  0  0  0  0  0
   59.7648   35.2964   45.9003 H   0  0  0  0  0  0  0  0  0  0  0  0
   57.3980   33.7176   42.9928 H   0  0  0  0  0  0  0  0  0  0  0  0
   57.7932   31.6488   41.6568 H   0  0  0  0  0  0  0  0  0  0  0  0
   58.0760   29.5980   42.7920 H   0  0  0  0  0  0  0  0  0  0  0  0
   56.1687   28.2748   44.9237 H   0  0  0  0  0  0  0  0  0  0  0  0
  1  2  1  0
  2  3  2  0
  2  4  2  0
  2  5  1  0
  5  6  2  0
  6  7  1  0
  7  8  2  0
  8  9  1  0
  9 10  1  0
 10 11  2  0
 11 12  1  0
 12 13  2  0
 13 14  1  0
 14 15  1  0
 15 16  2  0
 16 17  1  0
 17 18  2  0
 18 19  1  0
 19 20  2  0
 19 21  1  0
 21 22  1  0
 22 23  1  0
 23 24  1  0
 24 25  1  0
 18 26  1  0
 26 27  2  0
 12 28  1  0
 28 29  2  0
 29 30  1  0
  9 31  2  0
 31  5  1  0
 30 10  1  0
 27 15  1  0
 25 21  1  0
  1 32  1  0
  1 33  1  0
  1 34  1  0
  6 35  1  0
  7 36  1  0
  8 37  1  0
 14 38  1  0
 14 39  1  0
 16 40  1  0
 17 41  1  0
 22 42  1  0
 22 43  1  0
 23 44  1  0
 23 45  1  0
 24 46  1  0
 24 47  1  0
 25 48  1  0
 25 49  1  0
 26 50  1  0
 27 51  1  0
 28 52  1  0
 29 53  1  0
 30 54  1  0
 31 55  1  0
M  END
>  <smiles>  (86) 
CS(=O)(=O)c1cccc(-c2nc(=NCc3ccc(C(=O)N4CCCC4)cc3)cc[nH]2)c1

>  <score_type>  (86) 
oracle

>  <origin>  (86) 
adg

>  <m_score__min__energy>  (86) 
-10.869999999999999

>  <m_primary>  (86) 
energy

$$$$
86:0
     RDKit          3D

 56 60  0  0  0  0  0  0  0  0999 V2000
   60.6867   34.8909   50.8248 H   0  0  0  0  0  0  0  0  0  0  0  0
   60.9100   34.2140   49.9870 C   0  0  0  0  0  0  0  0  0  0  0  0
   60.1780   34.2450   48.4680 S   0  0  0  0  0  0  0  0  0  0  0  0
   61.0920   32.9570   47.8980 C   0  0  0  0  0  0  0  0  0  0  0  0
   60.9620   32.4490   46.7110 N   0  0  0  0  0  0  0  0  0  0  0  0
   60.1340   31.3150   46.4310 C   0  0  0  0  0  0  0  0  0  0  0  0
   58.9920   31.5060   45.9330 O   0  0  0  0  0  0  0  0  0  0  0  0
   60.6060   29.9300   46.6650 C   0  0  0  0  0  0  0  0  0  0  0  0
   61.2520   29.6860   47.7780 N   0  0  0  0  0  0  0  0  0  0  0  0
   60.6990   29.2250   49.0200 C   0  0  0  0  0  0  0  0  0  0  0  0
   60.7730   28.0000   49.3270 O   0  0  0  0  0  0  0  0  0  0  0  0
   59.9950   30.1770   49.9130 C   0  0  0  0  0  0  0  0  0  0  0  0
   58.9210   30.9470   49.4300 C   0  0  0  0  0  0  0  0  0  0  0  0
   58.6037   30.8456   48.3817 H   0  0  0  0  0  0  0  0  0  0  0  0
   58.2540   31.8410   50.2750 C   0  0  0  0  0  0  0  0  0  0  0  0
   57.4141   32.4372   49.8889 H   0  0  0  0  0  0  0  0  0  0  0  0
   58.6510   31.9790   51.6070 C   0  0  0  0  0  0  0  0  0  0  0  0
   57.8220   33.1080   52.6540 Cl  0  0  0  0  0  0  0  0  0  0  0  0
   59.7260   31.2290   52.0900 C   0  0  0  0  0  0  0  0  0  0  0  0
   60.0463   31.3419   53.1363 H   0  0  0  0  0  0  0  0  0  0  0  0
   60.3970   30.3350   51.2490 C   0  0  0  0  0  0  0  0  0  0  0  0
   61.2452   29.7519   51.6369 H   0  0  0  0  0  0  0  0  0  0  0  0
   60.3060   28.8390   45.6440 C   0  0  0  0  0  0  0  0  0  0  0  0
   60.4260   29.2658   44.6373 H   0  0  0  0  0  0  0  0  0  0  0  0
   61.0084   28.0164   45.8437 H   0  0  0  0  0  0  0  0  0  0  0  0
   58.9080   28.2560   45.7510 C   0  0  0  0  0  0  0  0  0  0  0  0
   57.8400   28.9220   45.1220 C   0  0  0  0  0  0  0  0  0  0  0  0
   58.0281   29.8513   44.5644 H   0  0  0  0  0  0  0  0  0  0  0  0
   56.5430   28.4110   45.2010 C   0  0  0  0  0  0  0  0  0  0  0  0
   55.7115   28.9500   44.7234 H   0  0  0  0  0  0  0  0  0  0  0  0
   56.2970   27.2150   45.8860 C   0  0  0  0  0  0  0  0  0  0  0  0
   55.0030   26.7120   45.9720 O   0  0  0  0  0  0  0  0  0  0  0  0
   57.3510   26.5260   46.4860 C   0  0  0  0  0  0  0  0  0  0  0  0
   57.1588   25.5816   47.0163 H   0  0  0  0  0  0  0  0  0  0  0  0
   58.6560   27.0360   46.4140 C   0  0  0  0  0  0  0  0  0  0  0  0
   59.4865   26.4824   46.8764 H   0  0  0  0  0  0  0  0  0  0  0  0
   61.9490   32.4830   48.8320 N   0  0  0  0  0  0  0  0  0  0  0  0
   61.8480   33.1810   49.9970 C   0  0  0  0  0  0  0  0  0  0  0  0
   62.6790   32.8370   51.1950 C   0  0  0  0  0  0  0  0  0  0  0  0
   62.7429   33.7147   51.8550 H   0  0  0  0  0  0  0  0  0  0  0  0
   62.2070   31.9965   51.7249 H   0  0  0  0  0  0  0  0  0  0  0  0
   64.0600   32.4320   50.7790 C   0  0  0  0  0  0  0  0  0  0  0  0
   64.8620   33.0820   49.8440 C   0  0  0  0  0  0  0  0  0  0  0  0
   64.5699   33.9846   49.2873 H   0  0  0  0  0  0  0  0  0  0  0  0
   66.0510   32.4480   49.7160 N   0  0  0  0  0  0  0  0  0  0  0  0
   66.8400   32.7120   49.0810 H   0  0  0  0  0  0  0  0  0  0  0  0
   65.9990   31.4040   50.5610 C   0  0  0  0  0  0  0  0  0  0  0  0
   64.8070   31.3580   51.2290 C   0  0  0  0  0  0  0  0  0  0  0  0
   64.5420   30.3450   52.1460 C   0  0  0  0  0  0  0  0  0  0  0  0
   63.5837   30.3002   52.6841 H   0  0  0  0  0  0  0  0  0  0  0  0
   65.5430   29.3810   52.3600 C   0  0  0  0  0  0  0  0  0  0  0  0
   65.3390   28.3710   53.2410 F   0  0  0  0  0  0  0  0  0  0  0  0
   66.7570   29.4610   51.6450 C   0  0  0  0  0  0  0  0  0  0  0  0
   67.5365   28.7020   51.8074 H   0  0  0  0  0  0  0  0  0  0  0  0
   66.9730   30.4750   50.7510 N   0  0  0  0  0  0  0  0  0  0  0  0
   67.8730   30.5290   50.2220 H   0  0  0  0  0  0  0  0  0  0  0  0
  1  2  1  0
  2  3  1  0
  3  4  1  0
  4  5  2  0
  5  6  1  0
  6  7  2  0
  6  8  1  0
  8  9  2  0
  9 10  1  0
 10 11  2  0
 10 12  1  0
 12 13  2  0
 13 14  1  0
 13 15  1  0
 15 16  1  0
 15 17  2  0
 17 18  1  0
 17 19  1  0
 19 20  1  0
 19 21  2  0
 21 22  1  0
  8 23  1  0
 23 24  1  0
 23 25  1  0
 23 26  1  0
 26 27  2  0
 27 28  1  0
 27 29  1  0
 29 30  1  0
 29 31  2  0
 31 32  1  0
 31 33  1  0
 33 34  1  0
 33 35  2  0
 35 36  1  0
  4 37  1  0
 37 38  1  0
 38 39  1  0
 39 40  1  0
 39 41  1  0
 39 42  1  0
 42 43  2  0
 43 44  1  0
 43 45  1  0
 45 46  1  0
 45 47  1  0
 47 48  2  0
 48 49  1  0
 49 50  1  0
 49 51  2  0
 51 52  1  0
 51 53  1  0
 53 54  1  0
 53 55  2  0
 55 56  1  0
 38  2  2  0
 48 42  1  0
 21 12  1  0
 35 26  1  0
 55 47  1  0
M  CHG  3  32  -1  37  -1  55   1
M  END
>  <UniqueID>  (87) 
77

>  <SMILES>  (87) 
O=C(/N=c1\[n-]c(Cc2c[nH]c3[nH+]cc(F)cc23)cs1)/C(Cc1ccc([O-])cc1)=N/C(=O)c1ccc(Cl)cc1

>  <Energy>  (87) 
136.56768400816864

>  <Genealogy>  (87) 
O=C(N=c1[n-]c(Cc2c[nH]c3[nH+]cc(F)cc23)cs1)C(Cc1ccc([O-])cc1)=NC(=O)c1ccc(Cl)cc1 (protonated)
O=C(/N=c1\[n-]c(Cc2c[nH]c3[nH+]cc(F)cc23)cs1)/C(Cc1ccc([O-])cc1)=N/C(=O)c1ccc(Cl)cc1 (cis-trans isomerization)
O=C(/N=c1\[n-]c(Cc2c[nH]c3[nH+]cc(F)cc23)cs1)/C(Cc1ccc([O-])cc1)=N/C(=O)c1ccc(Cl)cc1 (3D coordinates assigned)
O=C(/N=c1\[n-]c(Cc2c[nH]c3[nH+]cc(F)cc23)cs1)/C(Cc1ccc([O-])cc1)=N/C(=O)c1ccc(Cl)cc1 (optimized conformer: 136.56768400816864 kcal/mol)

>  <smiles>  (87) 
O=C(N=c1[nH]c(Cc2c[nH]c3ncc(F)cc23)cs1)C(Cc1ccc(O)cc1)=NC(=O)c1ccc(Cl)cc1

>  <score_type>  (87) 
oracle

>  <origin>  (87) 
adg

>  <m_score__min__energy>  (87) 
-12.210000000000001

>  <m_primary>  (87) 
energy

$$$$
87:0
     RDKit          3D

 42 44  0  0  0  0  0  0  0  0999 V2000
   58.6910   27.6570   43.8130 C   0  0  0  0  0  0  0  0  0  0  0  0
   59.8570   28.1370   44.6480 C   0  0  0  0  0  0  0  0  0  0  0  0
   59.4490   29.0780   45.6980 C   0  0  0  0  0  0  0  0  0  0  0  0
   59.3160   30.4130   45.4360 N   0  0  0  0  0  0  0  0  0  0  0  0
   58.9510   31.3060   46.3540 C   0  0  0  0  0  0  0  0  0  0  0  0
   58.8130   33.0190   45.8930 S   0  0  0  0  0  0  0  0  0  0  0  0
   57.5160   33.3100   44.6720 C   0  0  0  0  0  0  0  0  0  0  0  0
   57.0870   31.9790   44.1670 C   0  0  0  0  0  0  0  0  0  0  0  0
   57.4440   31.3190   43.0130 C   0  0  0  0  0  0  0  0  0  0  0  0
   56.7830   30.1390   43.0120 N   0  0  0  0  0  0  0  0  0  0  0  0
   56.0290   30.0450   44.1220 C   0  0  0  0  0  0  0  0  0  0  0  0
   55.2020   29.0100   44.5120 O   0  0  0  0  0  0  0  0  0  0  0  0
   56.2280   31.1860   44.8210 N   0  0  0  0  0  0  0  0  0  0  0  0
   58.7020   30.8810   47.5900 N   0  0  0  0  0  0  0  0  0  0  0  0
   58.8150   29.5830   47.9050 C   0  0  0  0  0  0  0  0  0  0  0  0
   58.5590   29.2700   49.1040 O   0  0  0  0  0  0  0  0  0  0  0  0
   59.1970   28.6130   46.9670 C   0  0  0  0  0  0  0  0  0  0  0  0
   59.2820   27.2360   47.4240 C   0  0  0  0  0  0  0  0  0  0  0  0
   58.4250   26.2370   46.8080 C   0  0  0  0  0  0  0  0  0  0  0  0
   57.0620   26.5170   46.7160 C   0  0  0  0  0  0  0  0  0  0  0  0
   56.1760   25.5950   46.1530 C   0  0  0  0  0  0  0  0  0  0  0  0
   56.6230   24.3760   45.6710 C   0  0  0  0  0  0  0  0  0  0  0  0
   57.9680   24.0970   45.7620 C   0  0  0  0  0  0  0  0  0  0  0  0
   58.8150   25.0120   46.3140 C   0  0  0  0  0  0  0  0  0  0  0  0
   57.8788   27.3227   44.4752 H   0  0  0  0  0  0  0  0  0  0  0  0
   58.3312   28.4801   43.1782 H   0  0  0  0  0  0  0  0  0  0  0  0
   59.0149   26.8191   43.1782 H   0  0  0  0  0  0  0  0  0  0  0  0
   60.3338   27.2660   45.1212 H   0  0  0  0  0  0  0  0  0  0  0  0
   60.5516   28.6653   43.9783 H   0  0  0  0  0  0  0  0  0  0  0  0
   59.5110   30.7530   44.4650 H   0  0  0  0  0  0  0  0  0  0  0  0
   56.6661   33.8282   45.1401 H   0  0  0  0  0  0  0  0  0  0  0  0
   57.8853   33.9410   43.8502 H   0  0  0  0  0  0  0  0  0  0  0  0
   58.1356   31.6823   42.2386 H   0  0  0  0  0  0  0  0  0  0  0  0
   56.8330   29.4150   42.2870 H   0  0  0  0  0  0  0  0  0  0  0  0
   54.7280   28.9660   45.3860 H   0  0  0  0  0  0  0  0  0  0  0  0
   60.3209   26.9087   47.2708 H   0  0  0  0  0  0  0  0  0  0  0  0
   58.9304   27.2805   48.4654 H   0  0  0  0  0  0  0  0  0  0  0  0
   56.6790   27.4772   47.0919 H   0  0  0  0  0  0  0  0  0  0  0  0
   55.1057   25.8414   46.0916 H   0  0  0  0  0  0  0  0  0  0  0  0
   55.9235   23.6517   45.2282 H   0  0  0  0  0  0  0  0  0  0  0  0
   58.3585   23.1382   45.3903 H   0  0  0  0  0  0  0  0  0  0  0  0
   59.8829   24.7540   46.3685 H   0  0  0  0  0  0  0  0  0  0  0  0
  1  2  1  0
  2  3  1  0
  3  4  1  0
  4  5  1  0
  5  6  1  0
  6  7  1  0
  7  8  1  0
  8  9  2  0
  9 10  1  0
 10 11  1  0
 11 12  1  0
 11 13  2  0
  5 14  2  0
 14 15  1  0
 15 16  2  0
 15 17  1  0
 17 18  1  0
 18 19  1  0
 19 20  2  0
 20 21  1  0
 21 22  2  0
 22 23  1  0
 23 24  2  0
 17  3  2  0
 24 19  1  0
 13  8  1  0
  1 25  1  0
  1 26  1  0
  1 27  1  0
  2 28  1  0
  2 29  1  0
  4 30  1  0
  7 31  1  0
  7 32  1  0
  9 33  1  0
 10 34  1  0
 12 35  1  0
 18 36  1  0
 18 37  1  0
 20 38  1  0
 21 39  1  0
 22 40  1  0
 23 41  1  0
 24 42  1  0
M  END
>  <smiles>  (88) 
CCc1[nH]c(SCc2c[nH]c(O)n2)nc(=O)c1Cc1ccccc1

>  <score_type>  (88) 
oracle

>  <origin>  (88) 
adg

>  <m_score__min__energy>  (88) 
-8.9299999999999997

>  <m_primary>  (88) 
energy

$$$$
88:0
     RDKit          3D

 48 50  0  0  0  0  0  0  0  0999 V2000
   57.6000   34.1900   46.0980 C   0  0  0  0  0  0  0  0  0  0  0  0
   58.9830   34.0510   46.6610 C   0  0  0  0  0  0  0  0  0  0  0  0
   60.1040   34.2320   45.8380 C   0  0  0  0  0  0  0  0  0  0  0  0
   61.3910   34.1050   46.3670 C   0  0  0  0  0  0  0  0  0  0  0  0
   61.5690   33.7870   47.7150 C   0  0  0  0  0  0  0  0  0  0  0  0
   60.4560   33.5880   48.5480 C   0  0  0  0  0  0  0  0  0  0  0  0
   60.6470   33.1860   49.9910 C   0  0  0  0  0  0  0  0  0  0  0  0
   59.6710   32.1510   50.4090 N   0  0  0  0  0  0  0  0  0  0  0  0
   59.7860   30.8440   49.9790 C   0  0  0  0  0  0  0  0  0  0  0  0
   60.8220   30.3810   48.9690 C   0  0  0  0  0  0  0  0  0  0  0  0
   60.2760   30.3970   47.5660 C   0  0  0  0  0  0  0  0  0  0  0  0
   61.0660   30.5200   46.5870 O   0  0  0  0  0  0  0  0  0  0  0  0
   58.8580   30.4100   47.3530 N   0  0  0  0  0  0  0  0  0  0  0  0
   58.2290   30.2620   46.0680 C   0  0  0  0  0  0  0  0  0  0  0  0
   58.3950   31.2620   45.0990 C   0  0  0  0  0  0  0  0  0  0  0  0
   57.7720   31.1520   43.8510 C   0  0  0  0  0  0  0  0  0  0  0  0
   56.9630   30.0470   43.5670 C   0  0  0  0  0  0  0  0  0  0  0  0
   56.3680   29.9390   42.3510 F   0  0  0  0  0  0  0  0  0  0  0  0
   56.7660   29.0610   44.5360 C   0  0  0  0  0  0  0  0  0  0  0  0
   57.3940   29.1580   45.7820 C   0  0  0  0  0  0  0  0  0  0  0  0
   58.8700   29.8900   50.4240 C   0  0  0  0  0  0  0  0  0  0  0  0
   57.8550   30.2620   51.2910 C   0  0  0  0  0  0  0  0  0  0  0  0
   57.0240   29.3910   51.6660 O   0  0  0  0  0  0  0  0  0  0  0  0
   57.7570   31.5550   51.7210 N   0  0  0  0  0  0  0  0  0  0  0  0
   56.6530   31.9490   52.6160 C   0  0  0  0  0  0  0  0  0  0  0  0
   58.6390   32.4990   51.2580 C   0  0  0  0  0  0  0  0  0  0  0  0
   58.4960   33.7040   51.6140 O   0  0  0  0  0  0  0  0  0  0  0  0
   59.1640   33.7010   48.0080 C   0  0  0  0  0  0  0  0  0  0  0  0
   56.8745   34.2629   46.9216 H   0  0  0  0  0  0  0  0  0  0  0  0
   57.5454   35.0982   45.4797 H   0  0  0  0  0  0  0  0  0  0  0  0
   57.3657   33.3109   45.4797 H   0  0  0  0  0  0  0  0  0  0  0  0
   59.9698   34.4745   44.7735 H   0  0  0  0  0  0  0  0  0  0  0  0
   62.2671   34.2561   45.7193 H   0  0  0  0  0  0  0  0  0  0  0  0
   62.5849   33.6920   48.1260 H   0  0  0  0  0  0  0  0  0  0  0  0
   61.6644   32.7876   50.1178 H   0  0  0  0  0  0  0  0  0  0  0  0
   60.4897   34.0765   50.6173 H   0  0  0  0  0  0  0  0  0  0  0  0
   61.6938   31.0498   49.0201 H   0  0  0  0  0  0  0  0  0  0  0  0
   61.1043   29.3469   49.2160 H   0  0  0  0  0  0  0  0  0  0  0  0
   58.2440   30.5810   48.1770 H   0  0  0  0  0  0  0  0  0  0  0  0
   59.0197   32.1395   45.3217 H   0  0  0  0  0  0  0  0  0  0  0  0
   57.9186   31.9352   43.0926 H   0  0  0  0  0  0  0  0  0  0  0  0
   56.1131   28.2030   44.3181 H   0  0  0  0  0  0  0  0  0  0  0  0
   57.2381   28.3754   46.5391 H   0  0  0  0  0  0  0  0  0  0  0  0
   58.9534   28.8460   50.0876 H   0  0  0  0  0  0  0  0  0  0  0  0
   56.9713   31.8354   53.6628 H   0  0  0  0  0  0  0  0  0  0  0  0
   56.3840   32.9986   52.4264 H   0  0  0  0  0  0  0  0  0  0  0  0
   55.7803   31.3068   52.4264 H   0  0  0  0  0  0  0  0  0  0  0  0
   58.2876   33.5137   48.6458 H   0  0  0  0  0  0  0  0  0  0  0  0
  1  2  1  0
  2  3  2  0
  3  4  1  0
  4  5  2  0
  5  6  1  0
  6  7  1  0
  7  8  1  0
  8  9  1  0
  9 10  1  0
 10 11  1  0
 11 12  2  0
 11 13  1  0
 13 14  1  0
 14 15  2  0
 15 16  1  0
 16 17  2  0
 17 18  1  0
 17 19  1  0
 19 20  2  0
  9 21  2  0
 21 22  1  0
 22 23  2  0
 22 24  1  0
 24 25  1  0
 24 26  1  0
 26 27  2  0
  6 28  2  0
 28  2  1  0
 26  8  1  0
 20 14  1  0
  1 29  1  0
  1 30  1  0
  1 31  1  0
  3 32  1  0
  4 33  1  0
  5 34  1  0
  7 35  1  0
  7 36  1  0
 10 37  1  0
 10 38  1  0
 13 39  1  0
 15 40  1  0
 16 41  1  0
 19 42  1  0
 20 43  1  0
 21 44  1  0
 25 45  1  0
 25 46  1  0
 25 47  1  0
 28 48  1  0
M  END
>  <UniqueID>  (89) 
78

>  <SMILES>  (89) 
Cc1cccc(Cn2c(CC(=O)Nc3ccc(F)cc3)cc(=O)n(C)c2=O)c1

>  <Energy>  (89) 
57.6265042219786

>  <Genealogy>  (89) 
Cc1cccc(Cn2c(CC(=O)Nc3ccc(F)cc3)cc(=O)n(C)c2=O)c1 (3D coordinates assigned)
Cc1cccc(Cn2c(CC(=O)Nc3ccc(F)cc3)cc(=O)n(C)c2=O)c1 (optimized conformer: 57.6265042219786 kcal/mol)

>  <smiles>  (89) 
Cc1cccc(Cn2c(CC(=O)Nc3ccc(F)cc3)cc(=O)n(C)c2=O)c1

>  <score_type>  (89) 
oracle

>  <origin>  (89) 
adg

>  <m_score__min__energy>  (89) 
-7.4000000000000004

>  <m_primary>  (89) 
energy

$$$$
89:0
     RDKit          3D

 56 59  0  0  0  0  0  0  0  0999 V2000
   58.2364   27.7485   48.0384 H   0  0  0  0  0  0  0  0  0  0  0  0
   58.6390   28.7350   47.7650 C   0  0  0  0  0  0  0  0  0  0  0  0
   59.4850   29.3730   48.6030 N   0  0  0  0  0  0  0  0  0  0  0  0
   60.0210   30.5800   48.3070 C   0  0  0  0  0  0  0  0  0  0  0  0
   60.8150   31.1170   49.1960 N   0  0  0  0  0  0  0  0  0  0  0  0
   60.8080   32.4640   49.7720 C   0  0  0  0  0  0  0  0  0  0  0  0
   61.7457   32.6203   50.3254 H   0  0  0  0  0  0  0  0  0  0  0  0
   60.7110   33.1888   48.9503 H   0  0  0  0  0  0  0  0  0  0  0  0
   59.6460   32.6600   50.7130 C   0  0  0  0  0  0  0  0  0  0  0  0
   58.5780   31.7470   50.7140 C   0  0  0  0  0  0  0  0  0  0  0  0
   58.6030   30.8750   50.0439 H   0  0  0  0  0  0  0  0  0  0  0  0
   57.4840   31.9410   51.5620 C   0  0  0  0  0  0  0  0  0  0  0  0
   56.6545   31.2185   51.5620 H   0  0  0  0  0  0  0  0  0  0  0  0
   57.4420   33.0500   52.4090 C   0  0  0  0  0  0  0  0  0  0  0  0
   56.5852   33.1946   53.0835 H   0  0  0  0  0  0  0  0  0  0  0  0
   58.4890   33.9770   52.4000 C   0  0  0  0  0  0  0  0  0  0  0  0
   58.4528   34.8537   53.0634 H   0  0  0  0  0  0  0  0  0  0  0  0
   59.5820   33.7900   51.5480 C   0  0  0  0  0  0  0  0  0  0  0  0
   60.3956   34.5302   51.5308 H   0  0  0  0  0  0  0  0  0  0  0  0
   59.6890   31.1820   47.0660 C   0  0  0  0  0  0  0  0  0  0  0  0
   60.2190   32.2740   46.7270 O   0  0  0  0  0  0  0  0  0  0  0  0
   58.7970   30.5620   46.2140 N   0  0  0  0  0  0  0  0  0  0  0  0
   58.4640   31.2160   44.9290 C   0  0  0  0  0  0  0  0  0  0  0  0
   58.0186   30.4732   44.2508 H   0  0  0  0  0  0  0  0  0  0  0  0
   59.3862   31.6275   44.4928 H   0  0  0  0  0  0  0  0  0  0  0  0
   57.4890   32.3370   45.1400 C   0  0  0  0  0  0  0  0  0  0  0  0
   56.2700   32.1640   44.8710 O   0  0  0  0  0  0  0  0  0  0  0  0
   57.9340   33.6080   45.6140 N   0  0  0  0  0  0  0  0  0  0  0  0
   57.2500   34.3800   45.7720 H   0  0  0  0  0  0  0  0  0  0  0  0
   58.9470   33.7850   45.7960 H   0  0  0  0  0  0  0  0  0  0  0  0
   58.2730   29.3260   46.5490 C   0  0  0  0  0  0  0  0  0  0  0  0
   57.3210   28.5440   45.6590 C   0  0  0  0  0  0  0  0  0  0  0  0
   56.2857   28.8100   45.9187 H   0  0  0  0  0  0  0  0  0  0  0  0
   57.5333   28.7988   44.6102 H   0  0  0  0  0  0  0  0  0  0  0  0
   57.5090   27.0540   45.8400 C   0  0  0  0  0  0  0  0  0  0  0  0
   58.8030   26.5120   45.7840 C   0  0  0  0  0  0  0  0  0  0  0  0
   59.6667   27.1766   45.6346 H   0  0  0  0  0  0  0  0  0  0  0  0
   59.0020   25.1400   45.9160 C   0  0  0  0  0  0  0  0  0  0  0  0
   60.0192   24.7252   45.8600 H   0  0  0  0  0  0  0  0  0  0  0  0
   57.9150   24.2910   46.1190 C   0  0  0  0  0  0  0  0  0  0  0  0
   58.0810   23.2078   46.2142 H   0  0  0  0  0  0  0  0  0  0  0  0
   56.6150   24.8020   46.2030 C   0  0  0  0  0  0  0  0  0  0  0  0
   55.5500   23.8660   46.4260 N   0  0  0  0  0  0  0  0  0  0  0  0
   55.7040   22.1720   46.7720 S   0  0  0  0  0  0  0  0  0  0  0  0
   56.9980   21.9170   47.4900 O   0  0  0  0  0  0  0  0  0  0  0  0
   55.6700   21.3870   45.4900 O   0  0  0  0  0  0  0  0  0  0  0  0
   54.3520   21.6060   47.7990 C   0  0  0  0  0  0  0  0  0  0  0  0
   54.6205   20.5398   47.7641 H   0  0  0  0  0  0  0  0  0  0  0  0
   53.9250   22.5670   48.8950 C   0  0  0  0  0  0  0  0  0  0  0  0
   53.5710   22.1777   49.8610 H   0  0  0  0  0  0  0  0  0  0  0  0
   54.3944   23.4179   49.4103 H   0  0  0  0  0  0  0  0  0  0  0  0
   53.0680   22.4030   47.6480 C   0  0  0  0  0  0  0  0  0  0  0  0
   52.0944   21.8951   47.7124 H   0  0  0  0  0  0  0  0  0  0  0  0
   52.6610   23.0863   46.8881 H   0  0  0  0  0  0  0  0  0  0  0  0
   56.4060   26.1910   46.0340 C   0  0  0  0  0  0  0  0  0  0  0  0
   55.1180   26.7150   46.0250 O   0  0  0  0  0  0  0  0  0  0  0  0
  1  2  1  0
  2  3  1  0
  3  4  1  0
  4  5  2  0
  5  6  1  0
  6  7  1  0
  6  8  1  0
  6  9  1  0
  9 10  2  0
 10 11  1  0
 10 12  1  0
 12 13  1  0
 12 14  2  0
 14 15  1  0
 14 16  1  0
 16 17  1  0
 16 18  2  0
 18 19  1  0
  4 20  1  0
 20 21  2  0
 20 22  1  0
 22 23  1  0
 23 24  1  0
 23 25  1  0
 23 26  1  0
 26 27  2  0
 26 28  1  0
 28 29  1  0
 28 30  1  0
 22 31  1  0
 31 32  1  0
 32 33  1  0
 32 34  1  0
 32 35  1  0
 35 36  2  0
 36 37  1  0
 36 38  1  0
 38 39  1  0
 38 40  2  0
 40 41  1  0
 40 42  1  0
 42 43  1  0
 43 44  1  0
 44 45  2  0
 44 46  2  0
 44 47  1  0
 47 48  1  0
 47 49  1  0
 49 50  1  0
 49 51  1  0
 49 52  1  0
 52 53  1  0
 52 54  1  0
 42 55  2  0
 55 56  1  0
 31  2  2  0
 55 35  1  0
 18  9  1  0
 52 47  1  0
M  CHG  3   3  -1  43  -1  56  -1
M  END
>  <UniqueID>  (90) 
79

>  <SMILES>  (90) 
NC(=O)Cn1c(Cc2cccc([N-]S(=O)(=O)C3CC3)c2[O-])c[n-]/c(=N/Cc2ccccc2)c1=O

>  <Energy>  (90) 
339.3215225491653

>  <Genealogy>  (90) 
NC(=O)Cn1c(Cc2cccc([N-]S(=O)(=O)C3CC3)c2[O-])c[n-]c(=NCc2ccccc2)c1=O (protonated)
NC(=O)Cn1c(Cc2cccc([N-]S(=O)(=O)C3CC3)c2[O-])c[n-]/c(=N/Cc2ccccc2)c1=O (cis-trans isomerization)
NC(=O)Cn1c(Cc2cccc([N-]S(=O)(=O)C3CC3)c2[O-])c[n-]/c(=N/Cc2ccccc2)c1=O (3D coordinates assigned)
NC(=O)Cn1c(Cc2cccc([N-]S(=O)(=O)C3CC3)c2[O-])c[n-]/c(=N/Cc2ccccc2)c1=O (nonaromatic ring conformer: 339.3215225491653 kcal/mol)

>  <smiles>  (90) 
NC(=O)Cn1c(Cc2cccc(NS(=O)(=O)C3CC3)c2O)c[nH]c(=NCc2ccccc2)c1=O

>  <score_type>  (90) 
oracle

>  <origin>  (90) 
adg

>  <m_score__min__energy>  (90) 
-15.85

>  <m_primary>  (90) 
energy

$$$$
90:0
     RDKit          3D

 65 68  0  0  0  0  0  0  0  0999 V2000
   57.3240   25.2550   46.9170 O   0  0  0  0  0  0  0  0  0  0  0  0
   58.4260   25.8610   46.8340 C   0  0  0  0  0  0  0  0  0  0  0  0
   58.9000   26.3810   45.4950 C   0  0  0  0  0  0  0  0  0  0  0  0
   58.3590   27.7570   45.1990 C   0  0  0  0  0  0  0  0  0  0  0  0
   57.0130   28.0580   45.4620 C   0  0  0  0  0  0  0  0  0  0  0  0
   56.4960   29.3190   45.1500 C   0  0  0  0  0  0  0  0  0  0  0  0
   57.3210   30.3010   44.5700 C   0  0  0  0  0  0  0  0  0  0  0  0
   56.8530   31.5820   44.2330 O   0  0  0  0  0  0  0  0  0  0  0  0
   57.6750   32.6800   43.8370 C   0  0  0  0  0  0  0  0  0  0  0  0
   58.2480   33.3670   45.0460 C   0  0  0  0  0  0  0  0  0  0  0  0
   58.9700   34.5650   44.9210 C   0  0  0  0  0  0  0  0  0  0  0  0
   59.5200   35.1770   46.0520 C   0  0  0  0  0  0  0  0  0  0  0  0
   59.3470   34.6010   47.3150 C   0  0  0  0  0  0  0  0  0  0  0  0
   58.6210   33.4130   47.4490 C   0  0  0  0  0  0  0  0  0  0  0  0
   58.3970   32.6950   49.0340 Cl  0  0  0  0  0  0  0  0  0  0  0  0
   58.0740   32.7970   46.3200 C   0  0  0  0  0  0  0  0  0  0  0  0
   58.6640   29.9990   44.3160 C   0  0  0  0  0  0  0  0  0  0  0  0
   59.1780   28.7330   44.6140 C   0  0  0  0  0  0  0  0  0  0  0  0
   59.1650   26.0930   48.0400 N   0  0  0  0  0  0  0  0  0  0  0  0
   60.4410   26.8010   48.1480 C   0  0  0  0  0  0  0  0  0  0  0  0
   60.6970   27.2790   49.5540 C   0  0  0  0  0  0  0  0  0  0  0  0
   60.9920   26.4560   50.4620 O   0  0  0  0  0  0  0  0  0  0  0  0
   60.6280   28.6730   49.8870 N   0  0  0  0  0  0  0  0  0  0  0  0
   60.8640   29.7340   48.9570 C   0  0  0  0  0  0  0  0  0  0  0  0
   61.9220   30.6200   49.1970 C   0  0  0  0  0  0  0  0  0  0  0  0
   62.2150   31.6430   48.2870 C   0  0  0  0  0  0  0  0  0  0  0  0
   63.5600   32.7390   48.5950 S   0  0  0  0  0  0  0  0  0  0  0  0
   64.1350   33.2030   47.2860 O   0  0  0  0  0  0  0  0  0  0  0  0
   64.6280   31.9810   49.3360 O   0  0  0  0  0  0  0  0  0  0  0  0
   63.0170   34.0930   49.5640 N   0  0  0  0  0  0  0  0  0  0  0  0
   63.7440   34.2020   50.8430 C   0  0  0  0  0  0  0  0  0  0  0  0
   63.1760   33.2620   51.9170 C   0  0  0  0  0  0  0  0  0  0  0  0
   61.7890   33.4710   52.0880 O   0  0  0  0  0  0  0  0  0  0  0  0
   61.1140   33.1570   50.8880 C   0  0  0  0  0  0  0  0  0  0  0  0
   61.5540   34.0960   49.7540 C   0  0  0  0  0  0  0  0  0  0  0  0
   61.4240   31.7930   47.1390 C   0  0  0  0  0  0  0  0  0  0  0  0
   60.3450   30.9350   46.9100 C   0  0  0  0  0  0  0  0  0  0  0  0
   60.0490   29.9120   47.8190 C   0  0  0  0  0  0  0  0  0  0  0  0
   58.9330   29.1110   47.5830 O   0  0  0  0  0  0  0  0  0  0  0  0
   59.9991   26.4252   45.5002 H   0  0  0  0  0  0  0  0  0  0  0  0
   58.5327   25.6969   44.7158 H   0  0  0  0  0  0  0  0  0  0  0  0
   56.3613   27.2971   45.9163 H   0  0  0  0  0  0  0  0  0  0  0  0
   55.4398   29.5447   45.3587 H   0  0  0  0  0  0  0  0  0  0  0  0
   58.4969   32.3091   43.2070 H   0  0  0  0  0  0  0  0  0  0  0  0
   57.0630   33.3997   43.2735 H   0  0  0  0  0  0  0  0  0  0  0  0
   59.1034   35.0237   43.9301 H   0  0  0  0  0  0  0  0  0  0  0  0
   60.0893   36.1125   45.9482 H   0  0  0  0  0  0  0  0  0  0  0  0
   59.7821   35.0826   48.2031 H   0  0  0  0  0  0  0  0  0  0  0  0
   57.5047   31.8620   46.4283 H   0  0  0  0  0  0  0  0  0  0  0  0
   59.3212   30.7646   43.8779 H   0  0  0  0  0  0  0  0  0  0  0  0
   60.2295   28.5020   44.3884 H   0  0  0  0  0  0  0  0  0  0  0  0
   61.2523   26.1207   47.8497 H   0  0  0  0  0  0  0  0  0  0  0  0
   60.4013   27.6809   47.4890 H   0  0  0  0  0  0  0  0  0  0  0  0
   62.5281   30.5111   50.1085 H   0  0  0  0  0  0  0  0  0  0  0  0
   64.8004   33.9473   50.6725 H   0  0  0  0  0  0  0  0  0  0  0  0
   63.6339   35.2344   51.2063 H   0  0  0  0  0  0  0  0  0  0  0  0
   63.3480   32.2196   51.6107 H   0  0  0  0  0  0  0  0  0  0  0  0
   63.6830   33.4710   52.8706 H   0  0  0  0  0  0  0  0  0  0  0  0
   61.3432   32.1187   50.6061 H   0  0  0  0  0  0  0  0  0  0  0  0
   60.0327   33.2798   51.0486 H   0  0  0  0  0  0  0  0  0  0  0  0
   61.0747   33.7709   48.8188 H   0  0  0  0  0  0  0  0  0  0  0  0
   61.2508   35.1180   50.0251 H   0  0  0  0  0  0  0  0  0  0  0  0
   61.6537   32.5893   46.4157 H   0  0  0  0  0  0  0  0  0  0  0  0
   59.7248   31.0640   46.0107 H   0  0  0  0  0  0  0  0  0  0  0  0
   58.7840   28.2310   48.0610 H   0  0  0  0  0  0  0  0  0  0  0  0
  1  2  2  0
  2  3  1  0
  3  4  1  0
  4  5  2  0
  5  6  1  0
  6  7  2  0
  7  8  1  0
  8  9  1  0
  9 10  1  0
 10 11  2  0
 11 12  1  0
 12 13  2  0
 13 14  1  0
 14 15  1  0
 14 16  2  0
  7 17  1  0
 17 18  2  0
  2 19  1  0
 19 20  1  0
 20 21  1  0
 21 22  2  0
 21 23  1  0
 23 24  1  0
 24 25  2  0
 25 26  1  0
 26 27  1  0
 27 28  2  0
 27 29  2  0
 27 30  1  0
 30 31  1  0
 31 32  1  0
 32 33  1  0
 33 34  1  0
 34 35  1  0
 26 36  2  0
 36 37  1  0
 37 38  2  0
 38 39  1  0
 18  4  1  0
 38 24  1  0
 16 10  1  0
 35 30  1  0
  3 40  1  0
  3 41  1  0
  5 42  1  0
  6 43  1  0
  9 44  1  0
  9 45  1  0
 11 46  1  0
 12 47  1  0
 13 48  1  0
 16 49  1  0
 17 50  1  0
 18 51  1  0
 20 52  1  0
 20 53  1  0
 25 54  1  0
 31 55  1  0
 31 56  1  0
 32 57  1  0
 32 58  1  0
 34 59  1  0
 34 60  1  0
 35 61  1  0
 35 62  1  0
 36 63  1  0
 37 64  1  0
 39 65  1  0
M  CHG  2  19  -1  23  -1
M  END
>  <UniqueID>  (91) 
80

>  <SMILES>  (91) 
O=C(Cc1ccc(OCc2cccc(Cl)c2)cc1)[N-]CC(=O)[N-]c1cc(S(=O)(=O)N2CCOCC2)ccc1O

>  <Energy>  (91) 
79.32702805009907

>  <Genealogy>  (91) 
O=C(Cc1ccc(OCc2cccc(Cl)c2)cc1)[N-]CC(=O)[N-]c1cc(S(=O)(=O)N2CCOCC2)ccc1O (protonated)
O=C(Cc1ccc(OCc2cccc(Cl)c2)cc1)[N-]CC(=O)[N-]c1cc(S(=O)(=O)N2CCOCC2)ccc1O (3D coordinates assigned)
O=C(Cc1ccc(OCc2cccc(Cl)c2)cc1)[N-]CC(=O)[N-]c1cc(S(=O)(=O)N2CCOCC2)ccc1O (nonaromatic ring conformer: 79.32702805009907 kcal/mol)

>  <smiles>  (91) 
O=C(Cc1ccc(OCc2cccc(Cl)c2)cc1)NCC(=O)Nc1cc(S(=O)(=O)N2CCOCC2)ccc1O

>  <score_type>  (91) 
oracle

>  <origin>  (91) 
adg

>  <m_score__min__energy>  (91) 
-12.779999999999999

>  <m_primary>  (91) 
energy

$$$$
91:0
     RDKit          3D

 52 55  0  0  0  0  0  0  0  0999 V2000
   55.4500   29.5280   44.8810 O   0  0  0  0  0  0  0  0  0  0  0  0
   56.7030   29.6000   44.9760 C   0  0  0  0  0  0  0  0  0  0  0  0
   57.4080   30.5810   44.2090 N   0  0  0  0  0  0  0  0  0  0  0  0
   57.8290   31.8300   44.7670 C   0  0  0  0  0  0  0  0  0  0  0  0
   57.7690   32.9940   43.9930 C   0  0  0  0  0  0  0  0  0  0  0  0
   58.2510   34.2000   44.5070 C   0  0  0  0  0  0  0  0  0  0  0  0
   58.7570   34.2560   45.8090 C   0  0  0  0  0  0  0  0  0  0  0  0
   58.7720   33.1050   46.6130 C   0  0  0  0  0  0  0  0  0  0  0  0
   59.2790   33.2050   48.3040 S   0  0  0  0  0  0  0  0  0  0  0  0
   59.4640   34.6500   48.6760 O   0  0  0  0  0  0  0  0  0  0  0  0
   58.1810   32.6480   49.1680 O   0  0  0  0  0  0  0  0  0  0  0  0
   60.7830   32.3690   48.6310 N   0  0  0  0  0  0  0  0  0  0  0  0
   61.4360   31.8190   47.4200 C   0  0  0  0  0  0  0  0  0  0  0  0
   62.8200   32.4230   47.1740 C   0  0  0  0  0  0  0  0  0  0  0  0
   62.7570   33.8140   47.3710 O   0  0  0  0  0  0  0  0  0  0  0  0
   62.6010   34.1130   48.7450 C   0  0  0  0  0  0  0  0  0  0  0  0
   61.6740   33.1430   49.5160 C   0  0  0  0  0  0  0  0  0  0  0  0
   58.3100   31.8920   46.0830 C   0  0  0  0  0  0  0  0  0  0  0  0
   57.4250   28.6470   45.8380 C   0  0  0  0  0  0  0  0  0  0  0  0
   57.0990   27.3190   46.0560 C   0  0  0  0  0  0  0  0  0  0  0  0
   58.0530   26.8460   46.9360 C   0  0  0  0  0  0  0  0  0  0  0  0
   58.0870   25.5580   47.4540 O   0  0  0  0  0  0  0  0  0  0  0  0
   58.9520   27.8060   47.2340 N   0  0  0  0  0  0  0  0  0  0  0  0
   60.0910   27.7050   48.1460 C   0  0  0  0  0  0  0  0  0  0  0  0
   60.0120   28.7860   49.1910 C   0  0  0  0  0  0  0  0  0  0  0  0
   58.7690   29.3350   49.5480 C   0  0  0  0  0  0  0  0  0  0  0  0
   58.6840   30.2770   50.5760 C   0  0  0  0  0  0  0  0  0  0  0  0
   59.8370   30.6820   51.2540 C   0  0  0  0  0  0  0  0  0  0  0  0
   59.7240   31.8470   52.5590 Cl  0  0  0  0  0  0  0  0  0  0  0  0
   61.0790   30.1460   50.8990 C   0  0  0  0  0  0  0  0  0  0  0  0
   61.1680   29.1980   49.8740 C   0  0  0  0  0  0  0  0  0  0  0  0
   58.5740   28.9110   46.5660 C   0  0  0  0  0  0  0  0  0  0  0  0
   57.3423   32.9594   42.9797 H   0  0  0  0  0  0  0  0  0  0  0  0
   58.2324   35.1077   43.8859 H   0  0  0  0  0  0  0  0  0  0  0  0
   59.1451   35.2059   46.2053 H   0  0  0  0  0  0  0  0  0  0  0  0
   61.5425   30.7308   47.5403 H   0  0  0  0  0  0  0  0  0  0  0  0
   60.8035   32.0709   46.5560 H   0  0  0  0  0  0  0  0  0  0  0  0
   63.5436   31.9839   47.8766 H   0  0  0  0  0  0  0  0  0  0  0  0
   63.1398   32.2089   46.1435 H   0  0  0  0  0  0  0  0  0  0  0  0
   63.5943   34.0854   49.2167 H   0  0  0  0  0  0  0  0  0  0  0  0
   62.1256   35.1037   48.7956 H   0  0  0  0  0  0  0  0  0  0  0  0
   62.2991   32.4396   50.0856 H   0  0  0  0  0  0  0  0  0  0  0  0
   61.0358   33.7517   50.1734 H   0  0  0  0  0  0  0  0  0  0  0  0
   58.3249   30.9835   46.7030 H   0  0  0  0  0  0  0  0  0  0  0  0
   56.2582   26.7591   45.6205 H   0  0  0  0  0  0  0  0  0  0  0  0
   60.0775   26.7212   48.6379 H   0  0  0  0  0  0  0  0  0  0  0  0
   61.0230   27.8236   47.5739 H   0  0  0  0  0  0  0  0  0  0  0  0
   57.8588   29.0217   49.0157 H   0  0  0  0  0  0  0  0  0  0  0  0
   57.7074   30.7010   50.8525 H   0  0  0  0  0  0  0  0  0  0  0  0
   61.9879   30.4705   51.4268 H   0  0  0  0  0  0  0  0  0  0  0  0
   62.1460   28.7742   49.6023 H   0  0  0  0  0  0  0  0  0  0  0  0
   59.0979   29.8778   46.5936 H   0  0  0  0  0  0  0  0  0  0  0  0
  1  2  2  0
  2  3  1  0
  3  4  1  0
  4  5  2  0
  5  6  1  0
  6  7  2  0
  7  8  1  0
  8  9  1  0
  9 10  2  0
  9 11  2  0
  9 12  1  0
 12 13  1  0
 13 14  1  0
 14 15  1  0
 15 16  1  0
 16 17  1  0
  8 18  2  0
  2 19  1  0
 19 20  1  0
 20 21  2  0
 21 22  1  0
 21 23  1  0
 23 24  1  0
 24 25  1  0
 25 26  2  0
 26 27  1  0
 27 28  2  0
 28 29  1  0
 28 30  1  0
 30 31  2  0
 23 32  1  0
 18  4  1  0
 32 19  2  0
 17 12  1  0
 31 25  1  0
  5 33  1  0
  6 34  1  0
  7 35  1  0
 13 36  1  0
 13 37  1  0
 14 38  1  0
 14 39  1  0
 16 40  1  0
 16 41  1  0
 17 42  1  0
 17 43  1  0
 18 44  1  0
 20 45  1  0
 24 46  1  0
 24 47  1  0
 26 48  1  0
 27 49  1  0
 30 50  1  0
 31 51  1  0
 32 52  1  0
M  CHG  2   3  -1  22  -1
M  END
>  <UniqueID>  (92) 
81

>  <SMILES>  (92) 
O=C([N-]c1cccc(S(=O)(=O)N2CCOCC2)c1)c1cc([O-])n(Cc2ccc(Cl)cc2)c1

>  <Energy>  (92) 
94.74492244793498

>  <Genealogy>  (92) 
O=C([N-]c1cccc(S(=O)(=O)N2CCOCC2)c1)c1cc([O-])n(Cc2ccc(Cl)cc2)c1 (protonated)
O=C([N-]c1cccc(S(=O)(=O)N2CCOCC2)c1)c1cc([O-])n(Cc2ccc(Cl)cc2)c1 (3D coordinates assigned)
O=C([N-]c1cccc(S(=O)(=O)N2CCOCC2)c1)c1cc([O-])n(Cc2ccc(Cl)cc2)c1 (nonaromatic ring conformer: 94.74492244793498 kcal/mol)

>  <smiles>  (92) 
O=C(Nc1cccc(S(=O)(=O)N2CCOCC2)c1)c1cc(O)n(Cc2ccc(Cl)cc2)c1

>  <score_type>  (92) 
oracle

>  <origin>  (92) 
adg

>  <m_score__min__energy>  (92) 
-13.890000000000001

>  <m_primary>  (92) 
energy

$$$$
92:0
     RDKit          3D

 35 37  0  0  0  0  0  0  0  0999 V2000
   58.9780   30.9860   48.7960 N   0  0  0  0  0  0  0  0  0  0  0  0
   60.2330   30.0610   48.0480 S   0  0  0  0  0  0  0  0  0  0  0  0
   60.9510   30.9130   47.0400 O   0  0  0  0  0  0  0  0  0  0  0  0
   61.2020   29.6190   49.1080 O   0  0  0  0  0  0  0  0  0  0  0  0
   59.5400   28.6570   47.2440 C   0  0  0  0  0  0  0  0  0  0  0  0
   60.3240   27.5180   47.0250 C   0  0  0  0  0  0  0  0  0  0  0  0
   59.7810   26.4090   46.3720 C   0  0  0  0  0  0  0  0  0  0  0  0
   58.4590   26.4360   45.9220 C   0  0  0  0  0  0  0  0  0  0  0  0
   57.6650   27.5780   46.1210 C   0  0  0  0  0  0  0  0  0  0  0  0
   56.2720   27.6100   45.6160 C   0  0  0  0  0  0  0  0  0  0  0  0
   55.5170   26.6280   45.8440 O   0  0  0  0  0  0  0  0  0  0  0  0
   55.7330   28.7360   44.9010 N   0  0  0  0  0  0  0  0  0  0  0  0
   56.4050   29.7560   44.4550 C   0  0  0  0  0  0  0  0  0  0  0  0
   57.0410   30.6490   45.2410 N   0  0  0  0  0  0  0  0  0  0  0  0
   57.6610   31.6200   44.5160 C   0  0  0  0  0  0  0  0  0  0  0  0
   58.3720   32.7380   45.1870 C   0  0  0  0  0  0  0  0  0  0  0  0
   58.4920   34.0000   44.5760 C   0  0  0  0  0  0  0  0  0  0  0  0
   59.1630   35.0280   45.2410 C   0  0  0  0  0  0  0  0  0  0  0  0
   59.7080   34.7990   46.5030 C   0  0  0  0  0  0  0  0  0  0  0  0
   59.5800   33.5370   47.0830 C   0  0  0  0  0  0  0  0  0  0  0  0
   58.9240   32.5430   46.4240 N   0  0  0  0  0  0  0  0  0  0  0  0
   57.5230   31.4790   43.1300 C   0  0  0  0  0  0  0  0  0  0  0  0
   56.5970   30.1050   42.8280 S   0  0  0  0  0  0  0  0  0  0  0  0
   58.2040   28.6740   46.8170 C   0  0  0  0  0  0  0  0  0  0  0  0
   58.3250   31.2830   48.0370 H   0  0  0  0  0  0  0  0  0  0  0  0
   61.3691   27.4964   47.3676 H   0  0  0  0  0  0  0  0  0  0  0  0
   60.3965   25.5115   46.2116 H   0  0  0  0  0  0  0  0  0  0  0  0
   58.0374   25.5589   45.4093 H   0  0  0  0  0  0  0  0  0  0  0  0
   58.0595   34.1756   43.5799 H   0  0  0  0  0  0  0  0  0  0  0  0
   59.2613   36.0170   44.7696 H   0  0  0  0  0  0  0  0  0  0  0  0
   60.2336   35.6050   47.0361 H   0  0  0  0  0  0  0  0  0  0  0  0
   60.0108   33.3443   48.0766 H   0  0  0  0  0  0  0  0  0  0  0  0
   58.8450   31.6160   46.8980 H   0  0  0  0  0  0  0  0  0  0  0  0
   57.9467   32.1505   42.3687 H   0  0  0  0  0  0  0  0  0  0  0  0
   57.5740   29.5506   47.0281 H   0  0  0  0  0  0  0  0  0  0  0  0
  1  2  1  0
  2  3  2  0
  2  4  2  0
  2  5  1  0
  5  6  2  0
  6  7  1  0
  7  8  2  0
  8  9  1  0
  9 10  1  0
 10 11  2  0
 10 12  1  0
 12 13  2  3
 13 14  1  0
 14 15  1  0
 15 16  1  0
 16 17  2  0
 17 18  1  0
 18 19  2  0
 19 20  1  0
 20 21  2  0
 15 22  2  0
 22 23  1  0
  9 24  2  0
 24  5  1  0
 23 13  1  0
 21 16  1  0
  1 25  1  0
  6 26  1  0
  7 27  1  0
  8 28  1  0
 17 29  1  0
 18 30  1  0
 19 31  1  0
 20 32  1  0
 21 33  1  0
 22 34  1  0
 24 35  1  0
M  CHG  3   1  -1  14  -1  21   1
M  END
>  <UniqueID>  (93) 
82

>  <SMILES>  (93) 
[NH-]S(=O)(=O)c1cccc(C(=O)N=c2[n-]c(-c3cccc[nH+]3)cs2)c1

>  <Energy>  (93) 
74.76962092420321

>  <Genealogy>  (93) 
[NH-]S(=O)(=O)c1cccc(C(=O)N=c2[n-]c(-c3cccc[nH+]3)cs2)c1 (protonated)
[NH-]S(=O)(=O)c1cccc(C(=O)N=c2[n-]c(-c3cccc[nH+]3)cs2)c1 (3D coordinates assigned)
[NH-]S(=O)(=O)c1cccc(C(=O)N=c2[n-]c(-c3cccc[nH+]3)cs2)c1 (optimized conformer: 74.76962092420321 kcal/mol)

>  <smiles>  (93) 
NS(=O)(=O)c1cccc(C(=O)N=c2[nH]c(-c3ccccn3)cs2)c1

>  <score_type>  (93) 
oracle

>  <origin>  (93) 
adg

>  <m_score__min__energy>  (93) 
-11.710000000000001

>  <m_primary>  (93) 
energy

$$$$
93:0
     RDKit          3D

 75 79  0  0  0  0  0  0  0  0999 V2000
   54.3150   24.0920   45.1700 C   0  0  0  0  0  0  0  0  0  0  0  0
   54.8100   25.2020   45.9130 O   0  0  0  0  0  0  0  0  0  0  0  0
   56.1700   25.5120   46.0610 C   0  0  0  0  0  0  0  0  0  0  0  0
   57.1180   24.6180   45.5510 C   0  0  0  0  0  0  0  0  0  0  0  0
   58.4850   24.8900   45.6620 C   0  0  0  0  0  0  0  0  0  0  0  0
   58.9240   26.0640   46.2950 C   0  0  0  0  0  0  0  0  0  0  0  0
   60.3890   26.3940   46.3730 C   0  0  0  0  0  0  0  0  0  0  0  0
   60.5740   27.8390   46.2990 N   0  0  0  0  0  0  0  0  0  0  0  0
   60.4270   28.5940   45.0900 C   0  0  0  0  0  0  0  0  0  0  0  0
   61.4510   28.8950   44.4180 O   0  0  0  0  0  0  0  0  0  0  0  0
   59.0830   29.0030   44.6150 C   0  0  0  0  0  0  0  0  0  0  0  0
   58.5520   30.2490   45.0040 C   0  0  0  0  0  0  0  0  0  0  0  0
   57.3140   30.6880   44.5100 C   0  0  0  0  0  0  0  0  0  0  0  0
   56.7780   31.9640   44.8680 N   0  0  0  0  0  0  0  0  0  0  0  0
   57.7360   33.4010   45.0040 S   0  0  0  0  0  0  0  0  0  0  0  0
   58.6310   33.5670   43.8090 O   0  0  0  0  0  0  0  0  0  0  0  0
   56.8220   34.5920   45.0760 O   0  0  0  0  0  0  0  0  0  0  0  0
   58.6880   33.3040   46.4800 C   0  0  0  0  0  0  0  0  0  0  0  0
   59.6680   34.2670   46.7510 C   0  0  0  0  0  0  0  0  0  0  0  0
   60.4580   34.1600   47.8970 C   0  0  0  0  0  0  0  0  0  0  0  0
   60.2790   33.0890   48.7760 C   0  0  0  0  0  0  0  0  0  0  0  0
   59.2990   32.1160   48.5190 C   0  0  0  0  0  0  0  0  0  0  0  0
   59.1330   30.9510   49.4170 C   0  0  0  0  0  0  0  0  0  0  0  0
   59.4650   29.8060   49.0030 O   0  0  0  0  0  0  0  0  0  0  0  0
   58.5910   31.0930   50.7450 N   0  0  0  0  0  0  0  0  0  0  0  0
   59.0460   30.2120   51.8250 C   0  0  0  0  0  0  0  0  0  0  0  0
   57.8810   29.3510   52.3510 C   0  0  0  0  0  0  0  0  0  0  0  0
   56.5580   29.9600   52.0750 N   0  0  0  0  0  0  0  0  0  0  0  0
   55.4550   29.3430   52.8440 C   0  0  0  0  0  0  0  0  0  0  0  0
   54.0950   29.9480   52.5610 C   0  0  0  0  0  0  0  0  0  0  0  0
   53.2490   30.3290   53.6180 C   0  0  0  0  0  0  0  0  0  0  0  0
   51.9970   30.8940   53.3540 C   0  0  0  0  0  0  0  0  0  0  0  0
   51.5850   31.0970   52.0340 C   0  0  0  0  0  0  0  0  0  0  0  0
   52.4250   30.7360   50.9770 C   0  0  0  0  0  0  0  0  0  0  0  0
   53.6760   30.1700   51.2370 C   0  0  0  0  0  0  0  0  0  0  0  0
   56.5790   31.4310   52.1420 C   0  0  0  0  0  0  0  0  0  0  0  0
   57.4350   31.9700   50.9890 C   0  0  0  0  0  0  0  0  0  0  0  0
   58.5140   32.2260   47.3580 C   0  0  0  0  0  0  0  0  0  0  0  0
   56.6100   29.8880   43.6070 C   0  0  0  0  0  0  0  0  0  0  0  0
   57.1120   28.6420   43.2320 C   0  0  0  0  0  0  0  0  0  0  0  0
   58.3370   28.1930   43.7330 C   0  0  0  0  0  0  0  0  0  0  0  0
   58.8010   26.9890   43.3150 F   0  0  0  0  0  0  0  0  0  0  0  0
   57.9750   26.9620   46.8090 C   0  0  0  0  0  0  0  0  0  0  0  0
   56.6090   26.6900   46.6970 C   0  0  0  0  0  0  0  0  0  0  0  0
   53.9673   23.3122   45.8636 H   0  0  0  0  0  0  0  0  0  0  0  0
   53.4775   24.4191   44.5363 H   0  0  0  0  0  0  0  0  0  0  0  0
   55.1180   23.6875   44.5363 H   0  0  0  0  0  0  0  0  0  0  0  0
   56.7847   23.6927   45.0582 H   0  0  0  0  0  0  0  0  0  0  0  0
   59.2196   24.1814   45.2518 H   0  0  0  0  0  0  0  0  0  0  0  0
   60.7972   26.0217   47.3242 H   0  0  0  0  0  0  0  0  0  0  0  0
   60.9143   25.9168   45.5326 H   0  0  0  0  0  0  0  0  0  0  0  0
   59.1146   30.8851   45.7032 H   0  0  0  0  0  0  0  0  0  0  0  0
   59.8156   35.1095   46.0594 H   0  0  0  0  0  0  0  0  0  0  0  0
   61.2235   34.9211   48.1085 H   0  0  0  0  0  0  0  0  0  0  0  0
   60.9088   33.0072   49.6741 H   0  0  0  0  0  0  0  0  0  0  0  0
   59.8392   29.5524   51.4433 H   0  0  0  0  0  0  0  0  0  0  0  0
   59.4294   30.8311   52.6495 H   0  0  0  0  0  0  0  0  0  0  0  0
   57.9238   28.3646   51.8660 H   0  0  0  0  0  0  0  0  0  0  0  0
   57.9911   29.2690   53.4424 H   0  0  0  0  0  0  0  0  0  0  0  0
   55.4162   28.2722   52.5952 H   0  0  0  0  0  0  0  0  0  0  0  0
   55.6687   29.5222   53.9081 H   0  0  0  0  0  0  0  0  0  0  0  0
   53.5739   30.1818   54.6586 H   0  0  0  0  0  0  0  0  0  0  0  0
   51.3361   31.1788   54.1860 H   0  0  0  0  0  0  0  0  0  0  0  0
   50.6000   31.5407   51.8271 H   0  0  0  0  0  0  0  0  0  0  0  0
   52.1008   30.8977   49.9384 H   0  0  0  0  0  0  0  0  0  0  0  0
   54.3368   29.8965   50.4012 H   0  0  0  0  0  0  0  0  0  0  0  0
   55.5536   31.8191   52.0531 H   0  0  0  0  0  0  0  0  0  0  0  0
   57.0044   31.7537   53.1037 H   0  0  0  0  0  0  0  0  0  0  0  0
   56.8217   32.0210   50.0773 H   0  0  0  0  0  0  0  0  0  0  0  0
   57.8017   32.9713   51.2590 H   0  0  0  0  0  0  0  0  0  0  0  0
   57.7568   31.4593   47.1370 H   0  0  0  0  0  0  0  0  0  0  0  0
   55.6557   30.2422   43.1899 H   0  0  0  0  0  0  0  0  0  0  0  0
   56.5403   28.0088   42.5376 H   0  0  0  0  0  0  0  0  0  0  0  0
   58.3092   27.8861   47.3033 H   0  0  0  0  0  0  0  0  0  0  0  0
   55.8738   27.3982   47.1069 H   0  0  0  0  0  0  0  0  0  0  0  0
  1  2  1  0
  2  3  1  0
  3  4  2  0
  4  5  1  0
  5  6  2  0
  6  7  1  0
  7  8  1  0
  8  9  1  0
  9 10  2  0
  9 11  1  0
 11 12  2  0
 12 13  1  0
 13 14  1  0
 14 15  1  0
 15 16  2  0
 15 17  2  0
 15 18  1  0
 18 19  2  0
 19 20  1  0
 20 21  2  0
 21 22  1  0
 22 23  1  0
 23 24  2  0
 23 25  1  0
 25 26  1  0
 26 27  1  0
 27 28  1  0
 28 29  1  0
 29 30  1  0
 30 31  2  0
 31 32  1  0
 32 33  2  0
 33 34  1  0
 34 35  2  0
 28 36  1  0
 36 37  1  0
 22 38  2  0
 13 39  2  0
 39 40  1  0
 40 41  2  0
 41 42  1  0
  6 43  1  0
 43 44  2  0
 44  3  1  0
 41 11  1  0
 38 18  1  0
 37 25  1  0
 35 30  1  0
  1 45  1  0
  1 46  1  0
  1 47  1  0
  4 48  1  0
  5 49  1  0
  7 50  1  0
  7 51  1  0
 12 52  1  0
 19 53  1  0
 20 54  1  0
 21 55  1  0
 26 56  1  0
 26 57  1  0
 27 58  1  0
 27 59  1  0
 29 60  1  0
 29 61  1  0
 31 62  1  0
 32 63  1  0
 33 64  1  0
 34 65  1  0
 35 66  1  0
 36 67  1  0
 36 68  1  0
 37 69  1  0
 37 70  1  0
 38 71  1  0
 39 72  1  0
 40 73  1  0
 43 74  1  0
 44 75  1  0
M  CHG  2   8  -1  14  -1
M  END
>  <UniqueID>  (94) 
83

>  <SMILES>  (94) 
COc1ccc(C[N-]C(=O)c2cc([N-]S(=O)(=O)c3cccc(C(=O)N4CCN(Cc5ccccc5)CC4)c3)ccc2F)cc1

>  <Energy>  (94) 
101.83554900780261

>  <Genealogy>  (94) 
COc1ccc(C[N-]C(=O)c2cc([N-]S(=O)(=O)c3cccc(C(=O)N4CCN(Cc5ccccc5)CC4)c3)ccc2F)cc1 (protonated)
COc1ccc(C[N-]C(=O)c2cc([N-]S(=O)(=O)c3cccc(C(=O)N4CCN(Cc5ccccc5)CC4)c3)ccc2F)cc1 (3D coordinates assigned)
COc1ccc(C[N-]C(=O)c2cc([N-]S(=O)(=O)c3cccc(C(=O)N4CCN(Cc5ccccc5)CC4)c3)ccc2F)cc1 (nonaromatic ring conformer: 101.83554900780261 kcal/mol)

>  <smiles>  (94) 
COc1ccc(CNC(=O)c2cc(NS(=O)(=O)c3cccc(C(=O)N4CCN(Cc5ccccc5)CC4)c3)ccc2F)cc1

>  <score_type>  (94) 
oracle

>  <origin>  (94) 
adg

>  <m_score__min__energy>  (94) 
-14.199999999999999

>  <m_primary>  (94) 
energy

$$$$
94:0
     RDKit          3D

 72 74  0  0  0  0  0  0  0  0999 V2000
   58.2900   21.9170   45.2580 C   0  0  0  0  0  0  0  0  0  0  0  0
   57.2030   21.3070   46.1360 C   0  0  0  0  0  0  0  0  0  0  0  0
   57.3890   21.6790   47.5000 O   0  0  0  0  0  0  0  0  0  0  0  0
   56.3640   22.1710   48.3130 C   0  0  0  0  0  0  0  0  0  0  0  0
   56.1470   21.6750   49.4550 O   0  0  0  0  0  0  0  0  0  0  0  0
   55.5500   23.3310   47.8420 C   0  0  0  0  0  0  0  0  0  0  0  0
   56.4180   24.3330   47.2290 N   0  0  0  0  0  0  0  0  0  0  0  0
   57.4120   24.9190   47.8800 N   0  0  0  0  0  0  0  0  0  0  0  0
   58.0100   25.7750   47.0290 C   0  0  0  0  0  0  0  0  0  0  0  0
   59.2390   26.5520   47.3750 C   0  0  0  0  0  0  0  0  0  0  0  0
   57.3820   25.7250   45.7910 C   0  0  0  0  0  0  0  0  0  0  0  0
   57.8320   26.4020   44.5220 C   0  0  0  0  0  0  0  0  0  0  0  0
   58.0780   27.8710   44.7650 C   0  0  0  0  0  0  0  0  0  0  0  0
   59.3800   28.3850   44.6590 C   0  0  0  0  0  0  0  0  0  0  0  0
   59.6350   29.7320   44.9230 C   0  0  0  0  0  0  0  0  0  0  0  0
   58.5890   30.5930   45.2750 C   0  0  0  0  0  0  0  0  0  0  0  0
   58.8750   32.0060   45.6030 C   0  0  0  0  0  0  0  0  0  0  0  0
   58.5280   32.9840   44.6530 C   0  0  0  0  0  0  0  0  0  0  0  0
   58.8410   34.3270   44.8670 C   0  0  0  0  0  0  0  0  0  0  0  0
   59.4930   34.7140   46.0370 C   0  0  0  0  0  0  0  0  0  0  0  0
   59.8100   33.7650   47.0070 C   0  0  0  0  0  0  0  0  0  0  0  0
   59.5030   32.4070   46.8100 C   0  0  0  0  0  0  0  0  0  0  0  0
   59.8590   31.2910   48.1440 S   0  0  0  0  0  0  0  0  0  0  0  0
   58.5460   30.9000   48.7650 O   0  0  0  0  0  0  0  0  0  0  0  0
   60.5310   30.0380   47.6570 O   0  0  0  0  0  0  0  0  0  0  0  0
   60.8480   32.0220   49.3690 N   0  0  0  0  0  0  0  0  0  0  0  0
   60.6420   33.2960   49.9830 C   0  0  0  0  0  0  0  0  0  0  0  0
   59.4750   33.6100   50.3410 O   0  0  0  0  0  0  0  0  0  0  0  0
   61.6990   34.1960   50.1680 O   0  0  0  0  0  0  0  0  0  0  0  0
   62.6110   34.5080   49.1130 C   0  0  0  0  0  0  0  0  0  0  0  0
   63.6150   33.3710   48.8960 C   0  0  0  0  0  0  0  0  0  0  0  0
   63.7810   32.9450   47.4210 C   0  0  0  0  0  0  0  0  0  0  0  0
   63.1150   33.9270   46.4440 C   0  0  0  0  0  0  0  0  0  0  0  0
   63.2050   31.5390   47.2170 C   0  0  0  0  0  0  0  0  0  0  0  0
   57.2830   30.0850   45.3790 C   0  0  0  0  0  0  0  0  0  0  0  0
   57.0260   28.7340   45.1270 C   0  0  0  0  0  0  0  0  0  0  0  0
   55.7540   28.2750   45.2410 F   0  0  0  0  0  0  0  0  0  0  0  0
   56.3550   24.8060   45.9640 C   0  0  0  0  0  0  0  0  0  0  0  0
   55.3910   24.3170   44.9200 C   0  0  0  0  0  0  0  0  0  0  0  0
   59.0722   22.3560   45.8947 H   0  0  0  0  0  0  0  0  0  0  0  0
   58.7305   21.1343   44.6229 H   0  0  0  0  0  0  0  0  0  0  0  0
   57.8515   22.7008   44.6229 H   0  0  0  0  0  0  0  0  0  0  0  0
   56.2203   21.6647   45.7949 H   0  0  0  0  0  0  0  0  0  0  0  0
   57.2585   20.2112   46.0576 H   0  0  0  0  0  0  0  0  0  0  0  0
   54.8148   22.9835   47.1013 H   0  0  0  0  0  0  0  0  0  0  0  0
   55.0298   23.7801   48.7009 H   0  0  0  0  0  0  0  0  0  0  0  0
   59.3376   26.6143   48.4688 H   0  0  0  0  0  0  0  0  0  0  0  0
   60.1219   26.0476   46.9554 H   0  0  0  0  0  0  0  0  0  0  0  0
   59.1620   27.5659   46.9554 H   0  0  0  0  0  0  0  0  0  0  0  0
   58.7629   25.9322   44.1716 H   0  0  0  0  0  0  0  0  0  0  0  0
   57.0436   26.2943   43.7625 H   0  0  0  0  0  0  0  0  0  0  0  0
   60.2063   27.7209   44.3655 H   0  0  0  0  0  0  0  0  0  0  0  0
   60.6626   30.1184   44.8541 H   0  0  0  0  0  0  0  0  0  0  0  0
   58.0046   32.6870   43.7322 H   0  0  0  0  0  0  0  0  0  0  0  0
   58.5731   35.0808   44.1120 H   0  0  0  0  0  0  0  0  0  0  0  0
   59.7576   35.7700   46.1947 H   0  0  0  0  0  0  0  0  0  0  0  0
   60.3056   34.0816   47.9366 H   0  0  0  0  0  0  0  0  0  0  0  0
   62.0441   34.6686   48.1841 H   0  0  0  0  0  0  0  0  0  0  0  0
   63.1667   35.4162   49.3894 H   0  0  0  0  0  0  0  0  0  0  0  0
   64.5949   33.6998   49.2723 H   0  0  0  0  0  0  0  0  0  0  0  0
   63.2226   32.4961   49.4351 H   0  0  0  0  0  0  0  0  0  0  0  0
   64.8589   32.9478   47.2017 H   0  0  0  0  0  0  0  0  0  0  0  0
   62.5861   34.7068   47.0115 H   0  0  0  0  0  0  0  0  0  0  0  0
   63.8845   34.3926   45.8106 H   0  0  0  0  0  0  0  0  0  0  0  0
   62.3978   33.3843   45.8106 H   0  0  0  0  0  0  0  0  0  0  0  0
   63.0149   31.0750   48.1961 H   0  0  0  0  0  0  0  0  0  0  0  0
   62.2623   31.6070   46.6543 H   0  0  0  0  0  0  0  0  0  0  0  0
   63.9245   30.9261   46.6543 H   0  0  0  0  0  0  0  0  0  0  0  0
   56.4572   30.7548   45.6606 H   0  0  0  0  0  0  0  0  0  0  0  0
   54.5133   23.8718   45.4112 H   0  0  0  0  0  0  0  0  0  0  0  0
   55.0708   25.1616   44.2923 H   0  0  0  0  0  0  0  0  0  0  0  0
   55.8834   23.5597   44.2923 H   0  0  0  0  0  0  0  0  0  0  0  0
  1  2  1  0
  2  3  1  0
  3  4  1  0
  4  5  2  0
  4  6  1  0
  6  7  1  0
  7  8  1  0
  8  9  2  0
  9 10  1  0
  9 11  1  0
 11 12  1  0
 12 13  1  0
 13 14  2  0
 14 15  1  0
 15 16  2  0
 16 17  1  0
 17 18  2  0
 18 19  1  0
 19 20  2  0
 20 21  1  0
 21 22  2  0
 22 23  1  0
 23 24  2  0
 23 25  2  0
 23 26  1  0
 26 27  1  0
 27 28  2  0
 27 29  1  0
 29 30  1  0
 30 31  1  0
 31 32  1  0
 32 33  1  0
 32 34  1  0
 16 35  1  0
 35 36  2  0
 36 37  1  0
 11 38  2  0
 38 39  1  0
 38  7  1  0
 36 13  1  0
 22 17  1  0
  1 40  1  0
  1 41  1  0
  1 42  1  0
  2 43  1  0
  2 44  1  0
  6 45  1  0
  6 46  1  0
 10 47  1  0
 10 48  1  0
 10 49  1  0
 12 50  1  0
 12 51  1  0
 14 52  1  0
 15 53  1  0
 18 54  1  0
 19 55  1  0
 20 56  1  0
 21 57  1  0
 30 58  1  0
 30 59  1  0
 31 60  1  0
 31 61  1  0
 32 62  1  0
 33 63  1  0
 33 64  1  0
 33 65  1  0
 34 66  1  0
 34 67  1  0
 34 68  1  0
 35 69  1  0
 39 70  1  0
 39 71  1  0
 39 72  1  0
M  CHG  1  26  -1
M  END
>  <UniqueID>  (95) 
84

>  <SMILES>  (95) 
CCOC(=O)Cn1nc(C)c(Cc2ccc(-c3ccccc3S(=O)(=O)[N-]C(=O)OCCC(C)C)cc2F)c1C

>  <Energy>  (95) 
93.77235949413613

>  <Genealogy>  (95) 
CCOC(=O)Cn1nc(C)c(Cc2ccc(-c3ccccc3S(=O)(=O)[N-]C(=O)OCCC(C)C)cc2F)c1C (protonated)
CCOC(=O)Cn1nc(C)c(Cc2ccc(-c3ccccc3S(=O)(=O)[N-]C(=O)OCCC(C)C)cc2F)c1C (3D coordinates assigned)
CCOC(=O)Cn1nc(C)c(Cc2ccc(-c3ccccc3S(=O)(=O)[N-]C(=O)OCCC(C)C)cc2F)c1C (optimized conformer: 93.77235949413613 kcal/mol)

>  <smiles>  (95) 
CCOC(=O)Cn1nc(C)c(Cc2ccc(-c3ccccc3S(=O)(=O)NC(=O)OCCC(C)C)cc2F)c1C

>  <score_type>  (95) 
oracle

>  <origin>  (95) 
adg

>  <m_score__min__energy>  (95) 
-11.789999999999999

>  <m_primary>  (95) 
energy

$$$$
95:0
     RDKit          3D

 45 47  0  0  1  0  0  0  0  0999 V2000
   63.8430   33.8230   47.8150 C   0  0  0  0  0  0  0  0  0  0  0  0
   62.2890   33.0250   48.0950 S   0  0  0  0  0  0  0  0  0  0  0  0
   62.2560   32.5590   49.5300 O   0  0  0  0  0  0  0  0  0  0  0  0
   62.2460   31.7680   47.2580 O   0  0  0  0  0  0  0  0  0  0  0  0
   60.9710   34.0620   47.7470 N   0  0  0  0  0  0  0  0  0  0  0  0
   60.0190   33.8590   46.7270 C   0  0  0  0  0  0  0  0  0  0  0  0
   59.6040   34.9900   46.0320 C   0  0  0  0  0  0  0  0  0  0  0  0
   58.6760   34.8560   45.0280 C   0  0  0  0  0  0  0  0  0  0  0  0
   58.1530   33.5980   44.7070 C   0  0  0  0  0  0  0  0  0  0  0  0
   58.5520   32.4560   45.3860 C   0  0  0  0  0  0  0  0  0  0  0  0
   58.0000   31.1430   45.0450 C   0  0  0  0  0  0  0  0  0  0  0  0
   58.6880   29.9880   45.3380 C   0  0  0  0  0  0  0  0  0  0  0  0
   58.1370   28.7450   45.0000 C   0  0  0  0  0  0  0  0  0  0  0  0
   58.7760   27.6580   45.2720 N   0  0  0  0  0  0  0  0  0  0  0  0
   58.3740   26.8230   46.3880 C   0  0  0  0  0  0  0  0  0  0  0  0
   59.4560   26.9350   47.4400 C   0  0  0  0  0  0  0  0  0  0  0  0
   59.5230   28.2900   48.0260 C   0  0  0  0  0  0  0  0  0  0  0  0
   60.6740   29.0670   48.0490 C   0  0  0  0  0  0  0  0  0  0  0  0
   60.3460   30.2250   48.6570 N   0  0  0  0  0  0  0  0  0  0  0  0
   59.0580   30.2090   49.0120 C   0  0  0  0  0  0  0  0  0  0  0  0
   58.5580   29.0190   48.6220 N   0  0  0  0  0  0  0  0  0  0  0  0
   56.9460   28.6350   44.3920 N   0  0  0  0  0  0  0  0  0  0  0  0
   56.2960   29.7800   44.1170 C   0  0  0  0  0  0  0  0  0  0  0  0
   55.1320   29.7130   43.5250 N   0  0  0  0  0  0  0  0  0  0  0  0
   56.8070   30.9920   44.4330 N   0  0  0  0  0  0  0  0  0  0  0  0
   59.4840   32.6370   46.3850 C   0  0  0  0  0  0  0  0  0  0  0  0
   64.3111   34.0634   48.7810 H   0  0  0  0  0  0  0  0  0  0  0  0
   64.5023   33.1519   47.2450 H   0  0  0  0  0  0  0  0  0  0  0  0
   63.6818   34.7499   47.2450 H   0  0  0  0  0  0  0  0  0  0  0  0
   60.8510   34.9330   48.3440 H   0  0  0  0  0  0  0  0  0  0  0  0
   60.0138   35.9795   46.2831 H   0  0  0  0  0  0  0  0  0  0  0  0
   58.3414   35.7442   44.4720 H   0  0  0  0  0  0  0  0  0  0  0  0
   57.4105   33.5132   43.8999 H   0  0  0  0  0  0  0  0  0  0  0  0
   59.6674   30.0404   45.8360 H   0  0  0  0  0  0  0  0  0  0  0  0
   57.4142   27.1737   46.7951 H   0  0  0  0  0  0  0  0  0  0  0  0
   58.2450   25.7783   46.0687 H   0  0  0  0  0  0  0  0  0  0  0  0
   59.2473   26.2116   48.2420 H   0  0  0  0  0  0  0  0  0  0  0  0
   60.4218   26.7268   46.9563 H   0  0  0  0  0  0  0  0  0  0  0  0
   61.6610   28.7914   47.6491 H   0  0  0  0  0  0  0  0  0  0  0  0
   60.9780   31.0560   48.8500 H   0  0  0  0  0  0  0  0  0  0  0  0
   58.5100   31.0133   49.5247 H   0  0  0  0  0  0  0  0  0  0  0  0
   56.5620   27.6980   44.1520 H   0  0  0  0  0  0  0  0  0  0  0  0
   55.1180   29.2110   42.6120 H   0  0  0  0  0  0  0  0  0  0  0  0
   56.2210   31.8120   44.1750 H   0  0  0  0  0  0  0  0  0  0  0  0
   59.8212   31.7512   46.9433 H   0  0  0  0  0  0  0  0  0  0  0  0
  1  2  1  0
  2  3  2  0
  2  4  2  0
  2  5  1  0
  5  6  1  0
  6  7  2  0
  7  8  1  0
  8  9  2  0
  9 10  1  0
 10 11  1  0
 11 12  2  0
 12 13  1  0
 13 14  2  0
 14 15  1  0
 15 16  1  0
 16 17  1  0
 17 18  2  0
 18 19  1  0
 19 20  1  0
 20 21  2  0
 13 22  1  0
 22 23  1  0
 23 24  2  3
 23 25  1  0
 10 26  2  0
 26  6  1  0
 25 11  1  0
 21 17  1  0
  1 27  1  0
  1 28  1  0
  1 29  1  0
  5 30  1  0
  7 31  1  0
  8 32  1  0
  9 33  1  0
 12 34  1  0
 15 35  1  0
 15 36  1  0
 16 37  1  0
 16 38  1  0
 18 39  1  0
 19 40  1  0
 20 41  1  0
 22 42  1  0
 24 43  1  0
 25 44  1  0
 26 45  1  0
M  END
>  <smiles>  (96) 
CS(=O)(=O)Nc1cccc(-c2cc(=NCCc3c[nH]cn3)[nH]c(=N)[nH]2)c1

>  <score_type>  (96) 
oracle

>  <origin>  (96) 
adg

>  <m_score__min__energy>  (96) 
-8.4299999999999997

>  <m_primary>  (96) 
energy

$$$$
