0:0
     RDKit          3D

 53 55  0  0  0  0  0  0  0  0999 V2000
   59.2680   30.0710   46.6990 C   0  0  0  0  0  0  0  0  0  0  0  0
   58.3210   29.6510   45.8410 C   0  0  0  0  0  0  0  0  0  0  0  0
   57.6190   28.4390   45.9240 C   0  0  0  0  0  0  0  0  0  0  0  0
   57.7490   27.4890   46.8760 C   0  0  0  0  0  0  0  0  0  0  0  0
   57.1830   26.1230   46.8150 C   0  0  0  0  0  0  0  0  0  0  0  0
   57.8050   24.9910   47.1880 N   0  0  0  0  0  0  0  0  0  0  0  0
   56.8680   24.0370   47.0030 C   0  0  0  0  0  0  0  0  0  0  0  0
   57.0820   22.8200   47.2430 O   0  0  0  0  0  0  0  0  0  0  0  0
   55.6820   24.4900   46.5440 N   0  0  0  0  0  0  0  0  0  0  0  0
   55.8970   25.8110   46.4370 C   0  0  0  0  0  0  0  0  0  0  0  0
   54.9340   26.7160   46.0060 O   0  0  0  0  0  0  0  0  0  0  0  0
   56.7580   28.4180   44.8330 C   0  0  0  0  0  0  0  0  0  0  0  0
   56.9710   29.5890   44.1360 C   0  0  0  0  0  0  0  0  0  0  0  0
   56.2440   29.9690   42.8800 C   0  0  0  0  0  0  0  0  0  0  0  0
   57.9140   30.3450   44.7440 N   0  0  0  0  0  0  0  0  0  0  0  0
   58.4360   31.6190   44.2200 C   0  0  0  0  0  0  0  0  0  0  0  0
   58.0450   32.7610   45.1230 C   0  0  0  0  0  0  0  0  0  0  0  0
   57.0100   33.3720   44.8920 O   0  0  0  0  0  0  0  0  0  0  0  0
   58.8880   33.1500   46.2370 N   0  0  0  0  0  0  0  0  0  0  0  0
   58.2590   34.2370   47.0270 C   0  0  0  0  0  0  0  0  0  0  0  0
   59.2710   34.9710   47.9340 C   0  0  0  0  0  0  0  0  0  0  0  0
   60.4800   34.1610   48.1280 N   0  0  0  0  0  0  0  0  0  0  0  0
   60.8150   33.6450   49.4320 C   0  0  0  0  0  0  0  0  0  0  0  0
   59.8950   33.4220   50.2660 O   0  0  0  0  0  0  0  0  0  0  0  0
   62.1760   33.3490   49.7920 N   0  0  0  0  0  0  0  0  0  0  0  0
   62.4520   32.2300   50.6940 C   0  0  0  0  0  0  0  0  0  0  0  0
   63.2910   34.1330   49.2540 C   0  0  0  0  0  0  0  0  0  0  0  0
   61.1960   33.6880   46.9350 C   0  0  0  0  0  0  0  0  0  0  0  0
   60.2280   33.5370   45.7490 C   0  0  0  0  0  0  0  0  0  0  0  0
   59.7597   31.0425   46.5430 H   0  0  0  0  0  0  0  0  0  0  0  0
   59.5507   29.4429   47.5567 H   0  0  0  0  0  0  0  0  0  0  0  0
   58.3257   27.7540   47.7745 H   0  0  0  0  0  0  0  0  0  0  0  0
   56.0446   27.6214   44.5753 H   0  0  0  0  0  0  0  0  0  0  0  0
   55.2968   30.4641   43.1401 H   0  0  0  0  0  0  0  0  0  0  0  0
   56.8671   30.6567   42.2895 H   0  0  0  0  0  0  0  0  0  0  0  0
   56.0350   29.0648   42.2895 H   0  0  0  0  0  0  0  0  0  0  0  0
   59.5330   31.5637   44.1606 H   0  0  0  0  0  0  0  0  0  0  0  0
   58.0105   31.7938   43.2208 H   0  0  0  0  0  0  0  0  0  0  0  0
   59.0000   32.3260   46.8710 H   0  0  0  0  0  0  0  0  0  0  0  0
   57.8143   34.9655   46.3330 H   0  0  0  0  0  0  0  0  0  0  0  0
   57.4978   33.7804   47.6768 H   0  0  0  0  0  0  0  0  0  0  0  0
   59.5485   35.9266   47.4652 H   0  0  0  0  0  0  0  0  0  0  0  0
   58.8034   35.1469   48.9140 H   0  0  0  0  0  0  0  0  0  0  0  0
   62.3681   32.5702   51.7367 H   0  0  0  0  0  0  0  0  0  0  0  0
   61.7257   31.4243   50.5116 H   0  0  0  0  0  0  0  0  0  0  0  0
   63.4697   31.8544   50.5116 H   0  0  0  0  0  0  0  0  0  0  0  0
   63.8815   34.5482   50.0841 H   0  0  0  0  0  0  0  0  0  0  0  0
   63.9309   33.4850   48.6370 H   0  0  0  0  0  0  0  0  0  0  0  0
   62.8977   34.9544   48.6370 H   0  0  0  0  0  0  0  0  0  0  0  0
   61.9799   34.4135   46.6721 H   0  0  0  0  0  0  0  0  0  0  0  0
   61.6442   32.7078   47.1549 H   0  0  0  0  0  0  0  0  0  0  0  0
   60.1577   34.4944   45.2119 H   0  0  0  0  0  0  0  0  0  0  0  0
   60.6052   32.7565   45.0719 H   0  0  0  0  0  0  0  0  0  0  0  0
  1  2  2  0
  2  3  1  0
  3  4  2  3
  4  5  1  0
  5  6  1  0
  6  7  1  0
  7  8  2  0
  7  9  1  0
  9 10  1  0
 10 11  1  0
  3 12  1  0
 12 13  2  0
 13 14  1  0
 13 15  1  0
 15 16  1  0
 16 17  1  0
 17 18  2  0
 17 19  1  0
 19 20  1  0
 20 21  1  0
 21 22  1  0
 22 23  1  0
 23 24  2  0
 23 25  1  0
 25 26  1  0
 25 27  1  0
 22 28  1  0
 28 29  1  0
 15  2  1  0
 29 19  1  0
 10  5  2  0
  1 30  1  0
  1 31  1  0
  4 32  1  0
 12 33  1  0
 14 34  1  0
 14 35  1  0
 14 36  1  0
 16 37  1  0
 16 38  1  0
 19 39  1  0
 20 40  1  0
 20 41  1  0
 21 42  1  0
 21 43  1  0
 26 44  1  0
 26 45  1  0
 26 46  1  0
 27 47  1  0
 27 48  1  0
 27 49  1  0
 28 50  1  0
 28 51  1  0
 29 52  1  0
 29 53  1  0
M  CHG  4   6  -1   9  -1  11  -1  19   1
M  END
>  <UniqueID>  (1) 
1

>  <SMILES>  (1) 
C=c1c(=Cc2[n-]c(=O)[n-]c2[O-])cc(C)n1CC(=O)[NH+]1CCN(C(=O)N(C)C)CC1

>  <Energy>  (1) 
122.08721741488846

>  <Genealogy>  (1) 
C=c1c(=Cc2[n-]c(=O)[n-]c2[O-])cc(C)n1CC(=O)[NH+]1CCN(C(=O)N(C)C)CC1 (protonated)
C=c1c(=Cc2[n-]c(=O)[n-]c2[O-])cc(C)n1CC(=O)[NH+]1CCN(C(=O)N(C)C)CC1 (3D coordinates assigned)
C=c1c(=Cc2[n-]c(=O)[n-]c2[O-])cc(C)n1CC(=O)[NH+]1CCN(C(=O)N(C)C)CC1 (nonaromatic ring conformer: 122.08721741488846 kcal/mol)

>  <smiles>  (1) 
C=c1c(=Cc2[nH]c(=O)[nH]c2O)cc(C)n1CC(=O)N1CCN(C(=O)N(C)C)CC1

>  <score_type>  (1) 
oracle

>  <origin>  (1) 
adg

>  <m_score__min__energy>  (1) 
-15.08

>  <m_primary>  (1) 
energy

$$$$
1:0
     RDKit          3D

 58 60  0  0  0  0  0  0  0  0999 V2000
   53.8330   23.6760   45.4930 C   0  0  0  0  0  0  0  0  0  0  0  0
   55.1450   24.3930   45.5670 C   0  0  0  0  0  0  0  0  0  0  0  0
   55.1740   25.6830   46.0020 N   0  0  0  0  0  0  0  0  0  0  0  0
   56.4150   26.2120   45.9510 C   0  0  0  0  0  0  0  0  0  0  0  0
   56.6850   27.4570   46.2030 N   0  0  0  0  0  0  0  0  0  0  0  0
   56.6160   28.4980   45.2220 C   0  0  0  0  0  0  0  0  0  0  0  0
   55.5200   29.0700   44.9700 O   0  0  0  0  0  0  0  0  0  0  0  0
   57.8310   28.8320   44.4190 C   0  0  0  0  0  0  0  0  0  0  0  0
   58.0760   30.3130   44.5040 C   0  0  0  0  0  0  0  0  0  0  0  0
   58.7560   30.8570   45.6060 C   0  0  0  0  0  0  0  0  0  0  0  0
   58.8910   32.2410   45.7400 C   0  0  0  0  0  0  0  0  0  0  0  0
   58.3430   33.1050   44.7770 C   0  0  0  0  0  0  0  0  0  0  0  0
   58.4480   34.5980   44.9470 C   0  0  0  0  0  0  0  0  0  0  0  0
   59.2880   34.9660   46.1370 C   0  0  0  0  0  0  0  0  0  0  0  0
   60.2730   35.7440   46.0070 O   0  0  0  0  0  0  0  0  0  0  0  0
   58.8970   34.5070   47.4350 N   0  0  0  0  0  0  0  0  0  0  0  0
   59.8300   34.3330   48.5430 C   0  0  0  0  0  0  0  0  0  0  0  0
   60.9380   33.3880   48.1590 C   0  0  0  0  0  0  0  0  0  0  0  0
   62.1160   33.8690   47.5610 C   0  0  0  0  0  0  0  0  0  0  0  0
   63.1580   32.9860   47.2520 C   0  0  0  0  0  0  0  0  0  0  0  0
   63.0280   31.6220   47.5300 C   0  0  0  0  0  0  0  0  0  0  0  0
   61.8520   31.1340   48.1090 C   0  0  0  0  0  0  0  0  0  0  0  0
   60.8100   32.0130   48.4250 C   0  0  0  0  0  0  0  0  0  0  0  0
   57.6480   32.5640   43.6840 C   0  0  0  0  0  0  0  0  0  0  0  0
   57.5170   31.1780   43.5480 C   0  0  0  0  0  0  0  0  0  0  0  0
   57.5280   25.1200   45.3580 S   0  0  0  0  0  0  0  0  0  0  0  0
   56.4010   23.8640   45.1740 C   0  0  0  0  0  0  0  0  0  0  0  0
   56.7190   22.5400   44.4690 C   0  0  0  0  0  0  0  0  0  0  0  0
   58.2420   22.2800   44.4900 C   0  0  0  0  0  0  0  0  0  0  0  0
   56.0330   21.3340   45.1510 C   0  0  0  0  0  0  0  0  0  0  0  0
   56.2560   22.6400   43.0050 C   0  0  0  0  0  0  0  0  0  0  0  0
   53.4667   23.4758   46.5107 H   0  0  0  0  0  0  0  0  0  0  0  0
   53.1034   24.3008   44.9570 H   0  0  0  0  0  0  0  0  0  0  0  0
   53.9648   22.7245   44.9570 H   0  0  0  0  0  0  0  0  0  0  0  0
   58.6999   28.2899   44.8204 H   0  0  0  0  0  0  0  0  0  0  0  0
   57.6781   28.5381   43.3701 H   0  0  0  0  0  0  0  0  0  0  0  0
   59.1847   30.1894   46.3679 H   0  0  0  0  0  0  0  0  0  0  0  0
   59.4294   32.6567   46.6044 H   0  0  0  0  0  0  0  0  0  0  0  0
   58.9035   35.0282   44.0429 H   0  0  0  0  0  0  0  0  0  0  0  0
   57.4351   34.9961   45.1070 H   0  0  0  0  0  0  0  0  0  0  0  0
   60.2627   35.3090   48.8080 H   0  0  0  0  0  0  0  0  0  0  0  0
   59.2865   33.9122   49.4018 H   0  0  0  0  0  0  0  0  0  0  0  0
   62.2193   34.9407   47.3355 H   0  0  0  0  0  0  0  0  0  0  0  0
   64.0808   33.3664   46.7896 H   0  0  0  0  0  0  0  0  0  0  0  0
   63.8513   30.9320   47.2932 H   0  0  0  0  0  0  0  0  0  0  0  0
   61.7462   30.0589   48.3160 H   0  0  0  0  0  0  0  0  0  0  0  0
   59.8874   31.6270   48.8831 H   0  0  0  0  0  0  0  0  0  0  0  0
   57.2046   33.2326   42.9314 H   0  0  0  0  0  0  0  0  0  0  0  0
   56.9728   30.7625   42.6871 H   0  0  0  0  0  0  0  0  0  0  0  0
   58.5895   22.2207   45.5320 H   0  0  0  0  0  0  0  0  0  0  0  0
   58.4592   21.3318   43.9765 H   0  0  0  0  0  0  0  0  0  0  0  0
   58.7615   23.1025   43.9765 H   0  0  0  0  0  0  0  0  0  0  0  0
   56.0965   21.4456   46.2435 H   0  0  0  0  0  0  0  0  0  0  0  0
   54.9765   21.2932   44.8474 H   0  0  0  0  0  0  0  0  0  0  0  0
   56.5379   20.4051   44.8474 H   0  0  0  0  0  0  0  0  0  0  0  0
   55.1812   22.8721   42.9754 H   0  0  0  0  0  0  0  0  0  0  0  0
   56.8175   23.4376   42.4965 H   0  0  0  0  0  0  0  0  0  0  0  0
   56.4383   21.6818   42.4965 H   0  0  0  0  0  0  0  0  0  0  0  0
  1  2  1  0
  2  3  1  0
  3  4  1  0
  4  5  2  3
  5  6  1  0
  6  7  2  0
  6  8  1  0
  8  9  1  0
  9 10  2  0
 10 11  1  0
 11 12  2  0
 12 13  1  0
 13 14  1  0
 14 15  2  0
 14 16  1  0
 16 17  1  0
 17 18  1  0
 18 19  2  0
 19 20  1  0
 20 21  2  0
 21 22  1  0
 22 23  2  0
 12 24  1  0
 24 25  2  0
  4 26  1  0
 26 27  1  0
 27 28  1  0
 28 29  1  0
 28 30  1  0
 28 31  1  0
 27  2  2  0
 25  9  1  0
 23 18  1  0
  1 32  1  0
  1 33  1  0
  1 34  1  0
  8 35  1  0
  8 36  1  0
 10 37  1  0
 11 38  1  0
 13 39  1  0
 13 40  1  0
 17 41  1  0
 17 42  1  0
 19 43  1  0
 20 44  1  0
 21 45  1  0
 22 46  1  0
 23 47  1  0
 24 48  1  0
 25 49  1  0
 29 50  1  0
 29 51  1  0
 29 52  1  0
 30 53  1  0
 30 54  1  0
 30 55  1  0
 31 56  1  0
 31 57  1  0
 31 58  1  0
M  CHG  2   3  -1  16  -1
M  END
>  <UniqueID>  (2) 
2

>  <SMILES>  (2) 
Cc1[n-]c(=NC(=O)Cc2ccc(CC(=O)[N-]Cc3ccccc3)cc2)sc1C(C)(C)C

>  <Energy>  (2) 
86.28336350569569

>  <Genealogy>  (2) 
Cc1[n-]c(=NC(=O)Cc2ccc(CC(=O)[N-]Cc3ccccc3)cc2)sc1C(C)(C)C (protonated)
Cc1[n-]c(=NC(=O)Cc2ccc(CC(=O)[N-]Cc3ccccc3)cc2)sc1C(C)(C)C (3D coordinates assigned)
Cc1[n-]c(=NC(=O)Cc2ccc(CC(=O)[N-]Cc3ccccc3)cc2)sc1C(C)(C)C (optimized conformer: 86.28336350569569 kcal/mol)

>  <smiles>  (2) 
Cc1[nH]c(=NC(=O)Cc2ccc(CC(=O)NCc3ccccc3)cc2)sc1C(C)(C)C

>  <score_type>  (2) 
oracle

>  <origin>  (2) 
adg

>  <m_score__min__energy>  (2) 
-12.949999999999999

>  <m_primary>  (2) 
energy

$$$$
2:0
     RDKit          3D

 63 66  0  0  0  0  0  0  0  0999 V2000
   56.4380   29.6950   42.3180 C   0  0  0  0  0  0  0  0  0  0  0  0
   57.0650   30.5860   43.3550 C   0  0  0  0  0  0  0  0  0  0  0  0
   57.3940   31.9110   43.0210 C   0  0  0  0  0  0  0  0  0  0  0  0
   57.9680   32.7600   43.9680 C   0  0  0  0  0  0  0  0  0  0  0  0
   58.2130   32.3010   45.2670 C   0  0  0  0  0  0  0  0  0  0  0  0
   58.9180   33.3670   46.4800 S   0  0  0  0  0  0  0  0  0  0  0  0
   59.8550   34.3430   45.8220 O   0  0  0  0  0  0  0  0  0  0  0  0
   57.8070   34.1260   47.1510 O   0  0  0  0  0  0  0  0  0  0  0  0
   59.7850   32.3990   47.6540 N   0  0  0  0  0  0  0  0  0  0  0  0
   60.8500   31.5800   47.0200 C   0  0  0  0  0  0  0  0  0  0  0  0
   62.2710   31.9150   47.5050 C   0  0  0  0  0  0  0  0  0  0  0  0
   62.4720   33.4270   47.5720 C   0  0  0  0  0  0  0  0  0  0  0  0
   61.4360   34.1040   48.4870 C   0  0  0  0  0  0  0  0  0  0  0  0
   60.2280   33.2020   48.8090 C   0  0  0  0  0  0  0  0  0  0  0  0
   57.8750   30.9890   45.6130 C   0  0  0  0  0  0  0  0  0  0  0  0
   57.3090   30.1180   44.6670 C   0  0  0  0  0  0  0  0  0  0  0  0
   56.9350   28.7820   45.0500 N   0  0  0  0  0  0  0  0  0  0  0  0
   57.5230   28.0810   46.1530 C   0  0  0  0  0  0  0  0  0  0  0  0
   58.5450   28.5430   46.7300 O   0  0  0  0  0  0  0  0  0  0  0  0
   56.9240   26.8580   46.6020 N   0  0  0  0  0  0  0  0  0  0  0  0
   56.9670   25.5880   45.9350 C   0  0  0  0  0  0  0  0  0  0  0  0
   55.7590   24.9770   45.5790 C   0  0  0  0  0  0  0  0  0  0  0  0
   55.7530   23.7390   44.9310 C   0  0  0  0  0  0  0  0  0  0  0  0
   56.9610   23.1080   44.6090 C   0  0  0  0  0  0  0  0  0  0  0  0
   56.9510   21.5240   43.8370 S   0  0  0  0  0  0  0  0  0  0  0  0
   58.2950   21.2570   43.2140 O   0  0  0  0  0  0  0  0  0  0  0  0
   55.9110   21.5040   42.7530 O   0  0  0  0  0  0  0  0  0  0  0  0
   56.5720   20.3080   45.0310 N   0  0  0  0  0  0  0  0  0  0  0  0
   55.2520   20.5320   45.6200 C   0  0  0  0  0  0  0  0  0  0  0  0
   55.2980   19.9690   47.0350 C   0  0  0  0  0  0  0  0  0  0  0  0
   56.7740   19.7760   47.3470 C   0  0  0  0  0  0  0  0  0  0  0  0
   57.5130   20.3510   46.1510 C   0  0  0  0  0  0  0  0  0  0  0  0
   58.1740   23.7260   44.9380 C   0  0  0  0  0  0  0  0  0  0  0  0
   58.1800   24.9640   45.5910 C   0  0  0  0  0  0  0  0  0  0  0  0
   55.8737   28.8931   42.8164 H   0  0  0  0  0  0  0  0  0  0  0  0
   55.7564   30.2870   41.6896 H   0  0  0  0  0  0  0  0  0  0  0  0
   57.2254   29.2533   41.6896 H   0  0  0  0  0  0  0  0  0  0  0  0
   57.1973   32.2819   42.0043 H   0  0  0  0  0  0  0  0  0  0  0  0
   58.2285   33.7926   43.6927 H   0  0  0  0  0  0  0  0  0  0  0  0
   60.6498   30.5213   47.2415 H   0  0  0  0  0  0  0  0  0  0  0  0
   60.8217   31.8009   45.9428 H   0  0  0  0  0  0  0  0  0  0  0  0
   62.4222   31.4852   48.5062 H   0  0  0  0  0  0  0  0  0  0  0  0
   62.9974   31.4912   46.7960 H   0  0  0  0  0  0  0  0  0  0  0  0
   63.4797   33.6348   47.9611 H   0  0  0  0  0  0  0  0  0  0  0  0
   62.3471   33.8327   46.5572 H   0  0  0  0  0  0  0  0  0  0  0  0
   61.9295   34.3775   49.4313 H   0  0  0  0  0  0  0  0  0  0  0  0
   61.0525   34.9845   47.9507 H   0  0  0  0  0  0  0  0  0  0  0  0
   60.5080   32.5188   49.6243 H   0  0  0  0  0  0  0  0  0  0  0  0
   59.3928   33.8591   49.0929 H   0  0  0  0  0  0  0  0  0  0  0  0
   58.0545   30.6344   46.6387 H   0  0  0  0  0  0  0  0  0  0  0  0
   56.2240   28.2740   44.4750 H   0  0  0  0  0  0  0  0  0  0  0  0
   54.8064   25.4756   45.8113 H   0  0  0  0  0  0  0  0  0  0  0  0
   54.7974   23.2591   44.6733 H   0  0  0  0  0  0  0  0  0  0  0  0
   55.0280   21.6086   45.6482 H   0  0  0  0  0  0  0  0  0  0  0  0
   54.4671   20.0410   45.0260 H   0  0  0  0  0  0  0  0  0  0  0  0
   54.8441   20.6759   47.7451 H   0  0  0  0  0  0  0  0  0  0  0  0
   54.7364   19.0268   47.1181 H   0  0  0  0  0  0  0  0  0  0  0  0
   57.0478   20.3158   48.2655 H   0  0  0  0  0  0  0  0  0  0  0  0
   57.0236   18.7179   47.5143 H   0  0  0  0  0  0  0  0  0  0  0  0
   57.8177   21.3884   46.3536 H   0  0  0  0  0  0  0  0  0  0  0  0
   58.4257   19.7781   45.9302 H   0  0  0  0  0  0  0  0  0  0  0  0
   59.1254   23.2367   44.6823 H   0  0  0  0  0  0  0  0  0  0  0  0
   59.1358   25.4503   45.8359 H   0  0  0  0  0  0  0  0  0  0  0  0
  1  2  1  0
  2  3  2  0
  3  4  1  0
  4  5  2  0
  5  6  1  0
  6  7  2  0
  6  8  2  0
  6  9  1  0
  9 10  1  0
 10 11  1  0
 11 12  1  0
 12 13  1  0
 13 14  1  0
  5 15  1  0
 15 16  2  0
 16 17  1  0
 17 18  1  0
 18 19  2  0
 18 20  1  0
 20 21  1  0
 21 22  2  0
 22 23  1  0
 23 24  2  0
 24 25  1  0
 25 26  2  0
 25 27  2  0
 25 28  1  0
 28 29  1  0
 29 30  1  0
 30 31  1  0
 31 32  1  0
 24 33  1  0
 33 34  2  0
 16  2  1  0
 34 21  1  0
 14  9  1  0
 32 28  1  0
  1 35  1  0
  1 36  1  0
  1 37  1  0
  3 38  1  0
  4 39  1  0
 10 40  1  0
 10 41  1  0
 11 42  1  0
 11 43  1  0
 12 44  1  0
 12 45  1  0
 13 46  1  0
 13 47  1  0
 14 48  1  0
 14 49  1  0
 15 50  1  0
 17 51  1  0
 22 52  1  0
 23 53  1  0
 29 54  1  0
 29 55  1  0
 30 56  1  0
 30 57  1  0
 31 58  1  0
 31 59  1  0
 32 60  1  0
 32 61  1  0
 33 62  1  0
 34 63  1  0
M  CHG  1  20  -1
M  END
>  <UniqueID>  (3) 
3

>  <SMILES>  (3) 
Cc1ccc(S(=O)(=O)N2CCCCC2)cc1NC(=O)[N-]c1ccc(S(=O)(=O)N2CCCC2)cc1

>  <Energy>  (3) 
79.17353314668485

>  <Genealogy>  (3) 
Cc1ccc(S(=O)(=O)N2CCCCC2)cc1NC(=O)[N-]c1ccc(S(=O)(=O)N2CCCC2)cc1 (protonated)
Cc1ccc(S(=O)(=O)N2CCCCC2)cc1NC(=O)[N-]c1ccc(S(=O)(=O)N2CCCC2)cc1 (3D coordinates assigned)
Cc1ccc(S(=O)(=O)N2CCCCC2)cc1NC(=O)[N-]c1ccc(S(=O)(=O)N2CCCC2)cc1 (nonaromatic ring conformer: 79.17353314668485 kcal/mol)

>  <smiles>  (3) 
Cc1ccc(S(=O)(=O)N2CCCCC2)cc1NC(=O)Nc1ccc(S(=O)(=O)N2CCCC2)cc1

>  <score_type>  (3) 
oracle

>  <origin>  (3) 
adg

>  <m_score__min__energy>  (3) 
-12.619999999999999

>  <m_primary>  (3) 
energy

$$$$
3:0
     RDKit          3D

 48 50  0  0  0  0  0  0  0  0999 V2000
   53.6960   27.9170   53.0790 C   0  0  0  0  0  0  0  0  0  0  0  0
   54.4550   28.9880   52.7700 C   0  0  0  0  0  0  0  0  0  0  0  0
   55.8290   28.9040   53.0680 C   0  0  0  0  0  0  0  0  0  0  0  0
   56.6860   29.9770   52.8430 C   0  0  0  0  0  0  0  0  0  0  0  0
   56.2020   31.1720   52.3070 C   0  0  0  0  0  0  0  0  0  0  0  0
   57.1190   32.3130   52.0650 C   0  0  0  0  0  0  0  0  0  0  0  0
   56.7650   33.4820   52.3790 O   0  0  0  0  0  0  0  0  0  0  0  0
   58.4280   32.0810   51.5250 N   0  0  0  0  0  0  0  0  0  0  0  0
   58.8100   31.0250   50.6300 C   0  0  0  0  0  0  0  0  0  0  0  0
   58.5140   31.0760   49.2550 C   0  0  0  0  0  0  0  0  0  0  0  0
   58.9010   30.0310   48.4060 C   0  0  0  0  0  0  0  0  0  0  0  0
   58.5540   30.1300   46.6820 S   0  0  0  0  0  0  0  0  0  0  0  0
   57.6220   29.0090   46.3240 O   0  0  0  0  0  0  0  0  0  0  0  0
   59.8190   29.9750   45.8870 O   0  0  0  0  0  0  0  0  0  0  0  0
   57.7710   31.6490   46.3160 N   0  0  0  0  0  0  0  0  0  0  0  0
   58.0750   32.2240   44.9940 C   0  0  0  0  0  0  0  0  0  0  0  0
   57.4420   31.4560   43.8250 C   0  0  0  0  0  0  0  0  0  0  0  0
   57.7670   33.7240   44.9390 C   0  0  0  0  0  0  0  0  0  0  0  0
   59.5560   28.9130   48.9370 C   0  0  0  0  0  0  0  0  0  0  0  0
   59.8230   28.8420   50.3050 C   0  0  0  0  0  0  0  0  0  0  0  0
   59.4490   29.8910   51.1510 C   0  0  0  0  0  0  0  0  0  0  0  0
   59.7210   29.8050   52.5130 O   0  0  0  0  0  0  0  0  0  0  0  0
   54.8390   31.2710   51.9830 C   0  0  0  0  0  0  0  0  0  0  0  0
   53.9360   30.2000   52.2030 C   0  0  0  0  0  0  0  0  0  0  0  0
   52.6360   30.3250   51.8210 C   0  0  0  0  0  0  0  0  0  0  0  0
   51.7010   31.3650   52.2980 C   0  0  0  0  0  0  0  0  0  0  0  0
   51.5120   31.6520   53.5980 N   0  0  0  0  0  0  0  0  0  0  0  0
   50.6740   32.7110   53.5670 C   0  0  0  0  0  0  0  0  0  0  0  0
   50.2480   33.2670   54.6120 O   0  0  0  0  0  0  0  0  0  0  0  0
   50.3400   33.1340   52.3300 N   0  0  0  0  0  0  0  0  0  0  0  0
   51.0080   32.2810   51.5370 C   0  0  0  0  0  0  0  0  0  0  0  0
   51.0110   32.3610   50.1490 O   0  0  0  0  0  0  0  0  0  0  0  0
   52.6165   27.9286   52.8679 H   0  0  0  0  0  0  0  0  0  0  0  0
   54.1564   27.0318   53.5421 H   0  0  0  0  0  0  0  0  0  0  0  0
   56.2331   27.9708   53.4873 H   0  0  0  0  0  0  0  0  0  0  0  0
   57.7539   29.8830   53.0895 H   0  0  0  0  0  0  0  0  0  0  0  0
   57.9750   31.9424   48.8441 H   0  0  0  0  0  0  0  0  0  0  0  0
   59.1607   32.1069   44.8616 H   0  0  0  0  0  0  0  0  0  0  0  0
   56.7886   30.6632   44.2181 H   0  0  0  0  0  0  0  0  0  0  0  0
   56.8489   32.1485   43.2097 H   0  0  0  0  0  0  0  0  0  0  0  0
   58.2350   31.0060   43.2097 H   0  0  0  0  0  0  0  0  0  0  0  0
   57.6858   34.1194   45.9623 H   0  0  0  0  0  0  0  0  0  0  0  0
   58.5768   34.2454   44.4076 H   0  0  0  0  0  0  0  0  0  0  0  0
   56.8172   33.8841   44.4076 H   0  0  0  0  0  0  0  0  0  0  0  0
   59.8606   28.0893   48.2747 H   0  0  0  0  0  0  0  0  0  0  0  0
   60.3294   27.9578   50.7193 H   0  0  0  0  0  0  0  0  0  0  0  0
   54.4608   32.2068   51.5457 H   0  0  0  0  0  0  0  0  0  0  0  0
   52.2495   29.5918   51.0978 H   0  0  0  0  0  0  0  0  0  0  0  0
  1  2  2  0
  2  3  1  0
  3  4  2  0
  4  5  1  0
  5  6  1  0
  6  7  2  0
  6  8  1  0
  8  9  1  0
  9 10  2  0
 10 11  1  0
 11 12  1  0
 12 13  2  0
 12 14  2  0
 12 15  1  0
 15 16  1  0
 16 17  1  0
 16 18  1  0
 11 19  2  0
 19 20  1  0
 20 21  2  0
 21 22  1  0
  5 23  2  0
 23 24  1  0
 24 25  2  3
 25 26  1  0
 26 27  1  0
 27 28  1  0
 28 29  2  0
 28 30  1  0
 30 31  1  0
 31 32  1  0
 24  2  1  0
 31 26  2  0
 21  9  1  0
  1 33  1  0
  1 34  1  0
  3 35  1  0
  4 36  1  0
 10 37  1  0
 16 38  1  0
 17 39  1  0
 17 40  1  0
 17 41  1  0
 18 42  1  0
 18 43  1  0
 18 44  1  0
 19 45  1  0
 20 46  1  0
 23 47  1  0
 25 48  1  0
M  CHG  6   8  -1  15  -1  22  -1  27  -1  30  -1  32  -1
M  END
>  <UniqueID>  (4) 
4

>  <SMILES>  (4) 
C=c1ccc(C(=O)[N-]c2cc(S(=O)(=O)[N-]C(C)C)ccc2[O-])cc1=Cc1[n-]c(=O)[n-]c1[O-]

>  <Energy>  (4) 
101.76096025974351

>  <Genealogy>  (4) 
C=c1ccc(C(=O)[N-]c2cc(S(=O)(=O)[N-]C(C)C)ccc2[O-])cc1=Cc1[n-]c(=O)[n-]c1[O-] (protonated)
C=c1ccc(C(=O)[N-]c2cc(S(=O)(=O)[N-]C(C)C)ccc2[O-])cc1=Cc1[n-]c(=O)[n-]c1[O-] (3D coordinates assigned)
C=c1ccc(C(=O)[N-]c2cc(S(=O)(=O)[N-]C(C)C)ccc2[O-])cc1=Cc1[n-]c(=O)[n-]c1[O-] (optimized conformer: 101.76096025974351 kcal/mol)

>  <smiles>  (4) 
C=c1ccc(C(=O)Nc2cc(S(=O)(=O)NC(C)C)ccc2O)cc1=Cc1[nH]c(=O)[nH]c1O

>  <score_type>  (4) 
oracle

>  <origin>  (4) 
adg

>  <m_score__min__energy>  (4) 
-21.969999999999999

>  <m_primary>  (4) 
energy

$$$$
4:0
     RDKit          3D

 38 40  0  0  0  0  0  0  0  0999 V2000
   58.1669   30.6284   48.9211 H   0  0  0  0  0  0  0  0  0  0  0  0
   58.2760   31.6740   49.2450 C   0  0  0  0  0  0  0  0  0  0  0  0
   57.7170   32.0340   50.4110 C   0  0  0  0  0  0  0  0  0  0  0  0
   57.1232   32.9598   50.4260 H   0  0  0  0  0  0  0  0  0  0  0  0
   57.8420   31.2640   51.7030 C   0  0  0  0  0  0  0  0  0  0  0  0
   58.2919   31.9181   52.4644 H   0  0  0  0  0  0  0  0  0  0  0  0
   58.4721   30.3824   51.5142 H   0  0  0  0  0  0  0  0  0  0  0  0
   56.5080   30.7840   52.2020 C   0  0  0  0  0  0  0  0  0  0  0  0
   55.3150   31.4710   52.0950 C   0  0  0  0  0  0  0  0  0  0  0  0
   55.1779   32.4975   51.7243 H   0  0  0  0  0  0  0  0  0  0  0  0
   54.3250   30.6140   52.5460 C   0  0  0  0  0  0  0  0  0  0  0  0
   53.0140   30.9150   52.4960 C   0  0  0  0  0  0  0  0  0  0  0  0
   52.5234   31.1971   53.4393 H   0  0  0  0  0  0  0  0  0  0  0  0
   52.1840   30.8970   51.2800 C   0  0  0  0  0  0  0  0  0  0  0  0
   51.3380   31.8950   50.8580 C   0  0  0  0  0  0  0  0  0  0  0  0
   51.0190   33.0430   51.5730 O   0  0  0  0  0  0  0  0  0  0  0  0
   50.8520   31.6180   49.6330 N   0  0  0  0  0  0  0  0  0  0  0  0
   51.4530   30.4460   49.3320 C   0  0  0  0  0  0  0  0  0  0  0  0
   51.2710   29.8450   48.2410 O   0  0  0  0  0  0  0  0  0  0  0  0
   52.2760   29.9870   50.2950 N   0  0  0  0  0  0  0  0  0  0  0  0
   52.8770   29.1340   50.2630 H   0  0  0  0  0  0  0  0  0  0  0  0
   54.9850   29.4540   52.9810 C   0  0  0  0  0  0  0  0  0  0  0  0
   54.4760   28.4100   53.6410 C   0  0  0  0  0  0  0  0  0  0  0  0
   53.3923   28.3468   53.8185 H   0  0  0  0  0  0  0  0  0  0  0  0
   55.1406   27.6135   54.0069 H   0  0  0  0  0  0  0  0  0  0  0  0
   56.3060   29.5690   52.7430 N   0  0  0  0  0  0  0  0  0  0  0  0
   57.0440   28.8600   52.9550 H   0  0  0  0  0  0  0  0  0  0  0  0
   59.0280   32.5950   48.3710 C   0  0  0  0  0  0  0  0  0  0  0  0
   58.3280   33.4480   47.5060 C   0  0  0  0  0  0  0  0  0  0  0  0
   57.2280   33.4546   47.5136 H   0  0  0  0  0  0  0  0  0  0  0  0
   59.0240   34.2900   46.6340 C   0  0  0  0  0  0  0  0  0  0  0  0
   58.4710   34.9480   45.9476 H   0  0  0  0  0  0  0  0  0  0  0  0
   60.4210   34.2970   46.6330 C   0  0  0  0  0  0  0  0  0  0  0  0
   60.9668   34.9536   45.9394 H   0  0  0  0  0  0  0  0  0  0  0  0
   61.1260   33.4700   47.5130 C   0  0  0  0  0  0  0  0  0  0  0  0
   63.0360   33.4820   47.5130 Br  0  0  0  0  0  0  0  0  0  0  0  0
   60.4330   32.6260   48.3870 C   0  0  0  0  0  0  0  0  0  0  0  0
   60.9885   31.9856   49.0879 H   0  0  0  0  0  0  0  0  0  0  0  0
  1  2  1  0
  2  3  2  3
  3  4  1  0
  3  5  1  0
  5  6  1  0
  5  7  1  0
  5  8  1  0
  8  9  2  0
  9 10  1  0
  9 11  1  0
 11 12  2  0
 12 13  1  0
 12 14  1  0
 14 15  2  0
 15 16  1  0
 15 17  1  0
 17 18  1  0
 18 19  2  0
 18 20  1  0
 20 21  1  0
 11 22  1  0
 22 23  2  0
 23 24  1  0
 23 25  1  0
 22 26  1  0
 26 27  1  0
  2 28  1  0
 28 29  2  0
 29 30  1  0
 29 31  1  0
 31 32  1  0
 31 33  2  0
 33 34  1  0
 33 35  1  0
 35 36  1  0
 35 37  2  0
 37 38  1  0
 26  8  1  0
 37 28  1  0
 20 14  1  0
M  CHG  2  16  -1  17  -1
M  END
>  <UniqueID>  (5) 
5

>  <SMILES>  (5) 
C=c1[nH]c(CC=Cc2cccc(Br)c2)c/c1=C/c1[nH]c(=O)[n-]c1[O-]

>  <Energy>  (5) 
109.70867264249813

>  <Genealogy>  (5) 
C=c1[nH]c(CC=Cc2cccc(Br)c2)cc1=Cc1[nH]c(=O)[n-]c1[O-] (protonated)
C=c1[nH]c(CC=Cc2cccc(Br)c2)c/c1=C/c1[nH]c(=O)[n-]c1[O-] (cis-trans isomerization)
C=c1[nH]c(CC=Cc2cccc(Br)c2)c/c1=C/c1[nH]c(=O)[n-]c1[O-] (3D coordinates assigned)
C=c1[nH]c(CC=Cc2cccc(Br)c2)c/c1=C/c1[nH]c(=O)[n-]c1[O-] (optimized conformer: 109.70867264249813 kcal/mol)

>  <smiles>  (5) 
C=c1[nH]c(CC=Cc2cccc(Br)c2)cc1=Cc1[nH]c(=O)[nH]c1O

>  <score_type>  (5) 
oracle

>  <origin>  (5) 
adg

>  <m_score__min__energy>  (5) 
-15.32

>  <m_primary>  (5) 
energy

$$$$
5:0
     RDKit          3D

 64 67  0  0  0  0  0  0  0  0999 V2000
   56.5410   25.8380   45.8290 C   0  0  0  0  0  0  0  0  0  0  0  0
   57.5550   26.9650   45.5520 C   0  0  1  0  0  0  0  0  0  0  0  0
   58.6270   26.9040   46.6310 C   0  0  0  0  0  0  0  0  0  0  0  0
   59.7070   26.2820   46.4340 O   0  0  0  0  0  0  0  0  0  0  0  0
   58.4250   27.6000   47.8660 N   0  0  0  0  0  0  0  0  0  0  0  0
   59.6360   28.6180   48.5710 S   0  0  0  0  0  0  0  0  0  0  0  0
   60.7440   27.7690   49.1240 O   0  0  0  0  0  0  0  0  0  0  0  0
   59.0180   29.4050   49.6910 O   0  0  0  0  0  0  0  0  0  0  0  0
   60.2870   29.7470   47.3490 C   0  0  0  0  0  0  0  0  0  0  0  0
   61.3920   30.5770   47.9370 C   0  0  0  0  0  0  0  0  0  0  0  0
   61.6610   30.5230   49.3150 C   0  0  0  0  0  0  0  0  0  0  0  0
   62.6670   31.3230   49.8680 C   0  0  0  0  0  0  0  0  0  0  0  0
   63.4040   32.1860   49.0520 C   0  0  0  0  0  0  0  0  0  0  0  0
   63.1360   32.2500   47.6820 C   0  0  0  0  0  0  0  0  0  0  0  0
   62.1340   31.4510   47.1260 C   0  0  0  0  0  0  0  0  0  0  0  0
   58.1850   26.7580   44.1530 C   0  0  0  0  0  0  0  0  0  0  0  0
   59.2020   27.8540   43.7750 C   0  0  0  0  0  0  0  0  0  0  0  0
   58.9790   29.1930   44.4990 C   0  0  0  0  0  0  0  0  0  0  0  0
   57.5710   29.3880   44.8670 N   0  0  0  0  0  0  0  0  0  0  0  0
   56.9810   30.6950   44.7670 C   0  0  0  0  0  0  0  0  0  0  0  0
   55.8280   30.8120   44.2710 O   0  0  0  0  0  0  0  0  0  0  0  0
   57.7160   31.9080   45.2010 C   0  0  0  0  0  0  0  0  0  0  0  0
   57.9060   32.9770   44.3140 C   0  0  0  0  0  0  0  0  0  0  0  0
   58.5830   34.1210   44.7290 C   0  0  0  0  0  0  0  0  0  0  0  0
   59.0680   34.2200   46.0340 C   0  0  0  0  0  0  0  0  0  0  0  0
   58.8810   33.1730   46.9650 C   0  0  0  0  0  0  0  0  0  0  0  0
   59.3750   33.2810   48.3370 N   0  0  0  0  0  0  0  0  0  0  0  0
   58.6910   32.5310   49.4110 C   0  0  0  0  0  0  0  0  0  0  0  0
   59.3620   32.6720   50.7790 C   0  0  0  0  0  0  0  0  0  0  0  0
   59.8300   33.9840   50.9760 O   0  0  0  0  0  0  0  0  0  0  0  0
   60.9170   34.1990   50.1070 C   0  0  0  0  0  0  0  0  0  0  0  0
   60.4580   34.2370   48.6470 C   0  0  0  0  0  0  0  0  0  0  0  0
   58.1980   32.0140   46.5180 C   0  0  0  0  0  0  0  0  0  0  0  0
   56.8040   28.3280   45.5410 C   0  0  0  0  0  0  0  0  0  0  0  0
   56.4244   25.7084   46.9151 H   0  0  0  0  0  0  0  0  0  0  0  0
   55.5697   26.1013   45.3848 H   0  0  0  0  0  0  0  0  0  0  0  0
   56.9051   24.8998   45.3848 H   0  0  0  0  0  0  0  0  0  0  0  0
   60.6798   29.1720   46.4975 H   0  0  0  0  0  0  0  0  0  0  0  0
   59.4792   30.4147   47.0148 H   0  0  0  0  0  0  0  0  0  0  0  0
   61.0788   29.8496   49.9612 H   0  0  0  0  0  0  0  0  0  0  0  0
   62.8782   31.2727   50.9464 H   0  0  0  0  0  0  0  0  0  0  0  0
   64.1945   32.8144   49.4880 H   0  0  0  0  0  0  0  0  0  0  0  0
   63.7149   32.9306   47.0404 H   0  0  0  0  0  0  0  0  0  0  0  0
   61.9251   31.5067   46.0474 H   0  0  0  0  0  0  0  0  0  0  0  0
   58.6990   25.7856   44.1418 H   0  0  0  0  0  0  0  0  0  0  0  0
   57.3683   26.8030   43.4175 H   0  0  0  0  0  0  0  0  0  0  0  0
   60.2101   27.4905   44.0233 H   0  0  0  0  0  0  0  0  0  0  0  0
   59.0740   28.0490   42.7000 H   0  0  0  0  0  0  0  0  0  0  0  0
   59.5911   29.2095   45.4128 H   0  0  0  0  0  0  0  0  0  0  0  0
   59.2679   30.0036   43.8138 H   0  0  0  0  0  0  0  0  0  0  0  0
   57.5189   32.9118   43.2864 H   0  0  0  0  0  0  0  0  0  0  0  0
   58.7364   34.9515   44.0242 H   0  0  0  0  0  0  0  0  0  0  0  0
   59.6052   35.1287   46.3434 H   0  0  0  0  0  0  0  0  0  0  0  0
   57.6582   32.9011   49.4903 H   0  0  0  0  0  0  0  0  0  0  0  0
   58.7337   31.4661   49.1387 H   0  0  0  0  0  0  0  0  0  0  0  0
   58.6320   32.4282   51.5650 H   0  0  0  0  0  0  0  0  0  0  0  0
   60.2185   31.9832   50.8229 H   0  0  0  0  0  0  0  0  0  0  0  0
   61.3936   35.1580   50.3586 H   0  0  0  0  0  0  0  0  0  0  0  0
   61.6291   33.3693   50.2273 H   0  0  0  0  0  0  0  0  0  0  0  0
   60.0990   35.2523   48.4227 H   0  0  0  0  0  0  0  0  0  0  0  0
   61.3237   33.9508   48.0316 H   0  0  0  0  0  0  0  0  0  0  0  0
   58.0415   31.1790   47.2168 H   0  0  0  0  0  0  0  0  0  0  0  0
   56.6153   28.6353   46.5802 H   0  0  0  0  0  0  0  0  0  0  0  0
   55.8657   28.1884   44.9842 H   0  0  0  0  0  0  0  0  0  0  0  0
  2  1  1  1
  2  3  1  0
  3  4  2  0
  3  5  1  0
  5  6  1  0
  6  7  2  0
  6  8  2  0
  6  9  1  0
  9 10  1  0
 10 11  2  0
 11 12  1  0
 12 13  2  0
 13 14  1  0
 14 15  2  0
  2 16  1  0
 16 17  1  0
 17 18  1  0
 18 19  1  0
 19 20  1  0
 20 21  2  0
 20 22  1  0
 22 23  2  0
 23 24  1  0
 24 25  2  0
 25 26  1  0
 26 27  1  0
 27 28  1  0
 28 29  1  0
 29 30  1  0
 30 31  1  0
 31 32  1  0
 26 33  2  0
 19 34  1  0
 34  2  1  0
 15 10  1  0
 33 22  1  0
 32 27  1  0
  1 35  1  0
  1 36  1  0
  1 37  1  0
  9 38  1  0
  9 39  1  0
 11 40  1  0
 12 41  1  0
 13 42  1  0
 14 43  1  0
 15 44  1  0
 16 45  1  0
 16 46  1  0
 17 47  1  0
 17 48  1  0
 18 49  1  0
 18 50  1  0
 23 51  1  0
 24 52  1  0
 25 53  1  0
 28 54  1  0
 28 55  1  0
 29 56  1  0
 29 57  1  0
 31 58  1  0
 31 59  1  0
 32 60  1  0
 32 61  1  0
 33 62  1  0
 34 63  1  0
 34 64  1  0
M  CHG  1   5  -1
M  END
>  <UniqueID>  (6) 
6

>  <SMILES>  (6) 
C[C@@]1(C(=O)[N-]S(=O)(=O)Cc2ccccc2)CCCN(C(=O)c2cccc(N3CCOCC3)c2)C1

>  <Energy>  (6) 
77.1537364166613

>  <Genealogy>  (6) 
CC1(C(=O)[N-]S(=O)(=O)Cc2ccccc2)CCCN(C(=O)c2cccc(N3CCOCC3)c2)C1 (protonated)
C[C@@]1(C(=O)[N-]S(=O)(=O)Cc2ccccc2)CCCN(C(=O)c2cccc(N3CCOCC3)c2)C1 (chirality)
C[C@@]1(C(=O)[N-]S(=O)(=O)Cc2ccccc2)CCCN(C(=O)c2cccc(N3CCOCC3)c2)C1 (3D coordinates assigned)
C[C@@]1(C(=O)[N-]S(=O)(=O)Cc2ccccc2)CCCN(C(=O)c2cccc(N3CCOCC3)c2)C1 (nonaromatic ring conformer: 77.1537364166613 kcal/mol)

>  <smiles>  (6) 
CC1(C(=O)NS(=O)(=O)Cc2ccccc2)CCCN(C(=O)c2cccc(N3CCOCC3)c2)C1

>  <score_type>  (6) 
oracle

>  <origin>  (6) 
adg

>  <m_score__min__energy>  (6) 
-13

>  <m_primary>  (6) 
energy

$$$$
6:0
     RDKit          3D

 57 60  0  0  0  0  0  0  0  0999 V2000
   60.0140   24.8690   46.3260 C   0  0  0  0  0  0  0  0  0  0  0  0
   58.9470   24.3680   45.4020 C   0  0  0  0  0  0  0  0  0  0  0  0
   58.7270   23.0420   45.0860 C   0  0  0  0  0  0  0  0  0  0  0  0
   57.7080   22.9550   44.2120 N   0  0  0  0  0  0  0  0  0  0  0  0
   57.1050   21.4970   43.5020 S   0  0  0  0  0  0  0  0  0  0  0  0
   56.6230   20.3660   44.7860 C   0  0  0  0  0  0  0  0  0  0  0  0
   55.9200   21.8160   42.6340 O   0  0  0  0  0  0  0  0  0  0  0  0
   58.1740   20.8670   42.6550 O   0  0  0  0  0  0  0  0  0  0  0  0
   57.2690   24.2010   43.9570 C   0  0  0  0  0  0  0  0  0  0  0  0
   58.0060   25.1120   44.6950 C   0  0  0  0  0  0  0  0  0  0  0  0
   57.8260   26.5820   44.6780 C   0  0  0  0  0  0  0  0  0  0  0  0
   57.7670   27.2690   43.4540 C   0  0  0  0  0  0  0  0  0  0  0  0
   57.6080   28.6580   43.4280 C   0  0  0  0  0  0  0  0  0  0  0  0
   57.5080   29.3850   44.6250 C   0  0  0  0  0  0  0  0  0  0  0  0
   57.3560   30.8560   44.6060 C   0  0  0  0  0  0  0  0  0  0  0  0
   56.2100   31.3490   44.4170 O   0  0  0  0  0  0  0  0  0  0  0  0
   58.4790   31.7300   44.8430 N   0  0  0  0  0  0  0  0  0  0  0  0
   59.4700   31.3740   45.8730 C   0  0  0  0  0  0  0  0  0  0  0  0
   60.2370   32.6070   46.3670 C   0  0  0  0  0  0  0  0  0  0  0  0
   59.3090   33.7350   46.5420 N   0  0  0  0  0  0  0  0  0  0  0  0
   59.2680   34.5100   47.7600 C   0  0  0  0  0  0  0  0  0  0  0  0
   58.9000   35.7150   47.7090 O   0  0  0  0  0  0  0  0  0  0  0  0
   59.6840   33.9160   49.0880 C   0  0  0  0  0  0  0  0  0  0  0  0
   61.1670   33.5500   49.1500 C   0  0  0  0  0  0  0  0  0  0  0  0
   60.8050   32.0900   49.3660 C   0  0  0  0  0  0  0  0  0  0  0  0
   59.3270   32.4400   49.2840 C   0  0  0  0  0  0  0  0  0  0  0  0
   58.4160   34.1110   45.4340 C   0  0  0  0  0  0  0  0  0  0  0  0
   58.4840   33.0920   44.2890 C   0  0  0  0  0  0  0  0  0  0  0  0
   57.5260   28.6960   45.8470 C   0  0  0  0  0  0  0  0  0  0  0  0
   57.6850   27.3060   45.8740 C   0  0  0  0  0  0  0  0  0  0  0  0
   59.6961   24.7197   47.3684 H   0  0  0  0  0  0  0  0  0  0  0  0
   60.9465   24.3146   46.1441 H   0  0  0  0  0  0  0  0  0  0  0  0
   60.1831   25.9406   46.1441 H   0  0  0  0  0  0  0  0  0  0  0  0
   59.2960   22.1900   45.4863 H   0  0  0  0  0  0  0  0  0  0  0  0
   56.8173   20.8218   45.7681 H   0  0  0  0  0  0  0  0  0  0  0  0
   55.5505   20.1403   44.6922 H   0  0  0  0  0  0  0  0  0  0  0  0
   57.2030   19.4360   44.6922 H   0  0  0  0  0  0  0  0  0  0  0  0
   56.4504   24.4568   43.2681 H   0  0  0  0  0  0  0  0  0  0  0  0
   57.8464   26.7105   42.5097 H   0  0  0  0  0  0  0  0  0  0  0  0
   57.5610   29.1846   42.4634 H   0  0  0  0  0  0  0  0  0  0  0  0
   58.9495   30.9121   46.7249 H   0  0  0  0  0  0  0  0  0  0  0  0
   60.1927   30.6739   45.4285 H   0  0  0  0  0  0  0  0  0  0  0  0
   60.7173   32.3767   47.3295 H   0  0  0  0  0  0  0  0  0  0  0  0
   61.0029   32.8789   45.6258 H   0  0  0  0  0  0  0  0  0  0  0  0
   59.2504   34.6770   49.7535 H   0  0  0  0  0  0  0  0  0  0  0  0
   61.7153   33.7422   48.2160 H   0  0  0  0  0  0  0  0  0  0  0  0
   61.8362   34.0653   49.8547 H   0  0  0  0  0  0  0  0  0  0  0  0
   61.1520   31.4189   48.5665 H   0  0  0  0  0  0  0  0  0  0  0  0
   61.1988   31.5430   50.2353 H   0  0  0  0  0  0  0  0  0  0  0  0
   58.8056   31.9871   48.4279 H   0  0  0  0  0  0  0  0  0  0  0  0
   58.6388   32.1366   50.0867 H   0  0  0  0  0  0  0  0  0  0  0  0
   57.3828   34.1603   45.8082 H   0  0  0  0  0  0  0  0  0  0  0  0
   58.7382   35.0888   45.0465 H   0  0  0  0  0  0  0  0  0  0  0  0
   57.6132   33.2227   43.6298 H   0  0  0  0  0  0  0  0  0  0  0  0
   59.4076   33.2497   43.7127 H   0  0  0  0  0  0  0  0  0  0  0  0
   57.4144   29.2519   46.7896 H   0  0  0  0  0  0  0  0  0  0  0  0
   57.6997   26.7765   46.8381 H   0  0  0  0  0  0  0  0  0  0  0  0
  1  2  1  0
  2  3  2  0
  3  4  1  0
  4  5  1  0
  5  6  1  0
  5  7  2  0
  5  8  2  0
  4  9  1  0
  9 10  2  0
 10 11  1  0
 11 12  2  0
 12 13  1  0
 13 14  2  0
 14 15  1  0
 15 16  2  0
 15 17  1  0
 17 18  1  0
 18 19  1  0
 19 20  1  0
 20 21  1  0
 21 22  2  0
 21 23  1  0
 23 24  1  0
 24 25  1  0
 25 26  1  0
 20 27  1  0
 27 28  1  0
 14 29  1  0
 29 30  2  0
 10  2  1  0
 30 11  1  0
 28 17  1  0
 26 23  1  0
  1 31  1  0
  1 32  1  0
  1 33  1  0
  3 34  1  0
  6 35  1  0
  6 36  1  0
  6 37  1  0
  9 38  1  0
 12 39  1  0
 13 40  1  0
 18 41  1  0
 18 42  1  0
 19 43  1  0
 19 44  1  0
 23 45  1  0
 24 46  1  0
 24 47  1  0
 25 48  1  0
 25 49  1  0
 26 50  1  0
 26 51  1  0
 27 52  1  0
 27 53  1  0
 28 54  1  0
 28 55  1  0
 29 56  1  0
 30 57  1  0
M  END
>  <UniqueID>  (7) 
7

>  <SMILES>  (7) 
Cc1cn(S(C)(=O)=O)cc1-c1ccc(C(=O)N2CCN(C(=O)C3CCC3)CC2)cc1

>  <Energy>  (7) 
152.8469052348434

>  <Genealogy>  (7) 
Cc1cn(S(C)(=O)=O)cc1-c1ccc(C(=O)N2CCN(C(=O)C3CCC3)CC2)cc1 (3D coordinates assigned)
Cc1cn(S(C)(=O)=O)cc1-c1ccc(C(=O)N2CCN(C(=O)C3CCC3)CC2)cc1 (nonaromatic ring conformer: 152.8469052348434 kcal/mol)

>  <smiles>  (7) 
Cc1cn(S(C)(=O)=O)cc1-c1ccc(C(=O)N2CCN(C(=O)C3CCC3)CC2)cc1

>  <score_type>  (7) 
oracle

>  <origin>  (7) 
adg

>  <m_score__min__energy>  (7) 
-8.7799999999999994

>  <m_primary>  (7) 
energy

$$$$
7:0
     RDKit          3D

 43 46  0  0  0  0  0  0  0  0999 V2000
   58.5270   32.3130   49.6950 C   0  0  0  0  0  0  0  0  0  0  0  0
   59.6230   32.8660   49.1710 C   0  0  0  0  0  0  0  0  0  0  0  0
   60.6860   33.2150   49.9340 N   0  0  0  0  0  0  0  0  0  0  0  0
   61.5940   33.6860   49.0520 C   0  0  0  0  0  0  0  0  0  0  0  0
   62.8190   34.1230   49.3740 C   0  0  0  0  0  0  0  0  0  0  0  0
   63.8890   33.2330   49.8530 C   0  0  0  0  0  0  0  0  0  0  0  0
   65.1960   33.4570   49.5990 N   0  0  0  0  0  0  0  0  0  0  0  0
   65.8250   32.4260   50.2020 C   0  0  0  0  0  0  0  0  0  0  0  0
   67.0750   32.2710   50.1660 O   0  0  0  0  0  0  0  0  0  0  0  0
   64.9890   31.5810   50.8410 N   0  0  0  0  0  0  0  0  0  0  0  0
   65.3280   30.3450   51.5390 C   0  0  0  0  0  0  0  0  0  0  0  0
   63.7650   32.0880   50.6240 C   0  0  0  0  0  0  0  0  0  0  0  0
   62.5940   31.5500   51.1570 O   0  0  0  0  0  0  0  0  0  0  0  0
   61.0680   33.6000   47.7810 C   0  0  0  0  0  0  0  0  0  0  0  0
   61.6390   33.9570   46.7150 O   0  0  0  0  0  0  0  0  0  0  0  0
   59.8230   33.0940   47.8460 N   0  0  0  0  0  0  0  0  0  0  0  0
   58.9240   32.8790   46.7430 C   0  0  0  0  0  0  0  0  0  0  0  0
   58.2620   33.9660   46.1520 C   0  0  0  0  0  0  0  0  0  0  0  0
   57.3630   33.7560   45.1040 C   0  0  0  0  0  0  0  0  0  0  0  0
   57.1200   32.4630   44.6370 C   0  0  0  0  0  0  0  0  0  0  0  0
   57.7830   31.3680   45.2050 C   0  0  0  0  0  0  0  0  0  0  0  0
   57.4890   30.0530   44.7100 N   0  0  0  0  0  0  0  0  0  0  0  0
   56.3440   29.2560   45.0370 C   0  0  0  0  0  0  0  0  0  0  0  0
   55.1780   29.7060   44.8700 O   0  0  0  0  0  0  0  0  0  0  0  0
   56.5260   27.9220   45.6230 C   0  0  0  0  0  0  0  0  0  0  0  0
   57.7220   27.3620   46.0170 C   0  0  0  0  0  0  0  0  0  0  0  0
   57.4890   26.1300   46.5020 N   0  0  0  0  0  0  0  0  0  0  0  0
   56.1530   25.9920   46.3840 C   0  0  0  0  0  0  0  0  0  0  0  0
   55.5430   24.9500   46.7400 O   0  0  0  0  0  0  0  0  0  0  0  0
   55.5210   27.0580   45.8530 N   0  0  0  0  0  0  0  0  0  0  0  0
   58.6680   31.5800   46.2780 C   0  0  0  0  0  0  0  0  0  0  0  0
   57.6826   32.0424   49.0441 H   0  0  0  0  0  0  0  0  0  0  0  0
   58.4682   32.1279   50.7777 H   0  0  0  0  0  0  0  0  0  0  0  0
   63.0351   35.1971   49.2758 H   0  0  0  0  0  0  0  0  0  0  0  0
   65.2820   30.5128   52.6251 H   0  0  0  0  0  0  0  0  0  0  0  0
   64.6126   29.5577   51.2590 H   0  0  0  0  0  0  0  0  0  0  0  0
   66.3449   30.0328   51.2590 H   0  0  0  0  0  0  0  0  0  0  0  0
   61.6800   31.8680   50.8630 H   0  0  0  0  0  0  0  0  0  0  0  0
   58.4517   34.9868   46.5153 H   0  0  0  0  0  0  0  0  0  0  0  0
   56.8452   34.6114   44.6455 H   0  0  0  0  0  0  0  0  0  0  0  0
   56.4034   32.3033   43.8179 H   0  0  0  0  0  0  0  0  0  0  0  0
   58.7078   27.8449   45.9461 H   0  0  0  0  0  0  0  0  0  0  0  0
   59.1627   30.7215   46.7557 H   0  0  0  0  0  0  0  0  0  0  0  0
  1  2  2  0
  2  3  1  0
  3  4  1  0
  4  5  2  3
  5  6  1  0
  6  7  1  0
  7  8  1  0
  8  9  2  0
  8 10  1  0
 10 11  1  0
 10 12  1  0
 12 13  1  0
  4 14  1  0
 14 15  2  0
 14 16  1  0
 16 17  1  0
 17 18  2  0
 18 19  1  0
 19 20  2  0
 20 21  1  0
 21 22  1  0
 22 23  1  0
 23 24  2  0
 23 25  1  0
 25 26  2  0
 26 27  1  0
 27 28  1  0
 28 29  2  0
 28 30  1  0
 21 31  2  0
 16  2  1  0
 31 17  1  0
 12  6  2  0
 30 25  1  0
  1 32  1  0
  1 33  1  0
  5 34  1  0
 11 35  1  0
 11 36  1  0
 11 37  1  0
 13 38  1  0
 18 39  1  0
 19 40  1  0
 20 41  1  0
 26 42  1  0
 31 43  1  0
M  CHG  5   3  -1   7  -1  22  -1  27  -1  30  -1
M  END
>  <UniqueID>  (8) 
8

>  <SMILES>  (8) 
C=c1[n-]c(=Cc2[n-]c(=O)n(C)c2O)c(=O)n1-c1cccc([N-]C(=O)c2c[n-]c(=O)[n-]2)c1

>  <Energy>  (8) 
153.51468828255383

>  <Genealogy>  (8) 
C=c1[n-]c(=Cc2[n-]c(=O)n(C)c2O)c(=O)n1-c1cccc([N-]C(=O)c2c[n-]c(=O)[n-]2)c1 (protonated)
C=c1[n-]c(=Cc2[n-]c(=O)n(C)c2O)c(=O)n1-c1cccc([N-]C(=O)c2c[n-]c(=O)[n-]2)c1 (3D coordinates assigned)
C=c1[n-]c(=Cc2[n-]c(=O)n(C)c2O)c(=O)n1-c1cccc([N-]C(=O)c2c[n-]c(=O)[n-]2)c1 (optimized conformer: 153.51468828255383 kcal/mol)

>  <smiles>  (8) 
C=c1[nH]c(=Cc2[nH]c(=O)n(C)c2O)c(=O)n1-c1cccc(NC(=O)c2c[nH]c(=O)[nH]2)c1

>  <score_type>  (8) 
oracle

>  <origin>  (8) 
adg

>  <m_score__min__energy>  (8) 
-16.109999999999999

>  <m_primary>  (8) 
energy

$$$$
8:0
     RDKit          3D

 42 44  0  0  0  0  0  0  0  0999 V2000
   55.6530   29.7580   43.7950 C   0  0  0  0  0  0  0  0  0  0  0  0
   56.8630   29.7740   44.6370 N   0  0  0  0  0  0  0  0  0  0  0  0
   57.7100   30.8570   44.6180 C   0  0  0  0  0  0  0  0  0  0  0  0
   57.4100   32.3010   43.5830 S   0  0  0  0  0  0  0  0  0  0  0  0
   58.8350   33.2470   44.2290 C   0  0  0  0  0  0  0  0  0  0  0  0
   58.4660   33.8790   45.5410 C   0  0  0  0  0  0  0  0  0  0  0  0
   57.3290   34.4150   45.6490 O   0  0  0  0  0  0  0  0  0  0  0  0
   59.3900   33.9290   46.6480 N   0  0  0  0  0  0  0  0  0  0  0  0
   58.9310   33.5970   48.0130 C   0  0  0  0  0  0  0  0  0  0  0  0
   59.9270   34.0300   49.1000 C   0  0  0  0  0  0  0  0  0  0  0  0
   61.3250   33.6480   48.7170 C   0  0  0  0  0  0  0  0  0  0  0  0
   62.2350   33.1530   49.6640 C   0  0  0  0  0  0  0  0  0  0  0  0
   63.5410   32.8390   49.2790 C   0  0  0  0  0  0  0  0  0  0  0  0
   63.9520   33.0320   47.9590 C   0  0  0  0  0  0  0  0  0  0  0  0
   63.0550   33.5390   47.0160 C   0  0  0  0  0  0  0  0  0  0  0  0
   61.7350   33.8400   47.3880 C   0  0  0  0  0  0  0  0  0  0  0  0
   60.7600   34.4160   46.3940 C   0  0  0  0  0  0  0  0  0  0  0  0
   58.7990   30.8870   45.4300 N   0  0  0  0  0  0  0  0  0  0  0  0
   59.0980   29.8670   46.2670 C   0  0  0  0  0  0  0  0  0  0  0  0
   60.2950   29.9600   47.1680 C   0  0  0  0  0  0  0  0  0  0  0  0
   59.9820   30.7300   48.2710 F   0  0  0  0  0  0  0  0  0  0  0  0
   60.6720   28.6980   47.5860 F   0  0  0  0  0  0  0  0  0  0  0  0
   61.3570   30.5410   46.5010 F   0  0  0  0  0  0  0  0  0  0  0  0
   58.2410   28.7710   46.3320 C   0  0  0  0  0  0  0  0  0  0  0  0
   57.1150   28.7420   45.5080 C   0  0  0  0  0  0  0  0  0  0  0  0
   56.3310   27.7540   45.5860 O   0  0  0  0  0  0  0  0  0  0  0  0
   54.7598   29.7462   44.4369 H   0  0  0  0  0  0  0  0  0  0  0  0
   55.6363   30.6560   43.1599 H   0  0  0  0  0  0  0  0  0  0  0  0
   55.6601   28.8599   43.1599 H   0  0  0  0  0  0  0  0  0  0  0  0
   59.6884   32.5688   44.3763 H   0  0  0  0  0  0  0  0  0  0  0  0
   59.1093   34.0322   43.5091 H   0  0  0  0  0  0  0  0  0  0  0  0
   57.9716   34.1039   48.1938 H   0  0  0  0  0  0  0  0  0  0  0  0
   58.8330   32.5029   48.0716 H   0  0  0  0  0  0  0  0  0  0  0  0
   59.8722   35.1213   49.2265 H   0  0  0  0  0  0  0  0  0  0  0  0
   59.6665   33.5243   50.0415 H   0  0  0  0  0  0  0  0  0  0  0  0
   61.9203   33.0123   50.7086 H   0  0  0  0  0  0  0  0  0  0  0  0
   64.2486   32.4378   50.0196 H   0  0  0  0  0  0  0  0  0  0  0  0
   64.9818   32.7849   47.6616 H   0  0  0  0  0  0  0  0  0  0  0  0
   63.3836   33.7029   45.9791 H   0  0  0  0  0  0  0  0  0  0  0  0
   60.7717   35.5130   46.4741 H   0  0  0  0  0  0  0  0  0  0  0  0
   61.0617   34.0980   45.3851 H   0  0  0  0  0  0  0  0  0  0  0  0
   58.4486   27.9404   47.0227 H   0  0  0  0  0  0  0  0  0  0  0  0
  1  2  1  0
  2  3  1  0
  3  4  1  0
  4  5  1  0
  5  6  1  0
  6  7  2  0
  6  8  1  0
  8  9  1  0
  9 10  1  0
 10 11  1  0
 11 12  2  0
 12 13  1  0
 13 14  2  0
 14 15  1  0
 15 16  2  0
 16 17  1  0
  3 18  2  0
 18 19  1  0
 19 20  1  0
 20 21  1  0
 20 22  1  0
 20 23  1  0
 19 24  2  0
 24 25  1  0
 25 26  2  0
 25  2  1  0
 17  8  1  0
 16 11  1  0
  1 27  1  0
  1 28  1  0
  1 29  1  0
  5 30  1  0
  5 31  1  0
  9 32  1  0
  9 33  1  0
 10 34  1  0
 10 35  1  0
 12 36  1  0
 13 37  1  0
 14 38  1  0
 15 39  1  0
 17 40  1  0
 17 41  1  0
 24 42  1  0
M  END
>  <UniqueID>  (9) 
9

>  <SMILES>  (9) 
Cn1c(SCC(=O)N2CCc3ccccc3C2)nc(C(F)(F)F)cc1=O

>  <Energy>  (9) 
46.82896068878464

>  <Genealogy>  (9) 
Cn1c(SCC(=O)N2CCc3ccccc3C2)nc(C(F)(F)F)cc1=O (3D coordinates assigned)
Cn1c(SCC(=O)N2CCc3ccccc3C2)nc(C(F)(F)F)cc1=O (nonaromatic ring conformer: 46.82896068878464 kcal/mol)

>  <smiles>  (9) 
Cn1c(SCC(=O)N2CCc3ccccc3C2)nc(C(F)(F)F)cc1=O

>  <score_type>  (9) 
oracle

>  <origin>  (9) 
adg

>  <m_score__min__energy>  (9) 
-7.7800000000000002

>  <m_primary>  (9) 
energy

$$$$
9:0
     RDKit          3D

 54 57  0  0  0  0  0  0  0  0999 V2000
   57.8890   28.2280   46.6750 O   0  0  0  0  0  0  0  0  0  0  0  0
   56.9730   27.7830   45.9310 C   0  0  0  0  0  0  0  0  0  0  0  0
   56.0720   28.7000   45.3030 N   0  0  0  0  0  0  0  0  0  0  0  0
   56.5880   29.8710   44.1350 S   0  0  0  0  0  0  0  0  0  0  0  0
   55.3790   30.4720   43.4760 O   0  0  0  0  0  0  0  0  0  0  0  0
   57.4200   29.2030   43.0760 O   0  0  0  0  0  0  0  0  0  0  0  0
   57.5130   31.1360   44.9360 C   0  0  0  0  0  0  0  0  0  0  0  0
   58.6620   30.8130   45.6700 C   0  0  0  0  0  0  0  0  0  0  0  0
   59.3820   31.8140   46.3270 C   0  0  0  0  0  0  0  0  0  0  0  0
   58.9690   33.1560   46.2510 C   0  0  0  0  0  0  0  0  0  0  0  0
   59.7180   34.2200   46.9630 C   0  0  0  0  0  0  0  0  0  0  0  0
   59.1820   35.3490   47.1240 O   0  0  0  0  0  0  0  0  0  0  0  0
   61.0360   33.9850   47.4900 N   0  0  0  0  0  0  0  0  0  0  0  0
   62.0920   33.4210   46.6350 C   0  0  0  0  0  0  0  0  0  0  0  0
   62.9230   32.3970   47.4200 C   0  0  0  0  0  0  0  0  0  0  0  0
   63.1750   32.8440   48.8000 N   0  0  0  0  0  0  0  0  0  0  0  0
   63.6840   31.9080   49.7710 C   0  0  0  0  0  0  0  0  0  0  0  0
   62.8580   30.8940   50.2890 C   0  0  0  0  0  0  0  0  0  0  0  0
   63.3560   29.9840   51.2240 C   0  0  0  0  0  0  0  0  0  0  0  0
   64.6850   30.0720   51.6500 C   0  0  0  0  0  0  0  0  0  0  0  0
   65.1780   29.1670   52.5810 O   0  0  0  0  0  0  0  0  0  0  0  0
   65.5180   31.0680   51.1340 C   0  0  0  0  0  0  0  0  0  0  0  0
   65.0220   31.9810   50.1970 C   0  0  0  0  0  0  0  0  0  0  0  0
   62.8260   34.2150   49.1900 C   0  0  0  0  0  0  0  0  0  0  0  0
   61.3640   34.4950   48.8290 C   0  0  0  0  0  0  0  0  0  0  0  0
   57.8070   33.4700   45.5270 C   0  0  0  0  0  0  0  0  0  0  0  0
   57.0850   32.4680   44.8730 C   0  0  0  0  0  0  0  0  0  0  0  0
   56.8500   26.3180   45.7060 C   0  0  0  0  0  0  0  0  0  0  0  0
   58.0110   25.5580   45.4580 C   0  0  0  0  0  0  0  0  0  0  0  0
   57.9300   24.1780   45.2420 C   0  0  0  0  0  0  0  0  0  0  0  0
   56.6920   23.5380   45.2680 C   0  0  0  0  0  0  0  0  0  0  0  0
   55.5320   24.2710   45.5180 C   0  0  0  0  0  0  0  0  0  0  0  0
   55.6000   25.6530   45.7390 C   0  0  0  0  0  0  0  0  0  0  0  0
   54.4200   26.3400   45.9960 O   0  0  0  0  0  0  0  0  0  0  0  0
   58.9984   29.7674   45.7292 H   0  0  0  0  0  0  0  0  0  0  0  0
   60.2782   31.5504   46.9078 H   0  0  0  0  0  0  0  0  0  0  0  0
   61.6308   32.9257   45.7678 H   0  0  0  0  0  0  0  0  0  0  0  0
   62.7517   34.2341   46.2979 H   0  0  0  0  0  0  0  0  0  0  0  0
   62.3779   31.4420   47.4485 H   0  0  0  0  0  0  0  0  0  0  0  0
   63.8929   32.2820   46.9140 H   0  0  0  0  0  0  0  0  0  0  0  0
   61.8126   30.8173   49.9553 H   0  0  0  0  0  0  0  0  0  0  0  0
   62.7016   29.1965   51.6261 H   0  0  0  0  0  0  0  0  0  0  0  0
   66.5650   31.1344   51.4648 H   0  0  0  0  0  0  0  0  0  0  0  0
   65.6830   32.7609   49.7910 H   0  0  0  0  0  0  0  0  0  0  0  0
   62.9645   34.3336   50.2748 H   0  0  0  0  0  0  0  0  0  0  0  0
   63.4764   34.9236   48.6563 H   0  0  0  0  0  0  0  0  0  0  0  0
   60.7126   34.0056   49.5680 H   0  0  0  0  0  0  0  0  0  0  0  0
   61.2085   35.5839   48.8328 H   0  0  0  0  0  0  0  0  0  0  0  0
   57.4624   34.5133   45.4744 H   0  0  0  0  0  0  0  0  0  0  0  0
   56.1778   32.7263   44.3070 H   0  0  0  0  0  0  0  0  0  0  0  0
   58.9918   26.0555   45.4340 H   0  0  0  0  0  0  0  0  0  0  0  0
   58.8446   23.5973   45.0514 H   0  0  0  0  0  0  0  0  0  0  0  0
   56.6298   22.4541   45.0912 H   0  0  0  0  0  0  0  0  0  0  0  0
   54.5577   23.7610   45.5418 H   0  0  0  0  0  0  0  0  0  0  0  0
  1  2  2  0
  2  3  1  0
  3  4  1  0
  4  5  2  0
  4  6  2  0
  4  7  1  0
  7  8  2  0
  8  9  1  0
  9 10  2  0
 10 11  1  0
 11 12  2  0
 11 13  1  0
 13 14  1  0
 14 15  1  0
 15 16  1  0
 16 17  1  0
 17 18  2  0
 18 19  1  0
 19 20  2  0
 20 21  1  0
 20 22  1  0
 22 23  2  0
 16 24  1  0
 24 25  1  0
 10 26  1  0
 26 27  2  0
  2 28  1  0
 28 29  2  0
 29 30  1  0
 30 31  2  0
 31 32  1  0
 32 33  2  0
 33 34  1  0
 27  7  1  0
 33 28  1  0
 25 13  1  0
 23 17  1  0
  8 35  1  0
  9 36  1  0
 14 37  1  0
 14 38  1  0
 15 39  1  0
 15 40  1  0
 18 41  1  0
 19 42  1  0
 22 43  1  0
 23 44  1  0
 24 45  1  0
 24 46  1  0
 25 47  1  0
 25 48  1  0
 26 49  1  0
 27 50  1  0
 29 51  1  0
 30 52  1  0
 31 53  1  0
 32 54  1  0
M  CHG  3   3  -1  21  -1  34  -1
M  END
>  <UniqueID>  (10) 
10

>  <SMILES>  (10) 
O=C([N-]S(=O)(=O)c1ccc(C(=O)N2CCN(c3ccc([O-])cc3)CC2)cc1)c1ccccc1[O-]

>  <Energy>  (10) 
72.44724705612877

>  <Genealogy>  (10) 
O=C([N-]S(=O)(=O)c1ccc(C(=O)N2CCN(c3ccc([O-])cc3)CC2)cc1)c1ccccc1[O-] (protonated)
O=C([N-]S(=O)(=O)c1ccc(C(=O)N2CCN(c3ccc([O-])cc3)CC2)cc1)c1ccccc1[O-] (3D coordinates assigned)
O=C([N-]S(=O)(=O)c1ccc(C(=O)N2CCN(c3ccc([O-])cc3)CC2)cc1)c1ccccc1[O-] (nonaromatic ring conformer: 72.44724705612877 kcal/mol)

>  <smiles>  (10) 
O=C(NS(=O)(=O)c1ccc(C(=O)N2CCN(c3ccc(O)cc3)CC2)cc1)c1ccccc1O

>  <score_type>  (10) 
oracle

>  <origin>  (10) 
adg

>  <m_score__min__energy>  (10) 
-16.41

>  <m_primary>  (10) 
energy

$$$$
10:0
     RDKit          3D

 56 59  0  0  0  0  0  0  0  0999 V2000
   59.8080   28.0820   44.6260 O   0  0  0  0  0  0  0  0  0  0  0  0
   59.3260   28.9260   45.4290 C   0  0  0  0  0  0  0  0  0  0  0  0
   59.8970   30.2360   45.5320 N   0  0  0  0  0  0  0  0  0  0  0  0
   59.3720   31.3370   46.2910 C   0  0  0  0  0  0  0  0  0  0  0  0
   59.8790   31.6610   47.5620 C   0  0  0  0  0  0  0  0  0  0  0  0
   59.3470   32.7380   48.2850 C   0  0  0  0  0  0  0  0  0  0  0  0
   59.9680   33.1440   49.8840 S   0  0  0  0  0  0  0  0  0  0  0  0
   59.4070   34.4760   50.2940 O   0  0  0  0  0  0  0  0  0  0  0  0
   61.4690   33.2440   49.8480 O   0  0  0  0  0  0  0  0  0  0  0  0
   59.4820   31.9150   51.0260 N   0  0  0  0  0  0  0  0  0  0  0  0
   58.2820   32.3350   51.7860 C   0  0  0  0  0  0  0  0  0  0  0  0
   57.0140   31.5910   51.3290 C   0  0  0  0  0  0  0  0  0  0  0  0
   57.1230   30.1800   51.4450 O   0  0  0  0  0  0  0  0  0  0  0  0
   58.4260   29.6800   51.1650 C   0  0  0  0  0  0  0  0  0  0  0  0
   59.3010   30.6280   50.3300 C   0  0  0  0  0  0  0  0  0  0  0  0
   58.2920   33.4820   47.7470 C   0  0  0  0  0  0  0  0  0  0  0  0
   57.7670   33.1510   46.4960 C   0  0  0  0  0  0  0  0  0  0  0  0
   58.2920   32.0750   45.7700 C   0  0  0  0  0  0  0  0  0  0  0  0
   57.7370   31.7620   44.4860 N   0  0  0  0  0  0  0  0  0  0  0  0
   56.7080   30.7270   44.3890 C   0  0  0  0  0  0  0  0  0  0  0  0
   56.7080   30.1340   42.9770 C   0  0  0  0  0  0  0  0  0  0  0  0
   56.6300   31.1560   42.0000 O   0  0  0  0  0  0  0  0  0  0  0  0
   57.7960   31.9580   42.0490 C   0  0  0  0  0  0  0  0  0  0  0  0
   57.8830   32.7080   43.3810 C   0  0  0  0  0  0  0  0  0  0  0  0
   58.1450   28.6200   46.1820 N   0  0  0  0  0  0  0  0  0  0  0  0
   57.5760   27.3020   46.2880 C   0  0  0  0  0  0  0  0  0  0  0  0
   58.2890   26.2500   46.8950 C   0  0  0  0  0  0  0  0  0  0  0  0
   57.7110   24.9820   47.0120 C   0  0  0  0  0  0  0  0  0  0  0  0
   56.4170   24.7540   46.5420 C   0  0  0  0  0  0  0  0  0  0  0  0
   55.6940   25.7960   45.9570 C   0  0  0  0  0  0  0  0  0  0  0  0
   56.2640   27.0680   45.8350 C   0  0  0  0  0  0  0  0  0  0  0  0
   55.5270   28.0920   45.2510 O   0  0  0  0  0  0  0  0  0  0  0  0
   60.6981   31.0657   47.9917 H   0  0  0  0  0  0  0  0  0  0  0  0
   58.4486   32.1284   52.8535 H   0  0  0  0  0  0  0  0  0  0  0  0
   58.1268   33.4089   51.6054 H   0  0  0  0  0  0  0  0  0  0  0  0
   56.1685   31.9286   51.9464 H   0  0  0  0  0  0  0  0  0  0  0  0
   56.8647   31.8217   50.2639 H   0  0  0  0  0  0  0  0  0  0  0  0
   58.9362   29.4931   52.1214 H   0  0  0  0  0  0  0  0  0  0  0  0
   58.2912   28.7668   50.5668 H   0  0  0  0  0  0  0  0  0  0  0  0
   60.2847   30.1632   50.1678 H   0  0  0  0  0  0  0  0  0  0  0  0
   58.8040   30.8128   49.3663 H   0  0  0  0  0  0  0  0  0  0  0  0
   57.8749   34.3297   48.3104 H   0  0  0  0  0  0  0  0  0  0  0  0
   56.9363   33.7389   46.0786 H   0  0  0  0  0  0  0  0  0  0  0  0
   56.9180   29.9322   45.1199 H   0  0  0  0  0  0  0  0  0  0  0  0
   55.7233   31.1697   44.5995 H   0  0  0  0  0  0  0  0  0  0  0  0
   57.6354   29.5619   42.8266 H   0  0  0  0  0  0  0  0  0  0  0  0
   55.8310   29.4786   42.8710 H   0  0  0  0  0  0  0  0  0  0  0  0
   58.6814   31.3146   41.9386 H   0  0  0  0  0  0  0  0  0  0  0  0
   57.7534   32.6932   41.2319 H   0  0  0  0  0  0  0  0  0  0  0  0
   58.8588   33.2103   43.4554 H   0  0  0  0  0  0  0  0  0  0  0  0
   57.0789   33.4569   43.4321 H   0  0  0  0  0  0  0  0  0  0  0  0
   57.6380   29.4190   46.6230 H   0  0  0  0  0  0  0  0  0  0  0  0
   59.3047   26.4265   47.2786 H   0  0  0  0  0  0  0  0  0  0  0  0
   58.2782   24.1617   47.4760 H   0  0  0  0  0  0  0  0  0  0  0  0
   55.9668   23.7544   46.6322 H   0  0  0  0  0  0  0  0  0  0  0  0
   54.6725   25.6160   45.5908 H   0  0  0  0  0  0  0  0  0  0  0  0
  1  2  2  0
  2  3  1  0
  3  4  1  0
  4  5  2  0
  5  6  1  0
  6  7  1  0
  7  8  2  0
  7  9  2  0
  7 10  1  0
 10 11  1  0
 11 12  1  0
 12 13  1  0
 13 14  1  0
 14 15  1  0
  6 16  2  0
 16 17  1  0
 17 18  2  0
 18 19  1  0
 19 20  1  0
 20 21  1  0
 21 22  1  0
 22 23  1  0
 23 24  1  0
  2 25  1  0
 25 26  1  0
 26 27  2  0
 27 28  1  0
 28 29  2  0
 29 30  1  0
 30 31  2  0
 31 32  1  0
 18  4  1  0
 24 19  1  0
 31 26  1  0
 15 10  1  0
  5 33  1  0
 11 34  1  0
 11 35  1  0
 12 36  1  0
 12 37  1  0
 14 38  1  0
 14 39  1  0
 15 40  1  0
 15 41  1  0
 16 42  1  0
 17 43  1  0
 20 44  1  0
 20 45  1  0
 21 46  1  0
 21 47  1  0
 23 48  1  0
 23 49  1  0
 24 50  1  0
 24 51  1  0
 25 52  1  0
 27 53  1  0
 28 54  1  0
 29 55  1  0
 30 56  1  0
M  CHG  2   3  -1  32  -1
M  END
>  <UniqueID>  (11) 
11

>  <SMILES>  (11) 
O=C([N-]c1cc(S(=O)(=O)N2CCOCC2)ccc1N1CCOCC1)Nc1ccccc1[O-]

>  <Energy>  (11) 
84.29149646140189

>  <Genealogy>  (11) 
O=C([N-]c1cc(S(=O)(=O)N2CCOCC2)ccc1N1CCOCC1)Nc1ccccc1[O-] (protonated)
O=C([N-]c1cc(S(=O)(=O)N2CCOCC2)ccc1N1CCOCC1)Nc1ccccc1[O-] (3D coordinates assigned)
O=C([N-]c1cc(S(=O)(=O)N2CCOCC2)ccc1N1CCOCC1)Nc1ccccc1[O-] (nonaromatic ring conformer: 84.29149646140189 kcal/mol)

>  <smiles>  (11) 
O=C(Nc1ccccc1O)Nc1cc(S(=O)(=O)N2CCOCC2)ccc1N1CCOCC1

>  <score_type>  (11) 
oracle

>  <origin>  (11) 
adg

>  <m_score__min__energy>  (11) 
-14.16

>  <m_primary>  (11) 
energy

$$$$
11:0
     RDKit          3D

 23 24  0  0  0  0  0  0  0  0999 V2000
   55.1500   27.4710   45.5480 H   0  0  0  0  0  0  0  0  0  0  0  0
   54.9340   26.5780   45.9710 O   0  0  0  0  0  0  0  0  0  0  0  0
   55.9410   25.6980   46.3640 C   0  0  0  0  0  0  0  0  0  0  0  0
   57.2070   26.0540   46.7760 C   0  0  0  0  0  0  0  0  0  0  0  0
   57.6840   27.4310   46.9820 C   0  0  0  0  0  0  0  0  0  0  0  0
   58.3014   27.6196   47.8726 H   0  0  0  0  0  0  0  0  0  0  0  0
   57.4320   28.4790   46.1780 C   0  0  0  0  0  0  0  0  0  0  0  0
   56.5110   28.3990   45.1990 N   0  0  0  0  0  0  0  0  0  0  0  0
   56.4930   29.6320   44.6570 C   0  0  0  0  0  0  0  0  0  0  0  0
   55.5090   30.0430   43.4200 S   0  0  0  0  0  0  0  0  0  0  0  0
   57.3670   30.4930   45.2110 N   0  0  0  0  0  0  0  0  0  0  0  0
   57.9810   29.7650   46.1630 C   0  0  0  0  0  0  0  0  0  0  0  0
   59.0320   30.2390   46.8360 C   0  0  0  0  0  0  0  0  0  0  0  0
   59.5141   29.6221   47.6087 H   0  0  0  0  0  0  0  0  0  0  0  0
   59.4159   31.2465   46.6179 H   0  0  0  0  0  0  0  0  0  0  0  0
   57.8820   24.9450   47.1530 N   0  0  0  0  0  0  0  0  0  0  0  0
   57.0100   23.9420   46.9090 C   0  0  0  0  0  0  0  0  0  0  0  0
   57.2820   22.7330   47.1380 O   0  0  0  0  0  0  0  0  0  0  0  0
   55.8250   24.3600   46.4180 N   0  0  0  0  0  0  0  0  0  0  0  0
   54.6420   23.5570   46.1220 C   0  0  0  0  0  0  0  0  0  0  0  0
   54.1710   23.2373   47.0632 H   0  0  0  0  0  0  0  0  0  0  0  0
   53.9275   24.1575   45.5399 H   0  0  0  0  0  0  0  0  0  0  0  0
   54.9363   22.6713   45.5399 H   0  0  0  0  0  0  0  0  0  0  0  0
  1  2  1  0
  2  3  1  0
  3  4  2  0
  4  5  1  0
  5  6  1  0
  5  7  2  0
  7  8  1  0
  8  9  1  0
  9 10  2  0
  9 11  1  0
 11 12  1  0
 12 13  2  0
 13 14  1  0
 13 15  1  0
  4 16  1  0
 16 17  1  0
 17 18  2  0
 17 19  1  0
 19 20  1  0
 20 21  1  0
 20 22  1  0
 20 23  1  0
 19  3  1  0
 12  7  1  0
M  CHG  3   8  -1  11  -1  16  -1
M  END
>  <UniqueID>  (12) 
12

>  <SMILES>  (12) 
C=c1[n-]c(=S)[n-]/c1=C/c1[n-]c(=O)n(C)c1O

>  <Energy>  (12) 
93.74604670782159

>  <Genealogy>  (12) 
C=c1[n-]c(=S)[n-]c1=Cc1[n-]c(=O)n(C)c1O (protonated)
C=c1[n-]c(=S)[n-]/c1=C/c1[n-]c(=O)n(C)c1O (cis-trans isomerization)
C=c1[n-]c(=S)[n-]/c1=C/c1[n-]c(=O)n(C)c1O (3D coordinates assigned)
C=c1[n-]c(=S)[n-]/c1=C/c1[n-]c(=O)n(C)c1O (optimized conformer: 93.74604670782159 kcal/mol)

>  <smiles>  (12) 
C=c1[nH]c(=S)[nH]c1=Cc1[nH]c(=O)n(C)c1O

>  <score_type>  (12) 
oracle

>  <origin>  (12) 
adg

>  <m_score__min__energy>  (12) 
-10.9

>  <m_primary>  (12) 
energy

$$$$
12:0
     RDKit          3D

 56 60  0  0  0  0  0  0  0  0999 V2000
   55.5680   30.3490   44.1050 C   0  0  0  0  0  0  0  0  0  0  0  0
   56.1960   29.3490   44.7290 C   0  0  0  0  0  0  0  0  0  0  0  0
   55.5250   28.3440   45.2460 O   0  0  0  0  0  0  0  0  0  0  0  0
   56.3710   27.5000   45.7780 C   0  0  0  0  0  0  0  0  0  0  0  0
   55.9890   26.3140   46.3920 O   0  0  0  0  0  0  0  0  0  0  0  0
   57.6680   27.9430   45.6200 C   0  0  0  0  0  0  0  0  0  0  0  0
   58.8840   27.2370   46.0800 C   0  0  0  0  0  0  0  0  0  0  0  0
   59.6480   26.7030   45.2350 O   0  0  0  0  0  0  0  0  0  0  0  0
   59.1740   27.0730   47.4740 N   0  0  0  0  0  0  0  0  0  0  0  0
   59.3850   28.1330   48.4180 C   0  0  0  0  0  0  0  0  0  0  0  0
   58.5150   29.2280   48.4140 C   0  0  0  0  0  0  0  0  0  0  0  0
   58.6870   30.2730   49.3280 C   0  0  0  0  0  0  0  0  0  0  0  0
   59.7220   30.2240   50.2770 C   0  0  0  0  0  0  0  0  0  0  0  0
   59.9100   31.3030   51.2130 N   0  0  0  0  0  0  0  0  0  0  0  0
   58.7900   31.7470   52.0510 C   0  0  0  0  0  0  0  0  0  0  0  0
   59.1290   33.0710   52.7360 C   0  0  0  0  0  0  0  0  0  0  0  0
   59.8540   33.8890   51.8410 O   0  0  0  0  0  0  0  0  0  0  0  0
   61.1750   33.3960   51.6900 C   0  0  0  0  0  0  0  0  0  0  0  0
   61.2460   31.8710   51.4350 C   0  0  0  0  0  0  0  0  0  0  0  0
   60.5820   29.1150   50.2930 C   0  0  0  0  0  0  0  0  0  0  0  0
   60.4100   28.0730   49.3780 C   0  0  0  0  0  0  0  0  0  0  0  0
   57.5760   29.1580   44.9430 C   0  0  0  0  0  0  0  0  0  0  0  0
   58.6270   29.9510   44.6470 C   0  0  0  0  0  0  0  0  0  0  0  0
   59.4630   30.6470   45.6310 C   0  0  0  0  0  0  0  0  0  0  0  0
   60.5870   30.1300   46.2600 C   0  0  0  0  0  0  0  0  0  0  0  0
   61.1410   28.8770   46.0130 O   0  0  0  0  0  0  0  0  0  0  0  0
   61.1070   30.9940   47.1600 N   0  0  0  0  0  0  0  0  0  0  0  0
   60.2900   32.0630   47.1050 C   0  0  0  0  0  0  0  0  0  0  0  0
   60.4100   33.2290   47.8600 C   0  0  0  0  0  0  0  0  0  0  0  0
   61.4470   33.3860   48.7720 O   0  0  0  0  0  0  0  0  0  0  0  0
   59.4570   34.2420   47.6760 C   0  0  0  0  0  0  0  0  0  0  0  0
   58.4040   34.0740   46.7530 C   0  0  0  0  0  0  0  0  0  0  0  0
   58.2880   32.8850   45.9990 C   0  0  0  0  0  0  0  0  0  0  0  0
   57.1650   32.7180   45.0160 C   0  0  0  0  0  0  0  0  0  0  0  0
   59.2680   31.8950   46.1970 C   0  0  0  0  0  0  0  0  0  0  0  0
   56.1472   31.1814   43.6788 H   0  0  0  0  0  0  0  0  0  0  0  0
   54.4715   30.3402   44.0173 H   0  0  0  0  0  0  0  0  0  0  0  0
   57.6901   29.2678   47.6874 H   0  0  0  0  0  0  0  0  0  0  0  0
   58.0080   31.1381   49.3036 H   0  0  0  0  0  0  0  0  0  0  0  0
   57.8980   31.8825   51.4218 H   0  0  0  0  0  0  0  0  0  0  0  0
   58.5971   30.9858   52.8214 H   0  0  0  0  0  0  0  0  0  0  0  0
   58.1997   33.5813   53.0292 H   0  0  0  0  0  0  0  0  0  0  0  0
   59.7372   32.8767   53.6317 H   0  0  0  0  0  0  0  0  0  0  0  0
   61.6429   33.9123   50.8389 H   0  0  0  0  0  0  0  0  0  0  0  0
   61.6993   33.5876   52.6378 H   0  0  0  0  0  0  0  0  0  0  0  0
   61.8664   31.6851   50.5459 H   0  0  0  0  0  0  0  0  0  0  0  0
   61.6835   31.3911   52.3229 H   0  0  0  0  0  0  0  0  0  0  0  0
   61.3966   29.0658   51.0305 H   0  0  0  0  0  0  0  0  0  0  0  0
   61.0802   27.2013   49.4091 H   0  0  0  0  0  0  0  0  0  0  0  0
   58.8764   30.0861   43.5842 H   0  0  0  0  0  0  0  0  0  0  0  0
   60.8000   28.0480   46.4870 H   0  0  0  0  0  0  0  0  0  0  0  0
   59.5316   35.1739   48.2557 H   0  0  0  0  0  0  0  0  0  0  0  0
   57.6649   34.8776   46.6187 H   0  0  0  0  0  0  0  0  0  0  0  0
   56.2194   32.5774   45.5600 H   0  0  0  0  0  0  0  0  0  0  0  0
   57.0944   33.6155   44.3840 H   0  0  0  0  0  0  0  0  0  0  0  0
   57.3587   31.8388   44.3840 H   0  0  0  0  0  0  0  0  0  0  0  0
  1  2  2  0
  2  3  1  0
  3  4  1  0
  4  5  1  0
  4  6  2  0
  6  7  1  0
  7  8  2  0
  7  9  1  0
  9 10  1  0
 10 11  2  0
 11 12  1  0
 12 13  2  0
 13 14  1  0
 14 15  1  0
 15 16  1  0
 16 17  1  0
 17 18  1  0
 18 19  1  0
 13 20  1  0
 20 21  2  0
  6 22  1  0
 22 23  2  3
 23 24  1  0
 24 25  2  0
 25 26  1  0
 25 27  1  0
 27 28  1  0
 28 29  2  0
 29 30  1  0
 29 31  1  0
 31 32  2  0
 32 33  1  0
 33 34  1  0
 33 35  2  0
 22  2  1  0
 35 24  1  0
 21 10  1  0
 35 28  1  0
 19 14  1  0
  1 36  1  0
  1 37  1  0
 11 38  1  0
 12 39  1  0
 15 40  1  0
 15 41  1  0
 16 42  1  0
 16 43  1  0
 18 44  1  0
 18 45  1  0
 19 46  1  0
 19 47  1  0
 20 48  1  0
 21 49  1  0
 23 50  1  0
 26 51  1  0
 31 52  1  0
 32 53  1  0
 34 54  1  0
 34 55  1  0
 34 56  1  0
M  CHG  4   5  -1   9  -1  27  -1  30  -1
M  END
>  <UniqueID>  (13) 
13

>  <SMILES>  (13) 
C=c1oc([O-])c(C(=O)[N-]c2ccc(N3CCOCC3)cc2)c1=Cc1c(O)[n-]c2c([O-])ccc(C)c12

>  <Energy>  (13) 
152.52631122105916

>  <Genealogy>  (13) 
C=c1oc([O-])c(C(=O)[N-]c2ccc(N3CCOCC3)cc2)c1=Cc1c(O)[n-]c2c([O-])ccc(C)c12 (protonated)
C=c1oc([O-])c(C(=O)[N-]c2ccc(N3CCOCC3)cc2)c1=Cc1c(O)[n-]c2c([O-])ccc(C)c12 (3D coordinates assigned)
C=c1oc([O-])c(C(=O)[N-]c2ccc(N3CCOCC3)cc2)c1=Cc1c(O)[n-]c2c([O-])ccc(C)c12 (nonaromatic ring conformer: 152.52631122105916 kcal/mol)

>  <smiles>  (13) 
C=c1oc(O)c(C(=O)Nc2ccc(N3CCOCC3)cc2)c1=Cc1c(O)[nH]c2c(O)ccc(C)c12

>  <score_type>  (13) 
oracle

>  <origin>  (13) 
adg

>  <m_score__min__energy>  (13) 
-17.219999999999999

>  <m_primary>  (13) 
energy

$$$$
13:0
     RDKit          3D

 61 65  0  0  0  0  0  0  0  0999 V2000
   56.4390   26.6620   46.7450 O   0  0  0  0  0  0  0  0  0  0  0  0
   56.7440   26.3530   45.5610 C   0  0  0  0  0  0  0  0  0  0  0  0
   57.1320   27.3760   44.6280 N   0  0  0  0  0  0  0  0  0  0  0  0
   57.5240   28.7040   45.0140 C   0  0  0  0  0  0  0  0  0  0  0  0
   56.9560   29.8390   44.4100 C   0  0  0  0  0  0  0  0  0  0  0  0
   57.3190   31.1210   44.8330 C   0  0  0  0  0  0  0  0  0  0  0  0
   58.2410   31.2910   45.8810 C   0  0  0  0  0  0  0  0  0  0  0  0
   58.6270   32.6520   46.3200 C   0  0  0  0  0  0  0  0  0  0  0  0
   58.0020   33.6440   45.8540 O   0  0  0  0  0  0  0  0  0  0  0  0
   59.7140   32.8710   47.2410 N   0  0  0  0  0  0  0  0  0  0  0  0
   60.5720   34.0500   47.0580 C   0  0  0  0  0  0  0  0  0  0  0  0
   61.5650   34.2320   48.2160 C   0  0  0  0  0  0  0  0  0  0  0  0
   62.1730   32.9490   48.5940 N   0  0  0  0  0  0  0  0  0  0  0  0
   63.5330   32.8810   49.0590 C   0  0  0  0  0  0  0  0  0  0  0  0
   64.2770   31.9510   48.6490 O   0  0  0  0  0  0  0  0  0  0  0  0
   64.0710   33.8430   50.0920 C   0  0  2  0  0  0  0  0  0  0  0  0
   65.3190   33.3050   50.7760 C   0  0  0  0  0  0  0  0  0  0  0  0
   65.2050   33.8690   52.1570 C   0  0  0  0  0  0  0  0  0  0  0  0
   63.7120   34.0570   52.3310 C   0  0  0  0  0  0  0  0  0  0  0  0
   63.0960   34.1410   51.0640 O   0  0  0  0  0  0  0  0  0  0  0  0
   61.3580   31.7260   48.6580 C   0  0  0  0  0  0  0  0  0  0  0  0
   59.8750   32.0320   48.4360 C   0  0  0  0  0  0  0  0  0  0  0  0
   58.8120   30.1550   46.4790 C   0  0  0  0  0  0  0  0  0  0  0  0
   58.4440   28.8740   46.0590 C   0  0  0  0  0  0  0  0  0  0  0  0
   56.6620   24.9790   45.1460 N   0  0  0  0  0  0  0  0  0  0  0  0
   56.2810   23.8880   46.0460 C   0  0  0  0  0  0  0  0  0  0  0  0
   56.3940   22.6880   45.1840 C   0  0  0  0  0  0  0  0  0  0  0  0
   56.1270   21.3600   45.5200 C   0  0  0  0  0  0  0  0  0  0  0  0
   56.2900   20.3730   44.5350 C   0  0  0  0  0  0  0  0  0  0  0  0
   56.7100   20.7260   43.2390 C   0  0  0  0  0  0  0  0  0  0  0  0
   56.9720   22.0680   42.9220 C   0  0  0  0  0  0  0  0  0  0  0  0
   56.8060   23.0330   43.9170 C   0  0  0  0  0  0  0  0  0  0  0  0
   57.0110   24.4980   43.8070 C   0  0  0  0  0  0  0  0  0  0  0  0
   57.0420   27.1770   43.6070 H   0  0  0  0  0  0  0  0  0  0  0  0
   56.2218   29.7178   43.5999 H   0  0  0  0  0  0  0  0  0  0  0  0
   56.8805   32.0027   44.3428 H   0  0  0  0  0  0  0  0  0  0  0  0
   61.1375   33.9344   46.1216 H   0  0  0  0  0  0  0  0  0  0  0  0
   59.9231   34.9377   47.0276 H   0  0  0  0  0  0  0  0  0  0  0  0
   62.3578   34.9279   47.9042 H   0  0  0  0  0  0  0  0  0  0  0  0
   61.0213   34.6319   49.0846 H   0  0  0  0  0  0  0  0  0  0  0  0
   64.3405   34.7635   49.5534 H   0  0  0  0  0  0  0  0  0  0  0  0
   65.3181   32.2052   50.7952 H   0  0  0  0  0  0  0  0  0  0  0  0
   66.2522   33.5850   50.2654 H   0  0  0  0  0  0  0  0  0  0  0  0
   65.6040   33.1671   52.9041 H   0  0  0  0  0  0  0  0  0  0  0  0
   65.7759   34.7995   52.2918 H   0  0  0  0  0  0  0  0  0  0  0  0
   63.2970   33.2015   52.8841 H   0  0  0  0  0  0  0  0  0  0  0  0
   63.5228   34.9841   52.8921 H   0  0  0  0  0  0  0  0  0  0  0  0
   61.6997   31.0270   47.8804 H   0  0  0  0  0  0  0  0  0  0  0  0
   61.4746   31.2838   49.6584 H   0  0  0  0  0  0  0  0  0  0  0  0
   59.3243   31.0898   48.2977 H   0  0  0  0  0  0  0  0  0  0  0  0
   59.4793   32.5672   49.3118 H   0  0  0  0  0  0  0  0  0  0  0  0
   59.5533   30.2747   47.2828 H   0  0  0  0  0  0  0  0  0  0  0  0
   58.8792   27.9921   46.5518 H   0  0  0  0  0  0  0  0  0  0  0  0
   56.9676   23.8249   46.9031 H   0  0  0  0  0  0  0  0  0  0  0  0
   55.2788   24.0157   46.4811 H   0  0  0  0  0  0  0  0  0  0  0  0
   55.7961   21.0925   46.5344 H   0  0  0  0  0  0  0  0  0  0  0  0
   56.0886   19.3191   44.7773 H   0  0  0  0  0  0  0  0  0  0  0  0
   56.8334   19.9475   42.4718 H   0  0  0  0  0  0  0  0  0  0  0  0
   57.3009   22.3531   41.9118 H   0  0  0  0  0  0  0  0  0  0  0  0
   58.0571   24.7339   43.5620 H   0  0  0  0  0  0  0  0  0  0  0  0
   56.4122   24.9616   43.0092 H   0  0  0  0  0  0  0  0  0  0  0  0
  1  2  2  0
  2  3  1  0
  3  4  1  0
  4  5  2  0
  5  6  1  0
  6  7  2  0
  7  8  1  0
  8  9  2  0
  8 10  1  0
 10 11  1  0
 11 12  1  0
 12 13  1  0
 13 14  1  0
 14 15  2  0
 14 16  1  0
 16 17  1  0
 17 18  1  0
 18 19  1  0
 19 20  1  0
 13 21  1  0
 21 22  1  0
  7 23  1  0
 23 24  2  0
  2 25  1  0
 25 26  1  0
 26 27  1  0
 27 28  2  0
 28 29  1  0
 29 30  2  0
 30 31  1  0
 31 32  2  0
 32 33  1  0
 24  4  1  0
 33 25  1  0
 22 10  1  0
 32 27  1  0
 20 16  1  0
  3 34  1  0
  5 35  1  0
  6 36  1  0
 11 37  1  0
 11 38  1  0
 12 39  1  0
 12 40  1  0
 16 41  1  6
 17 42  1  0
 17 43  1  0
 18 44  1  0
 18 45  1  0
 19 46  1  0
 19 47  1  0
 21 48  1  0
 21 49  1  0
 22 50  1  0
 22 51  1  0
 23 52  1  0
 24 53  1  0
 26 54  1  0
 26 55  1  0
 28 56  1  0
 29 57  1  0
 30 58  1  0
 31 59  1  0
 33 60  1  0
 33 61  1  0
M  END
>  <UniqueID>  (14) 
14

>  <SMILES>  (14) 
O=C(Nc1ccc(C(=O)N2CCN(C(=O)[C@@H]3CCCO3)CC2)cc1)N1Cc2ccccc2C1

>  <Energy>  (14) 
85.16936077916908

>  <Genealogy>  (14) 
O=C(Nc1ccc(C(=O)N2CCN(C(=O)[C@@H]3CCCO3)CC2)cc1)N1Cc2ccccc2C1 (chirality)
O=C(Nc1ccc(C(=O)N2CCN(C(=O)[C@@H]3CCCO3)CC2)cc1)N1Cc2ccccc2C1 (3D coordinates assigned)
O=C(Nc1ccc(C(=O)N2CCN(C(=O)[C@@H]3CCCO3)CC2)cc1)N1Cc2ccccc2C1 (nonaromatic ring conformer: 85.16936077916908 kcal/mol)

>  <smiles>  (14) 
O=C(Nc1ccc(C(=O)N2CCN(C(=O)C3CCCO3)CC2)cc1)N1Cc2ccccc2C1

>  <score_type>  (14) 
oracle

>  <origin>  (14) 
adg

>  <m_score__min__energy>  (14) 
-8.5800000000000001

>  <m_primary>  (14) 
energy

$$$$
14:0
     RDKit          3D

 57 61  0  0  1  0  0  0  0  0999 V2000
   56.1290   21.4870   42.7720 O   0  0  0  0  0  0  0  0  0  0  0  0
   56.6290   22.1300   43.7530 C   0  0  0  0  0  0  0  0  0  0  0  0
   58.0110   21.9560   43.9650 N   0  0  0  0  0  0  0  0  0  0  0  0
   58.6500   22.8730   44.6520 C   0  0  0  0  0  0  0  0  0  0  0  0
   58.1130   24.0970   45.0860 C   0  0  0  0  0  0  0  0  0  0  0  0
   59.0820   24.7940   45.7930 C   0  0  0  0  0  0  0  0  0  0  0  0
   58.8880   26.0320   46.4730 C   0  0  0  0  0  0  0  0  0  0  0  0
   57.9800   25.9870   47.4170 O   0  0  0  0  0  0  0  0  0  0  0  0
   59.4810   27.3070   46.3500 N   0  0  0  0  0  0  0  0  0  0  0  0
   58.9590   28.2540   47.3590 C   0  0  0  0  0  0  0  0  0  0  0  0
   59.7460   29.4690   47.4700 C   0  0  0  0  0  0  0  0  0  0  0  0
   60.1410   30.1050   46.1050 C   0  0  0  0  0  0  0  0  0  0  0  0
   59.1690   31.1750   45.8610 N   0  0  0  0  0  0  0  0  0  0  0  0
   57.8630   30.8710   45.3240 C   0  0  0  0  0  0  0  0  0  0  0  0
   57.3830   29.7230   45.3170 O   0  0  0  0  0  0  0  0  0  0  0  0
   57.0390   31.9740   44.7450 C   0  0  0  0  0  0  0  0  0  0  0  0
   57.0280   33.1750   45.6450 C   0  0  0  0  0  0  0  0  0  0  0  0
   58.3840   33.5000   46.1590 C   0  0  0  0  0  0  0  0  0  0  0  0
   58.5930   34.8010   46.5590 C   0  0  0  0  0  0  0  0  0  0  0  0
   59.7910   35.2330   47.0850 C   0  0  0  0  0  0  0  0  0  0  0  0
   60.7840   34.2660   47.1890 C   0  0  0  0  0  0  0  0  0  0  0  0
   60.5730   32.9500   46.7830 C   0  0  0  0  0  0  0  0  0  0  0  0
   59.3860   32.5260   46.2640 C   0  0  0  0  0  0  0  0  0  0  0  0
   60.3470   29.1490   45.0280 C   0  0  0  0  0  0  0  0  0  0  0  0
   60.4760   27.7130   45.4140 C   0  0  0  0  0  0  0  0  0  0  0  0
   60.1650   23.9820   45.7590 N   0  0  0  0  0  0  0  0  0  0  0  0
   59.9080   22.8750   45.0980 N   0  0  0  0  0  0  0  0  0  0  0  0
   55.7240   22.9490   44.5140 C   0  0  0  0  0  0  0  0  0  0  0  0
   54.9540   22.4390   45.5600 C   0  0  0  0  0  0  0  0  0  0  0  0
   54.1800   23.4460   46.1110 C   0  0  0  0  0  0  0  0  0  0  0  0
   54.4810   24.5720   45.3950 C   0  0  0  0  0  0  0  0  0  0  0  0
   53.9280   25.8140   45.6120 O   0  0  0  0  0  0  0  0  0  0  0  0
   55.4090   24.2480   44.4440 N   0  0  0  0  0  0  0  0  0  0  0  0
   57.0876   24.4467   44.8955 H   0  0  0  0  0  0  0  0  0  0  0  0
   57.9308   28.5286   47.0807 H   0  0  0  0  0  0  0  0  0  0  0  0
   59.0041   27.7473   48.3343 H   0  0  0  0  0  0  0  0  0  0  0  0
   59.1608   30.2076   48.0374 H   0  0  0  0  0  0  0  0  0  0  0  0
   60.6851   29.1907   47.9707 H   0  0  0  0  0  0  0  0  0  0  0  0
   61.1497   30.5420   46.1440 H   0  0  0  0  0  0  0  0  0  0  0  0
   57.4585   32.2608   43.7694 H   0  0  0  0  0  0  0  0  0  0  0  0
   56.0056   31.6140   44.6329 H   0  0  0  0  0  0  0  0  0  0  0  0
   56.6464   34.0383   45.0801 H   0  0  0  0  0  0  0  0  0  0  0  0
   56.3843   32.9466   46.5073 H   0  0  0  0  0  0  0  0  0  0  0  0
   57.7708   35.5242   46.4544 H   0  0  0  0  0  0  0  0  0  0  0  0
   59.9510   36.2742   47.4017 H   0  0  0  0  0  0  0  0  0  0  0  0
   61.7634   34.5475   47.6032 H   0  0  0  0  0  0  0  0  0  0  0  0
   61.3950   32.2262   46.8851 H   0  0  0  0  0  0  0  0  0  0  0  0
   59.4917   29.2328   44.3414 H   0  0  0  0  0  0  0  0  0  0  0  0
   61.3200   29.4163   44.5901 H   0  0  0  0  0  0  0  0  0  0  0  0
   60.3819   27.0948   44.5090 H   0  0  0  0  0  0  0  0  0  0  0  0
   61.4577   27.5830   45.8930 H   0  0  0  0  0  0  0  0  0  0  0  0
   61.0620   24.2840   46.2370 H   0  0  0  0  0  0  0  0  0  0  0  0
   60.6250   22.1300   44.9620 H   0  0  0  0  0  0  0  0  0  0  0  0
   54.9609   21.3919   45.8969 H   0  0  0  0  0  0  0  0  0  0  0  0
   53.4720   23.3589   46.9483 H   0  0  0  0  0  0  0  0  0  0  0  0
   54.0300   26.3330   46.4800 H   0  0  0  0  0  0  0  0  0  0  0  0
   55.8420   24.9060   43.7330 H   0  0  0  0  0  0  0  0  0  0  0  0
  1  2  2  0
  2  3  1  0
  3  4  2  0
  4  5  1  0
  5  6  2  0
  6  7  1  0
  7  8  2  0
  7  9  1  0
  9 10  1  0
 10 11  1  0
 11 12  1  0
 12 13  1  0
 13 14  1  0
 14 15  2  0
 14 16  1  0
 16 17  1  0
 17 18  1  0
 18 19  2  0
 19 20  1  0
 20 21  2  0
 21 22  1  0
 22 23  2  0
 12 24  1  0
 24 25  1  0
  6 26  1  0
 26 27  1  0
  2 28  1  0
 28 29  2  0
 29 30  1  0
 30 31  2  0
 31 32  1  0
 31 33  1  0
 27  4  1  0
 33 28  1  0
 25  9  1  0
 23 13  1  0
 23 18  1  0
  5 34  1  0
 10 35  1  0
 10 36  1  0
 11 37  1  0
 11 38  1  0
 12 39  1  0
 16 40  1  0
 16 41  1  0
 17 42  1  0
 17 43  1  0
 19 44  1  0
 20 45  1  0
 21 46  1  0
 22 47  1  0
 24 48  1  0
 24 49  1  0
 25 50  1  0
 25 51  1  0
 26 52  1  0
 27 53  1  0
 29 54  1  0
 30 55  1  0
 32 56  1  0
 33 57  1  0
M  END
>  <smiles>  (15) 
O=C(N=c1cc(C(=O)N2CCC(N3C(=O)CCc4ccccc43)CC2)[nH][nH]1)c1ccc(O)[nH]1

>  <score_type>  (15) 
oracle

>  <origin>  (15) 
adg

>  <m_score__min__energy>  (15) 
-10.539999999999999

>  <m_primary>  (15) 
energy

$$$$
15:0
     RDKit          3D

 51 54  0  0  0  0  0  0  0  0999 V2000
   60.5940   28.7010   44.8850 C   0  0  0  0  0  0  0  0  0  0  0  0
   59.2880   28.0420   44.4470 C   0  0  0  0  0  0  0  0  0  0  0  0
   59.0730   26.7800   45.1870 N   0  0  0  0  0  0  0  0  0  0  0  0
   60.2230   26.4190   46.0570 C   0  0  0  0  0  0  0  0  0  0  0  0
   60.0730   26.8770   47.5230 C   0  0  0  0  0  0  0  0  0  0  0  0
   59.1170   27.9830   47.6370 N   0  0  0  0  0  0  0  0  0  0  0  0
   59.4380   29.1480   48.4180 C   0  0  0  0  0  0  0  0  0  0  0  0
   58.6850   29.4630   49.5570 C   0  0  0  0  0  0  0  0  0  0  0  0
   58.9910   30.5980   50.3100 C   0  0  0  0  0  0  0  0  0  0  0  0
   60.0370   31.4380   49.9200 C   0  0  0  0  0  0  0  0  0  0  0  0
   60.7900   31.1490   48.7720 C   0  0  0  0  0  0  0  0  0  0  0  0
   61.8480   32.0890   48.3230 C   0  0  0  0  0  0  0  0  0  0  0  0
   62.9450   32.1200   48.9390 O   0  0  0  0  0  0  0  0  0  0  0  0
   61.6780   32.9540   47.1890 N   0  0  0  0  0  0  0  0  0  0  0  0
   60.4430   33.2760   46.5290 C   0  0  0  0  0  0  0  0  0  0  0  0
   60.0240   34.6110   46.4980 C   0  0  0  0  0  0  0  0  0  0  0  0
   58.8350   34.9610   45.8550 C   0  0  0  0  0  0  0  0  0  0  0  0
   58.0590   33.9810   45.2320 C   0  0  0  0  0  0  0  0  0  0  0  0
   58.4580   32.6330   45.2580 C   0  0  0  0  0  0  0  0  0  0  0  0
   57.6460   31.6030   44.5700 C   0  0  0  0  0  0  0  0  0  0  0  0
   57.7180   31.3480   43.1960 C   0  0  0  0  0  0  0  0  0  0  0  0
   56.6260   30.1180   42.8310 S   0  0  0  0  0  0  0  0  0  0  0  0
   56.1120   29.9750   44.4190 C   0  0  0  0  0  0  0  0  0  0  0  0
   55.2460   29.1540   44.8170 O   0  0  0  0  0  0  0  0  0  0  0  0
   56.7440   30.8360   45.2430 N   0  0  0  0  0  0  0  0  0  0  0  0
   59.6340   32.2860   45.9460 C   0  0  0  0  0  0  0  0  0  0  0  0
   60.5100   29.9760   48.0500 C   0  0  0  0  0  0  0  0  0  0  0  0
   57.7850   27.8440   47.0370 C   0  0  0  0  0  0  0  0  0  0  0  0
   57.7950   26.7760   45.9320 C   0  0  0  0  0  0  0  0  0  0  0  0
   60.6420   28.7252   45.9837 H   0  0  0  0  0  0  0  0  0  0  0  0
   61.4450   28.1244   44.4934 H   0  0  0  0  0  0  0  0  0  0  0  0
   60.6358   29.7281   44.4934 H   0  0  0  0  0  0  0  0  0  0  0  0
   58.4512   28.7271   44.6482 H   0  0  0  0  0  0  0  0  0  0  0  0
   59.3444   27.8193   43.3713 H   0  0  0  0  0  0  0  0  0  0  0  0
   60.3336   25.3246   46.0467 H   0  0  0  0  0  0  0  0  0  0  0  0
   61.1031   26.9392   45.6510 H   0  0  0  0  0  0  0  0  0  0  0  0
   59.7168   26.0308   48.1288 H   0  0  0  0  0  0  0  0  0  0  0  0
   61.0530   27.2248   47.8816 H   0  0  0  0  0  0  0  0  0  0  0  0
   57.8499   28.8137   49.8588 H   0  0  0  0  0  0  0  0  0  0  0  0
   58.4072   30.8315   51.2126 H   0  0  0  0  0  0  0  0  0  0  0  0
   60.2717   32.3317   50.5168 H   0  0  0  0  0  0  0  0  0  0  0  0
   60.6339   35.3878   46.9822 H   0  0  0  0  0  0  0  0  0  0  0  0
   58.5086   36.0113   45.8391 H   0  0  0  0  0  0  0  0  0  0  0  0
   57.1294   34.2657   44.7175 H   0  0  0  0  0  0  0  0  0  0  0  0
   58.3742   31.8619   42.4782 H   0  0  0  0  0  0  0  0  0  0  0  0
   59.9239   31.2281   46.0288 H   0  0  0  0  0  0  0  0  0  0  0  0
   61.1371   29.7042   47.1881 H   0  0  0  0  0  0  0  0  0  0  0  0
   57.0668   27.5501   47.8166 H   0  0  0  0  0  0  0  0  0  0  0  0
   57.4946   28.8081   46.5940 H   0  0  0  0  0  0  0  0  0  0  0  0
   57.6511   25.7863   46.3899 H   0  0  0  0  0  0  0  0  0  0  0  0
   56.9826   27.0020   45.2257 H   0  0  0  0  0  0  0  0  0  0  0  0
  1  2  1  0
  2  3  1  0
  3  4  1  0
  4  5  1  0
  5  6  1  0
  6  7  1  0
  7  8  2  0
  8  9  1  0
  9 10  2  0
 10 11  1  0
 11 12  1  0
 12 13  2  0
 12 14  1  0
 14 15  1  0
 15 16  2  0
 16 17  1  0
 17 18  2  0
 18 19  1  0
 19 20  1  0
 20 21  2  0
 21 22  1  0
 22 23  1  0
 23 24  2  0
 23 25  1  0
 19 26  2  0
 11 27  2  0
  6 28  1  0
 28 29  1  0
 29  3  1  0
 27  7  1  0
 26 15  1  0
 25 20  1  0
  1 30  1  0
  1 31  1  0
  1 32  1  0
  2 33  1  0
  2 34  1  0
  4 35  1  0
  4 36  1  0
  5 37  1  0
  5 38  1  0
  8 39  1  0
  9 40  1  0
 10 41  1  0
 16 42  1  0
 17 43  1  0
 18 44  1  0
 21 45  1  0
 26 46  1  0
 27 47  1  0
 28 48  1  0
 28 49  1  0
 29 50  1  0
 29 51  1  0
M  CHG  2  14  -1  25  -1
M  END
>  <UniqueID>  (16) 
15

>  <SMILES>  (16) 
CCN1CCN(c2cccc(C(=O)[N-]c3cccc(-c4csc(=O)[n-]4)c3)c2)CC1

>  <Energy>  (16) 
102.39097574589168

>  <Genealogy>  (16) 
CCN1CCN(c2cccc(C(=O)[N-]c3cccc(-c4csc(=O)[n-]4)c3)c2)CC1 (protonated)
CCN1CCN(c2cccc(C(=O)[N-]c3cccc(-c4csc(=O)[n-]4)c3)c2)CC1 (3D coordinates assigned)
CCN1CCN(c2cccc(C(=O)[N-]c3cccc(-c4csc(=O)[n-]4)c3)c2)CC1 (nonaromatic ring conformer: 102.39097574589168 kcal/mol)

>  <smiles>  (16) 
CCN1CCN(c2cccc(C(=O)Nc3cccc(-c4csc(=O)[nH]4)c3)c2)CC1

>  <score_type>  (16) 
oracle

>  <origin>  (16) 
adg

>  <m_score__min__energy>  (16) 
-12.880000000000001

>  <m_primary>  (16) 
energy

$$$$
16:0
     RDKit          3D

 58 60  0  0  0  0  0  0  0  0999 V2000
   55.1660   29.3240   44.8680 N   0  0  0  0  0  0  0  0  0  0  0  0
   56.5820   29.6550   43.9370 S   0  0  0  0  0  0  0  0  0  0  0  0
   57.2870   28.3670   43.6140 O   0  0  0  0  0  0  0  0  0  0  0  0
   56.1860   30.3240   42.6510 O   0  0  0  0  0  0  0  0  0  0  0  0
   57.6600   30.7010   44.8570 C   0  0  0  0  0  0  0  0  0  0  0  0
   57.4720   32.0900   44.8610 C   0  0  0  0  0  0  0  0  0  0  0  0
   58.3270   32.9130   45.6010 C   0  0  0  0  0  0  0  0  0  0  0  0
   59.3720   32.3540   46.3540 C   0  0  0  0  0  0  0  0  0  0  0  0
   60.3050   33.2490   47.1230 C   0  0  0  0  0  0  0  0  0  0  0  0
   60.2700   32.9100   48.5440 N   0  0  0  0  0  0  0  0  0  0  0  0
   59.6170   33.7440   49.5160 C   0  0  0  0  0  0  0  0  0  0  0  0
   59.2370   34.9000   49.1820 O   0  0  0  0  0  0  0  0  0  0  0  0
   59.3970   33.2830   50.8660 N   0  0  0  0  0  0  0  0  0  0  0  0
   58.2300   32.4600   51.2050 C   0  0  0  0  0  0  0  0  0  0  0  0
   58.5420   30.9730   50.9940 C   0  0  0  0  0  0  0  0  0  0  0  0
   59.9290   30.7790   50.4440 C   0  0  0  0  0  0  0  0  0  0  0  0
   60.0520   30.2250   49.3170 O   0  0  0  0  0  0  0  0  0  0  0  0
   61.1060   31.2000   51.1710 N   0  0  0  0  0  0  0  0  0  0  0  0
   62.4330   30.7470   50.7330 C   0  0  0  0  0  0  0  0  0  0  0  0
   63.5280   31.4330   51.5660 C   0  0  0  0  0  0  0  0  0  0  0  0
   64.3030   32.4450   50.8160 N   0  0  0  0  0  0  0  0  0  0  0  0
   64.7160   32.0330   49.4550 C   0  0  0  0  0  0  0  0  0  0  0  0
   64.0600   32.8840   48.3590 C   0  0  0  0  0  0  0  0  0  0  0  0
   62.7560   33.2480   48.7500 O   0  0  0  0  0  0  0  0  0  0  0  0
   62.8230   34.2130   49.7820 C   0  0  0  0  0  0  0  0  0  0  0  0
   63.7930   33.8280   50.9260 C   0  0  0  0  0  0  0  0  0  0  0  0
   61.0070   32.1170   52.3180 C   0  0  0  0  0  0  0  0  0  0  0  0
   60.4370   33.4700   51.8860 C   0  0  0  0  0  0  0  0  0  0  0  0
   59.5560   30.9630   46.3500 C   0  0  0  0  0  0  0  0  0  0  0  0
   58.7010   30.1410   45.6080 C   0  0  0  0  0  0  0  0  0  0  0  0
   54.4150   29.0510   44.1950 H   0  0  0  0  0  0  0  0  0  0  0  0
   56.6498   32.5339   44.2806 H   0  0  0  0  0  0  0  0  0  0  0  0
   58.1801   34.0031   45.5931 H   0  0  0  0  0  0  0  0  0  0  0  0
   61.3291   33.1189   46.7432 H   0  0  0  0  0  0  0  0  0  0  0  0
   59.9877   34.2944   46.9947 H   0  0  0  0  0  0  0  0  0  0  0  0
   60.7720   32.0470   48.8490 H   0  0  0  0  0  0  0  0  0  0  0  0
   57.9624   32.6278   52.2587 H   0  0  0  0  0  0  0  0  0  0  0  0
   57.3922   32.7441   50.5512 H   0  0  0  0  0  0  0  0  0  0  0  0
   58.4623   30.4496   51.9582 H   0  0  0  0  0  0  0  0  0  0  0  0
   57.8209   30.5659   50.2699 H   0  0  0  0  0  0  0  0  0  0  0  0
   62.5064   29.6572   50.8629 H   0  0  0  0  0  0  0  0  0  0  0  0
   62.5705   31.0082   49.6734 H   0  0  0  0  0  0  0  0  0  0  0  0
   63.0513   31.9279   52.4250 H   0  0  0  0  0  0  0  0  0  0  0  0
   64.2364   30.6489   51.8715 H   0  0  0  0  0  0  0  0  0  0  0  0
   65.8084   32.1326   49.3725 H   0  0  0  0  0  0  0  0  0  0  0  0
   64.3926   30.9919   49.3083 H   0  0  0  0  0  0  0  0  0  0  0  0
   64.6585   33.7923   48.1953 H   0  0  0  0  0  0  0  0  0  0  0  0
   64.0090   32.2994   47.4286 H   0  0  0  0  0  0  0  0  0  0  0  0
   63.1589   35.1656   49.3465 H   0  0  0  0  0  0  0  0  0  0  0  0
   61.8174   34.2867   50.2217 H   0  0  0  0  0  0  0  0  0  0  0  0
   64.6488   34.5189   50.9062 H   0  0  0  0  0  0  0  0  0  0  0  0
   63.2299   33.8949   51.8686 H   0  0  0  0  0  0  0  0  0  0  0  0
   60.3466   31.6737   53.0779 H   0  0  0  0  0  0  0  0  0  0  0  0
   62.0144   32.2749   52.7305 H   0  0  0  0  0  0  0  0  0  0  0  0
   60.0011   33.9759   52.7601 H   0  0  0  0  0  0  0  0  0  0  0  0
   61.2478   34.0809   51.4624 H   0  0  0  0  0  0  0  0  0  0  0  0
   60.3757   30.5171   46.9325 H   0  0  0  0  0  0  0  0  0  0  0  0
   58.8470   29.0507   45.6145 H   0  0  0  0  0  0  0  0  0  0  0  0
  1  2  1  0
  2  3  2  0
  2  4  2  0
  2  5  1  0
  5  6  2  0
  6  7  1  0
  7  8  2  0
  8  9  1  0
  9 10  1  0
 10 11  1  0
 11 12  2  0
 11 13  1  0
 13 14  1  0
 14 15  1  0
 15 16  1  0
 16 17  2  0
 16 18  1  0
 18 19  1  0
 19 20  1  0
 20 21  1  0
 21 22  1  0
 22 23  1  0
 23 24  1  0
 24 25  1  0
 25 26  1  0
 18 27  1  0
 27 28  1  0
  8 29  1  0
 29 30  2  0
 30  5  1  0
 28 13  1  0
 26 21  1  0
  1 31  1  0
  6 32  1  0
  7 33  1  0
  9 34  1  0
  9 35  1  0
 10 36  1  0
 14 37  1  0
 14 38  1  0
 15 39  1  0
 15 40  1  0
 19 41  1  0
 19 42  1  0
 20 43  1  0
 20 44  1  0
 22 45  1  0
 22 46  1  0
 23 47  1  0
 23 48  1  0
 25 49  1  0
 25 50  1  0
 26 51  1  0
 26 52  1  0
 27 53  1  0
 27 54  1  0
 28 55  1  0
 28 56  1  0
 29 57  1  0
 30 58  1  0
M  CHG  1   1  -1
M  END
>  <UniqueID>  (17) 
16

>  <SMILES>  (17) 
[NH-]S(=O)(=O)c1ccc(CNC(=O)N2CCC(=O)N(CCN3CCOCC3)CC2)cc1

>  <Energy>  (17) 
68.6007763346063

>  <Genealogy>  (17) 
[NH-]S(=O)(=O)c1ccc(CNC(=O)N2CCC(=O)N(CCN3CCOCC3)CC2)cc1 (protonated)
[NH-]S(=O)(=O)c1ccc(CNC(=O)N2CCC(=O)N(CCN3CCOCC3)CC2)cc1 (3D coordinates assigned)
[NH-]S(=O)(=O)c1ccc(CNC(=O)N2CCC(=O)N(CCN3CCOCC3)CC2)cc1 (nonaromatic ring conformer: 68.6007763346063 kcal/mol)

>  <smiles>  (17) 
NS(=O)(=O)c1ccc(CNC(=O)N2CCC(=O)N(CCN3CCOCC3)CC2)cc1

>  <score_type>  (17) 
oracle

>  <origin>  (17) 
adg

>  <m_score__min__energy>  (17) 
-8.25

>  <m_primary>  (17) 
energy

$$$$
17:0
     RDKit          3D

 52 55  0  0  0  0  0  0  0  0999 V2000
   58.9465   26.8028   47.5252 H   0  0  0  0  0  0  0  0  0  0  0  0
   58.9770   27.4510   46.6370 C   0  0  0  0  0  0  0  0  0  0  0  0
   57.8820   28.1680   46.2750 N   0  0  0  0  0  0  0  0  0  0  0  0
   57.8970   28.9870   45.1890 C   0  0  0  0  0  0  0  0  0  0  0  0
   56.6830   29.7530   44.8430 C   0  0  0  0  0  0  0  0  0  0  0  0
   55.5670   29.1730   44.9080 O   0  0  0  0  0  0  0  0  0  0  0  0
   56.7160   31.1290   44.4250 N   0  0  0  0  0  0  0  0  0  0  0  0
   57.3460   32.1000   45.0170 C   0  0  0  0  0  0  0  0  0  0  0  0
   57.7260   32.0830   46.3120 N   0  0  0  0  0  0  0  0  0  0  0  0
   58.3140   33.2540   46.6810 C   0  0  0  0  0  0  0  0  0  0  0  0
   58.8930   33.4660   48.0490 C   0  0  0  0  0  0  0  0  0  0  0  0
   59.9662   33.6857   47.9488 H   0  0  0  0  0  0  0  0  0  0  0  0
   58.3537   34.3028   48.5168 H   0  0  0  0  0  0  0  0  0  0  0  0
   58.7260   32.2560   48.9350 C   0  0  0  0  0  0  0  0  0  0  0  0
   57.8870   32.3290   49.8750 O   0  0  0  0  0  0  0  0  0  0  0  0
   59.5000   31.0420   48.7660 N   0  0  0  0  0  0  0  0  0  0  0  0
   59.9540   30.7060   47.4000 C   0  0  0  0  0  0  0  0  0  0  0  0
   59.8411   31.5999   46.7690 H   0  0  0  0  0  0  0  0  0  0  0  0
   59.3347   29.8634   47.0587 H   0  0  0  0  0  0  0  0  0  0  0  0
   61.4230   30.2390   47.3200 C   0  0  0  0  0  0  0  0  0  0  0  0
   61.7090   30.1727   46.2599 H   0  0  0  0  0  0  0  0  0  0  0  0
   61.4794   29.2670   47.8318 H   0  0  0  0  0  0  0  0  0  0  0  0
   62.3770   31.1470   48.0070 N   0  0  0  0  0  0  0  0  0  0  0  0
   62.2990   32.5170   47.4430 C   0  0  0  0  0  0  0  0  0  0  0  0
   61.4931   32.3662   46.7097 H   0  0  0  0  0  0  0  0  0  0  0  0
   62.2020   33.6150   48.5090 C   0  0  0  0  0  0  0  0  0  0  0  0
   61.3376   34.2840   48.3853 H   0  0  0  0  0  0  0  0  0  0  0  0
   62.0675   33.3485   49.5677 H   0  0  0  0  0  0  0  0  0  0  0  0
   63.5160   34.2080   48.0310 C   0  0  0  0  0  0  0  0  0  0  0  0
   63.4203   35.2085   47.5840 H   0  0  0  0  0  0  0  0  0  0  0  0
   64.3254   34.4142   48.7468 H   0  0  0  0  0  0  0  0  0  0  0  0
   63.6570   33.0860   47.0150 C   0  0  0  0  0  0  0  0  0  0  0  0
   63.6897   33.4291   45.9704 H   0  0  0  0  0  0  0  0  0  0  0  0
   64.5515   32.4458   47.0170 H   0  0  0  0  0  0  0  0  0  0  0  0
   62.2380   31.1580   49.4870 C   0  0  0  0  0  0  0  0  0  0  0  0
   61.7781   32.1140   49.7777 H   0  0  0  0  0  0  0  0  0  0  0  0
   63.2524   31.0158   49.8880 H   0  0  0  0  0  0  0  0  0  0  0  0
   61.3830   30.0190   50.0790 C   0  0  0  0  0  0  0  0  0  0  0  0
   61.5977   29.9585   51.1561 H   0  0  0  0  0  0  0  0  0  0  0  0
   61.6590   29.1122   49.5208 H   0  0  0  0  0  0  0  0  0  0  0  0
   59.8570   30.1760   49.9060 C   0  0  0  0  0  0  0  0  0  0  0  0
   59.4418   30.6150   50.8252 H   0  0  0  0  0  0  0  0  0  0  0  0
   59.4402   29.1774   49.7083 H   0  0  0  0  0  0  0  0  0  0  0  0
   58.4130   34.2030   45.6670 C   0  0  0  0  0  0  0  0  0  0  0  0
   58.8638   35.2021   45.7598 H   0  0  0  0  0  0  0  0  0  0  0  0
   57.7230   33.5560   44.2740 S   0  0  0  0  0  0  0  0  0  0  0  0
   59.0600   29.0550   44.4060 C   0  0  0  0  0  0  0  0  0  0  0  0
   59.0842   29.6836   43.5036 H   0  0  0  0  0  0  0  0  0  0  0  0
   60.1570   28.3380   44.7710 N   0  0  0  0  0  0  0  0  0  0  0  0
   61.0250   28.3980   44.1940 H   0  0  0  0  0  0  0  0  0  0  0  0
   60.1400   27.5430   45.8740 C   0  0  0  0  0  0  0  0  0  0  0  0
   61.0377   26.9764   46.1622 H   0  0  0  0  0  0  0  0  0  0  0  0
  1  2  1  0
  2  3  2  0
  3  4  1  0
  4  5  1  0
  5  6  2  0
  5  7  1  0
  7  8  2  0
  8  9  1  0
  9 10  1  0
 10 11  1  0
 11 12  1  0
 11 13  1  0
 11 14  1  0
 14 15  2  0
 14 16  1  0
 16 17  1  0
 17 18  1  0
 17 19  1  0
 17 20  1  0
 20 21  1  0
 20 22  1  0
 20 23  1  0
 23 24  1  0
 24 25  1  0
 24 26  1  0
 26 27  1  0
 26 28  1  0
 26 29  1  0
 29 30  1  0
 29 31  1  0
 29 32  1  0
 32 33  1  0
 32 34  1  0
 23 35  1  0
 35 36  1  0
 35 37  1  0
 35 38  1  0
 38 39  1  0
 38 40  1  0
 38 41  1  0
 41 42  1  0
 41 43  1  0
 10 44  2  0
 44 45  1  0
 44 46  1  0
  4 47  2  0
 47 48  1  0
 47 49  1  0
 49 50  1  0
 49 51  2  0
 51 52  1  0
 51  2  1  0
 46  8  1  0
 41 16  1  0
 32 24  1  0
M  CHG  2   9  -1  49   1
M  END
>  <UniqueID>  (18) 
17

>  <SMILES>  (18) 
O=C(/N=c1\[n-]c(CC(=O)N2CCCN(C3CCC3)CC2)cs1)c1c[nH+]ccn1

>  <Energy>  (18) 
161.1373992972483

>  <Genealogy>  (18) 
O=C(N=c1[n-]c(CC(=O)N2CCCN(C3CCC3)CC2)cs1)c1c[nH+]ccn1 (protonated)
O=C(/N=c1\[n-]c(CC(=O)N2CCCN(C3CCC3)CC2)cs1)c1c[nH+]ccn1 (cis-trans isomerization)
O=C(/N=c1\[n-]c(CC(=O)N2CCCN(C3CCC3)CC2)cs1)c1c[nH+]ccn1 (3D coordinates assigned)
O=C(/N=c1\[n-]c(CC(=O)N2CCCN(C3CCC3)CC2)cs1)c1c[nH+]ccn1 (nonaromatic ring conformer: 161.1373992972483 kcal/mol)

>  <smiles>  (18) 
O=C(N=c1[nH]c(CC(=O)N2CCCN(C3CCC3)CC2)cs1)c1cnccn1

>  <score_type>  (18) 
oracle

>  <origin>  (18) 
adg

>  <m_score__min__energy>  (18) 
-7.7300000000000004

>  <m_primary>  (18) 
energy

$$$$
18:0
     RDKit          3D

 25 27  0  0  0  0  0  0  0  0999 V2000
   53.6560   25.9650   46.4120 H   0  0  0  0  0  0  0  0  0  0  0  0
   54.5220   26.2860   45.9940 O   0  0  0  0  0  0  0  0  0  0  0  0
   55.7350   25.7130   46.3170 N   0  0  0  0  0  0  0  0  0  0  0  0
   56.8570   26.2090   45.9000 C   0  0  0  0  0  0  0  0  0  0  0  0
   57.6967   25.5371   45.6689 H   0  0  0  0  0  0  0  0  0  0  0  0
   57.0190   27.6570   45.7330 C   0  0  0  0  0  0  0  0  0  0  0  0
   56.1200   28.4250   45.1600 O   0  0  0  0  0  0  0  0  0  0  0  0
   56.5590   29.6640   45.1660 C   0  0  0  0  0  0  0  0  0  0  0  0
   56.0214   30.5300   44.7524 H   0  0  0  0  0  0  0  0  0  0  0  0
   57.8020   29.7110   45.7730 C   0  0  0  0  0  0  0  0  0  0  0  0
   58.6420   30.9110   45.9710 C   0  0  0  0  0  0  0  0  0  0  0  0
   59.6790   30.9550   46.8130 C   0  0  0  0  0  0  0  0  0  0  0  0
   59.9741   30.0941   47.4308 H   0  0  0  0  0  0  0  0  0  0  0  0
   60.5610   32.5310   46.8630 S   0  0  0  0  0  0  0  0  0  0  0  0
   59.2560   33.1290   45.8120 C   0  0  0  0  0  0  0  0  0  0  0  0
   58.7190   34.2930   45.9200 N   0  0  0  0  0  0  0  0  0  0  0  0
   57.4080   34.2650   45.2830 C   0  0  0  0  0  0  0  0  0  0  0  0
   56.6438   34.6897   45.9505 H   0  0  0  0  0  0  0  0  0  0  0  0
   57.3828   34.8613   44.3590 H   0  0  0  0  0  0  0  0  0  0  0  0
   57.1300   32.7750   45.0200 C   0  0  0  0  0  0  0  0  0  0  0  0
   56.3489   32.3950   45.6949 H   0  0  0  0  0  0  0  0  0  0  0  0
   56.7634   32.5792   44.0015 H   0  0  0  0  0  0  0  0  0  0  0  0
   58.4080   32.1420   45.2950 N   0  0  0  0  0  0  0  0  0  0  0  0
   58.1040   28.4120   46.1360 C   0  0  0  0  0  0  0  0  0  0  0  0
   59.0148   28.0549   46.6390 H   0  0  0  0  0  0  0  0  0  0  0  0
  1  2  1  0
  2  3  1  0
  3  4  2  0
  4  5  1  0
  4  6  1  0
  6  7  1  0
  7  8  1  0
  8  9  1  0
  8 10  2  0
 10 11  1  0
 11 12  2  0
 12 13  1  0
 12 14  1  0
 14 15  1  0
 15 16  2  0
 16 17  1  0
 17 18  1  0
 17 19  1  0
 17 20  1  0
 20 21  1  0
 20 22  1  0
 20 23  1  0
 10 24  1  0
 24 25  1  0
 24  6  2  0
 23 11  1  0
 23 15  1  0
M  END
>  <UniqueID>  (19) 
18

>  <SMILES>  (19) 
O/N=C/c1cc(C2=CSC3=NCCN23)co1

>  <Energy>  (19) 
91.48455661741761

>  <Genealogy>  (19) 
O/N=C/c1cc(C2=CSC3=NCCN23)co1 (cis-trans isomerization)
O/N=C/c1cc(C2=CSC3=NCCN23)co1 (3D coordinates assigned)
O/N=C/c1cc(C2=CSC3=NCCN23)co1 (nonaromatic ring conformer: 91.48455661741761 kcal/mol)

>  <smiles>  (19) 
ON=Cc1cc(C2=CSC3=NCCN23)co1

>  <score_type>  (19) 
oracle

>  <origin>  (19) 
adg

>  <m_score__min__energy>  (19) 
-7.4199999999999999

>  <m_primary>  (19) 
energy

$$$$
19:0
     RDKit          3D

 59 62  0  0  0  0  0  0  0  0999 V2000
   54.7490   30.2670   51.9000 C   0  0  0  0  0  0  0  0  0  0  0  0
   56.1980   30.1380   52.0000 N   0  0  0  0  0  0  0  0  0  0  0  0
   57.0480   30.9240   52.8470 C   0  0  0  0  0  0  0  0  0  0  0  0
   56.9970   30.7370   54.0950 O   0  0  0  0  0  0  0  0  0  0  0  0
   58.0040   31.9180   52.3100 C   0  0  0  0  0  0  0  0  0  0  0  0
   58.3210   31.9290   50.9380 C   0  0  0  0  0  0  0  0  0  0  0  0
   59.2120   32.8820   50.4140 C   0  0  0  0  0  0  0  0  0  0  0  0
   59.5420   32.8830   48.9700 C   0  0  0  0  0  0  0  0  0  0  0  0
   60.0030   33.9280   48.4290 O   0  0  0  0  0  0  0  0  0  0  0  0
   59.3510   31.7070   48.1680 N   0  0  0  0  0  0  0  0  0  0  0  0
   58.4830   31.7670   46.9850 C   0  0  0  0  0  0  0  0  0  0  0  0
   59.0320   30.8690   45.8700 C   0  0  0  0  0  0  0  0  0  0  0  0
   59.3090   29.4130   46.3390 C   0  0  0  0  0  0  0  0  0  0  0  0
   58.3410   28.4660   45.7470 N   0  0  0  0  0  0  0  0  0  0  0  0
   57.4760   27.6460   46.6050 C   0  0  0  0  0  0  0  0  0  0  0  0
   57.2010   26.3160   45.9480 C   0  0  0  0  0  0  0  0  0  0  0  0
   58.2690   25.4650   45.6090 C   0  0  0  0  0  0  0  0  0  0  0  0
   58.0250   24.2070   45.0520 C   0  0  0  0  0  0  0  0  0  0  0  0
   56.7120   23.7830   44.8280 C   0  0  0  0  0  0  0  0  0  0  0  0
   55.6410   24.6240   45.1500 C   0  0  0  0  0  0  0  0  0  0  0  0
   55.8770   25.8880   45.7020 C   0  0  0  0  0  0  0  0  0  0  0  0
   54.7940   26.7130   45.9960 O   0  0  0  0  0  0  0  0  0  0  0  0
   58.2170   28.3480   44.3190 C   0  0  0  0  0  0  0  0  0  0  0  0
   59.1590   27.8390   43.6500 O   0  0  0  0  0  0  0  0  0  0  0  0
   57.0160   28.9330   43.6260 C   0  0  0  0  0  0  0  0  0  0  0  0
   57.0930   30.4350   43.3900 C   0  0  0  0  0  0  0  0  0  0  0  0
   56.1480   29.8800   44.4480 C   0  0  0  0  0  0  0  0  0  0  0  0
   59.3510   29.2580   47.8750 C   0  0  0  0  0  0  0  0  0  0  0  0
   60.0330   30.4560   48.5350 C   0  0  0  0  0  0  0  0  0  0  0  0
   59.7560   33.8540   51.2720 C   0  0  0  0  0  0  0  0  0  0  0  0
   59.4290   33.8630   52.6320 C   0  0  0  0  0  0  0  0  0  0  0  0
   58.5570   32.9020   53.1530 C   0  0  0  0  0  0  0  0  0  0  0  0
   58.2490   32.9320   54.5140 O   0  0  0  0  0  0  0  0  0  0  0  0
   54.3138   30.3057   52.9095 H   0  0  0  0  0  0  0  0  0  0  0  0
   54.4997   31.1909   51.3575 H   0  0  0  0  0  0  0  0  0  0  0  0
   54.3404   29.4017   51.3575 H   0  0  0  0  0  0  0  0  0  0  0  0
   57.8664   31.1837   50.2688 H   0  0  0  0  0  0  0  0  0  0  0  0
   57.4733   31.4273   47.2592 H   0  0  0  0  0  0  0  0  0  0  0  0
   58.4483   32.8046   46.6215 H   0  0  0  0  0  0  0  0  0  0  0  0
   58.2979   30.8392   45.0514 H   0  0  0  0  0  0  0  0  0  0  0  0
   59.9924   31.2975   45.5473 H   0  0  0  0  0  0  0  0  0  0  0  0
   60.3172   29.1685   45.9733 H   0  0  0  0  0  0  0  0  0  0  0  0
   57.9758   27.4780   47.5704 H   0  0  0  0  0  0  0  0  0  0  0  0
   56.5231   28.1726   46.7622 H   0  0  0  0  0  0  0  0  0  0  0  0
   59.3044   25.7927   45.7839 H   0  0  0  0  0  0  0  0  0  0  0  0
   58.8670   23.5496   44.7895 H   0  0  0  0  0  0  0  0  0  0  0  0
   56.5207   22.7885   44.3987 H   0  0  0  0  0  0  0  0  0  0  0  0
   54.6088   24.2900   44.9684 H   0  0  0  0  0  0  0  0  0  0  0  0
   56.8123   28.0445   43.0104 H   0  0  0  0  0  0  0  0  0  0  0  0
   57.9906   30.9938   43.6934 H   0  0  0  0  0  0  0  0  0  0  0  0
   56.9801   31.0910   42.5142 H   0  0  0  0  0  0  0  0  0  0  0  0
   56.3635   30.0373   45.5152 H   0  0  0  0  0  0  0  0  0  0  0  0
   55.0708   29.9683   44.6528 H   0  0  0  0  0  0  0  0  0  0  0  0
   58.3220   29.1770   48.2553 H   0  0  0  0  0  0  0  0  0  0  0  0
   59.9275   28.3531   48.1173 H   0  0  0  0  0  0  0  0  0  0  0  0
   60.0006   30.3337   49.6277 H   0  0  0  0  0  0  0  0  0  0  0  0
   61.0758   30.5057   48.1885 H   0  0  0  0  0  0  0  0  0  0  0  0
   60.4438   34.6129   50.8708 H   0  0  0  0  0  0  0  0  0  0  0  0
   59.8594   34.6288   53.2940 H   0  0  0  0  0  0  0  0  0  0  0  0
  1  2  1  0
  2  3  1  0
  3  4  2  0
  3  5  1  0
  5  6  2  0
  6  7  1  0
  7  8  1  0
  8  9  2  0
  8 10  1  0
 10 11  1  0
 11 12  1  0
 12 13  1  0
 13 14  1  0
 14 15  1  0
 15 16  1  0
 16 17  2  0
 17 18  1  0
 18 19  2  0
 19 20  1  0
 20 21  2  0
 21 22  1  0
 14 23  1  0
 23 24  2  0
 23 25  1  0
 25 26  1  0
 26 27  1  0
 13 28  1  0
 28 29  1  0
  7 30  2  0
 30 31  1  0
 31 32  2  0
 32 33  1  0
 32  5  1  0
 29 10  1  0
 21 16  1  0
 27 25  1  0
  1 34  1  0
  1 35  1  0
  1 36  1  0
  6 37  1  0
 11 38  1  0
 11 39  1  0
 12 40  1  0
 12 41  1  0
 13 42  1  0
 15 43  1  0
 15 44  1  0
 17 45  1  0
 18 46  1  0
 19 47  1  0
 20 48  1  0
 25 49  1  0
 26 50  1  0
 26 51  1  0
 27 52  1  0
 27 53  1  0
 28 54  1  0
 28 55  1  0
 29 56  1  0
 29 57  1  0
 30 58  1  0
 31 59  1  0
M  CHG  3   2  -1  22  -1  33  -1
M  END
>  <UniqueID>  (20) 
19

>  <SMILES>  (20) 
C[N-]C(=O)c1cc(C(=O)N2CCC(N(Cc3ccccc3[O-])C(=O)C3CC3)CC2)ccc1[O-]

>  <Energy>  (20) 
340.3799978192598

>  <Genealogy>  (20) 
C[N-]C(=O)c1cc(C(=O)N2CCC(N(Cc3ccccc3[O-])C(=O)C3CC3)CC2)ccc1[O-] (protonated)
C[N-]C(=O)c1cc(C(=O)N2CCC(N(Cc3ccccc3[O-])C(=O)C3CC3)CC2)ccc1[O-] (3D coordinates assigned)
C[N-]C(=O)c1cc(C(=O)N2CCC(N(Cc3ccccc3[O-])C(=O)C3CC3)CC2)ccc1[O-] (nonaromatic ring conformer: 340.3799978192598 kcal/mol)

>  <smiles>  (20) 
CNC(=O)c1cc(C(=O)N2CCC(N(Cc3ccccc3O)C(=O)C3CC3)CC2)ccc1O

>  <score_type>  (20) 
oracle

>  <origin>  (20) 
adg

>  <m_score__min__energy>  (20) 
-14.960000000000001

>  <m_primary>  (20) 
energy

$$$$
20:0
     RDKit          3D

 27 29  0  0  0  0  0  0  0  0999 V2000
   60.2232   27.7656   44.5476 H   0  0  0  0  0  0  0  0  0  0  0  0
   59.1320   27.6600   44.4570 C   0  0  0  0  0  0  0  0  0  0  0  0
   58.6860   26.6653   44.3101 H   0  0  0  0  0  0  0  0  0  0  0  0
   58.3520   28.7350   44.5250 C   0  0  0  0  0  0  0  0  0  0  0  0
   58.9070   30.3080   44.7530 S   0  0  0  0  0  0  0  0  0  0  0  0
   57.3560   30.9810   44.7100 C   0  0  0  0  0  0  0  0  0  0  0  0
   57.0390   32.2740   44.8740 C   0  0  0  0  0  0  0  0  0  0  0  0
   56.0562   32.6187   44.5201 H   0  0  0  0  0  0  0  0  0  0  0  0
   57.9380   33.2560   45.5030 C   0  0  0  0  0  0  0  0  0  0  0  0
   58.5050   34.3560   44.8680 C   0  0  0  0  0  0  0  0  0  0  0  0
   58.3111   34.6472   43.8251 H   0  0  0  0  0  0  0  0  0  0  0  0
   59.3280   35.0170   45.7130 N   0  0  0  0  0  0  0  0  0  0  0  0
   59.8870   35.8720   45.4990 H   0  0  0  0  0  0  0  0  0  0  0  0
   59.3060   34.3300   46.8680 C   0  0  0  0  0  0  0  0  0  0  0  0
   60.0390   34.6000   48.0230 C   0  0  0  0  0  0  0  0  0  0  0  0
   60.6953   35.4806   48.0854 H   0  0  0  0  0  0  0  0  0  0  0  0
   59.9130   33.7110   49.1060 C   0  0  0  0  0  0  0  0  0  0  0  0
   60.4678   33.9007   50.0367 H   0  0  0  0  0  0  0  0  0  0  0  0
   59.0780   32.5760   49.0050 C   0  0  0  0  0  0  0  0  0  0  0  0
   58.9923   31.8841   49.8558 H   0  0  0  0  0  0  0  0  0  0  0  0
   58.3560   32.3240   47.8260 C   0  0  0  0  0  0  0  0  0  0  0  0
   57.7167   31.4339   47.7313 H   0  0  0  0  0  0  0  0  0  0  0  0
   58.4760   33.2400   46.7780 C   0  0  0  0  0  0  0  0  0  0  0  0
   56.4480   29.9360   44.5310 C   0  0  0  0  0  0  0  0  0  0  0  0
   55.2000   30.1060   44.4690 O   0  0  0  0  0  0  0  0  0  0  0  0
   57.0050   28.6990   44.4240 N   0  0  0  0  0  0  0  0  0  0  0  0
   56.4490   27.8250   44.2840 H   0  0  0  0  0  0  0  0  0  0  0  0
  1  2  1  0
  2  3  1  0
  2  4  2  0
  4  5  1  0
  5  6  1  0
  6  7  2  0
  7  8  1  0
  7  9  1  0
  9 10  2  0
 10 11  1  0
 10 12  1  0
 12 13  1  0
 12 14  1  0
 14 15  2  0
 15 16  1  0
 15 17  1  0
 17 18  1  0
 17 19  2  0
 19 20  1  0
 19 21  1  0
 21 22  1  0
 21 23  2  0
  6 24  1  0
 24 25  2  0
 24 26  1  0
 26 27  1  0
 26  4  1  0
 23  9  1  0
 23 14  1  0
M  END
>  <UniqueID>  (21) 
20

>  <SMILES>  (21) 
C=c1[nH]c(=O)/c(=C/c2c[nH]c3ccccc23)s1

>  <Energy>  (21) 
98.74180359060207

>  <Genealogy>  (21) 
C=c1[nH]c(=O)/c(=C/c2c[nH]c3ccccc23)s1 (cis-trans isomerization)
C=c1[nH]c(=O)/c(=C/c2c[nH]c3ccccc23)s1 (3D coordinates assigned)
C=c1[nH]c(=O)/c(=C/c2c[nH]c3ccccc23)s1 (optimized conformer: 98.74180359060207 kcal/mol)

>  <smiles>  (21) 
C=c1[nH]c(=O)c(=Cc2c[nH]c3ccccc23)s1

>  <score_type>  (21) 
oracle

>  <origin>  (21) 
adg

>  <m_score__min__energy>  (21) 
-7.4400000000000004

>  <m_primary>  (21) 
energy

$$$$
21:0
     RDKit          3D

 51 54  0  0  0  0  0  0  0  0999 V2000
   57.2497   31.7450   52.4509 H   0  0  0  0  0  0  0  0  0  0  0  0
   57.6510   32.3150   51.6000 C   0  0  0  0  0  0  0  0  0  0  0  0
   57.6960   33.4131   51.6458 H   0  0  0  0  0  0  0  0  0  0  0  0
   58.0820   31.6760   50.5150 C   0  0  0  0  0  0  0  0  0  0  0  0
   58.0245   30.5776   50.4981 H   0  0  0  0  0  0  0  0  0  0  0  0
   58.6330   32.3670   49.3340 C   0  0  0  0  0  0  0  0  0  0  0  0
   59.5410   33.2240   49.5090 O   0  0  0  0  0  0  0  0  0  0  0  0
   58.1880   32.0580   48.0030 N   0  0  0  0  0  0  0  0  0  0  0  0
   57.8310   31.0950   47.8110 H   0  0  0  0  0  0  0  0  0  0  0  0
   58.4580   32.9060   46.8740 C   0  0  0  0  0  0  0  0  0  0  0  0
   59.2090   34.0750   47.0680 C   0  0  0  0  0  0  0  0  0  0  0  0
   59.5744   34.3283   48.0741 H   0  0  0  0  0  0  0  0  0  0  0  0
   59.4960   34.9190   45.9940 C   0  0  0  0  0  0  0  0  0  0  0  0
   60.0684   35.8437   46.1590 H   0  0  0  0  0  0  0  0  0  0  0  0
   59.0570   34.5900   44.7110 C   0  0  0  0  0  0  0  0  0  0  0  0
   59.2826   35.2569   43.8658 H   0  0  0  0  0  0  0  0  0  0  0  0
   58.3320   33.4160   44.4980 C   0  0  0  0  0  0  0  0  0  0  0  0
   58.0083   33.1511   43.4806 H   0  0  0  0  0  0  0  0  0  0  0  0
   58.0120   32.5680   45.5770 C   0  0  0  0  0  0  0  0  0  0  0  0
   57.3600   31.3060   45.3560 N   0  0  0  0  0  0  0  0  0  0  0  0
   57.7640   30.1390   45.7680 C   0  0  0  0  0  0  0  0  0  0  0  0
   56.9700   29.0550   45.5670 N   0  0  0  0  0  0  0  0  0  0  0  0
   57.3540   27.8080   45.9510 C   0  0  0  0  0  0  0  0  0  0  0  0
   56.4430   26.6730   45.7050 C   0  0  0  0  0  0  0  0  0  0  0  0
   55.1270   26.7050   45.9950 N   0  0  0  0  0  0  0  0  0  0  0  0
   54.5920   25.5420   45.6570 N   0  0  0  0  0  0  0  0  0  0  0  0
   55.5640   24.7620   45.1490 C   0  0  0  0  0  0  0  0  0  0  0  0
   55.3480   23.3960   44.6600 C   0  0  0  0  0  0  0  0  0  0  0  0
   55.7370   23.0800   43.5020 O   0  0  0  0  0  0  0  0  0  0  0  0
   54.6970   22.4320   45.4930 N   0  0  0  0  0  0  0  0  0  0  0  0
   53.6020   22.7560   46.3990 C   0  0  0  0  0  0  0  0  0  0  0  0
   53.4490   21.9200   47.0973 H   0  0  0  0  0  0  0  0  0  0  0  0
   53.8562   23.6697   46.9562 H   0  0  0  0  0  0  0  0  0  0  0  0
   52.3360   22.9920   45.6220 C   0  0  0  0  0  0  0  0  0  0  0  0
   51.2280   22.1420   45.7830 C   0  0  0  0  0  0  0  0  0  0  0  0
   51.2897   21.2843   46.4690 H   0  0  0  0  0  0  0  0  0  0  0  0
   50.0470   22.3840   45.0730 C   0  0  0  0  0  0  0  0  0  0  0  0
   49.1831   21.7150   45.2000 H   0  0  0  0  0  0  0  0  0  0  0  0
   49.9630   23.4740   44.2030 C   0  0  0  0  0  0  0  0  0  0  0  0
   49.0344   23.6603   43.6435 H   0  0  0  0  0  0  0  0  0  0  0  0
   51.0580   24.3280   44.0430 C   0  0  0  0  0  0  0  0  0  0  0  0
   50.9898   25.1875   43.3599 H   0  0  0  0  0  0  0  0  0  0  0  0
   52.2400   24.0900   44.7510 C   0  0  0  0  0  0  0  0  0  0  0  0
   53.0988   24.7658   44.6254 H   0  0  0  0  0  0  0  0  0  0  0  0
   56.7640   25.4430   45.1600 C   0  0  0  0  0  0  0  0  0  0  0  0
   57.7472   25.0898   44.8155 H   0  0  0  0  0  0  0  0  0  0  0  0
   58.6050   27.6360   46.5610 C   0  0  0  0  0  0  0  0  0  0  0  0
   58.9407   26.6391   46.8827 H   0  0  0  0  0  0  0  0  0  0  0  0
   59.4140   28.7550   46.7510 C   0  0  0  0  0  0  0  0  0  0  0  0
   60.4002   28.6465   47.2260 H   0  0  0  0  0  0  0  0  0  0  0  0
   58.9850   29.9780   46.3500 N   0  0  0  0  0  0  0  0  0  0  0  0
  1  2  1  0
  2  3  1  0
  2  4  2  0
  4  5  1  0
  4  6  1  0
  6  7  2  0
  6  8  1  0
  8  9  1  0
  8 10  1  0
 10 11  2  0
 11 12  1  0
 11 13  1  0
 13 14  1  0
 13 15  2  0
 15 16  1  0
 15 17  1  0
 17 18  1  0
 17 19  2  0
 19 20  1  0
 20 21  2  0
 21 22  1  0
 22 23  2  0
 23 24  1  0
 24 25  1  0
 25 26  1  0
 26 27  2  0
 27 28  1  0
 28 29  2  0
 28 30  1  0
 30 31  1  0
 31 32  1  0
 31 33  1  0
 31 34  1  0
 34 35  2  0
 35 36  1  0
 35 37  1  0
 37 38  1  0
 37 39  2  0
 39 40  1  0
 39 41  1  0
 41 42  1  0
 41 43  2  0
 43 44  1  0
 27 45  1  0
 45 46  1  0
 23 47  1  0
 47 48  1  0
 47 49  2  0
 49 50  1  0
 49 51  1  0
 19 10  1  0
 51 21  1  0
 45 24  2  0
 43 34  1  0
M  CHG  3  25  -1  30  -1  51  -1
M  END
>  <UniqueID>  (22) 
21

>  <SMILES>  (22) 
C=CC(=O)Nc1ccccc1/N=c1/nc(-c2cc(C(=O)[N-]Cc3ccccc3)n[n-]2)cc[n-]1

>  <Energy>  (22) 
93.53616091318023

>  <Genealogy>  (22) 
C=CC(=O)Nc1ccccc1N=c1nc(-c2cc(C(=O)[N-]Cc3ccccc3)n[n-]2)cc[n-]1 (protonated)
C=CC(=O)Nc1ccccc1/N=c1/nc(-c2cc(C(=O)[N-]Cc3ccccc3)n[n-]2)cc[n-]1 (cis-trans isomerization)
C=CC(=O)Nc1ccccc1/N=c1/nc(-c2cc(C(=O)[N-]Cc3ccccc3)n[n-]2)cc[n-]1 (3D coordinates assigned)
C=CC(=O)Nc1ccccc1/N=c1/nc(-c2cc(C(=O)[N-]Cc3ccccc3)n[n-]2)cc[n-]1 (optimized conformer: 93.53616091318023 kcal/mol)

>  <smiles>  (22) 
C=CC(=O)Nc1ccccc1N=c1nc(-c2cc(C(=O)NCc3ccccc3)n[nH]2)cc[nH]1

>  <score_type>  (22) 
oracle

>  <origin>  (22) 
adg

>  <m_score__min__energy>  (22) 
-14.31

>  <m_primary>  (22) 
energy

$$$$
22:0
     RDKit          3D

 42 44  0  0  0  0  0  0  0  0999 V2000
   56.7050   21.3020   46.5230 C   0  0  0  0  0  0  0  0  0  0  0  0
   57.0970   22.4560   45.9800 C   0  0  0  0  0  0  0  0  0  0  0  0
   57.7660   23.3860   46.6880 N   0  0  0  0  0  0  0  0  0  0  0  0
   58.0530   24.3920   45.8380 C   0  0  0  0  0  0  0  0  0  0  0  0
   58.7550   25.4600   46.2560 C   0  0  0  0  0  0  0  0  0  0  0  0
   58.5990   26.8400   45.7710 C   0  0  0  0  0  0  0  0  0  0  0  0
   59.5710   27.5480   45.0720 C   0  0  0  0  0  0  0  0  0  0  0  0
   59.1170   28.7760   44.5810 C   0  0  0  0  0  0  0  0  0  0  0  0
   57.7780   29.0110   44.8600 C   0  0  0  0  0  0  0  0  0  0  0  0
   56.8800   30.4470   44.4030 S   0  0  0  0  0  0  0  0  0  0  0  0
   57.3770   30.9780   43.0860 O   0  0  0  0  0  0  0  0  0  0  0  0
   55.4290   30.0820   44.2500 O   0  0  0  0  0  0  0  0  0  0  0  0
   57.0290   31.6670   45.6290 N   0  0  0  0  0  0  0  0  0  0  0  0
   58.0810   32.6410   45.7310 C   0  0  0  0  0  0  0  0  0  0  0  0
   58.0890   33.8070   44.9370 C   0  0  0  0  0  0  0  0  0  0  0  0
   59.1190   34.7430   45.0650 C   0  0  0  0  0  0  0  0  0  0  0  0
   60.1400   34.5400   45.9930 C   0  0  0  0  0  0  0  0  0  0  0  0
   60.1390   33.3950   46.7950 C   0  0  0  0  0  0  0  0  0  0  0  0
   59.1240   32.4310   46.6610 C   0  0  0  0  0  0  0  0  0  0  0  0
   59.1190   31.2230   47.5580 C   0  0  0  0  0  0  0  0  0  0  0  0
   57.1520   27.7050   45.7070 S   0  0  0  0  0  0  0  0  0  0  0  0
   57.5180   24.1220   44.5720 C   0  0  0  0  0  0  0  0  0  0  0  0
   57.3880   25.0490   43.3950 C   0  0  0  0  0  0  0  0  0  0  0  0
   56.9290   22.8640   44.6600 C   0  0  0  0  0  0  0  0  0  0  0  0
   56.2520   22.1410   43.5600 C   0  0  0  0  0  0  0  0  0  0  0  0
   55.6310   22.7670   42.6610 O   0  0  0  0  0  0  0  0  0  0  0  0
   56.2810   20.7530   43.5190 O   0  0  0  0  0  0  0  0  0  0  0  0
   56.1603   20.5649   45.9147 H   0  0  0  0  0  0  0  0  0  0  0  0
   56.9266   21.0877   47.5789 H   0  0  0  0  0  0  0  0  0  0  0  0
   59.5154   25.2858   47.0315 H   0  0  0  0  0  0  0  0  0  0  0  0
   60.5959   27.1783   44.9204 H   0  0  0  0  0  0  0  0  0  0  0  0
   59.7552   29.4828   44.0305 H   0  0  0  0  0  0  0  0  0  0  0  0
   57.2796   33.9806   44.2126 H   0  0  0  0  0  0  0  0  0  0  0  0
   59.1243   35.6425   44.4319 H   0  0  0  0  0  0  0  0  0  0  0  0
   60.9465   35.2812   46.0940 H   0  0  0  0  0  0  0  0  0  0  0  0
   60.9381   33.2470   47.5363 H   0  0  0  0  0  0  0  0  0  0  0  0
   59.1203   31.5469   48.6092 H   0  0  0  0  0  0  0  0  0  0  0  0
   58.2184   30.6232   47.3603 H   0  0  0  0  0  0  0  0  0  0  0  0
   60.0146   30.6158   47.3603 H   0  0  0  0  0  0  0  0  0  0  0  0
   57.2436   26.0788   43.7536 H   0  0  0  0  0  0  0  0  0  0  0  0
   58.3021   24.9978   42.7853 H   0  0  0  0  0  0  0  0  0  0  0  0
   56.5232   24.7484   42.7853 H   0  0  0  0  0  0  0  0  0  0  0  0
  1  2  2  0
  2  3  1  0
  3  4  1  0
  4  5  2  3
  5  6  1  0
  6  7  2  0
  7  8  1  0
  8  9  2  0
  9 10  1  0
 10 11  2  0
 10 12  2  0
 10 13  1  0
 13 14  1  0
 14 15  2  0
 15 16  1  0
 16 17  2  0
 17 18  1  0
 18 19  2  0
 19 20  1  0
  9 21  1  0
  4 22  1  0
 22 23  1  0
 22 24  2  0
 24 25  1  0
 25 26  2  0
 25 27  1  0
 24  2  1  0
 21  6  1  0
 19 14  1  0
  1 28  1  0
  1 29  1  0
  5 30  1  0
  7 31  1  0
  8 32  1  0
 15 33  1  0
 16 34  1  0
 17 35  1  0
 18 36  1  0
 20 37  1  0
 20 38  1  0
 20 39  1  0
 23 40  1  0
 23 41  1  0
 23 42  1  0
M  CHG  3   3  -1  13  -1  27  -1
M  END
>  <UniqueID>  (23) 
22

>  <SMILES>  (23) 
C=c1[n-]c(=Cc2ccc(S(=O)(=O)[N-]c3ccccc3C)s2)c(C)c1C(=O)[O-]

>  <Energy>  (23) 
113.11558454664494

>  <Genealogy>  (23) 
C=c1[n-]c(=Cc2ccc(S(=O)(=O)[N-]c3ccccc3C)s2)c(C)c1C(=O)[O-] (protonated)
C=c1[n-]c(=Cc2ccc(S(=O)(=O)[N-]c3ccccc3C)s2)c(C)c1C(=O)[O-] (3D coordinates assigned)
C=c1[n-]c(=Cc2ccc(S(=O)(=O)[N-]c3ccccc3C)s2)c(C)c1C(=O)[O-] (optimized conformer: 113.11558454664494 kcal/mol)

>  <smiles>  (23) 
C=c1[nH]c(=Cc2ccc(S(=O)(=O)Nc3ccccc3C)s2)c(C)c1C(=O)O

>  <score_type>  (23) 
oracle

>  <origin>  (23) 
adg

>  <m_score__min__energy>  (23) 
-13.19

>  <m_primary>  (23) 
energy

$$$$
23:0
     RDKit          3D

 61 64  0  0  0  0  0  0  0  0999 V2000
   55.2820   23.2400   47.7520 C   0  0  0  0  0  0  0  0  0  0  0  0
   56.2970   22.1730   48.1430 C   0  0  0  0  0  0  0  0  0  0  0  0
   57.3450   22.1090   47.1760 O   0  0  0  0  0  0  0  0  0  0  0  0
   57.3480   21.2010   46.1100 C   0  0  0  0  0  0  0  0  0  0  0  0
   57.2140   19.9640   46.3300 O   0  0  0  0  0  0  0  0  0  0  0  0
   57.4550   21.7000   44.7540 N   0  0  0  0  0  0  0  0  0  0  0  0
   58.6390   22.5760   44.6130 C   0  0  0  0  0  0  0  0  0  0  0  0
   58.4700   23.8880   45.3940 C   0  0  0  0  0  0  0  0  0  0  0  0
   57.1210   24.4440   45.2190 N   0  0  0  0  0  0  0  0  0  0  0  0
   56.7360   25.6770   45.8710 C   0  0  0  0  0  0  0  0  0  0  0  0
   55.5160   25.9700   45.9870 O   0  0  0  0  0  0  0  0  0  0  0  0
   57.7360   26.6480   46.3590 C   0  0  0  0  0  0  0  0  0  0  0  0
   58.4270   26.5040   47.5150 N   0  0  0  0  0  0  0  0  0  0  0  0
   59.1960   27.6000   47.6250 C   0  0  0  0  0  0  0  0  0  0  0  0
   60.0740   27.9110   48.6620 C   0  0  0  0  0  0  0  0  0  0  0  0
   60.7690   29.1310   48.5930 C   0  0  0  0  0  0  0  0  0  0  0  0
   60.5660   30.0090   47.5060 C   0  0  0  0  0  0  0  0  0  0  0  0
   59.6660   29.6730   46.4780 C   0  0  0  0  0  0  0  0  0  0  0  0
   58.9980   28.4510   46.5680 C   0  0  0  0  0  0  0  0  0  0  0  0
   58.0620   27.8610   45.7390 C   0  0  0  0  0  0  0  0  0  0  0  0
   57.4930   28.4310   44.4660 C   0  0  0  0  0  0  0  0  0  0  0  0
   56.4200   29.4520   44.7400 C   0  0  0  0  0  0  0  0  0  0  0  0
   55.2260   29.0710   44.8520 O   0  0  0  0  0  0  0  0  0  0  0  0
   56.7080   30.8510   44.8540 N   0  0  0  0  0  0  0  0  0  0  0  0
   57.8410   31.5060   44.2170 C   0  0  0  0  0  0  0  0  0  0  0  0
   58.2950   32.6660   45.0540 C   0  0  0  0  0  0  0  0  0  0  0  0
   58.7960   33.8270   44.4400 C   0  0  0  0  0  0  0  0  0  0  0  0
   59.2420   34.8990   45.2170 C   0  0  0  0  0  0  0  0  0  0  0  0
   59.1980   34.8200   46.6120 C   0  0  0  0  0  0  0  0  0  0  0  0
   58.6990   33.6690   47.2310 C   0  0  0  0  0  0  0  0  0  0  0  0
   58.2550   32.5920   46.4590 C   0  0  0  0  0  0  0  0  0  0  0  0
   57.8010   31.4720   47.0780 F   0  0  0  0  0  0  0  0  0  0  0  0
   56.2510   23.8700   44.1850 C   0  0  0  0  0  0  0  0  0  0  0  0
   56.1880   22.3340   44.2890 C   0  0  0  0  0  0  0  0  0  0  0  0
   54.8543   23.6896   48.6603 H   0  0  0  0  0  0  0  0  0  0  0  0
   55.7802   24.0194   47.1567 H   0  0  0  0  0  0  0  0  0  0  0  0
   54.4787   22.7813   47.1567 H   0  0  0  0  0  0  0  0  0  0  0  0
   56.7245   22.4214   49.1256 H   0  0  0  0  0  0  0  0  0  0  0  0
   55.7913   21.1972   48.1881 H   0  0  0  0  0  0  0  0  0  0  0  0
   57.6260   20.8640   44.1450 H   0  0  0  0  0  0  0  0  0  0  0  0
   59.5232   22.0448   44.9951 H   0  0  0  0  0  0  0  0  0  0  0  0
   58.7582   22.8234   43.5478 H   0  0  0  0  0  0  0  0  0  0  0  0
   58.6413   23.6932   46.4630 H   0  0  0  0  0  0  0  0  0  0  0  0
   59.1984   24.6171   45.0095 H   0  0  0  0  0  0  0  0  0  0  0  0
   58.3510   25.7290   48.2110 H   0  0  0  0  0  0  0  0  0  0  0  0
   60.2186   27.2231   49.5081 H   0  0  0  0  0  0  0  0  0  0  0  0
   61.4755   29.4034   49.3909 H   0  0  0  0  0  0  0  0  0  0  0  0
   61.1147   30.9614   47.4626 H   0  0  0  0  0  0  0  0  0  0  0  0
   59.4943   30.3522   45.6300 H   0  0  0  0  0  0  0  0  0  0  0  0
   58.3034   28.9103   43.8972 H   0  0  0  0  0  0  0  0  0  0  0  0
   57.0420   27.6066   43.8942 H   0  0  0  0  0  0  0  0  0  0  0  0
   58.6665   30.7867   44.1116 H   0  0  0  0  0  0  0  0  0  0  0  0
   57.5381   31.8712   43.2246 H   0  0  0  0  0  0  0  0  0  0  0  0
   58.8371   33.8918   43.3427 H   0  0  0  0  0  0  0  0  0  0  0  0
   59.6284   35.8066   44.7303 H   0  0  0  0  0  0  0  0  0  0  0  0
   59.5555   35.6623   47.2225 H   0  0  0  0  0  0  0  0  0  0  0  0
   58.6560   33.6115   48.3287 H   0  0  0  0  0  0  0  0  0  0  0  0
   55.2366   24.2783   44.3044 H   0  0  0  0  0  0  0  0  0  0  0  0
   56.6654   24.1326   43.2005 H   0  0  0  0  0  0  0  0  0  0  0  0
   55.3894   22.0687   44.9974 H   0  0  0  0  0  0  0  0  0  0  0  0
   55.9998   21.9560   43.2733 H   0  0  0  0  0  0  0  0  0  0  0  0
  1  2  1  0
  2  3  1  0
  3  4  1  0
  4  5  2  0
  4  6  1  0
  6  7  1  0
  7  8  1  0
  8  9  1  0
  9 10  1  0
 10 11  2  0
 10 12  1  0
 12 13  1  0
 13 14  1  0
 14 15  2  0
 15 16  1  0
 16 17  2  0
 17 18  1  0
 18 19  2  0
 19 20  1  0
 20 21  1  0
 21 22  1  0
 22 23  2  0
 22 24  1  0
 24 25  1  0
 25 26  1  0
 26 27  2  0
 27 28  1  0
 28 29  2  0
 29 30  1  0
 30 31  2  0
 31 32  1  0
  9 33  1  0
 33 34  1  0
 34  6  1  0
 20 12  2  0
 31 26  1  0
 19 14  1  0
  1 35  1  0
  1 36  1  0
  1 37  1  0
  2 38  1  0
  2 39  1  0
  6 40  1  0
  7 41  1  0
  7 42  1  0
  8 43  1  0
  8 44  1  0
 13 45  1  0
 15 46  1  0
 16 47  1  0
 17 48  1  0
 18 49  1  0
 21 50  1  0
 21 51  1  0
 25 52  1  0
 25 53  1  0
 27 54  1  0
 28 55  1  0
 29 56  1  0
 30 57  1  0
 33 58  1  0
 33 59  1  0
 34 60  1  0
 34 61  1  0
M  CHG  2   6   1  24  -1
M  END
>  <UniqueID>  (24) 
23

>  <SMILES>  (24) 
CCOC(=O)[NH+]1CCN(C(=O)c2[nH]c3ccccc3c2CC(=O)[N-]Cc2ccccc2F)CC1

>  <Energy>  (24) 
103.35606558156707

>  <Genealogy>  (24) 
CCOC(=O)[NH+]1CCN(C(=O)c2[nH]c3ccccc3c2CC(=O)[N-]Cc2ccccc2F)CC1 (protonated)
CCOC(=O)[NH+]1CCN(C(=O)c2[nH]c3ccccc3c2CC(=O)[N-]Cc2ccccc2F)CC1 (3D coordinates assigned)
CCOC(=O)[NH+]1CCN(C(=O)c2[nH]c3ccccc3c2CC(=O)[N-]Cc2ccccc2F)CC1 (nonaromatic ring conformer: 103.35606558156707 kcal/mol)

>  <smiles>  (24) 
CCOC(=O)N1CCN(C(=O)c2[nH]c3ccccc3c2CC(=O)NCc2ccccc2F)CC1

>  <score_type>  (24) 
oracle

>  <origin>  (24) 
adg

>  <m_score__min__energy>  (24) 
-10.43

>  <m_primary>  (24) 
energy

$$$$
24:0
     RDKit          3D

 62 65  0  0  0  0  0  0  0  0999 V2000
   55.2780   29.2510   44.7240 N   0  0  0  0  0  0  0  0  0  0  0  0
   56.6850   30.1200   44.2150 S   0  0  0  0  0  0  0  0  0  0  0  0
   56.8600   29.9180   42.7340 O   0  0  0  0  0  0  0  0  0  0  0  0
   56.5050   31.5860   44.4970 O   0  0  0  0  0  0  0  0  0  0  0  0
   58.1000   29.5220   45.0790 C   0  0  0  0  0  0  0  0  0  0  0  0
   59.1910   28.9870   44.3810 C   0  0  0  0  0  0  0  0  0  0  0  0
   60.2980   28.4990   45.0810 C   0  0  0  0  0  0  0  0  0  0  0  0
   60.3140   28.5190   46.4780 C   0  0  0  0  0  0  0  0  0  0  0  0
   59.2320   29.0610   47.1910 C   0  0  0  0  0  0  0  0  0  0  0  0
   59.2230   29.0730   48.6660 C   0  0  0  0  0  0  0  0  0  0  0  0
   59.7150   28.1050   49.3120 O   0  0  0  0  0  0  0  0  0  0  0  0
   58.6750   30.1950   49.3650 N   0  0  0  0  0  0  0  0  0  0  0  0
   58.4550   30.2320   50.8050 C   0  0  0  0  0  0  0  0  0  0  0  0
   59.2490   31.3520   51.4210 C   0  0  0  0  0  0  0  0  0  0  0  0
   60.5880   31.5180   51.2970 C   0  0  0  0  0  0  0  0  0  0  0  0
   61.2530   32.7160   51.9410 C   0  0  0  0  0  0  0  0  0  0  0  0
   61.8940   33.6120   50.8790 C   0  0  0  0  0  0  0  0  0  0  0  0
   61.2890   33.3820   49.6190 O   0  0  0  0  0  0  0  0  0  0  0  0
   61.8570   32.3190   48.8490 C   0  0  0  0  0  0  0  0  0  0  0  0
   62.4980   31.1890   49.7230 C   0  0  0  0  0  0  0  0  0  0  0  0
   61.4920   30.4880   50.6500 C   0  0  0  0  0  0  0  0  0  0  0  0
   62.9260   32.8770   47.8750 C   0  0  0  0  0  0  0  0  0  0  0  0
   62.3180   33.9260   46.9290 C   0  0  0  0  0  0  0  0  0  0  0  0
   61.0390   33.5080   46.2880 N   0  0  0  0  0  0  0  0  0  0  0  0
   59.9140   34.4120   46.6290 C   0  0  0  0  0  0  0  0  0  0  0  0
   59.1970   34.9640   45.3900 C   0  0  0  0  0  0  0  0  0  0  0  0
   57.9310   34.2180   45.7800 C   0  0  0  0  0  0  0  0  0  0  0  0
   58.6310   33.6630   47.0080 C   0  0  0  0  0  0  0  0  0  0  0  0
   60.7040   32.0830   46.5210 C   0  0  0  0  0  0  0  0  0  0  0  0
   60.6810   31.7060   48.0160 C   0  0  0  0  0  0  0  0  0  0  0  0
   58.1280   29.5640   46.4780 C   0  0  0  0  0  0  0  0  0  0  0  0
   55.5610   28.2550   44.8590 H   0  0  0  0  0  0  0  0  0  0  0  0
   59.1762   28.9511   43.2817 H   0  0  0  0  0  0  0  0  0  0  0  0
   61.1608   28.0973   44.5294 H   0  0  0  0  0  0  0  0  0  0  0  0
   61.1776   28.1085   47.0217 H   0  0  0  0  0  0  0  0  0  0  0  0
   57.3852   30.3913   51.0056 H   0  0  0  0  0  0  0  0  0  0  0  0
   58.7800   29.2769   51.2434 H   0  0  0  0  0  0  0  0  0  0  0  0
   58.6994   32.0940   52.0187 H   0  0  0  0  0  0  0  0  0  0  0  0
   60.4984   33.2943   52.4942 H   0  0  0  0  0  0  0  0  0  0  0  0
   62.0374   32.3607   52.6255 H   0  0  0  0  0  0  0  0  0  0  0  0
   61.7570   34.6663   51.1614 H   0  0  0  0  0  0  0  0  0  0  0  0
   62.9670   33.3793   50.8113 H   0  0  0  0  0  0  0  0  0  0  0  0
   62.9368   30.4360   49.0519 H   0  0  0  0  0  0  0  0  0  0  0  0
   63.2536   31.6650   50.3653 H   0  0  0  0  0  0  0  0  0  0  0  0
   60.8831   29.7846   50.0632 H   0  0  0  0  0  0  0  0  0  0  0  0
   62.0384   29.9409   51.4324 H   0  0  0  0  0  0  0  0  0  0  0  0
   63.7342   33.3436   48.4573 H   0  0  0  0  0  0  0  0  0  0  0  0
   63.3164   32.0452   47.2703 H   0  0  0  0  0  0  0  0  0  0  0  0
   62.1298   34.8428   47.5070 H   0  0  0  0  0  0  0  0  0  0  0  0
   63.0436   34.0738   46.1156 H   0  0  0  0  0  0  0  0  0  0  0  0
   60.4094   35.0825   47.3467 H   0  0  0  0  0  0  0  0  0  0  0  0
   59.0885   36.0586   45.3859 H   0  0  0  0  0  0  0  0  0  0  0  0
   59.6346   34.8276   44.3900 H   0  0  0  0  0  0  0  0  0  0  0  0
   57.0770   34.8727   46.0082 H   0  0  0  0  0  0  0  0  0  0  0  0
   57.4437   33.5394   45.0645 H   0  0  0  0  0  0  0  0  0  0  0  0
   58.1879   33.9882   47.9608 H   0  0  0  0  0  0  0  0  0  0  0  0
   58.6564   32.5780   47.1870 H   0  0  0  0  0  0  0  0  0  0  0  0
   59.7106   31.8821   46.0935 H   0  0  0  0  0  0  0  0  0  0  0  0
   61.4876   31.4781   46.0412 H   0  0  0  0  0  0  0  0  0  0  0  0
   59.7323   32.0589   48.4465 H   0  0  0  0  0  0  0  0  0  0  0  0
   60.7914   30.6128   48.0688 H   0  0  0  0  0  0  0  0  0  0  0  0
   57.2773   29.9951   47.0262 H   0  0  0  0  0  0  0  0  0  0  0  0
  1  2  1  0
  2  3  2  0
  2  4  2  0
  2  5  1  0
  5  6  2  0
  6  7  1  0
  7  8  2  0
  8  9  1  0
  9 10  1  0
 10 11  2  0
 10 12  1  0
 12 13  1  0
 13 14  1  0
 14 15  2  3
 15 16  1  0
 16 17  1  0
 17 18  1  0
 18 19  1  0
 19 20  1  0
 20 21  1  0
 19 22  1  0
 22 23  1  0
 23 24  1  0
 24 25  1  0
 25 26  1  0
 26 27  1  0
 27 28  1  0
 24 29  1  0
 29 30  1  0
  9 31  2  0
 31  5  1  0
 21 15  1  0
 28 25  1  0
 30 19  1  0
  1 32  1  0
  6 33  1  0
  7 34  1  0
  8 35  1  0
 13 36  1  0
 13 37  1  0
 14 38  1  0
 16 39  1  0
 16 40  1  0
 17 41  1  0
 17 42  1  0
 20 43  1  0
 20 44  1  0
 21 45  1  0
 21 46  1  0
 22 47  1  0
 22 48  1  0
 23 49  1  0
 23 50  1  0
 25 51  1  0
 26 52  1  0
 26 53  1  0
 27 54  1  0
 27 55  1  0
 28 56  1  0
 28 57  1  0
 29 58  1  0
 29 59  1  0
 30 60  1  0
 30 61  1  0
 31 62  1  0
M  CHG  2   1  -1  12  -1
M  END
>  <UniqueID>  (25) 
24

>  <SMILES>  (25) 
[NH-]S(=O)(=O)c1cccc(C(=O)[N-]CC=C2CCOC3(CC2)CCN(C2CCC2)CC3)c1

>  <Energy>  (25) 
144.0603633563786

>  <Genealogy>  (25) 
[NH-]S(=O)(=O)c1cccc(C(=O)[N-]CC=C2CCOC3(CC2)CCN(C2CCC2)CC3)c1 (protonated)
[NH-]S(=O)(=O)c1cccc(C(=O)[N-]CC=C2CCOC3(CC2)CCN(C2CCC2)CC3)c1 (3D coordinates assigned)
[NH-]S(=O)(=O)c1cccc(C(=O)[N-]CC=C2CCOC3(CC2)CCN(C2CCC2)CC3)c1 (nonaromatic ring conformer: 144.0603633563786 kcal/mol)

>  <smiles>  (25) 
NS(=O)(=O)c1cccc(C(=O)NCC=C2CCOC3(CC2)CCN(C2CCC2)CC3)c1

>  <score_type>  (25) 
oracle

>  <origin>  (25) 
adg

>  <m_score__min__energy>  (25) 
-12.140000000000001

>  <m_primary>  (25) 
energy

$$$$
25:0
     RDKit          3D

 59 62  0  0  0  0  0  0  0  0999 V2000
   56.6840   24.9440   46.8550 C   0  0  0  0  0  0  0  0  0  0  0  0
   57.7130   25.7380   47.1390 C   0  0  0  0  0  0  0  0  0  0  0  0
   58.2860   26.7320   46.1970 C   0  0  0  0  0  0  0  0  0  0  0  0
   59.6150   27.1520   46.3870 C   0  0  0  0  0  0  0  0  0  0  0  0
   60.1990   28.0800   45.5230 C   0  0  0  0  0  0  0  0  0  0  0  0
   59.4690   28.5910   44.4470 C   0  0  0  0  0  0  0  0  0  0  0  0
   58.1500   28.1670   44.2200 C   0  0  0  0  0  0  0  0  0  0  0  0
   57.3630   28.7360   43.0730 C   0  0  0  0  0  0  0  0  0  0  0  0
   56.7530   30.0140   43.4690 N   0  0  0  0  0  0  0  0  0  0  0  0
   55.4380   29.9940   44.1230 C   0  0  0  0  0  0  0  0  0  0  0  0
   57.4810   31.2520   43.2850 C   0  0  0  0  0  0  0  0  0  0  0  0
   57.3900   31.8670   42.1870 O   0  0  0  0  0  0  0  0  0  0  0  0
   58.3040   31.8780   44.3950 C   0  0  0  0  0  0  0  0  0  0  0  0
   57.8370   31.3660   45.7760 C   0  0  0  0  0  0  0  0  0  0  0  0
   58.2550   32.3080   46.9200 C   0  0  0  0  0  0  0  0  0  0  0  0
   59.4360   33.0940   46.5280 N   0  0  0  0  0  0  0  0  0  0  0  0
   60.0830   33.9400   47.9100 S   0  0  0  0  0  0  0  0  0  0  0  0
   61.5690   34.1090   47.7560 O   0  0  0  0  0  0  0  0  0  0  0  0
   59.4410   35.2980   48.0190 O   0  0  0  0  0  0  0  0  0  0  0  0
   59.7730   33.0010   49.3750 C   0  0  0  0  0  0  0  0  0  0  0  0
   59.2810   33.6410   50.5250 C   0  0  0  0  0  0  0  0  0  0  0  0
   59.0210   32.9100   51.6870 C   0  0  0  0  0  0  0  0  0  0  0  0
   59.2490   31.5320   51.7190 C   0  0  0  0  0  0  0  0  0  0  0  0
   59.7470   30.8760   50.5820 C   0  0  0  0  0  0  0  0  0  0  0  0
   59.9900   29.4950   50.5910 C   0  0  0  0  0  0  0  0  0  0  0  0
   60.4860   28.8700   49.4460 C   0  0  0  0  0  0  0  0  0  0  0  0
   60.7330   29.6290   48.3010 C   0  0  0  0  0  0  0  0  0  0  0  0
   60.4970   30.9660   48.3050 N   0  0  0  0  0  0  0  0  0  0  0  0
   60.0130   31.6120   49.4030 C   0  0  0  0  0  0  0  0  0  0  0  0
   59.1020   34.0550   45.4560 C   0  0  0  0  0  0  0  0  0  0  0  0
   58.2410   33.4160   44.3420 C   0  0  0  0  0  0  0  0  0  0  0  0
   57.5590   27.2460   45.1020 C   0  0  0  0  0  0  0  0  0  0  0  0
   56.3153   24.2311   47.6073 H   0  0  0  0  0  0  0  0  0  0  0  0
   56.2018   25.0004   45.8679 H   0  0  0  0  0  0  0  0  0  0  0  0
   58.1688   25.6524   48.1365 H   0  0  0  0  0  0  0  0  0  0  0  0
   60.2000   26.7450   47.2249 H   0  0  0  0  0  0  0  0  0  0  0  0
   61.2352   28.4093   45.6896 H   0  0  0  0  0  0  0  0  0  0  0  0
   59.9300   29.3292   43.7743 H   0  0  0  0  0  0  0  0  0  0  0  0
   58.0339   28.9019   42.2172 H   0  0  0  0  0  0  0  0  0  0  0  0
   56.5695   28.0279   42.7920 H   0  0  0  0  0  0  0  0  0  0  0  0
   55.5715   29.9960   45.2149 H   0  0  0  0  0  0  0  0  0  0  0  0
   54.8652   30.8835   43.8220 H   0  0  0  0  0  0  0  0  0  0  0  0
   54.8925   29.0875   43.8220 H   0  0  0  0  0  0  0  0  0  0  0  0
   59.3512   31.5770   44.2440 H   0  0  0  0  0  0  0  0  0  0  0  0
   56.7402   31.2819   45.7698 H   0  0  0  0  0  0  0  0  0  0  0  0
   58.3136   30.3904   45.9521 H   0  0  0  0  0  0  0  0  0  0  0  0
   57.4241   32.9913   47.1495 H   0  0  0  0  0  0  0  0  0  0  0  0
   58.5036   31.7062   47.8066 H   0  0  0  0  0  0  0  0  0  0  0  0
   59.0991   34.7258   50.5104 H   0  0  0  0  0  0  0  0  0  0  0  0
   58.6350   33.4219   52.5808 H   0  0  0  0  0  0  0  0  0  0  0  0
   59.0383   30.9609   52.6352 H   0  0  0  0  0  0  0  0  0  0  0  0
   59.7902   28.9058   51.4982 H   0  0  0  0  0  0  0  0  0  0  0  0
   60.6808   27.7874   49.4459 H   0  0  0  0  0  0  0  0  0  0  0  0
   61.1198   29.1428   47.3933 H   0  0  0  0  0  0  0  0  0  0  0  0
   58.5448   34.8955   45.8955 H   0  0  0  0  0  0  0  0  0  0  0  0
   60.0449   34.3922   45.0007 H   0  0  0  0  0  0  0  0  0  0  0  0
   57.1963   33.7359   44.4693 H   0  0  0  0  0  0  0  0  0  0  0  0
   58.6344   33.7451   43.3689 H   0  0  0  0  0  0  0  0  0  0  0  0
   56.5205   26.9229   44.9373 H   0  0  0  0  0  0  0  0  0  0  0  0
  1  2  2  0
  2  3  1  0
  3  4  2  0
  4  5  1  0
  5  6  2  0
  6  7  1  0
  7  8  1  0
  8  9  1  0
  9 10  1  0
  9 11  1  0
 11 12  2  0
 11 13  1  0
 13 14  1  0
 14 15  1  0
 15 16  1  0
 16 17  1  0
 17 18  2  0
 17 19  2  0
 17 20  1  0
 20 21  2  0
 21 22  1  0
 22 23  2  0
 23 24  1  0
 24 25  2  0
 25 26  1  0
 26 27  2  0
 27 28  1  0
 28 29  2  0
 16 30  1  0
 30 31  1  0
  7 32  2  0
 32  3  1  0
 31 13  1  0
 29 20  1  0
 29 24  1  0
  1 33  1  0
  1 34  1  0
  2 35  1  0
  4 36  1  0
  5 37  1  0
  6 38  1  0
  8 39  1  0
  8 40  1  0
 10 41  1  0
 10 42  1  0
 10 43  1  0
 13 44  1  0
 14 45  1  0
 14 46  1  0
 15 47  1  0
 15 48  1  0
 21 49  1  0
 22 50  1  0
 23 51  1  0
 25 52  1  0
 26 53  1  0
 27 54  1  0
 30 55  1  0
 30 56  1  0
 31 57  1  0
 31 58  1  0
 32 59  1  0
M  END
>  <UniqueID>  (26) 
25

>  <SMILES>  (26) 
C=Cc1cccc(CN(C)C(=O)C2CCN(S(=O)(=O)c3cccc4cccnc34)CC2)c1

>  <Energy>  (26) 
69.04898319303288

>  <Genealogy>  (26) 
C=Cc1cccc(CN(C)C(=O)C2CCN(S(=O)(=O)c3cccc4cccnc34)CC2)c1 (3D coordinates assigned)
C=Cc1cccc(CN(C)C(=O)C2CCN(S(=O)(=O)c3cccc4cccnc34)CC2)c1 (nonaromatic ring conformer: 69.04898319303288 kcal/mol)

>  <smiles>  (26) 
C=Cc1cccc(CN(C)C(=O)C2CCN(S(=O)(=O)c3cccc4cccnc34)CC2)c1

>  <score_type>  (26) 
oracle

>  <origin>  (26) 
adg

>  <m_score__min__energy>  (26) 
-10.01

>  <m_primary>  (26) 
energy

$$$$
26:0
     RDKit          3D

 57 59  0  0  0  0  0  0  0  0999 V2000
   64.6770   30.7200   51.2530 C   0  0  0  0  0  0  0  0  0  0  0  0
   64.6470   32.1560   51.5880 N   0  0  0  0  0  0  0  0  0  0  0  0
   65.5180   32.9460   50.6930 C   0  0  0  0  0  0  0  0  0  0  0  0
   64.9160   33.0810   49.2870 C   0  0  0  0  0  0  0  0  0  0  0  0
   63.4940   33.4340   49.3520 N   0  0  0  0  0  0  0  0  0  0  0  0
   62.7530   33.6190   48.1310 C   0  0  0  0  0  0  0  0  0  0  0  0
   63.2770   33.3020   47.0260 O   0  0  0  0  0  0  0  0  0  0  0  0
   61.4360   34.0970   48.1770 O   0  0  0  0  0  0  0  0  0  0  0  0
   60.4580   33.8790   47.1940 C   0  0  0  0  0  0  0  0  0  0  0  0
   60.1640   34.9190   46.3060 C   0  0  0  0  0  0  0  0  0  0  0  0
   59.1930   34.7530   45.3140 C   0  0  0  0  0  0  0  0  0  0  0  0
   58.5080   33.5330   45.1920 C   0  0  0  0  0  0  0  0  0  0  0  0
   57.4370   33.3630   44.1440 C   0  0  0  0  0  0  0  0  0  0  0  0
   57.8930   32.4660   42.9790 C   0  0  0  0  0  0  0  0  0  0  0  0
   57.0320   31.2050   42.7880 C   0  0  0  0  0  0  0  0  0  0  0  0
   57.1620   30.2450   43.9380 C   0  0  0  0  0  0  0  0  0  0  0  0
   56.3260   30.2960   44.8820 O   0  0  0  0  0  0  0  0  0  0  0  0
   58.2210   29.2760   43.9530 N   0  0  0  0  0  0  0  0  0  0  0  0
   58.4050   28.3570   45.0390 C   0  0  0  0  0  0  0  0  0  0  0  0
   59.7120   28.0370   45.4390 C   0  0  0  0  0  0  0  0  0  0  0  0
   59.9330   27.1740   46.5150 C   0  0  0  0  0  0  0  0  0  0  0  0
   58.8510   26.6120   47.1940 C   0  0  0  0  0  0  0  0  0  0  0  0
   57.5450   26.8970   46.7870 C   0  0  0  0  0  0  0  0  0  0  0  0
   57.3090   27.7540   45.6990 C   0  0  0  0  0  0  0  0  0  0  0  0
   55.9650   27.9580   45.2500 N   0  0  0  0  0  0  0  0  0  0  0  0
   58.8280   32.4770   46.0590 C   0  0  0  0  0  0  0  0  0  0  0  0
   59.7980   32.6460   47.0510 C   0  0  0  0  0  0  0  0  0  0  0  0
   62.8920   33.7480   50.6520 C   0  0  0  0  0  0  0  0  0  0  0  0
   63.2540   32.6710   51.6910 C   0  0  0  0  0  0  0  0  0  0  0  0
   64.6894   30.1275   52.1797 H   0  0  0  0  0  0  0  0  0  0  0  0
   63.7841   30.4620   50.6647 H   0  0  0  0  0  0  0  0  0  0  0  0
   65.5799   30.4995   50.6647 H   0  0  0  0  0  0  0  0  0  0  0  0
   65.6517   33.9503   51.1213 H   0  0  0  0  0  0  0  0  0  0  0  0
   66.4818   32.4233   50.6041 H   0  0  0  0  0  0  0  0  0  0  0  0
   65.4564   33.8669   48.7390 H   0  0  0  0  0  0  0  0  0  0  0  0
   65.0122   32.1138   48.7719 H   0  0  0  0  0  0  0  0  0  0  0  0
   60.7012   35.8753   46.3889 H   0  0  0  0  0  0  0  0  0  0  0  0
   58.9647   35.5808   44.6266 H   0  0  0  0  0  0  0  0  0  0  0  0
   56.5519   32.9092   44.6138 H   0  0  0  0  0  0  0  0  0  0  0  0
   57.2096   34.3575   43.7325 H   0  0  0  0  0  0  0  0  0  0  0  0
   57.8532   33.0561   42.0516 H   0  0  0  0  0  0  0  0  0  0  0  0
   58.9106   32.1241   43.2191 H   0  0  0  0  0  0  0  0  0  0  0  0
   55.9782   31.5068   42.6967 H   0  0  0  0  0  0  0  0  0  0  0  0
   57.3834   30.6922   41.8805 H   0  0  0  0  0  0  0  0  0  0  0  0
   59.0010   29.3810   43.2670 H   0  0  0  0  0  0  0  0  0  0  0  0
   60.5687   28.4691   44.9010 H   0  0  0  0  0  0  0  0  0  0  0  0
   60.9608   26.9372   46.8274 H   0  0  0  0  0  0  0  0  0  0  0  0
   59.0264   25.9441   48.0503 H   0  0  0  0  0  0  0  0  0  0  0  0
   56.6957   26.4472   47.3222 H   0  0  0  0  0  0  0  0  0  0  0  0
   55.1530   27.8870   45.9010 H   0  0  0  0  0  0  0  0  0  0  0  0
   55.7750   28.2590   44.2680 H   0  0  0  0  0  0  0  0  0  0  0  0
   58.3124   31.5106   45.9573 H   0  0  0  0  0  0  0  0  0  0  0  0
   60.0460   31.8108   47.7226 H   0  0  0  0  0  0  0  0  0  0  0  0
   63.2654   34.7234   50.9972 H   0  0  0  0  0  0  0  0  0  0  0  0
   61.7983   33.7779   50.5384 H   0  0  0  0  0  0  0  0  0  0  0  0
   63.1208   33.1028   52.6939 H   0  0  0  0  0  0  0  0  0  0  0  0
   62.5897   31.8156   51.4988 H   0  0  0  0  0  0  0  0  0  0  0  0
  1  2  1  0
  2  3  1  0
  3  4  1  0
  4  5  1  0
  5  6  1  0
  6  7  2  0
  6  8  1  0
  8  9  1  0
  9 10  2  0
 10 11  1  0
 11 12  2  0
 12 13  1  0
 13 14  1  0
 14 15  1  0
 15 16  1  0
 16 17  2  0
 16 18  1  0
 18 19  1  0
 19 20  2  0
 20 21  1  0
 21 22  2  0
 22 23  1  0
 23 24  2  0
 24 25  1  0
 12 26  1  0
 26 27  2  0
  5 28  1  0
 28 29  1  0
 29  2  1  0
 27  9  1  0
 24 19  1  0
  1 30  1  0
  1 31  1  0
  1 32  1  0
  3 33  1  0
  3 34  1  0
  4 35  1  0
  4 36  1  0
 10 37  1  0
 11 38  1  0
 13 39  1  0
 13 40  1  0
 14 41  1  0
 14 42  1  0
 15 43  1  0
 15 44  1  0
 18 45  1  0
 20 46  1  0
 21 47  1  0
 22 48  1  0
 23 49  1  0
 25 50  1  0
 25 51  1  0
 26 52  1  0
 27 53  1  0
 28 54  1  0
 28 55  1  0
 29 56  1  0
 29 57  1  0
M  END
>  <UniqueID>  (27) 
26

>  <SMILES>  (27) 
CN1CCN(C(=O)Oc2ccc(CCCC(=O)Nc3ccccc3N)cc2)CC1

>  <Energy>  (27) 
69.1062905795112

>  <Genealogy>  (27) 
CN1CCN(C(=O)Oc2ccc(CCCC(=O)Nc3ccccc3N)cc2)CC1 (3D coordinates assigned)
CN1CCN(C(=O)Oc2ccc(CCCC(=O)Nc3ccccc3N)cc2)CC1 (nonaromatic ring conformer: 69.1062905795112 kcal/mol)

>  <smiles>  (27) 
CN1CCN(C(=O)Oc2ccc(CCCC(=O)Nc3ccccc3N)cc2)CC1

>  <score_type>  (27) 
oracle

>  <origin>  (27) 
adg

>  <m_score__min__energy>  (27) 
-9.6199999999999992

>  <m_primary>  (27) 
energy

$$$$
27:0
     RDKit          3D

 24 24  0  0  0  0  0  0  0  0999 V2000
   57.0160   30.6150   43.3570 C   0  0  0  0  0  0  0  0  0  0  0  0
   55.7130   29.8330   43.4920 C   0  0  0  0  0  0  0  0  0  0  0  0
   55.6650   29.1230   44.7670 N   0  0  0  0  0  0  0  0  0  0  0  0
   56.7250   28.8300   45.4540 C   0  0  0  0  0  0  0  0  0  0  0  0
   57.1100   27.4190   45.7350 C   0  0  0  0  0  0  0  0  0  0  0  0
   56.1580   26.4170   46.0010 C   0  0  0  0  0  0  0  0  0  0  0  0
   54.7960   26.7010   46.0040 O   0  0  0  0  0  0  0  0  0  0  0  0
   56.5640   25.1510   46.2650 N   0  0  0  0  0  0  0  0  0  0  0  0
   57.8790   24.8120   46.2710 C   0  0  0  0  0  0  0  0  0  0  0  0
   58.2040   23.6230   46.5440 O   0  0  0  0  0  0  0  0  0  0  0  0
   58.8370   25.7490   45.9880 N   0  0  0  0  0  0  0  0  0  0  0  0
   60.2630   25.3810   46.0220 C   0  0  0  0  0  0  0  0  0  0  0  0
   58.4690   27.0500   45.7460 C   0  0  0  0  0  0  0  0  0  0  0  0
   59.3530   27.9260   45.5350 O   0  0  0  0  0  0  0  0  0  0  0  0
   57.4078   30.8502   44.3576 H   0  0  0  0  0  0  0  0  0  0  0  0
   57.7520   30.0092   42.8080 H   0  0  0  0  0  0  0  0  0  0  0  0
   56.8276   31.5494   42.8080 H   0  0  0  0  0  0  0  0  0  0  0  0
   54.8654   30.5319   43.4361 H   0  0  0  0  0  0  0  0  0  0  0  0
   55.6567   29.0974   42.6761 H   0  0  0  0  0  0  0  0  0  0  0  0
   57.3561   29.6445   45.8391 H   0  0  0  0  0  0  0  0  0  0  0  0
   55.8430   24.4220   46.4730 H   0  0  0  0  0  0  0  0  0  0  0  0
   60.5948   25.2954   47.0673 H   0  0  0  0  0  0  0  0  0  0  0  0
   60.4051   24.4168   45.5121 H   0  0  0  0  0  0  0  0  0  0  0  0
   60.8540   26.1561   45.5121 H   0  0  0  0  0  0  0  0  0  0  0  0
  1  2  1  0
  2  3  1  0
  3  4  2  3
  4  5  1  0
  5  6  2  0
  6  7  1  0
  6  8  1  0
  8  9  1  0
  9 10  2  0
  9 11  1  0
 11 12  1  0
 11 13  1  0
 13 14  2  0
 13  5  1  0
  1 15  1  0
  1 16  1  0
  1 17  1  0
  2 18  1  0
  2 19  1  0
  4 20  1  0
  8 21  1  0
 12 22  1  0
 12 23  1  0
 12 24  1  0
M  CHG  1   7  -1
M  END
>  <UniqueID>  (28) 
27

>  <SMILES>  (28) 
CCN=Cc1c([O-])[nH]c(=O)n(C)c1=O

>  <Energy>  (28) 
24.593409234353555

>  <Genealogy>  (28) 
CCN=Cc1c([O-])[nH]c(=O)n(C)c1=O (protonated)
CCN=Cc1c([O-])[nH]c(=O)n(C)c1=O (3D coordinates assigned)
CCN=Cc1c([O-])[nH]c(=O)n(C)c1=O (optimized conformer: 24.593409234353555 kcal/mol)

>  <smiles>  (28) 
CCN=Cc1c(O)[nH]c(=O)n(C)c1=O

>  <score_type>  (28) 
oracle

>  <origin>  (28) 
adg

>  <m_score__min__energy>  (28) 
-8.2599999999999998

>  <m_primary>  (28) 
energy

$$$$
28:0
     RDKit          3D

 46 49  0  0  0  0  0  0  0  0999 V2000
   55.4890   28.2750   53.8080 C   0  0  0  0  0  0  0  0  0  0  0  0
   56.2990   29.2780   53.0280 C   0  0  0  0  0  0  0  0  0  0  0  0
   57.7020   29.2210   53.1150 C   0  0  0  0  0  0  0  0  0  0  0  0
   58.5100   30.1570   52.4530 C   0  0  0  0  0  0  0  0  0  0  0  0
   59.9860   30.0700   52.5730 C   0  0  0  0  0  0  0  0  0  0  0  0
   60.4960   29.9380   53.7190 O   0  0  0  0  0  0  0  0  0  0  0  0
   60.8350   30.1250   51.4100 N   0  0  0  0  0  0  0  0  0  0  0  0
   62.2710   30.1460   51.4700 C   0  0  0  0  0  0  0  0  0  0  0  0
   62.9490   29.0590   52.0410 C   0  0  0  0  0  0  0  0  0  0  0  0
   64.3450   29.0380   52.0940 C   0  0  0  0  0  0  0  0  0  0  0  0
   65.0870   30.1000   51.5590 C   0  0  0  0  0  0  0  0  0  0  0  0
   66.4900   30.0890   51.6070 C   0  0  0  0  0  0  0  0  0  0  0  0
   67.2180   31.1500   51.0600 C   0  0  0  0  0  0  0  0  0  0  0  0
   66.5550   32.2260   50.4630 C   0  0  0  0  0  0  0  0  0  0  0  0
   65.1580   32.2490   50.4100 C   0  0  0  0  0  0  0  0  0  0  0  0
   64.4140   31.1920   50.9580 C   0  0  0  0  0  0  0  0  0  0  0  0
   63.0120   31.2040   50.9100 C   0  0  0  0  0  0  0  0  0  0  0  0
   57.8990   31.1500   51.6710 C   0  0  0  0  0  0  0  0  0  0  0  0
   56.5090   31.2050   51.5580 C   0  0  0  0  0  0  0  0  0  0  0  0
   55.6950   30.2680   52.2140 C   0  0  0  0  0  0  0  0  0  0  0  0
   54.2290   30.3540   52.0270 C   0  0  0  0  0  0  0  0  0  0  0  0
   53.3240   29.3530   52.3360 C   0  0  0  0  0  0  0  0  0  0  0  0
   52.0700   29.8580   52.0540 C   0  0  0  0  0  0  0  0  0  0  0  0
   52.2650   31.1490   51.5980 C   0  0  0  0  0  0  0  0  0  0  0  0
   51.2040   32.0840   51.1960 C   0  0  0  0  0  0  0  0  0  0  0  0
   50.3840   32.7080   52.1810 N   0  0  0  0  0  0  0  0  0  0  0  0
   51.0130   32.3350   49.9770 O   0  0  0  0  0  0  0  0  0  0  0  0
   53.5770   31.4490   51.5880 N   0  0  0  0  0  0  0  0  0  0  0  0
   55.6292   28.4486   54.8851 H   0  0  0  0  0  0  0  0  0  0  0  0
   54.4245   28.3864   53.5541 H   0  0  0  0  0  0  0  0  0  0  0  0
   55.8220   27.2578   53.5541 H   0  0  0  0  0  0  0  0  0  0  0  0
   58.1740   28.4277   53.7133 H   0  0  0  0  0  0  0  0  0  0  0  0
   60.4030   30.0990   50.4610 H   0  0  0  0  0  0  0  0  0  0  0  0
   62.3758   28.2145   52.4512 H   0  0  0  0  0  0  0  0  0  0  0  0
   64.8634   28.1854   52.5570 H   0  0  0  0  0  0  0  0  0  0  0  0
   67.0171   29.2448   52.0754 H   0  0  0  0  0  0  0  0  0  0  0  0
   68.3172   31.1379   51.0996 H   0  0  0  0  0  0  0  0  0  0  0  0
   67.1339   33.0570   50.0337 H   0  0  0  0  0  0  0  0  0  0  0  0
   64.6407   33.0972   49.9379 H   0  0  0  0  0  0  0  0  0  0  0  0
   62.4885   32.0451   50.4320 H   0  0  0  0  0  0  0  0  0  0  0  0
   58.5198   31.8895   51.1439 H   0  0  0  0  0  0  0  0  0  0  0  0
   56.0450   31.9931   50.9467 H   0  0  0  0  0  0  0  0  0  0  0  0
   53.5577   28.3525   52.7288 H   0  0  0  0  0  0  0  0  0  0  0  0
   51.1079   29.3373   52.1691 H   0  0  0  0  0  0  0  0  0  0  0  0
   49.9330   33.6320   51.9970 H   0  0  0  0  0  0  0  0  0  0  0  0
   54.0010   32.3680   51.3290 H   0  0  0  0  0  0  0  0  0  0  0  0
  1  2  1  0
  2  3  2  0
  3  4  1  0
  4  5  1  0
  5  6  2  0
  5  7  1  0
  7  8  1  0
  8  9  2  0
  9 10  1  0
 10 11  2  0
 11 12  1  0
 12 13  2  0
 13 14  1  0
 14 15  2  0
 15 16  1  0
 16 17  2  0
  4 18  2  0
 18 19  1  0
 19 20  2  0
 20 21  1  0
 21 22  2  0
 22 23  1  0
 23 24  2  0
 24 25  1  0
 25 26  1  0
 25 27  2  0
 24 28  1  0
 20  2  1  0
 28 21  1  0
 17  8  1  0
 16 11  1  0
  1 29  1  0
  1 30  1  0
  1 31  1  0
  3 32  1  0
  7 33  1  0
  9 34  1  0
 10 35  1  0
 12 36  1  0
 13 37  1  0
 14 38  1  0
 15 39  1  0
 17 40  1  0
 18 41  1  0
 19 42  1  0
 22 43  1  0
 23 44  1  0
 26 45  1  0
 28 46  1  0
M  CHG  1  26  -1
M  END
>  <UniqueID>  (29) 
28

>  <SMILES>  (29) 
Cc1cc(C(=O)Nc2ccc3ccccc3c2)ccc1-c1ccc(C([NH-])=O)[nH]1

>  <Energy>  (29) 
90.24200355404201

>  <Genealogy>  (29) 
Cc1cc(C(=O)Nc2ccc3ccccc3c2)ccc1-c1ccc(C([NH-])=O)[nH]1 (protonated)
Cc1cc(C(=O)Nc2ccc3ccccc3c2)ccc1-c1ccc(C([NH-])=O)[nH]1 (3D coordinates assigned)
Cc1cc(C(=O)Nc2ccc3ccccc3c2)ccc1-c1ccc(C([NH-])=O)[nH]1 (optimized conformer: 90.24200355404201 kcal/mol)

>  <smiles>  (29) 
Cc1cc(C(=O)Nc2ccc3ccccc3c2)ccc1-c1ccc(C(N)=O)[nH]1

>  <score_type>  (29) 
oracle

>  <origin>  (29) 
adg

>  <m_score__min__energy>  (29) 
-11.41

>  <m_primary>  (29) 
energy

$$$$
29:0
     RDKit          3D

 59 61  0  0  0  0  0  0  0  0999 V2000
   50.6400   31.9720   48.8720 C   0  0  0  0  0  0  0  0  0  0  0  0
   51.4030   32.6960   49.8810 N   0  0  0  0  0  0  0  0  0  0  0  0
   51.4260   32.3150   51.2580 C   0  0  0  0  0  0  0  0  0  0  0  0
   50.6440   32.8640   52.0830 O   0  0  0  0  0  0  0  0  0  0  0  0
   52.3440   31.2630   51.7070 C   0  0  0  0  0  0  0  0  0  0  0  0
   53.0680   30.3920   50.9170 C   0  0  0  0  0  0  0  0  0  0  0  0
   53.7700   29.5570   51.7070 N   0  0  0  0  0  0  0  0  0  0  0  0
   53.5240   29.8880   52.9690 N   0  0  0  0  0  0  0  0  0  0  0  0
   54.0140   29.1480   54.1410 C   0  0  0  0  0  0  0  0  0  0  0  0
   54.6880   30.0840   55.1850 C   0  0  0  0  0  0  0  0  0  0  0  0
   56.2200   29.9390   55.2550 C   0  0  0  0  0  0  0  0  0  0  0  0
   56.7960   29.7050   53.9230 N   0  0  0  0  0  0  0  0  0  0  0  0
   58.0030   30.4040   53.5370 C   0  0  0  0  0  0  0  0  0  0  0  0
   58.8300   30.7520   54.4220 O   0  0  0  0  0  0  0  0  0  0  0  0
   58.2710   30.7950   52.1310 C   0  0  0  0  0  0  0  0  0  0  0  0
   57.6740   31.9480   51.5880 C   0  0  0  0  0  0  0  0  0  0  0  0
   57.9390   32.3390   50.2750 C   0  0  0  0  0  0  0  0  0  0  0  0
   58.7620   31.5660   49.4530 C   0  0  0  0  0  0  0  0  0  0  0  0
   59.0310   32.0360   48.1560 O   0  0  0  0  0  0  0  0  0  0  0  0
   58.6790   33.3250   47.6480 C   0  0  0  0  0  0  0  0  0  0  0  0
   57.8780   33.1470   46.3620 C   0  0  0  0  0  0  0  0  0  0  0  0
   59.9430   34.1510   47.3850 C   0  0  0  0  0  0  0  0  0  0  0  0
   59.2790   30.3580   49.9530 C   0  0  0  0  0  0  0  0  0  0  0  0
   59.0400   29.9670   51.2770 C   0  0  0  0  0  0  0  0  0  0  0  0
   59.5400   28.6960   51.7020 N   0  0  0  0  0  0  0  0  0  0  0  0
   60.9330   27.9420   51.0030 S   0  0  0  0  0  0  0  0  0  0  0  0
   62.3460   28.9880   51.2650 C   0  0  0  0  0  0  0  0  0  0  0  0
   61.1850   26.6130   51.6600 O   0  0  0  0  0  0  0  0  0  0  0  0
   60.7220   27.7380   49.5290 O   0  0  0  0  0  0  0  0  0  0  0  0
   56.2410   28.6300   53.0830 C   0  0  0  0  0  0  0  0  0  0  0  0
   54.9630   28.0300   53.6860 C   0  0  0  0  0  0  0  0  0  0  0  0
   52.6550   30.9170   53.0070 C   0  0  0  0  0  0  0  0  0  0  0  0
   49.9273   31.2957   49.3666 H   0  0  0  0  0  0  0  0  0  0  0  0
   50.0902   32.6885   48.2440 H   0  0  0  0  0  0  0  0  0  0  0  0
   51.3267   31.3854   48.2440 H   0  0  0  0  0  0  0  0  0  0  0  0
   53.0709   30.3817   49.8171 H   0  0  0  0  0  0  0  0  0  0  0  0
   53.1502   28.6946   54.6493 H   0  0  0  0  0  0  0  0  0  0  0  0
   54.4502   31.1251   54.9214 H   0  0  0  0  0  0  0  0  0  0  0  0
   54.2945   29.7981   56.1716 H   0  0  0  0  0  0  0  0  0  0  0  0
   56.6484   30.8616   55.6736 H   0  0  0  0  0  0  0  0  0  0  0  0
   56.4581   29.0750   55.8928 H   0  0  0  0  0  0  0  0  0  0  0  0
   56.9902   32.5482   52.2062 H   0  0  0  0  0  0  0  0  0  0  0  0
   57.4949   33.2660   49.8832 H   0  0  0  0  0  0  0  0  0  0  0  0
   58.0670   33.8626   48.3872 H   0  0  0  0  0  0  0  0  0  0  0  0
   56.8320   32.9146   46.6107 H   0  0  0  0  0  0  0  0  0  0  0  0
   57.9174   34.0758   45.7740 H   0  0  0  0  0  0  0  0  0  0  0  0
   58.3070   32.3223   45.7740 H   0  0  0  0  0  0  0  0  0  0  0  0
   60.3944   34.4460   48.3438 H   0  0  0  0  0  0  0  0  0  0  0  0
   60.6622   33.5481   46.8112 H   0  0  0  0  0  0  0  0  0  0  0  0
   59.6796   35.0518   46.8112 H   0  0  0  0  0  0  0  0  0  0  0  0
   59.8791   29.7113   49.2960 H   0  0  0  0  0  0  0  0  0  0  0  0
   62.5146   29.1128   52.3448 H   0  0  0  0  0  0  0  0  0  0  0  0
   63.2333   28.5274   50.8062 H   0  0  0  0  0  0  0  0  0  0  0  0
   62.1645   29.9711   50.8062 H   0  0  0  0  0  0  0  0  0  0  0  0
   56.0061   29.0408   52.0900 H   0  0  0  0  0  0  0  0  0  0  0  0
   56.9926   27.8297   53.0152 H   0  0  0  0  0  0  0  0  0  0  0  0
   54.4592   27.4122   52.9280 H   0  0  0  0  0  0  0  0  0  0  0  0
   55.2327   27.4129   54.5557 H   0  0  0  0  0  0  0  0  0  0  0  0
   52.2620   31.3975   53.9151 H   0  0  0  0  0  0  0  0  0  0  0  0
  1  2  1  0
  2  3  1  0
  3  4  2  0
  3  5  1  0
  5  6  1  0
  6  7  2  0
  7  8  1  0
  8  9  1  0
  9 10  1  0
 10 11  1  0
 11 12  1  0
 12 13  1  0
 13 14  2  0
 13 15  1  0
 15 16  2  0
 16 17  1  0
 17 18  2  0
 18 19  1  0
 19 20  1  0
 20 21  1  0
 20 22  1  0
 18 23  1  0
 23 24  2  0
 24 25  1  0
 25 26  1  0
 26 27  1  0
 26 28  2  0
 26 29  2  0
 12 30  1  0
 30 31  1  0
  8 32  1  0
 32  5  2  0
 31  9  1  0
 24 15  1  0
  1 33  1  0
  1 34  1  0
  1 35  1  0
  6 36  1  0
  9 37  1  0
 10 38  1  0
 10 39  1  0
 11 40  1  0
 11 41  1  0
 16 42  1  0
 17 43  1  0
 20 44  1  0
 21 45  1  0
 21 46  1  0
 21 47  1  0
 22 48  1  0
 22 49  1  0
 22 50  1  0
 23 51  1  0
 27 52  1  0
 27 53  1  0
 27 54  1  0
 30 55  1  0
 30 56  1  0
 31 57  1  0
 31 58  1  0
 32 59  1  0
M  CHG  2   2  -1  25  -1
M  END
>  <UniqueID>  (30) 
29

>  <SMILES>  (30) 
C[N-]C(=O)c1cnn(C2CCN(C(=O)c3ccc(OC(C)C)cc3[N-]S(C)(=O)=O)CC2)c1

>  <Energy>  (30) 
98.97663981417666

>  <Genealogy>  (30) 
C[N-]C(=O)c1cnn(C2CCN(C(=O)c3ccc(OC(C)C)cc3[N-]S(C)(=O)=O)CC2)c1 (protonated)
C[N-]C(=O)c1cnn(C2CCN(C(=O)c3ccc(OC(C)C)cc3[N-]S(C)(=O)=O)CC2)c1 (3D coordinates assigned)
C[N-]C(=O)c1cnn(C2CCN(C(=O)c3ccc(OC(C)C)cc3[N-]S(C)(=O)=O)CC2)c1 (nonaromatic ring conformer: 98.97663981417666 kcal/mol)

>  <smiles>  (30) 
CNC(=O)c1cnn(C2CCN(C(=O)c3ccc(OC(C)C)cc3NS(C)(=O)=O)CC2)c1

>  <score_type>  (30) 
oracle

>  <origin>  (30) 
adg

>  <m_score__min__energy>  (30) 
-11.09

>  <m_primary>  (30) 
energy

$$$$
30:0
     RDKit          3D

 60 62  0  0  0  0  0  0  0  0999 V2000
   58.1510   34.2110   46.8660 C   0  0  0  0  0  0  0  0  0  0  0  0
   59.6500   34.7520   46.0740 S   0  0  0  0  0  0  0  0  0  0  0  0
   59.6760   36.2530   46.0060 O   0  0  0  0  0  0  0  0  0  0  0  0
   59.7000   34.2020   44.6740 O   0  0  0  0  0  0  0  0  0  0  0  0
   61.0360   34.1840   47.0000 C   0  0  0  0  0  0  0  0  0  0  0  0
   62.0680   33.4680   46.3750 C   0  0  0  0  0  0  0  0  0  0  0  0
   63.1560   33.0110   47.1250 C   0  0  0  0  0  0  0  0  0  0  0  0
   63.2160   33.2570   48.5010 C   0  0  0  0  0  0  0  0  0  0  0  0
   62.1850   33.9700   49.1370 C   0  0  0  0  0  0  0  0  0  0  0  0
   62.2330   34.2360   50.6170 C   0  0  0  0  0  0  0  0  0  0  0  0
   61.2940   33.3660   51.3220 N   0  0  0  0  0  0  0  0  0  0  0  0
   60.0220   32.9620   50.8040 C   0  0  0  0  0  0  0  0  0  0  0  0
   59.0300   33.7220   50.9480 O   0  0  0  0  0  0  0  0  0  0  0  0
   59.8600   31.7100   50.1240 N   0  0  0  0  0  0  0  0  0  0  0  0
   60.0630   30.4690   50.8840 C   0  0  0  0  0  0  0  0  0  0  0  0
   59.4440   29.2610   50.1660 C   0  0  0  0  0  0  0  0  0  0  0  0
   60.2780   28.7660   48.9750 C   0  0  0  0  0  0  0  0  0  0  0  0
   59.9610   29.5230   47.7490 N   0  0  0  0  0  0  0  0  0  0  0  0
   59.6260   28.8220   46.5320 C   0  0  0  0  0  0  0  0  0  0  0  0
   60.4880   28.1090   45.9470 O   0  0  0  0  0  0  0  0  0  0  0  0
   58.3030   28.9170   45.9860 N   0  0  0  0  0  0  0  0  0  0  0  0
   57.9870   29.5780   44.7240 C   0  0  0  0  0  0  0  0  0  0  0  0
   58.4320   31.0610   44.7630 C   0  0  0  0  0  0  0  0  0  0  0  0
   57.5900   31.9820   43.8560 C   0  0  0  0  0  0  0  0  0  0  0  0
   57.0220   31.2230   42.6530 C   0  0  0  0  0  0  0  0  0  0  0  0
   56.0890   30.0800   43.0970 C   0  0  0  0  0  0  0  0  0  0  0  0
   56.4800   29.4600   44.4570 C   0  0  0  0  0  0  0  0  0  0  0  0
   60.0610   30.9970   47.6980 C   0  0  0  0  0  0  0  0  0  0  0  0
   59.2470   31.7350   48.7820 C   0  0  0  0  0  0  0  0  0  0  0  0
   61.0950   34.4290   48.3790 C   0  0  0  0  0  0  0  0  0  0  0  0
   58.2763   34.2562   47.9579 H   0  0  0  0  0  0  0  0  0  0  0  0
   57.3202   34.8660   46.5648 H   0  0  0  0  0  0  0  0  0  0  0  0
   57.9300   33.1764   46.5648 H   0  0  0  0  0  0  0  0  0  0  0  0
   62.0212   33.2661   45.2947 H   0  0  0  0  0  0  0  0  0  0  0  0
   63.9675   32.4562   46.6315 H   0  0  0  0  0  0  0  0  0  0  0  0
   64.0723   32.8914   49.0867 H   0  0  0  0  0  0  0  0  0  0  0  0
   63.2513   34.0452   50.9866 H   0  0  0  0  0  0  0  0  0  0  0  0
   61.9544   35.2843   50.8002 H   0  0  0  0  0  0  0  0  0  0  0  0
   61.1426   30.2974   51.0062 H   0  0  0  0  0  0  0  0  0  0  0  0
   59.5705   30.5787   51.8615 H   0  0  0  0  0  0  0  0  0  0  0  0
   59.3463   28.4380   50.8893 H   0  0  0  0  0  0  0  0  0  0  0  0
   58.4702   29.5834   49.7688 H   0  0  0  0  0  0  0  0  0  0  0  0
   61.3457   28.8916   49.2080 H   0  0  0  0  0  0  0  0  0  0  0  0
   60.0405   27.7062   48.8006 H   0  0  0  0  0  0  0  0  0  0  0  0
   58.5339   29.0886   43.9046 H   0  0  0  0  0  0  0  0  0  0  0  0
   58.3486   31.4221   45.7987 H   0  0  0  0  0  0  0  0  0  0  0  0
   59.4660   31.0977   44.3894 H   0  0  0  0  0  0  0  0  0  0  0  0
   56.7567   32.3958   44.4428 H   0  0  0  0  0  0  0  0  0  0  0  0
   58.2422   32.7840   43.4799 H   0  0  0  0  0  0  0  0  0  0  0  0
   56.4543   31.9240   42.0235 H   0  0  0  0  0  0  0  0  0  0  0  0
   57.8615   30.7858   42.0925 H   0  0  0  0  0  0  0  0  0  0  0  0
   55.0659   30.4762   43.1760 H   0  0  0  0  0  0  0  0  0  0  0  0
   56.1703   29.2837   42.3425 H   0  0  0  0  0  0  0  0  0  0  0  0
   55.9345   29.9825   45.2567 H   0  0  0  0  0  0  0  0  0  0  0  0
   56.2191   28.3916   44.4339 H   0  0  0  0  0  0  0  0  0  0  0  0
   61.1192   31.2732   47.8163 H   0  0  0  0  0  0  0  0  0  0  0  0
   59.6400   31.3043   46.7293 H   0  0  0  0  0  0  0  0  0  0  0  0
   59.1353   32.7850   48.4738 H   0  0  0  0  0  0  0  0  0  0  0  0
   58.2844   31.2093   48.8656 H   0  0  0  0  0  0  0  0  0  0  0  0
   60.2826   34.9842   48.8707 H   0  0  0  0  0  0  0  0  0  0  0  0
  1  2  1  0
  2  3  2  0
  2  4  2  0
  2  5  1  0
  5  6  2  0
  6  7  1  0
  7  8  2  0
  8  9  1  0
  9 10  1  0
 10 11  1  0
 11 12  1  0
 12 13  2  0
 12 14  1  0
 14 15  1  0
 15 16  1  0
 16 17  1  0
 17 18  1  0
 18 19  1  0
 19 20  2  0
 19 21  1  0
 21 22  1  0
 22 23  1  0
 23 24  1  0
 24 25  1  0
 25 26  1  0
 26 27  1  0
 18 28  1  0
 28 29  1  0
  9 30  2  0
 30  5  1  0
 29 14  1  0
 27 22  1  0
  1 31  1  0
  1 32  1  0
  1 33  1  0
  6 34  1  0
  7 35  1  0
  8 36  1  0
 10 37  1  0
 10 38  1  0
 15 39  1  0
 15 40  1  0
 16 41  1  0
 16 42  1  0
 17 43  1  0
 17 44  1  0
 22 45  1  0
 23 46  1  0
 23 47  1  0
 24 48  1  0
 24 49  1  0
 25 50  1  0
 25 51  1  0
 26 52  1  0
 26 53  1  0
 27 54  1  0
 27 55  1  0
 28 56  1  0
 28 57  1  0
 29 58  1  0
 29 59  1  0
 30 60  1  0
M  CHG  2  11  -1  21  -1
M  END
>  <UniqueID>  (31) 
30

>  <SMILES>  (31) 
CS(=O)(=O)c1cccc(C[N-]C(=O)N2CCCN(C(=O)[N-]C3CCCCC3)CC2)c1

>  <Energy>  (31) 
61.42921674735581

>  <Genealogy>  (31) 
CS(=O)(=O)c1cccc(C[N-]C(=O)N2CCCN(C(=O)[N-]C3CCCCC3)CC2)c1 (protonated)
CS(=O)(=O)c1cccc(C[N-]C(=O)N2CCCN(C(=O)[N-]C3CCCCC3)CC2)c1 (3D coordinates assigned)
CS(=O)(=O)c1cccc(C[N-]C(=O)N2CCCN(C(=O)[N-]C3CCCCC3)CC2)c1 (nonaromatic ring conformer: 61.42921674735581 kcal/mol)

>  <smiles>  (31) 
CS(=O)(=O)c1cccc(CNC(=O)N2CCCN(C(=O)NC3CCCCC3)CC2)c1

>  <score_type>  (31) 
oracle

>  <origin>  (31) 
adg

>  <m_score__min__energy>  (31) 
-12.119999999999999

>  <m_primary>  (31) 
energy

$$$$
31:0
     RDKit          3D

 49 51  0  0  0  0  0  0  0  0999 V2000
   56.3070   28.9820   44.8360 C   0  0  0  0  0  0  0  0  0  0  0  0
   56.8700   30.2770   44.3570 C   0  0  0  0  0  0  0  0  0  0  0  0
   57.3390   30.5300   43.0800 C   0  0  0  0  0  0  0  0  0  0  0  0
   57.6530   31.8750   43.0970 C   0  0  0  0  0  0  0  0  0  0  0  0
   58.1260   32.6670   41.9190 C   0  0  0  0  0  0  0  0  0  0  0  0
   57.3540   32.3770   44.3170 N   0  0  0  0  0  0  0  0  0  0  0  0
   57.3940   33.7800   44.7350 C   0  0  0  0  0  0  0  0  0  0  0  0
   58.7360   34.1250   45.3940 C   0  0  0  0  0  0  0  0  0  0  0  0
   59.3830   32.9180   45.9090 N   0  0  0  0  0  0  0  0  0  0  0  0
   59.1000   32.4090   47.2230 C   0  0  0  0  0  0  0  0  0  0  0  0
   58.6530   33.1870   48.1100 O   0  0  0  0  0  0  0  0  0  0  0  0
   59.2820   30.9810   47.5510 C   0  0  0  0  0  0  0  0  0  0  0  0
   59.8730   30.5110   48.7120 C   0  0  0  0  0  0  0  0  0  0  0  0
   59.7910   29.1330   48.6560 C   0  0  0  0  0  0  0  0  0  0  0  0
   60.2830   28.1900   49.7080 C   0  0  0  0  0  0  0  0  0  0  0  0
   59.1600   28.8150   47.4580 C   0  0  0  0  0  0  0  0  0  0  0  0
   58.8480   27.4660   46.9460 C   0  0  0  0  0  0  0  0  0  0  0  0
   59.7630   26.7350   46.4770 O   0  0  0  0  0  0  0  0  0  0  0  0
   57.4880   27.0120   46.9340 N   0  0  0  0  0  0  0  0  0  0  0  0
   57.0220   25.8100   46.3050 C   0  0  0  0  0  0  0  0  0  0  0  0
   57.9400   24.7770   46.0730 C   0  0  0  0  0  0  0  0  0  0  0  0
   57.5270   23.5870   45.4620 C   0  0  0  0  0  0  0  0  0  0  0  0
   56.1970   23.4320   45.0600 C   0  0  0  0  0  0  0  0  0  0  0  0
   55.2810   24.4700   45.2570 C   0  0  0  0  0  0  0  0  0  0  0  0
   55.6890   25.6630   45.8670 C   0  0  0  0  0  0  0  0  0  0  0  0
   54.7730   26.7040   46.0010 O   0  0  0  0  0  0  0  0  0  0  0  0
   58.8480   29.9470   46.7960 N   0  0  0  0  0  0  0  0  0  0  0  0
   56.8710   31.4120   45.0840 N   0  0  0  0  0  0  0  0  0  0  0  0
   56.3014   28.9691   45.9359 H   0  0  0  0  0  0  0  0  0  0  0  0
   55.2785   28.8689   44.4627 H   0  0  0  0  0  0  0  0  0  0  0  0
   56.9258   28.1527   44.4627 H   0  0  0  0  0  0  0  0  0  0  0  0
   57.4388   29.8226   42.2436 H   0  0  0  0  0  0  0  0  0  0  0  0
   58.6606   33.5621   42.2697 H   0  0  0  0  0  0  0  0  0  0  0  0
   58.8037   32.0501   41.3106 H   0  0  0  0  0  0  0  0  0  0  0  0
   57.2615   32.9711   41.3106 H   0  0  0  0  0  0  0  0  0  0  0  0
   57.2523   34.4214   43.8526 H   0  0  0  0  0  0  0  0  0  0  0  0
   56.5923   33.9475   45.4693 H   0  0  0  0  0  0  0  0  0  0  0  0
   59.3933   34.5977   44.6493 H   0  0  0  0  0  0  0  0  0  0  0  0
   58.5526   34.8137   46.2319 H   0  0  0  0  0  0  0  0  0  0  0  0
   59.9140   32.3340   45.2240 H   0  0  0  0  0  0  0  0  0  0  0  0
   60.3183   31.1139   49.5171 H   0  0  0  0  0  0  0  0  0  0  0  0
   60.0662   28.6055   50.7032 H   0  0  0  0  0  0  0  0  0  0  0  0
   59.7760   27.2201   49.5972 H   0  0  0  0  0  0  0  0  0  0  0  0
   61.3685   28.0510   49.5972 H   0  0  0  0  0  0  0  0  0  0  0  0
   58.9910   24.9018   46.3726 H   0  0  0  0  0  0  0  0  0  0  0  0
   58.2492   22.7736   45.2982 H   0  0  0  0  0  0  0  0  0  0  0  0
   55.8710   22.4931   44.5886 H   0  0  0  0  0  0  0  0  0  0  0  0
   54.2371   24.3493   44.9320 H   0  0  0  0  0  0  0  0  0  0  0  0
   58.3490   29.9980   45.8790 H   0  0  0  0  0  0  0  0  0  0  0  0
  1  2  1  0
  2  3  1  0
  3  4  2  0
  4  5  1  0
  4  6  1  0
  6  7  1  0
  7  8  1  0
  8  9  1  0
  9 10  1  0
 10 11  2  0
 10 12  1  0
 12 13  2  0
 13 14  1  0
 14 15  1  0
 14 16  2  0
 16 17  1  0
 17 18  2  0
 17 19  1  0
 19 20  1  0
 20 21  2  0
 21 22  1  0
 22 23  2  0
 23 24  1  0
 24 25  2  0
 25 26  1  0
 16 27  1  0
  6 28  1  0
 28  2  2  0
 27 12  1  0
 25 20  1  0
  1 29  1  0
  1 30  1  0
  1 31  1  0
  3 32  1  0
  5 33  1  0
  5 34  1  0
  5 35  1  0
  7 36  1  0
  7 37  1  0
  8 38  1  0
  8 39  1  0
  9 40  1  0
 13 41  1  0
 15 42  1  0
 15 43  1  0
 15 44  1  0
 21 45  1  0
 22 46  1  0
 23 47  1  0
 24 48  1  0
 27 49  1  0
M  CHG  2  19  -1  26  -1
M  END
>  <UniqueID>  (32) 
31

>  <SMILES>  (32) 
Cc1cc(C)n(CCNC(=O)c2cc(C)c(C(=O)[N-]c3ccccc3[O-])[nH]2)n1

>  <Energy>  (32) 
102.43357307719769

>  <Genealogy>  (32) 
Cc1cc(C)n(CCNC(=O)c2cc(C)c(C(=O)[N-]c3ccccc3[O-])[nH]2)n1 (protonated)
Cc1cc(C)n(CCNC(=O)c2cc(C)c(C(=O)[N-]c3ccccc3[O-])[nH]2)n1 (3D coordinates assigned)
Cc1cc(C)n(CCNC(=O)c2cc(C)c(C(=O)[N-]c3ccccc3[O-])[nH]2)n1 (optimized conformer: 102.43357307719769 kcal/mol)

>  <smiles>  (32) 
Cc1cc(C)n(CCNC(=O)c2cc(C)c(C(=O)Nc3ccccc3O)[nH]2)n1

>  <score_type>  (32) 
oracle

>  <origin>  (32) 
adg

>  <m_score__min__energy>  (32) 
-14.1

>  <m_primary>  (32) 
energy

$$$$
32:0
     RDKit          3D

 56 59  0  0  0  0  0  0  0  0999 V2000
   59.0530   34.8890   45.2490 C   0  0  0  0  0  0  0  0  0  0  0  0
   57.4930   34.0550   45.0430 S   0  0  0  0  0  0  0  0  0  0  0  0
   57.0270   33.5660   46.3870 O   0  0  0  0  0  0  0  0  0  0  0  0
   56.4750   35.0150   44.4960 O   0  0  0  0  0  0  0  0  0  0  0  0
   57.6650   32.6440   43.9560 C   0  0  0  0  0  0  0  0  0  0  0  0
   56.6390   31.5390   44.2410 C   0  0  0  0  0  0  0  0  0  0  0  0
   57.1830   30.5080   45.1340 N   0  0  0  0  0  0  0  0  0  0  0  0
   56.6590   29.2750   45.3350 C   0  0  0  0  0  0  0  0  0  0  0  0
   55.5040   28.8190   44.7110 O   0  0  0  0  0  0  0  0  0  0  0  0
   57.4120   28.5420   46.2470 C   0  0  0  0  0  0  0  0  0  0  0  0
   57.1390   27.1570   46.6860 C   0  0  0  0  0  0  0  0  0  0  0  0
   55.8700   26.5510   46.4540 N   0  0  0  0  0  0  0  0  0  0  0  0
   58.0350   26.4980   47.2740 O   0  0  0  0  0  0  0  0  0  0  0  0
   58.4420   29.3950   46.6270 C   0  0  0  0  0  0  0  0  0  0  0  0
   59.5060   29.2200   47.5150 C   0  0  0  0  0  0  0  0  0  0  0  0
   60.4090   30.2840   47.7060 C   0  0  0  0  0  0  0  0  0  0  0  0
   60.2100   31.5160   47.0240 C   0  0  0  0  0  0  0  0  0  0  0  0
   59.1370   31.6570   46.1220 C   0  0  0  0  0  0  0  0  0  0  0  0
   58.2670   30.5770   45.9400 C   0  0  0  0  0  0  0  0  0  0  0  0
   61.1990   32.6460   47.1790 C   0  0  0  0  0  0  0  0  0  0  0  0
   61.9210   32.5940   48.4670 N   0  0  0  0  0  0  0  0  0  0  0  0
   61.0600   33.0190   49.5960 C   0  0  0  0  0  0  0  0  0  0  0  0
   61.2380   32.1050   50.8170 C   0  0  0  0  0  0  0  0  0  0  0  0
   59.9520   31.3870   51.1340 C   0  0  0  0  0  0  0  0  0  0  0  0
   59.9760   30.1400   51.7770 C   0  0  0  0  0  0  0  0  0  0  0  0
   58.7810   29.4940   52.1060 C   0  0  0  0  0  0  0  0  0  0  0  0
   57.5540   30.0930   51.8050 C   0  0  0  0  0  0  0  0  0  0  0  0
   56.3670   29.4500   52.1380 O   0  0  0  0  0  0  0  0  0  0  0  0
   57.5220   31.3400   51.1740 C   0  0  0  0  0  0  0  0  0  0  0  0
   58.7160   31.9900   50.8450 C   0  0  0  0  0  0  0  0  0  0  0  0
   62.5490   31.2660   48.6480 C   0  0  0  0  0  0  0  0  0  0  0  0
   61.5210   30.1240   48.7110 C   0  0  0  0  0  0  0  0  0  0  0  0
   59.2684   35.0042   46.3215 H   0  0  0  0  0  0  0  0  0  0  0  0
   59.8505   34.2969   44.7763 H   0  0  0  0  0  0  0  0  0  0  0  0
   59.0036   35.8811   44.7763 H   0  0  0  0  0  0  0  0  0  0  0  0
   57.5353   32.9835   42.9178 H   0  0  0  0  0  0  0  0  0  0  0  0
   58.6643   32.2171   44.1266 H   0  0  0  0  0  0  0  0  0  0  0  0
   55.7534   31.9886   44.7138 H   0  0  0  0  0  0  0  0  0  0  0  0
   56.3768   31.0607   43.2857 H   0  0  0  0  0  0  0  0  0  0  0  0
   55.1470   27.0230   45.8670 H   0  0  0  0  0  0  0  0  0  0  0  0
   59.6361   28.2702   48.0544 H   0  0  0  0  0  0  0  0  0  0  0  0
   58.9864   32.5976   45.5719 H   0  0  0  0  0  0  0  0  0  0  0  0
   61.9322   32.5876   46.3611 H   0  0  0  0  0  0  0  0  0  0  0  0
   60.6349   33.5899   47.1502 H   0  0  0  0  0  0  0  0  0  0  0  0
   61.3246   34.0485   49.8790 H   0  0  0  0  0  0  0  0  0  0  0  0
   60.0109   32.9586   49.2707 H   0  0  0  0  0  0  0  0  0  0  0  0
   62.0223   31.3641   50.6027 H   0  0  0  0  0  0  0  0  0  0  0  0
   61.5228   32.7211   51.6826 H   0  0  0  0  0  0  0  0  0  0  0  0
   60.9391   29.6690   52.0231 H   0  0  0  0  0  0  0  0  0  0  0  0
   58.8059   28.5128   52.6025 H   0  0  0  0  0  0  0  0  0  0  0  0
   56.5567   31.8106   50.9359 H   0  0  0  0  0  0  0  0  0  0  0  0
   58.6874   32.9762   50.3586 H   0  0  0  0  0  0  0  0  0  0  0  0
   63.2288   31.0807   47.8033 H   0  0  0  0  0  0  0  0  0  0  0  0
   63.0857   31.2817   49.6080 H   0  0  0  0  0  0  0  0  0  0  0  0
   62.0387   29.1736   48.5142 H   0  0  0  0  0  0  0  0  0  0  0  0
   61.0673   30.1412   49.7129 H   0  0  0  0  0  0  0  0  0  0  0  0
  1  2  1  0
  2  3  2  0
  2  4  2  0
  2  5  1  0
  5  6  1  0
  6  7  1  0
  7  8  1  0
  8  9  1  0
  8 10  2  0
 10 11  1  0
 11 12  1  0
 11 13  2  0
 10 14  1  0
 14 15  2  0
 15 16  1  0
 16 17  2  0
 17 18  1  0
 18 19  2  0
 17 20  1  0
 20 21  1  0
 21 22  1  0
 22 23  1  0
 23 24  1  0
 24 25  2  0
 25 26  1  0
 26 27  2  0
 27 28  1  0
 27 29  1  0
 29 30  2  0
 21 31  1  0
 31 32  1  0
 19  7  1  0
 30 24  1  0
 19 14  1  0
 32 16  1  0
  1 33  1  0
  1 34  1  0
  1 35  1  0
  5 36  1  0
  5 37  1  0
  6 38  1  0
  6 39  1  0
 12 40  1  0
 15 41  1  0
 18 42  1  0
 20 43  1  0
 20 44  1  0
 22 45  1  0
 22 46  1  0
 23 47  1  0
 23 48  1  0
 25 49  1  0
 26 50  1  0
 29 51  1  0
 30 52  1  0
 31 53  1  0
 31 54  1  0
 32 55  1  0
 32 56  1  0
M  CHG  3   9  -1  12  -1  28  -1
M  END
>  <UniqueID>  (33) 
32

>  <SMILES>  (33) 
CS(=O)(=O)CCn1c([O-])c(C([NH-])=O)c2cc3c(cc21)CN(CCc1ccc([O-])cc1)CC3

>  <Energy>  (33) 
90.64947169345679

>  <Genealogy>  (33) 
CS(=O)(=O)CCn1c([O-])c(C([NH-])=O)c2cc3c(cc21)CN(CCc1ccc([O-])cc1)CC3 (protonated)
CS(=O)(=O)CCn1c([O-])c(C([NH-])=O)c2cc3c(cc21)CN(CCc1ccc([O-])cc1)CC3 (3D coordinates assigned)
CS(=O)(=O)CCn1c([O-])c(C([NH-])=O)c2cc3c(cc21)CN(CCc1ccc([O-])cc1)CC3 (nonaromatic ring conformer: 90.64947169345679 kcal/mol)

>  <smiles>  (33) 
CS(=O)(=O)CCn1c(O)c(C(N)=O)c2cc3c(cc21)CN(CCc1ccc(O)cc1)CC3

>  <score_type>  (33) 
oracle

>  <origin>  (33) 
adg

>  <m_score__min__energy>  (33) 
-14.52

>  <m_primary>  (33) 
energy

$$$$
33:0
     RDKit          3D

 34 35  0  0  0  0  0  0  0  0999 V2000
   57.2329   21.0101   47.7910 H   0  0  0  0  0  0  0  0  0  0  0  0
   56.8980   21.7870   47.0880 C   0  0  0  0  0  0  0  0  0  0  0  0
   57.0120   23.1000   47.4210 N   0  0  0  0  0  0  0  0  0  0  0  0
   56.6300   24.1010   46.5810 C   0  0  0  0  0  0  0  0  0  0  0  0
   56.7480   25.3330   46.9900 N   0  0  0  0  0  0  0  0  0  0  0  0
   56.3510   26.5100   46.2780 C   0  0  0  0  0  0  0  0  0  0  0  0
   55.1350   26.6780   45.9940 O   0  0  0  0  0  0  0  0  0  0  0  0
   57.3120   27.5270   45.9730 N   0  0  0  0  0  0  0  0  0  0  0  0
   57.2930   28.3130   44.7460 C   0  0  0  0  0  0  0  0  0  0  0  0
   56.9227   27.6907   43.9180 H   0  0  0  0  0  0  0  0  0  0  0  0
   58.3116   28.6600   44.5179 H   0  0  0  0  0  0  0  0  0  0  0  0
   56.3900   29.4980   44.9230 C   0  0  0  0  0  0  0  0  0  0  0  0
   55.1460   29.3320   44.8260 O   0  0  0  0  0  0  0  0  0  0  0  0
   56.8930   30.8220   45.1530 N   0  0  0  0  0  0  0  0  0  0  0  0
   58.1970   31.3380   44.7410 C   0  0  0  0  0  0  0  0  0  0  0  0
   58.8839   30.4933   44.5840 H   0  0  0  0  0  0  0  0  0  0  0  0
   58.0671   31.9103   43.8106 H   0  0  0  0  0  0  0  0  0  0  0  0
   58.7770   32.2560   45.7900 C   0  0  0  0  0  0  0  0  0  0  0  0
   59.7680   31.7760   46.6660 C   0  0  0  0  0  0  0  0  0  0  0  0
   60.1194   30.7375   46.5760 H   0  0  0  0  0  0  0  0  0  0  0  0
   60.3090   32.6080   47.6490 C   0  0  0  0  0  0  0  0  0  0  0  0
   61.0956   32.2285   48.3177 H   0  0  0  0  0  0  0  0  0  0  0  0
   59.8530   33.9200   47.7840 C   0  0  0  0  0  0  0  0  0  0  0  0
   60.2789   34.5733   48.5598 H   0  0  0  0  0  0  0  0  0  0  0  0
   58.8570   34.4030   46.9350 C   0  0  0  0  0  0  0  0  0  0  0  0
   58.4887   35.4325   47.0551 H   0  0  0  0  0  0  0  0  0  0  0  0
   58.3230   33.5860   45.9310 C   0  0  0  0  0  0  0  0  0  0  0  0
   57.0850   34.2590   44.8760 Cl  0  0  0  0  0  0  0  0  0  0  0  0
   56.0740   23.7660   45.3280 C   0  0  0  0  0  0  0  0  0  0  0  0
   55.7553   24.5569   44.6331 H   0  0  0  0  0  0  0  0  0  0  0  0
   55.9320   22.4220   44.9780 C   0  0  0  0  0  0  0  0  0  0  0  0
   55.4852   22.1501   44.0103 H   0  0  0  0  0  0  0  0  0  0  0  0
   56.3560   21.4250   45.8540 C   0  0  0  0  0  0  0  0  0  0  0  0
   56.1870   19.5840   45.3740 Br  0  0  0  0  0  0  0  0  0  0  0  0
  1  2  1  0
  2  3  1  0
  3  4  1  0
  4  5  2  0
  5  6  1  0
  6  7  2  0
  6  8  1  0
  8  9  1  0
  9 10  1  0
  9 11  1  0
  9 12  1  0
 12 13  2  0
 12 14  1  0
 14 15  1  0
 15 16  1  0
 15 17  1  0
 15 18  1  0
 18 19  2  0
 19 20  1  0
 19 21  1  0
 21 22  1  0
 21 23  2  0
 23 24  1  0
 23 25  1  0
 25 26  1  0
 25 27  2  0
 27 28  1  0
  4 29  1  0
 29 30  1  0
 29 31  2  0
 31 32  1  0
 31 33  1  0
 33 34  1  0
 33  2  2  0
 27 18  1  0
M  CHG  3   3  -1   8  -1  14  -1
M  END
>  <UniqueID>  (34) 
33

>  <SMILES>  (34) 
O=C(C[N-]C(=O)/N=c1\ccc(Br)c[n-]1)[N-]Cc1ccccc1Cl

>  <Energy>  (34) 
37.12408158674447

>  <Genealogy>  (34) 
O=C(C[N-]C(=O)N=c1ccc(Br)c[n-]1)[N-]Cc1ccccc1Cl (protonated)
O=C(C[N-]C(=O)/N=c1\ccc(Br)c[n-]1)[N-]Cc1ccccc1Cl (cis-trans isomerization)
O=C(C[N-]C(=O)/N=c1\ccc(Br)c[n-]1)[N-]Cc1ccccc1Cl (3D coordinates assigned)
O=C(C[N-]C(=O)/N=c1\ccc(Br)c[n-]1)[N-]Cc1ccccc1Cl (optimized conformer: 37.12408158674447 kcal/mol)

>  <smiles>  (34) 
O=C(CNC(=O)N=c1ccc(Br)c[nH]1)NCc1ccccc1Cl

>  <score_type>  (34) 
oracle

>  <origin>  (34) 
adg

>  <m_score__min__energy>  (34) 
-12.029999999999999

>  <m_primary>  (34) 
energy

$$$$
34:0
     RDKit          3D

 52 55  0  0  1  0  0  0  0  0999 V2000
   63.7570   33.4570   46.7620 C   0  0  0  0  0  0  0  0  0  0  0  0
   63.6350   33.6650   48.2380 C   0  0  0  0  0  0  0  0  0  0  0  0
   64.4990   32.7090   49.0430 C   0  0  0  0  0  0  0  0  0  0  0  0
   62.2480   33.5040   48.6840 N   0  0  0  0  0  0  0  0  0  0  0  0
   61.1690   33.2660   47.8990 C   0  0  0  0  0  0  0  0  0  0  0  0
   60.0280   33.1770   48.6960 C   0  0  0  0  0  0  0  0  0  0  0  0
   58.7150   32.9770   48.1580 C   0  0  0  0  0  0  0  0  0  0  0  0
   57.7960   32.6450   48.9790 O   0  0  0  0  0  0  0  0  0  0  0  0
   58.3160   33.1090   46.7690 C   0  0  0  0  0  0  0  0  0  0  0  0
   58.3740   34.3080   46.0740 C   0  0  0  0  0  0  0  0  0  0  0  0
   57.9950   34.4370   44.7570 C   0  0  0  0  0  0  0  0  0  0  0  0
   57.5470   33.3480   44.1130 N   0  0  0  0  0  0  0  0  0  0  0  0
   57.4660   32.1450   44.7300 C   0  0  0  0  0  0  0  0  0  0  0  0
   57.0320   31.1690   44.0420 N   0  0  0  0  0  0  0  0  0  0  0  0
   57.1510   29.8300   44.4960 C   0  0  0  0  0  0  0  0  0  0  0  0
   56.3260   29.2520   45.2370 O   0  0  0  0  0  0  0  0  0  0  0  0
   58.2940   29.0420   44.0960 N   0  0  0  0  0  0  0  0  0  0  0  0
   58.3200   27.7050   44.6020 C   0  0  0  0  0  0  0  0  0  0  0  0
   58.9640   27.4920   45.8310 C   0  0  0  0  0  0  0  0  0  0  0  0
   59.0170   26.2230   46.3650 C   0  0  0  0  0  0  0  0  0  0  0  0
   58.4550   25.1550   45.7230 C   0  0  0  0  0  0  0  0  0  0  0  0
   57.8150   25.3670   44.5020 C   0  0  0  0  0  0  0  0  0  0  0  0
   57.0300   23.8690   43.6270 Br  0  0  0  0  0  0  0  0  0  0  0  0
   57.7480   26.6380   43.9410 C   0  0  0  0  0  0  0  0  0  0  0  0
   57.8460   32.0220   46.0520 C   0  0  0  0  0  0  0  0  0  0  0  0
   60.4940   33.3720   49.9790 C   0  0  0  0  0  0  0  0  0  0  0  0
   59.8270   33.3850   51.1760 C   0  0  0  0  0  0  0  0  0  0  0  0
   58.5650   33.1890   51.2660 N   0  0  0  0  0  0  0  0  0  0  0  0
   60.5280   33.5950   52.3120 N   0  0  0  0  0  0  0  0  0  0  0  0
   61.8760   33.7930   52.2850 C   0  0  0  0  0  0  0  0  0  0  0  0
   62.5400   33.7800   51.0960 N   0  0  0  0  0  0  0  0  0  0  0  0
   61.8710   33.5750   49.9670 C   0  0  0  0  0  0  0  0  0  0  0  0
   64.3047   32.5231   46.5674 H   0  0  0  0  0  0  0  0  0  0  0  0
   62.7533   33.3930   46.3165 H   0  0  0  0  0  0  0  0  0  0  0  0
   64.3027   34.3018   46.3165 H   0  0  0  0  0  0  0  0  0  0  0  0
   63.9817   34.6935   48.4170 H   0  0  0  0  0  0  0  0  0  0  0  0
   64.3391   32.8860   50.1168 H   0  0  0  0  0  0  0  0  0  0  0  0
   64.2254   31.6722   48.7975 H   0  0  0  0  0  0  0  0  0  0  0  0
   65.5581   32.8767   48.7975 H   0  0  0  0  0  0  0  0  0  0  0  0
   61.1900   33.1597   46.8044 H   0  0  0  0  0  0  0  0  0  0  0  0
   58.7413   35.2005   46.6018 H   0  0  0  0  0  0  0  0  0  0  0  0
   58.0577   35.4086   44.2450 H   0  0  0  0  0  0  0  0  0  0  0  0
   57.2510   33.4480   43.0940 H   0  0  0  0  0  0  0  0  0  0  0  0
   59.0390   29.4280   43.4810 H   0  0  0  0  0  0  0  0  0  0  0  0
   59.4248   28.3355   46.3660 H   0  0  0  0  0  0  0  0  0  0  0  0
   59.5227   26.0658   47.3292 H   0  0  0  0  0  0  0  0  0  0  0  0
   58.5065   24.1473   46.1611 H   0  0  0  0  0  0  0  0  0  0  0  0
   57.2421   26.7913   42.9764 H   0  0  0  0  0  0  0  0  0  0  0  0
   57.7738   31.0413   46.5449 H   0  0  0  0  0  0  0  0  0  0  0  0
   58.0310   32.5840   50.6000 H   0  0  0  0  0  0  0  0  0  0  0  0
   60.0840   33.6180   53.2590 H   0  0  0  0  0  0  0  0  0  0  0  0
   62.4268   33.9630   53.2219 H   0  0  0  0  0  0  0  0  0  0  0  0
  1  2  1  0
  2  3  1  0
  2  4  1  0
  4  5  1  0
  5  6  2  0
  6  7  1  0
  7  8  2  0
  7  9  1  0
  9 10  1  0
 10 11  2  0
 11 12  1  0
 12 13  1  0
 13 14  2  0
 14 15  1  0
 15 16  2  0
 15 17  1  0
 17 18  1  0
 18 19  2  0
 19 20  1  0
 20 21  2  0
 21 22  1  0
 22 23  1  0
 22 24  2  0
 13 25  1  0
  6 26  1  0
 26 27  1  0
 27 28  2  3
 27 29  1  0
 29 30  1  0
 30 31  2  0
 31 32  1  0
 32  4  1  0
 25  9  2  0
 32 26  2  0
 24 18  1  0
  1 33  1  0
  1 34  1  0
  1 35  1  0
  2 36  1  0
  3 37  1  0
  3 38  1  0
  3 39  1  0
  5 40  1  0
 10 41  1  0
 11 42  1  0
 12 43  1  0
 17 44  1  0
 19 45  1  0
 20 46  1  0
 21 47  1  0
 24 48  1  0
 25 49  1  0
 28 50  1  0
 29 51  1  0
 30 52  1  0
M  END
>  <smiles>  (35) 
CC(C)n1cc(C(=O)c2cc[nH]c(=NC(=O)Nc3cccc(Br)c3)c2)c2c(=N)[nH]cnc21

>  <score_type>  (35) 
oracle

>  <origin>  (35) 
adg

>  <m_score__min__energy>  (35) 
-9.3599999999999994

>  <m_primary>  (35) 
energy

$$$$
35:0
     RDKit          3D

 43 45  0  0  0  0  0  0  0  0999 V2000
   58.1610   31.1260   45.8440 C   0  0  0  0  0  0  0  0  0  0  0  0
   57.7860   31.0120   44.5650 C   0  0  0  0  0  0  0  0  0  0  0  0
   58.1810   31.9000   43.6280 N   0  0  0  0  0  0  0  0  0  0  0  0
   57.4920   31.6230   42.5070 C   0  0  0  0  0  0  0  0  0  0  0  0
   57.6660   32.3610   41.2190 C   0  0  0  0  0  0  0  0  0  0  0  0
   56.6670   30.5340   42.6990 C   0  0  0  0  0  0  0  0  0  0  0  0
   56.8660   30.1130   44.0060 C   0  0  0  0  0  0  0  0  0  0  0  0
   56.2570   29.0320   44.5270 C   0  0  0  0  0  0  0  0  0  0  0  0
   56.9000   28.0150   45.3730 C   0  0  0  0  0  0  0  0  0  0  0  0
   58.2370   27.8740   45.5160 N   0  0  0  0  0  0  0  0  0  0  0  0
   58.3630   26.7430   46.2440 C   0  0  0  0  0  0  0  0  0  0  0  0
   59.4790   26.2700   46.5830 O   0  0  0  0  0  0  0  0  0  0  0  0
   57.1840   26.1610   46.5500 N   0  0  0  0  0  0  0  0  0  0  0  0
   56.9660   24.8870   47.2320 C   0  0  0  0  0  0  0  0  0  0  0  0
   57.4560   23.7520   46.3720 C   0  0  0  0  0  0  0  0  0  0  0  0
   57.3440   22.6070   46.7880 O   0  0  0  0  0  0  0  0  0  0  0  0
   58.0680   24.0140   45.0800 N   0  0  2  0  0  0  0  0  0  0  0  0
   57.0790   24.4840   44.0840 C   0  0  0  0  0  0  0  0  0  0  0  0
   56.2730   23.3640   43.4720 C   0  0  0  0  0  0  0  0  0  0  0  0
   56.7140   22.1000   43.4470 C   0  0  0  0  0  0  0  0  0  0  0  0
   57.9480   21.6680   44.1900 C   0  0  0  0  0  0  0  0  0  0  0  0
   58.8410   22.8560   44.5840 C   0  0  0  0  0  0  0  0  0  0  0  0
   56.2640   26.9530   45.9740 C   0  0  0  0  0  0  0  0  0  0  0  0
   54.8950   26.7130   45.9820 O   0  0  0  0  0  0  0  0  0  0  0  0
   57.8226   30.3862   46.5844 H   0  0  0  0  0  0  0  0  0  0  0  0
   58.8078   31.9595   46.1553 H   0  0  0  0  0  0  0  0  0  0  0  0
   58.8530   32.6910   43.7580 H   0  0  0  0  0  0  0  0  0  0  0  0
   57.9138   33.4119   41.4292 H   0  0  0  0  0  0  0  0  0  0  0  0
   58.4803   31.9010   40.6400 H   0  0  0  0  0  0  0  0  0  0  0  0
   56.7320   32.3132   40.6400 H   0  0  0  0  0  0  0  0  0  0  0  0
   55.9851   30.0871   41.9606 H   0  0  0  0  0  0  0  0  0  0  0  0
   55.1888   28.8977   44.3013 H   0  0  0  0  0  0  0  0  0  0  0  0
   57.5153   24.8853   48.1851 H   0  0  0  0  0  0  0  0  0  0  0  0
   55.8901   24.7582   47.4213 H   0  0  0  0  0  0  0  0  0  0  0  0
   58.7540   24.7960   45.2070 H   0  0  0  0  0  0  0  0  0  0  0  0
   56.3879   25.1816   44.5798 H   0  0  0  0  0  0  0  0  0  0  0  0
   57.6393   24.9664   43.2695 H   0  0  0  0  0  0  0  0  0  0  0  0
   55.2913   23.5938   43.0322 H   0  0  0  0  0  0  0  0  0  0  0  0
   56.1553   21.3531   42.8639 H   0  0  0  0  0  0  0  0  0  0  0  0
   57.6425   21.1374   45.1038 H   0  0  0  0  0  0  0  0  0  0  0  0
   58.5312   21.0172   43.5219 H   0  0  0  0  0  0  0  0  0  0  0  0
   59.5314   22.5293   45.3756 H   0  0  0  0  0  0  0  0  0  0  0  0
   59.3792   23.1795   43.6809 H   0  0  0  0  0  0  0  0  0  0  0  0
  1  2  2  0
  2  3  1  0
  3  4  1  0
  4  5  1  0
  4  6  2  0
  6  7  1  0
  7  8  2  3
  8  9  1  0
  9 10  1  0
 10 11  1  0
 11 12  2  0
 11 13  1  0
 13 14  1  0
 14 15  1  0
 15 16  2  0
 15 17  1  0
 17 18  1  0
 18 19  1  0
 19 20  2  0
 20 21  1  0
 21 22  1  0
 13 23  1  0
 23 24  1  0
  7  2  1  0
 23  9  2  0
 22 17  1  0
  1 25  1  0
  1 26  1  0
  3 27  1  0
  5 28  1  0
  5 29  1  0
  5 30  1  0
  6 31  1  0
  8 32  1  0
 14 33  1  0
 14 34  1  0
 17 35  1  1
 18 36  1  0
 18 37  1  0
 19 38  1  0
 20 39  1  0
 21 40  1  0
 21 41  1  0
 22 42  1  0
 22 43  1  0
M  CHG  3  10  -1  17   1  24  -1
M  END
>  <UniqueID>  (36) 
34

>  <SMILES>  (36) 
C=c1[nH]c(C)cc1=Cc1[n-]c(=O)n(CC(=O)[N@@H+]2CC=CCC2)c1[O-]

>  <Energy>  (36) 
115.02306472888364

>  <Genealogy>  (36) 
C=c1[nH]c(C)cc1=Cc1[n-]c(=O)n(CC(=O)[NH+]2CC=CCC2)c1[O-] (protonated)
C=c1[nH]c(C)cc1=Cc1[n-]c(=O)n(CC(=O)[N@@H+]2CC=CCC2)c1[O-] (chirality)
C=c1[nH]c(C)cc1=Cc1[n-]c(=O)n(CC(=O)[N@@H+]2CC=CCC2)c1[O-] (3D coordinates assigned)
C=c1[nH]c(C)cc1=Cc1[n-]c(=O)n(CC(=O)[N@@H+]2CC=CCC2)c1[O-] (nonaromatic ring conformer: 115.02306472888364 kcal/mol)

>  <smiles>  (36) 
C=c1[nH]c(C)cc1=Cc1[nH]c(=O)n(CC(=O)N2CC=CCC2)c1O

>  <score_type>  (36) 
oracle

>  <origin>  (36) 
adg

>  <m_score__min__energy>  (36) 
-11.34

>  <m_primary>  (36) 
energy

$$$$
36:0
     RDKit          3D

 63 66  0  0  1  0  0  0  0  0999 V2000
   62.9770   33.5850   48.4220 C   0  0  0  0  0  0  0  0  0  0  0  0
   62.1300   33.2140   49.4950 O   0  0  0  0  0  0  0  0  0  0  0  0
   62.3060   31.9920   50.0970 C   0  0  0  0  0  0  0  0  0  0  0  0
   63.5490   31.6110   50.5890 C   0  0  0  0  0  0  0  0  0  0  0  0
   63.7410   30.3680   51.2030 C   0  0  0  0  0  0  0  0  0  0  0  0
   65.0250   30.0080   51.6810 N   0  0  0  0  0  0  0  0  0  0  0  0
   65.2870   28.9970   52.6760 C   0  0  0  0  0  0  0  0  0  0  0  0
   66.2630   27.9480   52.1820 C   0  0  0  0  0  0  0  0  0  0  0  0
   67.2070   28.4520   51.2660 N   0  0  0  0  0  0  0  0  0  0  0  0
   67.8740   27.4380   50.1170 S   0  0  0  0  0  0  0  0  0  0  0  0
   68.9410   26.1850   50.7980 C   0  0  0  0  0  0  0  0  0  0  0  0
   68.6210   28.1980   49.0320 O   0  0  0  0  0  0  0  0  0  0  0  0
   66.7730   26.6940   49.3780 O   0  0  0  0  0  0  0  0  0  0  0  0
   67.4150   29.8400   51.1930 C   0  0  0  0  0  0  0  0  0  0  0  0
   66.1840   30.7000   51.1190 C   0  0  0  0  0  0  0  0  0  0  0  0
   62.6270   29.5650   51.2830 C   0  0  0  0  0  0  0  0  0  0  0  0
   60.2140   29.5100   45.6480 C   0  0  0  0  0  0  0  0  0  0  0  0
   59.0460   30.1210   45.2720 C   0  0  0  0  0  0  0  0  0  0  0  0
   59.9320   31.5270   49.6920 N   0  0  0  0  0  0  0  0  0  0  0  0
   59.7050   32.1570   48.6100 C   0  0  0  0  0  0  0  0  0  0  0  0
   59.7790   33.4990   48.6340 N   0  0  0  0  0  0  0  0  0  0  0  0
   59.5480   34.2150   47.5060 C   0  0  0  0  0  0  0  0  0  0  0  0
   59.2330   33.5170   46.3340 C   0  0  0  0  0  0  0  0  0  0  0  0
   58.9280   34.4320   44.8650 Cl  0  0  0  0  0  0  0  0  0  0  0  0
   59.1740   32.1410   46.3820 C   0  0  0  0  0  0  0  0  0  0  0  0
   58.8790   31.5340   45.2770 N   0  0  0  0  0  0  0  0  0  0  0  0
   61.2110   31.1590   50.1940 C   0  0  0  0  0  0  0  0  0  0  0  0
   61.3840   29.9310   50.7970 C   0  0  0  0  0  0  0  0  0  0  0  0
   60.3400   28.1400   45.6320 C   0  0  0  0  0  0  0  0  0  0  0  0
   59.2760   27.3300   45.2300 C   0  0  0  0  0  0  0  0  0  0  0  0
   58.1240   27.9540   44.8600 C   0  0  0  0  0  0  0  0  0  0  0  0
   57.9870   29.3350   44.8740 C   0  0  0  0  0  0  0  0  0  0  0  0
   56.4740   30.1080   44.3860 S   0  0  0  0  0  0  0  0  0  0  0  0
   56.4320   31.7590   44.8540 N   0  0  0  0  0  0  0  0  0  0  0  0
   56.3500   30.0160   42.8820 O   0  0  0  0  0  0  0  0  0  0  0  0
   55.3060   29.3410   44.9470 O   0  0  0  0  0  0  0  0  0  0  0  0
   59.4080   31.4430   47.5160 N   0  0  0  0  0  0  0  0  0  0  0  0
   63.9159   33.9962   48.8213 H   0  0  0  0  0  0  0  0  0  0  0  0
   63.1968   32.7007   47.8057 H   0  0  0  0  0  0  0  0  0  0  0  0
   62.4761   34.3461   47.8057 H   0  0  0  0  0  0  0  0  0  0  0  0
   64.4001   32.3013   50.4937 H   0  0  0  0  0  0  0  0  0  0  0  0
   65.7085   29.4802   53.5698 H   0  0  0  0  0  0  0  0  0  0  0  0
   64.3362   28.4932   52.9045 H   0  0  0  0  0  0  0  0  0  0  0  0
   66.8021   27.5373   53.0484 H   0  0  0  0  0  0  0  0  0  0  0  0
   65.6769   27.1800   51.6561 H   0  0  0  0  0  0  0  0  0  0  0  0
   68.9036   26.2290   51.8965 H   0  0  0  0  0  0  0  0  0  0  0  0
   68.6054   25.1938   50.4591 H   0  0  0  0  0  0  0  0  0  0  0  0
   69.9730   26.3584   50.4591 H   0  0  0  0  0  0  0  0  0  0  0  0
   67.9795   30.1408   52.0879 H   0  0  0  0  0  0  0  0  0  0  0  0
   67.9432   30.0055   50.2424 H   0  0  0  0  0  0  0  0  0  0  0  0
   66.3585   31.6269   51.6850 H   0  0  0  0  0  0  0  0  0  0  0  0
   65.9781   30.9258   50.0623 H   0  0  0  0  0  0  0  0  0  0  0  0
   62.7297   28.5787   51.7590 H   0  0  0  0  0  0  0  0  0  0  0  0
   61.0667   30.1266   45.9686 H   0  0  0  0  0  0  0  0  0  0  0  0
   60.0180   34.0440   49.5140 H   0  0  0  0  0  0  0  0  0  0  0  0
   59.6064   35.3134   47.5116 H   0  0  0  0  0  0  0  0  0  0  0  0
   60.5325   29.2411   50.8919 H   0  0  0  0  0  0  0  0  0  0  0  0
   61.2896   27.6776   45.9393 H   0  0  0  0  0  0  0  0  0  0  0  0
   59.3649   26.2337   45.2130 H   0  0  0  0  0  0  0  0  0  0  0  0
   57.2697   27.3406   44.5378 H   0  0  0  0  0  0  0  0  0  0  0  0
   57.0770   32.3370   44.2410 H   0  0  0  0  0  0  0  0  0  0  0  0
   56.6280   31.9180   45.8550 H   0  0  0  0  0  0  0  0  0  0  0  0
   59.3590   30.3880   47.5400 H   0  0  0  0  0  0  0  0  0  0  0  0
  1  2  1  0
  2  3  1  0
  3  4  2  0
  4  5  1  0
  5  6  1  0
  6  7  1  0
  7  8  1  0
  8  9  1  0
  9 10  1  0
 10 11  1  0
 10 12  2  0
 10 13  2  0
  9 14  1  0
 14 15  1  0
  5 16  2  0
 16 17  1  0
 17 18  2  0
 18 19  1  0
 19 20  2  0
 20 21  1  0
 21 22  1  0
 22 23  2  0
 23 24  1  0
 23 25  1  0
 25 26  2  0
 26 27  1  0
 27 28  2  0
 28 29  1  0
 29 30  2  0
 30 31  1  0
 31 32  2  0
 32 33  1  0
 33 34  1  0
 33 35  2  0
 33 36  2  0
 25 37  1  0
 18  3  1  0
 37 20  1  0
 15  6  1  0
 32 27  1  0
  1 38  1  0
  1 39  1  0
  1 40  1  0
  4 41  1  0
  7 42  1  0
  7 43  1  0
  8 44  1  0
  8 45  1  0
 11 46  1  0
 11 47  1  0
 11 48  1  0
 14 49  1  0
 14 50  1  0
 15 51  1  0
 15 52  1  0
 16 53  1  0
 17 54  1  0
 21 55  1  0
 22 56  1  0
 28 57  1  0
 29 58  1  0
 30 59  1  0
 31 60  1  0
 34 61  1  0
 34 62  1  0
 37 63  1  0
M  END
>  <smiles>  (37) 
COc1cc(N2CCN(S(C)(=O)=O)CC2)ccc1N=c1[nH]cc(Cl)c(=Nc2ccccc2S(N)(=O)=O)[nH]1

>  <score_type>  (37) 
oracle

>  <origin>  (37) 
adg

>  <m_score__min__energy>  (37) 
-10.470000000000001

>  <m_primary>  (37) 
energy

$$$$
37:0
     RDKit          3D

 56 59  0  0  0  0  0  0  0  0999 V2000
   57.2150   24.1110   43.8720 C   0  0  0  0  0  0  0  0  0  0  0  0
   57.7150   25.1730   44.7570 N   0  0  0  0  0  0  0  0  0  0  0  0
   58.7810   24.6560   45.6320 C   0  0  0  0  0  0  0  0  0  0  0  0
   59.4810   25.8360   46.3100 C   0  0  0  0  0  0  0  0  0  0  0  0
   58.5100   26.8670   46.6890 N   0  0  0  0  0  0  0  0  0  0  0  0
   58.9750   28.1510   47.1320 C   0  0  0  0  0  0  0  0  0  0  0  0
   59.7760   28.2390   48.2790 C   0  0  0  0  0  0  0  0  0  0  0  0
   60.2060   29.4820   48.7480 C   0  0  0  0  0  0  0  0  0  0  0  0
   59.8540   30.6590   48.0710 C   0  0  0  0  0  0  0  0  0  0  0  0
   60.3010   31.9820   48.5570 C   0  0  0  0  0  0  0  0  0  0  0  0
   59.5550   32.6450   49.3250 O   0  0  0  0  0  0  0  0  0  0  0  0
   61.5450   32.5520   48.1380 N   0  0  0  0  0  0  0  0  0  0  0  0
   62.2620   33.8170   48.3770 C   0  0  0  0  0  0  0  0  0  0  0  0
   63.3420   33.5840   47.3730 C   0  0  0  0  0  0  0  0  0  0  0  0
   62.6100   32.3030   47.1460 C   0  0  0  0  0  0  0  0  0  0  0  0
   59.0430   30.5720   46.9270 C   0  0  0  0  0  0  0  0  0  0  0  0
   58.6020   29.3280   46.4520 C   0  0  0  0  0  0  0  0  0  0  0  0
   57.8000   29.2630   45.2130 C   0  0  0  0  0  0  0  0  0  0  0  0
   58.1060   28.4230   44.3270 O   0  0  0  0  0  0  0  0  0  0  0  0
   56.6620   30.1060   45.0060 N   0  0  0  0  0  0  0  0  0  0  0  0
   56.6380   31.2470   44.0990 C   0  0  0  0  0  0  0  0  0  0  0  0
   57.4460   32.3650   44.6880 C   0  0  0  0  0  0  0  0  0  0  0  0
   58.4840   32.9590   43.9500 C   0  0  0  0  0  0  0  0  0  0  0  0
   59.2110   34.0250   44.4890 C   0  0  0  0  0  0  0  0  0  0  0  0
   58.8990   34.5120   45.7620 C   0  0  0  0  0  0  0  0  0  0  0  0
   59.6040   35.5470   46.2820 F   0  0  0  0  0  0  0  0  0  0  0  0
   57.8570   33.9370   46.4950 C   0  0  0  0  0  0  0  0  0  0  0  0
   57.1280   32.8710   45.9590 C   0  0  0  0  0  0  0  0  0  0  0  0
   57.0860   26.5310   46.7890 C   0  0  0  0  0  0  0  0  0  0  0  0
   56.6030   25.7540   45.5450 C   0  0  0  0  0  0  0  0  0  0  0  0
   56.8243   23.2812   44.4794 H   0  0  0  0  0  0  0  0  0  0  0  0
   56.4107   24.5111   43.2372 H   0  0  0  0  0  0  0  0  0  0  0  0
   58.0359   23.7460   43.2372 H   0  0  0  0  0  0  0  0  0  0  0  0
   58.3440   23.9969   46.3966 H   0  0  0  0  0  0  0  0  0  0  0  0
   59.5074   24.0836   45.0365 H   0  0  0  0  0  0  0  0  0  0  0  0
   59.9988   25.4786   47.2123 H   0  0  0  0  0  0  0  0  0  0  0  0
   60.2023   26.2725   45.6034 H   0  0  0  0  0  0  0  0  0  0  0  0
   60.0678   27.3228   48.8132 H   0  0  0  0  0  0  0  0  0  0  0  0
   60.8255   29.5386   49.6552 H   0  0  0  0  0  0  0  0  0  0  0  0
   61.6506   34.7013   48.1444 H   0  0  0  0  0  0  0  0  0  0  0  0
   62.5770   34.0250   49.4102 H   0  0  0  0  0  0  0  0  0  0  0  0
   63.3568   34.2799   46.5212 H   0  0  0  0  0  0  0  0  0  0  0  0
   64.4165   33.6461   47.6003 H   0  0  0  0  0  0  0  0  0  0  0  0
   62.2221   32.2118   46.1207 H   0  0  0  0  0  0  0  0  0  0  0  0
   63.1857   31.3718   47.2527 H   0  0  0  0  0  0  0  0  0  0  0  0
   58.7503   31.4906   46.3974 H   0  0  0  0  0  0  0  0  0  0  0  0
   57.0671   30.9547   43.1292 H   0  0  0  0  0  0  0  0  0  0  0  0
   55.5998   31.5798   43.9526 H   0  0  0  0  0  0  0  0  0  0  0  0
   58.7255   32.5840   42.9445 H   0  0  0  0  0  0  0  0  0  0  0  0
   60.0287   34.4806   43.9113 H   0  0  0  0  0  0  0  0  0  0  0  0
   57.6101   34.3236   47.4948 H   0  0  0  0  0  0  0  0  0  0  0  0
   56.3025   32.4271   46.5348 H   0  0  0  0  0  0  0  0  0  0  0  0
   56.9264   25.9104   47.6831 H   0  0  0  0  0  0  0  0  0  0  0  0
   56.5128   27.4674   46.8571 H   0  0  0  0  0  0  0  0  0  0  0  0
   55.9440   24.9377   45.8757 H   0  0  0  0  0  0  0  0  0  0  0  0
   56.0773   26.4686   44.8946 H   0  0  0  0  0  0  0  0  0  0  0  0
  1  2  1  0
  2  3  1  0
  3  4  1  0
  4  5  1  0
  5  6  1  0
  6  7  2  0
  7  8  1  0
  8  9  2  0
  9 10  1  0
 10 11  2  0
 10 12  1  0
 12 13  1  0
 13 14  1  0
 14 15  1  0
  9 16  1  0
 16 17  2  0
 17 18  1  0
 18 19  2  0
 18 20  1  0
 20 21  1  0
 21 22  1  0
 22 23  2  0
 23 24  1  0
 24 25  2  0
 25 26  1  0
 25 27  1  0
 27 28  2  0
  5 29  1  0
 29 30  1  0
 30  2  1  0
 17  6  1  0
 28 22  1  0
 15 12  1  0
  1 31  1  0
  1 32  1  0
  1 33  1  0
  3 34  1  0
  3 35  1  0
  4 36  1  0
  4 37  1  0
  7 38  1  0
  8 39  1  0
 13 40  1  0
 13 41  1  0
 14 42  1  0
 14 43  1  0
 15 44  1  0
 15 45  1  0
 16 46  1  0
 21 47  1  0
 21 48  1  0
 23 49  1  0
 24 50  1  0
 27 51  1  0
 28 52  1  0
 29 53  1  0
 29 54  1  0
 30 55  1  0
 30 56  1  0
M  CHG  1  20  -1
M  END
>  <UniqueID>  (38) 
35

>  <SMILES>  (38) 
CN1CCN(c2ccc(C(=O)N3CCC3)cc2C(=O)[N-]Cc2ccc(F)cc2)CC1

>  <Energy>  (38) 
116.51080492153648

>  <Genealogy>  (38) 
CN1CCN(c2ccc(C(=O)N3CCC3)cc2C(=O)[N-]Cc2ccc(F)cc2)CC1 (protonated)
CN1CCN(c2ccc(C(=O)N3CCC3)cc2C(=O)[N-]Cc2ccc(F)cc2)CC1 (3D coordinates assigned)
CN1CCN(c2ccc(C(=O)N3CCC3)cc2C(=O)[N-]Cc2ccc(F)cc2)CC1 (nonaromatic ring conformer: 116.51080492153648 kcal/mol)

>  <smiles>  (38) 
CN1CCN(c2ccc(C(=O)N3CCC3)cc2C(=O)NCc2ccc(F)cc2)CC1

>  <score_type>  (38) 
oracle

>  <origin>  (38) 
adg

>  <m_score__min__energy>  (38) 
-9.8300000000000001

>  <m_primary>  (38) 
energy

$$$$
38:0
     RDKit          3D

 50 51  0  0  0  0  0  0  0  0999 V2000
   58.0850   32.3390   41.7780 C   0  0  0  0  0  0  0  0  0  0  0  0
   57.4200   32.3340   43.0380 O   0  0  0  0  0  0  0  0  0  0  0  0
   58.0520   32.5570   44.2720 C   0  0  0  0  0  0  0  0  0  0  0  0
   58.4060   33.8500   44.7060 C   0  0  0  0  0  0  0  0  0  0  0  0
   59.0570   34.0300   45.9300 C   0  0  0  0  0  0  0  0  0  0  0  0
   59.3650   32.9280   46.7300 C   0  0  0  0  0  0  0  0  0  0  0  0
   60.1860   33.1580   48.2640 Cl  0  0  0  0  0  0  0  0  0  0  0  0
   59.0150   31.6420   46.3110 C   0  0  0  0  0  0  0  0  0  0  0  0
   58.3520   31.4500   45.0900 C   0  0  0  0  0  0  0  0  0  0  0  0
   58.0050   30.1190   44.6780 N   0  0  0  0  0  0  0  0  0  0  0  0
   59.0450   29.0960   44.5490 C   0  0  0  0  0  0  0  0  0  0  0  0
   58.9870   28.1550   45.7140 C   0  0  0  0  0  0  0  0  0  0  0  0
   59.7890   28.3030   46.6760 O   0  0  0  0  0  0  0  0  0  0  0  0
   58.0080   27.1090   45.7400 N   0  0  0  0  0  0  0  0  0  0  0  0
   57.8330   26.2580   46.9180 C   0  0  0  0  0  0  0  0  0  0  0  0
   56.7270   25.2080   46.7150 C   0  0  0  0  0  0  0  0  0  0  0  0
   56.4080   25.0100   45.2830 N   0  0  0  0  0  0  0  0  0  0  0  0
   57.4930   24.2880   44.5700 C   0  0  0  0  0  0  0  0  0  0  0  0
   57.1180   22.8250   44.2700 C   0  0  0  0  0  0  0  0  0  0  0  0
   55.9450   22.6920   43.4790 O   0  0  0  0  0  0  0  0  0  0  0  0
   54.9870   23.7180   43.7040 C   0  0  0  0  0  0  0  0  0  0  0  0
   55.0860   24.3670   45.0940 C   0  0  0  0  0  0  0  0  0  0  0  0
   56.3650   29.7400   44.2350 S   0  0  0  0  0  0  0  0  0  0  0  0
   56.2600   29.3440   42.5020 C   0  0  0  0  0  0  0  0  0  0  0  0
   55.4860   30.9310   44.5020 O   0  0  0  0  0  0  0  0  0  0  0  0
   55.8790   28.5700   45.0440 O   0  0  0  0  0  0  0  0  0  0  0  0
   59.1733   32.3472   41.9378 H   0  0  0  0  0  0  0  0  0  0  0  0
   57.8043   31.4387   41.2117 H   0  0  0  0  0  0  0  0  0  0  0  0
   57.7908   33.2350   41.2117 H   0  0  0  0  0  0  0  0  0  0  0  0
   58.1690   34.7219   44.0787 H   0  0  0  0  0  0  0  0  0  0  0  0
   59.3273   35.0427   46.2637 H   0  0  0  0  0  0  0  0  0  0  0  0
   59.2607   30.7753   46.9422 H   0  0  0  0  0  0  0  0  0  0  0  0
   58.8878   28.5324   43.6175 H   0  0  0  0  0  0  0  0  0  0  0  0
   60.0305   29.5842   44.5284 H   0  0  0  0  0  0  0  0  0  0  0  0
   57.3680   27.0130   44.9210 H   0  0  0  0  0  0  0  0  0  0  0  0
   58.7808   25.7393   47.1247 H   0  0  0  0  0  0  0  0  0  0  0  0
   57.5382   26.9017   47.7598 H   0  0  0  0  0  0  0  0  0  0  0  0
   57.0635   24.2507   47.1398 H   0  0  0  0  0  0  0  0  0  0  0  0
   55.8185   25.5689   47.2193 H   0  0  0  0  0  0  0  0  0  0  0  0
   57.6968   24.8035   43.6199 H   0  0  0  0  0  0  0  0  0  0  0  0
   58.3799   24.2829   45.2207 H   0  0  0  0  0  0  0  0  0  0  0  0
   57.9550   22.3538   43.7338 H   0  0  0  0  0  0  0  0  0  0  0  0
   56.9146   22.3383   45.2353 H   0  0  0  0  0  0  0  0  0  0  0  0
   55.1326   24.5007   42.9449 H   0  0  0  0  0  0  0  0  0  0  0  0
   53.9944   23.2483   43.6403 H   0  0  0  0  0  0  0  0  0  0  0  0
   54.2977   25.1277   45.1936 H   0  0  0  0  0  0  0  0  0  0  0  0
   54.9626   23.5847   45.8574 H   0  0  0  0  0  0  0  0  0  0  0  0
   55.9797   28.2869   42.3838 H   0  0  0  0  0  0  0  0  0  0  0  0
   55.4996   29.9804   42.0259 H   0  0  0  0  0  0  0  0  0  0  0  0
   57.2359   29.5200   42.0259 H   0  0  0  0  0  0  0  0  0  0  0  0
  1  2  1  0
  2  3  1  0
  3  4  2  0
  4  5  1  0
  5  6  2  0
  6  7  1  0
  6  8  1  0
  8  9  2  0
  9 10  1  0
 10 11  1  0
 11 12  1  0
 12 13  2  0
 12 14  1  0
 14 15  1  0
 15 16  1  0
 16 17  1  0
 17 18  1  0
 18 19  1  0
 19 20  1  0
 20 21  1  0
 21 22  1  0
 10 23  1  0
 23 24  1  0
 23 25  2  0
 23 26  2  0
  9  3  1  0
 22 17  1  0
  1 27  1  0
  1 28  1  0
  1 29  1  0
  4 30  1  0
  5 31  1  0
  8 32  1  0
 11 33  1  0
 11 34  1  0
 14 35  1  0
 15 36  1  0
 15 37  1  0
 16 38  1  0
 16 39  1  0
 18 40  1  0
 18 41  1  0
 19 42  1  0
 19 43  1  0
 21 44  1  0
 21 45  1  0
 22 46  1  0
 22 47  1  0
 24 48  1  0
 24 49  1  0
 24 50  1  0
M  END
>  <UniqueID>  (39) 
36

>  <SMILES>  (39) 
COc1ccc(Cl)cc1N(CC(=O)NCCN1CCOCC1)S(C)(=O)=O

>  <Energy>  (39) 
58.322913352918505

>  <Genealogy>  (39) 
COc1ccc(Cl)cc1N(CC(=O)NCCN1CCOCC1)S(C)(=O)=O (3D coordinates assigned)
COc1ccc(Cl)cc1N(CC(=O)NCCN1CCOCC1)S(C)(=O)=O (nonaromatic ring conformer: 58.322913352918505 kcal/mol)

>  <smiles>  (39) 
COc1ccc(Cl)cc1N(CC(=O)NCCN1CCOCC1)S(C)(=O)=O

>  <score_type>  (39) 
oracle

>  <origin>  (39) 
adg

>  <m_score__min__energy>  (39) 
-8.2400000000000002

>  <m_primary>  (39) 
energy

$$$$
39:0
     RDKit          3D

 56 59  0  0  0  0  0  0  0  0999 V2000
   54.7560   24.0130   44.9000 C   0  0  0  0  0  0  0  0  0  0  0  0
   53.9040   25.0470   45.6180 C   0  0  0  0  0  0  0  0  0  0  0  0
   54.7210   26.2040   45.9620 N   0  0  0  0  0  0  0  0  0  0  0  0
   56.0500   26.1340   46.4940 C   0  0  0  0  0  0  0  0  0  0  0  0
   56.3390   25.1980   47.2840 O   0  0  0  0  0  0  0  0  0  0  0  0
   57.1200   27.1130   46.1030 C   0  0  0  0  0  0  0  0  0  0  0  0
   58.2650   26.3580   44.9590 S   0  0  0  0  0  0  0  0  0  0  0  0
   59.5800   26.1250   45.6500 O   0  0  0  0  0  0  0  0  0  0  0  0
   57.7180   25.0410   44.4860 O   0  0  0  0  0  0  0  0  0  0  0  0
   58.5140   27.4200   43.5460 C   0  0  0  0  0  0  0  0  0  0  0  0
   57.8730   28.7620   43.7720 C   0  0  0  0  0  0  0  0  0  0  0  0
   56.6660   29.0880   43.1330 C   0  0  0  0  0  0  0  0  0  0  0  0
   56.0600   30.3250   43.3650 C   0  0  0  0  0  0  0  0  0  0  0  0
   56.6400   31.2360   44.2510 C   0  0  0  0  0  0  0  0  0  0  0  0
   57.8270   30.9090   44.9250 C   0  0  0  0  0  0  0  0  0  0  0  0
   58.4240   31.8740   45.8640 C   0  0  0  0  0  0  0  0  0  0  0  0
   58.2180   33.2050   45.7620 N   0  0  0  0  0  0  0  0  0  0  0  0
   58.8660   33.7480   46.8090 C   0  0  0  0  0  0  0  0  0  0  0  0
   58.8740   35.1110   47.0740 O   0  0  0  0  0  0  0  0  0  0  0  0
   59.4780   32.7860   47.5860 C   0  0  0  0  0  0  0  0  0  0  0  0
   60.1780   33.0170   48.8690 C   0  0  0  0  0  0  0  0  0  0  0  0
   59.4350   33.2040   49.9720 C   0  0  0  0  0  0  0  0  0  0  0  0
   60.0510   33.4990   51.2710 C   0  0  0  0  0  0  0  0  0  0  0  0
   59.3260   33.6640   52.2880 O   0  0  0  0  0  0  0  0  0  0  0  0
   61.5090   33.6110   51.3710 C   0  0  0  0  0  0  0  0  0  0  0  0
   62.0390   33.8900   52.4800 O   0  0  0  0  0  0  0  0  0  0  0  0
   62.3310   33.3840   50.1550 C   0  0  0  0  0  0  0  0  0  0  0  0
   63.7430   33.4440   50.1940 C   0  0  0  0  0  0  0  0  0  0  0  0
   64.4200   33.7500   51.3700 O   0  0  0  0  0  0  0  0  0  0  0  0
   64.4880   33.1900   49.0420 C   0  0  0  0  0  0  0  0  0  0  0  0
   63.8490   32.8670   47.8470 C   0  0  0  0  0  0  0  0  0  0  0  0
   62.4570   32.8050   47.7910 C   0  0  0  0  0  0  0  0  0  0  0  0
   61.6760   33.0780   48.9330 C   0  0  0  0  0  0  0  0  0  0  0  0
   59.1990   31.5730   46.9820 C   0  0  0  0  0  0  0  0  0  0  0  0
   59.4880   30.2140   47.5510 C   0  0  0  0  0  0  0  0  0  0  0  0
   58.4510   29.6790   44.6650 C   0  0  0  0  0  0  0  0  0  0  0  0
   55.2730   23.3855   45.6409 H   0  0  0  0  0  0  0  0  0  0  0  0
   54.1126   23.3815   44.2698 H   0  0  0  0  0  0  0  0  0  0  0  0
   55.4989   24.5238   44.2698 H   0  0  0  0  0  0  0  0  0  0  0  0
   53.0811   25.3632   44.9601 H   0  0  0  0  0  0  0  0  0  0  0  0
   53.4930   24.6051   46.5377 H   0  0  0  0  0  0  0  0  0  0  0  0
   56.6543   27.9878   45.6257 H   0  0  0  0  0  0  0  0  0  0  0  0
   57.6681   27.4224   47.0051 H   0  0  0  0  0  0  0  0  0  0  0  0
   59.5931   27.5578   43.3832 H   0  0  0  0  0  0  0  0  0  0  0  0
   58.0527   26.9509   42.6645 H   0  0  0  0  0  0  0  0  0  0  0  0
   56.1962   28.3672   42.4477 H   0  0  0  0  0  0  0  0  0  0  0  0
   55.1235   30.5824   42.8486 H   0  0  0  0  0  0  0  0  0  0  0  0
   56.1647   32.2133   44.4211 H   0  0  0  0  0  0  0  0  0  0  0  0
   58.3396   33.1345   49.9002 H   0  0  0  0  0  0  0  0  0  0  0  0
   65.5860   33.2451   49.0775 H   0  0  0  0  0  0  0  0  0  0  0  0
   64.4440   32.6603   46.9452 H   0  0  0  0  0  0  0  0  0  0  0  0
   61.9624   32.5400   46.8449 H   0  0  0  0  0  0  0  0  0  0  0  0
   59.4768   30.2666   48.6497 H   0  0  0  0  0  0  0  0  0  0  0  0
   58.7210   29.5031   47.2101 H   0  0  0  0  0  0  0  0  0  0  0  0
   60.4780   29.8767   47.2101 H   0  0  0  0  0  0  0  0  0  0  0  0
   59.3994   29.4315   45.1642 H   0  0  0  0  0  0  0  0  0  0  0  0
  1  2  1  0
  2  3  1  0
  3  4  1  0
  4  5  2  0
  4  6  1  0
  6  7  1  0
  7  8  2  0
  7  9  2  0
  7 10  1  0
 10 11  1  0
 11 12  2  0
 12 13  1  0
 13 14  2  0
 14 15  1  0
 15 16  1  0
 16 17  1  0
 17 18  1  0
 18 19  1  0
 18 20  2  0
 20 21  1  0
 21 22  2  0
 22 23  1  0
 23 24  2  0
 23 25  1  0
 25 26  2  0
 25 27  1  0
 27 28  2  0
 28 29  1  0
 28 30  1  0
 30 31  2  0
 31 32  1  0
 32 33  2  0
 20 34  1  0
 34 35  1  0
 15 36  2  0
 36 11  1  0
 34 16  2  0
 33 21  1  0
 33 27  1  0
  1 37  1  0
  1 38  1  0
  1 39  1  0
  2 40  1  0
  2 41  1  0
  6 42  1  0
  6 43  1  0
 10 44  1  0
 10 45  1  0
 12 46  1  0
 13 47  1  0
 14 48  1  0
 22 49  1  0
 30 50  1  0
 31 51  1  0
 32 52  1  0
 35 53  1  0
 35 54  1  0
 35 55  1  0
 36 56  1  0
M  CHG  4   3  -1  17  -1  19  -1  29  -1
M  END
>  <UniqueID>  (40) 
37

>  <SMILES>  (40) 
CC[N-]C(=O)CS(=O)(=O)Cc1cccc(-c2[n-]c([O-])c(C3=CC(=O)C(=O)c4c([O-])cccc43)c2C)c1

>  <Energy>  (40) 
86.82914197600431

>  <Genealogy>  (40) 
CC[N-]C(=O)CS(=O)(=O)Cc1cccc(-c2[n-]c([O-])c(C3=CC(=O)C(=O)c4c([O-])cccc43)c2C)c1 (protonated)
CC[N-]C(=O)CS(=O)(=O)Cc1cccc(-c2[n-]c([O-])c(C3=CC(=O)C(=O)c4c([O-])cccc43)c2C)c1 (3D coordinates assigned)
CC[N-]C(=O)CS(=O)(=O)Cc1cccc(-c2[n-]c([O-])c(C3=CC(=O)C(=O)c4c([O-])cccc43)c2C)c1 (nonaromatic ring conformer: 86.82914197600431 kcal/mol)

>  <smiles>  (40) 
CCNC(=O)CS(=O)(=O)Cc1cccc(-c2[nH]c(O)c(C3=CC(=O)C(=O)c4c(O)cccc43)c2C)c1

>  <score_type>  (40) 
oracle

>  <origin>  (40) 
adg

>  <m_score__min__energy>  (40) 
-16.34

>  <m_primary>  (40) 
energy

$$$$
40:0
     RDKit          3D

 47 49  0  0  0  0  0  0  0  0999 V2000
   63.7730   33.4330   48.2160 C   0  0  0  0  0  0  0  0  0  0  0  0
   62.4760   33.8540   48.9000 C   0  0  0  0  0  0  0  0  0  0  0  0
   61.3060   33.4720   48.0800 N   0  0  0  0  0  0  0  0  0  0  0  0
   60.0590   34.0440   48.6200 C   0  0  0  0  0  0  0  0  0  0  0  0
   58.8350   33.4930   47.8540 C   0  0  0  0  0  0  0  0  0  0  0  0
   59.2130   32.9060   46.5490 N   0  0  0  0  0  0  0  0  0  0  0  0
   58.0370   32.7140   45.7200 C   0  0  0  0  0  0  0  0  0  0  0  0
   57.0360   33.3970   45.9060 O   0  0  0  0  0  0  0  0  0  0  0  0
   58.0210   31.6750   44.6210 C   0  0  2  0  0  0  0  0  0  0  0  0
   57.7310   32.3030   43.2650 C   0  0  0  0  0  0  0  0  0  0  0  0
   57.0320   31.2040   42.5010 C   0  0  0  0  0  0  0  0  0  0  0  0
   56.3220   30.3870   43.5700 C   0  0  0  0  0  0  0  0  0  0  0  0
   56.9600   30.6860   44.8690 N   0  0  0  0  0  0  0  0  0  0  0  0
   57.4580   29.5300   45.6630 C   0  0  0  0  0  0  0  0  0  0  0  0
   57.5450   28.2200   44.8820 C   0  0  0  0  0  0  0  0  0  0  0  0
   59.0480   28.1760   45.1410 C   0  0  0  0  0  0  0  0  0  0  0  0
   58.9670   29.4850   45.9180 C   0  0  0  0  0  0  0  0  0  0  0  0
   60.1970   33.7550   45.8490 C   0  0  0  0  0  0  0  0  0  0  0  0
   61.4940   33.9000   46.6770 C   0  0  0  0  0  0  0  0  0  0  0  0
   64.5270   33.1882   48.9786 H   0  0  0  0  0  0  0  0  0  0  0  0
   63.5863   32.5493   47.5881 H   0  0  0  0  0  0  0  0  0  0  0  0
   64.1409   34.2579   47.5881 H   0  0  0  0  0  0  0  0  0  0  0  0
   62.4073   33.3593   49.8801 H   0  0  0  0  0  0  0  0  0  0  0  0
   62.4797   34.9470   49.0242 H   0  0  0  0  0  0  0  0  0  0  0  0
   59.9699   33.7786   49.6838 H   0  0  0  0  0  0  0  0  0  0  0  0
   60.0892   35.1374   48.5033 H   0  0  0  0  0  0  0  0  0  0  0  0
   58.3537   32.7162   48.4663 H   0  0  0  0  0  0  0  0  0  0  0  0
   58.1496   34.3318   47.6624 H   0  0  0  0  0  0  0  0  0  0  0  0
   59.6600   31.9750   46.7260 H   0  0  0  0  0  0  0  0  0  0  0  0
   59.0148   31.2035   44.6162 H   0  0  0  0  0  0  0  0  0  0  0  0
   57.0785   33.1821   43.3718 H   0  0  0  0  0  0  0  0  0  0  0  0
   58.6397   32.6612   42.7591 H   0  0  0  0  0  0  0  0  0  0  0  0
   56.3073   31.6259   41.7892 H   0  0  0  0  0  0  0  0  0  0  0  0
   57.7320   30.5973   41.9078 H   0  0  0  0  0  0  0  0  0  0  0  0
   55.2574   30.6616   43.6046 H   0  0  0  0  0  0  0  0  0  0  0  0
   56.3974   29.3130   43.3444 H   0  0  0  0  0  0  0  0  0  0  0  0
   56.7709   29.6369   46.5154 H   0  0  0  0  0  0  0  0  0  0  0  0
   56.9855   27.3879   45.3343 H   0  0  0  0  0  0  0  0  0  0  0  0
   57.1514   28.1522   43.8571 H   0  0  0  0  0  0  0  0  0  0  0  0
   59.3723   27.3165   45.7460 H   0  0  0  0  0  0  0  0  0  0  0  0
   59.7502   28.0757   44.3003 H   0  0  0  0  0  0  0  0  0  0  0  0
   59.2423   29.3969   46.9793 H   0  0  0  0  0  0  0  0  0  0  0  0
   59.6068   30.3379   45.6473 H   0  0  0  0  0  0  0  0  0  0  0  0
   60.4395   33.2984   44.8781 H   0  0  0  0  0  0  0  0  0  0  0  0
   59.7590   34.7540   45.7072 H   0  0  0  0  0  0  0  0  0  0  0  0
   62.2790   33.2805   46.2188 H   0  0  0  0  0  0  0  0  0  0  0  0
   61.7777   34.9628   46.6810 H   0  0  0  0  0  0  0  0  0  0  0  0
  1  2  1  0
  2  3  1  0
  3  4  1  0
  4  5  1  0
  5  6  1  0
  6  7  1  0
  7  8  2  0
  7  9  1  0
  9 10  1  0
 10 11  1  0
 11 12  1  0
 12 13  1  0
 13 14  1  0
 14 15  1  0
 15 16  1  0
 16 17  1  0
  6 18  1  0
 18 19  1  0
 19  3  1  0
 13  9  1  0
 17 14  1  0
  1 20  1  0
  1 21  1  0
  1 22  1  0
  2 23  1  0
  2 24  1  0
  4 25  1  0
  4 26  1  0
  5 27  1  0
  5 28  1  0
  6 29  1  0
  9 30  1  6
 10 31  1  0
 10 32  1  0
 11 33  1  0
 11 34  1  0
 12 35  1  0
 12 36  1  0
 14 37  1  0
 15 38  1  0
 15 39  1  0
 16 40  1  0
 16 41  1  0
 17 42  1  0
 17 43  1  0
 18 44  1  0
 18 45  1  0
 19 46  1  0
 19 47  1  0
M  CHG  1   6   1
M  END
>  <UniqueID>  (41) 
38

>  <SMILES>  (41) 
CCN1CC[NH+](C(=O)[C@@H]2CCCN2C2CCC2)CC1

>  <Energy>  (41) 
119.10861270207496

>  <Genealogy>  (41) 
CCN1CC[NH+](C(=O)C2CCCN2C2CCC2)CC1 (protonated)
CCN1CC[NH+](C(=O)[C@@H]2CCCN2C2CCC2)CC1 (chirality)
CCN1CC[NH+](C(=O)[C@@H]2CCCN2C2CCC2)CC1 (3D coordinates assigned)
CCN1CC[NH+](C(=O)[C@@H]2CCCN2C2CCC2)CC1 (nonaromatic ring conformer: 119.10861270207496 kcal/mol)

>  <smiles>  (41) 
CCN1CCN(C(=O)C2CCCN2C2CCC2)CC1

>  <score_type>  (41) 
oracle

>  <origin>  (41) 
adg

>  <m_score__min__energy>  (41) 
-5.8499999999999996

>  <m_primary>  (41) 
energy

$$$$
41:0
     RDKit          3D

 52 54  0  0  0  0  0  0  0  0999 V2000
   56.4660   30.0850   43.5250 C   0  0  0  0  0  0  0  0  0  0  0  0
   56.3730   30.8400   44.7280 O   0  0  0  0  0  0  0  0  0  0  0  0
   57.4000   31.6510   45.2320 C   0  0  0  0  0  0  0  0  0  0  0  0
   57.4160   33.0450   45.0580 C   0  0  0  0  0  0  0  0  0  0  0  0
   58.4620   33.8110   45.5790 C   0  0  0  0  0  0  0  0  0  0  0  0
   59.5120   33.2010   46.2930 C   0  0  0  0  0  0  0  0  0  0  0  0
   60.6350   33.9920   46.8670 C   0  0  0  0  0  0  0  0  0  0  0  0
   60.4000   34.8210   47.7880 O   0  0  0  0  0  0  0  0  0  0  0  0
   62.0610   33.8300   46.4120 C   0  0  0  0  0  0  0  0  0  0  0  0
   62.8420   32.9440   47.3480 C   0  0  0  0  0  0  0  0  0  0  0  0
   63.1720   31.7850   46.9750 O   0  0  0  0  0  0  0  0  0  0  0  0
   63.2900   33.4400   48.6690 C   0  0  0  0  0  0  0  0  0  0  0  0
   64.5280   33.5220   48.9050 O   0  0  0  0  0  0  0  0  0  0  0  0
   62.3270   33.7630   49.7100 N   0  0  2  0  0  0  0  0  0  0  0  0
   63.0030   34.1380   50.9670 C   0  0  0  0  0  0  0  0  0  0  0  0
   63.0380   32.9090   51.8700 C   0  0  0  0  0  0  0  0  0  0  0  0
   62.1810   31.8580   51.1820 C   0  0  0  0  0  0  0  0  0  0  0  0
   61.4940   32.5820   50.0260 C   0  0  1  0  0  0  0  0  0  0  0  0
   60.0800   32.9760   50.4290 C   0  0  0  0  0  0  0  0  0  0  0  0
   59.7530   34.1950   50.4310 O   0  0  0  0  0  0  0  0  0  0  0  0
   59.1350   31.9970   50.8980 N   0  0  0  0  0  0  0  0  0  0  0  0
   59.4090   30.5740   51.0200 C   0  0  0  0  0  0  0  0  0  0  0  0
   58.2070   29.9860   51.7470 C   0  0  0  0  0  0  0  0  0  0  0  0
   57.0970   31.0250   51.6250 C   0  0  0  0  0  0  0  0  0  0  0  0
   57.7940   32.3480   51.3320 C   0  0  0  0  0  0  0  0  0  0  0  0
   59.4900   31.8040   46.4580 C   0  0  0  0  0  0  0  0  0  0  0  0
   58.4440   31.0420   45.9340 C   0  0  0  0  0  0  0  0  0  0  0  0
   56.5971   29.0205   43.7694 H   0  0  0  0  0  0  0  0  0  0  0  0
   55.5450   30.2157   42.9380 H   0  0  0  0  0  0  0  0  0  0  0  0
   57.3278   30.4353   42.9380 H   0  0  0  0  0  0  0  0  0  0  0  0
   56.5999   33.5365   44.5081 H   0  0  0  0  0  0  0  0  0  0  0  0
   58.4656   34.9009   45.4302 H   0  0  0  0  0  0  0  0  0  0  0  0
   62.0670   33.3820   45.4074 H   0  0  0  0  0  0  0  0  0  0  0  0
   62.5346   34.8227   46.4008 H   0  0  0  0  0  0  0  0  0  0  0  0
   61.7410   34.5710   49.3920 H   0  0  0  0  0  0  0  0  0  0  0  0
   64.0287   34.4732   50.7533 H   0  0  0  0  0  0  0  0  0  0  0  0
   62.4623   34.9589   51.4607 H   0  0  0  0  0  0  0  0  0  0  0  0
   64.0705   32.5465   51.9821 H   0  0  0  0  0  0  0  0  0  0  0  0
   62.6615   33.1389   52.8777 H   0  0  0  0  0  0  0  0  0  0  0  0
   62.8090   31.0383   50.8029 H   0  0  0  0  0  0  0  0  0  0  0  0
   61.4517   31.4106   51.8734 H   0  0  0  0  0  0  0  0  0  0  0  0
   61.4016   31.9406   49.1371 H   0  0  0  0  0  0  0  0  0  0  0  0
   59.5172   30.1172   50.0252 H   0  0  0  0  0  0  0  0  0  0  0  0
   60.3460   30.3853   51.5644 H   0  0  0  0  0  0  0  0  0  0  0  0
   57.8998   29.0405   51.2763 H   0  0  0  0  0  0  0  0  0  0  0  0
   58.4395   29.7642   52.7990 H   0  0  0  0  0  0  0  0  0  0  0  0
   56.4149   30.7616   50.8032 H   0  0  0  0  0  0  0  0  0  0  0  0
   56.4934   31.0810   52.5429 H   0  0  0  0  0  0  0  0  0  0  0  0
   57.2639   32.8932   50.5372 H   0  0  0  0  0  0  0  0  0  0  0  0
   57.8112   33.0027   52.2158 H   0  0  0  0  0  0  0  0  0  0  0  0
   60.3048   31.3073   47.0051 H   0  0  0  0  0  0  0  0  0  0  0  0
   58.4415   29.9511   46.0751 H   0  0  0  0  0  0  0  0  0  0  0  0
  1  2  1  0
  2  3  1  0
  3  4  2  0
  4  5  1  0
  5  6  2  0
  6  7  1  0
  7  8  2  0
  7  9  1  0
  9 10  1  0
 10 11  2  0
 10 12  1  0
 12 13  2  0
 12 14  1  0
 14 15  1  0
 15 16  1  0
 16 17  1  0
 17 18  1  0
 18 19  1  0
 19 20  2  0
 19 21  1  0
 21 22  1  0
 22 23  1  0
 23 24  1  0
 24 25  1  0
  6 26  1  0
 26 27  2  0
 27  3  1  0
 18 14  1  0
 25 21  1  0
  1 28  1  0
  1 29  1  0
  1 30  1  0
  4 31  1  0
  5 32  1  0
  9 33  1  0
  9 34  1  0
 14 35  1  6
 15 36  1  0
 15 37  1  0
 16 38  1  0
 16 39  1  0
 17 40  1  0
 17 41  1  0
 18 42  1  6
 22 43  1  0
 22 44  1  0
 23 45  1  0
 23 46  1  0
 24 47  1  0
 24 48  1  0
 25 49  1  0
 25 50  1  0
 26 51  1  0
 27 52  1  0
M  CHG  1  14   1
M  END
>  <UniqueID>  (42) 
39

>  <SMILES>  (42) 
COc1ccc(C(=O)CC(=O)C(=O)[N@@H+]2CCC[C@H]2C(=O)N2CCCC2)cc1

>  <Energy>  (42) 
58.967900355940024

>  <Genealogy>  (42) 
COc1ccc(C(=O)CC(=O)C(=O)[NH+]2CCCC2C(=O)N2CCCC2)cc1 (protonated)
COc1ccc(C(=O)CC(=O)C(=O)[N@@H+]2CCC[C@H]2C(=O)N2CCCC2)cc1 (chirality)
COc1ccc(C(=O)CC(=O)C(=O)[N@@H+]2CCC[C@H]2C(=O)N2CCCC2)cc1 (3D coordinates assigned)
COc1ccc(C(=O)CC(=O)C(=O)[N@@H+]2CCC[C@H]2C(=O)N2CCCC2)cc1 (nonaromatic ring conformer: 58.967900355940024 kcal/mol)

>  <smiles>  (42) 
COc1ccc(C(=O)CC(=O)C(=O)N2CCCC2C(=O)N2CCCC2)cc1

>  <score_type>  (42) 
oracle

>  <origin>  (42) 
adg

>  <m_score__min__energy>  (42) 
-6.7800000000000002

>  <m_primary>  (42) 
energy

$$$$
42:0
     RDKit          3D

 63 66  0  0  0  0  0  0  0  0999 V2000
   50.6500   29.7340   48.9880 H   0  0  0  0  0  0  0  0  0  0  0  0
   51.5140   30.0310   49.4240 O   0  0  0  0  0  0  0  0  0  0  0  0
   51.4960   30.8470   50.5510 C   0  0  0  0  0  0  0  0  0  0  0  0
   50.7630   31.9690   50.6520 N   0  0  0  0  0  0  0  0  0  0  0  0
   51.0600   32.4040   51.8950 C   0  0  0  0  0  0  0  0  0  0  0  0
   50.5600   33.4510   52.3850 O   0  0  0  0  0  0  0  0  0  0  0  0
   51.9280   31.6240   52.5750 N   0  0  0  0  0  0  0  0  0  0  0  0
   52.2110   30.6350   51.7070 C   0  0  0  0  0  0  0  0  0  0  0  0
   53.0890   29.4740   51.9710 C   0  0  0  0  0  0  0  0  0  0  0  0
   52.7371   28.4882   51.6327 H   0  0  0  0  0  0  0  0  0  0  0  0
   54.2870   29.5240   52.5930 C   0  0  0  0  0  0  0  0  0  0  0  0
   55.1610   30.6050   52.6430 C   0  0  0  0  0  0  0  0  0  0  0  0
   54.9954   31.6028   52.2106 H   0  0  0  0  0  0  0  0  0  0  0  0
   56.2750   30.1850   53.3390 C   0  0  0  0  0  0  0  0  0  0  0  0
   57.4650   31.0290   53.5700 C   0  0  0  0  0  0  0  0  0  0  0  0
   57.8260   31.2540   54.7580 O   0  0  0  0  0  0  0  0  0  0  0  0
   58.2080   31.6020   52.4770 N   0  0  0  0  0  0  0  0  0  0  0  0
   59.6260   31.9340   52.6840 C   0  0  0  0  0  0  0  0  0  0  0  0
   59.7005   32.7486   53.4194 H   0  0  0  0  0  0  0  0  0  0  0  0
   60.1454   31.0353   53.0481 H   0  0  0  0  0  0  0  0  0  0  0  0
   60.2840   32.3790   51.3780 C   0  0  0  0  0  0  0  0  0  0  0  0
   60.0595   33.4397   51.1925 H   0  0  0  0  0  0  0  0  0  0  0  0
   61.3746   32.2521   51.4443 H   0  0  0  0  0  0  0  0  0  0  0  0
   59.7480   31.5590   50.2790 N   0  0  0  0  0  0  0  0  0  0  0  0
   60.5740   31.6660   49.0570 C   0  0  0  0  0  0  0  0  0  0  0  0
   61.1745   30.7508   48.9489 H   0  0  0  0  0  0  0  0  0  0  0  0
   59.9037   31.7951   48.1944 H   0  0  0  0  0  0  0  0  0  0  0  0
   61.5200   32.8830   49.1260 C   0  0  0  0  0  0  0  0  0  0  0  0
   61.4476   33.3317   50.1277 H   0  0  0  0  0  0  0  0  0  0  0  0
   62.5408   32.5296   48.9187 H   0  0  0  0  0  0  0  0  0  0  0  0
   61.1810   33.9130   48.1160 N   0  0  0  0  0  0  0  0  0  0  0  0
   61.2790   33.3650   46.7380 C   0  0  0  0  0  0  0  0  0  0  0  0
   61.6911   34.1404   46.0755 H   0  0  0  0  0  0  0  0  0  0  0  0
   61.9327   32.4809   46.7686 H   0  0  0  0  0  0  0  0  0  0  0  0
   59.9100   32.9260   46.1970 C   0  0  0  0  0  0  0  0  0  0  0  0
   60.0439   32.4900   45.1960 H   0  0  0  0  0  0  0  0  0  0  0  0
   59.4846   32.1865   46.8914 H   0  0  0  0  0  0  0  0  0  0  0  0
   58.9730   34.0700   46.1030 N   0  0  0  0  0  0  0  0  0  0  0  0
   57.5800   33.5980   46.1430 C   0  0  0  0  0  0  0  0  0  0  0  0
   57.2596   33.4894   47.1897 H   0  0  0  0  0  0  0  0  0  0  0  0
   56.9313   34.3265   45.6346 H   0  0  0  0  0  0  0  0  0  0  0  0
   57.5077   32.6252   45.6346 H   0  0  0  0  0  0  0  0  0  0  0  0
   59.2170   35.1190   47.1240 C   0  0  0  0  0  0  0  0  0  0  0  0
   59.8836   35.8822   46.6960 H   0  0  0  0  0  0  0  0  0  0  0  0
   58.2449   35.5501   47.4053 H   0  0  0  0  0  0  0  0  0  0  0  0
   59.8670   34.5500   48.3940 C   0  0  0  0  0  0  0  0  0  0  0  0
   60.0156   35.3690   49.1132 H   0  0  0  0  0  0  0  0  0  0  0  0
   59.1966   33.7777   48.7991 H   0  0  0  0  0  0  0  0  0  0  0  0
   58.3450   31.9320   50.0010 C   0  0  0  0  0  0  0  0  0  0  0  0
   58.3375   32.8758   49.4360 H   0  0  0  0  0  0  0  0  0  0  0  0
   57.8910   31.1100   49.4281 H   0  0  0  0  0  0  0  0  0  0  0  0
   57.5090   32.1200   51.2880 C   0  0  0  0  0  0  0  0  0  0  0  0
   57.3117   33.1927   51.4305 H   0  0  0  0  0  0  0  0  0  0  0  0
   56.5714   31.5568   51.1711 H   0  0  0  0  0  0  0  0  0  0  0  0
   56.1230   28.9050   53.7530 N   0  0  0  0  0  0  0  0  0  0  0  0
   57.0510   28.1390   54.5910 C   0  0  0  0  0  0  0  0  0  0  0  0
   56.8260   28.3248   55.6516 H   0  0  0  0  0  0  0  0  0  0  0  0
   56.9398   27.0662   54.3750 H   0  0  0  0  0  0  0  0  0  0  0  0
   58.0833   28.4515   54.3750 H   0  0  0  0  0  0  0  0  0  0  0  0
   54.9200   28.4840   53.2860 C   0  0  0  0  0  0  0  0  0  0  0  0
   54.4370   27.2450   53.4770 C   0  0  0  0  0  0  0  0  0  0  0  0
   55.0255   26.5061   54.0406 H   0  0  0  0  0  0  0  0  0  0  0  0
   53.4530   26.9695   53.0698 H   0  0  0  0  0  0  0  0  0  0  0  0
  1  2  1  0
  2  3  1  0
  3  4  1  0
  4  5  1  0
  5  6  2  0
  5  7  1  0
  7  8  1  0
  8  9  1  0
  9 10  1  0
  9 11  2  0
 11 12  1  0
 12 13  1  0
 12 14  2  0
 14 15  1  0
 15 16  2  0
 15 17  1  0
 17 18  1  0
 18 19  1  0
 18 20  1  0
 18 21  1  0
 21 22  1  0
 21 23  1  0
 21 24  1  0
 24 25  1  0
 25 26  1  0
 25 27  1  0
 25 28  1  0
 28 29  1  0
 28 30  1  0
 28 31  1  0
 31 32  1  0
 32 33  1  0
 32 34  1  0
 32 35  1  0
 35 36  1  0
 35 37  1  0
 35 38  1  0
 38 39  1  0
 39 40  1  0
 39 41  1  0
 39 42  1  0
 38 43  1  0
 43 44  1  0
 43 45  1  0
 43 46  1  0
 46 47  1  0
 46 48  1  0
 24 49  1  0
 49 50  1  0
 49 51  1  0
 49 52  1  0
 52 53  1  0
 52 54  1  0
 14 55  1  0
 55 56  1  0
 56 57  1  0
 56 58  1  0
 56 59  1  0
 55 60  1  0
 60 61  2  0
 61 62  1  0
 61 63  1  0
  8  3  2  0
 60 11  1  0
 52 17  1  0
 46 31  1  0
M  CHG  2   4  -1   7  -1
M  END
>  <UniqueID>  (43) 
40

>  <SMILES>  (43) 
C=c1/c(=C/c2[n-]c(=O)[n-]c2O)cc(C(=O)N2CCN(CCN3CCN(C)CC3)CC2)n1C

>  <Energy>  (43) 
147.50994050705566

>  <Genealogy>  (43) 
C=c1c(=Cc2[n-]c(=O)[n-]c2O)cc(C(=O)N2CCN(CCN3CCN(C)CC3)CC2)n1C (protonated)
C=c1/c(=C/c2[n-]c(=O)[n-]c2O)cc(C(=O)N2CCN(CCN3CCN(C)CC3)CC2)n1C (cis-trans isomerization)
C=c1/c(=C/c2[n-]c(=O)[n-]c2O)cc(C(=O)N2CCN(CCN3CCN(C)CC3)CC2)n1C (3D coordinates assigned)
C=c1/c(=C/c2[n-]c(=O)[n-]c2O)cc(C(=O)N2CCN(CCN3CCN(C)CC3)CC2)n1C (nonaromatic ring conformer: 147.50994050705566 kcal/mol)

>  <smiles>  (43) 
C=c1c(=Cc2[nH]c(=O)[nH]c2O)cc(C(=O)N2CCN(CCN3CCN(C)CC3)CC2)n1C

>  <score_type>  (43) 
oracle

>  <origin>  (43) 
adg

>  <m_score__min__energy>  (43) 
-14.369999999999999

>  <m_primary>  (43) 
energy

$$$$
43:0
     RDKit          3D

 53 56  0  0  0  0  0  0  0  0999 V2000
   60.0704   34.3270   44.9588 H   0  0  0  0  0  0  0  0  0  0  0  0
   59.9050   33.5340   45.7030 C   0  0  0  0  0  0  0  0  0  0  0  0
   59.0580   32.5460   45.4000 C   0  0  0  0  0  0  0  0  0  0  0  0
   58.9280   31.3520   46.1080 O   0  0  0  0  0  0  0  0  0  0  0  0
   57.8720   30.6410   45.5480 C   0  0  0  0  0  0  0  0  0  0  0  0
   57.3140   31.3230   44.4870 C   0  0  0  0  0  0  0  0  0  0  0  0
   56.2240   30.8250   43.7830 C   0  0  0  0  0  0  0  0  0  0  0  0
   55.7844   31.3874   42.9461 H   0  0  0  0  0  0  0  0  0  0  0  0
   55.7020   29.5830   44.1730 C   0  0  0  0  0  0  0  0  0  0  0  0
   54.8362   29.1646   43.6388 H   0  0  0  0  0  0  0  0  0  0  0  0
   56.2760   28.8640   45.2440 C   0  0  0  0  0  0  0  0  0  0  0  0
   55.7440   27.6250   45.5830 O   0  0  0  0  0  0  0  0  0  0  0  0
   57.3810   29.3950   45.9590 C   0  0  0  0  0  0  0  0  0  0  0  0
   58.0500   28.6230   47.0800 C   0  0  0  0  0  0  0  0  0  0  0  0
   57.8992   27.5490   46.8964 H   0  0  0  0  0  0  0  0  0  0  0  0
   57.5880   28.9654   48.0177 H   0  0  0  0  0  0  0  0  0  0  0  0
   59.5040   28.8720   47.2080 N   0  0  0  0  0  0  0  0  0  0  0  0
   59.9300   29.6890   48.3660 C   0  0  0  0  0  0  0  0  0  0  0  0
   59.0327   30.0378   48.8982 H   0  0  0  0  0  0  0  0  0  0  0  0
   60.5273   30.5265   47.9763 H   0  0  0  0  0  0  0  0  0  0  0  0
   60.8140   28.9140   49.3530 C   0  0  0  0  0  0  0  0  0  0  0  0
   60.7125   29.3537   50.3562 H   0  0  0  0  0  0  0  0  0  0  0  0
   61.8621   28.9744   49.0245 H   0  0  0  0  0  0  0  0  0  0  0  0
   60.4000   27.5010   49.3950 N   0  0  0  0  0  0  0  0  0  0  0  0
   61.0680   26.7840   50.5030 C   0  0  0  0  0  0  0  0  0  0  0  0
   61.9051   26.1960   50.0988 H   0  0  0  0  0  0  0  0  0  0  0  0
   60.3340   26.1236   50.9879 H   0  0  0  0  0  0  0  0  0  0  0  0
   61.6020   27.7650   51.5410 C   0  0  0  0  0  0  0  0  0  0  0  0
   61.3929   27.3808   52.5503 H   0  0  0  0  0  0  0  0  0  0  0  0
   62.6880   27.8815   51.4108 H   0  0  0  0  0  0  0  0  0  0  0  0
   61.1103   28.7403   51.4108 H   0  0  0  0  0  0  0  0  0  0  0  0
   60.6970   26.8420   48.1030 C   0  0  0  0  0  0  0  0  0  0  0  0
   60.0901   25.9276   48.0285 H   0  0  0  0  0  0  0  0  0  0  0  0
   61.7748   26.6227   48.0861 H   0  0  0  0  0  0  0  0  0  0  0  0
   60.3890   27.7380   46.8820 C   0  0  0  0  0  0  0  0  0  0  0  0
   59.9019   27.1237   46.1104 H   0  0  0  0  0  0  0  0  0  0  0  0
   61.3441   28.1562   46.5314 H   0  0  0  0  0  0  0  0  0  0  0  0
   58.0580   32.5590   44.3340 C   0  0  0  0  0  0  0  0  0  0  0  0
   57.8570   33.4670   43.4840 O   0  0  0  0  0  0  0  0  0  0  0  0
   60.6320   33.6150   46.9900 C   0  0  0  0  0  0  0  0  0  0  0  0
   59.9150   33.9460   48.1500 C   0  0  0  0  0  0  0  0  0  0  0  0
   58.8396   34.1674   48.0835 H   0  0  0  0  0  0  0  0  0  0  0  0
   60.5590   33.9960   49.3890 C   0  0  0  0  0  0  0  0  0  0  0  0
   59.9870   34.2464   50.2946 H   0  0  0  0  0  0  0  0  0  0  0  0
   61.9270   33.7290   49.4810 C   0  0  0  0  0  0  0  0  0  0  0  0
   62.4249   33.7471   50.4617 H   0  0  0  0  0  0  0  0  0  0  0  0
   62.6670   33.4380   48.3260 C   0  0  0  0  0  0  0  0  0  0  0  0
   64.1310   33.1220   48.4240 C   0  0  0  0  0  0  0  0  0  0  0  0
   64.4224   33.0591   49.4828 H   0  0  0  0  0  0  0  0  0  0  0  0
   64.3322   32.1597   47.9305 H   0  0  0  0  0  0  0  0  0  0  0  0
   64.7112   33.9156   47.9305 H   0  0  0  0  0  0  0  0  0  0  0  0
   62.0180   33.3810   47.0840 C   0  0  0  0  0  0  0  0  0  0  0  0
   62.5956   33.1518   46.1763 H   0  0  0  0  0  0  0  0  0  0  0  0
  1  2  1  0
  2  3  2  0
  3  4  1  0
  4  5  1  0
  5  6  2  0
  6  7  1  0
  7  8  1  0
  7  9  2  0
  9 10  1  0
  9 11  1  0
 11 12  1  0
 11 13  2  0
 13 14  1  0
 14 15  1  0
 14 16  1  0
 14 17  1  0
 17 18  1  0
 18 19  1  0
 18 20  1  0
 18 21  1  0
 21 22  1  0
 21 23  1  0
 21 24  1  0
 24 25  1  0
 25 26  1  0
 25 27  1  0
 25 28  1  0
 28 29  1  0
 28 30  1  0
 28 31  1  0
 24 32  1  0
 32 33  1  0
 32 34  1  0
 32 35  1  0
 35 36  1  0
 35 37  1  0
  6 38  1  0
 38 39  2  0
  2 40  1  0
 40 41  2  0
 41 42  1  0
 41 43  1  0
 43 44  1  0
 43 45  2  0
 45 46  1  0
 45 47  1  0
 47 48  1  0
 48 49  1  0
 48 50  1  0
 48 51  1  0
 47 52  2  0
 52 53  1  0
 38  3  1  0
 52 40  1  0
 13  5  1  0
 35 17  1  0
M  CHG  1  12  -1
M  END
>  <UniqueID>  (44) 
41

>  <SMILES>  (44) 
CCN1CCN(Cc2c([O-])ccc3c2O/C(=C\c2cccc(C)c2)C3=O)CC1

>  <Energy>  (44) 
99.9879428444573

>  <Genealogy>  (44) 
CCN1CCN(Cc2c([O-])ccc3c2OC(=Cc2cccc(C)c2)C3=O)CC1 (protonated)
CCN1CCN(Cc2c([O-])ccc3c2O/C(=C\c2cccc(C)c2)C3=O)CC1 (cis-trans isomerization)
CCN1CCN(Cc2c([O-])ccc3c2O/C(=C\c2cccc(C)c2)C3=O)CC1 (3D coordinates assigned)
CCN1CCN(Cc2c([O-])ccc3c2O/C(=C\c2cccc(C)c2)C3=O)CC1 (nonaromatic ring conformer: 99.9879428444573 kcal/mol)

>  <smiles>  (44) 
CCN1CCN(Cc2c(O)ccc3c2OC(=Cc2cccc(C)c2)C3=O)CC1

>  <score_type>  (44) 
oracle

>  <origin>  (44) 
adg

>  <m_score__min__energy>  (44) 
-10.93

>  <m_primary>  (44) 
energy

$$$$
44:0
     RDKit          3D

 58 61  0  0  0  0  0  0  0  0999 V2000
   64.3120   32.9590   51.1180 C   0  0  0  0  0  0  0  0  0  0  0  0
   64.1530   33.0370   49.6290 C   0  0  0  0  0  0  0  0  0  0  0  0
   65.1840   32.9520   48.9160 O   0  0  0  0  0  0  0  0  0  0  0  0
   62.8620   33.2280   49.0070 N   0  0  0  0  0  0  0  0  0  0  0  0
   62.6260   32.7120   47.6530 C   0  0  0  0  0  0  0  0  0  0  0  0
   61.7160   33.6570   46.8740 C   0  0  0  0  0  0  0  0  0  0  0  0
   60.5460   34.0070   47.6800 N   0  0  0  0  0  0  0  0  0  0  0  0
   59.2530   34.1040   47.0630 C   0  0  0  0  0  0  0  0  0  0  0  0
   58.5780   35.1620   47.1770 O   0  0  0  0  0  0  0  0  0  0  0  0
   58.7180   32.9990   46.3260 N   0  0  0  0  0  0  0  0  0  0  0  0
   58.4800   33.1640   44.8920 C   0  0  0  0  0  0  0  0  0  0  0  0
   57.3930   32.2020   44.4030 C   0  0  0  0  0  0  0  0  0  0  0  0
   57.5770   30.8240   44.8990 N   0  0  0  0  0  0  0  0  0  0  0  0
   58.3190   29.8860   44.0270 C   0  0  0  0  0  0  0  0  0  0  0  0
   59.0920   28.8340   44.7750 C   0  0  0  0  0  0  0  0  0  0  0  0
   60.4380   28.8980   45.1310 C   0  0  0  0  0  0  0  0  0  0  0  0
   60.8120   27.7730   45.7800 N   0  0  0  0  0  0  0  0  0  0  0  0
   59.7090   27.0120   45.8610 C   0  0  0  0  0  0  0  0  0  0  0  0
   59.5920   25.7630   46.4670 C   0  0  0  0  0  0  0  0  0  0  0  0
   58.3280   25.1540   46.4790 C   0  0  0  0  0  0  0  0  0  0  0  0
   57.2120   25.7950   45.8840 C   0  0  0  0  0  0  0  0  0  0  0  0
   55.6220   25.0380   45.9270 S   0  0  0  0  0  0  0  0  0  0  0  0
   54.3990   26.2620   45.9990 N   0  0  0  0  0  0  0  0  0  0  0  0
   55.5060   24.1470   47.1320 O   0  0  0  0  0  0  0  0  0  0  0  0
   55.4290   24.2000   44.6920 O   0  0  0  0  0  0  0  0  0  0  0  0
   57.3640   27.0570   45.2770 C   0  0  0  0  0  0  0  0  0  0  0  0
   58.6360   27.6300   45.2730 C   0  0  0  0  0  0  0  0  0  0  0  0
   57.8020   30.7140   46.3530 C   0  0  0  0  0  0  0  0  0  0  0  0
   58.9090   31.6490   46.8500 C   0  0  0  0  0  0  0  0  0  0  0  0
   60.7700   34.5390   49.0210 C   0  0  0  0  0  0  0  0  0  0  0  0
   61.6820   33.5950   49.8060 C   0  0  0  0  0  0  0  0  0  0  0  0
   63.4263   33.3935   51.6046 H   0  0  0  0  0  0  0  0  0  0  0  0
   64.4176   31.9068   51.4209 H   0  0  0  0  0  0  0  0  0  0  0  0
   65.2087   33.5195   51.4209 H   0  0  0  0  0  0  0  0  0  0  0  0
   63.5880   32.6202   47.1275 H   0  0  0  0  0  0  0  0  0  0  0  0
   62.1394   31.7282   47.7262 H   0  0  0  0  0  0  0  0  0  0  0  0
   62.2718   34.5724   46.6228 H   0  0  0  0  0  0  0  0  0  0  0  0
   61.3820   33.1571   45.9528 H   0  0  0  0  0  0  0  0  0  0  0  0
   58.1598   34.1981   44.6969 H   0  0  0  0  0  0  0  0  0  0  0  0
   59.4132   32.9421   44.3535 H   0  0  0  0  0  0  0  0  0  0  0  0
   56.4164   32.5716   44.7488 H   0  0  0  0  0  0  0  0  0  0  0  0
   57.4536   32.1675   43.3052 H   0  0  0  0  0  0  0  0  0  0  0  0
   57.5966   29.3813   43.3686 H   0  0  0  0  0  0  0  0  0  0  0  0
   59.0547   30.4847   43.4700 H   0  0  0  0  0  0  0  0  0  0  0  0
   61.1036   29.7464   44.9139 H   0  0  0  0  0  0  0  0  0  0  0  0
   61.7640   27.5480   46.1470 H   0  0  0  0  0  0  0  0  0  0  0  0
   60.4635   25.2696   46.9220 H   0  0  0  0  0  0  0  0  0  0  0  0
   58.2017   24.1701   46.9544 H   0  0  0  0  0  0  0  0  0  0  0  0
   54.8280   27.0900   46.4620 H   0  0  0  0  0  0  0  0  0  0  0  0
   56.5071   27.5742   44.8207 H   0  0  0  0  0  0  0  0  0  0  0  0
   56.8669   30.9667   46.8743 H   0  0  0  0  0  0  0  0  0  0  0  0
   58.1179   29.6817   46.5642 H   0  0  0  0  0  0  0  0  0  0  0  0
   58.8875   31.6819   47.9493 H   0  0  0  0  0  0  0  0  0  0  0  0
   59.8789   31.2671   46.4987 H   0  0  0  0  0  0  0  0  0  0  0  0
   61.2451   35.5284   48.9469 H   0  0  0  0  0  0  0  0  0  0  0  0
   59.8055   34.6297   49.5421 H   0  0  0  0  0  0  0  0  0  0  0  0
   62.0119   34.0956   50.7283 H   0  0  0  0  0  0  0  0  0  0  0  0
   61.1204   32.6806   50.0480 H   0  0  0  0  0  0  0  0  0  0  0  0
  1  2  1  0
  2  3  2  0
  2  4  1  0
  4  5  1  0
  5  6  1  0
  6  7  1  0
  7  8  1  0
  8  9  2  0
  8 10  1  0
 10 11  1  0
 11 12  1  0
 12 13  1  0
 13 14  1  0
 14 15  1  0
 15 16  2  0
 16 17  1  0
 17 18  1  0
 18 19  2  0
 19 20  1  0
 20 21  2  0
 21 22  1  0
 22 23  1  0
 22 24  2  0
 22 25  2  0
 21 26  1  0
 26 27  2  0
 13 28  1  0
 28 29  1  0
  7 30  1  0
 30 31  1  0
 31  4  1  0
 29 10  1  0
 27 15  1  0
 27 18  1  0
  1 32  1  0
  1 33  1  0
  1 34  1  0
  5 35  1  0
  5 36  1  0
  6 37  1  0
  6 38  1  0
 11 39  1  0
 11 40  1  0
 12 41  1  0
 12 42  1  0
 14 43  1  0
 14 44  1  0
 16 45  1  0
 17 46  1  0
 19 47  1  0
 20 48  1  0
 23 49  1  0
 26 50  1  0
 28 51  1  0
 28 52  1  0
 29 53  1  0
 29 54  1  0
 30 55  1  0
 30 56  1  0
 31 57  1  0
 31 58  1  0
M  CHG  1  23  -1
M  END
>  <UniqueID>  (45) 
42

>  <SMILES>  (45) 
CC(=O)N1CCN(C(=O)N2CCN(Cc3c[nH]c4ccc(S([NH-])(=O)=O)cc34)CC2)CC1

>  <Energy>  (45) 
102.61828955658125

>  <Genealogy>  (45) 
CC(=O)N1CCN(C(=O)N2CCN(Cc3c[nH]c4ccc(S([NH-])(=O)=O)cc34)CC2)CC1 (protonated)
CC(=O)N1CCN(C(=O)N2CCN(Cc3c[nH]c4ccc(S([NH-])(=O)=O)cc34)CC2)CC1 (3D coordinates assigned)
CC(=O)N1CCN(C(=O)N2CCN(Cc3c[nH]c4ccc(S([NH-])(=O)=O)cc34)CC2)CC1 (nonaromatic ring conformer: 102.61828955658125 kcal/mol)

>  <smiles>  (45) 
CC(=O)N1CCN(C(=O)N2CCN(Cc3c[nH]c4ccc(S(N)(=O)=O)cc34)CC2)CC1

>  <score_type>  (45) 
oracle

>  <origin>  (45) 
adg

>  <m_score__min__energy>  (45) 
-12.35

>  <m_primary>  (45) 
energy

$$$$
45:0
     RDKit          3D

 67 70  0  0  0  0  0  0  0  0999 V2000
   60.9970   28.5720   44.8720 C   0  0  0  0  0  0  0  0  0  0  0  0
   59.4960   28.6430   45.1550 C   0  0  0  0  0  0  0  0  0  0  0  0
   59.1310   29.8600   46.0260 C   0  0  0  0  0  0  0  0  0  0  0  0
   57.8080   30.4880   45.6590 C   0  0  0  0  0  0  0  0  0  0  0  0
   56.8640   29.7580   45.2520 O   0  0  0  0  0  0  0  0  0  0  0  0
   57.6330   31.9170   45.6870 N   0  0  0  0  0  0  0  0  0  0  0  0
   57.4350   32.7080   44.4840 C   0  0  0  0  0  0  0  0  0  0  0  0
   57.2610   34.1470   44.9580 C   0  0  0  0  0  0  0  0  0  0  0  0
   57.7750   34.1790   46.4060 C   0  0  2  0  0  0  0  0  0  0  0  0
   59.1850   34.7060   46.4750 C   0  0  0  0  0  0  0  0  0  0  0  0
   59.7670   35.0580   45.4150 O   0  0  0  0  0  0  0  0  0  0  0  0
   59.8010   34.9210   47.7540 N   0  0  0  0  0  0  0  0  0  0  0  0
   61.0160   34.3260   48.2280 C   0  0  0  0  0  0  0  0  0  0  0  0
   61.9830   33.8080   47.3500 C   0  0  0  0  0  0  0  0  0  0  0  0
   63.1560   33.2430   47.8540 C   0  0  0  0  0  0  0  0  0  0  0  0
   63.3610   33.1560   49.2310 C   0  0  0  0  0  0  0  0  0  0  0  0
   62.3830   33.6240   50.1230 C   0  0  0  0  0  0  0  0  0  0  0  0
   62.6030   33.5470   51.6120 C   0  0  0  0  0  0  0  0  0  0  0  0
   61.3630   33.1500   52.3570 C   0  0  0  0  0  0  0  0  0  0  0  0
   60.6270   34.0270   52.8820 O   0  0  0  0  0  0  0  0  0  0  0  0
   61.0230   31.7580   52.4270 N   0  0  0  0  0  0  0  0  0  0  0  0
   60.0560   31.0280   51.6550 C   0  0  0  0  0  0  0  0  0  0  0  0
   60.4660   30.4780   50.4340 C   0  0  0  0  0  0  0  0  0  0  0  0
   59.5520   29.8250   49.6040 C   0  0  0  0  0  0  0  0  0  0  0  0
   58.2140   29.7130   49.9870 C   0  0  0  0  0  0  0  0  0  0  0  0
   57.7880   30.2340   51.2120 C   0  0  0  0  0  0  0  0  0  0  0  0
   56.3950   30.1620   51.5540 N   0  0  0  0  0  0  0  0  0  0  0  0
   55.6360   31.2490   52.1040 C   0  0  0  0  0  0  0  0  0  0  0  0
   56.2080   32.3350   52.3930 O   0  0  0  0  0  0  0  0  0  0  0  0
   54.1800   31.1030   52.3060 C   0  0  0  0  0  0  0  0  0  0  0  0
   53.6800   30.1860   53.2500 C   0  0  0  0  0  0  0  0  0  0  0  0
   52.3060   30.1020   53.4950 C   0  0  0  0  0  0  0  0  0  0  0  0
   51.4180   30.9410   52.8180 C   0  0  0  0  0  0  0  0  0  0  0  0
   51.8990   31.8570   51.8780 C   0  0  0  0  0  0  0  0  0  0  0  0
   51.0160   32.7080   51.2250 O   0  0  0  0  0  0  0  0  0  0  0  0
   53.2730   31.9270   51.6080 C   0  0  0  0  0  0  0  0  0  0  0  0
   58.7040   30.9130   52.0360 C   0  0  0  0  0  0  0  0  0  0  0  0
   61.2110   34.2090   49.6110 C   0  0  0  0  0  0  0  0  0  0  0  0
   57.7210   32.7270   46.8890 C   0  0  0  0  0  0  0  0  0  0  0  0
   61.5487   28.5459   45.8233 H   0  0  0  0  0  0  0  0  0  0  0  0
   61.2186   27.6624   44.2946 H   0  0  0  0  0  0  0  0  0  0  0  0
   61.3035   29.4567   44.2946 H   0  0  0  0  0  0  0  0  0  0  0  0
   58.9572   28.7160   44.1988 H   0  0  0  0  0  0  0  0  0  0  0  0
   59.2099   27.7337   45.7039 H   0  0  0  0  0  0  0  0  0  0  0  0
   59.0829   29.5350   47.0758 H   0  0  0  0  0  0  0  0  0  0  0  0
   59.9076   30.6212   45.8602 H   0  0  0  0  0  0  0  0  0  0  0  0
   58.3102   32.6255   43.8228 H   0  0  0  0  0  0  0  0  0  0  0  0
   56.5624   32.3619   43.9105 H   0  0  0  0  0  0  0  0  0  0  0  0
   57.8488   34.8309   44.3282 H   0  0  0  0  0  0  0  0  0  0  0  0
   56.2109   34.4686   44.8952 H   0  0  0  0  0  0  0  0  0  0  0  0
   57.1649   34.8466   47.0322 H   0  0  0  0  0  0  0  0  0  0  0  0
   61.8155   33.8477   46.2635 H   0  0  0  0  0  0  0  0  0  0  0  0
   63.9224   32.8645   47.1617 H   0  0  0  0  0  0  0  0  0  0  0  0
   64.2927   32.7190   49.6196 H   0  0  0  0  0  0  0  0  0  0  0  0
   63.3889   32.8044   51.8144 H   0  0  0  0  0  0  0  0  0  0  0  0
   62.8942   34.5495   51.9587 H   0  0  0  0  0  0  0  0  0  0  0  0
   61.5186   30.5612   50.1255 H   0  0  0  0  0  0  0  0  0  0  0  0
   59.8868   29.3983   48.6470 H   0  0  0  0  0  0  0  0  0  0  0  0
   57.4933   29.2134   49.3229 H   0  0  0  0  0  0  0  0  0  0  0  0
   54.3742   29.5319   53.7979 H   0  0  0  0  0  0  0  0  0  0  0  0
   51.9230   29.3724   54.2237 H   0  0  0  0  0  0  0  0  0  0  0  0
   50.3393   30.8809   53.0247 H   0  0  0  0  0  0  0  0  0  0  0  0
   53.6457   32.6287   50.8473 H   0  0  0  0  0  0  0  0  0  0  0  0
   58.3631   31.3567   52.9831 H   0  0  0  0  0  0  0  0  0  0  0  0
   60.4397   34.5784   50.3028 H   0  0  0  0  0  0  0  0  0  0  0  0
   58.6306   32.4767   47.4546 H   0  0  0  0  0  0  0  0  0  0  0  0
   56.8665   32.5533   47.5595 H   0  0  0  0  0  0  0  0  0  0  0  0
  1  2  1  0
  2  3  1  0
  3  4  1  0
  4  5  2  0
  4  6  1  0
  6  7  1  0
  7  8  1  0
  8  9  1  0
  9 10  1  0
 10 11  2  0
 10 12  1  0
 12 13  1  0
 13 14  2  0
 14 15  1  0
 15 16  2  0
 16 17  1  0
 17 18  1  0
 18 19  1  0
 19 20  2  0
 19 21  1  0
 21 22  1  0
 22 23  2  0
 23 24  1  0
 24 25  2  0
 25 26  1  0
 26 27  1  0
 27 28  1  0
 28 29  2  0
 28 30  1  0
 30 31  2  0
 31 32  1  0
 32 33  2  0
 33 34  1  0
 34 35  1  0
 34 36  2  0
 26 37  2  0
 17 38  2  0
  9 39  1  0
 39  6  1  0
 38 13  1  0
 37 22  1  0
 36 30  1  0
  1 40  1  0
  1 41  1  0
  1 42  1  0
  2 43  1  0
  2 44  1  0
  3 45  1  0
  3 46  1  0
  7 47  1  0
  7 48  1  0
  8 49  1  0
  8 50  1  0
  9 51  1  1
 14 52  1  0
 15 53  1  0
 16 54  1  0
 18 55  1  0
 18 56  1  0
 23 57  1  0
 24 58  1  0
 25 59  1  0
 31 60  1  0
 32 61  1  0
 33 62  1  0
 36 63  1  0
 37 64  1  0
 38 65  1  0
 39 66  1  0
 39 67  1  0
M  CHG  4  12  -1  21  -1  27  -1  35  -1
M  END
>  <UniqueID>  (46) 
43

>  <SMILES>  (46) 
CCCC(=O)N1CC[C@H](C(=O)[N-]c2cccc(CC(=O)[N-]c3cccc([N-]C(=O)c4cccc([O-])c4)c3)c2)C1

>  <Energy>  (46) 
78.69606801748581

>  <Genealogy>  (46) 
CCCC(=O)N1CCC(C(=O)[N-]c2cccc(CC(=O)[N-]c3cccc([N-]C(=O)c4cccc([O-])c4)c3)c2)C1 (protonated)
CCCC(=O)N1CC[C@H](C(=O)[N-]c2cccc(CC(=O)[N-]c3cccc([N-]C(=O)c4cccc([O-])c4)c3)c2)C1 (chirality)
CCCC(=O)N1CC[C@H](C(=O)[N-]c2cccc(CC(=O)[N-]c3cccc([N-]C(=O)c4cccc([O-])c4)c3)c2)C1 (3D coordinates assigned)
CCCC(=O)N1CC[C@H](C(=O)[N-]c2cccc(CC(=O)[N-]c3cccc([N-]C(=O)c4cccc([O-])c4)c3)c2)C1 (nonaromatic ring conformer: 78.69606801748581 kcal/mol)

>  <smiles>  (46) 
CCCC(=O)N1CCC(C(=O)Nc2cccc(CC(=O)Nc3cccc(NC(=O)c4cccc(O)c4)c3)c2)C1

>  <score_type>  (46) 
oracle

>  <origin>  (46) 
adg

>  <m_score__min__energy>  (46) 
-17.75

>  <m_primary>  (46) 
energy

$$$$
46:0
     RDKit          3D

 52 55  0  0  0  0  0  0  0  0999 V2000
   60.2570   29.9420   45.6200 O   0  0  0  0  0  0  0  0  0  0  0  0
   60.4360   29.0060   46.4500 C   0  0  0  0  0  0  0  0  0  0  0  0
   60.6570   27.6810   45.9630 N   0  0  0  0  0  0  0  0  0  0  0  0
   60.1270   26.4920   46.6230 C   0  0  0  0  0  0  0  0  0  0  0  0
   58.6440   26.3480   46.3890 C   0  0  0  0  0  0  0  0  0  0  0  0
   58.0030   25.1210   46.6390 C   0  0  0  0  0  0  0  0  0  0  0  0
   56.6240   24.9880   46.4350 C   0  0  0  0  0  0  0  0  0  0  0  0
   55.8750   26.0810   45.9720 C   0  0  0  0  0  0  0  0  0  0  0  0
   54.5010   25.9580   45.7570 O   0  0  0  0  0  0  0  0  0  0  0  0
   56.5080   27.3070   45.7210 C   0  0  0  0  0  0  0  0  0  0  0  0
   55.7800   28.3950   45.2490 O   0  0  0  0  0  0  0  0  0  0  0  0
   57.8870   27.4400   45.9350 C   0  0  0  0  0  0  0  0  0  0  0  0
   60.3850   29.2780   47.9000 C   0  0  0  0  0  0  0  0  0  0  0  0
   60.3620   28.2150   48.8270 C   0  0  0  0  0  0  0  0  0  0  0  0
   60.3240   28.4730   50.1940 C   0  0  0  0  0  0  0  0  0  0  0  0
   60.4090   29.7880   50.6640 C   0  0  0  0  0  0  0  0  0  0  0  0
   60.4870   30.8560   49.7650 C   0  0  0  0  0  0  0  0  0  0  0  0
   60.7950   32.1570   50.2610 N   0  0  0  0  0  0  0  0  0  0  0  0
   60.2640   33.6400   49.5430 S   0  0  0  0  0  0  0  0  0  0  0  0
   61.4330   34.5760   49.3320 O   0  0  0  0  0  0  0  0  0  0  0  0
   59.2520   34.3100   50.4390 O   0  0  0  0  0  0  0  0  0  0  0  0
   59.5390   33.2470   47.9890 C   0  0  0  0  0  0  0  0  0  0  0  0
   60.2030   33.5580   46.7910 C   0  0  0  0  0  0  0  0  0  0  0  0
   59.6540   33.1750   45.5630 C   0  0  0  0  0  0  0  0  0  0  0  0
   58.4310   32.4720   45.5110 C   0  0  0  0  0  0  0  0  0  0  0  0
   57.8550   32.0840   44.2020 C   0  0  0  0  0  0  0  0  0  0  0  0
   58.1260   32.7180   43.1090 N   0  0  0  0  0  0  0  0  0  0  0  0
   57.4070   32.1120   41.9960 C   0  0  0  0  0  0  0  0  0  0  0  0
   56.7210   30.8710   42.5910 C   0  0  0  0  0  0  0  0  0  0  0  0
   56.9790   30.9830   44.0140 N   0  0  0  0  0  0  0  0  0  0  0  0
   57.7710   32.1600   46.7190 C   0  0  0  0  0  0  0  0  0  0  0  0
   58.3240   32.5430   47.9450 C   0  0  0  0  0  0  0  0  0  0  0  0
   60.4680   30.6020   48.3860 C   0  0  0  0  0  0  0  0  0  0  0  0
   60.6399   25.6036   46.2260 H   0  0  0  0  0  0  0  0  0  0  0  0
   60.2989   26.5909   47.7050 H   0  0  0  0  0  0  0  0  0  0  0  0
   58.5883   24.2611   46.9968 H   0  0  0  0  0  0  0  0  0  0  0  0
   56.1280   24.0273   46.6375 H   0  0  0  0  0  0  0  0  0  0  0  0
   53.9570   26.7170   45.3630 H   0  0  0  0  0  0  0  0  0  0  0  0
   58.3790   28.4056   45.7461 H   0  0  0  0  0  0  0  0  0  0  0  0
   60.3742   27.1756   48.4671 H   0  0  0  0  0  0  0  0  0  0  0  0
   60.2269   27.6409   50.9068 H   0  0  0  0  0  0  0  0  0  0  0  0
   60.4145   29.9827   51.7466 H   0  0  0  0  0  0  0  0  0  0  0  0
   61.1574   34.1043   46.8187 H   0  0  0  0  0  0  0  0  0  0  0  0
   60.1799   33.4238   44.6294 H   0  0  0  0  0  0  0  0  0  0  0  0
   56.6592   32.8108   41.5930 H   0  0  0  0  0  0  0  0  0  0  0  0
   58.0780   31.8530   41.1638 H   0  0  0  0  0  0  0  0  0  0  0  0
   55.6403   30.8845   42.3863 H   0  0  0  0  0  0  0  0  0  0  0  0
   57.0972   29.9302   42.1628 H   0  0  0  0  0  0  0  0  0  0  0  0
   56.7200   30.2610   44.7250 H   0  0  0  0  0  0  0  0  0  0  0  0
   56.8170   31.6129   46.6960 H   0  0  0  0  0  0  0  0  0  0  0  0
   57.8042   32.2914   48.8812 H   0  0  0  0  0  0  0  0  0  0  0  0
   60.5182   31.4410   47.6764 H   0  0  0  0  0  0  0  0  0  0  0  0
  1  2  2  0
  2  3  1  0
  3  4  1  0
  4  5  1  0
  5  6  2  0
  6  7  1  0
  7  8  2  0
  8  9  1  0
  8 10  1  0
 10 11  1  0
 10 12  2  0
  2 13  1  0
 13 14  2  0
 14 15  1  0
 15 16  2  0
 16 17  1  0
 17 18  1  0
 18 19  1  0
 19 20  2  0
 19 21  2  0
 19 22  1  0
 22 23  2  0
 23 24  1  0
 24 25  2  0
 25 26  1  0
 26 27  2  0
 27 28  1  0
 28 29  1  0
 29 30  1  0
 25 31  1  0
 31 32  2  0
 17 33  2  0
 12  5  1  0
 33 13  1  0
 32 22  1  0
 30 26  1  0
  4 34  1  0
  4 35  1  0
  6 36  1  0
  7 37  1  0
  9 38  1  0
 12 39  1  0
 14 40  1  0
 15 41  1  0
 16 42  1  0
 23 43  1  0
 24 44  1  0
 28 45  1  0
 28 46  1  0
 29 47  1  0
 29 48  1  0
 30 49  1  0
 31 50  1  0
 32 51  1  0
 33 52  1  0
M  CHG  3   3  -1  11  -1  18  -1
M  END
>  <UniqueID>  (47) 
44

>  <SMILES>  (47) 
O=C([N-]Cc1ccc(O)c([O-])c1)c1cccc([N-]S(=O)(=O)c2ccc(C3=NCCN3)cc2)c1

>  <Energy>  (47) 
87.94348907387227

>  <Genealogy>  (47) 
O=C([N-]Cc1ccc(O)c([O-])c1)c1cccc([N-]S(=O)(=O)c2ccc(C3=NCCN3)cc2)c1 (protonated)
O=C([N-]Cc1ccc(O)c([O-])c1)c1cccc([N-]S(=O)(=O)c2ccc(C3=NCCN3)cc2)c1 (3D coordinates assigned)
O=C([N-]Cc1ccc(O)c([O-])c1)c1cccc([N-]S(=O)(=O)c2ccc(C3=NCCN3)cc2)c1 (nonaromatic ring conformer: 87.94348907387227 kcal/mol)

>  <smiles>  (47) 
O=C(NCc1ccc(O)c(O)c1)c1cccc(NS(=O)(=O)c2ccc(C3=NCCN3)cc2)c1

>  <score_type>  (47) 
oracle

>  <origin>  (47) 
adg

>  <m_score__min__energy>  (47) 
-15.279999999999999

>  <m_primary>  (47) 
energy

$$$$
47:0
     RDKit          3D

 45 48  0  0  1  0  0  0  0  0999 V2000
   59.6470   34.0130   49.6660 C   0  0  0  0  0  0  0  0  0  0  0  0
   60.7990   33.7400   49.0510 C   0  0  0  0  0  0  0  0  0  0  0  0
   61.8260   32.9840   49.6480 N   0  0  0  0  0  0  0  0  0  0  0  0
   62.8730   32.9140   48.6840 C   0  0  0  0  0  0  0  0  0  0  0  0
   64.0090   32.3160   48.8850 C   0  0  0  0  0  0  0  0  0  0  0  0
   65.0530   32.7370   49.7970 C   0  0  0  0  0  0  0  0  0  0  0  0
   66.3620   32.9450   49.6120 N   0  0  0  0  0  0  0  0  0  0  0  0
   66.8710   33.4320   50.7740 C   0  0  0  0  0  0  0  0  0  0  0  0
   68.0920   33.7430   50.9550 O   0  0  0  0  0  0  0  0  0  0  0  0
   65.8980   33.5350   51.6970 N   0  0  0  0  0  0  0  0  0  0  0  0
   64.7500   33.1090   51.1230 C   0  0  0  0  0  0  0  0  0  0  0  0
   63.5230   33.0630   51.7550 O   0  0  0  0  0  0  0  0  0  0  0  0
   62.5150   33.6290   47.4730 C   0  0  0  0  0  0  0  0  0  0  0  0
   63.1760   33.8790   46.3750 C   0  0  0  0  0  0  0  0  0  0  0  0
   61.1870   34.1420   47.7410 N   0  0  0  0  0  0  0  0  0  0  0  0
   60.3600   34.9370   46.8760 C   0  0  0  0  0  0  0  0  0  0  0  0
   59.0270   34.3210   46.6100 C   0  0  0  0  0  0  0  0  0  0  0  0
   57.8810   34.3100   46.8230 N   0  0  0  0  0  0  0  0  0  0  0  0
   56.9330   33.5730   46.3780 N   0  0  0  0  0  0  0  0  0  0  0  0
   57.2740   32.6360   45.5090 C   0  0  0  0  0  0  0  0  0  0  0  0
   56.6520   31.7400   44.8620 N   0  0  0  0  0  0  0  0  0  0  0  0
   57.1760   30.4210   44.6380 C   0  0  0  0  0  0  0  0  0  0  0  0
   58.0130   29.8660   45.5770 C   0  0  0  0  0  0  0  0  0  0  0  0
   58.5570   28.5930   45.4260 C   0  0  0  0  0  0  0  0  0  0  0  0
   58.2540   27.8390   44.2910 C   0  0  0  0  0  0  0  0  0  0  0  0
   57.4110   28.4110   43.3610 C   0  0  0  0  0  0  0  0  0  0  0  0
   56.8790   29.6850   43.5290 C   0  0  0  0  0  0  0  0  0  0  0  0
   59.1190   32.8700   45.3500 S   0  0  0  0  0  0  0  0  0  0  0  0
   58.8775   34.6088   49.1532 H   0  0  0  0  0  0  0  0  0  0  0  0
   59.4667   33.6423   50.6858 H   0  0  0  0  0  0  0  0  0  0  0  0
   61.8220   32.5650   50.5870 H   0  0  0  0  0  0  0  0  0  0  0  0
   64.1964   31.3999   48.3056 H   0  0  0  0  0  0  0  0  0  0  0  0
   66.8610   32.7540   48.7150 H   0  0  0  0  0  0  0  0  0  0  0  0
   65.9830   33.8780   52.6900 H   0  0  0  0  0  0  0  0  0  0  0  0
   63.4370   33.2050   52.7630 H   0  0  0  0  0  0  0  0  0  0  0  0
   62.7008   34.4523   45.5654 H   0  0  0  0  0  0  0  0  0  0  0  0
   64.2080   33.5163   46.2596 H   0  0  0  0  0  0  0  0  0  0  0  0
   60.2040   35.9190   47.3465 H   0  0  0  0  0  0  0  0  0  0  0  0
   60.8808   35.0202   45.9107 H   0  0  0  0  0  0  0  0  0  0  0  0
   55.9130   33.6980   46.6820 H   0  0  0  0  0  0  0  0  0  0  0  0
   58.2612   30.4469   46.4775 H   0  0  0  0  0  0  0  0  0  0  0  0
   59.2236   28.1828   46.1989 H   0  0  0  0  0  0  0  0  0  0  0  0
   58.6699   26.8313   44.1444 H   0  0  0  0  0  0  0  0  0  0  0  0
   57.1510   27.8409   42.4569 H   0  0  0  0  0  0  0  0  0  0  0  0
   56.2125   30.1029   42.7602 H   0  0  0  0  0  0  0  0  0  0  0  0
  1  2  2  0
  2  3  1  0
  3  4  1  0
  4  5  2  0
  5  6  1  0
  6  7  1  0
  7  8  1  0
  8  9  2  0
  8 10  1  0
 10 11  1  0
 11 12  1  0
  4 13  1  0
 13 14  2  0
 13 15  1  0
 15 16  1  0
 16 17  1  0
 17 18  2  0
 18 19  1  0
 19 20  1  0
 20 21  2  0
 21 22  1  0
 22 23  2  0
 23 24  1  0
 24 25  2  0
 25 26  1  0
 26 27  2  0
 20 28  1  0
 15  2  1  0
 28 17  1  0
 11  6  2  0
 27 22  1  0
  1 29  1  0
  1 30  1  0
  3 31  1  0
  5 32  1  0
  7 33  1  0
 10 34  1  0
 12 35  1  0
 14 36  1  0
 14 37  1  0
 16 38  1  0
 16 39  1  0
 19 40  1  0
 23 41  1  0
 24 42  1  0
 25 43  1  0
 26 44  1  0
 27 45  1  0
M  END
>  <smiles>  (48) 
C=C1NC(=Cc2[nH]c(=O)[nH]c2O)C(=C)N1Cc1n[nH]c(=Nc2ccccc2)s1

>  <score_type>  (48) 
oracle

>  <origin>  (48) 
adg

>  <m_score__min__energy>  (48) 
-10.359999999999999

>  <m_primary>  (48) 
energy

$$$$
48:0
     RDKit          3D

 61 65  0  0  0  0  0  0  0  0999 V2000
   54.3760   22.5450   48.4620 C   0  0  0  0  0  0  0  0  0  0  0  0
   54.2880   23.1070   47.1160 N   0  0  0  0  0  0  0  0  0  0  0  0
   55.2790   23.6690   46.3520 C   0  0  0  0  0  0  0  0  0  0  0  0
   56.7120   23.7120   46.7070 C   0  0  0  0  0  0  0  0  0  0  0  0
   57.1470   22.9110   47.5720 O   0  0  0  0  0  0  0  0  0  0  0  0
   57.6280   24.6290   46.0930 N   0  0  0  0  0  0  0  0  0  0  0  0
   57.7500   26.0350   46.3670 C   0  0  0  0  0  0  0  0  0  0  0  0
   57.2300   27.0100   45.4980 C   0  0  0  0  0  0  0  0  0  0  0  0
   57.4180   28.3820   45.7500 C   0  0  0  0  0  0  0  0  0  0  0  0
   56.9210   29.3790   44.7600 C   0  0  0  0  0  0  0  0  0  0  0  0
   55.7180   29.7530   44.8510 O   0  0  0  0  0  0  0  0  0  0  0  0
   57.7900   29.9450   43.7330 N   0  0  0  0  0  0  0  0  0  0  0  0
   57.3080   31.2290   43.1820 C   0  0  0  0  0  0  0  0  0  0  0  0
   57.3830   32.4050   44.1790 C   0  0  0  0  0  0  0  0  0  0  0  0
   58.5150   32.3360   45.1200 N   0  0  0  0  0  0  0  0  0  0  0  0
   58.7360   33.4860   45.9680 C   0  0  0  0  0  0  0  0  0  0  0  0
   58.4720   34.6410   45.5320 O   0  0  0  0  0  0  0  0  0  0  0  0
   59.1510   33.3480   47.4090 C   0  0  0  0  0  0  0  0  0  0  0  0
   60.6340   33.0940   47.4940 C   0  0  0  0  0  0  0  0  0  0  0  0
   61.5360   33.8940   46.7670 C   0  0  0  0  0  0  0  0  0  0  0  0
   62.9100   33.6380   46.8250 C   0  0  0  0  0  0  0  0  0  0  0  0
   63.3950   32.5790   47.5980 C   0  0  0  0  0  0  0  0  0  0  0  0
   62.5060   31.7700   48.3140 C   0  0  0  0  0  0  0  0  0  0  0  0
   61.1290   32.0230   48.2600 C   0  0  0  0  0  0  0  0  0  0  0  0
   59.2650   31.0960   45.3730 C   0  0  0  0  0  0  0  0  0  0  0  0
   59.1780   30.1110   44.2080 C   0  0  0  0  0  0  0  0  0  0  0  0
   58.0860   28.7670   46.9280 C   0  0  0  0  0  0  0  0  0  0  0  0
   58.5530   27.8020   47.8220 C   0  0  0  0  0  0  0  0  0  0  0  0
   58.3860   26.4440   47.5440 C   0  0  0  0  0  0  0  0  0  0  0  0
   58.8640   25.5200   48.4120 F   0  0  0  0  0  0  0  0  0  0  0  0
   54.7770   24.1210   45.1230 C   0  0  0  0  0  0  0  0  0  0  0  0
   53.4510   23.7690   45.1730 C   0  0  0  0  0  0  0  0  0  0  0  0
   52.0870   23.8280   44.2070 S   0  0  0  0  0  0  0  0  0  0  0  0
   51.1160   23.0520   45.3890 C   0  0  0  0  0  0  0  0  0  0  0  0
   51.8810   22.7480   46.5260 C   0  0  0  0  0  0  0  0  0  0  0  0
   53.1910   23.1780   46.3450 C   0  0  0  0  0  0  0  0  0  0  0  0
   54.2503   23.3478   49.2035 H   0  0  0  0  0  0  0  0  0  0  0  0
   53.5846   21.7931   48.5979 H   0  0  0  0  0  0  0  0  0  0  0  0
   55.3593   22.0710   48.5979 H   0  0  0  0  0  0  0  0  0  0  0  0
   56.6671   26.6957   44.6067 H   0  0  0  0  0  0  0  0  0  0  0  0
   57.8060   29.2800   42.9260 H   0  0  0  0  0  0  0  0  0  0  0  0
   57.9201   31.4804   42.3033 H   0  0  0  0  0  0  0  0  0  0  0  0
   56.2460   31.0902   42.9312 H   0  0  0  0  0  0  0  0  0  0  0  0
   57.4707   33.3384   43.6036 H   0  0  0  0  0  0  0  0  0  0  0  0
   56.4673   32.3593   44.7867 H   0  0  0  0  0  0  0  0  0  0  0  0
   58.9083   34.2752   47.9488 H   0  0  0  0  0  0  0  0  0  0  0  0
   58.6124   32.5023   47.8614 H   0  0  0  0  0  0  0  0  0  0  0  0
   61.1588   34.7236   46.1510 H   0  0  0  0  0  0  0  0  0  0  0  0
   63.6105   34.2715   46.2610 H   0  0  0  0  0  0  0  0  0  0  0  0
   64.4762   32.3816   47.6433 H   0  0  0  0  0  0  0  0  0  0  0  0
   62.8883   30.9350   48.9195 H   0  0  0  0  0  0  0  0  0  0  0  0
   60.4320   31.3814   48.8190 H   0  0  0  0  0  0  0  0  0  0  0  0
   60.3217   31.3510   45.5411 H   0  0  0  0  0  0  0  0  0  0  0  0
   58.8207   30.6108   46.2546 H   0  0  0  0  0  0  0  0  0  0  0  0
   59.7959   30.4852   43.3784 H   0  0  0  0  0  0  0  0  0  0  0  0
   59.5384   29.1330   44.5595 H   0  0  0  0  0  0  0  0  0  0  0  0
   58.2408   29.8342   47.1451 H   0  0  0  0  0  0  0  0  0  0  0  0
   59.0550   28.1130   48.7500 H   0  0  0  0  0  0  0  0  0  0  0  0
   55.3163   24.6344   44.3133 H   0  0  0  0  0  0  0  0  0  0  0  0
   50.0460   22.8249   45.2726 H   0  0  0  0  0  0  0  0  0  0  0  0
   51.5006   22.2442   47.4268 H   0  0  0  0  0  0  0  0  0  0  0  0
  1  2  1  0
  2  3  1  0
  3  4  1  0
  4  5  2  0
  4  6  1  0
  6  7  1  0
  7  8  2  0
  8  9  1  0
  9 10  1  0
 10 11  2  0
 10 12  1  0
 12 13  1  0
 13 14  1  0
 14 15  1  0
 15 16  1  0
 16 17  2  0
 16 18  1  0
 18 19  1  0
 19 20  2  0
 20 21  1  0
 21 22  2  0
 22 23  1  0
 23 24  2  0
 15 25  1  0
 25 26  1  0
  9 27  2  0
 27 28  1  0
 28 29  2  0
 29 30  1  0
  3 31  2  0
 31 32  1  0
 32 33  1  0
 33 34  1  0
 34 35  2  0
 35 36  1  0
 36  2  1  0
 29  7  1  0
 36 32  2  0
 26 12  1  0
 24 19  1  0
  1 37  1  0
  1 38  1  0
  1 39  1  0
  8 40  1  0
 12 41  1  0
 13 42  1  0
 13 43  1  0
 14 44  1  0
 14 45  1  0
 18 46  1  0
 18 47  1  0
 20 48  1  0
 21 49  1  0
 22 50  1  0
 23 51  1  0
 24 52  1  0
 25 53  1  0
 25 54  1  0
 26 55  1  0
 26 56  1  0
 27 57  1  0
 28 58  1  0
 31 59  1  0
 34 60  1  0
 35 61  1  0
M  CHG  2   6  -1  12   1
M  END
>  <UniqueID>  (49) 
45

>  <SMILES>  (49) 
Cn1c(C(=O)[N-]c2cc(C(=O)[NH+]3CCN(C(=O)Cc4ccccc4)CC3)ccc2F)cc2sccc21

>  <Energy>  (49) 
156.70970957909165

>  <Genealogy>  (49) 
Cn1c(C(=O)[N-]c2cc(C(=O)[NH+]3CCN(C(=O)Cc4ccccc4)CC3)ccc2F)cc2sccc21 (protonated)
Cn1c(C(=O)[N-]c2cc(C(=O)[NH+]3CCN(C(=O)Cc4ccccc4)CC3)ccc2F)cc2sccc21 (3D coordinates assigned)
Cn1c(C(=O)[N-]c2cc(C(=O)[NH+]3CCN(C(=O)Cc4ccccc4)CC3)ccc2F)cc2sccc21 (nonaromatic ring conformer: 156.70970957909165 kcal/mol)

>  <smiles>  (49) 
Cn1c(C(=O)Nc2cc(C(=O)N3CCN(C(=O)Cc4ccccc4)CC3)ccc2F)cc2sccc21

>  <score_type>  (49) 
oracle

>  <origin>  (49) 
adg

>  <m_score__min__energy>  (49) 
-9.3699999999999992

>  <m_primary>  (49) 
energy

$$$$
49:0
     RDKit          3D

 43 45  0  0  0  0  0  0  0  0999 V2000
   59.4045   30.0510   47.2780 H   0  0  0  0  0  0  0  0  0  0  0  0
   58.8570   29.5700   46.4540 C   0  0  0  0  0  0  0  0  0  0  0  0
   58.8560   28.2150   46.3430 N   0  0  0  0  0  0  0  0  0  0  0  0
   58.1870   27.5720   45.3500 C   0  0  0  0  0  0  0  0  0  0  0  0
   58.2540   26.0730   45.2590 C   0  0  0  0  0  0  0  0  0  0  0  0
   58.9261   25.7956   44.4336 H   0  0  0  0  0  0  0  0  0  0  0  0
   58.6286   25.6875   46.2187 H   0  0  0  0  0  0  0  0  0  0  0  0
   56.8720   25.4580   45.0030 C   0  0  0  0  0  0  0  0  0  0  0  0
   56.4360   25.9208   44.1054 H   0  0  0  0  0  0  0  0  0  0  0  0
   56.9979   24.3741   44.8642 H   0  0  0  0  0  0  0  0  0  0  0  0
   55.9480   25.6780   46.1610 C   0  0  0  0  0  0  0  0  0  0  0  0
   56.2440   25.2330   47.3020 O   0  0  0  0  0  0  0  0  0  0  0  0
   54.7400   26.3380   45.9730 O   0  0  0  0  0  0  0  0  0  0  0  0
   57.4760   28.3160   44.4010 C   0  0  0  0  0  0  0  0  0  0  0  0
   56.9346   27.8074   43.5897 H   0  0  0  0  0  0  0  0  0  0  0  0
   57.4600   29.7080   44.4930 C   0  0  0  0  0  0  0  0  0  0  0  0
   56.8947   30.2979   43.7565 H   0  0  0  0  0  0  0  0  0  0  0  0
   58.1610   30.3610   45.5200 C   0  0  0  0  0  0  0  0  0  0  0  0
   58.1320   31.8440   45.6150 C   0  0  0  0  0  0  0  0  0  0  0  0
   58.8690   32.4630   46.5770 N   0  0  0  0  0  0  0  0  0  0  0  0
   58.8750   33.8170   46.7200 C   0  0  0  0  0  0  0  0  0  0  0  0
   59.6040   34.3980   47.6270 N   0  0  0  0  0  0  0  0  0  0  0  0
   60.9720   34.0930   47.9530 C   0  0  0  0  0  0  0  0  0  0  0  0
   61.3680   34.1330   49.2940 C   0  0  0  0  0  0  0  0  0  0  0  0
   60.6406   34.4145   50.0697 H   0  0  0  0  0  0  0  0  0  0  0  0
   62.6810   33.8180   49.6560 C   0  0  0  0  0  0  0  0  0  0  0  0
   62.9827   33.8683   50.7126 H   0  0  0  0  0  0  0  0  0  0  0  0
   63.6200   33.4370   48.6790 C   0  0  0  0  0  0  0  0  0  0  0  0
   64.9800   33.1110   49.0280 N   0  0  0  0  0  0  0  0  0  0  0  0
   65.7070   33.0850   48.2790 H   0  0  0  0  0  0  0  0  0  0  0  0
   65.4130   32.8140   50.3900 C   0  0  0  0  0  0  0  0  0  0  0  0
   64.7238   33.2868   51.1052 H   0  0  0  0  0  0  0  0  0  0  0  0
   65.4127   31.7251   50.5456 H   0  0  0  0  0  0  0  0  0  0  0  0
   66.4288   33.2064   50.5456 H   0  0  0  0  0  0  0  0  0  0  0  0
   63.2090   33.3640   47.3360 C   0  0  0  0  0  0  0  0  0  0  0  0
   64.0800   32.9760   46.3690 F   0  0  0  0  0  0  0  0  0  0  0  0
   61.8950   33.6780   46.9780 C   0  0  0  0  0  0  0  0  0  0  0  0
   61.5814   33.5998   45.9266 H   0  0  0  0  0  0  0  0  0  0  0  0
   58.1400   34.5810   45.8720 N   0  0  0  0  0  0  0  0  0  0  0  0
   57.3790   34.0160   44.8990 C   0  0  0  0  0  0  0  0  0  0  0  0
   56.7827   34.6518   44.2281 H   0  0  0  0  0  0  0  0  0  0  0  0
   57.3540   32.6300   44.7510 C   0  0  0  0  0  0  0  0  0  0  0  0
   56.7358   32.1611   43.9713 H   0  0  0  0  0  0  0  0  0  0  0  0
  1  2  1  0
  2  3  2  0
  3  4  1  0
  4  5  1  0
  5  6  1  0
  5  7  1  0
  5  8  1  0
  8  9  1  0
  8 10  1  0
  8 11  1  0
 11 12  2  0
 11 13  1  0
  4 14  2  0
 14 15  1  0
 14 16  1  0
 16 17  1  0
 16 18  2  0
 18 19  1  0
 19 20  2  0
 20 21  1  0
 21 22  2  0
 22 23  1  0
 23 24  2  0
 24 25  1  0
 24 26  1  0
 26 27  1  0
 26 28  2  0
 28 29  1  0
 29 30  1  0
 29 31  1  0
 31 32  1  0
 31 33  1  0
 31 34  1  0
 28 35  1  0
 35 36  1  0
 35 37  2  0
 37 38  1  0
 21 39  1  0
 39 40  1  0
 40 41  1  0
 40 42  2  0
 42 43  1  0
 18  2  1  0
 42 19  1  0
 37 23  1  0
M  CHG  2  13  -1  39  -1
M  END
>  <UniqueID>  (50) 
46

>  <SMILES>  (50) 
CNc1ccc(/N=c2\nc(-c3ccc(CCC(=O)[O-])nc3)cc[n-]2)cc1F

>  <Energy>  (50) 
51.96799052972158

>  <Genealogy>  (50) 
CNc1ccc(N=c2nc(-c3ccc(CCC(=O)[O-])nc3)cc[n-]2)cc1F (protonated)
CNc1ccc(/N=c2\nc(-c3ccc(CCC(=O)[O-])nc3)cc[n-]2)cc1F (cis-trans isomerization)
CNc1ccc(/N=c2\nc(-c3ccc(CCC(=O)[O-])nc3)cc[n-]2)cc1F (3D coordinates assigned)
CNc1ccc(/N=c2\nc(-c3ccc(CCC(=O)[O-])nc3)cc[n-]2)cc1F (optimized conformer: 51.96799052972158 kcal/mol)

>  <smiles>  (50) 
CNc1ccc(N=c2nc(-c3ccc(CCC(=O)O)nc3)cc[nH]2)cc1F

>  <score_type>  (50) 
oracle

>  <origin>  (50) 
adg

>  <m_score__min__energy>  (50) 
-12.449999999999999

>  <m_primary>  (50) 
energy

$$$$
50:0
     RDKit          3D

 41 43  0  0  0  0  0  0  0  0999 V2000
   60.1269   31.3183   49.9988 H   0  0  0  0  0  0  0  0  0  0  0  0
   59.3120   30.7480   49.5290 C   0  0  0  0  0  0  0  0  0  0  0  0
   58.3636   30.5996   50.0662 H   0  0  0  0  0  0  0  0  0  0  0  0
   59.4740   30.2360   48.3070 C   0  0  0  0  0  0  0  0  0  0  0  0
   58.5000   29.5270   47.6880 N   0  0  0  0  0  0  0  0  0  0  0  0
   59.0240   29.2190   46.4820 C   0  0  0  0  0  0  0  0  0  0  0  0
   58.4140   28.4770   45.5480 C   0  0  0  0  0  0  0  0  0  0  0  0
   58.5874   28.7205   44.4894 H   0  0  0  0  0  0  0  0  0  0  0  0
   57.5170   27.3440   45.8740 C   0  0  0  0  0  0  0  0  0  0  0  0
   56.1220   27.4220   45.7040 C   0  0  0  0  0  0  0  0  0  0  0  0
   55.5260   28.5780   45.2150 O   0  0  0  0  0  0  0  0  0  0  0  0
   55.3410   26.3480   45.9930 N   0  0  0  0  0  0  0  0  0  0  0  0
   55.8850   25.1840   46.4300 C   0  0  0  0  0  0  0  0  0  0  0  0
   55.1410   24.2040   46.6920 O   0  0  0  0  0  0  0  0  0  0  0  0
   57.2300   25.0760   46.5800 N   0  0  0  0  0  0  0  0  0  0  0  0
   58.0550   26.1200   46.3080 C   0  0  0  0  0  0  0  0  0  0  0  0
   59.3000   25.9810   46.4580 O   0  0  0  0  0  0  0  0  0  0  0  0
   60.2950   29.7420   46.3990 C   0  0  0  0  0  0  0  0  0  0  0  0
   61.0710   29.6560   45.4070 O   0  0  0  0  0  0  0  0  0  0  0  0
   60.5980   30.3690   47.5510 N   0  0  0  0  0  0  0  0  0  0  0  0
   61.8650   31.0330   47.8830 C   0  0  0  0  0  0  0  0  0  0  0  0
   62.0510   30.9269   48.9620 H   0  0  0  0  0  0  0  0  0  0  0  0
   62.6652   30.5579   47.2965 H   0  0  0  0  0  0  0  0  0  0  0  0
   61.8340   32.5010   47.5340 C   0  0  0  0  0  0  0  0  0  0  0  0
   62.8140   32.9820   46.9020 O   0  0  0  0  0  0  0  0  0  0  0  0
   60.7260   33.3580   47.8890 N   0  0  0  0  0  0  0  0  0  0  0  0
   59.6490   33.6150   46.9720 C   0  0  0  0  0  0  0  0  0  0  0  0
   59.8920   34.3060   45.7750 C   0  0  0  0  0  0  0  0  0  0  0  0
   60.9065   34.6630   45.5443 H   0  0  0  0  0  0  0  0  0  0  0  0
   58.8490   34.5420   44.8750 C   0  0  0  0  0  0  0  0  0  0  0  0
   59.0460   35.0722   43.9316 H   0  0  0  0  0  0  0  0  0  0  0  0
   57.5550   34.1040   45.1740 C   0  0  0  0  0  0  0  0  0  0  0  0
   56.7344   34.2899   44.4655 H   0  0  0  0  0  0  0  0  0  0  0  0
   57.3040   33.4310   46.3710 C   0  0  0  0  0  0  0  0  0  0  0  0
   56.2840   33.0946   46.6086 H   0  0  0  0  0  0  0  0  0  0  0  0
   58.3470   33.1840   47.2680 C   0  0  0  0  0  0  0  0  0  0  0  0
   58.1465   32.6502   48.2087 H   0  0  0  0  0  0  0  0  0  0  0  0
   60.7430   34.0560   49.1760 C   0  0  0  0  0  0  0  0  0  0  0  0
   60.7251   33.3195   49.9928 H   0  0  0  0  0  0  0  0  0  0  0  0
   61.6562   34.6646   49.2510 H   0  0  0  0  0  0  0  0  0  0  0  0
   59.8605   34.7083   49.2510 H   0  0  0  0  0  0  0  0  0  0  0  0
  1  2  1  0
  2  3  1  0
  2  4  2  0
  4  5  1  0
  5  6  1  0
  6  7  2  0
  7  8  1  0
  7  9  1  0
  9 10  2  0
 10 11  1  0
 10 12  1  0
 12 13  1  0
 13 14  2  0
 13 15  1  0
 15 16  1  0
 16 17  2  0
  6 18  1  0
 18 19  2  0
 18 20  1  0
 20 21  1  0
 21 22  1  0
 21 23  1  0
 21 24  1  0
 24 25  2  0
 24 26  1  0
 26 27  1  0
 27 28  2  0
 28 29  1  0
 28 30  1  0
 30 31  1  0
 30 32  2  0
 32 33  1  0
 32 34  1  0
 34 35  1  0
 34 36  2  0
 36 37  1  0
 26 38  1  0
 38 39  1  0
 38 40  1  0
 38 41  1  0
 20  4  1  0
 36 27  1  0
 16  9  1  0
M  CHG  4   5  -1  11  -1  12  -1  15  -1
M  END
>  <UniqueID>  (51) 
47

>  <SMILES>  (51) 
C=c1[n-]/c(=C\c2c([O-])[n-]c(=O)[n-]c2=O)c(=O)n1CC(=O)N(C)c1ccccc1

>  <Energy>  (51) 
87.47666923216619

>  <Genealogy>  (51) 
C=c1[n-]c(=Cc2c([O-])[n-]c(=O)[n-]c2=O)c(=O)n1CC(=O)N(C)c1ccccc1 (protonated)
C=c1[n-]/c(=C\c2c([O-])[n-]c(=O)[n-]c2=O)c(=O)n1CC(=O)N(C)c1ccccc1 (cis-trans isomerization)
C=c1[n-]/c(=C\c2c([O-])[n-]c(=O)[n-]c2=O)c(=O)n1CC(=O)N(C)c1ccccc1 (3D coordinates assigned)
C=c1[n-]/c(=C\c2c([O-])[n-]c(=O)[n-]c2=O)c(=O)n1CC(=O)N(C)c1ccccc1 (optimized conformer: 87.47666923216619 kcal/mol)

>  <smiles>  (51) 
C=c1[nH]c(=Cc2c(O)[nH]c(=O)[nH]c2=O)c(=O)n1CC(=O)N(C)c1ccccc1

>  <score_type>  (51) 
oracle

>  <origin>  (51) 
adg

>  <m_score__min__energy>  (51) 
-17.390000000000001

>  <m_primary>  (51) 
energy

$$$$
51:0
     RDKit          3D

 64 67  0  0  0  0  0  0  0  0999 V2000
   55.8390   29.5910   43.9400 C   0  0  0  0  0  0  0  0  0  0  0  0
   55.5250   28.7620   45.0550 O   0  0  0  0  0  0  0  0  0  0  0  0
   56.4000   27.8190   45.6150 C   0  0  0  0  0  0  0  0  0  0  0  0
   57.7820   28.0620   45.7480 C   0  0  0  0  0  0  0  0  0  0  0  0
   58.6240   27.0950   46.3220 C   0  0  0  0  0  0  0  0  0  0  0  0
   60.0990   27.3650   46.4570 C   0  0  0  0  0  0  0  0  0  0  0  0
   60.5190   27.2490   47.8550 N   0  0  0  0  0  0  0  0  0  0  0  0
   60.2930   28.2560   48.8600 C   0  0  0  0  0  0  0  0  0  0  0  0
   59.3190   29.2600   48.7030 C   0  0  0  0  0  0  0  0  0  0  0  0
   59.1230   30.2190   49.7010 C   0  0  0  0  0  0  0  0  0  0  0  0
   59.8860   30.1860   50.8780 C   0  0  0  0  0  0  0  0  0  0  0  0
   59.6880   31.2330   51.9450 C   0  0  0  0  0  0  0  0  0  0  0  0
   59.4370   32.6050   51.3650 C   0  0  0  0  0  0  0  0  0  0  0  0
   58.6190   33.3790   51.9370 O   0  0  0  0  0  0  0  0  0  0  0  0
   60.1280   33.0580   50.1790 N   0  0  0  0  0  0  0  0  0  0  0  0
   61.3800   32.4440   49.7130 C   0  0  0  0  0  0  0  0  0  0  0  0
   61.3430   32.2210   48.1870 C   0  0  0  0  0  0  0  0  0  0  0  0
   60.5700   33.2480   47.4250 N   0  0  0  0  0  0  0  0  0  0  0  0
   59.3030   32.7010   46.8490 C   0  0  0  0  0  0  0  0  0  0  0  0
   58.5690   33.7030   45.9190 C   0  0  0  0  0  0  0  0  0  0  0  0
   57.3370   33.0610   45.2340 C   0  0  0  0  0  0  0  0  0  0  0  0
   57.3230   31.6460   45.3030 O   0  0  0  0  0  0  0  0  0  0  0  0
   58.5840   31.1370   44.9310 C   0  0  0  0  0  0  0  0  0  0  0  0
   59.6110   31.4080   46.0410 C   0  0  0  0  0  0  0  0  0  0  0  0
   60.4320   34.5050   48.1990 C   0  0  0  0  0  0  0  0  0  0  0  0
   59.6570   34.2720   49.5030 C   0  0  0  0  0  0  0  0  0  0  0  0
   60.8650   29.1930   51.0330 C   0  0  0  0  0  0  0  0  0  0  0  0
   61.0610   28.2340   50.0350 C   0  0  0  0  0  0  0  0  0  0  0  0
   58.0800   25.8720   46.7460 C   0  0  0  0  0  0  0  0  0  0  0  0
   56.7120   25.6280   46.6160 C   0  0  0  0  0  0  0  0  0  0  0  0
   55.8740   26.5960   46.0550 C   0  0  0  0  0  0  0  0  0  0  0  0
   54.5130   26.3390   45.9330 O   0  0  0  0  0  0  0  0  0  0  0  0
   56.2074   30.5635   44.2984 H   0  0  0  0  0  0  0  0  0  0  0  0
   56.6160   29.1067   43.3303 H   0  0  0  0  0  0  0  0  0  0  0  0
   54.9361   29.7429   43.3303 H   0  0  0  0  0  0  0  0  0  0  0  0
   58.2045   29.0161   45.3997 H   0  0  0  0  0  0  0  0  0  0  0  0
   60.6568   26.6363   45.8504 H   0  0  0  0  0  0  0  0  0  0  0  0
   60.3053   28.3878   46.1087 H   0  0  0  0  0  0  0  0  0  0  0  0
   61.0570   26.3930   48.1190 H   0  0  0  0  0  0  0  0  0  0  0  0
   58.7080   29.2902   47.7888 H   0  0  0  0  0  0  0  0  0  0  0  0
   58.3656   31.0046   49.5627 H   0  0  0  0  0  0  0  0  0  0  0  0
   58.8247   30.9477   52.5641 H   0  0  0  0  0  0  0  0  0  0  0  0
   60.6114   31.2841   52.5406 H   0  0  0  0  0  0  0  0  0  0  0  0
   62.2216   33.1076   49.9607 H   0  0  0  0  0  0  0  0  0  0  0  0
   61.5027   31.4703   50.2098 H   0  0  0  0  0  0  0  0  0  0  0  0
   62.3781   32.2252   47.8148 H   0  0  0  0  0  0  0  0  0  0  0  0
   60.8292   31.2619   48.0253 H   0  0  0  0  0  0  0  0  0  0  0  0
   58.6388   32.4917   47.7005 H   0  0  0  0  0  0  0  0  0  0  0  0
   58.2348   34.5636   46.5170 H   0  0  0  0  0  0  0  0  0  0  0  0
   59.2718   34.0149   45.1324 H   0  0  0  0  0  0  0  0  0  0  0  0
   56.4288   33.4421   45.7239 H   0  0  0  0  0  0  0  0  0  0  0  0
   57.3826   33.3316   44.1688 H   0  0  0  0  0  0  0  0  0  0  0  0
   58.5043   30.0524   44.7660 H   0  0  0  0  0  0  0  0  0  0  0  0
   58.9140   31.6330   44.0063 H   0  0  0  0  0  0  0  0  0  0  0  0
   59.6127   30.5535   46.7337 H   0  0  0  0  0  0  0  0  0  0  0  0
   60.5897   31.5460   45.5582 H   0  0  0  0  0  0  0  0  0  0  0  0
   61.4339   34.8892   48.4409 H   0  0  0  0  0  0  0  0  0  0  0  0
   59.8752   35.2308   47.5880 H   0  0  0  0  0  0  0  0  0  0  0  0
   59.8034   35.1354   50.1687 H   0  0  0  0  0  0  0  0  0  0  0  0
   58.5905   34.1505   49.2625 H   0  0  0  0  0  0  0  0  0  0  0  0
   61.4811   29.1690   51.9440 H   0  0  0  0  0  0  0  0  0  0  0  0
   61.8247   27.4542   50.1717 H   0  0  0  0  0  0  0  0  0  0  0  0
   58.7346   25.1032   47.1823 H   0  0  0  0  0  0  0  0  0  0  0  0
   56.2916   24.6702   46.9563 H   0  0  0  0  0  0  0  0  0  0  0  0
  1  2  1  0
  2  3  1  0
  3  4  2  0
  4  5  1  0
  5  6  1  0
  6  7  1  0
  7  8  1  0
  8  9  2  0
  9 10  1  0
 10 11  2  0
 11 12  1  0
 12 13  1  0
 13 14  2  0
 13 15  1  0
 15 16  1  0
 16 17  1  0
 17 18  1  0
 18 19  1  0
 19 20  1  0
 20 21  1  0
 21 22  1  0
 22 23  1  0
 23 24  1  0
 18 25  1  0
 25 26  1  0
 11 27  1  0
 27 28  2  0
  5 29  2  0
 29 30  1  0
 30 31  2  0
 31 32  1  0
 31  3  1  0
 28  8  1  0
 26 15  1  0
 24 19  1  0
  1 33  1  0
  1 34  1  0
  1 35  1  0
  4 36  1  0
  6 37  1  0
  6 38  1  0
  7 39  1  0
  9 40  1  0
 10 41  1  0
 12 42  1  0
 12 43  1  0
 16 44  1  0
 16 45  1  0
 17 46  1  0
 17 47  1  0
 19 48  1  0
 20 49  1  0
 20 50  1  0
 21 51  1  0
 21 52  1  0
 23 53  1  0
 23 54  1  0
 24 55  1  0
 24 56  1  0
 25 57  1  0
 25 58  1  0
 26 59  1  0
 26 60  1  0
 27 61  1  0
 28 62  1  0
 29 63  1  0
 30 64  1  0
M  CHG  1  32  -1
M  END
>  <UniqueID>  (52) 
48

>  <SMILES>  (52) 
COc1cc(CNc2ccc(CC(=O)N3CCN(C4CCOCC4)CC3)cc2)ccc1[O-]

>  <Energy>  (52) 
86.79587723199542

>  <Genealogy>  (52) 
COc1cc(CNc2ccc(CC(=O)N3CCN(C4CCOCC4)CC3)cc2)ccc1[O-] (protonated)
COc1cc(CNc2ccc(CC(=O)N3CCN(C4CCOCC4)CC3)cc2)ccc1[O-] (3D coordinates assigned)
COc1cc(CNc2ccc(CC(=O)N3CCN(C4CCOCC4)CC3)cc2)ccc1[O-] (nonaromatic ring conformer: 86.79587723199542 kcal/mol)

>  <smiles>  (52) 
COc1cc(CNc2ccc(CC(=O)N3CCN(C4CCOCC4)CC3)cc2)ccc1O

>  <score_type>  (52) 
oracle

>  <origin>  (52) 
adg

>  <m_score__min__energy>  (52) 
-14.33

>  <m_primary>  (52) 
energy

$$$$
52:0
     RDKit          3D

 48 50  0  0  0  0  0  0  0  0999 V2000
   55.1470   21.9360   45.6700 C   0  0  0  0  0  0  0  0  0  0  0  0
   55.5090   23.2150   45.5430 C   0  0  0  0  0  0  0  0  0  0  0  0
   54.7880   24.2880   46.0370 C   0  0  0  0  0  0  0  0  0  0  0  0
   55.5050   25.4120   45.6880 C   0  0  0  0  0  0  0  0  0  0  0  0
   55.1200   26.7140   45.9880 O   0  0  0  0  0  0  0  0  0  0  0  0
   56.6290   25.0910   45.0120 N   0  0  0  0  0  0  0  0  0  0  0  0
   57.5900   26.0500   44.4540 C   0  0  0  0  0  0  0  0  0  0  0  0
   58.0920   26.9790   45.5280 C   0  0  0  0  0  0  0  0  0  0  0  0
   59.0110   26.5190   46.4830 C   0  0  0  0  0  0  0  0  0  0  0  0
   59.4700   27.3710   47.4920 C   0  0  0  0  0  0  0  0  0  0  0  0
   59.0100   28.6960   47.5680 C   0  0  0  0  0  0  0  0  0  0  0  0
   59.5040   29.5970   48.6310 C   0  0  0  0  0  0  0  0  0  0  0  0
   58.7630   29.8480   49.6210 O   0  0  0  0  0  0  0  0  0  0  0  0
   60.8090   30.1960   48.5550 N   0  0  0  0  0  0  0  0  0  0  0  0
   61.6400   30.3020   49.7600 C   0  0  0  0  0  0  0  0  0  0  0  0
   62.0340   31.7620   49.9930 C   0  0  0  0  0  0  0  0  0  0  0  0
   62.5370   32.3940   48.7590 N   0  0  0  0  0  0  0  0  0  0  0  0
   63.1210   33.7140   48.8110 C   0  0  0  0  0  0  0  0  0  0  0  0
   62.9880   34.5800   50.0280 C   0  0  0  0  0  0  0  0  0  0  0  0
   63.7750   34.1550   47.8270 O   0  0  0  0  0  0  0  0  0  0  0  0
   62.5490   31.6290   47.5010 C   0  0  0  0  0  0  0  0  0  0  0  0
   61.2260   30.8750   47.3180 C   0  0  0  0  0  0  0  0  0  0  0  0
   58.1100   29.1620   46.5960 C   0  0  0  0  0  0  0  0  0  0  0  0
   57.6520   28.3110   45.5860 C   0  0  0  0  0  0  0  0  0  0  0  0
   56.6410   23.7370   44.9110 C   0  0  0  0  0  0  0  0  0  0  0  0
   57.6010   23.0310   44.2970 C   0  0  0  0  0  0  0  0  0  0  0  0
   55.7786   21.1410   45.2469 H   0  0  0  0  0  0  0  0  0  0  0  0
   54.2172   21.6774   46.1977 H   0  0  0  0  0  0  0  0  0  0  0  0
   53.8395   24.2513   46.5928 H   0  0  0  0  0  0  0  0  0  0  0  0
   58.4406   25.5012   44.0234 H   0  0  0  0  0  0  0  0  0  0  0  0
   57.0888   26.6439   43.6755 H   0  0  0  0  0  0  0  0  0  0  0  0
   59.3728   25.4812   46.4376 H   0  0  0  0  0  0  0  0  0  0  0  0
   60.1960   27.0013   48.2311 H   0  0  0  0  0  0  0  0  0  0  0  0
   61.0730   29.9341   50.6278 H   0  0  0  0  0  0  0  0  0  0  0  0
   62.5496   29.6978   49.6274 H   0  0  0  0  0  0  0  0  0  0  0  0
   61.1521   32.3177   50.3444 H   0  0  0  0  0  0  0  0  0  0  0  0
   62.8384   31.7850   50.7429 H   0  0  0  0  0  0  0  0  0  0  0  0
   63.0832   33.9598   50.9315 H   0  0  0  0  0  0  0  0  0  0  0  0
   63.7793   35.3440   50.0226 H   0  0  0  0  0  0  0  0  0  0  0  0
   62.0039   35.0714   50.0226 H   0  0  0  0  0  0  0  0  0  0  0  0
   62.6908   32.3211   46.6578 H   0  0  0  0  0  0  0  0  0  0  0  0
   63.3720   30.9000   47.5359 H   0  0  0  0  0  0  0  0  0  0  0  0
   60.4451   31.5920   47.0247 H   0  0  0  0  0  0  0  0  0  0  0  0
   61.3726   30.1105   46.5408 H   0  0  0  0  0  0  0  0  0  0  0  0
   57.7626   30.2052   46.6297 H   0  0  0  0  0  0  0  0  0  0  0  0
   56.9435   28.6867   44.8331 H   0  0  0  0  0  0  0  0  0  0  0  0
   57.5372   21.9335   44.2584 H   0  0  0  0  0  0  0  0  0  0  0  0
   58.4525   23.5492   43.8318 H   0  0  0  0  0  0  0  0  0  0  0  0
  1  2  2  0
  2  3  1  0
  3  4  2  0
  4  5  1  0
  4  6  1  0
  6  7  1  0
  7  8  1  0
  8  9  2  0
  9 10  1  0
 10 11  2  0
 11 12  1  0
 12 13  2  0
 12 14  1  0
 14 15  1  0
 15 16  1  0
 16 17  1  0
 17 18  1  0
 18 19  1  0
 18 20  2  0
 17 21  1  0
 21 22  1  0
 11 23  1  0
 23 24  2  0
  6 25  1  0
 25 26  2  0
 25  2  1  0
 24  8  1  0
 22 14  1  0
  1 27  1  0
  1 28  1  0
  3 29  1  0
  7 30  1  0
  7 31  1  0
  9 32  1  0
 10 33  1  0
 15 34  1  0
 15 35  1  0
 16 36  1  0
 16 37  1  0
 19 38  1  0
 19 39  1  0
 19 40  1  0
 21 41  1  0
 21 42  1  0
 22 43  1  0
 22 44  1  0
 23 45  1  0
 24 46  1  0
 26 47  1  0
 26 48  1  0
M  CHG  1   5  -1
M  END
>  <UniqueID>  (53) 
49

>  <SMILES>  (53) 
C=c1cc([O-])n(Cc2ccc(C(=O)N3CCN(C(C)=O)CC3)cc2)c1=C

>  <Energy>  (53) 
83.0879076194078

>  <Genealogy>  (53) 
C=c1cc([O-])n(Cc2ccc(C(=O)N3CCN(C(C)=O)CC3)cc2)c1=C (protonated)
C=c1cc([O-])n(Cc2ccc(C(=O)N3CCN(C(C)=O)CC3)cc2)c1=C (3D coordinates assigned)
C=c1cc([O-])n(Cc2ccc(C(=O)N3CCN(C(C)=O)CC3)cc2)c1=C (nonaromatic ring conformer: 83.0879076194078 kcal/mol)

>  <smiles>  (53) 
C=c1cc(O)n(Cc2ccc(C(=O)N3CCN(C(C)=O)CC3)cc2)c1=C

>  <score_type>  (53) 
oracle

>  <origin>  (53) 
adg

>  <m_score__min__energy>  (53) 
-10.9

>  <m_primary>  (53) 
energy

$$$$
53:0
     RDKit          3D

 43 45  0  0  0  0  0  0  0  0999 V2000
   58.1480   32.6930   42.5460 C   0  0  0  0  0  0  0  0  0  0  0  0
   58.1930   32.9540   44.0280 C   0  0  0  0  0  0  0  0  0  0  0  0
   58.6820   34.1860   44.4890 C   0  0  0  0  0  0  0  0  0  0  0  0
   58.6950   34.4600   45.8560 C   0  0  0  0  0  0  0  0  0  0  0  0
   58.2380   33.5370   46.7400 N   0  0  0  0  0  0  0  0  0  0  0  0
   57.7710   32.3290   46.3330 C   0  0  0  0  0  0  0  0  0  0  0  0
   57.7540   31.9950   44.9700 C   0  0  0  0  0  0  0  0  0  0  0  0
   57.2700   30.6540   44.5770 C   0  0  0  0  0  0  0  0  0  0  0  0
   56.0290   30.4240   44.6190 O   0  0  0  0  0  0  0  0  0  0  0  0
   58.2010   29.5800   44.2950 N   0  0  0  0  0  0  0  0  0  0  0  0
   59.3420   29.6240   45.2500 C   0  0  0  0  0  0  0  0  0  0  0  0
   59.1760   28.6140   46.3950 C   0  0  0  0  0  0  0  0  0  0  0  0
   59.1080   27.2210   45.8880 N   0  0  0  0  0  0  0  0  0  0  0  0
   58.4590   26.3220   46.8670 C   0  0  0  0  0  0  0  0  0  0  0  0
   57.1550   25.8000   46.3380 C   0  0  0  0  0  0  0  0  0  0  0  0
   56.0180   26.5170   46.3090 N   0  0  0  0  0  0  0  0  0  0  0  0
   55.1180   25.6480   45.8050 C   0  0  0  0  0  0  0  0  0  0  0  0
   53.9110   25.9530   45.6220 O   0  0  0  0  0  0  0  0  0  0  0  0
   55.6110   24.4250   45.5200 N   0  0  0  0  0  0  0  0  0  0  0  0
   56.9090   24.5320   45.8530 C   0  0  0  0  0  0  0  0  0  0  0  0
   57.8840   23.4010   45.7760 C   0  0  0  0  0  0  0  0  0  0  0  0
   58.4740   27.1130   44.5490 C   0  0  0  0  0  0  0  0  0  0  0  0
   57.5010   28.2690   44.2720 C   0  0  0  0  0  0  0  0  0  0  0  0
   57.9636   31.6234   42.3675 H   0  0  0  0  0  0  0  0  0  0  0  0
   57.3387   33.2851   42.0938 H   0  0  0  0  0  0  0  0  0  0  0  0
   59.1089   32.9799   42.0938 H   0  0  0  0  0  0  0  0  0  0  0  0
   59.0542   34.9339   43.7734 H   0  0  0  0  0  0  0  0  0  0  0  0
   59.0763   35.4259   46.2187 H   0  0  0  0  0  0  0  0  0  0  0  0
   57.4033   31.6068   47.0768 H   0  0  0  0  0  0  0  0  0  0  0  0
   58.6010   29.7350   43.3400 H   0  0  0  0  0  0  0  0  0  0  0  0
   60.2695   29.3936   44.7054 H   0  0  0  0  0  0  0  0  0  0  0  0
   59.3773   30.6317   45.6896 H   0  0  0  0  0  0  0  0  0  0  0  0
   60.0337   28.7041   47.0778 H   0  0  0  0  0  0  0  0  0  0  0  0
   58.2338   28.8369   46.9170 H   0  0  0  0  0  0  0  0  0  0  0  0
   59.1280   25.4739   47.0747 H   0  0  0  0  0  0  0  0  0  0  0  0
   58.2605   26.8915   47.7869 H   0  0  0  0  0  0  0  0  0  0  0  0
   58.1580   23.0832   46.7928 H   0  0  0  0  0  0  0  0  0  0  0  0
   57.4254   22.5574   45.2393 H   0  0  0  0  0  0  0  0  0  0  0  0
   58.7859   23.7303   45.2393 H   0  0  0  0  0  0  0  0  0  0  0  0
   59.2625   27.1223   43.7821 H   0  0  0  0  0  0  0  0  0  0  0  0
   57.9000   26.1750   44.5221 H   0  0  0  0  0  0  0  0  0  0  0  0
   57.0443   28.1238   43.2819 H   0  0  0  0  0  0  0  0  0  0  0  0
   56.7317   28.2718   45.0582 H   0  0  0  0  0  0  0  0  0  0  0  0
  1  2  1  0
  2  3  2  0
  3  4  1  0
  4  5  2  0
  5  6  1  0
  6  7  2  0
  7  8  1  0
  8  9  2  0
  8 10  1  0
 10 11  1  0
 11 12  1  0
 12 13  1  0
 13 14  1  0
 14 15  1  0
 15 16  1  0
 16 17  1  0
 17 18  2  0
 17 19  1  0
 19 20  1  0
 20 21  1  0
 13 22  1  0
 22 23  1  0
  7  2  1  0
 23 10  1  0
 20 15  2  0
  1 24  1  0
  1 25  1  0
  1 26  1  0
  3 27  1  0
  4 28  1  0
  6 29  1  0
 10 30  1  0
 11 31  1  0
 11 32  1  0
 12 33  1  0
 12 34  1  0
 14 35  1  0
 14 36  1  0
 21 37  1  0
 21 38  1  0
 21 39  1  0
 22 40  1  0
 22 41  1  0
 23 42  1  0
 23 43  1  0
M  CHG  3  10   1  16  -1  19  -1
M  END
>  <UniqueID>  (54) 
50

>  <SMILES>  (54) 
Cc1ccncc1C(=O)[NH+]1CCN(Cc2[n-]c(=O)[n-]c2C)CC1

>  <Energy>  (54) 
92.53198218497722

>  <Genealogy>  (54) 
Cc1ccncc1C(=O)[NH+]1CCN(Cc2[n-]c(=O)[n-]c2C)CC1 (protonated)
Cc1ccncc1C(=O)[NH+]1CCN(Cc2[n-]c(=O)[n-]c2C)CC1 (3D coordinates assigned)
Cc1ccncc1C(=O)[NH+]1CCN(Cc2[n-]c(=O)[n-]c2C)CC1 (nonaromatic ring conformer: 92.53198218497722 kcal/mol)

>  <smiles>  (54) 
Cc1ccncc1C(=O)N1CCN(Cc2[nH]c(=O)[nH]c2C)CC1

>  <score_type>  (54) 
oracle

>  <origin>  (54) 
adg

>  <m_score__min__energy>  (54) 
-10.470000000000001

>  <m_primary>  (54) 
energy

$$$$
54:0
     RDKit          3D

 54 57  0  0  0  0  0  0  0  0999 V2000
   59.8690   27.2370   47.7310 C   0  0  0  0  0  0  0  0  0  0  0  0
   59.2790   28.4210   47.5090 C   0  0  0  0  0  0  0  0  0  0  0  0
   58.3140   28.7030   46.5300 C   0  0  0  0  0  0  0  0  0  0  0  0
   57.6070   27.8900   45.7190 C   0  0  0  0  0  0  0  0  0  0  0  0
   57.2550   26.4890   45.9990 C   0  0  0  0  0  0  0  0  0  0  0  0
   58.1490   25.5170   46.2890 N   0  0  0  0  0  0  0  0  0  0  0  0
   57.3740   24.4530   46.5950 C   0  0  0  0  0  0  0  0  0  0  0  0
   57.8490   23.3250   46.8940 O   0  0  0  0  0  0  0  0  0  0  0  0
   56.0510   24.7160   46.5530 N   0  0  0  0  0  0  0  0  0  0  0  0
   54.9450   23.7860   46.7560 C   0  0  0  0  0  0  0  0  0  0  0  0
   55.9800   26.0020   46.1770 C   0  0  0  0  0  0  0  0  0  0  0  0
   54.7970   26.7100   45.9990 O   0  0  0  0  0  0  0  0  0  0  0  0
   58.1420   30.0720   46.5400 C   0  0  0  0  0  0  0  0  0  0  0  0
   58.9390   30.5750   47.5470 C   0  0  0  0  0  0  0  0  0  0  0  0
   58.9280   31.9990   47.9510 C   0  0  0  0  0  0  0  0  0  0  0  0
   59.0410   32.8900   47.0670 O   0  0  0  0  0  0  0  0  0  0  0  0
   58.8940   32.3810   49.3420 N   0  0  0  0  0  0  0  0  0  0  0  0
   59.5060   33.6580   49.7420 C   0  0  0  0  0  0  0  0  0  0  0  0
   59.4750   33.8540   51.2640 C   0  0  0  0  0  0  0  0  0  0  0  0
   59.8760   32.5570   51.9720 C   0  0  0  0  0  0  0  0  0  0  0  0
   58.9570   31.3720   51.6050 C   0  0  0  0  0  0  0  0  0  0  0  0
   58.1270   31.6080   50.3320 C   0  0  0  0  0  0  0  0  0  0  0  0
   59.6370   29.5740   48.1440 N   0  0  0  0  0  0  0  0  0  0  0  0
   60.6790   29.7200   49.1800 C   0  0  0  0  0  0  0  0  0  0  0  0
   61.6730   30.8000   48.8180 C   0  0  0  0  0  0  0  0  0  0  0  0
   61.9210   31.1080   47.4670 C   0  0  0  0  0  0  0  0  0  0  0  0
   62.8380   32.1050   47.1240 C   0  0  0  0  0  0  0  0  0  0  0  0
   63.5300   32.7930   48.1220 C   0  0  0  0  0  0  0  0  0  0  0  0
   63.3120   32.4800   49.4660 C   0  0  0  0  0  0  0  0  0  0  0  0
   62.3940   31.4830   49.8150 C   0  0  0  0  0  0  0  0  0  0  0  0
   62.2320   31.1740   51.1250 F   0  0  0  0  0  0  0  0  0  0  0  0
   60.6158   27.1363   48.5324 H   0  0  0  0  0  0  0  0  0  0  0  0
   59.6061   26.3668   47.1117 H   0  0  0  0  0  0  0  0  0  0  0  0
   57.2628   28.3117   44.7631 H   0  0  0  0  0  0  0  0  0  0  0  0
   54.7775   23.6452   47.8340 H   0  0  0  0  0  0  0  0  0  0  0  0
   54.0338   24.1933   46.2935 H   0  0  0  0  0  0  0  0  0  0  0  0
   55.1899   22.8185   46.2935 H   0  0  0  0  0  0  0  0  0  0  0  0
   57.4912   30.6533   45.8703 H   0  0  0  0  0  0  0  0  0  0  0  0
   60.5522   33.6731   49.4025 H   0  0  0  0  0  0  0  0  0  0  0  0
   58.9284   34.4727   49.2809 H   0  0  0  0  0  0  0  0  0  0  0  0
   60.1788   34.6524   51.5420 H   0  0  0  0  0  0  0  0  0  0  0  0
   58.4549   34.1295   51.5699 H   0  0  0  0  0  0  0  0  0  0  0  0
   60.9078   32.3043   51.6866 H   0  0  0  0  0  0  0  0  0  0  0  0
   59.7848   32.7265   53.0550 H   0  0  0  0  0  0  0  0  0  0  0  0
   59.5832   30.4808   51.4516 H   0  0  0  0  0  0  0  0  0  0  0  0
   58.2461   31.2460   52.4349 H   0  0  0  0  0  0  0  0  0  0  0  0
   57.8519   30.6363   49.8959 H   0  0  0  0  0  0  0  0  0  0  0  0
   57.2248   32.1772   50.6006 H   0  0  0  0  0  0  0  0  0  0  0  0
   60.1995   29.9811   50.1349 H   0  0  0  0  0  0  0  0  0  0  0  0
   61.2205   28.7660   49.2616 H   0  0  0  0  0  0  0  0  0  0  0  0
   61.3890   30.5598   46.6755 H   0  0  0  0  0  0  0  0  0  0  0  0
   63.0148   32.3480   46.0658 H   0  0  0  0  0  0  0  0  0  0  0  0
   64.2470   33.5817   47.8503 H   0  0  0  0  0  0  0  0  0  0  0  0
   63.8629   33.0182   50.2514 H   0  0  0  0  0  0  0  0  0  0  0  0
  1  2  2  0
  2  3  1  0
  3  4  2  3
  4  5  1  0
  5  6  1  0
  6  7  1  0
  7  8  2  0
  7  9  1  0
  9 10  1  0
  9 11  1  0
 11 12  1  0
  3 13  1  0
 13 14  2  0
 14 15  1  0
 15 16  2  0
 15 17  1  0
 17 18  1  0
 18 19  1  0
 19 20  1  0
 20 21  1  0
 21 22  1  0
 14 23  1  0
 23 24  1  0
 24 25  1  0
 25 26  2  0
 26 27  1  0
 27 28  2  0
 28 29  1  0
 29 30  2  0
 30 31  1  0
 23  2  1  0
 30 25  1  0
 11  5  2  0
 22 17  1  0
  1 32  1  0
  1 33  1  0
  4 34  1  0
 10 35  1  0
 10 36  1  0
 10 37  1  0
 13 38  1  0
 18 39  1  0
 18 40  1  0
 19 41  1  0
 19 42  1  0
 20 43  1  0
 20 44  1  0
 21 45  1  0
 21 46  1  0
 22 47  1  0
 22 48  1  0
 24 49  1  0
 24 50  1  0
 26 51  1  0
 27 52  1  0
 28 53  1  0
 29 54  1  0
M  CHG  2   6  -1  12  -1
M  END
>  <UniqueID>  (55) 
51

>  <SMILES>  (55) 
C=c1c(=Cc2[n-]c(=O)n(C)c2[O-])cc(C(=O)N2CCCCC2)n1Cc1ccccc1F

>  <Energy>  (55) 
135.38536859585955

>  <Genealogy>  (55) 
C=c1c(=Cc2[n-]c(=O)n(C)c2[O-])cc(C(=O)N2CCCCC2)n1Cc1ccccc1F (protonated)
C=c1c(=Cc2[n-]c(=O)n(C)c2[O-])cc(C(=O)N2CCCCC2)n1Cc1ccccc1F (3D coordinates assigned)
C=c1c(=Cc2[n-]c(=O)n(C)c2[O-])cc(C(=O)N2CCCCC2)n1Cc1ccccc1F (nonaromatic ring conformer: 135.38536859585955 kcal/mol)

>  <smiles>  (55) 
C=c1c(=Cc2[nH]c(=O)n(C)c2O)cc(C(=O)N2CCCCC2)n1Cc1ccccc1F

>  <score_type>  (55) 
oracle

>  <origin>  (55) 
adg

>  <m_score__min__energy>  (55) 
-13.789999999999999

>  <m_primary>  (55) 
energy

$$$$
55:0
     RDKit          3D

 25 26  0  0  0  0  0  0  0  0999 V2000
   57.5980   28.1480   47.0650 O   0  0  0  0  0  0  0  0  0  0  0  0
   57.6940   27.2760   46.1600 C   0  0  0  0  0  0  0  0  0  0  0  0
   57.9360   27.6980   44.7460 C   0  0  0  0  0  0  0  0  0  0  0  0
   57.5980   29.1480   44.5840 C   0  0  0  0  0  0  0  0  0  0  0  0
   58.7350   30.3750   44.3750 S   0  0  0  0  0  0  0  0  0  0  0  0
   57.5650   31.5790   44.3830 C   0  0  0  0  0  0  0  0  0  0  0  0
   57.8080   32.8050   44.2510 O   0  0  0  0  0  0  0  0  0  0  0  0
   56.3180   31.0910   44.5520 N   0  0  0  0  0  0  0  0  0  0  0  0
   56.3320   29.7360   44.6720 C   0  0  0  0  0  0  0  0  0  0  0  0
   55.1530   29.0210   44.8710 O   0  0  0  0  0  0  0  0  0  0  0  0
   57.5770   25.8840   46.4740 N   0  0  0  0  0  0  0  0  0  0  0  0
   56.5860   24.9950   45.9400 C   0  0  0  0  0  0  0  0  0  0  0  0
   56.9850   23.7180   45.5230 C   0  0  0  0  0  0  0  0  0  0  0  0
   56.0520   22.8250   44.9860 C   0  0  0  0  0  0  0  0  0  0  0  0
   54.7170   23.2100   44.8440 C   0  0  0  0  0  0  0  0  0  0  0  0
   54.3160   24.4930   45.2240 C   0  0  0  0  0  0  0  0  0  0  0  0
   55.2450   25.3950   45.7560 C   0  0  0  0  0  0  0  0  0  0  0  0
   54.8340   26.6860   46.0650 O   0  0  0  0  0  0  0  0  0  0  0  0
   58.9949   27.5396   44.4938 H   0  0  0  0  0  0  0  0  0  0  0  0
   57.3016   27.1002   44.0751 H   0  0  0  0  0  0  0  0  0  0  0  0
   55.1450   28.0130   44.9630 H   0  0  0  0  0  0  0  0  0  0  0  0
   58.0384   23.4161   45.6186 H   0  0  0  0  0  0  0  0  0  0  0  0
   56.3699   21.8188   44.6753 H   0  0  0  0  0  0  0  0  0  0  0  0
   53.9814   22.5030   44.4330 H   0  0  0  0  0  0  0  0  0  0  0  0
   53.2653   24.7960   45.1046 H   0  0  0  0  0  0  0  0  0  0  0  0
  1  2  2  0
  2  3  1  0
  3  4  1  0
  4  5  1  0
  5  6  1  0
  6  7  2  0
  6  8  1  0
  8  9  1  0
  9 10  1  0
  2 11  1  0
 11 12  1  0
 12 13  2  0
 13 14  1  0
 14 15  2  0
 15 16  1  0
 16 17  2  0
 17 18  1  0
  9  4  2  0
 17 12  1  0
  3 19  1  0
  3 20  1  0
 10 21  1  0
 13 22  1  0
 14 23  1  0
 15 24  1  0
 16 25  1  0
M  CHG  3   8  -1  11  -1  18  -1
M  END
>  <UniqueID>  (56) 
52

>  <SMILES>  (56) 
O=C(Cc1sc(=O)[n-]c1O)[N-]c1ccccc1[O-]

>  <Energy>  (56) 
59.25955562825044

>  <Genealogy>  (56) 
O=C(Cc1sc(=O)[n-]c1O)[N-]c1ccccc1[O-] (protonated)
O=C(Cc1sc(=O)[n-]c1O)[N-]c1ccccc1[O-] (3D coordinates assigned)
O=C(Cc1sc(=O)[n-]c1O)[N-]c1ccccc1[O-] (optimized conformer: 59.25955562825044 kcal/mol)

>  <smiles>  (56) 
O=C(Cc1sc(=O)[nH]c1O)Nc1ccccc1O

>  <score_type>  (56) 
oracle

>  <origin>  (56) 
adg

>  <m_score__min__energy>  (56) 
-14.34

>  <m_primary>  (56) 
energy

$$$$
56:0
     RDKit          3D

 52 54  0  0  0  0  0  0  0  0999 V2000
   56.6660   29.4100   43.0100 C   0  0  0  0  0  0  0  0  0  0  0  0
   56.0010   30.0120   44.2010 C   0  0  0  0  0  0  0  0  0  0  0  0
   55.1720   29.3280   44.8600 O   0  0  0  0  0  0  0  0  0  0  0  0
   56.2290   31.3920   44.5130 N   0  0  0  0  0  0  0  0  0  0  0  0
   57.3890   31.9450   45.1500 C   0  0  0  0  0  0  0  0  0  0  0  0
   58.2610   31.1610   45.9250 C   0  0  0  0  0  0  0  0  0  0  0  0
   59.3940   31.7350   46.5100 C   0  0  0  0  0  0  0  0  0  0  0  0
   59.6850   33.0970   46.3180 C   0  0  0  0  0  0  0  0  0  0  0  0
   60.8800   33.7160   46.9450 C   0  0  0  0  0  0  0  0  0  0  0  0
   62.1030   33.5500   46.4300 C   0  0  0  0  0  0  0  0  0  0  0  0
   63.2750   34.1880   47.1170 C   0  0  0  0  0  0  0  0  0  0  0  0
   63.2090   34.0140   48.5850 N   0  0  0  0  0  0  0  0  0  0  0  0
   63.9030   32.4810   49.0700 S   0  0  0  0  0  0  0  0  0  0  0  0
   65.3090   32.7090   49.5520 O   0  0  0  0  0  0  0  0  0  0  0  0
   63.9480   31.5560   47.8860 O   0  0  0  0  0  0  0  0  0  0  0  0
   62.9350   31.7170   50.3670 C   0  0  0  0  0  0  0  0  0  0  0  0
   61.6070   31.2630   49.8290 C   0  0  0  0  0  0  0  0  0  0  0  0
   61.5980   30.5420   48.7930 O   0  0  0  0  0  0  0  0  0  0  0  0
   60.3660   31.5550   50.5050 N   0  0  0  0  0  0  0  0  0  0  0  0
   59.3320   30.5130   50.5510 C   0  0  0  0  0  0  0  0  0  0  0  0
   57.9550   31.1260   50.8110 C   0  0  0  0  0  0  0  0  0  0  0  0
   57.9950   31.9860   51.9300 O   0  0  0  0  0  0  0  0  0  0  0  0
   58.8040   33.1060   51.6300 C   0  0  0  0  0  0  0  0  0  0  0  0
   60.2650   32.6890   51.4340 C   0  0  0  0  0  0  0  0  0  0  0  0
   61.8620   34.2140   49.1900 C   0  0  0  0  0  0  0  0  0  0  0  0
   60.7550   34.5740   48.1770 C   0  0  0  0  0  0  0  0  0  0  0  0
   58.8190   33.8720   45.5280 C   0  0  0  0  0  0  0  0  0  0  0  0
   57.6880   33.2960   44.9430 C   0  0  0  0  0  0  0  0  0  0  0  0
   57.4437   28.7060   43.3410 H   0  0  0  0  0  0  0  0  0  0  0  0
   55.9197   28.8741   42.4051 H   0  0  0  0  0  0  0  0  0  0  0  0
   57.1252   30.2058   42.4051 H   0  0  0  0  0  0  0  0  0  0  0  0
   58.0512   30.0912   46.0720 H   0  0  0  0  0  0  0  0  0  0  0  0
   60.0631   31.1158   47.1255 H   0  0  0  0  0  0  0  0  0  0  0  0
   62.2478   32.9547   45.5164 H   0  0  0  0  0  0  0  0  0  0  0  0
   64.2014   33.7264   46.7444 H   0  0  0  0  0  0  0  0  0  0  0  0
   63.2563   35.2658   46.8979 H   0  0  0  0  0  0  0  0  0  0  0  0
   63.4815   30.8489   50.7641 H   0  0  0  0  0  0  0  0  0  0  0  0
   62.7642   32.4530   51.1665 H   0  0  0  0  0  0  0  0  0  0  0  0
   59.3138   29.9802   49.5888 H   0  0  0  0  0  0  0  0  0  0  0  0
   59.5686   29.8171   51.3694 H   0  0  0  0  0  0  0  0  0  0  0  0
   57.6420   31.6993   49.9259 H   0  0  0  0  0  0  0  0  0  0  0  0
   57.2394   30.3154   51.0132 H   0  0  0  0  0  0  0  0  0  0  0  0
   58.4373   33.5780   50.7066 H   0  0  0  0  0  0  0  0  0  0  0  0
   58.7504   33.8132   52.4708 H   0  0  0  0  0  0  0  0  0  0  0  0
   60.8309   33.5398   51.0268 H   0  0  0  0  0  0  0  0  0  0  0  0
   60.6773   32.3841   52.4072 H   0  0  0  0  0  0  0  0  0  0  0  0
   61.5723   33.2834   49.6999 H   0  0  0  0  0  0  0  0  0  0  0  0
   61.9499   35.0694   49.8759 H   0  0  0  0  0  0  0  0  0  0  0  0
   59.7709   34.4059   48.6388 H   0  0  0  0  0  0  0  0  0  0  0  0
   60.8593   35.6310   47.8910 H   0  0  0  0  0  0  0  0  0  0  0  0
   59.0328   34.9393   45.3690 H   0  0  0  0  0  0  0  0  0  0  0  0
   57.0269   33.9104   44.3141 H   0  0  0  0  0  0  0  0  0  0  0  0
  1  2  1  0
  2  3  2  0
  2  4  1  0
  4  5  1  0
  5  6  2  0
  6  7  1  0
  7  8  2  0
  8  9  1  0
  9 10  2  0
 10 11  1  0
 11 12  1  0
 12 13  1  0
 13 14  2  0
 13 15  2  0
 13 16  1  0
 16 17  1  0
 17 18  2  0
 17 19  1  0
 19 20  1  0
 20 21  1  0
 21 22  1  0
 22 23  1  0
 23 24  1  0
 12 25  1  0
 25 26  1  0
  8 27  1  0
 27 28  2  0
 28  5  1  0
 26  9  1  0
 24 19  1  0
  1 29  1  0
  1 30  1  0
  1 31  1  0
  6 32  1  0
  7 33  1  0
 10 34  1  0
 11 35  1  0
 11 36  1  0
 16 37  1  0
 16 38  1  0
 20 39  1  0
 20 40  1  0
 21 41  1  0
 21 42  1  0
 23 43  1  0
 23 44  1  0
 24 45  1  0
 24 46  1  0
 25 47  1  0
 25 48  1  0
 26 49  1  0
 26 50  1  0
 27 51  1  0
 28 52  1  0
M  CHG  1   4  -1
M  END
>  <UniqueID>  (57) 
53

>  <SMILES>  (57) 
CC(=O)[N-]c1ccc(C2=CCN(S(=O)(=O)CC(=O)N3CCOCC3)CC2)cc1

>  <Energy>  (57) 
61.87167454941514

>  <Genealogy>  (57) 
CC(=O)[N-]c1ccc(C2=CCN(S(=O)(=O)CC(=O)N3CCOCC3)CC2)cc1 (protonated)
CC(=O)[N-]c1ccc(C2=CCN(S(=O)(=O)CC(=O)N3CCOCC3)CC2)cc1 (3D coordinates assigned)
CC(=O)[N-]c1ccc(C2=CCN(S(=O)(=O)CC(=O)N3CCOCC3)CC2)cc1 (nonaromatic ring conformer: 61.87167454941514 kcal/mol)

>  <smiles>  (57) 
CC(=O)Nc1ccc(C2=CCN(S(=O)(=O)CC(=O)N3CCOCC3)CC2)cc1

>  <score_type>  (57) 
oracle

>  <origin>  (57) 
adg

>  <m_score__min__energy>  (57) 
-10.119999999999999

>  <m_primary>  (57) 
energy

$$$$
57:0
     RDKit          3D

 69 73  0  0  0  0  0  0  0  0999 V2000
   51.5650   20.6490   44.7330 H   0  0  0  0  0  0  0  0  0  0  0  0
   50.7760   21.2810   44.4670 N   0  0  0  0  0  0  0  0  0  0  0  0
   50.7980   22.6050   45.5770 S   0  0  0  0  0  0  0  0  0  0  0  0
   49.9070   22.2950   46.7470 O   0  0  0  0  0  0  0  0  0  0  0  0
   50.2880   23.8430   44.8960 O   0  0  0  0  0  0  0  0  0  0  0  0
   52.4450   22.8700   46.1390 C   0  0  0  0  0  0  0  0  0  0  0  0
   52.9970   22.0290   47.1140 C   0  0  0  0  0  0  0  0  0  0  0  0
   52.3943   21.2148   47.5429 H   0  0  0  0  0  0  0  0  0  0  0  0
   54.3130   22.2240   47.5420 C   0  0  0  0  0  0  0  0  0  0  0  0
   54.7462   21.5596   48.3042 H   0  0  0  0  0  0  0  0  0  0  0  0
   55.0800   23.2610   47.0040 C   0  0  0  0  0  0  0  0  0  0  0  0
   56.1202   23.3991   47.3341 H   0  0  0  0  0  0  0  0  0  0  0  0
   54.5330   24.1260   46.0470 C   0  0  0  0  0  0  0  0  0  0  0  0
   55.3680   25.1380   45.4640 N   0  0  0  0  0  0  0  0  0  0  0  0
   56.3650   25.7760   46.0140 C   0  0  0  0  0  0  0  0  0  0  0  0
   56.3500   27.1340   45.9900 N   0  0  0  0  0  0  0  0  0  0  0  0
   57.3540   27.8850   46.5170 C   0  0  0  0  0  0  0  0  0  0  0  0
   57.2915   28.9826   46.4797 H   0  0  0  0  0  0  0  0  0  0  0  0
   58.4710   27.2700   47.1090 C   0  0  0  0  0  0  0  0  0  0  0  0
   59.5700   28.0980   47.6740 C   0  0  0  0  0  0  0  0  0  0  0  0
   60.5980   27.5240   48.1270 O   0  0  0  0  0  0  0  0  0  0  0  0
   59.4520   29.5310   47.7690 N   0  0  0  0  0  0  0  0  0  0  0  0
   58.4930   29.9410   47.7950 H   0  0  0  0  0  0  0  0  0  0  0  0
   60.5500   30.4040   48.0960 C   0  0  0  0  0  0  0  0  0  0  0  0
   61.5180   30.7660   47.1420 C   0  0  0  0  0  0  0  0  0  0  0  0
   61.4332   30.3960   46.1096 H   0  0  0  0  0  0  0  0  0  0  0  0
   62.5870   31.5930   47.4980 C   0  0  0  0  0  0  0  0  0  0  0  0
   63.3341   31.8758   46.7417 H   0  0  0  0  0  0  0  0  0  0  0  0
   62.7140   32.0650   48.8130 C   0  0  0  0  0  0  0  0  0  0  0  0
   63.8590   32.9140   49.2070 C   0  0  0  0  0  0  0  0  0  0  0  0
   63.9650   34.0620   48.6940 O   0  0  0  0  0  0  0  0  0  0  0  0
   64.8340   32.4690   50.1750 N   0  0  0  0  0  0  0  0  0  0  0  0
   66.1270   33.1550   50.2740 C   0  0  0  0  0  0  0  0  0  0  0  0
   66.3640   33.6228   49.3070 H   0  0  0  0  0  0  0  0  0  0  0  0
   66.0645   33.9220   51.0600 H   0  0  0  0  0  0  0  0  0  0  0  0
   67.2370   32.1570   50.6390 C   0  0  0  0  0  0  0  0  0  0  0  0
   67.4919   31.5784   49.7389 H   0  0  0  0  0  0  0  0  0  0  0  0
   68.0849   32.7474   51.0165 H   0  0  0  0  0  0  0  0  0  0  0  0
   66.8620   31.2050   51.7160 N   0  0  0  0  0  0  0  0  0  0  0  0
   67.2990   29.8070   51.4390 C   0  0  0  0  0  0  0  0  0  0  0  0
   67.6933   29.8860   50.4152 H   0  0  0  0  0  0  0  0  0  0  0  0
   68.3830   29.3020   52.3980 C   0  0  0  0  0  0  0  0  0  0  0  0
   69.1725   28.7812   51.8364 H   0  0  0  0  0  0  0  0  0  0  0  0
   68.8515   30.1374   52.9389 H   0  0  0  0  0  0  0  0  0  0  0  0
   67.7030   28.3380   53.3640 C   0  0  0  0  0  0  0  0  0  0  0  0
   68.3499   27.4669   53.5448 H   0  0  0  0  0  0  0  0  0  0  0  0
   67.5108   28.8253   54.3312 H   0  0  0  0  0  0  0  0  0  0  0  0
   66.3970   27.8930   52.7130 C   0  0  0  0  0  0  0  0  0  0  0  0
   66.4706   26.8385   52.4086 H   0  0  0  0  0  0  0  0  0  0  0  0
   65.5610   27.9912   53.4211 H   0  0  0  0  0  0  0  0  0  0  0  0
   66.1650   28.7730   51.4870 C   0  0  0  0  0  0  0  0  0  0  0  0
   66.1790   28.1578   50.5752 H   0  0  0  0  0  0  0  0  0  0  0  0
   65.1873   29.2733   51.5489 H   0  0  0  0  0  0  0  0  0  0  0  0
   65.5250   31.4220   52.3210 C   0  0  0  0  0  0  0  0  0  0  0  0
   65.2819   30.5565   52.9548 H   0  0  0  0  0  0  0  0  0  0  0  0
   65.5732   32.3545   52.9025 H   0  0  0  0  0  0  0  0  0  0  0  0
   64.4160   31.5890   51.2740 C   0  0  0  0  0  0  0  0  0  0  0  0
   64.1625   30.6008   50.8626 H   0  0  0  0  0  0  0  0  0  0  0  0
   63.5454   32.0462   51.7669 H   0  0  0  0  0  0  0  0  0  0  0  0
   61.7230   31.7500   49.7510 C   0  0  0  0  0  0  0  0  0  0  0  0
   61.7905   32.1496   50.7736 H   0  0  0  0  0  0  0  0  0  0  0  0
   60.6480   30.9300   49.3940 C   0  0  0  0  0  0  0  0  0  0  0  0
   59.8718   30.6949   50.1372 H   0  0  0  0  0  0  0  0  0  0  0  0
   58.5070   25.8660   47.1460 C   0  0  0  0  0  0  0  0  0  0  0  0
   59.3579   25.3540   47.6190 H   0  0  0  0  0  0  0  0  0  0  0  0
   57.4710   25.1160   46.5870 C   0  0  0  0  0  0  0  0  0  0  0  0
   57.5173   24.0170   46.5936 H   0  0  0  0  0  0  0  0  0  0  0  0
   53.2220   23.9020   45.5900 C   0  0  0  0  0  0  0  0  0  0  0  0
   52.8029   24.5394   44.7975 H   0  0  0  0  0  0  0  0  0  0  0  0
  1  2  1  0
  2  3  1  0
  3  4  2  0
  3  5  2  0
  3  6  1  0
  6  7  2  0
  7  8  1  0
  7  9  1  0
  9 10  1  0
  9 11  2  0
 11 12  1  0
 11 13  1  0
 13 14  1  0
 14 15  2  0
 15 16  1  0
 16 17  1  0
 17 18  1  0
 17 19  2  0
 19 20  1  0
 20 21  2  0
 20 22  1  0
 22 23  1  0
 22 24  1  0
 24 25  2  0
 25 26  1  0
 25 27  1  0
 27 28  1  0
 27 29  2  0
 29 30  1  0
 30 31  2  0
 30 32  1  0
 32 33  1  0
 33 34  1  0
 33 35  1  0
 33 36  1  0
 36 37  1  0
 36 38  1  0
 36 39  1  0
 39 40  1  0
 40 41  1  0
 40 42  1  0
 42 43  1  0
 42 44  1  0
 42 45  1  0
 45 46  1  0
 45 47  1  0
 45 48  1  0
 48 49  1  0
 48 50  1  0
 48 51  1  0
 51 52  1  0
 51 53  1  0
 39 54  1  0
 54 55  1  0
 54 56  1  0
 54 57  1  0
 57 58  1  0
 57 59  1  0
 29 60  1  0
 60 61  1  0
 60 62  2  0
 62 63  1  0
 19 64  1  0
 64 65  1  0
 64 66  2  0
 66 67  1  0
 13 68  2  0
 68 69  1  0
 68  6  1  0
 66 15  1  0
 62 24  1  0
 57 32  1  0
 51 40  1  0
M  CHG  2   2  -1  16  -1
M  END
>  <UniqueID>  (58) 
54

>  <SMILES>  (58) 
[NH-]S(=O)(=O)c1cccc(/N=c2\ccc(C(=O)Nc3ccc(C(=O)N4CCN(C5CCCC5)CC4)cc3)c[n-]2)c1

>  <Energy>  (58) 
110.43865308340271

>  <Genealogy>  (58) 
[NH-]S(=O)(=O)c1cccc(N=c2ccc(C(=O)Nc3ccc(C(=O)N4CCN(C5CCCC5)CC4)cc3)c[n-]2)c1 (protonated)
[NH-]S(=O)(=O)c1cccc(/N=c2\ccc(C(=O)Nc3ccc(C(=O)N4CCN(C5CCCC5)CC4)cc3)c[n-]2)c1 (cis-trans isomerization)
[NH-]S(=O)(=O)c1cccc(/N=c2\ccc(C(=O)Nc3ccc(C(=O)N4CCN(C5CCCC5)CC4)cc3)c[n-]2)c1 (3D coordinates assigned)
[NH-]S(=O)(=O)c1cccc(/N=c2\ccc(C(=O)Nc3ccc(C(=O)N4CCN(C5CCCC5)CC4)cc3)c[n-]2)c1 (nonaromatic ring conformer: 110.43865308340271 kcal/mol)

>  <smiles>  (58) 
NS(=O)(=O)c1cccc(N=c2ccc(C(=O)Nc3ccc(C(=O)N4CCN(C5CCCC5)CC4)cc3)c[nH]2)c1

>  <score_type>  (58) 
oracle

>  <origin>  (58) 
adg

>  <m_score__min__energy>  (58) 
-12.130000000000001

>  <m_primary>  (58) 
energy

$$$$
60:0
     RDKit          3D

 33 35  0  0  0  0  0  0  0  0999 V2000
   57.3830   27.7222   44.8118 H   0  0  0  0  0  0  0  0  0  0  0  0
   58.2740   28.2240   45.2170 C   0  0  0  0  0  0  0  0  0  0  0  0
   58.5340   29.4510   44.8810 N   0  0  0  0  0  0  0  0  0  0  0  0
   57.6170   30.5460   45.0200 C   0  0  0  0  0  0  0  0  0  0  0  0
   56.4000   30.3460   44.7670 O   0  0  0  0  0  0  0  0  0  0  0  0
   58.0440   31.9010   45.4290 C   0  0  0  0  0  0  0  0  0  0  0  0
   58.4540   32.1080   46.7130 N   0  0  0  0  0  0  0  0  0  0  0  0
   58.8320   33.3340   47.1620 C   0  0  0  0  0  0  0  0  0  0  0  0
   59.1632   33.4601   48.2033 H   0  0  0  0  0  0  0  0  0  0  0  0
   58.8000   34.4330   46.3020 C   0  0  0  0  0  0  0  0  0  0  0  0
   59.1144   35.4257   46.6566 H   0  0  0  0  0  0  0  0  0  0  0  0
   58.3650   34.2590   44.9880 C   0  0  0  0  0  0  0  0  0  0  0  0
   58.3269   35.1177   44.3016 H   0  0  0  0  0  0  0  0  0  0  0  0
   57.9780   32.9920   44.5460 C   0  0  0  0  0  0  0  0  0  0  0  0
   57.6242   32.8492   43.5143 H   0  0  0  0  0  0  0  0  0  0  0  0
   59.1630   27.5050   46.1340 C   0  0  0  0  0  0  0  0  0  0  0  0
   60.2640   28.0260   46.4540 O   0  0  0  0  0  0  0  0  0  0  0  0
   58.7400   26.2580   46.7100 N   0  0  0  0  0  0  0  0  0  0  0  0
   57.6210   26.0390   47.2890 N   0  0  0  0  0  0  0  0  0  0  0  0
   56.4500   25.4950   46.6630 C   0  0  0  0  0  0  0  0  0  0  0  0
   55.4730   26.1840   45.9560 C   0  0  0  0  0  0  0  0  0  0  0  0
   55.5330   27.5300   45.6180 O   0  0  0  0  0  0  0  0  0  0  0  0
   54.4110   25.3970   45.6650 N   0  0  0  0  0  0  0  0  0  0  0  0
   54.7180   24.2100   46.2270 C   0  0  0  0  0  0  0  0  0  0  0  0
   53.9230   23.0640   46.2310 C   0  0  0  0  0  0  0  0  0  0  0  0
   52.9496   23.0488   45.7189 H   0  0  0  0  0  0  0  0  0  0  0  0
   54.4020   21.9280   46.9090 C   0  0  0  0  0  0  0  0  0  0  0  0
   53.7987   21.0084   46.9276 H   0  0  0  0  0  0  0  0  0  0  0  0
   55.6520   21.9600   47.5660 C   0  0  0  0  0  0  0  0  0  0  0  0
   56.0150   21.0663   48.0947 H   0  0  0  0  0  0  0  0  0  0  0  0
   56.4350   23.1280   47.5480 C   0  0  0  0  0  0  0  0  0  0  0  0
   57.6660   23.1690   48.1920 O   0  0  0  0  0  0  0  0  0  0  0  0
   55.9370   24.2370   46.8630 C   0  0  0  0  0  0  0  0  0  0  0  0
  1  2  1  0
  2  3  2  0
  3  4  1  0
  4  5  2  0
  4  6  1  0
  6  7  2  0
  7  8  1  0
  8  9  1  0
  8 10  2  0
 10 11  1  0
 10 12  1  0
 12 13  1  0
 12 14  2  0
 14 15  1  0
  2 16  1  0
 16 17  2  0
 16 18  1  0
 18 19  2  0
 19 20  1  0
 20 21  2  0
 21 22  1  0
 21 23  1  0
 23 24  1  0
 24 25  2  0
 25 26  1  0
 25 27  1  0
 27 28  1  0
 27 29  2  0
 29 30  1  0
 29 31  1  0
 31 32  1  0
 31 33  2  0
 14  6  1  0
 33 20  1  0
 33 24  1  0
M  CHG  3  22  -1  23  -1  32  -1
M  END
>  <UniqueID>  (59) 
55

>  <SMILES>  (59) 
O=C(/C=N/C(=O)c1ccccn1)/N=N\c1c([O-])[n-]c2cccc([O-])c12

>  <Energy>  (59) 
85.69277787792892

>  <Genealogy>  (59) 
O=C(C=NC(=O)c1ccccn1)N=Nc1c([O-])[n-]c2cccc([O-])c12 (protonated)
O=C(/C=N/C(=O)c1ccccn1)/N=N\c1c([O-])[n-]c2cccc([O-])c12 (cis-trans isomerization)
O=C(/C=N/C(=O)c1ccccn1)/N=N\c1c([O-])[n-]c2cccc([O-])c12 (3D coordinates assigned)
O=C(/C=N/C(=O)c1ccccn1)/N=N\c1c([O-])[n-]c2cccc([O-])c12 (optimized conformer: 85.69277787792892 kcal/mol)

>  <smiles>  (59) 
O=C(C=NC(=O)c1ccccn1)N=Nc1c(O)[nH]c2cccc(O)c12

>  <score_type>  (59) 
oracle

>  <origin>  (59) 
adg

>  <m_score__min__energy>  (59) 
-14.630000000000001

>  <m_primary>  (59) 
energy

$$$$
61:0
     RDKit          3D

 53 55  0  0  0  0  0  0  0  0999 V2000
   56.0297   33.3427   45.1684 H   0  0  0  0  0  0  0  0  0  0  0  0
   57.0450   33.0300   44.8830 C   0  0  0  0  0  0  0  0  0  0  0  0
   57.2410   31.6920   44.2980 C   0  0  0  0  0  0  0  0  0  0  0  0
   57.7260   31.5980   43.1380 O   0  0  0  0  0  0  0  0  0  0  0  0
   56.8900   30.5100   45.0260 N   0  0  0  0  0  0  0  0  0  0  0  0
   57.7690   29.3580   45.1590 C   0  0  0  0  0  0  0  0  0  0  0  0
   58.3134   29.2042   44.2156 H   0  0  0  0  0  0  0  0  0  0  0  0
   57.1655   28.4679   45.3906 H   0  0  0  0  0  0  0  0  0  0  0  0
   58.7530   29.5890   46.2690 C   0  0  0  0  0  0  0  0  0  0  0  0
   59.9360   30.3080   46.0420 C   0  0  0  0  0  0  0  0  0  0  0  0
   60.1276   30.7469   45.0517 H   0  0  0  0  0  0  0  0  0  0  0  0
   60.8730   30.4700   47.0670 C   0  0  0  0  0  0  0  0  0  0  0  0
   61.7963   31.0379   46.8799 H   0  0  0  0  0  0  0  0  0  0  0  0
   60.6400   29.9090   48.3390 C   0  0  0  0  0  0  0  0  0  0  0  0
   61.5530   30.0290   49.3960 O   0  0  0  0  0  0  0  0  0  0  0  0
   61.4240   29.3640   50.6450 C   0  0  0  0  0  0  0  0  0  0  0  0
   61.5643   30.0874   51.4617 H   0  0  0  0  0  0  0  0  0  0  0  0
   60.4222   28.9160   50.7201 H   0  0  0  0  0  0  0  0  0  0  0  0
   62.1856   28.5739   50.7201 H   0  0  0  0  0  0  0  0  0  0  0  0
   59.4560   29.1980   48.5640 C   0  0  0  0  0  0  0  0  0  0  0  0
   59.2606   28.7626   49.5551 H   0  0  0  0  0  0  0  0  0  0  0  0
   58.5200   29.0370   47.5390 C   0  0  0  0  0  0  0  0  0  0  0  0
   57.5942   28.4739   47.7283 H   0  0  0  0  0  0  0  0  0  0  0  0
   58.0660   33.8800   45.0790 C   0  0  0  0  0  0  0  0  0  0  0  0
   58.1979   34.6945   44.3515 H   0  0  0  0  0  0  0  0  0  0  0  0
   59.0320   33.8010   46.2080 C   0  0  0  0  0  0  0  0  0  0  0  0
   58.5220   33.6370   47.5080 C   0  0  0  0  0  0  0  0  0  0  0  0
   57.4361   33.5454   47.6577 H   0  0  0  0  0  0  0  0  0  0  0  0
   59.3760   33.5890   48.6110 C   0  0  0  0  0  0  0  0  0  0  0  0
   58.9599   33.4562   49.6205 H   0  0  0  0  0  0  0  0  0  0  0  0
   60.7580   33.7090   48.4380 C   0  0  0  0  0  0  0  0  0  0  0  0
   61.8350   33.6840   49.8360 S   0  0  0  0  0  0  0  0  0  0  0  0
   62.6740   34.9300   49.8360 O   0  0  0  0  0  0  0  0  0  0  0  0
   61.0090   33.6780   51.0920 O   0  0  0  0  0  0  0  0  0  0  0  0
   62.8810   32.2800   49.8260 N   0  0  0  0  0  0  0  0  0  0  0  0
   62.2950   31.4820   49.4870 H   0  0  0  0  0  0  0  0  0  0  0  0
   63.3270   31.9630   51.2000 C   0  0  0  0  0  0  0  0  0  0  0  0
   63.5066   32.9005   51.7466 H   0  0  0  0  0  0  0  0  0  0  0  0
   62.5433   31.3742   51.6990 H   0  0  0  0  0  0  0  0  0  0  0  0
   64.6250   31.1370   51.1740 C   0  0  0  0  0  0  0  0  0  0  0  0
   64.9116   30.9110   52.2117 H   0  0  0  0  0  0  0  0  0  0  0  0
   64.4137   30.2321   50.5853 H   0  0  0  0  0  0  0  0  0  0  0  0
   65.7180   31.7930   50.5410 O   0  0  0  0  0  0  0  0  0  0  0  0
   65.3270   32.7840   49.6020 C   0  0  0  0  0  0  0  0  0  0  0  0
   65.1996   33.7384   50.1340 H   0  0  0  0  0  0  0  0  0  0  0  0
   66.1160   32.8383   48.8374 H   0  0  0  0  0  0  0  0  0  0  0  0
   64.0110   32.4490   48.8770 C   0  0  0  0  0  0  0  0  0  0  0  0
   63.7710   33.2661   48.1808 H   0  0  0  0  0  0  0  0  0  0  0  0
   64.1503   31.4983   48.3414 H   0  0  0  0  0  0  0  0  0  0  0  0
   61.2790   33.8570   47.1460 C   0  0  0  0  0  0  0  0  0  0  0  0
   62.3667   33.9344   47.0017 H   0  0  0  0  0  0  0  0  0  0  0  0
   60.4280   33.9070   46.0400 C   0  0  0  0  0  0  0  0  0  0  0  0
   60.8493   34.0299   45.0313 H   0  0  0  0  0  0  0  0  0  0  0  0
  1  2  1  0
  2  3  1  0
  3  4  2  0
  3  5  1  0
  5  6  1  0
  6  7  1  0
  6  8  1  0
  6  9  1  0
  9 10  2  0
 10 11  1  0
 10 12  1  0
 12 13  1  0
 12 14  2  0
 14 15  1  0
 15 16  1  0
 16 17  1  0
 16 18  1  0
 16 19  1  0
 14 20  1  0
 20 21  1  0
 20 22  2  0
 22 23  1  0
  2 24  2  0
 24 25  1  0
 24 26  1  0
 26 27  2  0
 27 28  1  0
 27 29  1  0
 29 30  1  0
 29 31  2  0
 31 32  1  0
 32 33  2  0
 32 34  2  0
 32 35  1  0
 35 36  1  0
 35 37  1  0
 37 38  1  0
 37 39  1  0
 37 40  1  0
 40 41  1  0
 40 42  1  0
 40 43  1  0
 43 44  1  0
 44 45  1  0
 44 46  1  0
 44 47  1  0
 47 48  1  0
 47 49  1  0
 31 50  1  0
 50 51  1  0
 50 52  2  0
 52 53  1  0
 22  9  1  0
 52 26  1  0
 47 35  1  0
M  CHG  2   5  -1  35   1
M  END
>  <UniqueID>  (60) 
56

>  <SMILES>  (60) 
COc1ccc(C[N-]C(=O)/C=C/c2ccc(S(=O)(=O)[NH+]3CCOCC3)cc2)cc1

>  <Energy>  (60) 
64.51286418372571

>  <Genealogy>  (60) 
COc1ccc(C[N-]C(=O)C=Cc2ccc(S(=O)(=O)[NH+]3CCOCC3)cc2)cc1 (protonated)
COc1ccc(C[N-]C(=O)/C=C/c2ccc(S(=O)(=O)[NH+]3CCOCC3)cc2)cc1 (cis-trans isomerization)
COc1ccc(C[N-]C(=O)/C=C/c2ccc(S(=O)(=O)[NH+]3CCOCC3)cc2)cc1 (3D coordinates assigned)
COc1ccc(C[N-]C(=O)/C=C/c2ccc(S(=O)(=O)[NH+]3CCOCC3)cc2)cc1 (nonaromatic ring conformer: 64.51286418372571 kcal/mol)

>  <smiles>  (60) 
COc1ccc(CNC(=O)C=Cc2ccc(S(=O)(=O)N3CCOCC3)cc2)cc1

>  <score_type>  (60) 
oracle

>  <origin>  (60) 
adg

>  <m_score__min__energy>  (60) 
-9.5

>  <m_primary>  (60) 
energy

$$$$
62:0
     RDKit          3D

 66 70  0  0  0  0  0  0  0  0999 V2000
   59.6380   35.2820   44.8530 O   0  0  0  0  0  0  0  0  0  0  0  0
   59.2770   34.7900   45.9570 C   0  0  0  0  0  0  0  0  0  0  0  0
   57.8850   34.5850   46.2060 N   0  0  0  0  0  0  0  0  0  0  0  0
   57.0670   33.7890   45.2980 C   0  0  0  0  0  0  0  0  0  0  0  0
   57.5280   32.3570   45.3300 C   0  0  0  0  0  0  0  0  0  0  0  0
   58.2360   31.8710   46.4400 C   0  0  0  0  0  0  0  0  0  0  0  0
   58.5080   30.5060   46.5630 C   0  0  0  0  0  0  0  0  0  0  0  0
   58.1020   29.6130   45.5600 C   0  0  0  0  0  0  0  0  0  0  0  0
   58.3530   28.1670   45.7100 C   0  0  0  0  0  0  0  0  0  0  0  0
   59.6390   27.7020   46.0180 C   0  0  0  0  0  0  0  0  0  0  0  0
   59.8660   26.3360   46.1990 C   0  0  0  0  0  0  0  0  0  0  0  0
   58.8170   25.4240   46.0540 C   0  0  0  0  0  0  0  0  0  0  0  0
   57.5340   25.8730   45.7040 C   0  0  0  0  0  0  0  0  0  0  0  0
   56.4440   24.9040   45.5050 C   0  0  0  0  0  0  0  0  0  0  0  0
   55.3310   25.0870   46.0670 O   0  0  0  0  0  0  0  0  0  0  0  0
   56.6460   23.7250   44.7240 N   0  0  0  0  0  0  0  0  0  0  0  0
   57.7720   22.9870   44.1230 C   0  0  0  0  0  0  0  0  0  0  0  0
   56.9810   21.7820   43.7330 C   0  0  0  0  0  0  0  0  0  0  0  0
   55.8490   22.5500   44.3310 C   0  0  0  0  0  0  0  0  0  0  0  0
   57.3030   27.2490   45.5490 C   0  0  0  0  0  0  0  0  0  0  0  0
   57.4300   30.1020   44.4310 C   0  0  0  0  0  0  0  0  0  0  0  0
   57.1300   31.4630   44.3240 C   0  0  0  0  0  0  0  0  0  0  0  0
   60.2620   34.3660   46.9180 N   0  0  0  0  0  0  0  0  0  0  0  0
   59.8460   33.9580   48.2660 C   0  0  0  0  0  0  0  0  0  0  0  0
   60.9660   34.1560   49.3120 C   0  0  0  0  0  0  0  0  0  0  0  0
   62.3510   34.1350   48.7620 N   0  0  0  0  0  0  0  0  0  0  0  0
   63.3220   33.6470   49.7790 C   0  0  0  0  0  0  0  0  0  0  0  0
   62.8000   32.4450   50.5660 C   0  0  0  0  0  0  0  0  0  0  0  0
   64.0350   31.7060   51.0560 C   0  0  0  0  0  0  0  0  0  0  0  0
   65.1570   32.0470   50.0830 C   0  0  0  0  0  0  0  0  0  0  0  0
   64.6140   33.1180   49.1440 C   0  0  0  0  0  0  0  0  0  0  0  0
   62.4200   33.3360   47.5250 C   0  0  0  0  0  0  0  0  0  0  0  0
   61.6070   34.0310   46.4380 C   0  0  0  0  0  0  0  0  0  0  0  0
   56.0140   33.8420   45.6116 H   0  0  0  0  0  0  0  0  0  0  0  0
   57.1661   34.1827   44.2757 H   0  0  0  0  0  0  0  0  0  0  0  0
   58.5789   32.5690   47.2180 H   0  0  0  0  0  0  0  0  0  0  0  0
   59.0418   30.1306   47.4485 H   0  0  0  0  0  0  0  0  0  0  0  0
   60.4711   28.4146   46.1173 H   0  0  0  0  0  0  0  0  0  0  0  0
   60.8733   25.9768   46.4564 H   0  0  0  0  0  0  0  0  0  0  0  0
   58.9974   24.3509   46.2147 H   0  0  0  0  0  0  0  0  0  0  0  0
   58.2072   23.5077   43.2573 H   0  0  0  0  0  0  0  0  0  0  0  0
   58.6574   22.8223   44.7547 H   0  0  0  0  0  0  0  0  0  0  0  0
   56.9072   21.5918   42.6521 H   0  0  0  0  0  0  0  0  0  0  0  0
   57.2457   20.7537   44.0203 H   0  0  0  0  0  0  0  0  0  0  0  0
   55.0670   22.7939   43.5969 H   0  0  0  0  0  0  0  0  0  0  0  0
   55.2685   22.0518   45.1215 H   0  0  0  0  0  0  0  0  0  0  0  0
   56.2941   27.6098   45.3001 H   0  0  0  0  0  0  0  0  0  0  0  0
   57.1376   29.4118   43.6260 H   0  0  0  0  0  0  0  0  0  0  0  0
   56.5795   31.8350   43.4474 H   0  0  0  0  0  0  0  0  0  0  0  0
   58.9740   34.5588   48.5638 H   0  0  0  0  0  0  0  0  0  0  0  0
   59.6034   32.8856   48.2325 H   0  0  0  0  0  0  0  0  0  0  0  0
   60.8078   35.1282   49.8017 H   0  0  0  0  0  0  0  0  0  0  0  0
   60.8962   33.3030   50.0030 H   0  0  0  0  0  0  0  0  0  0  0  0
   63.4880   34.5274   50.4173 H   0  0  0  0  0  0  0  0  0  0  0  0
   62.1903   32.7800   51.4181 H   0  0  0  0  0  0  0  0  0  0  0  0
   62.1607   31.8000   49.9453 H   0  0  0  0  0  0  0  0  0  0  0  0
   64.2985   32.0375   52.0712 H   0  0  0  0  0  0  0  0  0  0  0  0
   63.8595   30.6208   51.0967 H   0  0  0  0  0  0  0  0  0  0  0  0
   66.0301   32.4309   50.6310 H   0  0  0  0  0  0  0  0  0  0  0  0
   65.4784   31.1565   49.5229 H   0  0  0  0  0  0  0  0  0  0  0  0
   65.3446   33.9332   49.0358 H   0  0  0  0  0  0  0  0  0  0  0  0
   64.4226   32.7058   48.1423 H   0  0  0  0  0  0  0  0  0  0  0  0
   63.4676   33.2469   47.2017 H   0  0  0  0  0  0  0  0  0  0  0  0
   62.0118   32.3312   47.7088 H   0  0  0  0  0  0  0  0  0  0  0  0
   62.1226   34.9556   46.1394 H   0  0  0  0  0  0  0  0  0  0  0  0
   61.5123   33.3475   45.5813 H   0  0  0  0  0  0  0  0  0  0  0  0
  1  2  2  0
  2  3  1  0
  3  4  1  0
  4  5  1  0
  5  6  2  0
  6  7  1  0
  7  8  2  0
  8  9  1  0
  9 10  2  0
 10 11  1  0
 11 12  2  0
 12 13  1  0
 13 14  1  0
 14 15  2  0
 14 16  1  0
 16 17  1  0
 17 18  1  0
 18 19  1  0
 13 20  2  0
  8 21  1  0
 21 22  2  0
  2 23  1  0
 23 24  1  0
 24 25  1  0
 25 26  1  0
 26 27  1  0
 27 28  1  0
 28 29  1  0
 29 30  1  0
 30 31  1  0
 26 32  1  0
 32 33  1  0
 22  5  1  0
 33 23  1  0
 20  9  1  0
 31 27  1  0
 19 16  1  0
  4 34  1  0
  4 35  1  0
  6 36  1  0
  7 37  1  0
 10 38  1  0
 11 39  1  0
 12 40  1  0
 17 41  1  0
 17 42  1  0
 18 43  1  0
 18 44  1  0
 19 45  1  0
 19 46  1  0
 20 47  1  0
 21 48  1  0
 22 49  1  0
 24 50  1  0
 24 51  1  0
 25 52  1  0
 25 53  1  0
 27 54  1  0
 28 55  1  0
 28 56  1  0
 29 57  1  0
 29 58  1  0
 30 59  1  0
 30 60  1  0
 31 61  1  0
 31 62  1  0
 32 63  1  0
 32 64  1  0
 33 65  1  0
 33 66  1  0
M  CHG  1   3  -1
M  END
>  <UniqueID>  (61) 
57

>  <SMILES>  (61) 
O=C([N-]Cc1ccc(-c2cccc(C(=O)N3CCC3)c2)cc1)N1CCN(C2CCCC2)CC1

>  <Energy>  (61) 
130.14289318504942

>  <Genealogy>  (61) 
O=C([N-]Cc1ccc(-c2cccc(C(=O)N3CCC3)c2)cc1)N1CCN(C2CCCC2)CC1 (protonated)
O=C([N-]Cc1ccc(-c2cccc(C(=O)N3CCC3)c2)cc1)N1CCN(C2CCCC2)CC1 (3D coordinates assigned)
O=C([N-]Cc1ccc(-c2cccc(C(=O)N3CCC3)c2)cc1)N1CCN(C2CCCC2)CC1 (nonaromatic ring conformer: 130.14289318504942 kcal/mol)

>  <smiles>  (61) 
O=C(NCc1ccc(-c2cccc(C(=O)N3CCC3)c2)cc1)N1CCN(C2CCCC2)CC1

>  <score_type>  (61) 
oracle

>  <origin>  (61) 
adg

>  <m_score__min__energy>  (61) 
-11.85

>  <m_primary>  (61) 
energy

$$$$
63:0
     RDKit          3D

 47 49  0  0  0  0  0  0  0  0999 V2000
   63.6780   32.0230   49.6610 C   0  0  0  0  0  0  0  0  0  0  0  0
   62.4110   31.2150   49.3840 C   0  0  0  0  0  0  0  0  0  0  0  0
   62.0020   31.2410   47.9310 C   0  0  0  0  0  0  0  0  0  0  0  0
   62.6600   31.9420   47.1120 O   0  0  0  0  0  0  0  0  0  0  0  0
   60.8400   30.5150   47.4750 N   0  0  0  0  0  0  0  0  0  0  0  0
   60.6290   30.3030   46.0330 C   0  0  0  0  0  0  0  0  0  0  0  0
   60.0180   28.9190   45.7770 C   0  0  0  0  0  0  0  0  0  0  0  0
   58.9200   28.6360   46.7090 N   0  0  0  0  0  0  0  0  0  0  0  0
   58.2160   27.3930   46.6110 C   0  0  0  0  0  0  0  0  0  0  0  0
   58.3970   26.4140   47.5970 C   0  0  0  0  0  0  0  0  0  0  0  0
   57.7410   25.1860   47.4950 C   0  0  0  0  0  0  0  0  0  0  0  0
   56.9010   24.9300   46.4090 C   0  0  0  0  0  0  0  0  0  0  0  0
   56.7220   25.8980   45.4180 C   0  0  0  0  0  0  0  0  0  0  0  0
   57.3900   27.1330   45.5040 C   0  0  0  0  0  0  0  0  0  0  0  0
   57.2230   28.1410   44.4970 N   0  0  0  0  0  0  0  0  0  0  0  0
   56.5110   29.3750   44.6580 C   0  0  0  0  0  0  0  0  0  0  0  0
   55.3460   29.3410   45.1370 O   0  0  0  0  0  0  0  0  0  0  0  0
   57.1280   30.6820   44.3340 C   0  0  0  0  0  0  0  0  0  0  0  0
   57.3420   31.0650   42.9970 C   0  0  0  0  0  0  0  0  0  0  0  0
   57.9330   32.2960   42.7000 C   0  0  0  0  0  0  0  0  0  0  0  0
   58.3260   33.1520   43.7320 C   0  0  0  0  0  0  0  0  0  0  0  0
   58.1360   32.7740   45.0650 C   0  0  0  0  0  0  0  0  0  0  0  0
   58.6860   33.9400   46.4740 Br  0  0  0  0  0  0  0  0  0  0  0  0
   57.5440   31.5420   45.3660 C   0  0  0  0  0  0  0  0  0  0  0  0
   58.5370   29.6100   47.7330 C   0  0  0  0  0  0  0  0  0  0  0  0
   59.7890   30.1330   48.4380 C   0  0  0  0  0  0  0  0  0  0  0  0
   63.8235   32.1158   50.7474 H   0  0  0  0  0  0  0  0  0  0  0  0
   64.5442   31.5102   49.2175 H   0  0  0  0  0  0  0  0  0  0  0  0
   63.5784   33.0247   49.2175 H   0  0  0  0  0  0  0  0  0  0  0  0
   62.5895   30.1706   49.6795 H   0  0  0  0  0  0  0  0  0  0  0  0
   61.5955   31.6717   49.9641 H   0  0  0  0  0  0  0  0  0  0  0  0
   59.9472   31.0763   45.6494 H   0  0  0  0  0  0  0  0  0  0  0  0
   61.5995   30.3641   45.5187 H   0  0  0  0  0  0  0  0  0  0  0  0
   59.6315   28.8835   44.7477 H   0  0  0  0  0  0  0  0  0  0  0  0
   60.8020   28.1621   45.9267 H   0  0  0  0  0  0  0  0  0  0  0  0
   59.0577   26.6136   48.4536 H   0  0  0  0  0  0  0  0  0  0  0  0
   57.8858   24.4194   48.2705 H   0  0  0  0  0  0  0  0  0  0  0  0
   56.3795   23.9644   46.3339 H   0  0  0  0  0  0  0  0  0  0  0  0
   56.0559   25.6937   44.5668 H   0  0  0  0  0  0  0  0  0  0  0  0
   57.0423   30.3914   42.1807 H   0  0  0  0  0  0  0  0  0  0  0  0
   58.0891   32.5916   41.6520 H   0  0  0  0  0  0  0  0  0  0  0  0
   58.7849   34.1234   43.4960 H   0  0  0  0  0  0  0  0  0  0  0  0
   57.4033   31.2447   46.4157 H   0  0  0  0  0  0  0  0  0  0  0  0
   58.0061   30.4491   47.2597 H   0  0  0  0  0  0  0  0  0  0  0  0
   57.8787   29.1258   48.4694 H   0  0  0  0  0  0  0  0  0  0  0  0
   59.5181   31.0144   49.0379 H   0  0  0  0  0  0  0  0  0  0  0  0
   60.1846   29.3281   49.0750 H   0  0  0  0  0  0  0  0  0  0  0  0
  1  2  1  0
  2  3  1  0
  3  4  2  0
  3  5  1  0
  5  6  1  0
  6  7  1  0
  7  8  1  0
  8  9  1  0
  9 10  2  0
 10 11  1  0
 11 12  2  0
 12 13  1  0
 13 14  2  0
 14 15  1  0
 15 16  1  0
 16 17  2  0
 16 18  1  0
 18 19  2  0
 19 20  1  0
 20 21  2  0
 21 22  1  0
 22 23  1  0
 22 24  2  0
  8 25  1  0
 25 26  1  0
 26  5  1  0
 14  9  1  0
 24 18  1  0
  1 27  1  0
  1 28  1  0
  1 29  1  0
  2 30  1  0
  2 31  1  0
  6 32  1  0
  6 33  1  0
  7 34  1  0
  7 35  1  0
 10 36  1  0
 11 37  1  0
 12 38  1  0
 13 39  1  0
 19 40  1  0
 20 41  1  0
 21 42  1  0
 24 43  1  0
 25 44  1  0
 25 45  1  0
 26 46  1  0
 26 47  1  0
M  CHG  1  15  -1
M  END
>  <UniqueID>  (62) 
58

>  <SMILES>  (62) 
CCC(=O)N1CCN(c2ccccc2[N-]C(=O)c2cccc(Br)c2)CC1

>  <Energy>  (62) 
58.123441234928364

>  <Genealogy>  (62) 
CCC(=O)N1CCN(c2ccccc2[N-]C(=O)c2cccc(Br)c2)CC1 (protonated)
CCC(=O)N1CCN(c2ccccc2[N-]C(=O)c2cccc(Br)c2)CC1 (3D coordinates assigned)
CCC(=O)N1CCN(c2ccccc2[N-]C(=O)c2cccc(Br)c2)CC1 (nonaromatic ring conformer: 58.123441234928364 kcal/mol)

>  <smiles>  (62) 
CCC(=O)N1CCN(c2ccccc2NC(=O)c2cccc(Br)c2)CC1

>  <score_type>  (62) 
oracle

>  <origin>  (62) 
adg

>  <m_score__min__energy>  (62) 
-10.210000000000001

>  <m_primary>  (62) 
energy

$$$$
64:0
     RDKit          3D

 51 54  0  0  0  0  0  0  0  0999 V2000
   55.1050   25.9690   45.8250 N   0  0  0  0  0  0  0  0  0  0  0  0
   56.4840   25.8730   46.1740 C   0  0  0  0  0  0  0  0  0  0  0  0
   57.0350   24.7390   46.2020 O   0  0  0  0  0  0  0  0  0  0  0  0
   57.2390   27.0860   46.5570 C   0  0  0  0  0  0  0  0  0  0  0  0
   58.2530   26.9660   47.5330 C   0  0  0  0  0  0  0  0  0  0  0  0
   59.0230   28.0810   47.8550 C   0  0  0  0  0  0  0  0  0  0  0  0
   58.8150   29.2910   47.2460 C   0  0  0  0  0  0  0  0  0  0  0  0
   57.8140   29.4570   46.2930 C   0  0  0  0  0  0  0  0  0  0  0  0
   57.0020   28.3590   45.9540 C   0  0  0  0  0  0  0  0  0  0  0  0
   55.9610   28.5790   45.0490 O   0  0  0  0  0  0  0  0  0  0  0  0
   59.7630   30.3090   47.7550 C   0  0  0  0  0  0  0  0  0  0  0  0
   60.5720   29.5600   48.7200 N   0  0  0  0  0  0  0  0  0  0  0  0
   61.6470   30.1660   49.4640 C   0  0  0  0  0  0  0  0  0  0  0  0
   62.1970   29.5100   50.3900 O   0  0  0  0  0  0  0  0  0  0  0  0
   62.1410   31.5720   49.1870 C   0  0  1  0  0  0  0  0  0  0  0  0
   63.1120   31.6120   47.9700 C   0  0  0  0  0  0  0  0  0  0  0  0
   62.7000   32.5660   46.8400 C   0  0  0  0  0  0  0  0  0  0  0  0
   62.2160   33.8940   47.4040 C   0  0  0  0  0  0  0  0  0  0  0  0
   61.0150   33.6690   48.2100 N   0  0  0  0  0  0  0  0  0  0  0  0
   59.8550   34.5590   48.0820 C   0  0  0  0  0  0  0  0  0  0  0  0
   59.0260   34.1640   46.8900 C   0  0  0  0  0  0  0  0  0  0  0  0
   59.4310   34.5370   45.5980 C   0  0  0  0  0  0  0  0  0  0  0  0
   58.6530   34.1920   44.4890 C   0  0  0  0  0  0  0  0  0  0  0  0
   57.4650   33.4770   44.6620 C   0  0  0  0  0  0  0  0  0  0  0  0
   57.0520   33.1060   45.9440 C   0  0  0  0  0  0  0  0  0  0  0  0
   57.8280   33.4480   47.0570 C   0  0  0  0  0  0  0  0  0  0  0  0
   60.9930   32.5600   49.1290 C   0  0  0  0  0  0  0  0  0  0  0  0
   60.0300   32.4310   49.9350 O   0  0  0  0  0  0  0  0  0  0  0  0
   60.1340   28.1650   48.8330 C   0  0  0  0  0  0  0  0  0  0  0  0
   54.7660   26.7090   45.1730 H   0  0  0  0  0  0  0  0  0  0  0  0
   58.4325   26.0028   48.0331 H   0  0  0  0  0  0  0  0  0  0  0  0
   57.6598   30.4338   45.8112 H   0  0  0  0  0  0  0  0  0  0  0  0
   55.1460   27.9860   44.9830 H   0  0  0  0  0  0  0  0  0  0  0  0
   60.3875   30.7079   46.9421 H   0  0  0  0  0  0  0  0  0  0  0  0
   59.2617   31.1822   48.1980 H   0  0  0  0  0  0  0  0  0  0  0  0
   62.7545   31.9056   50.0369 H   0  0  0  0  0  0  0  0  0  0  0  0
   64.1024   31.9226   48.3342 H   0  0  0  0  0  0  0  0  0  0  0  0
   63.1022   30.6010   47.5366 H   0  0  0  0  0  0  0  0  0  0  0  0
   63.5661   32.7460   46.1861 H   0  0  0  0  0  0  0  0  0  0  0  0
   61.8798   32.1047   46.2704 H   0  0  0  0  0  0  0  0  0  0  0  0
   63.0034   34.3347   48.0331 H   0  0  0  0  0  0  0  0  0  0  0  0
   61.9816   34.5814   46.5779 H   0  0  0  0  0  0  0  0  0  0  0  0
   59.2405   34.4880   48.9916 H   0  0  0  0  0  0  0  0  0  0  0  0
   60.2083   35.5920   47.9471 H   0  0  0  0  0  0  0  0  0  0  0  0
   60.3639   35.1028   45.4582 H   0  0  0  0  0  0  0  0  0  0  0  0
   58.9764   34.4838   43.4789 H   0  0  0  0  0  0  0  0  0  0  0  0
   56.8545   33.2060   43.7880 H   0  0  0  0  0  0  0  0  0  0  0  0
   56.1158   32.5444   46.0786 H   0  0  0  0  0  0  0  0  0  0  0  0
   57.4996   33.1558   48.0653 H   0  0  0  0  0  0  0  0  0  0  0  0
   60.9469   27.4732   48.5675 H   0  0  0  0  0  0  0  0  0  0  0  0
   59.8330   27.8877   49.8540 H   0  0  0  0  0  0  0  0  0  0  0  0
  1  2  1  0
  2  3  2  0
  2  4  1  0
  4  5  2  0
  5  6  1  0
  6  7  2  0
  7  8  1  0
  8  9  2  0
  9 10  1  0
  7 11  1  0
 11 12  1  0
 12 13  1  0
 13 14  2  0
 13 15  1  0
 15 16  1  0
 16 17  1  0
 17 18  1  0
 18 19  1  0
 19 20  1  0
 20 21  1  0
 21 22  2  0
 22 23  1  0
 23 24  2  0
 24 25  1  0
 25 26  2  0
 19 27  1  0
 27 28  2  0
 12 29  1  0
  9  4  1  0
 27 15  1  0
 29  6  1  0
 26 21  1  0
  1 30  1  0
  5 31  1  0
  8 32  1  0
 10 33  1  0
 11 34  1  0
 11 35  1  0
 15 36  1  1
 16 37  1  0
 16 38  1  0
 17 39  1  0
 17 40  1  0
 18 41  1  0
 18 42  1  0
 20 43  1  0
 20 44  1  0
 22 45  1  0
 23 46  1  0
 24 47  1  0
 25 48  1  0
 26 49  1  0
 29 50  1  0
 29 51  1  0
M  CHG  1   1  -1
M  END
>  <UniqueID>  (63) 
59

>  <SMILES>  (63) 
[NH-]C(=O)c1cc2c(cc1O)CN(C(=O)[C@H]1CCCN(Cc3ccccc3)C1=O)C2

>  <Energy>  (63) 
69.82652953714499

>  <Genealogy>  (63) 
[NH-]C(=O)c1cc2c(cc1O)CN(C(=O)C1CCCN(Cc3ccccc3)C1=O)C2 (protonated)
[NH-]C(=O)c1cc2c(cc1O)CN(C(=O)[C@H]1CCCN(Cc3ccccc3)C1=O)C2 (chirality)
[NH-]C(=O)c1cc2c(cc1O)CN(C(=O)[C@H]1CCCN(Cc3ccccc3)C1=O)C2 (3D coordinates assigned)
[NH-]C(=O)c1cc2c(cc1O)CN(C(=O)[C@H]1CCCN(Cc3ccccc3)C1=O)C2 (nonaromatic ring conformer: 69.82652953714499 kcal/mol)

>  <smiles>  (63) 
NC(=O)c1cc2c(cc1O)CN(C(=O)C1CCCN(Cc3ccccc3)C1=O)C2

>  <score_type>  (63) 
oracle

>  <origin>  (63) 
adg

>  <m_score__min__energy>  (63) 
-11.94

>  <m_primary>  (63) 
energy

$$$$
65:0
     RDKit          3D

 50 52  0  0  0  0  0  0  0  0999 V2000
   64.3462   33.9643   46.0796 H   0  0  0  0  0  0  0  0  0  0  0  0
   63.6340   33.6850   46.8700 C   0  0  0  0  0  0  0  0  0  0  0  0
   62.3200   34.0030   46.7430 N   0  0  0  0  0  0  0  0  0  0  0  0
   61.3880   33.6860   47.6840 C   0  0  0  0  0  0  0  0  0  0  0  0
   60.1700   34.1080   47.4750 N   0  0  0  0  0  0  0  0  0  0  0  0
   59.4240   34.1800   46.2540 C   0  0  0  0  0  0  0  0  0  0  0  0
   59.2380   35.3090   45.7290 O   0  0  0  0  0  0  0  0  0  0  0  0
   58.7630   32.9830   45.6730 C   0  0  0  0  0  0  0  0  0  0  0  0
   59.1320   31.6960   46.1020 C   0  0  0  0  0  0  0  0  0  0  0  0
   59.9223   31.5782   46.8580 H   0  0  0  0  0  0  0  0  0  0  0  0
   58.5020   30.5650   45.5750 C   0  0  0  0  0  0  0  0  0  0  0  0
   58.7937   29.5631   45.9229 H   0  0  0  0  0  0  0  0  0  0  0  0
   57.5000   30.7030   44.6050 C   0  0  0  0  0  0  0  0  0  0  0  0
   56.6560   29.2850   43.9800 S   0  0  0  0  0  0  0  0  0  0  0  0
   55.5950   29.7450   43.0200 O   0  0  0  0  0  0  0  0  0  0  0  0
   57.6170   28.4090   43.2270 O   0  0  0  0  0  0  0  0  0  0  0  0
   55.8980   28.3590   45.2490 N   0  0  0  0  0  0  0  0  0  0  0  0
   56.6960   27.1940   45.6430 C   0  0  0  0  0  0  0  0  0  0  0  0
   57.1871   26.7785   44.7507 H   0  0  0  0  0  0  0  0  0  0  0  0
   56.0236   26.4529   46.0999 H   0  0  0  0  0  0  0  0  0  0  0  0
   57.7680   27.5710   46.6720 C   0  0  0  0  0  0  0  0  0  0  0  0
   57.5461   27.0658   47.6236 H   0  0  0  0  0  0  0  0  0  0  0  0
   57.7582   28.6631   46.8029 H   0  0  0  0  0  0  0  0  0  0  0  0
   59.1560   27.1520   46.1970 C   0  0  0  0  0  0  0  0  0  0  0  0
   59.7987   26.9580   47.0684 H   0  0  0  0  0  0  0  0  0  0  0  0
   59.0755   26.2381   45.5901 H   0  0  0  0  0  0  0  0  0  0  0  0
   59.5946   27.9578   45.5901 H   0  0  0  0  0  0  0  0  0  0  0  0
   57.1400   31.9800   44.1620 C   0  0  0  0  0  0  0  0  0  0  0  0
   56.3557   32.0938   43.3991 H   0  0  0  0  0  0  0  0  0  0  0  0
   57.7720   33.1120   44.6840 C   0  0  0  0  0  0  0  0  0  0  0  0
   57.4921   34.1110   44.3185 H   0  0  0  0  0  0  0  0  0  0  0  0
   61.7970   32.9410   48.8300 C   0  0  0  0  0  0  0  0  0  0  0  0
   60.8650   32.3530   49.7560 N   0  0  0  0  0  0  0  0  0  0  0  0
   59.7410   33.1650   50.2440 C   0  0  0  0  0  0  0  0  0  0  0  0
   59.9527   33.5002   51.2701 H   0  0  0  0  0  0  0  0  0  0  0  0
   59.6130   34.0363   49.5849 H   0  0  0  0  0  0  0  0  0  0  0  0
   58.4510   32.3360   50.2370 C   0  0  0  0  0  0  0  0  0  0  0  0
   58.4093   31.7156   51.1444 H   0  0  0  0  0  0  0  0  0  0  0  0
   57.5825   33.0106   50.2129 H   0  0  0  0  0  0  0  0  0  0  0  0
   58.4310   31.5030   49.0960 O   0  0  0  0  0  0  0  0  0  0  0  0
   59.3750   30.4490   49.2260 C   0  0  0  0  0  0  0  0  0  0  0  0
   58.9443   29.6766   49.8801 H   0  0  0  0  0  0  0  0  0  0  0  0
   59.5799   30.0759   48.2117 H   0  0  0  0  0  0  0  0  0  0  0  0
   60.7300   30.8940   49.8240 C   0  0  0  0  0  0  0  0  0  0  0  0
   60.7850   30.5736   50.8749 H   0  0  0  0  0  0  0  0  0  0  0  0
   61.5439   30.4332   49.2450 H   0  0  0  0  0  0  0  0  0  0  0  0
   63.1580   32.6280   48.9710 C   0  0  0  0  0  0  0  0  0  0  0  0
   63.5006   32.0775   49.8596 H   0  0  0  0  0  0  0  0  0  0  0  0
   64.0790   33.0070   47.9980 C   0  0  0  0  0  0  0  0  0  0  0  0
   65.1466   32.7723   48.1210 H   0  0  0  0  0  0  0  0  0  0  0  0
  1  2  1  0
  2  3  1  0
  3  4  1  0
  4  5  2  0
  5  6  1  0
  6  7  2  0
  6  8  1  0
  8  9  2  0
  9 10  1  0
  9 11  1  0
 11 12  1  0
 11 13  2  0
 13 14  1  0
 14 15  2  0
 14 16  2  0
 14 17  1  0
 17 18  1  0
 18 19  1  0
 18 20  1  0
 18 21  1  0
 21 22  1  0
 21 23  1  0
 21 24  1  0
 24 25  1  0
 24 26  1  0
 24 27  1  0
 13 28  1  0
 28 29  1  0
 28 30  2  0
 30 31  1  0
  4 32  1  0
 32 33  1  0
 33 34  1  0
 34 35  1  0
 34 36  1  0
 34 37  1  0
 37 38  1  0
 37 39  1  0
 37 40  1  0
 40 41  1  0
 41 42  1  0
 41 43  1  0
 41 44  1  0
 44 45  1  0
 44 46  1  0
 32 47  2  0
 47 48  1  0
 47 49  1  0
 49 50  1  0
 49  2  2  0
 30  8  1  0
 44 33  1  0
M  CHG  2   3  -1  17  -1
M  END
>  <UniqueID>  (64) 
60

>  <SMILES>  (64) 
CCC[N-]S(=O)(=O)c1ccc(C(=O)/N=c2/[n-]cccc2N2CCOCC2)cc1

>  <Energy>  (64) 
72.13967086743924

>  <Genealogy>  (64) 
CCC[N-]S(=O)(=O)c1ccc(C(=O)N=c2[n-]cccc2N2CCOCC2)cc1 (protonated)
CCC[N-]S(=O)(=O)c1ccc(C(=O)/N=c2/[n-]cccc2N2CCOCC2)cc1 (cis-trans isomerization)
CCC[N-]S(=O)(=O)c1ccc(C(=O)/N=c2/[n-]cccc2N2CCOCC2)cc1 (3D coordinates assigned)
CCC[N-]S(=O)(=O)c1ccc(C(=O)/N=c2/[n-]cccc2N2CCOCC2)cc1 (nonaromatic ring conformer: 72.13967086743924 kcal/mol)

>  <smiles>  (64) 
CCCNS(=O)(=O)c1ccc(C(=O)N=c2[nH]cccc2N2CCOCC2)cc1

>  <score_type>  (64) 
oracle

>  <origin>  (64) 
adg

>  <m_score__min__energy>  (64) 
-10.76

>  <m_primary>  (64) 
energy

$$$$
66:0
     RDKit          3D

 46 48  0  0  0  0  0  0  0  0999 V2000
   59.7620   30.5660   47.3040 C   0  0  0  0  0  0  0  0  0  0  0  0
   59.6980   30.4970   45.7840 C   0  0  0  0  0  0  0  0  0  0  0  0
   58.3200   30.2630   45.3370 N   0  0  0  0  0  0  0  0  0  0  0  0
   57.4460   31.1390   44.7930 C   0  0  0  0  0  0  0  0  0  0  0  0
   57.7500   32.5670   44.4320 C   0  0  0  0  0  0  0  0  0  0  0  0
   58.7200   33.1600   45.3710 N   0  0  0  0  0  0  0  0  0  0  0  0
   58.0840   33.5230   46.6390 C   0  0  0  0  0  0  0  0  0  0  0  0
   58.9510   34.6060   47.2570 C   0  0  0  0  0  0  0  0  0  0  0  0
   59.6730   35.2490   46.0850 C   0  0  0  0  0  0  0  0  0  0  0  0
   59.3110   34.4040   44.8690 C   0  0  0  0  0  0  0  0  0  0  0  0
   56.2130   30.6020   44.6950 N   0  0  0  0  0  0  0  0  0  0  0  0
   56.2820   29.3730   45.1850 N   0  0  0  0  0  0  0  0  0  0  0  0
   57.5570   29.1770   45.5710 C   0  0  0  0  0  0  0  0  0  0  0  0
   58.1430   27.6600   46.3370 S   0  0  0  0  0  0  0  0  0  0  0  0
   57.0650   26.5250   45.3850 C   0  0  0  0  0  0  0  0  0  0  0  0
   55.9270   25.9580   46.1780 C   0  0  0  0  0  0  0  0  0  0  0  0
   54.7420   26.3410   45.9650 O   0  0  0  0  0  0  0  0  0  0  0  0
   56.1960   24.9230   47.1300 N   0  0  0  0  0  0  0  0  0  0  0  0
   55.8540   23.5180   46.9310 C   0  0  0  0  0  0  0  0  0  0  0  0
   56.2090   23.0660   45.5440 C   0  0  0  0  0  0  0  0  0  0  0  0
   57.3770   22.4270   45.1380 C   0  0  0  0  0  0  0  0  0  0  0  0
   57.4430   22.2180   43.7560 C   0  0  0  0  0  0  0  0  0  0  0  0
   56.3400   22.7030   43.0660 C   0  0  0  0  0  0  0  0  0  0  0  0
   55.2800   23.3830   44.1800 S   0  0  0  0  0  0  0  0  0  0  0  0
   59.0735   29.8237   47.7341 H   0  0  0  0  0  0  0  0  0  0  0  0
   60.7879   30.3513   47.6379 H   0  0  0  0  0  0  0  0  0  0  0  0
   59.4709   31.5728   47.6379 H   0  0  0  0  0  0  0  0  0  0  0  0
   60.0585   31.4472   45.3631 H   0  0  0  0  0  0  0  0  0  0  0  0
   60.3297   29.6651   45.4390 H   0  0  0  0  0  0  0  0  0  0  0  0
   58.1694   32.5986   43.4156 H   0  0  0  0  0  0  0  0  0  0  0  0
   56.8160   33.1458   44.4847 H   0  0  0  0  0  0  0  0  0  0  0  0
   57.0680   33.9047   46.4598 H   0  0  0  0  0  0  0  0  0  0  0  0
   57.9965   32.6524   47.3057 H   0  0  0  0  0  0  0  0  0  0  0  0
   58.3292   35.3466   47.7813 H   0  0  0  0  0  0  0  0  0  0  0  0
   59.6518   34.1995   48.0010 H   0  0  0  0  0  0  0  0  0  0  0  0
   59.3337   36.2862   45.9469 H   0  0  0  0  0  0  0  0  0  0  0  0
   60.7604   35.2859   46.2467 H   0  0  0  0  0  0  0  0  0  0  0  0
   58.5853   34.9397   44.2394 H   0  0  0  0  0  0  0  0  0  0  0  0
   60.2010   34.1963   44.2568 H   0  0  0  0  0  0  0  0  0  0  0  0
   56.6492   27.0784   44.5301 H   0  0  0  0  0  0  0  0  0  0  0  0
   57.6916   25.6757   45.0750 H   0  0  0  0  0  0  0  0  0  0  0  0
   56.4063   22.9071   47.6602 H   0  0  0  0  0  0  0  0  0  0  0  0
   54.7692   23.3996   47.0699 H   0  0  0  0  0  0  0  0  0  0  0  0
   58.1698   22.1170   45.8347 H   0  0  0  0  0  0  0  0  0  0  0  0
   58.2889   21.7168   43.2628 H   0  0  0  0  0  0  0  0  0  0  0  0
   56.1862   22.6513   41.9780 H   0  0  0  0  0  0  0  0  0  0  0  0
  1  2  1  0
  2  3  1  0
  3  4  1  0
  4  5  1  0
  5  6  1  0
  6  7  1  0
  7  8  1  0
  8  9  1  0
  9 10  1  0
  4 11  2  0
 11 12  1  0
 12 13  2  0
 13 14  1  0
 14 15  1  0
 15 16  1  0
 16 17  2  0
 16 18  1  0
 18 19  1  0
 19 20  1  0
 20 21  2  0
 21 22  1  0
 22 23  2  0
 23 24  1  0
 13  3  1  0
 24 20  1  0
 10  6  1  0
  1 25  1  0
  1 26  1  0
  1 27  1  0
  2 28  1  0
  2 29  1  0
  5 30  1  0
  5 31  1  0
  7 32  1  0
  7 33  1  0
  8 34  1  0
  8 35  1  0
  9 36  1  0
  9 37  1  0
 10 38  1  0
 10 39  1  0
 15 40  1  0
 15 41  1  0
 19 42  1  0
 19 43  1  0
 21 44  1  0
 22 45  1  0
 23 46  1  0
M  CHG  1  18  -1
M  END
>  <UniqueID>  (65) 
61

>  <SMILES>  (65) 
CCn1c(CN2CCCC2)nnc1SCC(=O)[N-]Cc1cccs1

>  <Energy>  (65) 
97.8461506692548

>  <Genealogy>  (65) 
CCn1c(CN2CCCC2)nnc1SCC(=O)[N-]Cc1cccs1 (protonated)
CCn1c(CN2CCCC2)nnc1SCC(=O)[N-]Cc1cccs1 (3D coordinates assigned)
CCn1c(CN2CCCC2)nnc1SCC(=O)[N-]Cc1cccs1 (nonaromatic ring conformer: 97.8461506692548 kcal/mol)

>  <smiles>  (65) 
CCn1c(CN2CCCC2)nnc1SCC(=O)NCc1cccs1

>  <score_type>  (65) 
oracle

>  <origin>  (65) 
adg

>  <m_score__min__energy>  (65) 
-10.359999999999999

>  <m_primary>  (65) 
energy

$$$$
67:0
     RDKit          3D

 51 53  0  0  0  0  0  0  0  0999 V2000
   53.2630   22.9840   46.2810 C   0  0  0  0  0  0  0  0  0  0  0  0
   53.6400   24.4250   45.2290 S   0  0  0  0  0  0  0  0  0  0  0  0
   55.2640   23.8150   44.7510 C   0  0  0  0  0  0  0  0  0  0  0  0
   55.3300   22.6300   44.0840 N   0  0  0  0  0  0  0  0  0  0  0  0
   56.5050   22.1110   43.6390 C   0  0  0  0  0  0  0  0  0  0  0  0
   57.6960   22.8040   43.8430 C   0  0  0  0  0  0  0  0  0  0  0  0
   57.6660   24.0320   44.5040 C   0  0  0  0  0  0  0  0  0  0  0  0
   56.4510   24.5530   44.9810 C   0  0  0  0  0  0  0  0  0  0  0  0
   56.4550   25.8890   45.6160 C   0  0  0  0  0  0  0  0  0  0  0  0
   55.8820   26.0410   46.7310 O   0  0  0  0  0  0  0  0  0  0  0  0
   57.0660   27.0150   44.9700 N   0  0  0  0  0  0  0  0  0  0  0  0
   57.1890   28.3200   45.6210 C   0  0  0  0  0  0  0  0  0  0  0  0
   56.4120   29.3770   44.8930 C   0  0  0  0  0  0  0  0  0  0  0  0
   55.1510   29.3290   44.8370 O   0  0  0  0  0  0  0  0  0  0  0  0
   57.1200   30.4190   44.2170 N   0  0  0  0  0  0  0  0  0  0  0  0
   56.9390   31.8290   44.5330 C   0  0  0  0  0  0  0  0  0  0  0  0
   58.1210   32.3190   45.3170 C   0  0  0  0  0  0  0  0  0  0  0  0
   58.8950   31.4240   46.0700 C   0  0  0  0  0  0  0  0  0  0  0  0
   60.0150   31.8780   46.7750 C   0  0  0  0  0  0  0  0  0  0  0  0
   60.3910   33.2310   46.7200 C   0  0  0  0  0  0  0  0  0  0  0  0
   61.5390   33.7000   47.4560 N   0  0  0  0  0  0  0  0  0  0  0  0
   61.3850   34.1740   48.8380 C   0  0  0  0  0  0  0  0  0  0  0  0
   62.7520   34.2940   49.5120 C   0  0  0  0  0  0  0  0  0  0  0  0
   63.5610   33.2020   49.1280 O   0  0  0  0  0  0  0  0  0  0  0  0
   63.9780   33.3420   47.7780 C   0  0  0  0  0  0  0  0  0  0  0  0
   62.8570   33.8030   46.8150 C   0  0  0  0  0  0  0  0  0  0  0  0
   59.6160   34.1230   45.9600 C   0  0  0  0  0  0  0  0  0  0  0  0
   58.4960   33.6690   45.2590 C   0  0  0  0  0  0  0  0  0  0  0  0
   53.3386   23.2731   47.3396 H   0  0  0  0  0  0  0  0  0  0  0  0
   52.2426   22.6322   46.0690 H   0  0  0  0  0  0  0  0  0  0  0  0
   53.9804   22.1775   46.0690 H   0  0  0  0  0  0  0  0  0  0  0  0
   56.5153   21.1427   43.1172 H   0  0  0  0  0  0  0  0  0  0  0  0
   58.6497   22.3875   43.4867 H   0  0  0  0  0  0  0  0  0  0  0  0
   58.5987   24.5959   44.6528 H   0  0  0  0  0  0  0  0  0  0  0  0
   57.3390   26.9400   43.9660 H   0  0  0  0  0  0  0  0  0  0  0  0
   56.8084   28.2426   46.6501 H   0  0  0  0  0  0  0  0  0  0  0  0
   58.2505   28.6084   45.6148 H   0  0  0  0  0  0  0  0  0  0  0  0
   56.8522   32.4060   43.6005 H   0  0  0  0  0  0  0  0  0  0  0  0
   56.0234   31.9577   45.1290 H   0  0  0  0  0  0  0  0  0  0  0  0
   58.6201   30.3595   46.1065 H   0  0  0  0  0  0  0  0  0  0  0  0
   60.6053   31.1711   47.3765 H   0  0  0  0  0  0  0  0  0  0  0  0
   60.8956   35.1591   48.8316 H   0  0  0  0  0  0  0  0  0  0  0  0
   60.7715   33.4528   49.3979 H   0  0  0  0  0  0  0  0  0  0  0  0
   63.2327   35.2338   49.2025 H   0  0  0  0  0  0  0  0  0  0  0  0
   62.6248   34.2912   50.6046 H   0  0  0  0  0  0  0  0  0  0  0  0
   64.7903   34.0828   47.7424 H   0  0  0  0  0  0  0  0  0  0  0  0
   64.2971   32.3452   47.4395 H   0  0  0  0  0  0  0  0  0  0  0  0
   63.0369   34.8495   46.5278 H   0  0  0  0  0  0  0  0  0  0  0  0
   62.8675   33.1534   45.9274 H   0  0  0  0  0  0  0  0  0  0  0  0
   59.8931   35.1866   45.9166 H   0  0  0  0  0  0  0  0  0  0  0  0
   57.9045   34.3751   44.6577 H   0  0  0  0  0  0  0  0  0  0  0  0
  1  2  1  0
  2  3  1  0
  3  4  2  0
  4  5  1  0
  5  6  2  0
  6  7  1  0
  7  8  2  0
  8  9  1  0
  9 10  2  0
  9 11  1  0
 11 12  1  0
 12 13  1  0
 13 14  2  0
 13 15  1  0
 15 16  1  0
 16 17  1  0
 17 18  2  0
 18 19  1  0
 19 20  2  0
 20 21  1  0
 21 22  1  0
 22 23  1  0
 23 24  1  0
 24 25  1  0
 25 26  1  0
 20 27  1  0
 27 28  2  0
  8  3  1  0
 28 17  1  0
 26 21  1  0
  1 29  1  0
  1 30  1  0
  1 31  1  0
  5 32  1  0
  6 33  1  0
  7 34  1  0
 11 35  1  0
 12 36  1  0
 12 37  1  0
 16 38  1  0
 16 39  1  0
 18 40  1  0
 19 41  1  0
 22 42  1  0
 22 43  1  0
 23 44  1  0
 23 45  1  0
 25 46  1  0
 25 47  1  0
 26 48  1  0
 26 49  1  0
 27 50  1  0
 28 51  1  0
M  CHG  1  15  -1
M  END
>  <UniqueID>  (66) 
62

>  <SMILES>  (66) 
CSc1ncccc1C(=O)NCC(=O)[N-]Cc1ccc(N2CCOCC2)cc1

>  <Energy>  (66) 
61.64483824306553

>  <Genealogy>  (66) 
CSc1ncccc1C(=O)NCC(=O)[N-]Cc1ccc(N2CCOCC2)cc1 (protonated)
CSc1ncccc1C(=O)NCC(=O)[N-]Cc1ccc(N2CCOCC2)cc1 (3D coordinates assigned)
CSc1ncccc1C(=O)NCC(=O)[N-]Cc1ccc(N2CCOCC2)cc1 (nonaromatic ring conformer: 61.64483824306553 kcal/mol)

>  <smiles>  (66) 
CSc1ncccc1C(=O)NCC(=O)NCc1ccc(N2CCOCC2)cc1

>  <score_type>  (66) 
oracle

>  <origin>  (66) 
adg

>  <m_score__min__energy>  (66) 
-9.9100000000000001

>  <m_primary>  (66) 
energy

$$$$
68:0
     RDKit          3D

 38 40  0  0  0  0  0  0  0  0999 V2000
   59.7848   25.7877   45.4340 H   0  0  0  0  0  0  0  0  0  0  0  0
   59.2670   26.7430   45.2630 C   0  0  0  0  0  0  0  0  0  0  0  0
   57.8830   26.8290   45.4400 C   0  0  0  0  0  0  0  0  0  0  0  0
   57.3121   25.9411   45.7494 H   0  0  0  0  0  0  0  0  0  0  0  0
   57.2240   28.0430   45.2240 C   0  0  0  0  0  0  0  0  0  0  0  0
   56.1354   28.1099   45.3674 H   0  0  0  0  0  0  0  0  0  0  0  0
   57.9480   29.1750   44.8250 C   0  0  0  0  0  0  0  0  0  0  0  0
   57.1270   30.7100   44.5490 S   0  0  0  0  0  0  0  0  0  0  0  0
   55.6480   30.4590   44.4560 O   0  0  0  0  0  0  0  0  0  0  0  0
   57.5970   31.3430   43.2690 O   0  0  0  0  0  0  0  0  0  0  0  0
   57.4380   31.7920   45.8660 N   0  0  0  0  0  0  0  0  0  0  0  0
   58.7280   32.3010   46.2360 C   0  0  0  0  0  0  0  0  0  0  0  0
   59.2250   33.5100   45.7170 C   0  0  0  0  0  0  0  0  0  0  0  0
   58.6149   34.0924   45.0109 H   0  0  0  0  0  0  0  0  0  0  0  0
   60.4870   33.9770   46.0910 C   0  0  0  0  0  0  0  0  0  0  0  0
   60.8618   34.9260   45.6799 H   0  0  0  0  0  0  0  0  0  0  0  0
   61.2810   33.2440   46.9880 C   0  0  0  0  0  0  0  0  0  0  0  0
   62.6180   33.7490   47.3840 C   0  0  0  0  0  0  0  0  0  0  0  0
   63.5350   33.8180   46.5240 O   0  0  0  0  0  0  0  0  0  0  0  0
   62.8860   34.2240   48.7110 N   0  0  0  0  0  0  0  0  0  0  0  0
   63.8680   33.8320   49.4670 C   0  0  0  0  0  0  0  0  0  0  0  0
   63.8980   34.0020   51.2440 S   0  0  0  0  0  0  0  0  0  0  0  0
   65.0520   32.5850   51.2990 C   0  0  0  0  0  0  0  0  0  0  0  0
   64.4885   31.6568   51.4750 H   0  0  0  0  0  0  0  0  0  0  0  0
   65.7768   32.7267   52.1143 H   0  0  0  0  0  0  0  0  0  0  0  0
   65.7910   32.4920   49.9580 C   0  0  0  0  0  0  0  0  0  0  0  0
   66.0181   31.4409   49.7265 H   0  0  0  0  0  0  0  0  0  0  0  0
   66.7397   33.0472   49.9993 H   0  0  0  0  0  0  0  0  0  0  0  0
   64.9190   33.0460   48.9400 N   0  0  0  0  0  0  0  0  0  0  0  0
   65.0910   32.9270   47.9170 H   0  0  0  0  0  0  0  0  0  0  0  0
   60.7770   32.0450   47.5190 C   0  0  0  0  0  0  0  0  0  0  0  0
   61.3808   31.4715   48.2377 H   0  0  0  0  0  0  0  0  0  0  0  0
   59.5150   31.5730   47.1430 C   0  0  0  0  0  0  0  0  0  0  0  0
   58.8870   29.9220   47.8840 Br  0  0  0  0  0  0  0  0  0  0  0  0
   59.3350   29.0850   44.6510 C   0  0  0  0  0  0  0  0  0  0  0  0
   59.9080   29.9717   44.3422 H   0  0  0  0  0  0  0  0  0  0  0  0
   59.9930   27.8700   44.8690 C   0  0  0  0  0  0  0  0  0  0  0  0
   61.0821   27.8018   44.7302 H   0  0  0  0  0  0  0  0  0  0  0  0
  1  2  1  0
  2  3  2  0
  3  4  1  0
  3  5  1  0
  5  6  1  0
  5  7  2  0
  7  8  1  0
  8  9  2  0
  8 10  2  0
  8 11  1  0
 11 12  1  0
 12 13  2  0
 13 14  1  0
 13 15  1  0
 15 16  1  0
 15 17  2  0
 17 18  1  0
 18 19  2  0
 18 20  1  0
 20 21  2  0
 21 22  1  0
 22 23  1  0
 23 24  1  0
 23 25  1  0
 23 26  1  0
 26 27  1  0
 26 28  1  0
 26 29  1  0
 29 30  1  0
 17 31  1  0
 31 32  1  0
 31 33  2  0
 33 34  1  0
  7 35  1  0
 35 36  1  0
 35 37  2  0
 37 38  1  0
 37  2  1  0
 33 12  1  0
 29 21  1  0
M  CHG  1  11  -1
M  END
>  <UniqueID>  (67) 
63

>  <SMILES>  (67) 
O=C(/N=C1/NCCS1)c1ccc([N-]S(=O)(=O)c2ccccc2)c(Br)c1

>  <Energy>  (67) 
56.686757223363244

>  <Genealogy>  (67) 
O=C(N=C1NCCS1)c1ccc([N-]S(=O)(=O)c2ccccc2)c(Br)c1 (protonated)
O=C(/N=C1/NCCS1)c1ccc([N-]S(=O)(=O)c2ccccc2)c(Br)c1 (cis-trans isomerization)
O=C(/N=C1/NCCS1)c1ccc([N-]S(=O)(=O)c2ccccc2)c(Br)c1 (3D coordinates assigned)
O=C(/N=C1/NCCS1)c1ccc([N-]S(=O)(=O)c2ccccc2)c(Br)c1 (nonaromatic ring conformer: 56.686757223363244 kcal/mol)

>  <smiles>  (67) 
O=C(N=C1NCCS1)c1ccc(NS(=O)(=O)c2ccccc2)c(Br)c1

>  <score_type>  (67) 
oracle

>  <origin>  (67) 
adg

>  <m_score__min__energy>  (67) 
-10.17

>  <m_primary>  (67) 
energy

$$$$
69:0
     RDKit          3D

 41 43  0  0  0  0  0  0  0  0999 V2000
   62.5870   33.9770   49.0170 C   0  0  0  0  0  0  0  0  0  0  0  0
   61.5030   34.1940   48.2830 C   0  0  0  0  0  0  0  0  0  0  0  0
   60.2580   34.5490   48.7870 O   0  0  0  0  0  0  0  0  0  0  0  0
   59.3890   34.6980   47.7040 C   0  0  0  0  0  0  0  0  0  0  0  0
   59.9980   34.4400   46.5440 C   0  0  0  0  0  0  0  0  0  0  0  0
   59.3910   34.5930   45.1830 C   0  0  0  0  0  0  0  0  0  0  0  0
   58.0900   33.8450   45.1270 C   0  0  0  0  0  0  0  0  0  0  0  0
   57.0280   34.4930   44.9210 O   0  0  0  0  0  0  0  0  0  0  0  0
   58.0430   32.4070   45.2160 N   0  0  0  0  0  0  0  0  0  0  0  0
   56.9870   31.6720   44.5050 C   0  0  0  0  0  0  0  0  0  0  0  0
   57.5280   30.3250   44.0130 C   0  0  0  0  0  0  0  0  0  0  0  0
   58.1490   29.4720   45.1540 C   0  0  0  0  0  0  0  0  0  0  0  0
   57.2870   28.2830   45.4910 C   0  0  0  0  0  0  0  0  0  0  0  0
   57.7230   27.0690   45.9870 C   0  0  0  0  0  0  0  0  0  0  0  0
   56.5710   26.3110   46.0650 C   0  0  0  0  0  0  0  0  0  0  0  0
   56.4540   24.9230   46.5420 C   0  0  0  0  0  0  0  0  0  0  0  0
   57.6090   24.1230   46.8020 N   0  0  0  0  0  0  0  0  0  0  0  0
   55.3100   24.4300   46.7260 O   0  0  0  0  0  0  0  0  0  0  0  0
   55.5210   27.0370   45.6280 N   0  0  0  0  0  0  0  0  0  0  0  0
   55.9580   28.2350   45.2730 N   0  0  0  0  0  0  0  0  0  0  0  0
   58.4410   30.2850   46.4330 C   0  0  0  0  0  0  0  0  0  0  0  0
   58.9680   31.6860   46.1040 C   0  0  0  0  0  0  0  0  0  0  0  0
   61.3860   34.1160   46.8420 C   0  0  0  0  0  0  0  0  0  0  0  0
   62.2980   33.8400   46.0170 O   0  0  0  0  0  0  0  0  0  0  0  0
   63.5338   33.6990   48.5309 H   0  0  0  0  0  0  0  0  0  0  0  0
   62.5388   34.0752   50.1115 H   0  0  0  0  0  0  0  0  0  0  0  0
   58.3329   34.9917   47.7953 H   0  0  0  0  0  0  0  0  0  0  0  0
   59.2099   35.6589   44.9802 H   0  0  0  0  0  0  0  0  0  0  0  0
   60.0796   34.1872   44.4272 H   0  0  0  0  0  0  0  0  0  0  0  0
   56.1415   31.4981   45.1868 H   0  0  0  0  0  0  0  0  0  0  0  0
   56.6527   32.2649   43.6409 H   0  0  0  0  0  0  0  0  0  0  0  0
   56.7009   29.7581   43.5608 H   0  0  0  0  0  0  0  0  0  0  0  0
   58.3254   30.5346   43.2848 H   0  0  0  0  0  0  0  0  0  0  0  0
   59.1140   29.1186   44.7616 H   0  0  0  0  0  0  0  0  0  0  0  0
   58.7481   26.7750   46.2567 H   0  0  0  0  0  0  0  0  0  0  0  0
   58.5750   24.4880   46.6490 H   0  0  0  0  0  0  0  0  0  0  0  0
   57.5000   23.1460   47.1500 H   0  0  0  0  0  0  0  0  0  0  0  0
   57.5124   30.3806   47.0148 H   0  0  0  0  0  0  0  0  0  0  0  0
   59.2131   29.7539   47.0090 H   0  0  0  0  0  0  0  0  0  0  0  0
   59.0844   32.2543   47.0386 H   0  0  0  0  0  0  0  0  0  0  0  0
   59.9351   31.5827   45.5901 H   0  0  0  0  0  0  0  0  0  0  0  0
  1  2  2  0
  2  3  1  0
  3  4  1  0
  4  5  2  0
  5  6  1  0
  6  7  1  0
  7  8  2  0
  7  9  1  0
  9 10  1  0
 10 11  1  0
 11 12  1  0
 12 13  1  0
 13 14  1  0
 14 15  2  0
 15 16  1  0
 16 17  1  0
 16 18  2  0
 15 19  1  0
 19 20  1  0
 12 21  1  0
 21 22  1  0
  5 23  1  0
 23 24  2  0
 23  2  1  0
 22  9  1  0
 20 13  2  0
  1 25  1  0
  1 26  1  0
  4 27  1  0
  6 28  1  0
  6 29  1  0
 10 30  1  0
 10 31  1  0
 11 32  1  0
 11 33  1  0
 12 34  1  0
 14 35  1  0
 17 36  1  0
 17 37  1  0
 21 38  1  0
 21 39  1  0
 22 40  1  0
 22 41  1  0
M  CHG  1  19  -1
M  END
>  <UniqueID>  (68) 
64

>  <SMILES>  (68) 
C=C1OC=C(CC(=O)N2CCC(c3cc(C(N)=O)[n-]n3)CC2)C1=O

>  <Energy>  (68) 
95.72412480680386

>  <Genealogy>  (68) 
C=C1OC=C(CC(=O)N2CCC(c3cc(C(N)=O)[n-]n3)CC2)C1=O (protonated)
C=C1OC=C(CC(=O)N2CCC(c3cc(C(N)=O)[n-]n3)CC2)C1=O (3D coordinates assigned)
C=C1OC=C(CC(=O)N2CCC(c3cc(C(N)=O)[n-]n3)CC2)C1=O (nonaromatic ring conformer: 95.72412480680386 kcal/mol)

>  <smiles>  (68) 
C=C1OC=C(CC(=O)N2CCC(c3cc(C(N)=O)[nH]n3)CC2)C1=O

>  <score_type>  (68) 
oracle

>  <origin>  (68) 
adg

>  <m_score__min__energy>  (68) 
-10.6

>  <m_primary>  (68) 
energy

$$$$
70:0
     RDKit          3D

 23 24  0  0  0  0  0  0  0  0999 V2000
   55.1450   27.8430   45.0100 H   0  0  0  0  0  0  0  0  0  0  0  0
   55.5130   28.7750   44.8690 O   0  0  0  0  0  0  0  0  0  0  0  0
   56.8110   29.1090   45.2510 C   0  0  0  0  0  0  0  0  0  0  0  0
   57.6520   28.3370   46.0260 C   0  0  0  0  0  0  0  0  0  0  0  0
   57.3240   27.0570   46.6700 C   0  0  0  0  0  0  0  0  0  0  0  0
   57.8368   26.8265   47.6155 H   0  0  0  0  0  0  0  0  0  0  0  0
   56.4530   26.1420   46.2070 C   0  0  0  0  0  0  0  0  0  0  0  0
   55.1290   26.3890   46.1870 N   0  0  0  0  0  0  0  0  0  0  0  0
   54.5970   25.2870   45.6260 C   0  0  0  0  0  0  0  0  0  0  0  0
   53.3610   25.1550   45.4250 O   0  0  0  0  0  0  0  0  0  0  0  0
   55.4920   24.3350   45.3020 N   0  0  0  0  0  0  0  0  0  0  0  0
   56.6710   24.8610   45.6840 C   0  0  0  0  0  0  0  0  0  0  0  0
   57.8000   24.1500   45.6440 C   0  0  0  0  0  0  0  0  0  0  0  0
   58.7489   24.6063   45.9624 H   0  0  0  0  0  0  0  0  0  0  0  0
   57.7815   23.1078   45.2926 H   0  0  0  0  0  0  0  0  0  0  0  0
   58.7860   29.0250   46.2760 N   0  0  0  0  0  0  0  0  0  0  0  0
   58.6150   30.1810   45.5980 C   0  0  0  0  0  0  0  0  0  0  0  0
   59.4770   31.1010   45.5900 O   0  0  0  0  0  0  0  0  0  0  0  0
   57.4330   30.2620   44.9500 N   0  0  0  0  0  0  0  0  0  0  0  0
   56.8950   31.3960   44.2040 C   0  0  0  0  0  0  0  0  0  0  0  0
   56.5328   32.1595   44.9082 H   0  0  0  0  0  0  0  0  0  0  0  0
   57.6849   31.8264   43.5709 H   0  0  0  0  0  0  0  0  0  0  0  0
   56.0620   31.0564   43.5709 H   0  0  0  0  0  0  0  0  0  0  0  0
  1  2  1  0
  2  3  1  0
  3  4  2  0
  4  5  1  0
  5  6  1  0
  5  7  2  0
  7  8  1  0
  8  9  1  0
  9 10  2  0
  9 11  1  0
 11 12  1  0
 12 13  2  0
 13 14  1  0
 13 15  1  0
  4 16  1  0
 16 17  1  0
 17 18  2  0
 17 19  1  0
 19 20  1  0
 20 21  1  0
 20 22  1  0
 20 23  1  0
 19  3  1  0
 12  7  1  0
M  CHG  3   8  -1  11  -1  16  -1
M  END
>  <UniqueID>  (69) 
65

>  <SMILES>  (69) 
C=c1[n-]c(=O)[n-]/c1=C/c1[n-]c(=O)n(C)c1O

>  <Energy>  (69) 
95.11804779502762

>  <Genealogy>  (69) 
C=c1[n-]c(=O)[n-]c1=Cc1[n-]c(=O)n(C)c1O (protonated)
C=c1[n-]c(=O)[n-]/c1=C/c1[n-]c(=O)n(C)c1O (cis-trans isomerization)
C=c1[n-]c(=O)[n-]/c1=C/c1[n-]c(=O)n(C)c1O (3D coordinates assigned)
C=c1[n-]c(=O)[n-]/c1=C/c1[n-]c(=O)n(C)c1O (optimized conformer: 95.11804779502762 kcal/mol)

>  <smiles>  (69) 
C=c1[nH]c(=O)[nH]c1=Cc1[nH]c(=O)n(C)c1O

>  <score_type>  (69) 
oracle

>  <origin>  (69) 
adg

>  <m_score__min__energy>  (69) 
-11.93

>  <m_primary>  (69) 
energy

$$$$
71:0
     RDKit          3D

 55 58  0  0  0  0  0  0  0  0999 V2000
   56.8540   30.6290   43.5370 C   0  0  0  0  0  0  0  0  0  0  0  0
   56.5970   31.3480   44.7370 O   0  0  0  0  0  0  0  0  0  0  0  0
   57.4470   32.3280   45.2700 C   0  0  0  0  0  0  0  0  0  0  0  0
   57.6980   33.4720   44.5060 C   0  0  0  0  0  0  0  0  0  0  0  0
   58.5420   34.4760   44.9890 C   0  0  0  0  0  0  0  0  0  0  0  0
   59.1450   34.3450   46.2420 C   0  0  0  0  0  0  0  0  0  0  0  0
   58.9080   33.2020   47.0280 C   0  0  0  0  0  0  0  0  0  0  0  0
   59.5620   33.0550   48.3550 C   0  0  0  0  0  0  0  0  0  0  0  0
   60.9050   33.4270   48.5350 C   0  0  0  0  0  0  0  0  0  0  0  0
   61.5210   33.2750   49.7810 C   0  0  0  0  0  0  0  0  0  0  0  0
   60.8040   32.7550   50.8610 C   0  0  0  0  0  0  0  0  0  0  0  0
   59.4570   32.3930   50.7040 C   0  0  0  0  0  0  0  0  0  0  0  0
   58.6900   31.7930   51.8560 C   0  0  0  0  0  0  0  0  0  0  0  0
   59.4880   31.8570   53.0920 N   0  0  0  0  0  0  0  0  0  0  0  0
   58.7280   31.3890   54.2630 C   0  0  0  0  0  0  0  0  0  0  0  0
   57.5920   30.4780   53.8680 C   0  0  0  0  0  0  0  0  0  0  0  0
   57.7730   29.0870   53.8320 C   0  0  0  0  0  0  0  0  0  0  0  0
   56.7230   28.2530   53.4440 C   0  0  0  0  0  0  0  0  0  0  0  0
   55.4860   28.7960   53.0910 C   0  0  0  0  0  0  0  0  0  0  0  0
   55.2860   30.1880   53.1150 C   0  0  0  0  0  0  0  0  0  0  0  0
   53.9750   30.7670   52.7250 C   0  0  0  0  0  0  0  0  0  0  0  0
   52.9310   30.8700   53.6650 C   0  0  0  0  0  0  0  0  0  0  0  0
   51.7010   31.4240   53.2990 C   0  0  0  0  0  0  0  0  0  0  0  0
   51.4940   31.8710   51.9900 C   0  0  0  0  0  0  0  0  0  0  0  0
   50.2690   32.4180   51.6270 O   0  0  0  0  0  0  0  0  0  0  0  0
   52.5210   31.7690   51.0470 C   0  0  0  0  0  0  0  0  0  0  0  0
   53.7550   31.2210   51.4120 C   0  0  0  0  0  0  0  0  0  0  0  0
   56.3490   31.0220   53.5030 C   0  0  0  0  0  0  0  0  0  0  0  0
   58.8460   32.5340   49.4490 C   0  0  0  0  0  0  0  0  0  0  0  0
   58.0530   32.1980   46.5350 C   0  0  0  0  0  0  0  0  0  0  0  0
   57.2148   29.6197   43.7844 H   0  0  0  0  0  0  0  0  0  0  0  0
   55.9273   30.5533   42.9493 H   0  0  0  0  0  0  0  0  0  0  0  0
   57.6187   31.1579   42.9493 H   0  0  0  0  0  0  0  0  0  0  0  0
   57.2278   33.5826   43.5177 H   0  0  0  0  0  0  0  0  0  0  0  0
   58.7319   35.3723   44.3803 H   0  0  0  0  0  0  0  0  0  0  0  0
   59.8082   35.1389   46.6161 H   0  0  0  0  0  0  0  0  0  0  0  0
   61.4754   33.8405   47.6902 H   0  0  0  0  0  0  0  0  0  0  0  0
   62.5738   33.5659   49.9111 H   0  0  0  0  0  0  0  0  0  0  0  0
   61.2960   32.6289   51.8367 H   0  0  0  0  0  0  0  0  0  0  0  0
   57.7541   32.3530   51.9993 H   0  0  0  0  0  0  0  0  0  0  0  0
   58.4689   30.7399   51.6278 H   0  0  0  0  0  0  0  0  0  0  0  0
   60.3270   31.2390   52.9840 H   0  0  0  0  0  0  0  0  0  0  0  0
   59.8240   32.8360   53.2490 H   0  0  0  0  0  0  0  0  0  0  0  0
   59.4074   30.8408   54.9322 H   0  0  0  0  0  0  0  0  0  0  0  0
   58.3007   32.2688   54.7664 H   0  0  0  0  0  0  0  0  0  0  0  0
   58.7446   28.6527   54.1102 H   0  0  0  0  0  0  0  0  0  0  0  0
   56.8707   27.1633   53.4162 H   0  0  0  0  0  0  0  0  0  0  0  0
   54.6625   28.1308   52.7922 H   0  0  0  0  0  0  0  0  0  0  0  0
   53.0847   30.5121   54.6937 H   0  0  0  0  0  0  0  0  0  0  0  0
   50.8942   31.5086   54.0420 H   0  0  0  0  0  0  0  0  0  0  0  0
   52.3585   32.1200   50.0172 H   0  0  0  0  0  0  0  0  0  0  0  0
   54.5600   31.1444   50.6662 H   0  0  0  0  0  0  0  0  0  0  0  0
   56.2061   32.1125   53.5211 H   0  0  0  0  0  0  0  0  0  0  0  0
   57.7958   32.2341   49.3186 H   0  0  0  0  0  0  0  0  0  0  0  0
   57.8562   31.3031   47.1437 H   0  0  0  0  0  0  0  0  0  0  0  0
  1  2  1  0
  2  3  1  0
  3  4  2  0
  4  5  1  0
  5  6  2  0
  6  7  1  0
  7  8  1  0
  8  9  2  0
  9 10  1  0
 10 11  2  0
 11 12  1  0
 12 13  1  0
 13 14  1  0
 14 15  1  0
 15 16  1  0
 16 17  2  0
 17 18  1  0
 18 19  2  0
 19 20  1  0
 20 21  1  0
 21 22  2  0
 22 23  1  0
 23 24  2  0
 24 25  1  0
 24 26  1  0
 26 27  2  0
 20 28  2  0
 12 29  2  0
  7 30  2  0
 30  3  1  0
 29  8  1  0
 28 16  1  0
 27 21  1  0
  1 31  1  0
  1 32  1  0
  1 33  1  0
  4 34  1  0
  5 35  1  0
  6 36  1  0
  9 37  1  0
 10 38  1  0
 11 39  1  0
 13 40  1  0
 13 41  1  0
 14 42  1  0
 14 43  1  0
 15 44  1  0
 15 45  1  0
 17 46  1  0
 18 47  1  0
 19 48  1  0
 22 49  1  0
 23 50  1  0
 26 51  1  0
 27 52  1  0
 28 53  1  0
 29 54  1  0
 30 55  1  0
M  CHG  2  14   1  25  -1
M  END
>  <UniqueID>  (70) 
66

>  <SMILES>  (70) 
COc1cccc(-c2cccc(C[NH2+]Cc3cccc(-c4ccc([O-])cc4)c3)c2)c1

>  <Energy>  (70) 
68.36829004695656

>  <Genealogy>  (70) 
COc1cccc(-c2cccc(C[NH2+]Cc3cccc(-c4ccc([O-])cc4)c3)c2)c1 (protonated)
COc1cccc(-c2cccc(C[NH2+]Cc3cccc(-c4ccc([O-])cc4)c3)c2)c1 (3D coordinates assigned)
COc1cccc(-c2cccc(C[NH2+]Cc3cccc(-c4ccc([O-])cc4)c3)c2)c1 (optimized conformer: 68.36829004695656 kcal/mol)

>  <smiles>  (70) 
COc1cccc(-c2cccc(CNCc3cccc(-c4ccc(O)cc4)c3)c2)c1

>  <score_type>  (70) 
oracle

>  <origin>  (70) 
adg

>  <m_score__min__energy>  (70) 
-11.92

>  <m_primary>  (70) 
energy

$$$$
72:0
     RDKit          3D

 53 56  0  0  0  0  0  0  0  0999 V2000
   58.8900   26.9600   44.7100 O   0  0  0  0  0  0  0  0  0  0  0  0
   57.9070   26.6690   45.4480 C   0  0  0  0  0  0  0  0  0  0  0  0
   57.1410   27.7220   46.0560 N   0  0  0  0  0  0  0  0  0  0  0  0
   57.2150   29.0930   45.6300 C   0  0  0  0  0  0  0  0  0  0  0  0
   58.3080   29.8710   46.0330 C   0  0  0  0  0  0  0  0  0  0  0  0
   58.4080   31.2220   45.6580 C   0  0  0  0  0  0  0  0  0  0  0  0
   59.5350   32.0140   46.0790 N   0  0  0  0  0  0  0  0  0  0  0  0
   60.7010   31.3630   46.6870 C   0  0  0  0  0  0  0  0  0  0  0  0
   61.7590   32.3930   47.1220 C   0  0  0  0  0  0  0  0  0  0  0  0
   61.1580   33.5840   47.7610 N   0  0  0  0  0  0  0  0  0  0  0  0
   61.0350   33.5360   49.2370 C   0  0  0  0  0  0  0  0  0  0  0  0
   60.1700   32.3970   49.7460 C   0  0  0  0  0  0  0  0  0  0  0  0
   58.8210   32.6190   50.0780 C   0  0  0  0  0  0  0  0  0  0  0  0
   58.0170   31.5640   50.5190 C   0  0  0  0  0  0  0  0  0  0  0  0
   58.5510   30.2820   50.6490 C   0  0  0  0  0  0  0  0  0  0  0  0
   59.8960   30.0540   50.3540 C   0  0  0  0  0  0  0  0  0  0  0  0
   60.7090   31.1040   49.9120 C   0  0  0  0  0  0  0  0  0  0  0  0
   62.0150   30.8530   49.6430 F   0  0  0  0  0  0  0  0  0  0  0  0
   60.0150   34.2110   47.0530 C   0  0  0  0  0  0  0  0  0  0  0  0
   59.5830   33.4510   45.7960 C   0  0  0  0  0  0  0  0  0  0  0  0
   57.3890   31.7920   44.8800 C   0  0  0  0  0  0  0  0  0  0  0  0
   56.2850   31.0290   44.4930 C   0  0  0  0  0  0  0  0  0  0  0  0
   56.1860   29.6870   44.8750 C   0  0  0  0  0  0  0  0  0  0  0  0
   55.0500   28.9650   44.5240 O   0  0  0  0  0  0  0  0  0  0  0  0
   57.5890   25.2460   45.7130 C   0  0  0  0  0  0  0  0  0  0  0  0
   57.6820   24.2790   44.6930 C   0  0  0  0  0  0  0  0  0  0  0  0
   57.3790   22.9400   44.9570 C   0  0  0  0  0  0  0  0  0  0  0  0
   56.9860   22.5480   46.2380 C   0  0  0  0  0  0  0  0  0  0  0  0
   56.6920   21.2480   46.4900 F   0  0  0  0  0  0  0  0  0  0  0  0
   56.9000   23.4950   47.2610 C   0  0  0  0  0  0  0  0  0  0  0  0
   57.2030   24.8360   47.0040 C   0  0  0  0  0  0  0  0  0  0  0  0
   56.6630   27.5220   46.9630 H   0  0  0  0  0  0  0  0  0  0  0  0
   59.0980   29.4190   46.6507 H   0  0  0  0  0  0  0  0  0  0  0  0
   60.3729   30.7933   47.5689 H   0  0  0  0  0  0  0  0  0  0  0  0
   61.1546   30.6976   45.9377 H   0  0  0  0  0  0  0  0  0  0  0  0
   62.4433   31.9152   47.8386 H   0  0  0  0  0  0  0  0  0  0  0  0
   62.2904   32.7292   46.2195 H   0  0  0  0  0  0  0  0  0  0  0  0
   62.0421   33.4238   49.6649 H   0  0  0  0  0  0  0  0  0  0  0  0
   60.5459   34.4712   49.5470 H   0  0  0  0  0  0  0  0  0  0  0  0
   58.3960   33.6298   49.9899 H   0  0  0  0  0  0  0  0  0  0  0  0
   56.9601   31.7453   50.7642 H   0  0  0  0  0  0  0  0  0  0  0  0
   57.9125   29.4512   50.9838 H   0  0  0  0  0  0  0  0  0  0  0  0
   60.3187   29.0450   50.4694 H   0  0  0  0  0  0  0  0  0  0  0  0
   59.1600   34.2558   47.7437 H   0  0  0  0  0  0  0  0  0  0  0  0
   60.3436   35.2098   46.7299 H   0  0  0  0  0  0  0  0  0  0  0  0
   58.5858   33.7958   45.4850 H   0  0  0  0  0  0  0  0  0  0  0  0
   60.3073   33.6393   44.9898 H   0  0  0  0  0  0  0  0  0  0  0  0
   57.4600   32.8459   44.5731 H   0  0  0  0  0  0  0  0  0  0  0  0
   55.4899   31.4854   43.8851 H   0  0  0  0  0  0  0  0  0  0  0  0
   57.9951   24.5794   43.6822 H   0  0  0  0  0  0  0  0  0  0  0  0
   57.4505   22.1929   44.1528 H   0  0  0  0  0  0  0  0  0  0  0  0
   56.5933   23.1855   48.2710 H   0  0  0  0  0  0  0  0  0  0  0  0
   57.1394   25.5756   47.8158 H   0  0  0  0  0  0  0  0  0  0  0  0
  1  2  2  0
  2  3  1  0
  3  4  1  0
  4  5  2  0
  5  6  1  0
  6  7  1  0
  7  8  1  0
  8  9  1  0
  9 10  1  0
 10 11  1  0
 11 12  1  0
 12 13  2  0
 13 14  1  0
 14 15  2  0
 15 16  1  0
 16 17  2  0
 17 18  1  0
 10 19  1  0
 19 20  1  0
  6 21  2  0
 21 22  1  0
 22 23  2  0
 23 24  1  0
  2 25  1  0
 25 26  2  0
 26 27  1  0
 27 28  2  0
 28 29  1  0
 28 30  1  0
 30 31  2  0
 23  4  1  0
 31 25  1  0
 20  7  1  0
 17 12  1  0
  3 32  1  0
  5 33  1  0
  8 34  1  0
  8 35  1  0
  9 36  1  0
  9 37  1  0
 11 38  1  0
 11 39  1  0
 13 40  1  0
 14 41  1  0
 15 42  1  0
 16 43  1  0
 19 44  1  0
 19 45  1  0
 20 46  1  0
 20 47  1  0
 21 48  1  0
 22 49  1  0
 26 50  1  0
 27 51  1  0
 30 52  1  0
 31 53  1  0
M  CHG  1  24  -1
M  END
>  <UniqueID>  (71) 
67

>  <SMILES>  (71) 
O=C(Nc1cc(N2CCN(Cc3ccccc3F)CC2)ccc1[O-])c1ccc(F)cc1

>  <Energy>  (71) 
78.54987817925881

>  <Genealogy>  (71) 
O=C(Nc1cc(N2CCN(Cc3ccccc3F)CC2)ccc1[O-])c1ccc(F)cc1 (protonated)
O=C(Nc1cc(N2CCN(Cc3ccccc3F)CC2)ccc1[O-])c1ccc(F)cc1 (3D coordinates assigned)
O=C(Nc1cc(N2CCN(Cc3ccccc3F)CC2)ccc1[O-])c1ccc(F)cc1 (nonaromatic ring conformer: 78.54987817925881 kcal/mol)

>  <smiles>  (71) 
O=C(Nc1cc(N2CCN(Cc3ccccc3F)CC2)ccc1O)c1ccc(F)cc1

>  <score_type>  (71) 
oracle

>  <origin>  (71) 
adg

>  <m_score__min__energy>  (71) 
-10.369999999999999

>  <m_primary>  (71) 
energy

$$$$
73:0
     RDKit          3D

 35 36  0  0  0  0  0  0  0  0999 V2000
   55.1780   29.3500   44.8920 N   0  0  0  0  0  0  0  0  0  0  0  0
   56.5080   30.3350   44.3920 S   0  0  0  0  0  0  0  0  0  0  0  0
   56.2890   31.7490   44.8500 O   0  0  0  0  0  0  0  0  0  0  0  0
   56.5990   30.3220   42.8920 O   0  0  0  0  0  0  0  0  0  0  0  0
   57.9970   29.7110   45.0930 C   0  0  0  0  0  0  0  0  0  0  0  0
   59.0300   30.5830   45.4550 C   0  0  0  0  0  0  0  0  0  0  0  0
   60.2080   30.0800   46.0100 C   0  0  0  0  0  0  0  0  0  0  0  0
   60.3620   28.7050   46.2080 C   0  0  0  0  0  0  0  0  0  0  0  0
   59.3340   27.8120   45.8480 C   0  0  0  0  0  0  0  0  0  0  0  0
   59.5020   26.3550   46.0960 C   0  0  0  0  0  0  0  0  0  0  0  0
   60.5040   25.9480   46.7450 O   0  0  0  0  0  0  0  0  0  0  0  0
   58.5090   25.3290   45.6060 C   0  0  0  0  0  0  0  0  0  0  0  0
   57.3800   25.1110   46.5820 C   0  0  0  0  0  0  0  0  0  0  0  0
   57.5470   25.4540   47.7830 O   0  0  0  0  0  0  0  0  0  0  0  0
   56.0980   24.4780   46.1890 C   0  0  0  0  0  0  0  0  0  0  0  0
   56.0360   23.0770   46.0910 C   0  0  0  0  0  0  0  0  0  0  0  0
   54.8540   22.4340   45.6800 C   0  0  0  0  0  0  0  0  0  0  0  0
   54.8000   21.0000   45.5630 N   0  0  0  0  0  0  0  0  0  0  0  0
   55.7440   20.3670   45.0430 O   0  0  0  0  0  0  0  0  0  0  0  0
   53.7070   20.3010   46.0190 O   0  0  0  0  0  0  0  0  0  0  0  0
   53.7250   23.2120   45.3780 C   0  0  0  0  0  0  0  0  0  0  0  0
   53.7750   24.6030   45.4870 C   0  0  0  0  0  0  0  0  0  0  0  0
   54.9500   25.2400   45.8960 C   0  0  0  0  0  0  0  0  0  0  0  0
   54.9550   26.6230   46.0240 O   0  0  0  0  0  0  0  0  0  0  0  0
   58.1570   28.3300   45.2760 C   0  0  0  0  0  0  0  0  0  0  0  0
   55.5230   28.3650   44.9220 H   0  0  0  0  0  0  0  0  0  0  0  0
   58.9136   31.6661   45.3020 H   0  0  0  0  0  0  0  0  0  0  0  0
   61.0181   30.7684   46.2926 H   0  0  0  0  0  0  0  0  0  0  0  0
   61.2927   28.3175   46.6481 H   0  0  0  0  0  0  0  0  0  0  0  0
   58.0880   25.6731   44.6498 H   0  0  0  0  0  0  0  0  0  0  0  0
   59.0423   24.3739   45.4907 H   0  0  0  0  0  0  0  0  0  0  0  0
   56.9231   22.4757   46.3389 H   0  0  0  0  0  0  0  0  0  0  0  0
   52.7950   22.7224   45.0534 H   0  0  0  0  0  0  0  0  0  0  0  0
   52.8834   25.2018   45.2493 H   0  0  0  0  0  0  0  0  0  0  0  0
   57.3538   27.6440   44.9691 H   0  0  0  0  0  0  0  0  0  0  0  0
  1  2  1  0
  2  3  2  0
  2  4  2  0
  2  5  1  0
  5  6  2  0
  6  7  1  0
  7  8  2  0
  8  9  1  0
  9 10  1  0
 10 11  2  0
 10 12  1  0
 12 13  1  0
 13 14  2  0
 13 15  1  0
 15 16  2  0
 16 17  1  0
 17 18  1  0
 18 19  2  0
 18 20  1  0
 17 21  2  0
 21 22  1  0
 22 23  2  0
 23 24  1  0
  9 25  2  0
 25  5  1  0
 23 15  1  0
  1 26  1  0
  6 27  1  0
  7 28  1  0
  8 29  1  0
 12 30  1  0
 12 31  1  0
 16 32  1  0
 21 33  1  0
 22 34  1  0
 25 35  1  0
M  CHG  4   1  -1  18   1  20  -1  24  -1
M  END
>  <UniqueID>  (72) 
68

>  <SMILES>  (72) 
[NH-]S(=O)(=O)c1cccc(C(=O)CC(=O)c2cc([N+](=O)[O-])ccc2[O-])c1

>  <Energy>  (72) 
41.608961817023875

>  <Genealogy>  (72) 
[NH-]S(=O)(=O)c1cccc(C(=O)CC(=O)c2cc([N+](=O)[O-])ccc2[O-])c1 (protonated)
[NH-]S(=O)(=O)c1cccc(C(=O)CC(=O)c2cc([N+](=O)[O-])ccc2[O-])c1 (3D coordinates assigned)
[NH-]S(=O)(=O)c1cccc(C(=O)CC(=O)c2cc([N+](=O)[O-])ccc2[O-])c1 (optimized conformer: 41.608961817023875 kcal/mol)

>  <smiles>  (72) 
NS(=O)(=O)c1cccc(C(=O)CC(=O)c2cc([N+](=O)[O-])ccc2O)c1

>  <score_type>  (72) 
oracle

>  <origin>  (72) 
adg

>  <m_score__min__energy>  (72) 
-14.42

>  <m_primary>  (72) 
energy

$$$$
74:0
     RDKit          3D

 67 71  0  0  0  0  0  0  0  0999 V2000
   59.5540   30.3330   48.2060 O   0  0  0  0  0  0  0  0  0  0  0  0
   58.8120   29.8000   47.3360 C   0  0  0  0  0  0  0  0  0  0  0  0
   57.8250   30.6260   46.7030 N   0  0  0  0  0  0  0  0  0  0  0  0
   57.7380   30.9800   45.3150 C   0  0  0  0  0  0  0  0  0  0  0  0
   57.5000   29.9990   44.3350 C   0  0  0  0  0  0  0  0  0  0  0  0
   57.3470   30.3590   42.9950 C   0  0  0  0  0  0  0  0  0  0  0  0
   57.4070   31.7020   42.6220 C   0  0  0  0  0  0  0  0  0  0  0  0
   57.6190   32.6900   43.5870 C   0  0  0  0  0  0  0  0  0  0  0  0
   57.7930   32.3420   44.9360 C   0  0  0  0  0  0  0  0  0  0  0  0
   57.9900   33.4180   45.9390 C   0  0  0  0  0  0  0  0  0  0  0  0
   57.0680   34.2560   46.1290 O   0  0  0  0  0  0  0  0  0  0  0  0
   59.2120   33.5370   46.6870 N   0  0  0  0  0  0  0  0  0  0  0  0
   59.1530   33.5550   48.1520 C   0  0  0  0  0  0  0  0  0  0  0  0
   60.3350   34.3400   48.7460 C   0  0  0  0  0  0  0  0  0  0  0  0
   61.6390   33.9580   48.1570 N   0  0  0  0  0  0  0  0  0  0  0  0
   62.0590   32.5870   48.5430 C   0  0  0  0  0  0  0  0  0  0  0  0
   62.8790   32.5440   49.8360 C   0  0  0  0  0  0  0  0  0  0  0  0
   64.0700   31.9850   49.0740 C   0  0  0  0  0  0  0  0  0  0  0  0
   63.2870   32.0870   47.7740 C   0  0  0  0  0  0  0  0  0  0  0  0
   61.6000   34.1520   46.6890 C   0  0  0  0  0  0  0  0  0  0  0  0
   60.4990   33.3220   46.0190 C   0  0  0  0  0  0  0  0  0  0  0  0
   59.0640   28.3860   46.9360 C   0  0  0  0  0  0  0  0  0  0  0  0
   60.3500   27.8110   46.9940 C   0  0  0  0  0  0  0  0  0  0  0  0
   60.5400   26.4620   46.6920 C   0  0  0  0  0  0  0  0  0  0  0  0
   59.4530   25.6580   46.3500 C   0  0  0  0  0  0  0  0  0  0  0  0
   58.1650   26.2040   46.2970 C   0  0  0  0  0  0  0  0  0  0  0  0
   56.7750   25.1650   45.9640 S   0  0  0  0  0  0  0  0  0  0  0  0
   56.6860   24.1000   47.0250 O   0  0  0  0  0  0  0  0  0  0  0  0
   55.5160   25.9860   46.0200 O   0  0  0  0  0  0  0  0  0  0  0  0
   56.8970   24.4200   44.3850 N   0  0  0  0  0  0  0  0  0  0  0  0
   57.8330   23.2730   44.3940 C   0  0  0  0  0  0  0  0  0  0  0  0
   57.0900   21.9230   44.3970 C   0  0  0  0  0  0  0  0  0  0  0  0
   56.2250   21.7510   43.2810 O   0  0  0  0  0  0  0  0  0  0  0  0
   55.6560   22.9650   42.8050 C   0  0  0  0  0  0  0  0  0  0  0  0
   55.5590   24.0680   43.8710 C   0  0  0  0  0  0  0  0  0  0  0  0
   57.9800   27.5680   46.5650 C   0  0  0  0  0  0  0  0  0  0  0  0
   57.4340   28.9405   44.6269 H   0  0  0  0  0  0  0  0  0  0  0  0
   57.1791   29.5836   42.2330 H   0  0  0  0  0  0  0  0  0  0  0  0
   57.2871   31.9838   41.5655 H   0  0  0  0  0  0  0  0  0  0  0  0
   57.6498   33.7480   43.2876 H   0  0  0  0  0  0  0  0  0  0  0  0
   58.2121   34.0296   48.4675 H   0  0  0  0  0  0  0  0  0  0  0  0
   59.2051   32.5182   48.5158 H   0  0  0  0  0  0  0  0  0  0  0  0
   60.1696   35.4124   48.5652 H   0  0  0  0  0  0  0  0  0  0  0  0
   60.3783   34.1060   49.8199 H   0  0  0  0  0  0  0  0  0  0  0  0
   61.0934   32.0656   48.4674 H   0  0  0  0  0  0  0  0  0  0  0  0
   63.0587   33.5319   50.2851 H   0  0  0  0  0  0  0  0  0  0  0  0
   62.4909   32.0170   50.7201 H   0  0  0  0  0  0  0  0  0  0  0  0
   64.9655   32.6228   49.1100 H   0  0  0  0  0  0  0  0  0  0  0  0
   64.5255   31.0303   49.3759 H   0  0  0  0  0  0  0  0  0  0  0  0
   63.6966   32.8173   47.0606 H   0  0  0  0  0  0  0  0  0  0  0  0
   63.2059   31.2165   47.1064 H   0  0  0  0  0  0  0  0  0  0  0  0
   61.4181   35.2161   46.4780 H   0  0  0  0  0  0  0  0  0  0  0  0
   62.5659   33.8196   46.2809 H   0  0  0  0  0  0  0  0  0  0  0  0
   60.4129   33.6204   44.9638 H   0  0  0  0  0  0  0  0  0  0  0  0
   60.7633   32.2568   46.0929 H   0  0  0  0  0  0  0  0  0  0  0  0
   61.2118   28.4318   47.2801 H   0  0  0  0  0  0  0  0  0  0  0  0
   61.5515   26.0309   46.7238 H   0  0  0  0  0  0  0  0  0  0  0  0
   59.6079   24.5932   46.1215 H   0  0  0  0  0  0  0  0  0  0  0  0
   58.4692   23.3265   43.4982 H   0  0  0  0  0  0  0  0  0  0  0  0
   58.4348   23.3322   45.3129 H   0  0  0  0  0  0  0  0  0  0  0  0
   57.8359   21.1146   44.3877 H   0  0  0  0  0  0  0  0  0  0  0  0
   56.4626   21.9000   45.3003 H   0  0  0  0  0  0  0  0  0  0  0  0
   56.2772   23.3373   41.9771 H   0  0  0  0  0  0  0  0  0  0  0  0
   54.6275   22.7337   42.4908 H   0  0  0  0  0  0  0  0  0  0  0  0
   55.0978   24.9613   43.4245 H   0  0  0  0  0  0  0  0  0  0  0  0
   54.9468   23.6977   44.7065 H   0  0  0  0  0  0  0  0  0  0  0  0
   56.9737   28.0049   46.4842 H   0  0  0  0  0  0  0  0  0  0  0  0
  1  2  2  0
  2  3  1  0
  3  4  1  0
  4  5  2  0
  5  6  1  0
  6  7  2  0
  7  8  1  0
  8  9  2  0
  9 10  1  0
 10 11  2  0
 10 12  1  0
 12 13  1  0
 13 14  1  0
 14 15  1  0
 15 16  1  0
 16 17  1  0
 17 18  1  0
 18 19  1  0
 15 20  1  0
 20 21  1  0
  2 22  1  0
 22 23  2  0
 23 24  1  0
 24 25  2  0
 25 26  1  0
 26 27  1  0
 27 28  2  0
 27 29  2  0
 27 30  1  0
 30 31  1  0
 31 32  1  0
 32 33  1  0
 33 34  1  0
 34 35  1  0
 26 36  2  0
  9  4  1  0
 21 12  1  0
 36 22  1  0
 19 16  1  0
 35 30  1  0
  5 37  1  0
  6 38  1  0
  7 39  1  0
  8 40  1  0
 13 41  1  0
 13 42  1  0
 14 43  1  0
 14 44  1  0
 16 45  1  0
 17 46  1  0
 17 47  1  0
 18 48  1  0
 18 49  1  0
 19 50  1  0
 19 51  1  0
 20 52  1  0
 20 53  1  0
 21 54  1  0
 21 55  1  0
 23 56  1  0
 24 57  1  0
 25 58  1  0
 31 59  1  0
 31 60  1  0
 32 61  1  0
 32 62  1  0
 34 63  1  0
 34 64  1  0
 35 65  1  0
 35 66  1  0
 36 67  1  0
M  CHG  1   3  -1
M  END
>  <UniqueID>  (73) 
69

>  <SMILES>  (73) 
O=C([N-]c1ccccc1C(=O)N1CCN(C2CCC2)CC1)c1cccc(S(=O)(=O)N2CCOCC2)c1

>  <Energy>  (73) 
157.8937242460896

>  <Genealogy>  (73) 
O=C([N-]c1ccccc1C(=O)N1CCN(C2CCC2)CC1)c1cccc(S(=O)(=O)N2CCOCC2)c1 (protonated)
O=C([N-]c1ccccc1C(=O)N1CCN(C2CCC2)CC1)c1cccc(S(=O)(=O)N2CCOCC2)c1 (3D coordinates assigned)
O=C([N-]c1ccccc1C(=O)N1CCN(C2CCC2)CC1)c1cccc(S(=O)(=O)N2CCOCC2)c1 (nonaromatic ring conformer: 157.8937242460896 kcal/mol)

>  <smiles>  (73) 
O=C(Nc1ccccc1C(=O)N1CCN(C2CCC2)CC1)c1cccc(S(=O)(=O)N2CCOCC2)c1

>  <score_type>  (73) 
oracle

>  <origin>  (73) 
adg

>  <m_score__min__energy>  (73) 
-12.050000000000001

>  <m_primary>  (73) 
energy

$$$$
75:0
     RDKit          3D

 74 79  0  0  0  0  0  0  0  0999 V2000
   63.8790   32.5500   53.7130 C   0  0  0  0  0  0  0  0  0  0  0  0
   62.4170   32.2290   53.7910 C   0  0  0  0  0  0  0  0  0  0  0  0
   61.9140   31.1480   54.4920 C   0  0  0  0  0  0  0  0  0  0  0  0
   60.5630   31.1150   54.2150 C   0  0  0  0  0  0  0  0  0  0  0  0
   59.6670   30.0260   54.4640 N   0  0  0  0  0  0  0  0  0  0  0  0
   59.6930   28.7610   53.7960 C   0  0  0  0  0  0  0  0  0  0  0  0
   59.6100   27.6950   54.4630 O   0  0  0  0  0  0  0  0  0  0  0  0
   59.8350   28.7180   52.3230 C   0  0  0  0  0  0  0  0  0  0  0  0
   60.7810   27.8550   51.7140 C   0  0  0  0  0  0  0  0  0  0  0  0
   60.9800   27.8700   50.3220 C   0  0  0  0  0  0  0  0  0  0  0  0
   60.2460   28.7670   49.5490 C   0  0  0  0  0  0  0  0  0  0  0  0
   60.3860   28.9150   48.2070 N   0  0  0  0  0  0  0  0  0  0  0  0
   59.5520   29.8720   47.7320 C   0  0  0  0  0  0  0  0  0  0  0  0
   59.5510   30.2180   46.4760 N   0  0  0  0  0  0  0  0  0  0  0  0
   58.5450   29.9360   45.4910 C   0  0  0  0  0  0  0  0  0  0  0  0
   58.7070   28.8310   44.6520 C   0  0  0  0  0  0  0  0  0  0  0  0
   57.7150   28.5250   43.7170 C   0  0  0  0  0  0  0  0  0  0  0  0
   56.5800   29.3290   43.6190 C   0  0  0  0  0  0  0  0  0  0  0  0
   56.4510   30.4310   44.4670 C   0  0  0  0  0  0  0  0  0  0  0  0
   57.4220   30.7020   45.3810 N   0  0  0  0  0  0  0  0  0  0  0  0
   58.6070   30.5680   48.9640 S   0  0  0  0  0  0  0  0  0  0  0  0
   59.3110   29.5990   50.1410 C   0  0  0  0  0  0  0  0  0  0  0  0
   59.0800   29.5970   51.5120 C   0  0  0  0  0  0  0  0  0  0  0  0
   60.2860   32.1680   53.3670 C   0  0  0  0  0  0  0  0  0  0  0  0
   58.9440   32.3960   52.7360 C   0  0  0  0  0  0  0  0  0  0  0  0
   61.4300   32.8390   53.0770 N   0  0  0  0  0  0  0  0  0  0  0  0
   61.6080   33.8380   52.0080 C   0  0  0  0  0  0  0  0  0  0  0  0
   61.9810   33.1530   50.7160 C   0  0  0  0  0  0  0  0  0  0  0  0
   62.6370   31.9150   50.7340 C   0  0  0  0  0  0  0  0  0  0  0  0
   62.8370   31.2110   49.5450 C   0  0  0  0  0  0  0  0  0  0  0  0
   62.3820   31.7310   48.3310 C   0  0  0  0  0  0  0  0  0  0  0  0
   61.7630   32.9920   48.2860 C   0  0  0  0  0  0  0  0  0  0  0  0
   61.2500   33.5560   47.0100 C   0  0  0  0  0  0  0  0  0  0  0  0
   61.9840   33.5510   45.9850 O   0  0  0  0  0  0  0  0  0  0  0  0
   59.9190   34.0880   46.9060 N   0  0  0  0  0  0  0  0  0  0  0  0
   59.7310   35.4320   46.3500 C   0  0  0  0  0  0  0  0  0  0  0  0
   59.0830   35.3470   44.9590 C   0  0  0  0  0  0  0  0  0  0  0  0
   57.9890   34.2440   44.8510 C   0  0  0  0  0  0  0  0  0  0  0  0
   58.4420   33.1010   43.9270 C   0  0  0  0  0  0  0  0  0  0  0  0
   57.5620   33.7020   46.2340 C   0  0  0  0  0  0  0  0  0  0  0  0
   58.7650   33.1890   47.0420 C   0  0  0  0  0  0  0  0  0  0  0  0
   61.5840   33.7010   49.4860 C   0  0  0  0  0  0  0  0  0  0  0  0
   64.2894   32.6401   54.7296 H   0  0  0  0  0  0  0  0  0  0  0  0
   64.4029   31.7455   53.1761 H   0  0  0  0  0  0  0  0  0  0  0  0
   64.0177   33.5000   53.1761 H   0  0  0  0  0  0  0  0  0  0  0  0
   62.4757   30.4568   55.1376 H   0  0  0  0  0  0  0  0  0  0  0  0
   61.3669   27.1647   52.3386 H   0  0  0  0  0  0  0  0  0  0  0  0
   61.7020   27.1860   49.8521 H   0  0  0  0  0  0  0  0  0  0  0  0
   59.6092   28.2062   44.7269 H   0  0  0  0  0  0  0  0  0  0  0  0
   57.8292   27.6509   43.0590 H   0  0  0  0  0  0  0  0  0  0  0  0
   55.7959   29.0981   42.8828 H   0  0  0  0  0  0  0  0  0  0  0  0
   55.5652   31.0794   44.3962 H   0  0  0  0  0  0  0  0  0  0  0  0
   58.3267   30.2643   51.9561 H   0  0  0  0  0  0  0  0  0  0  0  0
   58.1860   32.5248   53.5227 H   0  0  0  0  0  0  0  0  0  0  0  0
   58.9815   33.3006   52.1113 H   0  0  0  0  0  0  0  0  0  0  0  0
   58.6806   31.5297   52.1113 H   0  0  0  0  0  0  0  0  0  0  0  0
   60.6684   34.3925   51.8679 H   0  0  0  0  0  0  0  0  0  0  0  0
   62.4125   34.5317   52.2934 H   0  0  0  0  0  0  0  0  0  0  0  0
   62.9950   31.4971   51.6865 H   0  0  0  0  0  0  0  0  0  0  0  0
   63.3559   30.2413   49.5643 H   0  0  0  0  0  0  0  0  0  0  0  0
   62.5088   31.1505   47.4053 H   0  0  0  0  0  0  0  0  0  0  0  0
   59.0798   36.0138   47.0189 H   0  0  0  0  0  0  0  0  0  0  0  0
   60.7114   35.9224   46.2590 H   0  0  0  0  0  0  0  0  0  0  0  0
   58.6217   36.3189   44.7296 H   0  0  0  0  0  0  0  0  0  0  0  0
   59.8788   35.0850   44.2462 H   0  0  0  0  0  0  0  0  0  0  0  0
   57.1027   34.7181   44.4042 H   0  0  0  0  0  0  0  0  0  0  0  0
   58.7796   32.2493   44.5358 H   0  0  0  0  0  0  0  0  0  0  0  0
   57.6003   32.7872   43.2922 H   0  0  0  0  0  0  0  0  0  0  0  0
   59.2702   33.4490   43.2922 H   0  0  0  0  0  0  0  0  0  0  0  0
   57.0729   34.5101   46.7977 H   0  0  0  0  0  0  0  0  0  0  0  0
   56.8734   32.8594   46.0734 H   0  0  0  0  0  0  0  0  0  0  0  0
   58.4833   33.1250   48.1034 H   0  0  0  0  0  0  0  0  0  0  0  0
   59.0475   32.1988   46.6551 H   0  0  0  0  0  0  0  0  0  0  0  0
   61.1258   34.7007   49.4612 H   0  0  0  0  0  0  0  0  0  0  0  0
  1  2  1  0
  2  3  2  0
  3  4  1  0
  4  5  1  0
  5  6  1  0
  6  7  2  0
  6  8  1  0
  8  9  2  0
  9 10  1  0
 10 11  2  0
 11 12  1  0
 12 13  1  0
 13 14  2  3
 14 15  1  0
 15 16  2  0
 16 17  1  0
 17 18  2  0
 18 19  1  0
 19 20  2  0
 13 21  1  0
 21 22  1  0
 22 23  2  0
  4 24  2  0
 24 25  1  0
 24 26  1  0
 26 27  1  0
 27 28  1  0
 28 29  2  0
 29 30  1  0
 30 31  2  0
 31 32  1  0
 32 33  1  0
 33 34  2  0
 33 35  1  0
 35 36  1  0
 36 37  1  0
 37 38  1  0
 38 39  1  0
 38 40  1  0
 40 41  1  0
 32 42  2  0
 26  2  1  0
 42 28  1  0
 23  8  1  0
 41 35  1  0
 22 11  1  0
 20 15  1  0
  1 43  1  0
  1 44  1  0
  1 45  1  0
  3 46  1  0
  9 47  1  0
 10 48  1  0
 16 49  1  0
 17 50  1  0
 18 51  1  0
 19 52  1  0
 23 53  1  0
 25 54  1  0
 25 55  1  0
 25 56  1  0
 27 57  1  0
 27 58  1  0
 29 59  1  0
 30 60  1  0
 31 61  1  0
 36 62  1  0
 36 63  1  0
 37 64  1  0
 37 65  1  0
 38 66  1  0
 39 67  1  0
 39 68  1  0
 39 69  1  0
 40 70  1  0
 40 71  1  0
 41 72  1  0
 41 73  1  0
 42 74  1  0
M  CHG  2   5  -1  12  -1
M  END
>  <UniqueID>  (74) 
70

>  <SMILES>  (74) 
Cc1cc([N-]C(=O)c2ccc3[n-]c(=Nc4ccccn4)sc3c2)c(C)n1Cc1cccc(C(=O)N2CCC(C)CC2)c1

>  <Energy>  (74) 
159.54441564927518

>  <Genealogy>  (74) 
Cc1cc([N-]C(=O)c2ccc3[n-]c(=Nc4ccccn4)sc3c2)c(C)n1Cc1cccc(C(=O)N2CCC(C)CC2)c1 (protonated)
Cc1cc([N-]C(=O)c2ccc3[n-]c(=Nc4ccccn4)sc3c2)c(C)n1Cc1cccc(C(=O)N2CCC(C)CC2)c1 (3D coordinates assigned)
Cc1cc([N-]C(=O)c2ccc3[n-]c(=Nc4ccccn4)sc3c2)c(C)n1Cc1cccc(C(=O)N2CCC(C)CC2)c1 (nonaromatic ring conformer: 159.54441564927518 kcal/mol)

>  <smiles>  (74) 
Cc1cc(NC(=O)c2ccc3[nH]c(=Nc4ccccn4)sc3c2)c(C)n1Cc1cccc(C(=O)N2CCC(C)CC2)c1

>  <score_type>  (74) 
oracle

>  <origin>  (74) 
adg

>  <m_score__min__energy>  (74) 
-14.16

>  <m_primary>  (74) 
energy

$$$$
76:0
     RDKit          3D

 56 59  0  0  0  0  0  0  0  0999 V2000
   55.4120   29.3450   44.8340 O   0  0  0  0  0  0  0  0  0  0  0  0
   56.3840   29.3370   44.0310 C   0  0  0  0  0  0  0  0  0  0  0  0
   56.6450   30.5300   43.1720 C   0  0  0  0  0  0  0  0  0  0  0  0
   57.1680   31.6150   43.9960 N   0  0  0  0  0  0  0  0  0  0  0  0
   58.1850   32.4360   43.6670 C   0  0  0  0  0  0  0  0  0  0  0  0
   58.4500   33.2490   44.7490 C   0  0  0  0  0  0  0  0  0  0  0  0
   57.5310   32.8620   45.7140 C   0  0  0  0  0  0  0  0  0  0  0  0
   56.7660   31.8600   45.2350 N   0  0  0  0  0  0  0  0  0  0  0  0
   57.3520   33.4690   47.0700 C   0  0  0  0  0  0  0  0  0  0  0  0
   58.6690   33.5500   47.8640 C   0  0  0  0  0  0  0  0  0  0  0  0
   59.6850   34.6060   47.3730 C   0  0  0  0  0  0  0  0  0  0  0  0
   60.4280   34.2020   46.0840 C   0  0  0  0  0  0  0  0  0  0  0  0
   59.5440   34.2850   44.8260 C   0  0  0  0  0  0  0  0  0  0  0  0
   57.2970   28.2390   44.0110 N   0  0  0  0  0  0  0  0  0  0  0  0
   57.7910   27.4360   45.4610 S   0  0  0  0  0  0  0  0  0  0  0  0
   56.5750   27.0910   46.2770 O   0  0  0  0  0  0  0  0  0  0  0  0
   58.5260   26.1710   45.1130 O   0  0  0  0  0  0  0  0  0  0  0  0
   58.8670   28.5080   46.3510 C   0  0  0  0  0  0  0  0  0  0  0  0
   59.6800   29.4060   45.6490 C   0  0  0  0  0  0  0  0  0  0  0  0
   60.4930   30.3080   46.3380 C   0  0  0  0  0  0  0  0  0  0  0  0
   60.4930   30.3380   47.7430 C   0  0  0  0  0  0  0  0  0  0  0  0
   61.3300   31.3380   48.4530 C   0  0  0  0  0  0  0  0  0  0  0  0
   60.8160   31.9800   49.4150 O   0  0  0  0  0  0  0  0  0  0  0  0
   62.7460   31.4880   48.1560 N   0  0  0  0  0  0  0  0  0  0  0  0
   63.4640   31.9850   49.3370 C   0  0  0  0  0  0  0  0  0  0  0  0
   63.4750   33.5030   49.2570 C   0  0  0  0  0  0  0  0  0  0  0  0
   63.2390   33.8300   47.7910 C   0  0  0  0  0  0  0  0  0  0  0  0
   62.9840   32.4900   47.1040 C   0  0  0  0  0  0  0  0  0  0  0  0
   59.7010   29.4090   48.4440 C   0  0  0  0  0  0  0  0  0  0  0  0
   58.8900   28.5040   47.7510 C   0  0  0  0  0  0  0  0  0  0  0  0
   57.3809   30.2702   42.3968 H   0  0  0  0  0  0  0  0  0  0  0  0
   55.7078   30.8506   42.6936 H   0  0  0  0  0  0  0  0  0  0  0  0
   58.7126   32.4544   42.7020 H   0  0  0  0  0  0  0  0  0  0  0  0
   56.9504   34.4860   46.9500 H   0  0  0  0  0  0  0  0  0  0  0  0
   56.6632   32.8234   47.6345 H   0  0  0  0  0  0  0  0  0  0  0  0
   58.4192   33.7823   48.9098 H   0  0  0  0  0  0  0  0  0  0  0  0
   59.1609   32.5755   47.7281 H   0  0  0  0  0  0  0  0  0  0  0  0
   59.1445   35.5449   47.1821 H   0  0  0  0  0  0  0  0  0  0  0  0
   60.4448   34.7106   48.1615 H   0  0  0  0  0  0  0  0  0  0  0  0
   61.2894   34.8731   45.9515 H   0  0  0  0  0  0  0  0  0  0  0  0
   60.7373   33.1526   46.1989 H   0  0  0  0  0  0  0  0  0  0  0  0
   59.0749   35.2797   44.8030 H   0  0  0  0  0  0  0  0  0  0  0  0
   60.2079   34.0968   43.9694 H   0  0  0  0  0  0  0  0  0  0  0  0
   59.6782   29.4009   44.5490 H   0  0  0  0  0  0  0  0  0  0  0  0
   61.1382   31.0002   45.7771 H   0  0  0  0  0  0  0  0  0  0  0  0
   63.1640   30.5780   47.8590 H   0  0  0  0  0  0  0  0  0  0  0  0
   62.9498   31.6605   50.2537 H   0  0  0  0  0  0  0  0  0  0  0  0
   64.4903   31.5900   49.3622 H   0  0  0  0  0  0  0  0  0  0  0  0
   62.6739   33.9273   49.8801 H   0  0  0  0  0  0  0  0  0  0  0  0
   64.4219   33.9258   49.6239 H   0  0  0  0  0  0  0  0  0  0  0  0
   62.3656   34.4896   47.6810 H   0  0  0  0  0  0  0  0  0  0  0  0
   64.0983   34.3556   47.3490 H   0  0  0  0  0  0  0  0  0  0  0  0
   62.1018   32.5651   46.4512 H   0  0  0  0  0  0  0  0  0  0  0  0
   63.8471   32.2028   46.4854 H   0  0  0  0  0  0  0  0  0  0  0  0
   59.7200   29.3946   49.5437 H   0  0  0  0  0  0  0  0  0  0  0  0
   58.2685   27.7871   48.3076 H   0  0  0  0  0  0  0  0  0  0  0  0
  1  2  2  0
  2  3  1  0
  3  4  1  0
  4  5  1  0
  5  6  2  0
  6  7  1  0
  7  8  2  0
  7  9  1  0
  9 10  1  0
 10 11  1  0
 11 12  1  0
 12 13  1  0
  2 14  1  0
 14 15  1  0
 15 16  2  0
 15 17  2  0
 15 18  1  0
 18 19  2  0
 19 20  1  0
 20 21  2  0
 21 22  1  0
 22 23  2  0
 22 24  1  0
 24 25  1  0
 25 26  1  0
 26 27  1  0
 27 28  1  0
 21 29  1  0
 29 30  2  0
  8  4  1  0
 30 18  1  0
 13  6  1  0
 28 24  1  0
  3 31  1  0
  3 32  1  0
  5 33  1  0
  9 34  1  0
  9 35  1  0
 10 36  1  0
 10 37  1  0
 11 38  1  0
 11 39  1  0
 12 40  1  0
 12 41  1  0
 13 42  1  0
 13 43  1  0
 19 44  1  0
 20 45  1  0
 24 46  1  0
 25 47  1  0
 25 48  1  0
 26 49  1  0
 26 50  1  0
 27 51  1  0
 27 52  1  0
 28 53  1  0
 28 54  1  0
 29 55  1  0
 30 56  1  0
M  CHG  2  14  -1  24   1
M  END
>  <UniqueID>  (75) 
71

>  <SMILES>  (75) 
O=C(Cn1cc2c(n1)CCCCC2)[N-]S(=O)(=O)c1ccc(C(=O)[NH+]2CCCC2)cc1

>  <Energy>  (75) 
95.82881971419461

>  <Genealogy>  (75) 
O=C(Cn1cc2c(n1)CCCCC2)[N-]S(=O)(=O)c1ccc(C(=O)[NH+]2CCCC2)cc1 (protonated)
O=C(Cn1cc2c(n1)CCCCC2)[N-]S(=O)(=O)c1ccc(C(=O)[NH+]2CCCC2)cc1 (3D coordinates assigned)
O=C(Cn1cc2c(n1)CCCCC2)[N-]S(=O)(=O)c1ccc(C(=O)[NH+]2CCCC2)cc1 (nonaromatic ring conformer: 95.82881971419461 kcal/mol)

>  <smiles>  (75) 
O=C(Cn1cc2c(n1)CCCCC2)NS(=O)(=O)c1ccc(C(=O)N2CCCC2)cc1

>  <score_type>  (75) 
oracle

>  <origin>  (75) 
adg

>  <m_score__min__energy>  (75) 
-8.6199999999999992

>  <m_primary>  (75) 
energy

$$$$
77:0
     RDKit          3D

 52 54  0  0  0  0  0  0  0  0999 V2000
   55.2910   29.9020   44.8770 O   0  0  0  0  0  0  0  0  0  0  0  0
   56.1580   28.9870   44.8560 C   0  0  0  0  0  0  0  0  0  0  0  0
   57.3940   29.1580   44.0060 C   0  0  0  0  0  0  0  0  0  0  0  0
   58.4670   30.0480   44.6570 C   0  0  0  0  0  0  0  0  0  0  0  0
   57.9880   30.8200   45.9030 C   0  0  0  0  0  0  0  0  0  0  0  0
   58.7230   32.0890   46.1100 N   0  0  0  0  0  0  0  0  0  0  0  0
   58.0750   33.2970   45.9980 C   0  0  0  0  0  0  0  0  0  0  0  0
   56.8470   33.3510   45.7170 O   0  0  0  0  0  0  0  0  0  0  0  0
   58.7500   34.4580   46.1830 N   0  0  0  0  0  0  0  0  0  0  0  0
   60.0690   34.4710   46.4830 C   0  0  0  0  0  0  0  0  0  0  0  0
   60.7690   33.2710   46.6070 C   0  0  0  0  0  0  0  0  0  0  0  0
   62.2240   33.2870   46.8800 C   0  0  0  0  0  0  0  0  0  0  0  0
   62.9350   34.1960   46.3760 O   0  0  0  0  0  0  0  0  0  0  0  0
   62.8520   32.3100   47.7230 N   0  0  0  0  0  0  0  0  0  0  0  0
   62.7230   32.2390   49.1760 C   0  0  0  0  0  0  0  0  0  0  0  0
   61.2700   32.2460   49.5620 C   0  0  0  0  0  0  0  0  0  0  0  0
   60.6610   33.4350   50.0020 C   0  0  0  0  0  0  0  0  0  0  0  0
   59.3260   33.4300   50.4210 C   0  0  0  0  0  0  0  0  0  0  0  0
   58.5940   32.2370   50.4150 C   0  0  0  0  0  0  0  0  0  0  0  0
   59.1950   31.0510   49.9860 C   0  0  0  0  0  0  0  0  0  0  0  0
   60.5280   31.0530   49.5570 C   0  0  0  0  0  0  0  0  0  0  0  0
   60.0680   32.0690   46.3940 C   0  0  0  0  0  0  0  0  0  0  0  0
   60.6850   30.9710   46.4700 O   0  0  0  0  0  0  0  0  0  0  0  0
   55.9090   27.7830   45.5950 N   0  0  0  0  0  0  0  0  0  0  0  0
   56.8260   26.6490   45.6640 C   0  0  0  0  0  0  0  0  0  0  0  0
   58.1190   27.0760   46.2990 C   0  0  0  0  0  0  0  0  0  0  0  0
   59.3480   26.7250   45.7210 C   0  0  0  0  0  0  0  0  0  0  0  0
   60.5490   27.1010   46.3300 C   0  0  0  0  0  0  0  0  0  0  0  0
   60.5320   27.8450   47.5130 C   0  0  0  0  0  0  0  0  0  0  0  0
   59.3120   28.2190   48.0850 C   0  0  0  0  0  0  0  0  0  0  0  0
   58.1080   27.8370   47.4790 C   0  0  0  0  0  0  0  0  0  0  0  0
   57.8300   28.1651   43.8215 H   0  0  0  0  0  0  0  0  0  0  0  0
   57.0813   29.6552   43.0759 H   0  0  0  0  0  0  0  0  0  0  0  0
   59.3110   29.4077   44.9530 H   0  0  0  0  0  0  0  0  0  0  0  0
   58.7429   30.8043   43.9074 H   0  0  0  0  0  0  0  0  0  0  0  0
   56.9185   31.0486   45.7851 H   0  0  0  0  0  0  0  0  0  0  0  0
   58.1750   30.1824   46.7796 H   0  0  0  0  0  0  0  0  0  0  0  0
   60.5899   35.4287   46.6293 H   0  0  0  0  0  0  0  0  0  0  0  0
   63.1923   31.3127   49.5389 H   0  0  0  0  0  0  0  0  0  0  0  0
   63.2215   33.1099   49.6267 H   0  0  0  0  0  0  0  0  0  0  0  0
   61.2364   34.3724   50.0168 H   0  0  0  0  0  0  0  0  0  0  0  0
   58.8514   34.3643   50.7554 H   0  0  0  0  0  0  0  0  0  0  0  0
   57.5456   32.2332   50.7480 H   0  0  0  0  0  0  0  0  0  0  0  0
   58.6197   30.1134   49.9852 H   0  0  0  0  0  0  0  0  0  0  0  0
   60.9955   30.1178   49.2151 H   0  0  0  0  0  0  0  0  0  0  0  0
   56.3712   25.8480   46.2653 H   0  0  0  0  0  0  0  0  0  0  0  0
   57.0257   26.2818   44.6465 H   0  0  0  0  0  0  0  0  0  0  0  0
   59.3669   26.1506   44.7831 H   0  0  0  0  0  0  0  0  0  0  0  0
   61.5087   26.8108   45.8774 H   0  0  0  0  0  0  0  0  0  0  0  0
   61.4776   28.1361   47.9938 H   0  0  0  0  0  0  0  0  0  0  0  0
   59.2976   28.8131   49.0107 H   0  0  0  0  0  0  0  0  0  0  0  0
   57.1497   28.1346   47.9296 H   0  0  0  0  0  0  0  0  0  0  0  0
  1  2  2  0
  2  3  1  0
  3  4  1  0
  4  5  1  0
  5  6  1  0
  6  7  1  0
  7  8  2  0
  7  9  1  0
  9 10  1  0
 10 11  2  0
 11 12  1  0
 12 13  2  0
 12 14  1  0
 14 15  1  0
 15 16  1  0
 16 17  2  0
 17 18  1  0
 18 19  2  0
 19 20  1  0
 20 21  2  0
 11 22  1  0
 22 23  2  0
  2 24  1  0
 24 25  1  0
 25 26  1  0
 26 27  2  0
 27 28  1  0
 28 29  2  0
 29 30  1  0
 30 31  2  0
 22  6  1  0
 31 26  1  0
 21 16  1  0
  3 32  1  0
  3 33  1  0
  4 34  1  0
  4 35  1  0
  5 36  1  0
  5 37  1  0
 10 38  1  0
 15 39  1  0
 15 40  1  0
 17 41  1  0
 18 42  1  0
 19 43  1  0
 20 44  1  0
 21 45  1  0
 25 46  1  0
 25 47  1  0
 27 48  1  0
 28 49  1  0
 29 50  1  0
 30 51  1  0
 31 52  1  0
M  CHG  3   9  -1  14  -1  24  -1
M  END
>  <UniqueID>  (76) 
72

>  <SMILES>  (76) 
O=C(CCCn1c(=O)[n-]cc(C(=O)[N-]Cc2ccccc2)c1=O)[N-]Cc1ccccc1

>  <Energy>  (76) 
55.013196162564334

>  <Genealogy>  (76) 
O=C(CCCn1c(=O)[n-]cc(C(=O)[N-]Cc2ccccc2)c1=O)[N-]Cc1ccccc1 (protonated)
O=C(CCCn1c(=O)[n-]cc(C(=O)[N-]Cc2ccccc2)c1=O)[N-]Cc1ccccc1 (3D coordinates assigned)
O=C(CCCn1c(=O)[n-]cc(C(=O)[N-]Cc2ccccc2)c1=O)[N-]Cc1ccccc1 (optimized conformer: 55.013196162564334 kcal/mol)

>  <smiles>  (76) 
O=C(CCCn1c(=O)[nH]cc(C(=O)NCc2ccccc2)c1=O)NCc1ccccc1

>  <score_type>  (76) 
oracle

>  <origin>  (76) 
adg

>  <m_score__min__energy>  (76) 
-12.94

>  <m_primary>  (76) 
energy

$$$$
78:0
     RDKit          3D

 66 69  0  0  0  0  0  0  0  0999 V2000
   55.5730   28.6210   43.9480 H   0  0  0  0  0  0  0  0  0  0  0  0
   55.7850   28.6930   44.9360 O   0  0  0  0  0  0  0  0  0  0  0  0
   56.5300   27.7140   45.5930 C   0  0  0  0  0  0  0  0  0  0  0  0
   57.8970   27.9090   45.8440 C   0  0  0  0  0  0  0  0  0  0  0  0
   58.3799   28.8438   45.5233 H   0  0  0  0  0  0  0  0  0  0  0  0
   58.6570   26.9250   46.5000 C   0  0  0  0  0  0  0  0  0  0  0  0
   60.1100   27.1750   46.6990 C   0  0  0  0  0  0  0  0  0  0  0  0
   60.6943   27.5025   45.8265 H   0  0  0  0  0  0  0  0  0  0  0  0
   60.7600   27.0310   47.8620 C   0  0  0  0  0  0  0  0  0  0  0  0
   61.5175   26.2391   47.9575 H   0  0  0  0  0  0  0  0  0  0  0  0
   60.4870   27.9050   49.0160 C   0  0  0  0  0  0  0  0  0  0  0  0
   61.1470   27.7300   50.0740 O   0  0  0  0  0  0  0  0  0  0  0  0
   59.5010   28.9470   48.9830 N   0  0  0  0  0  0  0  0  0  0  0  0
   59.7670   30.3850   48.8830 C   0  0  2  0  0  0  0  0  0  0  0  0
   58.8364   30.9364   48.6832 H   0  0  0  0  0  0  0  0  0  0  0  0
   60.7050   30.6500   47.7310 C   0  0  0  0  0  0  0  0  0  0  0  0
   61.9510   30.6760   47.9220 O   0  0  0  0  0  0  0  0  0  0  0  0
   60.1620   31.0210   46.4560 N   0  0  0  0  0  0  0  0  0  0  0  0
   59.2250   32.0790   46.1910 C   0  0  0  0  0  0  0  0  0  0  0  0
   57.9750   31.8340   45.5910 C   0  0  0  0  0  0  0  0  0  0  0  0
   57.6824   30.8048   45.3359 H   0  0  0  0  0  0  0  0  0  0  0  0
   57.1040   32.8930   45.3180 C   0  0  0  0  0  0  0  0  0  0  0  0
   56.1364   32.6965   44.8331 H   0  0  0  0  0  0  0  0  0  0  0  0
   57.4590   34.1980   45.6590 C   0  0  0  0  0  0  0  0  0  0  0  0
   56.7773   35.0306   45.4310 H   0  0  0  0  0  0  0  0  0  0  0  0
   58.6800   34.4480   46.2900 C   0  0  0  0  0  0  0  0  0  0  0  0
   58.9526   35.4764   46.5693 H   0  0  0  0  0  0  0  0  0  0  0  0
   59.5580   33.3930   46.5680 C   0  0  0  0  0  0  0  0  0  0  0  0
   60.8020   33.6700   47.2240 N   0  0  0  0  0  0  0  0  0  0  0  0
   62.0130   33.8440   46.4170 C   0  0  0  0  0  0  0  0  0  0  0  0
   62.1286   34.9108   46.1751 H   0  0  0  0  0  0  0  0  0  0  0  0
   61.9037   33.2394   45.5046 H   0  0  0  0  0  0  0  0  0  0  0  0
   63.2780   33.3610   47.1620 C   0  0  0  0  0  0  0  0  0  0  0  0
   64.0655   34.1195   47.0418 H   0  0  0  0  0  0  0  0  0  0  0  0
   63.5658   32.3937   46.7244 H   0  0  0  0  0  0  0  0  0  0  0  0
   63.0540   33.1400   48.6100 N   0  0  0  0  0  0  0  0  0  0  0  0
   64.3410   33.0720   49.3190 C   0  0  0  0  0  0  0  0  0  0  0  0
   64.1626   33.0814   50.4044 H   0  0  0  0  0  0  0  0  0  0  0  0
   64.8640   32.1450   49.0414 H   0  0  0  0  0  0  0  0  0  0  0  0
   64.9588   33.9388   49.0414 H   0  0  0  0  0  0  0  0  0  0  0  0
   62.2040   34.1960   49.1820 C   0  0  0  0  0  0  0  0  0  0  0  0
   62.5984   35.1822   48.8959 H   0  0  0  0  0  0  0  0  0  0  0  0
   62.1973   34.1141   50.2789 H   0  0  0  0  0  0  0  0  0  0  0  0
   60.7830   34.0370   48.6440 C   0  0  0  0  0  0  0  0  0  0  0  0
   60.2435   34.9882   48.7635 H   0  0  0  0  0  0  0  0  0  0  0  0
   60.2796   33.2380   49.2081 H   0  0  0  0  0  0  0  0  0  0  0  0
   60.3410   30.8840   50.2230 C   0  0  0  0  0  0  0  0  0  0  0  0
   60.6667   30.0188   50.8191 H   0  0  0  0  0  0  0  0  0  0  0  0
   61.1909   31.5501   50.0134 H   0  0  0  0  0  0  0  0  0  0  0  0
   59.3060   31.6570   51.0010 C   0  0  0  0  0  0  0  0  0  0  0  0
   59.6020   32.9430   51.4890 C   0  0  0  0  0  0  0  0  0  0  0  0
   60.6031   33.3711   51.3324 H   0  0  0  0  0  0  0  0  0  0  0  0
   58.6310   33.6780   52.1710 C   0  0  0  0  0  0  0  0  0  0  0  0
   58.8682   34.6825   52.5513 H   0  0  0  0  0  0  0  0  0  0  0  0
   57.3570   33.1380   52.3710 C   0  0  0  0  0  0  0  0  0  0  0  0
   56.5927   33.7178   52.9092 H   0  0  0  0  0  0  0  0  0  0  0  0
   57.0540   31.8630   51.8880 C   0  0  0  0  0  0  0  0  0  0  0  0
   56.0526   31.4379   52.0508 H   0  0  0  0  0  0  0  0  0  0  0  0
   58.0210   31.1260   51.1980 C   0  0  0  0  0  0  0  0  0  0  0  0
   57.7746   30.1273   50.8083 H   0  0  0  0  0  0  0  0  0  0  0  0
   58.0100   25.7450   46.9270 C   0  0  0  0  0  0  0  0  0  0  0  0
   58.5806   24.9729   47.4640 H   0  0  0  0  0  0  0  0  0  0  0  0
   56.6490   25.5510   46.6720 C   0  0  0  0  0  0  0  0  0  0  0  0
   56.1575   24.6233   47.0003 H   0  0  0  0  0  0  0  0  0  0  0  0
   55.9100   26.5300   46.0020 C   0  0  0  0  0  0  0  0  0  0  0  0
   54.5610   26.3220   45.7460 O   0  0  0  0  0  0  0  0  0  0  0  0
  1  2  1  0
  2  3  1  0
  3  4  2  0
  4  5  1  0
  4  6  1  0
  6  7  1  0
  7  8  1  0
  7  9  2  0
  9 10  1  0
  9 11  1  0
 11 12  2  0
 11 13  1  0
 13 14  1  0
 14 15  1  6
 14 16  1  0
 16 17  2  0
 16 18  1  0
 18 19  1  0
 19 20  2  0
 20 21  1  0
 20 22  1  0
 22 23  1  0
 22 24  2  0
 24 25  1  0
 24 26  1  0
 26 27  1  0
 26 28  2  0
 28 29  1  0
 29 30  1  0
 30 31  1  0
 30 32  1  0
 30 33  1  0
 33 34  1  0
 33 35  1  0
 33 36  1  0
 36 37  1  0
 37 38  1  0
 37 39  1  0
 37 40  1  0
 36 41  1  0
 41 42  1  0
 41 43  1  0
 41 44  1  0
 44 45  1  0
 44 46  1  0
 14 47  1  0
 47 48  1  0
 47 49  1  0
 47 50  1  0
 50 51  2  0
 51 52  1  0
 51 53  1  0
 53 54  1  0
 53 55  2  0
 55 56  1  0
 55 57  1  0
 57 58  1  0
 57 59  2  0
 59 60  1  0
  6 61  2  0
 61 62  1  0
 61 63  1  0
 63 64  1  0
 63 65  2  0
 65 66  1  0
 65  3  1  0
 28 19  1  0
 44 29  1  0
 59 50  1  0
M  CHG  3  13  -1  18  -1  66  -1
M  END
>  <UniqueID>  (77) 
73

>  <SMILES>  (77) 
CN1CCN(c2ccccc2[N-]C(=O)[C@H](Cc2ccccc2)[N-]C(=O)/C=C/c2ccc([O-])c(O)c2)CC1

>  <Energy>  (77) 
83.17736450075643

>  <Genealogy>  (77) 
CN1CCN(c2ccccc2[N-]C(=O)C(Cc2ccccc2)[N-]C(=O)C=Cc2ccc([O-])c(O)c2)CC1 (protonated)
CN1CCN(c2ccccc2[N-]C(=O)[C@H](Cc2ccccc2)[N-]C(=O)C=Cc2ccc([O-])c(O)c2)CC1 (chirality)
CN1CCN(c2ccccc2[N-]C(=O)[C@H](Cc2ccccc2)[N-]C(=O)/C=C/c2ccc([O-])c(O)c2)CC1 (cis-trans isomerization)
CN1CCN(c2ccccc2[N-]C(=O)[C@H](Cc2ccccc2)[N-]C(=O)/C=C/c2ccc([O-])c(O)c2)CC1 (3D coordinates assigned)
CN1CCN(c2ccccc2[N-]C(=O)[C@H](Cc2ccccc2)[N-]C(=O)/C=C/c2ccc([O-])c(O)c2)CC1 (nonaromatic ring conformer: 83.17736450075643 kcal/mol)

>  <smiles>  (77) 
CN1CCN(c2ccccc2NC(=O)C(Cc2ccccc2)NC(=O)C=Cc2ccc(O)c(O)c2)CC1

>  <score_type>  (77) 
oracle

>  <origin>  (77) 
adg

>  <m_score__min__energy>  (77) 
-15.529999999999999

>  <m_primary>  (77) 
energy

$$$$
79:0
     RDKit          3D

 56 59  0  0  0  0  0  0  0  0999 V2000
   55.0770   26.4330   46.0180 N   0  0  0  0  0  0  0  0  0  0  0  0
   56.2020   25.7110   46.5160 C   0  0  0  0  0  0  0  0  0  0  0  0
   56.0930   24.4720   46.7180 O   0  0  0  0  0  0  0  0  0  0  0  0
   57.4840   26.3970   46.8170 C   0  0  0  0  0  0  0  0  0  0  0  0
   58.4100   25.7550   47.6620 C   0  0  0  0  0  0  0  0  0  0  0  0
   59.6230   26.3640   47.9840 C   0  0  0  0  0  0  0  0  0  0  0  0
   59.9450   27.6110   47.4510 C   0  0  0  0  0  0  0  0  0  0  0  0
   59.0500   28.2640   46.5980 C   0  0  0  0  0  0  0  0  0  0  0  0
   59.5650   29.7730   45.8550 Cl  0  0  0  0  0  0  0  0  0  0  0  0
   57.8020   27.6760   46.2940 C   0  0  0  0  0  0  0  0  0  0  0  0
   56.8960   28.3330   45.3960 N   0  0  0  0  0  0  0  0  0  0  0  0
   57.1700   28.6130   44.0170 C   0  0  0  0  0  0  0  0  0  0  0  0
   58.0140   27.9030   43.4090 O   0  0  0  0  0  0  0  0  0  0  0  0
   56.4780   29.7340   43.2870 C   0  0  0  0  0  0  0  0  0  0  0  0
   57.1420   31.0610   43.5470 C   0  0  0  0  0  0  0  0  0  0  0  0
   57.7300   31.7770   42.4930 C   0  0  0  0  0  0  0  0  0  0  0  0
   58.3950   32.9770   42.7440 C   0  0  0  0  0  0  0  0  0  0  0  0
   58.4950   33.4710   44.0470 C   0  0  0  0  0  0  0  0  0  0  0  0
   59.1850   34.6570   44.2690 O   0  0  0  0  0  0  0  0  0  0  0  0
   57.9130   32.7640   45.1190 C   0  0  0  0  0  0  0  0  0  0  0  0
   57.9980   33.2950   46.5000 C   0  0  0  0  0  0  0  0  0  0  0  0
   56.9240   33.4600   47.1410 O   0  0  0  0  0  0  0  0  0  0  0  0
   59.2570   33.6130   47.1390 N   0  0  0  0  0  0  0  0  0  0  0  0
   59.2810   33.7840   48.6020 C   0  0  0  0  0  0  0  0  0  0  0  0
   60.6340   34.3090   49.1050 C   0  0  0  0  0  0  0  0  0  0  0  0
   61.7310   33.5740   48.4630 N   0  0  0  0  0  0  0  0  0  0  0  0
   62.9220   33.2860   49.2100 C   0  0  0  0  0  0  0  0  0  0  0  0
   63.3980   34.1540   49.9950 O   0  0  0  0  0  0  0  0  0  0  0  0
   63.6020   31.9570   49.0590 C   0  0  0  0  0  0  0  0  0  0  0  0
   64.3410   31.4340   50.2810 C   0  0  0  0  0  0  0  0  0  0  0  0
   62.9780   30.8730   49.9250 C   0  0  0  0  0  0  0  0  0  0  0  0
   61.6830   33.2700   47.0270 C   0  0  0  0  0  0  0  0  0  0  0  0
   60.4700   33.9340   46.3680 C   0  0  0  0  0  0  0  0  0  0  0  0
   57.2140   31.5730   44.8530 C   0  0  0  0  0  0  0  0  0  0  0  0
   55.1650   27.0640   45.1900 H   0  0  0  0  0  0  0  0  0  0  0  0
   58.1741   24.7622   48.0727 H   0  0  0  0  0  0  0  0  0  0  0  0
   60.3276   25.8585   48.6607 H   0  0  0  0  0  0  0  0  0  0  0  0
   60.9063   28.0829   47.7022 H   0  0  0  0  0  0  0  0  0  0  0  0
   56.5057   29.5269   42.2070 H   0  0  0  0  0  0  0  0  0  0  0  0
   55.4414   29.7919   43.6505 H   0  0  0  0  0  0  0  0  0  0  0  0
   57.6662   31.3904   41.4651 H   0  0  0  0  0  0  0  0  0  0  0  0
   58.8435   33.5380   41.9109 H   0  0  0  0  0  0  0  0  0  0  0  0
   58.4956   34.4993   48.8876 H   0  0  0  0  0  0  0  0  0  0  0  0
   59.1115   32.7979   49.0591 H   0  0  0  0  0  0  0  0  0  0  0  0
   60.7220   35.3784   48.8629 H   0  0  0  0  0  0  0  0  0  0  0  0
   60.6934   34.1654   50.1940 H   0  0  0  0  0  0  0  0  0  0  0  0
   63.8733   32.0797   48.0001 H   0  0  0  0  0  0  0  0  0  0  0  0
   65.2406   30.8136   50.1555 H   0  0  0  0  0  0  0  0  0  0  0  0
   64.7823   31.8933   51.1779 H   0  0  0  0  0  0  0  0  0  0  0  0
   62.8894   29.8459   49.5413 H   0  0  0  0  0  0  0  0  0  0  0  0
   62.0220   30.7572   50.4567 H   0  0  0  0  0  0  0  0  0  0  0  0
   62.6012   33.6423   46.5492 H   0  0  0  0  0  0  0  0  0  0  0  0
   61.5989   32.1805   46.9010 H   0  0  0  0  0  0  0  0  0  0  0  0
   60.6143   35.0243   46.3481 H   0  0  0  0  0  0  0  0  0  0  0  0
   60.3607   33.5604   45.3392 H   0  0  0  0  0  0  0  0  0  0  0  0
   56.7187   31.0370   45.6760 H   0  0  0  0  0  0  0  0  0  0  0  0
  1  2  1  0
  2  3  2  0
  2  4  1  0
  4  5  2  0
  5  6  1  0
  6  7  2  0
  7  8  1  0
  8  9  1  0
  8 10  2  0
 10 11  1  0
 11 12  1  0
 12 13  2  0
 12 14  1  0
 14 15  1  0
 15 16  2  0
 16 17  1  0
 17 18  2  0
 18 19  1  0
 18 20  1  0
 20 21  1  0
 21 22  2  0
 21 23  1  0
 23 24  1  0
 24 25  1  0
 25 26  1  0
 26 27  1  0
 27 28  2  0
 27 29  1  0
 29 30  1  0
 30 31  1  0
 26 32  1  0
 32 33  1  0
 20 34  2  0
 10  4  1  0
 34 15  1  0
 33 23  1  0
 31 29  1  0
  1 35  1  0
  5 36  1  0
  6 37  1  0
  7 38  1  0
 14 39  1  0
 14 40  1  0
 16 41  1  0
 17 42  1  0
 24 43  1  0
 24 44  1  0
 25 45  1  0
 25 46  1  0
 29 47  1  0
 30 48  1  0
 30 49  1  0
 31 50  1  0
 31 51  1  0
 32 52  1  0
 32 53  1  0
 33 54  1  0
 33 55  1  0
 34 56  1  0
M  CHG  3   1  -1  11  -1  19  -1
M  END
>  <UniqueID>  (78) 
74

>  <SMILES>  (78) 
[NH-]C(=O)c1cccc(Cl)c1[N-]C(=O)Cc1ccc([O-])c(C(=O)N2CCN(C(=O)C3CC3)CC2)c1

>  <Energy>  (78) 
338.04424748777893

>  <Genealogy>  (78) 
[NH-]C(=O)c1cccc(Cl)c1[N-]C(=O)Cc1ccc([O-])c(C(=O)N2CCN(C(=O)C3CC3)CC2)c1 (protonated)
[NH-]C(=O)c1cccc(Cl)c1[N-]C(=O)Cc1ccc([O-])c(C(=O)N2CCN(C(=O)C3CC3)CC2)c1 (3D coordinates assigned)
[NH-]C(=O)c1cccc(Cl)c1[N-]C(=O)Cc1ccc([O-])c(C(=O)N2CCN(C(=O)C3CC3)CC2)c1 (nonaromatic ring conformer: 338.04424748777893 kcal/mol)

>  <smiles>  (78) 
NC(=O)c1cccc(Cl)c1NC(=O)Cc1ccc(O)c(C(=O)N2CCN(C(=O)C3CC3)CC2)c1

>  <score_type>  (78) 
oracle

>  <origin>  (78) 
adg

>  <m_score__min__energy>  (78) 
-15.9

>  <m_primary>  (78) 
energy

$$$$
80:0
     RDKit          3D

 38 40  0  0  0  0  0  0  0  0999 V2000
   57.4847   34.6636   46.1726 H   0  0  0  0  0  0  0  0  0  0  0  0
   57.4540   33.9110   45.3710 C   0  0  0  0  0  0  0  0  0  0  0  0
   57.0372   34.1721   44.3871 H   0  0  0  0  0  0  0  0  0  0  0  0
   57.9220   32.6820   45.5920 C   0  0  0  0  0  0  0  0  0  0  0  0
   57.9230   31.4570   44.4380 S   0  0  0  0  0  0  0  0  0  0  0  0
   58.6480   30.3230   45.4520 C   0  0  0  0  0  0  0  0  0  0  0  0
   58.9540   29.0740   45.0680 C   0  0  0  0  0  0  0  0  0  0  0  0
   59.7906   28.9455   44.3655 H   0  0  0  0  0  0  0  0  0  0  0  0
   58.2470   27.8610   45.5220 C   0  0  0  0  0  0  0  0  0  0  0  0
   58.9560   26.6810   45.8120 C   0  0  0  0  0  0  0  0  0  0  0  0
   60.0533   26.6679   45.7364 H   0  0  0  0  0  0  0  0  0  0  0  0
   58.2700   25.5250   46.1960 C   0  0  0  0  0  0  0  0  0  0  0  0
   58.8292   24.6099   46.4409 H   0  0  0  0  0  0  0  0  0  0  0  0
   56.8740   25.5310   46.2690 C   0  0  0  0  0  0  0  0  0  0  0  0
   56.3354   24.6230   46.5780 H   0  0  0  0  0  0  0  0  0  0  0  0
   56.1620   26.6920   45.9490 C   0  0  0  0  0  0  0  0  0  0  0  0
   54.7730   26.6930   46.0110 O   0  0  0  0  0  0  0  0  0  0  0  0
   56.8460   27.8500   45.5650 C   0  0  0  0  0  0  0  0  0  0  0  0
   56.2824   28.7555   45.2957 H   0  0  0  0  0  0  0  0  0  0  0  0
   58.8380   30.9340   46.7000 C   0  0  0  0  0  0  0  0  0  0  0  0
   59.3060   30.3320   47.7040 O   0  0  0  0  0  0  0  0  0  0  0  0
   58.4510   32.2420   46.7650 N   0  0  0  0  0  0  0  0  0  0  0  0
   58.6510   33.0520   47.9320 C   0  0  0  0  0  0  0  0  0  0  0  0
   58.0890   32.7400   49.0150 O   0  0  0  0  0  0  0  0  0  0  0  0
   59.5680   34.2390   47.8760 C   0  0  0  0  0  0  0  0  0  0  0  0
   59.2960   34.8697   47.0168 H   0  0  0  0  0  0  0  0  0  0  0  0
   59.4700   34.8164   48.8071 H   0  0  0  0  0  0  0  0  0  0  0  0
   60.9930   33.7790   47.7260 C   0  0  0  0  0  0  0  0  0  0  0  0
   61.6860   34.0050   46.5250 C   0  0  0  0  0  0  0  0  0  0  0  0
   61.1654   34.4590   45.6689 H   0  0  0  0  0  0  0  0  0  0  0  0
   63.0350   33.6550   46.4140 C   0  0  0  0  0  0  0  0  0  0  0  0
   63.5716   33.8290   45.4697 H   0  0  0  0  0  0  0  0  0  0  0  0
   63.7020   33.0850   47.5000 C   0  0  0  0  0  0  0  0  0  0  0  0
   64.7638   32.8120   47.4109 H   0  0  0  0  0  0  0  0  0  0  0  0
   63.0220   32.8610   48.7000 C   0  0  0  0  0  0  0  0  0  0  0  0
   63.5477   32.4083   49.5536 H   0  0  0  0  0  0  0  0  0  0  0  0
   61.6740   33.2120   48.8160 C   0  0  0  0  0  0  0  0  0  0  0  0
   61.1440   33.0435   49.7651 H   0  0  0  0  0  0  0  0  0  0  0  0
  1  2  1  0
  2  3  1  0
  2  4  2  0
  4  5  1  0
  5  6  1  0
  6  7  2  0
  7  8  1  0
  7  9  1  0
  9 10  2  0
 10 11  1  0
 10 12  1  0
 12 13  1  0
 12 14  2  0
 14 15  1  0
 14 16  1  0
 16 17  1  0
 16 18  2  0
 18 19  1  0
  6 20  1  0
 20 21  2  0
 20 22  1  0
 22 23  1  0
 23 24  2  0
 23 25  1  0
 25 26  1  0
 25 27  1  0
 25 28  1  0
 28 29  2  0
 29 30  1  0
 29 31  1  0
 31 32  1  0
 31 33  2  0
 33 34  1  0
 33 35  1  0
 35 36  1  0
 35 37  2  0
 37 38  1  0
 22  4  1  0
 37 28  1  0
 18  9  1  0
M  CHG  1  17  -1
M  END
>  <UniqueID>  (79) 
75

>  <SMILES>  (79) 
C=c1s/c(=C/c2cccc([O-])c2)c(=O)n1C(=O)Cc1ccccc1

>  <Energy>  (79) 
84.12509078782988

>  <Genealogy>  (79) 
C=c1sc(=Cc2cccc([O-])c2)c(=O)n1C(=O)Cc1ccccc1 (protonated)
C=c1s/c(=C/c2cccc([O-])c2)c(=O)n1C(=O)Cc1ccccc1 (cis-trans isomerization)
C=c1s/c(=C/c2cccc([O-])c2)c(=O)n1C(=O)Cc1ccccc1 (3D coordinates assigned)
C=c1s/c(=C/c2cccc([O-])c2)c(=O)n1C(=O)Cc1ccccc1 (optimized conformer: 84.12509078782988 kcal/mol)

>  <smiles>  (79) 
C=c1sc(=Cc2cccc(O)c2)c(=O)n1C(=O)Cc1ccccc1

>  <score_type>  (79) 
oracle

>  <origin>  (79) 
adg

>  <m_score__min__energy>  (79) 
-12.529999999999999

>  <m_primary>  (79) 
energy

$$$$
81:0
     RDKit          3D

 36 37  0  0  0  0  0  0  0  0999 V2000
   59.9640   35.2970   46.0440 C   0  0  0  0  0  0  0  0  0  0  0  0
   58.8080   34.6150   46.7840 C   0  0  0  0  0  0  0  0  0  0  0  0
   59.3310   33.7420   47.9290 C   0  0  0  0  0  0  0  0  0  0  0  0
   57.9770   33.7890   45.8370 C   0  0  0  0  0  0  0  0  0  0  0  0
   56.8220   34.1830   45.5130 O   0  0  0  0  0  0  0  0  0  0  0  0
   58.5330   32.6060   45.2400 N   0  0  0  0  0  0  0  0  0  0  0  0
   57.7640   31.6360   44.5090 C   0  0  0  0  0  0  0  0  0  0  0  0
   57.5010   31.7920   43.1360 C   0  0  0  0  0  0  0  0  0  0  0  0
   56.7380   30.8410   42.4540 C   0  0  0  0  0  0  0  0  0  0  0  0
   56.2140   29.7400   43.1340 C   0  0  0  0  0  0  0  0  0  0  0  0
   56.4310   29.5940   44.5140 C   0  0  0  0  0  0  0  0  0  0  0  0
   55.9120   28.4740   45.2450 N   0  0  0  0  0  0  0  0  0  0  0  0
   56.6860   27.4560   45.8950 C   0  0  0  0  0  0  0  0  0  0  0  0
   57.8550   27.7340   46.2700 O   0  0  0  0  0  0  0  0  0  0  0  0
   56.1420   26.1110   46.1790 C   0  0  0  0  0  0  0  0  0  0  0  0
   56.9020   25.1350   46.8400 C   0  0  0  0  0  0  0  0  0  0  0  0
   56.3300   23.8820   47.0650 C   0  0  0  0  0  0  0  0  0  0  0  0
   56.9830   22.9860   47.6620 O   0  0  0  0  0  0  0  0  0  0  0  0
   55.0670   23.6260   46.6360 N   0  0  0  0  0  0  0  0  0  0  0  0
   54.3480   24.5740   45.9830 C   0  0  0  0  0  0  0  0  0  0  0  0
   53.1820   24.3160   45.5880 O   0  0  0  0  0  0  0  0  0  0  0  0
   54.8860   25.8000   45.7550 N   0  0  0  0  0  0  0  0  0  0  0  0
   57.2150   30.5390   45.1910 C   0  0  0  0  0  0  0  0  0  0  0  0
   60.6718   35.7146   46.7752 H   0  0  0  0  0  0  0  0  0  0  0  0
   60.4813   34.5594   45.4129 H   0  0  0  0  0  0  0  0  0  0  0  0
   59.5686   36.1065   45.4129 H   0  0  0  0  0  0  0  0  0  0  0  0
   58.1706   35.4036   47.2104 H   0  0  0  0  0  0  0  0  0  0  0  0
   59.0578   34.1980   48.8920 H   0  0  0  0  0  0  0  0  0  0  0  0
   58.8849   32.7390   47.8586 H   0  0  0  0  0  0  0  0  0  0  0  0
   60.4258   33.6621   47.8586 H   0  0  0  0  0  0  0  0  0  0  0  0
   59.5710   32.4880   45.2680 H   0  0  0  0  0  0  0  0  0  0  0  0
   57.8973   32.6655   42.5976 H   0  0  0  0  0  0  0  0  0  0  0  0
   56.5493   30.9602   41.3769 H   0  0  0  0  0  0  0  0  0  0  0  0
   55.6297   28.9850   42.5876 H   0  0  0  0  0  0  0  0  0  0  0  0
   57.9272   25.3525   47.1740 H   0  0  0  0  0  0  0  0  0  0  0  0
   57.4018   30.4193   46.2684 H   0  0  0  0  0  0  0  0  0  0  0  0
  1  2  1  0
  2  3  1  0
  2  4  1  0
  4  5  2  0
  4  6  1  0
  6  7  1  0
  7  8  2  0
  8  9  1  0
  9 10  2  0
 10 11  1  0
 11 12  1  0
 12 13  1  0
 13 14  2  0
 13 15  1  0
 15 16  2  0
 16 17  1  0
 17 18  2  0
 17 19  1  0
 19 20  1  0
 20 21  2  0
 20 22  1  0
 11 23  2  0
 23  7  1  0
 22 15  1  0
  1 24  1  0
  1 25  1  0
  1 26  1  0
  2 27  1  0
  3 28  1  0
  3 29  1  0
  3 30  1  0
  6 31  1  0
  8 32  1  0
  9 33  1  0
 10 34  1  0
 16 35  1  0
 23 36  1  0
M  CHG  3  12  -1  19  -1  22  -1
M  END
>  <UniqueID>  (80) 
76

>  <SMILES>  (80) 
CC(C)C(=O)Nc1cccc([N-]C(=O)c2cc(=O)[n-]c(=O)[n-]2)c1

>  <Energy>  (80) 
42.119276676334565

>  <Genealogy>  (80) 
CC(C)C(=O)Nc1cccc([N-]C(=O)c2cc(=O)[n-]c(=O)[n-]2)c1 (protonated)
CC(C)C(=O)Nc1cccc([N-]C(=O)c2cc(=O)[n-]c(=O)[n-]2)c1 (3D coordinates assigned)
CC(C)C(=O)Nc1cccc([N-]C(=O)c2cc(=O)[n-]c(=O)[n-]2)c1 (optimized conformer: 42.119276676334565 kcal/mol)

>  <smiles>  (80) 
CC(C)C(=O)Nc1cccc(NC(=O)c2cc(=O)[nH]c(=O)[nH]2)c1

>  <score_type>  (80) 
oracle

>  <origin>  (80) 
adg

>  <m_score__min__energy>  (80) 
-13.699999999999999

>  <m_primary>  (80) 
energy

$$$$
82:0
     RDKit          3D

 51 53  0  0  0  0  0  0  0  0999 V2000
   58.8334   32.0063   48.2493 H   0  0  0  0  0  0  0  0  0  0  0  0
   58.5640   32.3480   47.2390 C   0  0  0  0  0  0  0  0  0  0  0  0
   57.7610   31.5820   46.4550 N   0  0  0  0  0  0  0  0  0  0  0  0
   57.3920   31.9590   45.2000 C   0  0  0  0  0  0  0  0  0  0  0  0
   56.6320   31.1540   44.5120 N   0  0  0  0  0  0  0  0  0  0  0  0
   56.3800   29.7630   44.7630 C   0  0  0  0  0  0  0  0  0  0  0  0
   55.1900   29.3540   44.7960 O   0  0  0  0  0  0  0  0  0  0  0  0
   57.5020   28.7680   44.8670 C   0  0  0  0  0  0  0  0  0  0  0  0
   57.0863   27.7496   44.8561 H   0  0  0  0  0  0  0  0  0  0  0  0
   58.1831   28.9056   44.0142 H   0  0  0  0  0  0  0  0  0  0  0  0
   58.2460   28.9720   46.1080 N   0  0  0  0  0  0  0  0  0  0  0  0
   58.3530   29.9500   46.4550 H   0  0  0  0  0  0  0  0  0  0  0  0
   58.7620   27.8740   46.8780 C   0  0  0  0  0  0  0  0  0  0  0  0
   58.4650   26.6910   46.5530 O   0  0  0  0  0  0  0  0  0  0  0  0
   59.6250   28.1040   48.0610 C   0  0  0  0  0  0  0  0  0  0  0  0
   60.0410   27.0150   48.8480 C   0  0  0  0  0  0  0  0  0  0  0  0
   59.7278   25.9957   48.5779 H   0  0  0  0  0  0  0  0  0  0  0  0
   60.8480   27.2170   49.9690 C   0  0  0  0  0  0  0  0  0  0  0  0
   61.1577   26.3590   50.5837 H   0  0  0  0  0  0  0  0  0  0  0  0
   61.2630   28.5050   50.3120 C   0  0  0  0  0  0  0  0  0  0  0  0
   61.8866   28.6594   51.2049 H   0  0  0  0  0  0  0  0  0  0  0  0
   60.8890   29.6030   49.5240 C   0  0  0  0  0  0  0  0  0  0  0  0
   61.3340   30.9650   49.8890 C   0  0  0  0  0  0  0  0  0  0  0  0
   61.4450   31.2700   51.1070 O   0  0  0  0  0  0  0  0  0  0  0  0
   61.6550   31.9430   48.8810 N   0  0  0  0  0  0  0  0  0  0  0  0
   62.4960   31.5600   47.7340 C   0  0  0  0  0  0  0  0  0  0  0  0
   63.3276   30.9360   48.0933 H   0  0  0  0  0  0  0  0  0  0  0  0
   61.8711   31.0060   47.0181 H   0  0  0  0  0  0  0  0  0  0  0  0
   63.0690   32.7910   47.0200 C   0  0  0  0  0  0  0  0  0  0  0  0
   63.8755   32.4737   46.3426 H   0  0  0  0  0  0  0  0  0  0  0  0
   62.2642   33.2780   46.4499 H   0  0  0  0  0  0  0  0  0  0  0  0
   63.6300   33.7910   48.0390 C   0  0  0  0  0  0  0  0  0  0  0  0
   64.4872   33.3273   48.5491 H   0  0  0  0  0  0  0  0  0  0  0  0
   63.9207   34.6957   47.4850 H   0  0  0  0  0  0  0  0  0  0  0  0
   62.5940   34.2160   49.1050 C   0  0  0  0  0  0  0  0  0  0  0  0
   63.0619   34.1355   50.0973 H   0  0  0  0  0  0  0  0  0  0  0  0
   62.2911   35.2471   48.8701 H   0  0  0  0  0  0  0  0  0  0  0  0
   61.3200   33.3560   49.0960 C   0  0  0  0  0  0  0  0  0  0  0  0
   60.8043   33.4629   50.0617 H   0  0  0  0  0  0  0  0  0  0  0  0
   60.6675   33.6954   48.2780 H   0  0  0  0  0  0  0  0  0  0  0  0
   60.0590   29.3970   48.4070 C   0  0  0  0  0  0  0  0  0  0  0  0
   59.7456   30.2569   47.7968 H   0  0  0  0  0  0  0  0  0  0  0  0
   57.8820   33.1760   44.6810 C   0  0  0  0  0  0  0  0  0  0  0  0
   57.6265   33.4823   43.6559 H   0  0  0  0  0  0  0  0  0  0  0  0
   58.6960   33.9930   45.4780 C   0  0  0  0  0  0  0  0  0  0  0  0
   59.2540   35.2720   44.9280 C   0  0  0  0  0  0  0  0  0  0  0  0
   59.5425   35.9332   45.7584 H   0  0  0  0  0  0  0  0  0  0  0  0
   60.1376   35.0512   44.3111 H   0  0  0  0  0  0  0  0  0  0  0  0
   58.4912   35.7695   44.3111 H   0  0  0  0  0  0  0  0  0  0  0  0
   59.0470   33.5670   46.7640 C   0  0  0  0  0  0  0  0  0  0  0  0
   59.6988   34.1888   47.3953 H   0  0  0  0  0  0  0  0  0  0  0  0
  1  2  1  0
  2  3  1  0
  3  4  1  0
  4  5  2  0
  5  6  1  0
  6  7  2  0
  6  8  1  0
  8  9  1  0
  8 10  1  0
  8 11  1  0
 11 12  1  0
 11 13  1  0
 13 14  2  0
 13 15  1  0
 15 16  2  0
 16 17  1  0
 16 18  1  0
 18 19  1  0
 18 20  2  0
 20 21  1  0
 20 22  1  0
 22 23  1  0
 23 24  2  0
 23 25  1  0
 25 26  1  0
 26 27  1  0
 26 28  1  0
 26 29  1  0
 29 30  1  0
 29 31  1  0
 29 32  1  0
 32 33  1  0
 32 34  1  0
 32 35  1  0
 35 36  1  0
 35 37  1  0
 35 38  1  0
 38 39  1  0
 38 40  1  0
 22 41  2  0
 41 42  1  0
  4 43  1  0
 43 44  1  0
 43 45  2  0
 45 46  1  0
 46 47  1  0
 46 48  1  0
 46 49  1  0
 45 50  1  0
 50 51  1  0
 50  2  2  0
 41 15  1  0
 38 25  1  0
M  CHG  1   3  -1
M  END
>  <UniqueID>  (81) 
77

>  <SMILES>  (81) 
Cc1cc[n-]/c(=N/C(=O)CNC(=O)c2cccc(C(=O)N3CCCCC3)c2)c1

>  <Energy>  (81) 
67.49903371081561

>  <Genealogy>  (81) 
Cc1cc[n-]c(=NC(=O)CNC(=O)c2cccc(C(=O)N3CCCCC3)c2)c1 (protonated)
Cc1cc[n-]/c(=N/C(=O)CNC(=O)c2cccc(C(=O)N3CCCCC3)c2)c1 (cis-trans isomerization)
Cc1cc[n-]/c(=N/C(=O)CNC(=O)c2cccc(C(=O)N3CCCCC3)c2)c1 (3D coordinates assigned)
Cc1cc[n-]/c(=N/C(=O)CNC(=O)c2cccc(C(=O)N3CCCCC3)c2)c1 (nonaromatic ring conformer: 67.49903371081561 kcal/mol)

>  <smiles>  (81) 
Cc1cc[nH]c(=NC(=O)CNC(=O)c2cccc(C(=O)N3CCCCC3)c2)c1

>  <score_type>  (81) 
oracle

>  <origin>  (81) 
adg

>  <m_score__min__energy>  (81) 
-11.48

>  <m_primary>  (81) 
energy

$$$$
83:0
     RDKit          3D

 57 60  0  0  0  0  0  0  0  0999 V2000
   56.3920   21.9280   42.5490 C   0  0  0  0  0  0  0  0  0  0  0  0
   56.4820   23.1860   43.3490 C   0  0  0  0  0  0  0  0  0  0  0  0
   55.5220   24.0030   43.3280 O   0  0  0  0  0  0  0  0  0  0  0  0
   57.6090   23.4040   44.2090 N   0  0  0  0  0  0  0  0  0  0  0  0
   57.9020   24.6580   44.8430 C   0  0  0  0  0  0  0  0  0  0  0  0
   58.4980   24.6350   46.3730 S   0  0  0  0  0  0  0  0  0  0  0  0
   57.6550   25.9020   44.1560 N   0  0  0  0  0  0  0  0  0  0  0  0
   58.1440   27.1830   44.5850 C   0  0  0  0  0  0  0  0  0  0  0  0
   59.5200   27.3330   44.8860 C   0  0  0  0  0  0  0  0  0  0  0  0
   60.0270   28.5630   45.3440 C   0  0  0  0  0  0  0  0  0  0  0  0
   59.1250   29.6170   45.5030 C   0  0  0  0  0  0  0  0  0  0  0  0
   57.7930   29.4680   45.2460 C   0  0  0  0  0  0  0  0  0  0  0  0
   57.2590   28.2660   44.7930 C   0  0  0  0  0  0  0  0  0  0  0  0
   57.1290   30.6050   45.5170 N   0  0  0  0  0  0  0  0  0  0  0  0
   58.1110   31.4410   45.9460 C   0  0  0  0  0  0  0  0  0  0  0  0
   57.8300   32.8580   46.3620 C   0  0  0  0  0  0  0  0  0  0  0  0
   58.5130   33.1830   47.6640 C   0  0  0  0  0  0  0  0  0  0  0  0
   59.3800   34.2860   47.7530 C   0  0  0  0  0  0  0  0  0  0  0  0
   60.0140   34.5880   48.9620 C   0  0  0  0  0  0  0  0  0  0  0  0
   59.7820   33.8000   50.0910 C   0  0  0  0  0  0  0  0  0  0  0  0
   58.9090   32.7110   50.0160 C   0  0  0  0  0  0  0  0  0  0  0  0
   58.2730   32.4060   48.8090 C   0  0  0  0  0  0  0  0  0  0  0  0
   59.3480   30.8710   45.9340 N   0  0  0  0  0  0  0  0  0  0  0  0
   60.6150   31.4600   46.3800 C   0  0  0  0  0  0  0  0  0  0  0  0
   61.0650   30.8410   47.6770 C   0  0  0  0  0  0  0  0  0  0  0  0
   60.5930   29.7200   48.0120 O   0  0  0  0  0  0  0  0  0  0  0  0
   62.0530   31.4780   48.5160 N   0  0  0  0  0  0  0  0  0  0  0  0
   62.8490   32.6080   48.0210 C   0  0  0  0  0  0  0  0  0  0  0  0
   64.1770   32.6950   48.7770 C   0  0  0  0  0  0  0  0  0  0  0  0
   63.9640   32.6800   50.1750 O   0  0  0  0  0  0  0  0  0  0  0  0
   63.4280   31.4290   50.5570 C   0  0  0  0  0  0  0  0  0  0  0  0
   62.0310   31.2320   49.9640 C   0  0  0  0  0  0  0  0  0  0  0  0
   56.3303   21.0651   43.2284 H   0  0  0  0  0  0  0  0  0  0  0  0
   55.4939   21.9603   41.9147 H   0  0  0  0  0  0  0  0  0  0  0  0
   57.2856   21.8321   41.9147 H   0  0  0  0  0  0  0  0  0  0  0  0
   58.2000   22.5780   44.4580 H   0  0  0  0  0  0  0  0  0  0  0  0
   57.0810   25.8910   43.2850 H   0  0  0  0  0  0  0  0  0  0  0  0
   60.2002   26.4777   44.7602 H   0  0  0  0  0  0  0  0  0  0  0  0
   61.0963   28.6898   45.5689 H   0  0  0  0  0  0  0  0  0  0  0  0
   56.1807   28.1612   44.6023 H   0  0  0  0  0  0  0  0  0  0  0  0
   58.1976   33.5415   45.5824 H   0  0  0  0  0  0  0  0  0  0  0  0
   56.7446   32.9754   46.4965 H   0  0  0  0  0  0  0  0  0  0  0  0
   59.5603   34.9139   46.8680 H   0  0  0  0  0  0  0  0  0  0  0  0
   60.6969   35.4481   49.0238 H   0  0  0  0  0  0  0  0  0  0  0  0
   60.2863   34.0362   51.0396 H   0  0  0  0  0  0  0  0  0  0  0  0
   58.7223   32.0937   50.9071 H   0  0  0  0  0  0  0  0  0  0  0  0
   57.5808   31.5528   48.7558 H   0  0  0  0  0  0  0  0  0  0  0  0
   61.3833   31.2869   45.6121 H   0  0  0  0  0  0  0  0  0  0  0  0
   60.4666   32.5386   46.5368 H   0  0  0  0  0  0  0  0  0  0  0  0
   63.0505   32.4676   46.9488 H   0  0  0  0  0  0  0  0  0  0  0  0
   62.2854   33.5391   48.1802 H   0  0  0  0  0  0  0  0  0  0  0  0
   64.8063   31.8366   48.4994 H   0  0  0  0  0  0  0  0  0  0  0  0
   64.6736   33.6387   48.5074 H   0  0  0  0  0  0  0  0  0  0  0  0
   64.0894   30.6278   50.1955 H   0  0  0  0  0  0  0  0  0  0  0  0
   63.3528   31.3980   51.6540 H   0  0  0  0  0  0  0  0  0  0  0  0
   61.6991   30.2002   50.1519 H   0  0  0  0  0  0  0  0  0  0  0  0
   61.3376   31.9427   50.4374 H   0  0  0  0  0  0  0  0  0  0  0  0
  1  2  1  0
  2  3  2  0
  2  4  1  0
  4  5  1  0
  5  6  2  0
  5  7  1  0
  7  8  1  0
  8  9  2  0
  9 10  1  0
 10 11  2  0
 11 12  1  0
 12 13  2  0
 12 14  1  0
 14 15  2  0
 15 16  1  0
 16 17  1  0
 17 18  2  0
 18 19  1  0
 19 20  2  0
 20 21  1  0
 21 22  2  0
 15 23  1  0
 23 24  1  0
 24 25  1  0
 25 26  2  0
 25 27  1  0
 27 28  1  0
 28 29  1  0
 29 30  1  0
 30 31  1  0
 31 32  1  0
 13  8  1  0
 22 17  1  0
 32 27  1  0
 23 11  1  0
  1 33  1  0
  1 34  1  0
  1 35  1  0
  4 36  1  0
  7 37  1  0
  9 38  1  0
 10 39  1  0
 13 40  1  0
 16 41  1  0
 16 42  1  0
 18 43  1  0
 19 44  1  0
 20 45  1  0
 21 46  1  0
 22 47  1  0
 24 48  1  0
 24 49  1  0
 28 50  1  0
 28 51  1  0
 29 52  1  0
 29 53  1  0
 31 54  1  0
 31 55  1  0
 32 56  1  0
 32 57  1  0
M  END
>  <UniqueID>  (82) 
78

>  <SMILES>  (82) 
CC(=O)NC(=S)Nc1ccc2c(c1)nc(Cc1ccccc1)n2CC(=O)N1CCOCC1

>  <Energy>  (82) 
103.18819587895013

>  <Genealogy>  (82) 
CC(=O)NC(=S)Nc1ccc2c(c1)nc(Cc1ccccc1)n2CC(=O)N1CCOCC1 (3D coordinates assigned)
CC(=O)NC(=S)Nc1ccc2c(c1)nc(Cc1ccccc1)n2CC(=O)N1CCOCC1 (nonaromatic ring conformer: 103.18819587895013 kcal/mol)

>  <smiles>  (82) 
CC(=O)NC(=S)Nc1ccc2c(c1)nc(Cc1ccccc1)n2CC(=O)N1CCOCC1

>  <score_type>  (82) 
oracle

>  <origin>  (82) 
adg

>  <m_score__min__energy>  (82) 
-8.7200000000000006

>  <m_primary>  (82) 
energy

$$$$
84:0
     RDKit          3D

 51 54  0  0  0  0  0  0  0  0999 V2000
   57.0040   20.0240   43.3650 H   0  0  0  0  0  0  0  0  0  0  0  0
   56.3600   20.7320   43.0310 O   0  0  0  0  0  0  0  0  0  0  0  0
   56.2700   21.9630   43.6710 C   0  0  0  0  0  0  0  0  0  0  0  0
   55.1960   22.3580   44.3790 N   0  0  0  0  0  0  0  0  0  0  0  0
   55.5070   23.5930   44.8240 C   0  0  0  0  0  0  0  0  0  0  0  0
   54.6130   24.3870   45.6870 C   0  0  0  0  0  0  0  0  0  0  0  0
   53.7290   23.7990   46.3630 O   0  0  0  0  0  0  0  0  0  0  0  0
   54.7760   25.8030   45.8400 N   0  0  0  0  0  0  0  0  0  0  0  0
   55.8930   26.4020   46.1290 C   0  0  0  0  0  0  0  0  0  0  0  0
   56.2150   27.6080   45.6130 N   0  0  0  0  0  0  0  0  0  0  0  0
   57.4390   28.0260   46.0300 C   0  0  0  0  0  0  0  0  0  0  0  0
   57.8722   28.9914   45.7295 H   0  0  0  0  0  0  0  0  0  0  0  0
   58.1010   27.1310   46.8700 C   0  0  0  0  0  0  0  0  0  0  0  0
   59.3490   27.3080   47.4800 O   0  0  0  0  0  0  0  0  0  0  0  0
   59.9900   28.5400   47.6640 C   0  0  0  0  0  0  0  0  0  0  0  0
   60.4360   29.2390   46.5380 C   0  0  0  0  0  0  0  0  0  0  0  0
   60.2779   28.8159   45.5350 H   0  0  0  0  0  0  0  0  0  0  0  0
   61.0810   30.4710   46.6770 C   0  0  0  0  0  0  0  0  0  0  0  0
   61.4311   31.0086   45.7835 H   0  0  0  0  0  0  0  0  0  0  0  0
   61.2850   31.0270   47.9510 C   0  0  0  0  0  0  0  0  0  0  0  0
   61.9620   32.3360   48.0920 C   0  0  0  0  0  0  0  0  0  0  0  0
   61.7580   33.2240   47.2180 O   0  0  0  0  0  0  0  0  0  0  0  0
   62.8360   32.6270   49.2010 N   0  0  0  0  0  0  0  0  0  0  0  0
   62.9100   34.0060   49.7010 C   0  0  0  0  0  0  0  0  0  0  0  0
   61.8979   34.3423   49.9704 H   0  0  0  0  0  0  0  0  0  0  0  0
   63.3364   34.6364   48.9068 H   0  0  0  0  0  0  0  0  0  0  0  0
   63.8140   34.1140   50.9340 C   0  0  0  0  0  0  0  0  0  0  0  0
   63.3094   33.6523   51.7955 H   0  0  0  0  0  0  0  0  0  0  0  0
   64.0140   35.1760   51.1391 H   0  0  0  0  0  0  0  0  0  0  0  0
   65.0900   33.4250   50.6930 N   0  0  0  0  0  0  0  0  0  0  0  0
   66.3200   33.9840   51.2040 C   0  0  0  0  0  0  0  0  0  0  0  0
   66.2870   34.9620   52.0000 O   0  0  0  0  0  0  0  0  0  0  0  0
   67.6540   33.4070   50.8380 C   0  0  0  0  0  0  0  0  0  0  0  0
   68.2128   33.1653   51.7542 H   0  0  0  0  0  0  0  0  0  0  0  0
   67.5076   32.4918   50.2456 H   0  0  0  0  0  0  0  0  0  0  0  0
   68.2207   34.1405   50.2456 H   0  0  0  0  0  0  0  0  0  0  0  0
   65.0970   32.1120   50.0270 C   0  0  0  0  0  0  0  0  0  0  0  0
   65.6468   31.3968   50.6564 H   0  0  0  0  0  0  0  0  0  0  0  0
   65.5804   32.2297   49.0459 H   0  0  0  0  0  0  0  0  0  0  0  0
   63.6780   31.5810   49.7970 C   0  0  0  0  0  0  0  0  0  0  0  0
   63.2455   31.2709   50.7597 H   0  0  0  0  0  0  0  0  0  0  0  0
   63.7227   30.7218   49.1115 H   0  0  0  0  0  0  0  0  0  0  0  0
   60.7930   30.3460   49.0790 C   0  0  0  0  0  0  0  0  0  0  0  0
   60.9146   30.7863   50.0797 H   0  0  0  0  0  0  0  0  0  0  0  0
   60.1510   29.1140   48.9360 C   0  0  0  0  0  0  0  0  0  0  0  0
   59.7692   28.5900   49.8246 H   0  0  0  0  0  0  0  0  0  0  0  0
   57.1220   25.7870   47.1160 S   0  0  0  0  0  0  0  0  0  0  0  0
   56.7760   23.9660   44.4110 C   0  0  0  0  0  0  0  0  0  0  0  0
   57.2916   24.9113   44.6360 H   0  0  0  0  0  0  0  0  0  0  0  0
   57.2630   22.9180   43.6630 C   0  0  0  0  0  0  0  0  0  0  0  0
   58.2409   22.8560   43.1632 H   0  0  0  0  0  0  0  0  0  0  0  0
  1  2  1  0
  2  3  1  0
  3  4  1  0
  4  5  1  0
  5  6  1  0
  6  7  2  0
  6  8  1  0
  8  9  2  0
  9 10  1  0
 10 11  1  0
 11 12  1  0
 11 13  2  0
 13 14  1  0
 14 15  1  0
 15 16  2  0
 16 17  1  0
 16 18  1  0
 18 19  1  0
 18 20  2  0
 20 21  1  0
 21 22  2  0
 21 23  1  0
 23 24  1  0
 24 25  1  0
 24 26  1  0
 24 27  1  0
 27 28  1  0
 27 29  1  0
 27 30  1  0
 30 31  1  0
 31 32  2  0
 31 33  1  0
 33 34  1  0
 33 35  1  0
 33 36  1  0
 30 37  1  0
 37 38  1  0
 37 39  1  0
 37 40  1  0
 40 41  1  0
 40 42  1  0
 20 43  1  0
 43 44  1  0
 43 45  2  0
 45 46  1  0
 13 47  1  0
  5 48  2  0
 48 49  1  0
 48 50  1  0
 50 51  1  0
 50  3  2  0
 47  9  1  0
 45 15  1  0
 40 23  1  0
M  CHG  2   4  -1  10  -1
M  END
>  <UniqueID>  (83) 
79

>  <SMILES>  (83) 
CC(=O)N1CCN(C(=O)c2ccc(Oc3c[n-]/c(=N/C(=O)c4ccc(O)[n-]4)s3)cc2)CC1

>  <Energy>  (83) 
125.57959860008818

>  <Genealogy>  (83) 
CC(=O)N1CCN(C(=O)c2ccc(Oc3c[n-]c(=NC(=O)c4ccc(O)[n-]4)s3)cc2)CC1 (protonated)
CC(=O)N1CCN(C(=O)c2ccc(Oc3c[n-]/c(=N/C(=O)c4ccc(O)[n-]4)s3)cc2)CC1 (cis-trans isomerization)
CC(=O)N1CCN(C(=O)c2ccc(Oc3c[n-]/c(=N/C(=O)c4ccc(O)[n-]4)s3)cc2)CC1 (3D coordinates assigned)
CC(=O)N1CCN(C(=O)c2ccc(Oc3c[n-]/c(=N/C(=O)c4ccc(O)[n-]4)s3)cc2)CC1 (nonaromatic ring conformer: 125.57959860008818 kcal/mol)

>  <smiles>  (83) 
CC(=O)N1CCN(C(=O)c2ccc(Oc3c[nH]c(=NC(=O)c4ccc(O)[nH]4)s3)cc2)CC1

>  <score_type>  (83) 
oracle

>  <origin>  (83) 
adg

>  <m_score__min__energy>  (83) 
-12.550000000000001

>  <m_primary>  (83) 
energy

$$$$
85:0
     RDKit          3D

 55 58  0  0  0  0  0  0  0  0999 V2000
   59.1130   33.4840   43.6470 O   0  0  0  0  0  0  0  0  0  0  0  0
   58.2920   33.3770   44.9030 S   0  0  0  0  0  0  0  0  0  0  0  0
   57.2300   34.4400   44.8560 O   0  0  0  0  0  0  0  0  0  0  0  0
   57.5270   31.7840   44.9630 C   0  0  0  0  0  0  0  0  0  0  0  0
   56.2770   31.5760   44.3640 C   0  0  0  0  0  0  0  0  0  0  0  0
   55.6520   30.3290   44.4530 C   0  0  0  0  0  0  0  0  0  0  0  0
   56.2670   29.2810   45.1440 C   0  0  0  0  0  0  0  0  0  0  0  0
   55.6220   28.0550   45.2430 O   0  0  0  0  0  0  0  0  0  0  0  0
   57.5200   29.4790   45.7460 C   0  0  0  0  0  0  0  0  0  0  0  0
   58.1450   28.4340   46.5060 N   0  0  0  0  0  0  0  0  0  0  0  0
   58.2690   27.1000   45.9090 C   0  0  0  0  0  0  0  0  0  0  0  0
   59.0610   26.1700   46.8220 C   0  0  0  0  0  0  0  0  0  0  0  0
   60.1680   26.8700   47.3470 O   0  0  0  0  0  0  0  0  0  0  0  0
   59.7270   27.7670   48.3510 C   0  0  0  0  0  0  0  0  0  0  0  0
   58.6110   28.7330   47.8690 C   0  0  0  0  0  0  0  0  0  0  0  0
   58.1470   30.7270   45.6440 C   0  0  0  0  0  0  0  0  0  0  0  0
   59.3140   33.6510   46.2970 N   0  0  0  0  0  0  0  0  0  0  0  0
   60.3970   32.6440   46.3640 C   0  0  0  0  0  0  0  0  0  0  0  0
   60.9060   32.4340   47.7890 C   0  0  0  0  0  0  0  0  0  0  0  0
   59.7960   31.9830   48.6380 N   0  0  0  0  0  0  0  0  0  0  0  0
   60.0200   31.0330   49.7080 C   0  0  0  0  0  0  0  0  0  0  0  0
   61.2730   30.4200   49.8710 C   0  0  0  0  0  0  0  0  0  0  0  0
   61.4890   29.5070   50.9070 C   0  0  0  0  0  0  0  0  0  0  0  0
   60.4570   29.1840   51.7860 C   0  0  0  0  0  0  0  0  0  0  0  0
   59.1880   29.7730   51.6370 C   0  0  0  0  0  0  0  0  0  0  0  0
   58.0990   29.4820   52.6410 C   0  0  0  0  0  0  0  0  0  0  0  0
   58.2320   28.2050   53.1650 F   0  0  0  0  0  0  0  0  0  0  0  0
   58.1560   30.3870   53.6860 F   0  0  0  0  0  0  0  0  0  0  0  0
   56.8670   29.5900   52.0170 F   0  0  0  0  0  0  0  0  0  0  0  0
   58.9870   30.7180   50.6150 C   0  0  0  0  0  0  0  0  0  0  0  0
   58.4500   32.5190   48.3800 C   0  0  0  0  0  0  0  0  0  0  0  0
   58.5160   33.8050   47.5380 C   0  0  0  0  0  0  0  0  0  0  0  0
   55.7859   32.3974   43.8217 H   0  0  0  0  0  0  0  0  0  0  0  0
   54.6726   30.1717   43.9776 H   0  0  0  0  0  0  0  0  0  0  0  0
   57.2644   26.6808   45.7509 H   0  0  0  0  0  0  0  0  0  0  0  0
   58.8011   27.1906   44.9505 H   0  0  0  0  0  0  0  0  0  0  0  0
   58.4178   25.8271   47.6458 H   0  0  0  0  0  0  0  0  0  0  0  0
   59.4115   25.2989   46.2491 H   0  0  0  0  0  0  0  0  0  0  0  0
   59.3388   27.1802   49.1966 H   0  0  0  0  0  0  0  0  0  0  0  0
   60.5909   28.3856   48.6355 H   0  0  0  0  0  0  0  0  0  0  0  0
   57.7567   28.6538   48.5574 H   0  0  0  0  0  0  0  0  0  0  0  0
   59.0348   29.7480   47.8580 H   0  0  0  0  0  0  0  0  0  0  0  0
   59.1352   30.8794   46.1025 H   0  0  0  0  0  0  0  0  0  0  0  0
   60.0142   31.6868   45.9804 H   0  0  0  0  0  0  0  0  0  0  0  0
   61.2373   33.0126   45.7574 H   0  0  0  0  0  0  0  0  0  0  0  0
   61.7003   31.6730   47.7873 H   0  0  0  0  0  0  0  0  0  0  0  0
   61.3090   33.3799   48.1801 H   0  0  0  0  0  0  0  0  0  0  0  0
   62.0918   30.6606   49.1770 H   0  0  0  0  0  0  0  0  0  0  0  0
   62.4781   29.0413   51.0291 H   0  0  0  0  0  0  0  0  0  0  0  0
   60.6353   28.4656   52.5997 H   0  0  0  0  0  0  0  0  0  0  0  0
   58.0116   31.2179   50.5219 H   0  0  0  0  0  0  0  0  0  0  0  0
   57.8612   31.7647   47.8376 H   0  0  0  0  0  0  0  0  0  0  0  0
   57.9790   32.7579   49.3449 H   0  0  0  0  0  0  0  0  0  0  0  0
   57.4915   34.0945   47.2611 H   0  0  0  0  0  0  0  0  0  0  0  0
   59.0108   34.5723   48.1516 H   0  0  0  0  0  0  0  0  0  0  0  0
  1  2  2  0
  2  3  2  0
  2  4  1  0
  4  5  2  0
  5  6  1  0
  6  7  2  0
  7  8  1  0
  7  9  1  0
  9 10  1  0
 10 11  1  0
 11 12  1  0
 12 13  1  0
 13 14  1  0
 14 15  1  0
  9 16  2  0
  2 17  1  0
 17 18  1  0
 18 19  1  0
 19 20  1  0
 20 21  1  0
 21 22  2  0
 22 23  1  0
 23 24  2  0
 24 25  1  0
 25 26  1  0
 26 27  1  0
 26 28  1  0
 26 29  1  0
 25 30  2  0
 20 31  1  0
 31 32  1  0
 16  4  1  0
 32 17  1  0
 15 10  1  0
 30 21  1  0
  5 33  1  0
  6 34  1  0
 11 35  1  0
 11 36  1  0
 12 37  1  0
 12 38  1  0
 14 39  1  0
 14 40  1  0
 15 41  1  0
 15 42  1  0
 16 43  1  0
 18 44  1  0
 18 45  1  0
 19 46  1  0
 19 47  1  0
 22 48  1  0
 23 49  1  0
 24 50  1  0
 30 51  1  0
 31 52  1  0
 31 53  1  0
 32 54  1  0
 32 55  1  0
M  CHG  1   8  -1
M  END
>  <UniqueID>  (84) 
80

>  <SMILES>  (84) 
O=S(=O)(c1ccc([O-])c(N2CCOCC2)c1)N1CCN(c2cccc(C(F)(F)F)c2)CC1

>  <Energy>  (84) 
76.16764223469178

>  <Genealogy>  (84) 
O=S(=O)(c1ccc([O-])c(N2CCOCC2)c1)N1CCN(c2cccc(C(F)(F)F)c2)CC1 (protonated)
O=S(=O)(c1ccc([O-])c(N2CCOCC2)c1)N1CCN(c2cccc(C(F)(F)F)c2)CC1 (3D coordinates assigned)
O=S(=O)(c1ccc([O-])c(N2CCOCC2)c1)N1CCN(c2cccc(C(F)(F)F)c2)CC1 (nonaromatic ring conformer: 76.16764223469178 kcal/mol)

>  <smiles>  (84) 
O=S(=O)(c1ccc(O)c(N2CCOCC2)c1)N1CCN(c2cccc(C(F)(F)F)c2)CC1

>  <score_type>  (84) 
oracle

>  <origin>  (84) 
adg

>  <m_score__min__energy>  (84) 
-10.56

>  <m_primary>  (84) 
energy

$$$$
86:0
     RDKit          3D

 45 48  0  0  0  0  0  0  0  0999 V2000
   55.1600   26.5280   46.1770 O   0  0  0  0  0  0  0  0  0  0  0  0
   56.5320   26.2680   46.1520 C   0  0  0  0  0  0  0  0  0  0  0  0
   56.9750   25.0550   46.6950 C   0  0  0  0  0  0  0  0  0  0  0  0
   58.3220   24.6980   46.6330 C   0  0  0  0  0  0  0  0  0  0  0  0
   59.2430   25.5520   46.0270 C   0  0  0  0  0  0  0  0  0  0  0  0
   58.8210   26.7750   45.5010 C   0  0  0  0  0  0  0  0  0  0  0  0
   57.4700   27.1620   45.5730 C   0  0  0  0  0  0  0  0  0  0  0  0
   57.0930   28.5020   45.0720 C   0  0  0  0  0  0  0  0  0  0  0  0
   55.8560   29.0290   45.1740 N   0  0  0  0  0  0  0  0  0  0  0  0
   55.9580   30.2240   44.6810 O   0  0  0  0  0  0  0  0  0  0  0  0
   57.1930   30.4400   44.3050 C   0  0  0  0  0  0  0  0  0  0  0  0
   57.6740   31.7100   43.6740 C   0  0  0  0  0  0  0  0  0  0  0  0
   58.4290   32.5280   44.6460 N   0  0  0  0  0  0  0  0  0  0  0  0
   57.5530   33.5280   45.3090 C   0  0  0  0  0  0  0  0  0  0  0  0
   58.1120   33.9470   46.6730 C   0  0  0  0  0  0  0  0  0  0  0  0
   58.1510   32.8010   47.6090 N   0  0  0  0  0  0  0  0  0  0  0  0
   59.0910   33.0690   48.7170 C   0  0  0  0  0  0  0  0  0  0  0  0
   60.5030   32.8560   48.2670 C   0  0  0  0  0  0  0  0  0  0  0  0
   61.3250   31.8010   48.6420 C   0  0  0  0  0  0  0  0  0  0  0  0
   62.5970   31.8620   48.0610 C   0  0  0  0  0  0  0  0  0  0  0  0
   62.7790   32.9620   47.2320 C   0  0  0  0  0  0  0  0  0  0  0  0
   61.3560   33.8590   47.2210 S   0  0  0  0  0  0  0  0  0  0  0  0
   58.4290   31.5030   46.9390 C   0  0  0  0  0  0  0  0  0  0  0  0
   59.1770   31.6770   45.6070 C   0  0  0  0  0  0  0  0  0  0  0  0
   57.9780   29.3710   44.5360 N   0  0  0  0  0  0  0  0  0  0  0  0
   54.7700   27.4580   46.2420 H   0  0  0  0  0  0  0  0  0  0  0  0
   56.2535   24.3774   47.1750 H   0  0  0  0  0  0  0  0  0  0  0  0
   58.6579   23.7425   47.0623 H   0  0  0  0  0  0  0  0  0  0  0  0
   60.3022   25.2622   45.9633 H   0  0  0  0  0  0  0  0  0  0  0  0
   59.5533   27.4436   45.0248 H   0  0  0  0  0  0  0  0  0  0  0  0
   58.3282   31.4649   42.8244 H   0  0  0  0  0  0  0  0  0  0  0  0
   56.8011   32.2858   43.3327 H   0  0  0  0  0  0  0  0  0  0  0  0
   57.4751   34.4172   44.6661 H   0  0  0  0  0  0  0  0  0  0  0  0
   56.5648   33.0711   45.4663 H   0  0  0  0  0  0  0  0  0  0  0  0
   59.1322   34.3359   46.5388 H   0  0  0  0  0  0  0  0  0  0  0  0
   57.4551   34.7211   47.0964 H   0  0  0  0  0  0  0  0  0  0  0  0
   58.9702   34.1101   49.0509 H   0  0  0  0  0  0  0  0  0  0  0  0
   58.8725   32.3786   49.5450 H   0  0  0  0  0  0  0  0  0  0  0  0
   61.0087   30.9995   49.3257 H   0  0  0  0  0  0  0  0  0  0  0  0
   63.3788   31.1100   48.2435 H   0  0  0  0  0  0  0  0  0  0  0  0
   63.6973   33.2050   46.6773 H   0  0  0  0  0  0  0  0  0  0  0  0
   59.0425   30.8838   47.6100 H   0  0  0  0  0  0  0  0  0  0  0  0
   57.4624   31.0258   46.7200 H   0  0  0  0  0  0  0  0  0  0  0  0
   60.1525   32.1440   45.8077 H   0  0  0  0  0  0  0  0  0  0  0  0
   59.2931   30.6812   45.1543 H   0  0  0  0  0  0  0  0  0  0  0  0
  1  2  1  0
  2  3  2  0
  3  4  1  0
  4  5  2  0
  5  6  1  0
  6  7  2  0
  7  8  1  0
  8  9  2  0
  9 10  1  0
 10 11  1  0
 11 12  1  0
 12 13  1  0
 13 14  1  0
 14 15  1  0
 15 16  1  0
 16 17  1  0
 17 18  1  0
 18 19  2  0
 19 20  1  0
 20 21  2  0
 21 22  1  0
 16 23  1  0
 23 24  1  0
 11 25  2  0
  7  2  1  0
 25  8  1  0
 24 13  1  0
 22 18  1  0
  1 26  1  0
  3 27  1  0
  4 28  1  0
  5 29  1  0
  6 30  1  0
 12 31  1  0
 12 32  1  0
 14 33  1  0
 14 34  1  0
 15 35  1  0
 15 36  1  0
 17 37  1  0
 17 38  1  0
 19 39  1  0
 20 40  1  0
 21 41  1  0
 23 42  1  0
 23 43  1  0
 24 44  1  0
 24 45  1  0
M  END
>  <UniqueID>  (85) 
81

>  <SMILES>  (85) 
Oc1ccccc1-c1noc(CN2CCN(Cc3cccs3)CC2)n1

>  <Energy>  (85) 
124.23834191831611

>  <Genealogy>  (85) 
Oc1ccccc1-c1noc(CN2CCN(Cc3cccs3)CC2)n1 (3D coordinates assigned)
Oc1ccccc1-c1noc(CN2CCN(Cc3cccs3)CC2)n1 (nonaromatic ring conformer: 124.23834191831611 kcal/mol)

>  <smiles>  (85) 
Oc1ccccc1-c1noc(CN2CCN(Cc3cccs3)CC2)n1

>  <score_type>  (85) 
oracle

>  <origin>  (85) 
adg

>  <m_score__min__energy>  (85) 
-10.550000000000001

>  <m_primary>  (85) 
energy

$$$$
87:0
     RDKit          3D

 60 63  0  0  0  0  0  0  0  0999 V2000
   59.3838   28.6964   48.5658 H   0  0  0  0  0  0  0  0  0  0  0  0
   58.8860   27.8310   48.1040 C   0  0  0  0  0  0  0  0  0  0  0  0
   58.8290   26.8755   48.6460 H   0  0  0  0  0  0  0  0  0  0  0  0
   58.3480   27.9410   46.8790 C   0  0  0  0  0  0  0  0  0  0  0  0
   57.6880   26.9330   46.1700 C   0  0  0  0  0  0  0  0  0  0  0  0
   57.3910   25.6910   46.6020 C   0  0  0  0  0  0  0  0  0  0  0  0
   57.9267   25.3094   47.4837 H   0  0  0  0  0  0  0  0  0  0  0  0
   56.3930   24.8130   45.9660 C   0  0  0  0  0  0  0  0  0  0  0  0
   56.6850   23.5940   45.4820 N   0  0  0  0  0  0  0  0  0  0  0  0
   55.5210   23.1890   44.9280 C   0  0  0  0  0  0  0  0  0  0  0  0
   55.3880   22.0670   44.3740 O   0  0  0  0  0  0  0  0  0  0  0  0
   54.5130   24.0840   45.0090 N   0  0  0  0  0  0  0  0  0  0  0  0
   55.0840   25.1120   45.6570 C   0  0  0  0  0  0  0  0  0  0  0  0
   54.4340   26.3130   45.9150 O   0  0  0  0  0  0  0  0  0  0  0  0
   57.3430   27.4820   44.9420 C   0  0  0  0  0  0  0  0  0  0  0  0
   56.8114   26.9764   44.1224 H   0  0  0  0  0  0  0  0  0  0  0  0
   57.7970   28.7860   44.9500 C   0  0  0  0  0  0  0  0  0  0  0  0
   57.6230   29.7540   43.8180 C   0  0  0  0  0  0  0  0  0  0  0  0
   57.4420   30.7612   44.2214 H   0  0  0  0  0  0  0  0  0  0  0  0
   58.5337   29.7643   43.2011 H   0  0  0  0  0  0  0  0  0  0  0  0
   56.7657   29.4465   43.2011 H   0  0  0  0  0  0  0  0  0  0  0  0
   58.4120   29.0650   46.1200 N   0  0  0  0  0  0  0  0  0  0  0  0
   58.9780   30.3360   46.4890 C   0  0  0  0  0  0  0  0  0  0  0  0
   58.1420   31.4270   46.7660 C   0  0  0  0  0  0  0  0  0  0  0  0
   57.0504   31.3145   46.6895 H   0  0  0  0  0  0  0  0  0  0  0  0
   58.6910   32.6570   47.1390 C   0  0  0  0  0  0  0  0  0  0  0  0
   58.0280   33.5055   47.3636 H   0  0  0  0  0  0  0  0  0  0  0  0
   60.0840   32.8170   47.2290 C   0  0  0  0  0  0  0  0  0  0  0  0
   60.6300   34.1390   47.6220 C   0  0  0  0  0  0  0  0  0  0  0  0
   60.1220   35.1640   47.0890 O   0  0  0  0  0  0  0  0  0  0  0  0
   61.7310   34.3100   48.5560 N   0  0  0  0  0  0  0  0  0  0  0  0
   61.7420   35.3330   48.7950 H   0  0  0  0  0  0  0  0  0  0  0  0
   63.0750   34.0160   47.9790 C   0  0  0  0  0  0  0  0  0  0  0  0
   62.9661   33.8665   46.8947 H   0  0  0  0  0  0  0  0  0  0  0  0
   63.7276   34.8704   48.2117 H   0  0  0  0  0  0  0  0  0  0  0  0
   63.7260   32.7610   48.5840 C   0  0  0  0  0  0  0  0  0  0  0  0
   63.1092   31.8851   48.3341 H   0  0  0  0  0  0  0  0  0  0  0  0
   64.7384   32.6668   48.1642 H   0  0  0  0  0  0  0  0  0  0  0  0
   63.8480   32.8560   50.0600 N   0  0  0  0  0  0  0  0  0  0  0  0
   64.0730   31.5280   50.6750 C   0  0  0  0  0  0  0  0  0  0  0  0
   64.5383   30.8663   49.9296 H   0  0  0  0  0  0  0  0  0  0  0  0
   64.7260   31.6661   51.5494 H   0  0  0  0  0  0  0  0  0  0  0  0
   62.7670   30.8870   51.1580 C   0  0  0  0  0  0  0  0  0  0  0  0
   62.9870   29.9173   51.6285 H   0  0  0  0  0  0  0  0  0  0  0  0
   62.2833   31.5498   51.8906 H   0  0  0  0  0  0  0  0  0  0  0  0
   61.9020   30.6910   50.0590 O   0  0  0  0  0  0  0  0  0  0  0  0
   61.3700   29.3870   50.1100 C   0  0  0  0  0  0  0  0  0  0  0  0
   61.2458   29.0825   51.1597 H   0  0  0  0  0  0  0  0  0  0  0  0
   60.3929   29.3696   49.6051 H   0  0  0  0  0  0  0  0  0  0  0  0
   62.0561   28.6911   49.6051 H   0  0  0  0  0  0  0  0  0  0  0  0
   62.7110   33.5630   50.7070 C   0  0  0  0  0  0  0  0  0  0  0  0
   62.4648   33.0470   51.6467 H   0  0  0  0  0  0  0  0  0  0  0  0
   63.0236   34.6028   50.8834 H   0  0  0  0  0  0  0  0  0  0  0  0
   61.4550   33.6000   49.8230 C   0  0  0  0  0  0  0  0  0  0  0  0
   61.1401   32.5701   49.5991 H   0  0  0  0  0  0  0  0  0  0  0  0
   60.6578   34.1331   50.3618 H   0  0  0  0  0  0  0  0  0  0  0  0
   60.9170   31.7150   46.9730 C   0  0  0  0  0  0  0  0  0  0  0  0
   62.0081   31.8204   47.0651 H   0  0  0  0  0  0  0  0  0  0  0  0
   60.3660   30.4860   46.6020 C   0  0  0  0  0  0  0  0  0  0  0  0
   61.0265   29.6305   46.3973 H   0  0  0  0  0  0  0  0  0  0  0  0
  1  2  1  0
  2  3  1  0
  2  4  2  0
  4  5  1  0
  5  6  2  0
  6  7  1  0
  6  8  1  0
  8  9  1  0
  9 10  1  0
 10 11  2  0
 10 12  1  0
 12 13  1  0
 13 14  1  0
  5 15  1  0
 15 16  1  0
 15 17  2  0
 17 18  1  0
 18 19  1  0
 18 20  1  0
 18 21  1  0
 17 22  1  0
 22 23  1  0
 23 24  2  0
 24 25  1  0
 24 26  1  0
 26 27  1  0
 26 28  2  0
 28 29  1  0
 29 30  2  0
 29 31  1  0
 31 32  1  0
 31 33  1  0
 33 34  1  0
 33 35  1  0
 33 36  1  0
 36 37  1  0
 36 38  1  0
 36 39  1  0
 39 40  1  0
 40 41  1  0
 40 42  1  0
 40 43  1  0
 43 44  1  0
 43 45  1  0
 43 46  1  0
 46 47  1  0
 47 48  1  0
 47 49  1  0
 47 50  1  0
 39 51  1  0
 51 52  1  0
 51 53  1  0
 51 54  1  0
 54 55  1  0
 54 56  1  0
 28 57  1  0
 57 58  1  0
 57 59  2  0
 59 60  1  0
 22  4  1  0
 59 23  1  0
 13  8  2  0
 54 31  1  0
M  CHG  4   9  -1  12  -1  14  -1  31   1
M  END
>  <UniqueID>  (86) 
82

>  <SMILES>  (86) 
C=c1/c(=C/c2[n-]c(=O)[n-]c2[O-])cc(C)n1-c1ccc(C(=O)[NH+]2CCN(CCOC)CC2)cc1

>  <Energy>  (86) 
156.29743516304222

>  <Genealogy>  (86) 
C=c1c(=Cc2[n-]c(=O)[n-]c2[O-])cc(C)n1-c1ccc(C(=O)[NH+]2CCN(CCOC)CC2)cc1 (protonated)
C=c1/c(=C/c2[n-]c(=O)[n-]c2[O-])cc(C)n1-c1ccc(C(=O)[NH+]2CCN(CCOC)CC2)cc1 (cis-trans isomerization)
C=c1/c(=C/c2[n-]c(=O)[n-]c2[O-])cc(C)n1-c1ccc(C(=O)[NH+]2CCN(CCOC)CC2)cc1 (3D coordinates assigned)
C=c1/c(=C/c2[n-]c(=O)[n-]c2[O-])cc(C)n1-c1ccc(C(=O)[NH+]2CCN(CCOC)CC2)cc1 (nonaromatic ring conformer: 156.29743516304222 kcal/mol)

>  <smiles>  (86) 
C=c1c(=Cc2[nH]c(=O)[nH]c2O)cc(C)n1-c1ccc(C(=O)N2CCN(CCOC)CC2)cc1

>  <score_type>  (86) 
oracle

>  <origin>  (86) 
adg

>  <m_score__min__energy>  (86) 
-14.85

>  <m_primary>  (86) 
energy

$$$$
88:0
     RDKit          3D

 43 45  0  0  0  0  0  0  0  0999 V2000
   56.5878   30.5190   44.4205 H   0  0  0  0  0  0  0  0  0  0  0  0
   56.8540   29.5850   44.9370 C   0  0  0  0  0  0  0  0  0  0  0  0
   55.9100   28.6100   45.1030 N   0  0  0  0  0  0  0  0  0  0  0  0
   56.2530   27.4680   45.7470 C   0  0  0  0  0  0  0  0  0  0  0  0
   55.4530   26.4250   46.0010 N   0  0  0  0  0  0  0  0  0  0  0  0
   56.2950   25.5890   46.6710 C   0  0  0  0  0  0  0  0  0  0  0  0
   55.9390   24.4190   47.1060 N   0  0  0  0  0  0  0  0  0  0  0  0
   56.6780   23.2160   46.8630 C   0  0  0  0  0  0  0  0  0  0  0  0
   57.0640   22.5240   47.8410 O   0  0  0  0  0  0  0  0  0  0  0  0
   56.9330   22.7500   45.5340 N   0  0  0  0  0  0  0  0  0  0  0  0
   56.1120   23.0920   44.3780 C   0  0  0  0  0  0  0  0  0  0  0  0
   55.1736   23.5535   44.7194 H   0  0  0  0  0  0  0  0  0  0  0  0
   55.8876   22.1790   43.8070 H   0  0  0  0  0  0  0  0  0  0  0  0
   56.8630   24.0710   43.4890 C   0  0  0  0  0  0  0  0  0  0  0  0
   57.4131   24.7881   44.1161 H   0  0  0  0  0  0  0  0  0  0  0  0
   57.5722   23.5199   42.8539 H   0  0  0  0  0  0  0  0  0  0  0  0
   56.1469   24.6132   42.8539 H   0  0  0  0  0  0  0  0  0  0  0  0
   57.5630   26.0560   46.8320 N   0  0  0  0  0  0  0  0  0  0  0  0
   57.4990   27.2540   46.2350 C   0  0  0  0  0  0  0  0  0  0  0  0
   58.5020   28.2050   46.0980 C   0  0  0  0  0  0  0  0  0  0  0  0
   59.5121   28.0321   46.4978 H   0  0  0  0  0  0  0  0  0  0  0  0
   58.1740   29.4030   45.4250 C   0  0  0  0  0  0  0  0  0  0  0  0
   59.1950   30.5020   45.2970 C   0  0  0  0  0  0  0  0  0  0  0  0
   60.0288   30.3049   45.9868 H   0  0  0  0  0  0  0  0  0  0  0  0
   59.5623   30.5304   44.2605 H   0  0  0  0  0  0  0  0  0  0  0  0
   58.5900   31.8010   45.6260 N   0  0  0  0  0  0  0  0  0  0  0  0
   57.6270   32.4560   44.7690 C   0  0  0  0  0  0  0  0  0  0  0  0
   56.6350   33.0450   45.2800 O   0  0  0  0  0  0  0  0  0  0  0  0
   57.7790   32.4840   43.2780 C   0  0  0  0  0  0  0  0  0  0  0  0
   58.8307   32.6777   43.0202 H   0  0  0  0  0  0  0  0  0  0  0  0
   57.4716   31.5141   42.8598 H   0  0  0  0  0  0  0  0  0  0  0  0
   57.1462   33.2807   42.8598 H   0  0  0  0  0  0  0  0  0  0  0  0
   58.8860   32.3810   46.9070 C   0  0  0  0  0  0  0  0  0  0  0  0
   58.7270   31.6150   48.0710 C   0  0  0  0  0  0  0  0  0  0  0  0
   58.3588   30.5809   47.9996 H   0  0  0  0  0  0  0  0  0  0  0  0
   59.0340   32.1590   49.3210 C   0  0  0  0  0  0  0  0  0  0  0  0
   58.9105   31.5523   50.2302 H   0  0  0  0  0  0  0  0  0  0  0  0
   59.4980   33.4740   49.4160 C   0  0  0  0  0  0  0  0  0  0  0  0
   59.7423   33.9005   50.4001 H   0  0  0  0  0  0  0  0  0  0  0  0
   59.6520   34.2480   48.2620 C   0  0  0  0  0  0  0  0  0  0  0  0
   60.0127   35.2842   48.3406 H   0  0  0  0  0  0  0  0  0  0  0  0
   59.3480   33.7070   47.0050 C   0  0  0  0  0  0  0  0  0  0  0  0
   59.5290   34.7130   45.5740 Cl  0  0  0  0  0  0  0  0  0  0  0  0
  1  2  1  0
  2  3  2  0
  3  4  1  0
  4  5  1  0
  5  6  1  0
  6  7  2  0
  7  8  1  0
  8  9  2  0
  8 10  1  0
 10 11  1  0
 11 12  1  0
 11 13  1  0
 11 14  1  0
 14 15  1  0
 14 16  1  0
 14 17  1  0
  6 18  1  0
 18 19  1  0
 19 20  1  0
 20 21  1  0
 20 22  2  0
 22 23  1  0
 23 24  1  0
 23 25  1  0
 23 26  1  0
 26 27  1  0
 27 28  2  0
 27 29  1  0
 29 30  1  0
 29 31  1  0
 29 32  1  0
 26 33  1  0
 33 34  2  0
 34 35  1  0
 34 36  1  0
 36 37  1  0
 36 38  2  0
 38 39  1  0
 38 40  1  0
 40 41  1  0
 40 42  2  0
 42 43  1  0
 22  2  1  0
 42 33  1  0
 19  4  2  0
M  CHG  3   5  -1  10  -1  18  -1
M  END
>  <UniqueID>  (87) 
83

>  <SMILES>  (87) 
CC[N-]C(=O)/N=c1/[n-]c2cc(CN(C(C)=O)c3ccccc3Cl)cnc2[n-]1

>  <Energy>  (87) 
89.8487592362588

>  <Genealogy>  (87) 
CC[N-]C(=O)N=c1[n-]c2cc(CN(C(C)=O)c3ccccc3Cl)cnc2[n-]1 (protonated)
CC[N-]C(=O)/N=c1/[n-]c2cc(CN(C(C)=O)c3ccccc3Cl)cnc2[n-]1 (cis-trans isomerization)
CC[N-]C(=O)/N=c1/[n-]c2cc(CN(C(C)=O)c3ccccc3Cl)cnc2[n-]1 (3D coordinates assigned)
CC[N-]C(=O)/N=c1/[n-]c2cc(CN(C(C)=O)c3ccccc3Cl)cnc2[n-]1 (optimized conformer: 89.8487592362588 kcal/mol)

>  <smiles>  (87) 
CCNC(=O)N=c1[nH]c2cc(CN(C(C)=O)c3ccccc3Cl)cnc2[nH]1

>  <score_type>  (87) 
oracle

>  <origin>  (87) 
adg

>  <m_score__min__energy>  (87) 
-12.56

>  <m_primary>  (87) 
energy

$$$$
89:0
     RDKit          3D

 45 47  0  0  0  0  0  0  0  0999 V2000
   58.5980   29.5780   49.7780 C   0  0  0  0  0  0  0  0  0  0  0  0
   59.5350   30.6710   49.3470 C   0  0  0  0  0  0  0  0  0  0  0  0
   59.3770   31.9510   49.9010 C   0  0  0  0  0  0  0  0  0  0  0  0
   60.2510   32.9830   49.5590 C   0  0  0  0  0  0  0  0  0  0  0  0
   61.3000   32.7480   48.6730 C   0  0  0  0  0  0  0  0  0  0  0  0
   61.4790   31.4770   48.1050 C   0  0  0  0  0  0  0  0  0  0  0  0
   62.6050   31.2610   47.1310 C   0  0  0  0  0  0  0  0  0  0  0  0
   60.5600   30.4460   48.3960 C   0  0  0  0  0  0  0  0  0  0  0  0
   60.6980   29.2120   47.7440 O   0  0  0  0  0  0  0  0  0  0  0  0
   60.2680   28.9600   46.4030 C   0  0  0  0  0  0  0  0  0  0  0  0
   59.5360   27.6210   46.2850 C   0  0  0  0  0  0  0  0  0  0  0  0
   57.7780   27.7950   46.7520 S   0  0  0  0  0  0  0  0  0  0  0  0
   57.4830   29.1470   45.6160 C   0  0  0  0  0  0  0  0  0  0  0  0
   57.9460   30.3880   45.9140 N   0  0  0  0  0  0  0  0  0  0  0  0
   57.7390   31.4460   45.0810 C   0  0  0  0  0  0  0  0  0  0  0  0
   58.2600   32.7830   45.4620 C   0  0  0  0  0  0  0  0  0  0  0  0
   58.2830   33.1670   46.8170 C   0  0  0  0  0  0  0  0  0  0  0  0
   58.7770   34.4190   47.1930 C   0  0  0  0  0  0  0  0  0  0  0  0
   59.2610   35.3010   46.2250 C   0  0  0  0  0  0  0  0  0  0  0  0
   59.2560   34.9300   44.8790 C   0  0  0  0  0  0  0  0  0  0  0  0
   58.7630   33.6790   44.4960 C   0  0  0  0  0  0  0  0  0  0  0  0
   57.0170   31.2420   43.8960 C   0  0  0  0  0  0  0  0  0  0  0  0
   56.5500   29.9580   43.6020 C   0  0  0  0  0  0  0  0  0  0  0  0
   55.9010   29.7520   42.5430 O   0  0  0  0  0  0  0  0  0  0  0  0
   56.7950   28.9340   44.4630 N   0  0  0  0  0  0  0  0  0  0  0  0
   58.5630   29.5371   50.8767 H   0  0  0  0  0  0  0  0  0  0  0  0
   57.5907   29.7830   49.3864 H   0  0  0  0  0  0  0  0  0  0  0  0
   58.9545   28.6139   49.3864 H   0  0  0  0  0  0  0  0  0  0  0  0
   58.5579   32.1417   50.6101 H   0  0  0  0  0  0  0  0  0  0  0  0
   60.1115   33.9853   49.9902 H   0  0  0  0  0  0  0  0  0  0  0  0
   61.9923   33.5636   48.4169 H   0  0  0  0  0  0  0  0  0  0  0  0
   63.5389   31.0819   47.6840 H   0  0  0  0  0  0  0  0  0  0  0  0
   62.3805   30.3895   46.4984 H   0  0  0  0  0  0  0  0  0  0  0  0
   62.7189   32.1537   46.4984 H   0  0  0  0  0  0  0  0  0  0  0  0
   59.5889   29.7663   46.0890 H   0  0  0  0  0  0  0  0  0  0  0  0
   61.1589   28.9215   45.7589 H   0  0  0  0  0  0  0  0  0  0  0  0
   59.5991   27.2665   45.2456 H   0  0  0  0  0  0  0  0  0  0  0  0
   60.0108   26.8999   46.9666 H   0  0  0  0  0  0  0  0  0  0  0  0
   57.9088   32.4752   47.5861 H   0  0  0  0  0  0  0  0  0  0  0  0
   58.7845   34.7102   48.2537 H   0  0  0  0  0  0  0  0  0  0  0  0
   59.6460   36.2875   46.5226 H   0  0  0  0  0  0  0  0  0  0  0  0
   59.6411   35.6241   44.1175 H   0  0  0  0  0  0  0  0  0  0  0  0
   58.7675   33.3917   43.4342 H   0  0  0  0  0  0  0  0  0  0  0  0
   56.8215   32.0788   43.2093 H   0  0  0  0  0  0  0  0  0  0  0  0
   56.4490   27.9740   44.2370 H   0  0  0  0  0  0  0  0  0  0  0  0
  1  2  1  0
  2  3  2  0
  3  4  1  0
  4  5  2  0
  5  6  1  0
  6  7  1  0
  6  8  2  0
  8  9  1  0
  9 10  1  0
 10 11  1  0
 11 12  1  0
 12 13  1  0
 13 14  2  0
 14 15  1  0
 15 16  1  0
 16 17  2  0
 17 18  1  0
 18 19  2  0
 19 20  1  0
 20 21  2  0
 15 22  2  0
 22 23  1  0
 23 24  2  0
 23 25  1  0
  8  2  1  0
 25 13  1  0
 21 16  1  0
  1 26  1  0
  1 27  1  0
  1 28  1  0
  3 29  1  0
  4 30  1  0
  5 31  1  0
  7 32  1  0
  7 33  1  0
  7 34  1  0
 10 35  1  0
 10 36  1  0
 11 37  1  0
 11 38  1  0
 17 39  1  0
 18 40  1  0
 19 41  1  0
 20 42  1  0
 21 43  1  0
 22 44  1  0
 25 45  1  0
M  END
>  <UniqueID>  (88) 
84

>  <SMILES>  (88) 
Cc1cccc(C)c1OCCSc1nc(-c2ccccc2)cc(=O)[nH]1

>  <Energy>  (88) 
51.1544710593694

>  <Genealogy>  (88) 
Cc1cccc(C)c1OCCSc1nc(-c2ccccc2)cc(=O)[nH]1 (3D coordinates assigned)
Cc1cccc(C)c1OCCSc1nc(-c2ccccc2)cc(=O)[nH]1 (optimized conformer: 51.1544710593694 kcal/mol)

>  <smiles>  (88) 
Cc1cccc(C)c1OCCSc1nc(-c2ccccc2)cc(=O)[nH]1

>  <score_type>  (88) 
oracle

>  <origin>  (88) 
adg

>  <m_score__min__energy>  (88) 
-7.9299999999999997

>  <m_primary>  (88) 
energy

$$$$
90:0
     RDKit          3D

 60 64  0  0  0  0  0  0  0  0999 V2000
   62.1912   29.6539   45.1475 H   0  0  0  0  0  0  0  0  0  0  0  0
   61.5770   28.9590   44.5560 C   0  0  0  0  0  0  0  0  0  0  0  0
   61.9511   28.5757   43.5952 H   0  0  0  0  0  0  0  0  0  0  0  0
   60.3780   28.5810   45.0040 C   0  0  0  0  0  0  0  0  0  0  0  0
   59.5880   27.7280   44.3100 N   0  0  0  0  0  0  0  0  0  0  0  0
   58.4620   27.6330   45.0490 C   0  0  0  0  0  0  0  0  0  0  0  0
   57.3860   26.9020   44.7210 C   0  0  0  0  0  0  0  0  0  0  0  0
   56.8224   27.1930   43.8223 H   0  0  0  0  0  0  0  0  0  0  0  0
   56.9080   25.7340   45.4850 C   0  0  0  0  0  0  0  0  0  0  0  0
   57.6720   24.6380   45.6900 N   0  0  0  0  0  0  0  0  0  0  0  0
   56.8610   23.7940   46.3630 C   0  0  0  0  0  0  0  0  0  0  0  0
   57.2220   22.6410   46.7210 O   0  0  0  0  0  0  0  0  0  0  0  0
   55.6320   24.2950   46.5940 N   0  0  0  0  0  0  0  0  0  0  0  0
   54.4840   23.6090   47.1760 C   0  0  0  0  0  0  0  0  0  0  0  0
   54.5506   23.6488   48.2733 H   0  0  0  0  0  0  0  0  0  0  0  0
   53.5571   24.1014   46.8468 H   0  0  0  0  0  0  0  0  0  0  0  0
   54.4785   22.5594   46.8468 H   0  0  0  0  0  0  0  0  0  0  0  0
   55.6470   25.5040   46.0120 C   0  0  0  0  0  0  0  0  0  0  0  0
   54.5360   26.3310   45.9060 O   0  0  0  0  0  0  0  0  0  0  0  0
   58.5900   28.4380   46.1600 C   0  0  0  0  0  0  0  0  0  0  0  0
   57.7290   28.5930   47.0690 O   0  0  0  0  0  0  0  0  0  0  0  0
   59.7970   29.0300   46.1480 N   0  0  0  0  0  0  0  0  0  0  0  0
   60.3290   29.9220   47.1440 C   0  0  0  0  0  0  0  0  0  0  0  0
   60.7580   29.4230   48.3820 C   0  0  0  0  0  0  0  0  0  0  0  0
   60.6943   28.3447   48.5901 H   0  0  0  0  0  0  0  0  0  0  0  0
   61.2660   30.2900   49.3520 C   0  0  0  0  0  0  0  0  0  0  0  0
   61.5921   29.8939   50.3250 H   0  0  0  0  0  0  0  0  0  0  0  0
   61.3610   31.6580   49.0900 C   0  0  0  0  0  0  0  0  0  0  0  0
   61.7417   32.3389   49.8655 H   0  0  0  0  0  0  0  0  0  0  0  0
   60.9730   32.1680   47.8420 C   0  0  0  0  0  0  0  0  0  0  0  0
   61.0550   33.6160   47.5380 C   0  0  0  0  0  0  0  0  0  0  0  0
   62.2060   34.1340   47.5380 O   0  0  0  0  0  0  0  0  0  0  0  0
   59.8950   34.4890   47.3710 N   0  0  0  0  0  0  0  0  0  0  0  0
   60.0720   35.2890   48.0240 H   0  0  0  0  0  0  0  0  0  0  0  0
   59.8620   35.0770   46.0170 C   0  0  0  0  0  0  0  0  0  0  0  0
   59.0969   35.8667   45.9875 H   0  0  0  0  0  0  0  0  0  0  0  0
   60.8562   35.4911   45.7931 H   0  0  0  0  0  0  0  0  0  0  0  0
   59.5290   34.0200   44.9620 C   0  0  0  0  0  0  0  0  0  0  0  0
   59.3103   34.5217   44.0078 H   0  0  0  0  0  0  0  0  0  0  0  0
   60.3933   33.3477   44.8570 H   0  0  0  0  0  0  0  0  0  0  0  0
   58.3650   33.2220   45.3610 N   0  0  0  0  0  0  0  0  0  0  0  0
   57.7920   32.2980   44.4080 C   0  0  0  0  0  0  0  0  0  0  0  0
   57.0810   31.1640   44.8460 C   0  0  0  0  0  0  0  0  0  0  0  0
   56.9646   30.9748   45.9233 H   0  0  0  0  0  0  0  0  0  0  0  0
   56.5220   30.2770   43.9210 C   0  0  0  0  0  0  0  0  0  0  0  0
   55.9676   29.3945   44.2728 H   0  0  0  0  0  0  0  0  0  0  0  0
   56.6660   30.5090   42.5510 C   0  0  0  0  0  0  0  0  0  0  0  0
   56.2276   29.8085   41.8250 H   0  0  0  0  0  0  0  0  0  0  0  0
   57.3670   31.6310   42.1040 C   0  0  0  0  0  0  0  0  0  0  0  0
   57.4809   31.8136   41.0253 H   0  0  0  0  0  0  0  0  0  0  0  0
   57.9240   32.5220   43.0250 C   0  0  0  0  0  0  0  0  0  0  0  0
   58.4706   33.4064   42.6658 H   0  0  0  0  0  0  0  0  0  0  0  0
   57.6360   33.5490   46.5950 C   0  0  0  0  0  0  0  0  0  0  0  0
   56.9739   34.4045   46.3954 H   0  0  0  0  0  0  0  0  0  0  0  0
   57.0696   32.6537   46.8912 H   0  0  0  0  0  0  0  0  0  0  0  0
   58.5760   33.9150   47.7710 C   0  0  0  0  0  0  0  0  0  0  0  0
   58.0603   34.6533   48.4027 H   0  0  0  0  0  0  0  0  0  0  0  0
   58.7971   32.9718   48.2921 H   0  0  0  0  0  0  0  0  0  0  0  0
   60.4470   31.2960   46.8770 C   0  0  0  0  0  0  0  0  0  0  0  0
   60.1242   31.6918   45.9028 H   0  0  0  0  0  0  0  0  0  0  0  0
  1  2  1  0
  2  3  1  0
  2  4  2  0
  4  5  1  0
  5  6  1  0
  6  7  2  0
  7  8  1  0
  7  9  1  0
  9 10  1  0
 10 11  1  0
 11 12  2  0
 11 13  1  0
 13 14  1  0
 14 15  1  0
 14 16  1  0
 14 17  1  0
 13 18  1  0
 18 19  1  0
  6 20  1  0
 20 21  2  0
 20 22  1  0
 22 23  1  0
 23 24  2  0
 24 25  1  0
 24 26  1  0
 26 27  1  0
 26 28  2  0
 28 29  1  0
 28 30  1  0
 30 31  1  0
 31 32  2  0
 31 33  1  0
 33 34  1  0
 33 35  1  0
 35 36  1  0
 35 37  1  0
 35 38  1  0
 38 39  1  0
 38 40  1  0
 38 41  1  0
 41 42  1  0
 42 43  2  0
 43 44  1  0
 43 45  1  0
 45 46  1  0
 45 47  2  0
 47 48  1  0
 47 49  1  0
 49 50  1  0
 49 51  2  0
 51 52  1  0
 41 53  1  0
 53 54  1  0
 53 55  1  0
 53 56  1  0
 56 57  1  0
 56 58  1  0
 30 59  2  0
 59 60  1  0
 22  4  1  0
 59 23  1  0
 18  9  2  0
 56 33  1  0
 51 42  1  0
M  CHG  4   5  -1  10  -1  19  -1  33   1
M  END
>  <UniqueID>  (89) 
85

>  <SMILES>  (89) 
C=c1[n-]/c(=C\c2[n-]c(=O)n(C)c2[O-])c(=O)n1-c1cccc(C(=O)[NH+]2CCN(c3ccccc3)CC2)c1

>  <Energy>  (89) 
164.97790324428485

>  <Genealogy>  (89) 
C=c1[n-]c(=Cc2[n-]c(=O)n(C)c2[O-])c(=O)n1-c1cccc(C(=O)[NH+]2CCN(c3ccccc3)CC2)c1 (protonated)
C=c1[n-]/c(=C\c2[n-]c(=O)n(C)c2[O-])c(=O)n1-c1cccc(C(=O)[NH+]2CCN(c3ccccc3)CC2)c1 (cis-trans isomerization)
C=c1[n-]/c(=C\c2[n-]c(=O)n(C)c2[O-])c(=O)n1-c1cccc(C(=O)[NH+]2CCN(c3ccccc3)CC2)c1 (3D coordinates assigned)
C=c1[n-]/c(=C\c2[n-]c(=O)n(C)c2[O-])c(=O)n1-c1cccc(C(=O)[NH+]2CCN(c3ccccc3)CC2)c1 (nonaromatic ring conformer: 164.97790324428485 kcal/mol)

>  <smiles>  (89) 
C=c1[nH]c(=Cc2[nH]c(=O)n(C)c2O)c(=O)n1-c1cccc(C(=O)N2CCN(c3ccccc3)CC2)c1

>  <score_type>  (89) 
oracle

>  <origin>  (89) 
adg

>  <m_score__min__energy>  (89) 
-15.82

>  <m_primary>  (89) 
energy

$$$$
91:0
     RDKit          3D

 55 57  0  0  0  0  0  0  0  0999 V2000
   56.0650   23.2310   43.1380 C   0  0  0  0  0  0  0  0  0  0  0  0
   56.8940   23.9010   44.2370 C   0  0  0  0  0  0  0  0  0  0  0  0
   57.9700   22.9640   44.7960 C   0  0  0  0  0  0  0  0  0  0  0  0
   56.0520   24.4490   45.3060 N   0  0  0  0  0  0  0  0  0  0  0  0
   55.9890   25.7940   45.8120 C   0  0  0  0  0  0  0  0  0  0  0  0
   54.8600   26.3260   45.9800 O   0  0  0  0  0  0  0  0  0  0  0  0
   57.1890   26.5750   46.1600 C   0  0  0  0  0  0  0  0  0  0  0  0
   58.2430   25.9450   46.8410 C   0  0  0  0  0  0  0  0  0  0  0  0
   59.3600   26.6820   47.2480 C   0  0  0  0  0  0  0  0  0  0  0  0
   59.4230   28.0550   46.9930 C   0  0  0  0  0  0  0  0  0  0  0  0
   58.3640   28.6980   46.3460 C   0  0  0  0  0  0  0  0  0  0  0  0
   57.2290   27.9710   45.9470 C   0  0  0  0  0  0  0  0  0  0  0  0
   56.1400   28.6190   45.2740 N   0  0  0  0  0  0  0  0  0  0  0  0
   56.3050   29.4470   43.7610 S   0  0  0  0  0  0  0  0  0  0  0  0
   54.9370   29.7000   43.1900 O   0  0  0  0  0  0  0  0  0  0  0  0
   57.0550   28.5630   42.8070 O   0  0  0  0  0  0  0  0  0  0  0  0
   57.1820   30.9650   43.9370 C   0  0  0  0  0  0  0  0  0  0  0  0
   57.6550   31.6440   42.8030 C   0  0  0  0  0  0  0  0  0  0  0  0
   58.3340   32.8550   42.9440 C   0  0  0  0  0  0  0  0  0  0  0  0
   58.5490   33.3960   44.2130 C   0  0  0  0  0  0  0  0  0  0  0  0
   58.0830   32.7290   45.3600 C   0  0  0  0  0  0  0  0  0  0  0  0
   58.3440   33.2920   46.7040 C   0  0  0  0  0  0  0  0  0  0  0  0
   57.3750   33.5610   47.4700 O   0  0  0  0  0  0  0  0  0  0  0  0
   59.6910   33.4960   47.1650 N   0  0  0  0  0  0  0  0  0  0  0  0
   60.6040   34.3490   46.3910 C   0  0  0  0  0  0  0  0  0  0  0  0
   62.0380   33.8130   46.4810 C   0  0  0  0  0  0  0  0  0  0  0  0
   62.4490   33.5870   47.9410 C   0  0  0  0  0  0  0  0  0  0  0  0
   61.4600   32.6550   48.6490 C   0  0  0  0  0  0  0  0  0  0  0  0
   60.0320   33.2060   48.5620 C   0  0  0  0  0  0  0  0  0  0  0  0
   57.4030   31.5060   45.2130 C   0  0  0  0  0  0  0  0  0  0  0  0
   55.2875   22.6026   43.5968 H   0  0  0  0  0  0  0  0  0  0  0  0
   55.5914   24.0030   42.5138 H   0  0  0  0  0  0  0  0  0  0  0  0
   56.7205   22.6060   42.5138 H   0  0  0  0  0  0  0  0  0  0  0  0
   57.4127   24.7488   43.7655 H   0  0  0  0  0  0  0  0  0  0  0  0
   57.9422   22.9883   45.8954 H   0  0  0  0  0  0  0  0  0  0  0  0
   57.7803   21.9382   44.4469 H   0  0  0  0  0  0  0  0  0  0  0  0
   58.9599   23.2929   44.4469 H   0  0  0  0  0  0  0  0  0  0  0  0
   58.1901   24.8674   47.0553 H   0  0  0  0  0  0  0  0  0  0  0  0
   60.1892   26.1810   47.7690 H   0  0  0  0  0  0  0  0  0  0  0  0
   60.3079   28.6306   47.3022 H   0  0  0  0  0  0  0  0  0  0  0  0
   58.4190   29.7786   46.1480 H   0  0  0  0  0  0  0  0  0  0  0  0
   57.4901   31.2206   41.8012 H   0  0  0  0  0  0  0  0  0  0  0  0
   58.7009   33.3849   42.0526 H   0  0  0  0  0  0  0  0  0  0  0  0
   59.0864   34.3502   44.3163 H   0  0  0  0  0  0  0  0  0  0  0  0
   60.2859   34.3593   45.3381 H   0  0  0  0  0  0  0  0  0  0  0  0
   60.5766   35.3686   46.8029 H   0  0  0  0  0  0  0  0  0  0  0  0
   62.1001   32.8585   45.9378 H   0  0  0  0  0  0  0  0  0  0  0  0
   62.7180   34.5543   46.0360 H   0  0  0  0  0  0  0  0  0  0  0  0
   63.4516   33.1352   47.9672 H   0  0  0  0  0  0  0  0  0  0  0  0
   62.4512   34.5569   48.4599 H   0  0  0  0  0  0  0  0  0  0  0  0
   61.4937   31.6645   48.1718 H   0  0  0  0  0  0  0  0  0  0  0  0
   61.7442   32.5803   49.7090 H   0  0  0  0  0  0  0  0  0  0  0  0
   59.3288   32.4604   48.9615 H   0  0  0  0  0  0  0  0  0  0  0  0
   59.9660   34.1333   49.1500 H   0  0  0  0  0  0  0  0  0  0  0  0
   57.0424   30.9706   46.1037 H   0  0  0  0  0  0  0  0  0  0  0  0
  1  2  1  0
  2  3  1  0
  2  4  1  0
  4  5  1  0
  5  6  2  0
  5  7  1  0
  7  8  2  0
  8  9  1  0
  9 10  2  0
 10 11  1  0
 11 12  2  0
 12 13  1  0
 13 14  1  0
 14 15  2  0
 14 16  2  0
 14 17  1  0
 17 18  2  0
 18 19  1  0
 19 20  2  0
 20 21  1  0
 21 22  1  0
 22 23  2  0
 22 24  1  0
 24 25  1  0
 25 26  1  0
 26 27  1  0
 27 28  1  0
 28 29  1  0
 21 30  2  0
 12  7  1  0
 30 17  1  0
 29 24  1  0
  1 31  1  0
  1 32  1  0
  1 33  1  0
  2 34  1  0
  3 35  1  0
  3 36  1  0
  3 37  1  0
  8 38  1  0
  9 39  1  0
 10 40  1  0
 11 41  1  0
 18 42  1  0
 19 43  1  0
 20 44  1  0
 25 45  1  0
 25 46  1  0
 26 47  1  0
 26 48  1  0
 27 49  1  0
 27 50  1  0
 28 51  1  0
 28 52  1  0
 29 53  1  0
 29 54  1  0
 30 55  1  0
M  CHG  2   4  -1  13  -1
M  END
>  <UniqueID>  (90) 
86

>  <SMILES>  (90) 
CC(C)[N-]C(=O)c1ccccc1[N-]S(=O)(=O)c1cccc(C(=O)N2CCCCC2)c1

>  <Energy>  (90) 
67.6815449741319

>  <Genealogy>  (90) 
CC(C)[N-]C(=O)c1ccccc1[N-]S(=O)(=O)c1cccc(C(=O)N2CCCCC2)c1 (protonated)
CC(C)[N-]C(=O)c1ccccc1[N-]S(=O)(=O)c1cccc(C(=O)N2CCCCC2)c1 (3D coordinates assigned)
CC(C)[N-]C(=O)c1ccccc1[N-]S(=O)(=O)c1cccc(C(=O)N2CCCCC2)c1 (nonaromatic ring conformer: 67.6815449741319 kcal/mol)

>  <smiles>  (90) 
CC(C)NC(=O)c1ccccc1NS(=O)(=O)c1cccc(C(=O)N2CCCCC2)c1

>  <score_type>  (90) 
oracle

>  <origin>  (90) 
adg

>  <m_score__min__energy>  (90) 
-13.9

>  <m_primary>  (90) 
energy

$$$$
92:0
     RDKit          3D

 59 61  0  0  0  0  0  0  0  0999 V2000
   57.0190   31.2460   42.0230 C   0  0  0  0  0  0  0  0  0  0  0  0
   56.7880   30.2890   42.9260 C   0  0  0  0  0  0  0  0  0  0  0  0
   56.0760   30.5960   44.2120 C   0  0  0  0  0  0  0  0  0  0  0  0
   57.0240   31.0820   45.2110 N   0  0  0  0  0  0  0  0  0  0  0  0
   57.7170   32.3290   45.0950 C   0  0  0  0  0  0  0  0  0  0  0  0
   57.6560   32.9910   44.0210 O   0  0  0  0  0  0  0  0  0  0  0  0
   58.4430   32.8680   46.2650 C   0  0  0  0  0  0  0  0  0  0  0  0
   58.5340   34.2570   46.3750 C   0  0  0  0  0  0  0  0  0  0  0  0
   59.2130   34.8340   47.4350 C   0  0  0  0  0  0  0  0  0  0  0  0
   59.7950   34.0250   48.4060 C   0  0  0  0  0  0  0  0  0  0  0  0
   60.3990   34.5870   49.3630 O   0  0  0  0  0  0  0  0  0  0  0  0
   59.7040   32.6500   48.3280 N   0  0  0  0  0  0  0  0  0  0  0  0
   60.3050   31.8300   49.4110 C   0  0  0  0  0  0  0  0  0  0  0  0
   59.2510   31.2590   50.3300 C   0  0  0  0  0  0  0  0  0  0  0  0
   59.3920   29.9780   50.8850 C   0  0  0  0  0  0  0  0  0  0  0  0
   58.4450   29.4880   51.7890 C   0  0  0  0  0  0  0  0  0  0  0  0
   57.3220   30.2610   52.1250 C   0  0  0  0  0  0  0  0  0  0  0  0
   56.3360   29.7570   53.1050 C   0  0  0  0  0  0  0  0  0  0  0  0
   56.7330   29.0380   54.0650 O   0  0  0  0  0  0  0  0  0  0  0  0
   54.9380   30.0820   52.9860 N   0  0  0  0  0  0  0  0  0  0  0  0
   54.1520   30.3440   54.2010 C   0  0  0  0  0  0  0  0  0  0  0  0
   52.6420   30.3830   53.9170 C   0  0  0  0  0  0  0  0  0  0  0  0
   52.3520   31.1870   52.7170 N   0  0  0  0  0  0  0  0  0  0  0  0
   51.1440   31.9730   52.6210 C   0  0  0  0  0  0  0  0  0  0  0  0
   50.0280   31.8540   53.6220 C   0  0  0  0  0  0  0  0  0  0  0  0
   51.0200   32.8100   51.6860 O   0  0  0  0  0  0  0  0  0  0  0  0
   53.2300   31.0880   51.5320 C   0  0  0  0  0  0  0  0  0  0  0  0
   54.2640   29.9700   51.6840 C   0  0  0  0  0  0  0  0  0  0  0  0
   57.1420   31.5120   51.5170 C   0  0  0  0  0  0  0  0  0  0  0  0
   58.1020   32.0100   50.6310 C   0  0  0  0  0  0  0  0  0  0  0  0
   59.0330   32.0510   47.2700 C   0  0  0  0  0  0  0  0  0  0  0  0
   58.8370   30.5400   47.2430 C   0  0  0  0  0  0  0  0  0  0  0  0
   57.5420   31.0035   41.0862 H   0  0  0  0  0  0  0  0  0  0  0  0
   56.6862   32.2765   42.2163 H   0  0  0  0  0  0  0  0  0  0  0  0
   57.1242   29.2612   42.7246 H   0  0  0  0  0  0  0  0  0  0  0  0
   55.3133   31.3674   44.0296 H   0  0  0  0  0  0  0  0  0  0  0  0
   55.6001   29.6776   44.5863 H   0  0  0  0  0  0  0  0  0  0  0  0
   58.0631   34.8972   45.6145 H   0  0  0  0  0  0  0  0  0  0  0  0
   59.2920   35.9286   47.5092 H   0  0  0  0  0  0  0  0  0  0  0  0
   60.8704   31.0018   48.9590 H   0  0  0  0  0  0  0  0  0  0  0  0
   60.9642   32.4787   50.0066 H   0  0  0  0  0  0  0  0  0  0  0  0
   60.2544   29.3545   50.6066 H   0  0  0  0  0  0  0  0  0  0  0  0
   58.5801   28.4933   52.2387 H   0  0  0  0  0  0  0  0  0  0  0  0
   54.3546   29.5481   54.9327 H   0  0  0  0  0  0  0  0  0  0  0  0
   54.4486   31.3293   54.5898 H   0  0  0  0  0  0  0  0  0  0  0  0
   52.2789   29.3567   53.7590 H   0  0  0  0  0  0  0  0  0  0  0  0
   52.1348   30.8425   54.7782 H   0  0  0  0  0  0  0  0  0  0  0  0
   50.4423   31.8982   54.6400 H   0  0  0  0  0  0  0  0  0  0  0  0
   49.3175   32.6815   53.4791 H   0  0  0  0  0  0  0  0  0  0  0  0
   49.5079   30.8953   53.4791 H   0  0  0  0  0  0  0  0  0  0  0  0
   52.6110   30.8828   50.6461 H   0  0  0  0  0  0  0  0  0  0  0  0
   53.7692   32.0408   51.4248 H   0  0  0  0  0  0  0  0  0  0  0  0
   53.7588   28.9951   51.6180 H   0  0  0  0  0  0  0  0  0  0  0  0
   55.0114   30.0579   50.8817 H   0  0  0  0  0  0  0  0  0  0  0  0
   56.2416   32.1039   51.7382 H   0  0  0  0  0  0  0  0  0  0  0  0
   57.9569   32.9964   50.1663 H   0  0  0  0  0  0  0  0  0  0  0  0
   58.7875   30.1582   48.2734 H   0  0  0  0  0  0  0  0  0  0  0  0
   57.9003   30.3011   46.7180 H   0  0  0  0  0  0  0  0  0  0  0  0
   59.6817   30.0700   46.7180 H   0  0  0  0  0  0  0  0  0  0  0  0
  1  2  2  0
  2  3  1  0
  3  4  1  0
  4  5  1  0
  5  6  2  0
  5  7  1  0
  7  8  1  0
  8  9  2  0
  9 10  1  0
 10 11  2  0
 10 12  1  0
 12 13  1  0
 13 14  1  0
 14 15  2  0
 15 16  1  0
 16 17  2  0
 17 18  1  0
 18 19  2  0
 18 20  1  0
 20 21  1  0
 21 22  1  0
 22 23  1  0
 23 24  1  0
 24 25  1  0
 24 26  2  0
 23 27  1  0
 27 28  1  0
 17 29  1  0
 29 30  2  0
 12 31  1  0
 31 32  1  0
 31  7  2  0
 30 14  1  0
 28 20  1  0
  1 33  1  0
  1 34  1  0
  2 35  1  0
  3 36  1  0
  3 37  1  0
  8 38  1  0
  9 39  1  0
 13 40  1  0
 13 41  1  0
 15 42  1  0
 16 43  1  0
 21 44  1  0
 21 45  1  0
 22 46  1  0
 22 47  1  0
 25 48  1  0
 25 49  1  0
 25 50  1  0
 27 51  1  0
 27 52  1  0
 28 53  1  0
 28 54  1  0
 29 55  1  0
 30 56  1  0
 32 57  1  0
 32 58  1  0
 32 59  1  0
M  CHG  1   4  -1
M  END
>  <UniqueID>  (91) 
87

>  <SMILES>  (91) 
C=CC[N-]C(=O)c1ccc(=O)n(Cc2ccc(C(=O)N3CCN(C(C)=O)CC3)cc2)c1C

>  <Energy>  (91) 
74.33672627406041

>  <Genealogy>  (91) 
C=CC[N-]C(=O)c1ccc(=O)n(Cc2ccc(C(=O)N3CCN(C(C)=O)CC3)cc2)c1C (protonated)
C=CC[N-]C(=O)c1ccc(=O)n(Cc2ccc(C(=O)N3CCN(C(C)=O)CC3)cc2)c1C (3D coordinates assigned)
C=CC[N-]C(=O)c1ccc(=O)n(Cc2ccc(C(=O)N3CCN(C(C)=O)CC3)cc2)c1C (nonaromatic ring conformer: 74.33672627406041 kcal/mol)

>  <smiles>  (91) 
C=CCNC(=O)c1ccc(=O)n(Cc2ccc(C(=O)N3CCN(C(C)=O)CC3)cc2)c1C

>  <score_type>  (91) 
oracle

>  <origin>  (91) 
adg

>  <m_score__min__energy>  (91) 
-10.390000000000001

>  <m_primary>  (91) 
energy

$$$$
93:0
     RDKit          3D

 51 53  0  0  0  0  0  0  0  0999 V2000
   60.9960   28.3390   50.3820 C   0  0  0  0  0  0  0  0  0  0  0  0
   60.1190   29.0280   49.4340 N   0  0  0  0  0  0  0  0  0  0  0  0
   59.7590   28.3970   48.1890 C   0  0  0  0  0  0  0  0  0  0  0  0
   60.7320   27.7360   47.4210 C   0  0  0  0  0  0  0  0  0  0  0  0
   60.3830   27.1120   46.2210 C   0  0  0  0  0  0  0  0  0  0  0  0
   59.0680   27.1680   45.7590 C   0  0  0  0  0  0  0  0  0  0  0  0
   58.0940   27.8700   46.4810 C   0  0  0  0  0  0  0  0  0  0  0  0
   56.7630   27.9420   45.9470 N   0  0  0  0  0  0  0  0  0  0  0  0
   56.3270   28.7780   44.8690 C   0  0  0  0  0  0  0  0  0  0  0  0
   55.1890   29.3170   44.8970 O   0  0  0  0  0  0  0  0  0  0  0  0
   57.2960   29.1170   43.7810 C   0  0  0  0  0  0  0  0  0  0  0  0
   58.2000   30.2010   44.1860 N   0  0  0  0  0  0  0  0  0  0  0  0
   57.3910   31.7420   44.1410 S   0  0  0  0  0  0  0  0  0  0  0  0
   55.9500   31.5780   44.5290 O   0  0  0  0  0  0  0  0  0  0  0  0
   57.4440   32.2810   42.7400 O   0  0  0  0  0  0  0  0  0  0  0  0
   58.1810   32.8860   45.2240 C   0  0  0  0  0  0  0  0  0  0  0  0
   58.1060   32.7160   46.6130 C   0  0  0  0  0  0  0  0  0  0  0  0
   58.7510   33.6170   47.4620 C   0  0  0  0  0  0  0  0  0  0  0  0
   59.4740   34.6890   46.9310 C   0  0  0  0  0  0  0  0  0  0  0  0
   59.5590   34.8580   45.5500 C   0  0  0  0  0  0  0  0  0  0  0  0
   58.9140   33.9590   44.6960 C   0  0  0  0  0  0  0  0  0  0  0  0
   58.4390   28.4620   47.7080 C   0  0  0  0  0  0  0  0  0  0  0  0
   59.8420   30.7340   49.6640 S   0  0  0  0  0  0  0  0  0  0  0  0
   59.8220   31.0450   51.1370 O   0  0  0  0  0  0  0  0  0  0  0  0
   58.5150   31.1460   49.0910 O   0  0  0  0  0  0  0  0  0  0  0  0
   61.1200   31.6540   48.8740 C   0  0  0  0  0  0  0  0  0  0  0  0
   61.5090   32.8950   49.3990 C   0  0  0  0  0  0  0  0  0  0  0  0
   62.5320   33.6270   48.7860 C   0  0  0  0  0  0  0  0  0  0  0  0
   63.1600   33.1290   47.6410 C   0  0  0  0  0  0  0  0  0  0  0  0
   62.7760   31.8930   47.1150 C   0  0  0  0  0  0  0  0  0  0  0  0
   61.7600   31.1550   47.7300 C   0  0  0  0  0  0  0  0  0  0  0  0
   60.6875   28.5814   51.4097 H   0  0  0  0  0  0  0  0  0  0  0  0
   60.9249   27.2527   50.2244 H   0  0  0  0  0  0  0  0  0  0  0  0
   62.0346   28.6652   50.2244 H   0  0  0  0  0  0  0  0  0  0  0  0
   61.7758   27.7096   47.7670 H   0  0  0  0  0  0  0  0  0  0  0  0
   61.1468   26.5753   45.6391 H   0  0  0  0  0  0  0  0  0  0  0  0
   58.7944   26.6585   44.8233 H   0  0  0  0  0  0  0  0  0  0  0  0
   57.8925   28.2242   43.5423 H   0  0  0  0  0  0  0  0  0  0  0  0
   56.7257   29.4525   42.9022 H   0  0  0  0  0  0  0  0  0  0  0  0
   58.9710   30.2520   43.4790 H   0  0  0  0  0  0  0  0  0  0  0  0
   57.5390   31.8727   47.0342 H   0  0  0  0  0  0  0  0  0  0  0  0
   58.6901   33.4830   48.5521 H   0  0  0  0  0  0  0  0  0  0  0  0
   59.9763   35.3999   47.6036 H   0  0  0  0  0  0  0  0  0  0  0  0
   60.1333   35.6982   45.1326 H   0  0  0  0  0  0  0  0  0  0  0  0
   58.9814   34.0934   43.6063 H   0  0  0  0  0  0  0  0  0  0  0  0
   57.6692   28.9812   48.2978 H   0  0  0  0  0  0  0  0  0  0  0  0
   61.0091   33.2936   50.2941 H   0  0  0  0  0  0  0  0  0  0  0  0
   62.8422   34.5953   49.2057 H   0  0  0  0  0  0  0  0  0  0  0  0
   63.9567   33.7103   47.1539 H   0  0  0  0  0  0  0  0  0  0  0  0
   63.2735   31.5000   46.2161 H   0  0  0  0  0  0  0  0  0  0  0  0
   61.4619   30.1806   47.3156 H   0  0  0  0  0  0  0  0  0  0  0  0
  1  2  1  0
  2  3  1  0
  3  4  2  0
  4  5  1  0
  5  6  2  0
  6  7  1  0
  7  8  1  0
  8  9  1  0
  9 10  2  0
  9 11  1  0
 11 12  1  0
 12 13  1  0
 13 14  2  0
 13 15  2  0
 13 16  1  0
 16 17  2  0
 17 18  1  0
 18 19  2  0
 19 20  1  0
 20 21  2  0
  7 22  2  0
  2 23  1  0
 23 24  2  0
 23 25  2  0
 23 26  1  0
 26 27  2  0
 27 28  1  0
 28 29  2  0
 29 30  1  0
 30 31  2  0
 22  3  1  0
 31 26  1  0
 21 16  1  0
  1 32  1  0
  1 33  1  0
  1 34  1  0
  4 35  1  0
  5 36  1  0
  6 37  1  0
 11 38  1  0
 11 39  1  0
 12 40  1  0
 17 41  1  0
 18 42  1  0
 19 43  1  0
 20 44  1  0
 21 45  1  0
 22 46  1  0
 27 47  1  0
 28 48  1  0
 29 49  1  0
 30 50  1  0
 31 51  1  0
M  CHG  1   8  -1
M  END
>  <UniqueID>  (92) 
88

>  <SMILES>  (92) 
CN(c1cccc([N-]C(=O)CNS(=O)(=O)c2ccccc2)c1)S(=O)(=O)c1ccccc1

>  <Energy>  (92) 
54.52460228188643

>  <Genealogy>  (92) 
CN(c1cccc([N-]C(=O)CNS(=O)(=O)c2ccccc2)c1)S(=O)(=O)c1ccccc1 (protonated)
CN(c1cccc([N-]C(=O)CNS(=O)(=O)c2ccccc2)c1)S(=O)(=O)c1ccccc1 (3D coordinates assigned)
CN(c1cccc([N-]C(=O)CNS(=O)(=O)c2ccccc2)c1)S(=O)(=O)c1ccccc1 (optimized conformer: 54.52460228188643 kcal/mol)

>  <smiles>  (92) 
CN(c1cccc(NC(=O)CNS(=O)(=O)c2ccccc2)c1)S(=O)(=O)c1ccccc1

>  <score_type>  (92) 
oracle

>  <origin>  (92) 
adg

>  <m_score__min__energy>  (92) 
-11.369999999999999

>  <m_primary>  (92) 
energy

$$$$
