0:0
     RDKit          3D

 56 59  0  0  0  0  0  0  0  0999 V2000
   55.9090   22.0970   42.5700 N   0  0  0  0  0  0  0  0  0  0  0  0
   56.4870   21.7110   43.8160 C   0  0  0  0  0  0  0  0  0  0  0  0
   55.9770   20.7670   44.4800 O   0  0  0  0  0  0  0  0  0  0  0  0
   57.6740   22.4530   44.3540 C   0  0  0  0  0  0  0  0  0  0  0  0
   58.3810   21.6580   45.4540 C   0  0  0  0  0  0  0  0  0  0  0  0
   57.6540   21.7840   46.7180 N   0  0  0  0  0  0  0  0  0  0  0  0
   56.9220   22.9350   47.1600 C   0  0  0  0  0  0  0  0  0  0  0  0
   57.3860   23.6070   48.1190 O   0  0  0  0  0  0  0  0  0  0  0  0
   55.6130   23.3170   46.5760 C   0  0  0  0  0  0  0  0  0  0  0  0
   54.4680   22.5680   46.8970 C   0  0  0  0  0  0  0  0  0  0  0  0
   53.2110   22.9520   46.4210 C   0  0  0  0  0  0  0  0  0  0  0  0
   53.0770   24.1030   45.6370 C   0  0  0  0  0  0  0  0  0  0  0  0
   54.2000   24.8740   45.3310 C   0  0  0  0  0  0  0  0  0  0  0  0
   55.4730   24.4970   45.8060 C   0  0  0  0  0  0  0  0  0  0  0  0
   56.6350   25.2680   45.4660 N   0  0  0  0  0  0  0  0  0  0  0  0
   57.1740   26.3390   46.2480 C   0  0  0  0  0  0  0  0  0  0  0  0
   57.3720   26.1910   47.4840 O   0  0  0  0  0  0  0  0  0  0  0  0
   57.5610   27.5940   45.5910 C   0  0  0  0  0  0  0  0  0  0  0  0
   57.7810   27.7750   44.2410 C   0  0  0  0  0  0  0  0  0  0  0  0
   58.1050   29.0550   44.0010 N   0  0  0  0  0  0  0  0  0  0  0  0
   58.1170   29.7020   45.1920 C   0  0  0  0  0  0  0  0  0  0  0  0
   58.4440   31.1470   45.3720 C   0  0  0  0  0  0  0  0  0  0  0  0
   57.7440   32.1390   44.6620 C   0  0  0  0  0  0  0  0  0  0  0  0
   58.0640   33.4840   44.8420 C   0  0  0  0  0  0  0  0  0  0  0  0
   59.0530   33.8410   45.6990 N   0  0  0  0  0  0  0  0  0  0  0  0
   59.7620   32.9210   46.4110 C   0  0  0  0  0  0  0  0  0  0  0  0
   60.8150   33.3650   47.2900 N   0  0  0  0  0  0  0  0  0  0  0  0
   60.6140   34.1950   48.4690 C   0  0  0  0  0  0  0  0  0  0  0  0
   61.9720   34.2710   49.1550 C   0  0  0  0  0  0  0  0  0  0  0  0
   62.9940   33.8220   48.1140 C   0  0  0  0  0  0  0  0  0  0  0  0
   62.2120   33.0210   47.0810 C   0  0  0  0  0  0  0  0  0  0  0  0
   59.4660   31.5550   46.2520 C   0  0  0  0  0  0  0  0  0  0  0  0
   57.7650   28.8150   46.2060 C   0  0  0  0  0  0  0  0  0  0  0  0
   56.4590   22.6440   41.8700 H   0  0  0  0  0  0  0  0  0  0  0  0
   58.3831   22.6361   43.5333 H   0  0  0  0  0  0  0  0  0  0  0  0
   57.3215   23.4013   44.7858 H   0  0  0  0  0  0  0  0  0  0  0  0
   58.4248   20.5977   45.1645 H   0  0  0  0  0  0  0  0  0  0  0  0
   59.3985   22.0548   45.5850 H   0  0  0  0  0  0  0  0  0  0  0  0
   54.5617   21.6720   47.5282 H   0  0  0  0  0  0  0  0  0  0  0  0
   52.3246   22.3474   46.6636 H   0  0  0  0  0  0  0  0  0  0  0  0
   52.0868   24.4005   45.2617 H   0  0  0  0  0  0  0  0  0  0  0  0
   54.0912   25.7798   44.7165 H   0  0  0  0  0  0  0  0  0  0  0  0
   57.7026   26.9882   43.4762 H   0  0  0  0  0  0  0  0  0  0  0  0
   58.3190   29.4390   43.0560 H   0  0  0  0  0  0  0  0  0  0  0  0
   56.9433   31.8534   43.9640 H   0  0  0  0  0  0  0  0  0  0  0  0
   57.5129   34.2578   44.2875 H   0  0  0  0  0  0  0  0  0  0  0  0
   60.2747   35.1999   48.1775 H   0  0  0  0  0  0  0  0  0  0  0  0
   59.8453   33.7757   49.1348 H   0  0  0  0  0  0  0  0  0  0  0  0
   62.1810   35.3021   49.4761 H   0  0  0  0  0  0  0  0  0  0  0  0
   62.0061   33.6369   50.0532 H   0  0  0  0  0  0  0  0  0  0  0  0
   63.4686   34.6950   47.6422 H   0  0  0  0  0  0  0  0  0  0  0  0
   63.7964   33.2219   48.5679 H   0  0  0  0  0  0  0  0  0  0  0  0
   62.5266   33.2968   46.0637 H   0  0  0  0  0  0  0  0  0  0  0  0
   62.3843   31.9401   47.1908 H   0  0  0  0  0  0  0  0  0  0  0  0
   60.0349   30.8020   46.8172 H   0  0  0  0  0  0  0  0  0  0  0  0
   57.6688   29.0402   47.2784 H   0  0  0  0  0  0  0  0  0  0  0  0
  1  2  1  0
  2  3  2  0
  2  4  1  0
  4  5  1  0
  5  6  1  0
  6  7  1  0
  7  8  2  0
  7  9  1  0
  9 10  2  0
 10 11  1  0
 11 12  2  0
 12 13  1  0
 13 14  2  0
 14 15  1  0
 15 16  1  0
 16 17  2  0
 16 18  1  0
 18 19  2  0
 19 20  1  0
 20 21  1  0
 21 22  1  0
 22 23  2  0
 23 24  1  0
 24 25  2  0
 25 26  1  0
 26 27  1  0
 27 28  1  0
 28 29  1  0
 29 30  1  0
 30 31  1  0
 26 32  2  0
 21 33  2  0
 14  9  1  0
 33 18  1  0
 32 22  1  0
 31 27  1  0
  1 34  1  0
  4 35  1  0
  4 36  1  0
  5 37  1  0
  5 38  1  0
 10 39  1  0
 11 40  1  0
 12 41  1  0
 13 42  1  0
 19 43  1  0
 20 44  1  0
 23 45  1  0
 24 46  1  0
 28 47  1  0
 28 48  1  0
 29 49  1  0
 29 50  1  0
 30 51  1  0
 30 52  1  0
 31 53  1  0
 31 54  1  0
 32 55  1  0
 33 56  1  0
M  CHG  3   1  -1   6  -1  15  -1
M  END
>  <UniqueID>  (1) 
1

>  <SMILES>  (1) 
[NH-]C(=O)CC[N-]C(=O)c1ccccc1[N-]C(=O)c1c[nH]c(-c2ccnc(N3CCCC3)c2)c1

>  <Energy>  (1) 
95.55514013737657

>  <Genealogy>  (1) 
[NH-]C(=O)CC[N-]C(=O)c1ccccc1[N-]C(=O)c1c[nH]c(-c2ccnc(N3CCCC3)c2)c1 (protonated)
[NH-]C(=O)CC[N-]C(=O)c1ccccc1[N-]C(=O)c1c[nH]c(-c2ccnc(N3CCCC3)c2)c1 (3D coordinates assigned)
[NH-]C(=O)CC[N-]C(=O)c1ccccc1[N-]C(=O)c1c[nH]c(-c2ccnc(N3CCCC3)c2)c1 (nonaromatic ring conformer: 95.55514013737657 kcal/mol)

>  <smiles>  (1) 
NC(=O)CCNC(=O)c1ccccc1NC(=O)c1c[nH]c(-c2ccnc(N3CCCC3)c2)c1

>  <score_type>  (1) 
oracle

>  <origin>  (1) 
adg

>  <m_score__min__energy>  (1) 
-14.779999999999999

>  <m_primary>  (1) 
energy

$$$$
1:0
     RDKit          3D

 25 26  0  0  0  0  0  0  0  0999 V2000
   56.5450   29.3730   42.7540 C   0  0  0  0  0  0  0  0  0  0  0  0
   57.1720   30.2970   43.7650 C   0  0  0  0  0  0  0  0  0  0  0  0
   57.4030   31.6370   43.4070 C   0  0  0  0  0  0  0  0  0  0  0  0
   58.0030   32.5190   44.3070 C   0  0  0  0  0  0  0  0  0  0  0  0
   58.3760   32.0780   45.5750 C   0  0  0  0  0  0  0  0  0  0  0  0
   58.1380   30.7570   45.9560 C   0  0  0  0  0  0  0  0  0  0  0  0
   57.5220   29.8580   45.0670 C   0  0  0  0  0  0  0  0  0  0  0  0
   57.2580   28.4740   45.5250 C   0  0  0  0  0  0  0  0  0  0  0  0
   58.3180   27.6650   45.9630 C   0  0  0  0  0  0  0  0  0  0  0  0
   58.0570   26.3620   46.3920 C   0  0  0  0  0  0  0  0  0  0  0  0
   59.0000   25.6230   46.7800 O   0  0  0  0  0  0  0  0  0  0  0  0
   56.7460   25.8800   46.3870 C   0  0  0  0  0  0  0  0  0  0  0  0
   55.7120   26.7150   45.9570 C   0  0  0  0  0  0  0  0  0  0  0  0
   54.4020   26.2490   45.9580 O   0  0  0  0  0  0  0  0  0  0  0  0
   55.9830   27.9840   45.5410 N   0  0  0  0  0  0  0  0  0  0  0  0
   56.0015   28.5721   43.2767 H   0  0  0  0  0  0  0  0  0  0  0  0
   55.8446   29.9404   42.1235 H   0  0  0  0  0  0  0  0  0  0  0  0
   57.3310   28.9318   42.1235 H   0  0  0  0  0  0  0  0  0  0  0  0
   57.1083   31.9932   42.4089 H   0  0  0  0  0  0  0  0  0  0  0  0
   58.1818   33.5643   44.0147 H   0  0  0  0  0  0  0  0  0  0  0  0
   58.8593   32.7730   46.2774 H   0  0  0  0  0  0  0  0  0  0  0  0
   58.4343   30.4162   46.9590 H   0  0  0  0  0  0  0  0  0  0  0  0
   59.3467   28.0545   45.9683 H   0  0  0  0  0  0  0  0  0  0  0  0
   56.5301   24.8535   46.7182 H   0  0  0  0  0  0  0  0  0  0  0  0
   55.1890   28.5940   45.2460 H   0  0  0  0  0  0  0  0  0  0  0  0
  1  2  1  0
  2  3  2  0
  3  4  1  0
  4  5  2  0
  5  6  1  0
  6  7  2  0
  7  8  1  0
  8  9  2  0
  9 10  1  0
 10 11  2  0
 10 12  1  0
 12 13  2  0
 13 14  1  0
 13 15  1  0
  7  2  1  0
 15  8  1  0
  1 16  1  0
  1 17  1  0
  1 18  1  0
  3 19  1  0
  4 20  1  0
  5 21  1  0
  6 22  1  0
  9 23  1  0
 12 24  1  0
 15 25  1  0
M  CHG  1  14  -1
M  END
>  <UniqueID>  (2) 
2

>  <SMILES>  (2) 
Cc1ccccc1-c1cc(=O)cc([O-])[nH]1

>  <Energy>  (2) 
33.141165771389026

>  <Genealogy>  (2) 
Cc1ccccc1-c1cc(=O)cc([O-])[nH]1 (protonated)
Cc1ccccc1-c1cc(=O)cc([O-])[nH]1 (3D coordinates assigned)
Cc1ccccc1-c1cc(=O)cc([O-])[nH]1 (optimized conformer: 33.141165771389026 kcal/mol)

>  <smiles>  (2) 
Cc1ccccc1-c1cc(=O)cc(O)[nH]1

>  <score_type>  (2) 
oracle

>  <origin>  (2) 
adg

>  <m_score__min__energy>  (2) 
-10.279999999999999

>  <m_primary>  (2) 
energy

$$$$
2:0
     RDKit          3D

 49 52  0  0  0  0  0  0  0  0999 V2000
   55.6590   27.4090   53.5370 C   0  0  0  0  0  0  0  0  0  0  0  0
   55.0550   28.5890   53.3750 C   0  0  0  0  0  0  0  0  0  0  0  0
   53.7340   28.7190   53.1330 N   0  0  0  0  0  0  0  0  0  0  0  0
   53.4910   30.0440   53.0080 C   0  0  0  0  0  0  0  0  0  0  0  0
   52.3010   30.6160   52.7470 C   0  0  0  0  0  0  0  0  0  0  0  0
   51.7600   30.9430   51.4070 C   0  0  0  0  0  0  0  0  0  0  0  0
   51.8550   30.1780   50.3040 N   0  0  0  0  0  0  0  0  0  0  0  0
   51.1760   30.8790   49.3710 C   0  0  0  0  0  0  0  0  0  0  0  0
   51.0410   30.4790   48.1860 O   0  0  0  0  0  0  0  0  0  0  0  0
   50.6490   32.0410   49.8100 N   0  0  0  0  0  0  0  0  0  0  0  0
   51.0240   32.0640   51.0990 C   0  0  0  0  0  0  0  0  0  0  0  0
   50.6940   33.0860   51.9790 O   0  0  0  0  0  0  0  0  0  0  0  0
   54.6660   30.7630   53.1650 C   0  0  0  0  0  0  0  0  0  0  0  0
   55.6620   29.8370   53.4120 C   0  0  0  0  0  0  0  0  0  0  0  0
   57.1220   30.1570   53.5880 C   0  0  0  0  0  0  0  0  0  0  0  0
   57.7200   30.6220   52.2860 C   0  0  0  0  0  0  0  0  0  0  0  0
   57.3670   31.8720   51.7540 C   0  0  0  0  0  0  0  0  0  0  0  0
   57.8910   32.2910   50.5290 C   0  0  0  0  0  0  0  0  0  0  0  0
   58.7580   31.4580   49.8080 C   0  0  0  0  0  0  0  0  0  0  0  0
   59.3140   31.9210   48.5210 C   0  0  0  0  0  0  0  0  0  0  0  0
   58.7450   31.5150   47.4710 O   0  0  0  0  0  0  0  0  0  0  0  0
   60.4460   32.8370   48.4090 N   0  0  0  0  0  0  0  0  0  0  0  0
   60.0450   34.2170   48.7570 C   0  0  0  0  0  0  0  0  0  0  0  0
   59.2440   34.8630   47.6170 C   0  0  0  0  0  0  0  0  0  0  0  0
   60.0190   34.9090   46.4360 O   0  0  0  0  0  0  0  0  0  0  0  0
   60.3290   33.5940   46.0180 C   0  0  0  0  0  0  0  0  0  0  0  0
   61.1360   32.8420   47.0960 C   0  0  0  0  0  0  0  0  0  0  0  0
   59.1510   30.2300   50.3590 C   0  0  0  0  0  0  0  0  0  0  0  0
   58.6280   29.8090   51.5860 C   0  0  0  0  0  0  0  0  0  0  0  0
   56.7407   27.3670   53.7322 H   0  0  0  0  0  0  0  0  0  0  0  0
   55.0748   26.4790   53.4752 H   0  0  0  0  0  0  0  0  0  0  0  0
   53.0660   27.9260   53.0450 H   0  0  0  0  0  0  0  0  0  0  0  0
   51.6689   30.8648   53.6122 H   0  0  0  0  0  0  0  0  0  0  0  0
   54.7826   31.8551   53.1049 H   0  0  0  0  0  0  0  0  0  0  0  0
   57.2304   30.9519   54.3406 H   0  0  0  0  0  0  0  0  0  0  0  0
   57.6484   29.2490   53.9175 H   0  0  0  0  0  0  0  0  0  0  0  0
   56.6740   32.5250   52.3047 H   0  0  0  0  0  0  0  0  0  0  0  0
   57.6221   33.2794   50.1280 H   0  0  0  0  0  0  0  0  0  0  0  0
   61.1430   32.5240   49.1270 H   0  0  0  0  0  0  0  0  0  0  0  0
   59.4234   34.1927   49.6642 H   0  0  0  0  0  0  0  0  0  0  0  0
   60.9538   34.8129   48.9274 H   0  0  0  0  0  0  0  0  0  0  0  0
   58.3354   34.2713   47.4317 H   0  0  0  0  0  0  0  0  0  0  0  0
   58.9737   35.8891   47.9071 H   0  0  0  0  0  0  0  0  0  0  0  0
   59.3933   33.0489   45.8248 H   0  0  0  0  0  0  0  0  0  0  0  0
   60.9388   33.6534   45.1044 H   0  0  0  0  0  0  0  0  0  0  0  0
   61.2821   31.8021   46.7684 H   0  0  0  0  0  0  0  0  0  0  0  0
   62.0980   33.3605   47.2214 H   0  0  0  0  0  0  0  0  0  0  0  0
   59.8732   29.5955   49.8244 H   0  0  0  0  0  0  0  0  0  0  0  0
   58.9286   28.8374   52.0050 H   0  0  0  0  0  0  0  0  0  0  0  0
  1  2  2  0
  2  3  1  0
  3  4  1  0
  4  5  2  3
  5  6  1  0
  6  7  1  0
  7  8  1  0
  8  9  2  0
  8 10  1  0
 10 11  1  0
 11 12  1  0
  4 13  1  0
 13 14  2  0
 14 15  1  0
 15 16  1  0
 16 17  2  0
 17 18  1  0
 18 19  2  0
 19 20  1  0
 20 21  2  0
 20 22  1  0
 22 23  1  0
 23 24  1  0
 24 25  1  0
 25 26  1  0
 26 27  1  0
 19 28  1  0
 28 29  2  0
 14  2  1  0
 29 16  1  0
 11  6  2  0
 27 22  1  0
  1 30  1  0
  1 31  1  0
  3 32  1  0
  5 33  1  0
 13 34  1  0
 15 35  1  0
 15 36  1  0
 17 37  1  0
 18 38  1  0
 22 39  1  0
 23 40  1  0
 23 41  1  0
 24 42  1  0
 24 43  1  0
 26 44  1  0
 26 45  1  0
 27 46  1  0
 27 47  1  0
 28 48  1  0
 29 49  1  0
M  CHG  4   7  -1  10  -1  12  -1  22   1
M  END
>  <UniqueID>  (3) 
3

>  <SMILES>  (3) 
C=c1[nH]c(=Cc2[n-]c(=O)[n-]c2[O-])cc1Cc1ccc(C(=O)[NH+]2CCOCC2)cc1

>  <Energy>  (3) 
126.00411763106133

>  <Genealogy>  (3) 
C=c1[nH]c(=Cc2[n-]c(=O)[n-]c2[O-])cc1Cc1ccc(C(=O)[NH+]2CCOCC2)cc1 (protonated)
C=c1[nH]c(=Cc2[n-]c(=O)[n-]c2[O-])cc1Cc1ccc(C(=O)[NH+]2CCOCC2)cc1 (3D coordinates assigned)
C=c1[nH]c(=Cc2[n-]c(=O)[n-]c2[O-])cc1Cc1ccc(C(=O)[NH+]2CCOCC2)cc1 (nonaromatic ring conformer: 126.00411763106133 kcal/mol)

>  <smiles>  (3) 
C=c1[nH]c(=Cc2[nH]c(=O)[nH]c2O)cc1Cc1ccc(C(=O)N2CCOCC2)cc1

>  <score_type>  (3) 
oracle

>  <origin>  (3) 
adg

>  <m_score__min__energy>  (3) 
-16.420000000000002

>  <m_primary>  (3) 
energy

$$$$
3:0
     RDKit          3D

 71 75  0  0  0  0  0  0  0  0999 V2000
   57.0200   21.7710   43.4480 C   0  0  0  0  0  0  0  0  0  0  0  0
   57.5620   23.0430   44.0850 C   0  0  0  0  0  0  0  0  0  0  0  0
   58.4760   22.6750   45.5730 S   0  0  0  0  0  0  0  0  0  0  0  0
   59.9440   22.5850   45.2570 O   0  0  0  0  0  0  0  0  0  0  0  0
   58.0110   21.3540   46.1210 O   0  0  0  0  0  0  0  0  0  0  0  0
   58.1780   23.9120   46.7510 N   0  0  0  0  0  0  0  0  0  0  0  0
   58.2760   25.3110   46.4670 C   0  0  0  0  0  0  0  0  0  0  0  0
   59.5480   25.8780   46.3340 C   0  0  0  0  0  0  0  0  0  0  0  0
   59.6890   27.2450   46.0870 C   0  0  0  0  0  0  0  0  0  0  0  0
   58.5560   28.0640   45.9920 C   0  0  0  0  0  0  0  0  0  0  0  0
   58.6870   29.4580   45.6920 N   0  0  0  0  0  0  0  0  0  0  0  0
   58.7390   30.4980   46.4890 C   0  0  0  0  0  0  0  0  0  0  0  0
   58.3460   31.7470   45.9480 C   0  0  0  0  0  0  0  0  0  0  0  0
   57.7720   31.8610   44.6620 C   0  0  0  0  0  0  0  0  0  0  0  0
   57.4510   33.1160   44.1360 C   0  0  0  0  0  0  0  0  0  0  0  0
   57.7070   34.2730   44.8740 C   0  0  0  0  0  0  0  0  0  0  0  0
   58.2770   34.1790   46.1440 C   0  0  0  0  0  0  0  0  0  0  0  0
   58.5910   32.9260   46.6830 C   0  0  0  0  0  0  0  0  0  0  0  0
   59.1500   32.8560   47.9110 N   0  0  0  0  0  0  0  0  0  0  0  0
   59.4580   31.6850   48.5220 C   0  0  0  0  0  0  0  0  0  0  0  0
   59.9850   31.6960   49.8400 C   0  0  0  0  0  0  0  0  0  0  0  0
   60.2750   32.9600   50.5810 C   0  0  0  0  0  0  0  0  0  0  0  0
   59.3470   33.5490   51.1990 O   0  0  0  0  0  0  0  0  0  0  0  0
   61.5960   33.5170   50.5940 N   0  0  0  0  0  0  0  0  0  0  0  0
   62.1720   34.2950   49.5030 C   0  0  0  0  0  0  0  0  0  0  0  0
   63.3580   33.5700   48.8310 C   0  0  0  0  0  0  0  0  0  0  0  0
   63.0890   33.0230   47.4780 N   0  0  0  0  0  0  0  0  0  0  0  0
   62.1180   33.8110   46.7040 C   0  0  0  0  0  0  0  0  0  0  0  0
   62.7460   31.5920   47.4770 C   0  0  0  0  0  0  0  0  0  0  0  0
   60.2150   30.4730   50.4860 C   0  0  0  0  0  0  0  0  0  0  0  0
   59.8720   29.2720   49.8760 C   0  0  0  0  0  0  0  0  0  0  0  0
   59.3470   29.2600   48.5870 C   0  0  0  0  0  0  0  0  0  0  0  0
   59.2130   30.4560   47.8450 C   0  0  0  0  0  0  0  0  0  0  0  0
   57.2800   27.5000   46.1070 C   0  0  0  0  0  0  0  0  0  0  0  0
   57.1280   26.1260   46.3860 C   0  0  0  0  0  0  0  0  0  0  0  0
   55.8670   25.5550   46.6160 O   0  0  0  0  0  0  0  0  0  0  0  0
   55.6060   24.1540   46.6280 C   0  0  0  0  0  0  0  0  0  0  0  0
   54.2620   23.8950   46.0330 C   0  0  0  0  0  0  0  0  0  0  0  0
   53.7010   22.6620   45.8130 C   0  0  0  0  0  0  0  0  0  0  0  0
   52.5170   22.8290   45.1990 N   0  0  0  0  0  0  0  0  0  0  0  0
   52.4000   24.1660   45.0600 C   0  0  0  0  0  0  0  0  0  0  0  0
   53.4530   24.8550   45.5490 N   0  0  0  0  0  0  0  0  0  0  0  0
   56.7193   21.0654   44.2365 H   0  0  0  0  0  0  0  0  0  0  0  0
   56.1482   22.0163   42.8236 H   0  0  0  0  0  0  0  0  0  0  0  0
   57.8008   21.3122   42.8236 H   0  0  0  0  0  0  0  0  0  0  0  0
   58.2278   23.5479   43.3696 H   0  0  0  0  0  0  0  0  0  0  0  0
   56.7136   23.6924   44.3468 H   0  0  0  0  0  0  0  0  0  0  0  0
   60.4419   25.2434   46.4245 H   0  0  0  0  0  0  0  0  0  0  0  0
   60.6921   27.6801   45.9667 H   0  0  0  0  0  0  0  0  0  0  0  0
   57.5761   30.9550   44.0698 H   0  0  0  0  0  0  0  0  0  0  0  0
   56.9954   33.1920   43.1377 H   0  0  0  0  0  0  0  0  0  0  0  0
   57.4593   35.2591   44.4541 H   0  0  0  0  0  0  0  0  0  0  0  0
   58.4801   35.0919   46.7231 H   0  0  0  0  0  0  0  0  0  0  0  0
   61.3933   34.4756   48.7473 H   0  0  0  0  0  0  0  0  0  0  0  0
   62.5486   35.2389   49.9241 H   0  0  0  0  0  0  0  0  0  0  0  0
   64.1895   34.2854   48.7481 H   0  0  0  0  0  0  0  0  0  0  0  0
   63.5816   32.7020   49.4686 H   0  0  0  0  0  0  0  0  0  0  0  0
   61.4521   34.3514   47.3929 H   0  0  0  0  0  0  0  0  0  0  0  0
   62.6538   34.5329   46.0701 H   0  0  0  0  0  0  0  0  0  0  0  0
   61.5219   33.1381   46.0701 H   0  0  0  0  0  0  0  0  0  0  0  0
   62.6604   31.2348   48.5138 H   0  0  0  0  0  0  0  0  0  0  0  0
   61.7872   31.4451   46.9582 H   0  0  0  0  0  0  0  0  0  0  0  0
   63.5340   31.0264   46.9582 H   0  0  0  0  0  0  0  0  0  0  0  0
   60.6719   30.4638   51.4866 H   0  0  0  0  0  0  0  0  0  0  0  0
   60.0165   28.3245   50.4157 H   0  0  0  0  0  0  0  0  0  0  0  0
   59.0317   28.3061   48.1391 H   0  0  0  0  0  0  0  0  0  0  0  0
   56.3896   28.1330   45.9788 H   0  0  0  0  0  0  0  0  0  0  0  0
   56.3748   23.6324   46.0390 H   0  0  0  0  0  0  0  0  0  0  0  0
   55.6263   23.7853   47.6642 H   0  0  0  0  0  0  0  0  0  0  0  0
   54.1468   21.6962   46.0930 H   0  0  0  0  0  0  0  0  0  0  0  0
   51.5292   24.6488   44.5925 H   0  0  0  0  0  0  0  0  0  0  0  0
  1  2  1  0
  2  3  1  0
  3  4  2  0
  3  5  2  0
  3  6  1  0
  6  7  1  0
  7  8  2  0
  8  9  1  0
  9 10  2  0
 10 11  1  0
 11 12  2  3
 12 13  1  0
 13 14  2  0
 14 15  1  0
 15 16  2  0
 16 17  1  0
 17 18  2  0
 18 19  1  0
 19 20  1  0
 20 21  2  0
 21 22  1  0
 22 23  2  0
 22 24  1  0
 24 25  1  0
 25 26  1  0
 26 27  1  0
 27 28  1  0
 27 29  1  0
 21 30  1  0
 30 31  2  0
 31 32  1  0
 32 33  2  0
 10 34  1  0
 34 35  2  0
 35 36  1  0
 36 37  1  0
 37 38  1  0
 38 39  2  0
 39 40  1  0
 40 41  1  0
 41 42  2  0
 35  7  1  0
 42 38  1  0
 33 12  1  0
 18 13  1  0
 33 20  1  0
  1 43  1  0
  1 44  1  0
  1 45  1  0
  2 46  1  0
  2 47  1  0
  8 48  1  0
  9 49  1  0
 14 50  1  0
 15 51  1  0
 16 52  1  0
 17 53  1  0
 25 54  1  0
 25 55  1  0
 26 56  1  0
 26 57  1  0
 28 58  1  0
 28 59  1  0
 28 60  1  0
 29 61  1  0
 29 62  1  0
 29 63  1  0
 30 64  1  0
 31 65  1  0
 32 66  1  0
 34 67  1  0
 37 68  1  0
 37 69  1  0
 39 70  1  0
 41 71  1  0
M  CHG  4   6  -1  19  -1  24  -1  40  -1
M  END
>  <UniqueID>  (4) 
4

>  <SMILES>  (4) 
CCS(=O)(=O)[N-]c1ccc(N=c2c3ccccc3[n-]c3c(C(=O)[N-]CCN(C)C)cccc23)cc1OCc1c[n-]cn1

>  <Energy>  (4) 
135.4921817773487

>  <Genealogy>  (4) 
CCS(=O)(=O)[N-]c1ccc(N=c2c3ccccc3[n-]c3c(C(=O)[N-]CCN(C)C)cccc23)cc1OCc1c[n-]cn1 (protonated)
CCS(=O)(=O)[N-]c1ccc(N=c2c3ccccc3[n-]c3c(C(=O)[N-]CCN(C)C)cccc23)cc1OCc1c[n-]cn1 (3D coordinates assigned)
CCS(=O)(=O)[N-]c1ccc(N=c2c3ccccc3[n-]c3c(C(=O)[N-]CCN(C)C)cccc23)cc1OCc1c[n-]cn1 (optimized conformer: 135.4921817773487 kcal/mol)

>  <smiles>  (4) 
CCS(=O)(=O)Nc1ccc(N=c2c3ccccc3[nH]c3c(C(=O)NCCN(C)C)cccc23)cc1OCc1c[nH]cn1

>  <score_type>  (4) 
oracle

>  <origin>  (4) 
adg

>  <m_score__min__energy>  (4) 
-14.949999999999999

>  <m_primary>  (4) 
energy

$$$$
4:0
     RDKit          3D

 55 58  0  0  0  0  0  0  0  0999 V2000
   56.2420   30.6450   44.4610 O   0  0  0  0  0  0  0  0  0  0  0  0
   57.3020   30.5020   45.1290 C   0  0  0  0  0  0  0  0  0  0  0  0
   57.8690   29.1460   45.3310 C   0  0  0  0  0  0  0  0  0  0  0  0
   59.2610   28.9750   45.4680 C   0  0  0  0  0  0  0  0  0  0  0  0
   59.8000   27.7020   45.6770 C   0  0  0  0  0  0  0  0  0  0  0  0
   58.9600   26.5860   45.7540 C   0  0  0  0  0  0  0  0  0  0  0  0
   59.6440   24.9900   46.0090 Cl  0  0  0  0  0  0  0  0  0  0  0  0
   57.5770   26.7470   45.6330 C   0  0  0  0  0  0  0  0  0  0  0  0
   57.0310   28.0190   45.4300 C   0  0  0  0  0  0  0  0  0  0  0  0
   57.9410   31.6690   45.6710 N   0  0  0  0  0  0  0  0  0  0  0  0
   58.1580   31.7740   47.1150 C   0  0  0  0  0  0  0  0  0  0  0  0
   58.0110   33.2260   47.5660 C   0  0  0  0  0  0  0  0  0  0  0  0
   58.8920   34.1920   46.7450 C   0  0  0  0  0  0  0  0  0  0  0  0
   60.3130   34.1470   47.1890 N   0  0  0  0  0  0  0  0  0  0  0  0
   61.3910   33.6380   46.3210 C   0  0  0  0  0  0  0  0  0  0  0  0
   62.7900   33.8540   46.9300 C   0  0  0  0  0  0  0  0  0  0  0  0
   62.8600   33.3170   48.3080 N   0  0  1  0  0  0  0  0  0  0  0  0
   64.2430   33.4070   48.8430 C   0  0  0  0  0  0  0  0  0  0  0  0
   64.5400   32.2970   49.8280 C   0  0  0  0  0  0  0  0  0  0  0  0
   65.8500   32.0750   50.2860 C   0  0  0  0  0  0  0  0  0  0  0  0
   66.1190   31.0350   51.1820 C   0  0  0  0  0  0  0  0  0  0  0  0
   65.0850   30.2110   51.6270 C   0  0  0  0  0  0  0  0  0  0  0  0
   63.7790   30.4260   51.1760 C   0  0  0  0  0  0  0  0  0  0  0  0
   63.5050   31.4620   50.2790 C   0  0  0  0  0  0  0  0  0  0  0  0
   61.9140   34.0410   49.1340 C   0  0  0  0  0  0  0  0  0  0  0  0
   62.1620   34.3000   50.3490 O   0  0  0  0  0  0  0  0  0  0  0  0
   60.6030   34.4120   48.5780 C   0  0  0  0  0  0  0  0  0  0  0  0
   59.7460   34.9640   49.3240 O   0  0  0  0  0  0  0  0  0  0  0  0
   58.6700   33.9980   45.2240 C   0  0  0  0  0  0  0  0  0  0  0  0
   58.6990   32.5320   44.7590 C   0  0  0  0  0  0  0  0  0  0  0  0
   59.9275   29.8482   45.4102 H   0  0  0  0  0  0  0  0  0  0  0  0
   60.8880   27.5776   45.7812 H   0  0  0  0  0  0  0  0  0  0  0  0
   56.9155   25.8705   45.6976 H   0  0  0  0  0  0  0  0  0  0  0  0
   55.9407   28.1393   45.3473 H   0  0  0  0  0  0  0  0  0  0  0  0
   57.4167   31.1536   47.6400 H   0  0  0  0  0  0  0  0  0  0  0  0
   59.1742   31.4256   47.3517 H   0  0  0  0  0  0  0  0  0  0  0  0
   56.9587   33.5257   47.4529 H   0  0  0  0  0  0  0  0  0  0  0  0
   58.3378   33.2850   48.6147 H   0  0  0  0  0  0  0  0  0  0  0  0
   58.5743   35.2258   46.9459 H   0  0  0  0  0  0  0  0  0  0  0  0
   61.2375   32.5603   46.1629 H   0  0  0  0  0  0  0  0  0  0  0  0
   61.3489   34.1955   45.3737 H   0  0  0  0  0  0  0  0  0  0  0  0
   63.5366   33.3409   46.3061 H   0  0  0  0  0  0  0  0  0  0  0  0
   62.9927   34.9346   46.9653 H   0  0  0  0  0  0  0  0  0  0  0  0
   62.5600   32.3120   48.3020 H   0  0  0  0  0  0  0  0  0  0  0  0
   64.9533   33.3392   48.0059 H   0  0  0  0  0  0  0  0  0  0  0  0
   64.3428   34.3670   49.3707 H   0  0  0  0  0  0  0  0  0  0  0  0
   66.6682   32.7226   49.9380 H   0  0  0  0  0  0  0  0  0  0  0  0
   67.1468   30.8668   51.5360 H   0  0  0  0  0  0  0  0  0  0  0  0
   65.2968   29.3933   52.3317 H   0  0  0  0  0  0  0  0  0  0  0  0
   62.9639   29.7770   51.5287 H   0  0  0  0  0  0  0  0  0  0  0  0
   62.4760   31.6238   49.9254 H   0  0  0  0  0  0  0  0  0  0  0  0
   57.6894   34.4224   44.9626 H   0  0  0  0  0  0  0  0  0  0  0  0
   59.5053   34.5042   44.7180 H   0  0  0  0  0  0  0  0  0  0  0  0
   58.2577   32.4661   43.7535 H   0  0  0  0  0  0  0  0  0  0  0  0
   59.7450   32.1918   44.7478 H   0  0  0  0  0  0  0  0  0  0  0  0
  1  2  2  0
  2  3  1  0
  3  4  2  0
  4  5  1  0
  5  6  2  0
  6  7  1  0
  6  8  1  0
  8  9  2  0
  2 10  1  0
 10 11  1  0
 11 12  1  0
 12 13  1  0
 13 14  1  0
 14 15  1  0
 15 16  1  0
 16 17  1  0
 17 18  1  0
 18 19  1  0
 19 20  2  0
 20 21  1  0
 21 22  2  0
 22 23  1  0
 23 24  2  0
 17 25  1  0
 25 26  2  0
 25 27  1  0
 27 28  2  0
 13 29  1  0
 29 30  1  0
  9  3  1  0
 30 10  1  0
 27 14  1  0
 24 19  1  0
  4 31  1  0
  5 32  1  0
  8 33  1  0
  9 34  1  0
 11 35  1  0
 11 36  1  0
 12 37  1  0
 12 38  1  0
 13 39  1  0
 15 40  1  0
 15 41  1  0
 16 42  1  0
 16 43  1  0
 17 44  1  6
 18 45  1  0
 18 46  1  0
 20 47  1  0
 21 48  1  0
 22 49  1  0
 23 50  1  0
 24 51  1  0
 29 52  1  0
 29 53  1  0
 30 54  1  0
 30 55  1  0
M  CHG  1  17   1
M  END
>  <UniqueID>  (5) 
5

>  <SMILES>  (5) 
O=C(c1ccc(Cl)cc1)N1CCC(N2CC[N@@H+](Cc3ccccc3)C(=O)C2=O)CC1

>  <Energy>  (5) 
72.13877908081935

>  <Genealogy>  (5) 
O=C(c1ccc(Cl)cc1)N1CCC(N2CC[NH+](Cc3ccccc3)C(=O)C2=O)CC1 (protonated)
O=C(c1ccc(Cl)cc1)N1CCC(N2CC[N@@H+](Cc3ccccc3)C(=O)C2=O)CC1 (chirality)
O=C(c1ccc(Cl)cc1)N1CCC(N2CC[N@@H+](Cc3ccccc3)C(=O)C2=O)CC1 (3D coordinates assigned)
O=C(c1ccc(Cl)cc1)N1CCC(N2CC[N@@H+](Cc3ccccc3)C(=O)C2=O)CC1 (nonaromatic ring conformer: 72.13877908081935 kcal/mol)

>  <smiles>  (5) 
O=C1C(=O)N(C2CCN(C(=O)c3ccc(Cl)cc3)CC2)CCN1Cc1ccccc1

>  <score_type>  (5) 
oracle

>  <origin>  (5) 
adg

>  <m_score__min__energy>  (5) 
-7.7999999999999998

>  <m_primary>  (5) 
energy

$$$$
5:0
     RDKit          3D

 36 37  0  0  0  0  0  0  0  0999 V2000
   54.8200   26.7110   45.2580 H   0  0  0  0  0  0  0  0  0  0  0  0
   55.3170   26.6230   46.1730 N   0  0  0  0  0  0  0  0  0  0  0  0
   56.8760   25.9520   45.8460 S   0  0  0  0  0  0  0  0  0  0  0  0
   57.1310   24.7920   46.7670 O   0  0  0  0  0  0  0  0  0  0  0  0
   56.9030   25.4640   44.4250 O   0  0  0  0  0  0  0  0  0  0  0  0
   58.1180   27.1780   46.0930 C   0  0  0  0  0  0  0  0  0  0  0  0
   58.9140   27.5860   45.0150 C   0  0  0  0  0  0  0  0  0  0  0  0
   58.7652   27.1352   44.0227 H   0  0  0  0  0  0  0  0  0  0  0  0
   59.8960   28.5630   45.1950 C   0  0  0  0  0  0  0  0  0  0  0  0
   60.5139   28.8809   44.3423 H   0  0  0  0  0  0  0  0  0  0  0  0
   60.0990   29.1420   46.4590 C   0  0  0  0  0  0  0  0  0  0  0  0
   61.1410   30.2140   46.6420 C   0  0  0  0  0  0  0  0  0  0  0  0
   61.9732   29.7997   47.2300 H   0  0  0  0  0  0  0  0  0  0  0  0
   61.4701   30.5329   45.6420 H   0  0  0  0  0  0  0  0  0  0  0  0
   60.5940   31.4510   47.3680 C   0  0  0  0  0  0  0  0  0  0  0  0
   60.5969   31.2602   48.4513 H   0  0  0  0  0  0  0  0  0  0  0  0
   61.2361   32.3091   47.1203 H   0  0  0  0  0  0  0  0  0  0  0  0
   59.2280   31.7610   46.9430 N   0  0  0  0  0  0  0  0  0  0  0  0
   58.8180   32.2200   45.7930 C   0  0  0  0  0  0  0  0  0  0  0  0
   59.1272   33.2368   45.5094 H   0  0  0  0  0  0  0  0  0  0  0  0
   57.9670   31.4710   44.8430 C   0  0  0  0  0  0  0  0  0  0  0  0
   57.1720   30.3960   45.2740 C   0  0  0  0  0  0  0  0  0  0  0  0
   57.1985   30.0850   46.3288 H   0  0  0  0  0  0  0  0  0  0  0  0
   56.3450   29.7170   44.3680 C   0  0  0  0  0  0  0  0  0  0  0  0
   55.5780   28.6300   44.7830 O   0  0  0  0  0  0  0  0  0  0  0  0
   55.9090   27.6780   44.6790 H   0  0  0  0  0  0  0  0  0  0  0  0
   56.2790   30.1380   43.0380 C   0  0  0  0  0  0  0  0  0  0  0  0
   55.6433   29.5970   42.3217 H   0  0  0  0  0  0  0  0  0  0  0  0
   57.0190   31.2450   42.6160 C   0  0  0  0  0  0  0  0  0  0  0  0
   56.9454   31.5885   41.5736 H   0  0  0  0  0  0  0  0  0  0  0  0
   57.8530   31.9180   43.5140 C   0  0  0  0  0  0  0  0  0  0  0  0
   58.5730   33.0250   43.0750 O   0  0  0  0  0  0  0  0  0  0  0  0
   59.3010   28.7300   47.5390 C   0  0  0  0  0  0  0  0  0  0  0  0
   59.4530   29.1754   48.5333 H   0  0  0  0  0  0  0  0  0  0  0  0
   58.3140   27.7560   47.3560 C   0  0  0  0  0  0  0  0  0  0  0  0
   57.6894   27.4422   48.2053 H   0  0  0  0  0  0  0  0  0  0  0  0
  1  2  1  0
  2  3  1  0
  3  4  2  0
  3  5  2  0
  3  6  1  0
  6  7  2  0
  7  8  1  0
  7  9  1  0
  9 10  1  0
  9 11  2  0
 11 12  1  0
 12 13  1  0
 12 14  1  0
 12 15  1  0
 15 16  1  0
 15 17  1  0
 15 18  1  0
 18 19  2  0
 19 20  1  0
 19 21  1  0
 21 22  2  0
 22 23  1  0
 22 24  1  0
 24 25  1  0
 25 26  1  0
 24 27  2  0
 27 28  1  0
 27 29  1  0
 29 30  1  0
 29 31  2  0
 31 32  1  0
 11 33  1  0
 33 34  1  0
 33 35  2  0
 35 36  1  0
 35  6  1  0
 31 21  1  0
M  CHG  2   2  -1  32  -1
M  END
>  <UniqueID>  (6) 
6

>  <SMILES>  (6) 
[NH-]S(=O)(=O)c1ccc(CC/N=C\c2cc(O)ccc2[O-])cc1

>  <Energy>  (6) 
37.81761530368217

>  <Genealogy>  (6) 
[NH-]S(=O)(=O)c1ccc(CCN=Cc2cc(O)ccc2[O-])cc1 (protonated)
[NH-]S(=O)(=O)c1ccc(CC/N=C\c2cc(O)ccc2[O-])cc1 (cis-trans isomerization)
[NH-]S(=O)(=O)c1ccc(CC/N=C\c2cc(O)ccc2[O-])cc1 (3D coordinates assigned)
[NH-]S(=O)(=O)c1ccc(CC/N=C\c2cc(O)ccc2[O-])cc1 (optimized conformer: 37.81761530368217 kcal/mol)

>  <smiles>  (6) 
NS(=O)(=O)c1ccc(CCN=Cc2cc(O)ccc2O)cc1

>  <score_type>  (6) 
oracle

>  <origin>  (6) 
adg

>  <m_score__min__energy>  (6) 
-11.59

>  <m_primary>  (6) 
energy

$$$$
6:0
     RDKit          3D

 69 73  0  0  0  0  0  0  0  0999 V2000
   54.8500   28.1970   52.8940 C   0  0  0  0  0  0  0  0  0  0  0  0
   55.0790   29.5190   52.8150 C   0  0  0  0  0  0  0  0  0  0  0  0
   54.1660   30.4990   52.3880 C   0  0  0  0  0  0  0  0  0  0  0  0
   52.8410   30.4390   52.1480 C   0  0  0  0  0  0  0  0  0  0  0  0
   52.1940   30.5870   50.8340 C   0  0  0  0  0  0  0  0  0  0  0  0
   52.1950   29.6700   49.8500 N   0  0  0  0  0  0  0  0  0  0  0  0
   51.3820   30.1830   48.9060 C   0  0  0  0  0  0  0  0  0  0  0  0
   51.1470   29.6040   47.8120 O   0  0  0  0  0  0  0  0  0  0  0  0
   50.8350   31.3710   49.2360 N   0  0  0  0  0  0  0  0  0  0  0  0
   51.3440   31.6030   50.4620 C   0  0  0  0  0  0  0  0  0  0  0  0
   51.0280   32.7160   51.2300 O   0  0  0  0  0  0  0  0  0  0  0  0
   54.8900   31.6680   52.2480 C   0  0  0  0  0  0  0  0  0  0  0  0
   56.1750   31.3960   52.6580 C   0  0  0  0  0  0  0  0  0  0  0  0
   57.2870   32.4030   52.6280 C   0  0  0  0  0  0  0  0  0  0  0  0
   56.3030   30.0920   53.0040 N   0  0  0  0  0  0  0  0  0  0  0  0
   57.5720   29.4310   53.3640 C   0  0  0  0  0  0  0  0  0  0  0  0
   58.7110   30.0040   52.5570 C   0  0  0  0  0  0  0  0  0  0  0  0
   59.7200   30.7560   53.1780 C   0  0  0  0  0  0  0  0  0  0  0  0
   60.6960   31.3990   52.4120 C   0  0  0  0  0  0  0  0  0  0  0  0
   60.6870   31.2950   51.0110 C   0  0  0  0  0  0  0  0  0  0  0  0
   61.5840   32.1050   50.2160 N   0  0  0  0  0  0  0  0  0  0  0  0
   61.1460   33.4380   49.7720 C   0  0  0  0  0  0  0  0  0  0  0  0
   61.7660   33.8280   48.4170 C   0  0  0  0  0  0  0  0  0  0  0  0
   61.9150   32.6320   47.4410 C   0  0  0  0  0  0  0  0  0  0  0  0
   60.5930   32.3040   46.7500 C   0  0  0  0  0  0  0  0  0  0  0  0
   60.0360   31.0130   46.8340 C   0  0  0  0  0  0  0  0  0  0  0  0
   58.8000   30.7230   46.2570 C   0  0  0  0  0  0  0  0  0  0  0  0
   58.0970   31.7130   45.5520 C   0  0  0  0  0  0  0  0  0  0  0  0
   56.8470   31.4770   44.9560 O   0  0  0  0  0  0  0  0  0  0  0  0
   56.4050   30.0410   44.1260 S   0  0  0  0  0  0  0  0  0  0  0  0
   57.7690   28.8900   44.0820 C   0  0  0  0  0  0  0  0  0  0  0  0
   55.2150   29.4100   44.7980 O   0  0  0  0  0  0  0  0  0  0  0  0
   56.0320   30.4010   42.7140 O   0  0  0  0  0  0  0  0  0  0  0  0
   58.6540   32.9900   45.4380 C   0  0  0  0  0  0  0  0  0  0  0  0
   59.8860   33.2910   46.0350 C   0  0  0  0  0  0  0  0  0  0  0  0
   60.3750   34.5510   45.9160 F   0  0  0  0  0  0  0  0  0  0  0  0
   62.5770   31.3810   48.0920 C   0  0  0  0  0  0  0  0  0  0  0  0
   62.7890   31.5340   49.6050 C   0  0  0  0  0  0  0  0  0  0  0  0
   59.7100   30.4900   50.4000 C   0  0  0  0  0  0  0  0  0  0  0  0
   58.7330   29.8520   51.1650 C   0  0  0  0  0  0  0  0  0  0  0  0
   55.6441   27.5212   53.2444 H   0  0  0  0  0  0  0  0  0  0  0  0
   53.8685   27.7908   52.6082 H   0  0  0  0  0  0  0  0  0  0  0  0
   52.1836   30.2635   53.0123 H   0  0  0  0  0  0  0  0  0  0  0  0
   52.6930   28.7540   49.8280 H   0  0  0  0  0  0  0  0  0  0  0  0
   54.5110   32.6325   51.8790 H   0  0  0  0  0  0  0  0  0  0  0  0
   57.5741   32.6630   53.6576 H   0  0  0  0  0  0  0  0  0  0  0  0
   58.1539   31.9764   52.1022 H   0  0  0  0  0  0  0  0  0  0  0  0
   56.9482   33.3079   52.1022 H   0  0  0  0  0  0  0  0  0  0  0  0
   57.7714   29.5877   54.4344 H   0  0  0  0  0  0  0  0  0  0  0  0
   57.4878   28.3556   53.1487 H   0  0  0  0  0  0  0  0  0  0  0  0
   59.7428   30.8398   54.2746 H   0  0  0  0  0  0  0  0  0  0  0  0
   61.4777   31.9914   52.9100 H   0  0  0  0  0  0  0  0  0  0  0  0
   60.0504   33.4374   49.6741 H   0  0  0  0  0  0  0  0  0  0  0  0
   61.4784   34.1716   50.5212 H   0  0  0  0  0  0  0  0  0  0  0  0
   61.1234   34.5856   47.9446 H   0  0  0  0  0  0  0  0  0  0  0  0
   62.7776   34.2092   48.6204 H   0  0  0  0  0  0  0  0  0  0  0  0
   62.6193   32.9556   46.6605 H   0  0  0  0  0  0  0  0  0  0  0  0
   60.5850   30.2204   47.3635 H   0  0  0  0  0  0  0  0  0  0  0  0
   58.3737   29.7137   46.3547 H   0  0  0  0  0  0  0  0  0  0  0  0
   58.0687   28.6371   45.1097 H   0  0  0  0  0  0  0  0  0  0  0  0
   57.4602   27.9754   43.5546 H   0  0  0  0  0  0  0  0  0  0  0  0
   58.6186   29.3483   43.5546 H   0  0  0  0  0  0  0  0  0  0  0  0
   58.1192   33.7678   44.8732 H   0  0  0  0  0  0  0  0  0  0  0  0
   61.9294   30.5096   47.9150 H   0  0  0  0  0  0  0  0  0  0  0  0
   63.5682   31.2559   47.6316 H   0  0  0  0  0  0  0  0  0  0  0  0
   62.9916   30.5476   50.0478 H   0  0  0  0  0  0  0  0  0  0  0  0
   63.6431   32.2026   49.7882 H   0  0  0  0  0  0  0  0  0  0  0  0
   59.7157   30.3617   49.3075 H   0  0  0  0  0  0  0  0  0  0  0  0
   57.9752   29.2256   50.6716 H   0  0  0  0  0  0  0  0  0  0  0  0
  1  2  2  0
  2  3  1  0
  3  4  2  3
  4  5  1  0
  5  6  1  0
  6  7  1  0
  7  8  2  0
  7  9  1  0
  9 10  1  0
 10 11  1  0
  3 12  1  0
 12 13  2  0
 13 14  1  0
 13 15  1  0
 15 16  1  0
 16 17  1  0
 17 18  2  0
 18 19  1  0
 19 20  2  0
 20 21  1  0
 21 22  1  0
 22 23  1  0
 23 24  1  0
 24 25  1  0
 25 26  2  0
 26 27  1  0
 27 28  2  0
 28 29  1  0
 29 30  1  0
 30 31  1  0
 30 32  2  0
 30 33  2  0
 28 34  1  0
 34 35  2  0
 35 36  1  0
 24 37  1  0
 37 38  1  0
 20 39  1  0
 39 40  2  0
 15  2  1  0
 40 17  1  0
 10  5  2  0
 38 21  1  0
 35 25  1  0
  1 41  1  0
  1 42  1  0
  4 43  1  0
  6 44  1  0
 12 45  1  0
 14 46  1  0
 14 47  1  0
 14 48  1  0
 16 49  1  0
 16 50  1  0
 18 51  1  0
 19 52  1  0
 22 53  1  0
 22 54  1  0
 23 55  1  0
 23 56  1  0
 24 57  1  0
 26 58  1  0
 27 59  1  0
 31 60  1  0
 31 61  1  0
 31 62  1  0
 34 63  1  0
 37 64  1  0
 37 65  1  0
 38 66  1  0
 38 67  1  0
 39 68  1  0
 40 69  1  0
M  CHG  2   9  -1  11  -1
M  END
>  <UniqueID>  (7) 
7

>  <SMILES>  (7) 
C=c1c(=Cc2[nH]c(=O)[n-]c2[O-])cc(C)n1Cc1ccc(N2CCC(c3ccc(OS(C)(=O)=O)cc3F)CC2)cc1

>  <Energy>  (7) 
148.44769731830507

>  <Genealogy>  (7) 
C=c1c(=Cc2[nH]c(=O)[n-]c2[O-])cc(C)n1Cc1ccc(N2CCC(c3ccc(OS(C)(=O)=O)cc3F)CC2)cc1 (protonated)
C=c1c(=Cc2[nH]c(=O)[n-]c2[O-])cc(C)n1Cc1ccc(N2CCC(c3ccc(OS(C)(=O)=O)cc3F)CC2)cc1 (3D coordinates assigned)
C=c1c(=Cc2[nH]c(=O)[n-]c2[O-])cc(C)n1Cc1ccc(N2CCC(c3ccc(OS(C)(=O)=O)cc3F)CC2)cc1 (nonaromatic ring conformer: 148.44769731830507 kcal/mol)

>  <smiles>  (7) 
C=c1c(=Cc2[nH]c(=O)[nH]c2O)cc(C)n1Cc1ccc(N2CCC(c3ccc(OS(C)(=O)=O)cc3F)CC2)cc1

>  <score_type>  (7) 
oracle

>  <origin>  (7) 
adg

>  <m_score__min__energy>  (7) 
-18.25

>  <m_primary>  (7) 
energy

$$$$
7:0
     RDKit          3D

 45 47  0  0  0  0  0  0  0  0999 V2000
   56.9680   32.4730   44.8530 C   0  0  0  0  0  0  0  0  0  0  0  0
   57.3900   33.8340   45.3970 C   0  0  0  0  0  0  0  0  0  0  0  0
   58.6320   33.7090   46.2390 C   0  0  0  0  0  0  0  0  0  0  0  0
   59.9000   33.8810   45.6610 C   0  0  0  0  0  0  0  0  0  0  0  0
   61.0510   33.7950   46.4490 C   0  0  0  0  0  0  0  0  0  0  0  0
   60.9490   33.5430   47.8230 C   0  0  0  0  0  0  0  0  0  0  0  0
   62.4050   33.4490   48.8060 S   0  0  0  0  0  0  0  0  0  0  0  0
   62.2670   34.3210   50.0220 O   0  0  0  0  0  0  0  0  0  0  0  0
   63.5690   33.9160   47.9790 O   0  0  0  0  0  0  0  0  0  0  0  0
   62.6400   31.8030   49.3060 N   0  0  0  0  0  0  0  0  0  0  0  0
   61.5910   30.8510   49.5170 C   0  0  0  0  0  0  0  0  0  0  0  0
   61.3470   30.4740   50.6950 O   0  0  0  0  0  0  0  0  0  0  0  0
   60.7880   30.2980   48.4080 C   0  0  0  0  0  0  0  0  0  0  0  0
   61.2400   30.4270   47.0860 C   0  0  0  0  0  0  0  0  0  0  0  0
   60.4810   29.9200   46.0270 C   0  0  0  0  0  0  0  0  0  0  0  0
   59.2530   29.2850   46.2740 C   0  0  0  0  0  0  0  0  0  0  0  0
   58.4180   28.7680   45.1320 C   0  0  0  0  0  0  0  0  0  0  0  0
   57.6000   27.5740   45.5680 C   0  0  0  0  0  0  0  0  0  0  0  0
   56.1960   27.6390   45.6210 C   0  0  0  0  0  0  0  0  0  0  0  0
   55.5220   28.7920   45.2360 O   0  0  0  0  0  0  0  0  0  0  0  0
   55.4810   26.5670   46.0480 N   0  0  0  0  0  0  0  0  0  0  0  0
   56.0960   25.4200   46.4340 C   0  0  0  0  0  0  0  0  0  0  0  0
   55.4120   24.4410   46.8260 O   0  0  0  0  0  0  0  0  0  0  0  0
   57.4490   25.3320   46.3990 N   0  0  0  0  0  0  0  0  0  0  0  0
   58.2120   26.3750   45.9810 C   0  0  0  0  0  0  0  0  0  0  0  0
   59.4660   26.2510   45.9650 O   0  0  0  0  0  0  0  0  0  0  0  0
   58.7900   29.1800   47.5950 C   0  0  0  0  0  0  0  0  0  0  0  0
   59.5490   29.6880   48.6540 C   0  0  0  0  0  0  0  0  0  0  0  0
   59.6830   33.3890   48.4070 C   0  0  0  0  0  0  0  0  0  0  0  0
   58.5310   33.4740   47.6200 C   0  0  0  0  0  0  0  0  0  0  0  0
   56.7570   31.7925   45.6911 H   0  0  0  0  0  0  0  0  0  0  0  0
   56.0635   32.5885   44.2378 H   0  0  0  0  0  0  0  0  0  0  0  0
   57.7792   32.0565   44.2378 H   0  0  0  0  0  0  0  0  0  0  0  0
   57.5914   34.5127   44.5551 H   0  0  0  0  0  0  0  0  0  0  0  0
   56.5774   34.2322   46.0224 H   0  0  0  0  0  0  0  0  0  0  0  0
   59.9878   34.0843   44.5835 H   0  0  0  0  0  0  0  0  0  0  0  0
   62.0412   33.9258   45.9882 H   0  0  0  0  0  0  0  0  0  0  0  0
   62.1968   30.9298   46.8817 H   0  0  0  0  0  0  0  0  0  0  0  0
   60.8477   30.0190   44.9947 H   0  0  0  0  0  0  0  0  0  0  0  0
   57.7408   29.5645   44.7899 H   0  0  0  0  0  0  0  0  0  0  0  0
   59.0870   28.4599   44.3150 H   0  0  0  0  0  0  0  0  0  0  0  0
   57.8239   28.6950   47.7985 H   0  0  0  0  0  0  0  0  0  0  0  0
   59.1727   29.6089   49.6846 H   0  0  0  0  0  0  0  0  0  0  0  0
   59.5965   33.2008   49.4873 H   0  0  0  0  0  0  0  0  0  0  0  0
   57.5408   33.3563   48.0844 H   0  0  0  0  0  0  0  0  0  0  0  0
  1  2  1  0
  2  3  1  0
  3  4  2  0
  4  5  1  0
  5  6  2  0
  6  7  1  0
  7  8  2  0
  7  9  2  0
  7 10  1  0
 10 11  1  0
 11 12  2  0
 11 13  1  0
 13 14  2  0
 14 15  1  0
 15 16  2  0
 16 17  1  0
 17 18  1  0
 18 19  2  0
 19 20  1  0
 19 21  1  0
 21 22  1  0
 22 23  2  0
 22 24  1  0
 24 25  1  0
 25 26  2  0
 16 27  1  0
 27 28  2  0
  6 29  1  0
 29 30  2  0
 30  3  1  0
 28 13  1  0
 25 18  1  0
  1 31  1  0
  1 32  1  0
  1 33  1  0
  2 34  1  0
  2 35  1  0
  4 36  1  0
  5 37  1  0
 14 38  1  0
 15 39  1  0
 17 40  1  0
 17 41  1  0
 27 42  1  0
 28 43  1  0
 29 44  1  0
 30 45  1  0
M  CHG  4  10  -1  20  -1  21  -1  24  -1
M  END
>  <UniqueID>  (8) 
8

>  <SMILES>  (8) 
CCc1ccc(S(=O)(=O)[N-]C(=O)c2ccc(Cc3c([O-])[n-]c(=O)[n-]c3=O)cc2)cc1

>  <Energy>  (8) 
54.553324885631

>  <Genealogy>  (8) 
CCc1ccc(S(=O)(=O)[N-]C(=O)c2ccc(Cc3c([O-])[n-]c(=O)[n-]c3=O)cc2)cc1 (protonated)
CCc1ccc(S(=O)(=O)[N-]C(=O)c2ccc(Cc3c([O-])[n-]c(=O)[n-]c3=O)cc2)cc1 (3D coordinates assigned)
CCc1ccc(S(=O)(=O)[N-]C(=O)c2ccc(Cc3c([O-])[n-]c(=O)[n-]c3=O)cc2)cc1 (optimized conformer: 54.553324885631 kcal/mol)

>  <smiles>  (8) 
CCc1ccc(S(=O)(=O)NC(=O)c2ccc(Cc3c(O)[nH]c(=O)[nH]c3=O)cc2)cc1

>  <score_type>  (8) 
oracle

>  <origin>  (8) 
adg

>  <m_score__min__energy>  (8) 
-17.27

>  <m_primary>  (8) 
energy

$$$$
8:0
     RDKit          3D

 54 57  0  0  0  0  0  0  0  0999 V2000
   57.7292   35.0522   52.9597 H   0  0  0  0  0  0  0  0  0  0  0  0
   58.6660   34.4960   52.8080 C   0  0  0  0  0  0  0  0  0  0  0  0
   59.6260   34.5090   53.7680 N   0  0  0  0  0  0  0  0  0  0  0  0
   60.7960   33.8390   53.5940 C   0  0  0  0  0  0  0  0  0  0  0  0
   61.8260   33.8390   54.6740 C   0  0  0  0  0  0  0  0  0  0  0  0
   62.0791   32.8019   54.9393 H   0  0  0  0  0  0  0  0  0  0  0  0
   62.7290   34.3575   54.3195 H   0  0  0  0  0  0  0  0  0  0  0  0
   61.4291   34.3575   55.5592 H   0  0  0  0  0  0  0  0  0  0  0  0
   61.0010   33.1220   52.4580 N   0  0  0  0  0  0  0  0  0  0  0  0
   60.0680   33.0680   51.4670 C   0  0  0  0  0  0  0  0  0  0  0  0
   60.3530   32.2810   50.2380 C   0  0  0  0  0  0  0  0  0  0  0  0
   59.5940   31.1460   49.9050 C   0  0  0  0  0  0  0  0  0  0  0  0
   58.7735   30.8258   50.5639 H   0  0  0  0  0  0  0  0  0  0  0  0
   59.8730   30.4220   48.7450 C   0  0  0  0  0  0  0  0  0  0  0  0
   59.2744   29.5322   48.5004 H   0  0  0  0  0  0  0  0  0  0  0  0
   60.9070   30.8180   47.8910 C   0  0  0  0  0  0  0  0  0  0  0  0
   61.1520   30.0540   46.7010 N   0  0  0  0  0  0  0  0  0  0  0  0
   60.2810   29.2760   46.1280 C   0  0  0  0  0  0  0  0  0  0  0  0
   59.1070   29.7050   45.6150 N   0  0  0  0  0  0  0  0  0  0  0  0
   58.3850   28.6750   45.0970 C   0  0  0  0  0  0  0  0  0  0  0  0
   57.0460   28.8940   44.4570 C   0  0  0  0  0  0  0  0  0  0  0  0
   57.0154   28.3496   43.5016 H   0  0  0  0  0  0  0  0  0  0  0  0
   56.2739   28.5260   45.1487 H   0  0  0  0  0  0  0  0  0  0  0  0
   56.7800   30.3500   44.1950 C   0  0  0  0  0  0  0  0  0  0  0  0
   55.6240   30.8230   44.3700 O   0  0  0  0  0  0  0  0  0  0  0  0
   57.8670   31.2170   43.8400 N   0  0  0  0  0  0  0  0  0  0  0  0
   58.8170   30.8060   43.6980 H   0  0  0  0  0  0  0  0  0  0  0  0
   57.7280   32.6700   43.7800 C   0  0  0  0  0  0  0  0  0  0  0  0
   58.2996   33.0527   42.9216 H   0  0  0  0  0  0  0  0  0  0  0  0
   56.6625   32.9201   43.6696 H   0  0  0  0  0  0  0  0  0  0  0  0
   58.2470   33.3040   45.0420 C   0  0  0  0  0  0  0  0  0  0  0  0
   57.8480   32.8240   46.3000 C   0  0  0  0  0  0  0  0  0  0  0  0
   57.1321   31.9916   46.3672 H   0  0  0  0  0  0  0  0  0  0  0  0
   58.3580   33.4010   47.4680 C   0  0  0  0  0  0  0  0  0  0  0  0
   58.0453   33.0189   48.4510 H   0  0  0  0  0  0  0  0  0  0  0  0
   59.2640   34.4620   47.3880 C   0  0  0  0  0  0  0  0  0  0  0  0
   59.6648   34.9140   48.3073 H   0  0  0  0  0  0  0  0  0  0  0  0
   59.6610   34.9490   46.1380 C   0  0  0  0  0  0  0  0  0  0  0  0
   60.3728   35.7852   46.0750 H   0  0  0  0  0  0  0  0  0  0  0  0
   59.1540   34.3740   44.9690 C   0  0  0  0  0  0  0  0  0  0  0  0
   59.4666   34.7611   43.9880 H   0  0  0  0  0  0  0  0  0  0  0  0
   58.9880   27.4210   45.2000 C   0  0  0  0  0  0  0  0  0  0  0  0
   58.5701   26.4711   44.8353 H   0  0  0  0  0  0  0  0  0  0  0  0
   60.4670   27.6160   45.9800 S   0  0  0  0  0  0  0  0  0  0  0  0
   61.7200   31.9150   48.2400 C   0  0  0  0  0  0  0  0  0  0  0  0
   62.8190   32.2310   47.4250 O   0  0  0  0  0  0  0  0  0  0  0  0
   63.0470   33.5010   46.8270 C   0  0  0  0  0  0  0  0  0  0  0  0
   63.1828   34.2577   47.6138 H   0  0  0  0  0  0  0  0  0  0  0  0
   63.9513   33.4551   46.2023 H   0  0  0  0  0  0  0  0  0  0  0  0
   62.1832   33.7725   46.2023 H   0  0  0  0  0  0  0  0  0  0  0  0
   61.4240   32.6500   49.4050 C   0  0  0  0  0  0  0  0  0  0  0  0
   62.0388   33.5239   49.6663 H   0  0  0  0  0  0  0  0  0  0  0  0
   58.8670   33.7780   51.6300 C   0  0  0  0  0  0  0  0  0  0  0  0
   58.0991   33.7677   50.8425 H   0  0  0  0  0  0  0  0  0  0  0  0
  1  2  1  0
  2  3  2  0
  3  4  1  0
  4  5  1  0
  5  6  1  0
  5  7  1  0
  5  8  1  0
  4  9  2  0
  9 10  1  0
 10 11  1  0
 11 12  2  0
 12 13  1  0
 12 14  1  0
 14 15  1  0
 14 16  2  0
 16 17  1  0
 17 18  2  0
 18 19  1  0
 19 20  1  0
 20 21  1  0
 21 22  1  0
 21 23  1  0
 21 24  1  0
 24 25  2  0
 24 26  1  0
 26 27  1  0
 26 28  1  0
 28 29  1  0
 28 30  1  0
 28 31  1  0
 31 32  2  0
 32 33  1  0
 32 34  1  0
 34 35  1  0
 34 36  2  0
 36 37  1  0
 36 38  1  0
 38 39  1  0
 38 40  2  0
 40 41  1  0
 20 42  2  0
 42 43  1  0
 42 44  1  0
 16 45  1  0
 45 46  1  0
 46 47  1  0
 47 48  1  0
 47 49  1  0
 47 50  1  0
 45 51  2  0
 51 52  1  0
 10 53  2  0
 53 54  1  0
 53  2  1  0
 51 11  1  0
 44 18  1  0
 40 31  1  0
M  CHG  1  19  -1
M  END
>  <UniqueID>  (9) 
9

>  <SMILES>  (9) 
COc1cc(-c2ccnc(C)n2)ccc1/N=c1\[n-]c(CC(=O)NCc2ccccc2)cs1

>  <Energy>  (9) 
91.08625699741584

>  <Genealogy>  (9) 
COc1cc(-c2ccnc(C)n2)ccc1N=c1[n-]c(CC(=O)NCc2ccccc2)cs1 (protonated)
COc1cc(-c2ccnc(C)n2)ccc1/N=c1\[n-]c(CC(=O)NCc2ccccc2)cs1 (cis-trans isomerization)
COc1cc(-c2ccnc(C)n2)ccc1/N=c1\[n-]c(CC(=O)NCc2ccccc2)cs1 (3D coordinates assigned)
COc1cc(-c2ccnc(C)n2)ccc1/N=c1\[n-]c(CC(=O)NCc2ccccc2)cs1 (optimized conformer: 91.08625699741584 kcal/mol)

>  <smiles>  (9) 
COc1cc(-c2ccnc(C)n2)ccc1N=c1[nH]c(CC(=O)NCc2ccccc2)cs1

>  <score_type>  (9) 
oracle

>  <origin>  (9) 
adg

>  <m_score__min__energy>  (9) 
-9.5299999999999994

>  <m_primary>  (9) 
energy

$$$$
9:0
     RDKit          3D

 52 54  0  0  0  0  0  0  0  0999 V2000
   56.6580   30.6010   42.8370 C   0  0  0  0  0  0  0  0  0  0  0  0
   57.1640   29.9860   44.1130 C   0  0  0  0  0  0  0  0  0  0  0  0
   56.8590   28.6480   44.4140 C   0  0  0  0  0  0  0  0  0  0  0  0
   57.2950   28.0700   45.6120 C   0  0  0  0  0  0  0  0  0  0  0  0
   56.8790   26.4000   45.9770 S   0  0  0  0  0  0  0  0  0  0  0  0
   55.1590   26.2210   45.9850 N   0  0  0  0  0  0  0  0  0  0  0  0
   57.4560   25.4810   44.9360 O   0  0  0  0  0  0  0  0  0  0  0  0
   57.4310   26.0310   47.3250 O   0  0  0  0  0  0  0  0  0  0  0  0
   58.0340   28.8340   46.5200 C   0  0  0  0  0  0  0  0  0  0  0  0
   58.3420   30.1650   46.2320 C   0  0  0  0  0  0  0  0  0  0  0  0
   57.9190   30.7530   45.0240 C   0  0  0  0  0  0  0  0  0  0  0  0
   58.1570   32.1440   44.7510 N   0  0  0  0  0  0  0  0  0  0  0  0
   58.1090   33.2040   45.7140 C   0  0  0  0  0  0  0  0  0  0  0  0
   57.1970   33.2310   46.5860 O   0  0  0  0  0  0  0  0  0  0  0  0
   59.1940   34.2380   45.7600 C   0  0  0  0  0  0  0  0  0  0  0  0
   60.7050   33.6760   46.6390 S   0  0  0  0  0  0  0  0  0  0  0  0
   59.8900   33.2300   48.1750 C   0  0  0  0  0  0  0  0  0  0  0  0
   59.8670   34.1100   49.2600 C   0  0  0  0  0  0  0  0  0  0  0  0
   59.2810   33.7000   50.4600 C   0  0  0  0  0  0  0  0  0  0  0  0
   58.7180   32.4170   50.5690 C   0  0  0  0  0  0  0  0  0  0  0  0
   58.1350   31.9560   51.8480 C   0  0  0  0  0  0  0  0  0  0  0  0
   57.9990   32.7730   52.7990 O   0  0  0  0  0  0  0  0  0  0  0  0
   57.7430   30.5860   52.0260 N   0  0  0  0  0  0  0  0  0  0  0  0
   56.9890   30.1530   53.2010 C   0  0  0  0  0  0  0  0  0  0  0  0
   55.5250   30.0290   52.8740 C   0  0  0  0  0  0  0  0  0  0  0  0
   54.9350   30.9120   51.9550 C   0  0  0  0  0  0  0  0  0  0  0  0
   53.5840   30.7810   51.6200 C   0  0  0  0  0  0  0  0  0  0  0  0
   52.8150   29.7650   52.1940 C   0  0  0  0  0  0  0  0  0  0  0  0
   51.5070   29.6360   51.8650 F   0  0  0  0  0  0  0  0  0  0  0  0
   53.3980   28.8740   53.0990 C   0  0  0  0  0  0  0  0  0  0  0  0
   54.7510   29.0000   53.4340 C   0  0  0  0  0  0  0  0  0  0  0  0
   58.7170   31.5900   49.4340 C   0  0  0  0  0  0  0  0  0  0  0  0
   59.3010   32.0100   48.2820 N   0  0  0  0  0  0  0  0  0  0  0  0
   55.9757   31.4303   43.0751 H   0  0  0  0  0  0  0  0  0  0  0  0
   57.5077   30.9819   42.2514 H   0  0  0  0  0  0  0  0  0  0  0  0
   56.1206   29.8406   42.2514 H   0  0  0  0  0  0  0  0  0  0  0  0
   56.2723   28.0492   43.7018 H   0  0  0  0  0  0  0  0  0  0  0  0
   54.7650   27.0880   46.4150 H   0  0  0  0  0  0  0  0  0  0  0  0
   58.3741   28.3849   47.4648 H   0  0  0  0  0  0  0  0  0  0  0  0
   58.9200   30.7596   46.9548 H   0  0  0  0  0  0  0  0  0  0  0  0
   59.4690   34.5002   44.7277 H   0  0  0  0  0  0  0  0  0  0  0  0
   58.7968   35.0990   46.3176 H   0  0  0  0  0  0  0  0  0  0  0  0
   60.3056   35.1148   49.1703 H   0  0  0  0  0  0  0  0  0  0  0  0
   59.2602   34.3832   51.3219 H   0  0  0  0  0  0  0  0  0  0  0  0
   58.0400   29.8760   51.3180 H   0  0  0  0  0  0  0  0  0  0  0  0
   57.3690   29.1762   53.5348 H   0  0  0  0  0  0  0  0  0  0  0  0
   57.1126   30.9014   53.9977 H   0  0  0  0  0  0  0  0  0  0  0  0
   55.5382   31.7098   51.4970 H   0  0  0  0  0  0  0  0  0  0  0  0
   53.1257   31.4786   50.9036 H   0  0  0  0  0  0  0  0  0  0  0  0
   52.7929   28.0729   53.5485 H   0  0  0  0  0  0  0  0  0  0  0  0
   55.2096   28.2905   54.1384 H   0  0  0  0  0  0  0  0  0  0  0  0
   58.2417   30.5990   49.4781 H   0  0  0  0  0  0  0  0  0  0  0  0
  1  2  1  0
  2  3  2  0
  3  4  1  0
  4  5  1  0
  5  6  1  0
  5  7  2  0
  5  8  2  0
  4  9  2  0
  9 10  1  0
 10 11  2  0
 11 12  1  0
 12 13  1  0
 13 14  2  0
 13 15  1  0
 15 16  1  0
 16 17  1  0
 17 18  2  0
 18 19  1  0
 19 20  2  0
 20 21  1  0
 21 22  2  0
 21 23  1  0
 23 24  1  0
 24 25  1  0
 25 26  2  0
 26 27  1  0
 27 28  2  0
 28 29  1  0
 28 30  1  0
 30 31  2  0
 20 32  1  0
 32 33  2  0
 11  2  1  0
 33 17  1  0
 31 25  1  0
  1 34  1  0
  1 35  1  0
  1 36  1  0
  3 37  1  0
  6 38  1  0
  9 39  1  0
 10 40  1  0
 15 41  1  0
 15 42  1  0
 18 43  1  0
 19 44  1  0
 23 45  1  0
 24 46  1  0
 24 47  1  0
 26 48  1  0
 27 49  1  0
 30 50  1  0
 31 51  1  0
 32 52  1  0
M  CHG  2   6  -1  12  -1
M  END
>  <UniqueID>  (10) 
10

>  <SMILES>  (10) 
Cc1cc(S([NH-])(=O)=O)ccc1[N-]C(=O)CSc1ccc(C(=O)NCc2ccc(F)cc2)cn1

>  <Energy>  (10) 
50.9423344731477

>  <Genealogy>  (10) 
Cc1cc(S([NH-])(=O)=O)ccc1[N-]C(=O)CSc1ccc(C(=O)NCc2ccc(F)cc2)cn1 (protonated)
Cc1cc(S([NH-])(=O)=O)ccc1[N-]C(=O)CSc1ccc(C(=O)NCc2ccc(F)cc2)cn1 (3D coordinates assigned)
Cc1cc(S([NH-])(=O)=O)ccc1[N-]C(=O)CSc1ccc(C(=O)NCc2ccc(F)cc2)cn1 (optimized conformer: 50.9423344731477 kcal/mol)

>  <smiles>  (10) 
Cc1cc(S(N)(=O)=O)ccc1NC(=O)CSc1ccc(C(=O)NCc2ccc(F)cc2)cn1

>  <score_type>  (10) 
oracle

>  <origin>  (10) 
adg

>  <m_score__min__energy>  (10) 
-12.710000000000001

>  <m_primary>  (10) 
energy

$$$$
10:0
     RDKit          3D

 50 52  0  0  0  0  0  0  0  0999 V2000
   57.5120   24.6820   44.7870 C   0  0  0  0  0  0  0  0  0  0  0  0
   57.6470   25.9790   44.5170 C   0  0  0  0  0  0  0  0  0  0  0  0
   58.1410   26.9730   45.4950 C   0  0  0  0  0  0  0  0  0  0  0  0
   59.3590   26.7500   46.0610 N   0  0  0  0  0  0  0  0  0  0  0  0
   59.9030   27.5920   46.9780 C   0  0  0  0  0  0  0  0  0  0  0  0
   59.2270   28.7640   47.3540 C   0  0  0  0  0  0  0  0  0  0  0  0
   59.7900   29.6930   48.3630 C   0  0  0  0  0  0  0  0  0  0  0  0
   60.5250   29.2350   49.2870 O   0  0  0  0  0  0  0  0  0  0  0  0
   59.5110   31.1020   48.3070 N   0  0  0  0  0  0  0  0  0  0  0  0
   60.2360   32.0810   49.1180 C   0  0  0  0  0  0  0  0  0  0  0  0
   61.3730   32.6870   48.3320 C   0  0  0  0  0  0  0  0  0  0  0  0
   62.6580   32.7450   48.8930 C   0  0  0  0  0  0  0  0  0  0  0  0
   63.7180   33.3120   48.1850 C   0  0  0  0  0  0  0  0  0  0  0  0
   63.4890   33.8250   46.9160 C   0  0  0  0  0  0  0  0  0  0  0  0
   62.2460   33.7680   46.3790 N   0  0  0  0  0  0  0  0  0  0  0  0
   61.1910   33.2110   47.0380 C   0  0  0  0  0  0  0  0  0  0  0  0
   59.9040   33.2220   46.4100 N   0  0  0  0  0  0  0  0  0  0  0  0
   58.9280   34.2440   46.8340 C   0  0  0  0  0  0  0  0  0  0  0  0
   57.4510   33.8240   46.5970 C   0  0  0  0  0  0  0  0  0  0  0  0
   57.3020   32.4370   46.4000 O   0  0  0  0  0  0  0  0  0  0  0  0
   58.0520   32.0520   45.2680 C   0  0  0  0  0  0  0  0  0  0  0  0
   59.5290   32.0340   45.6300 C   0  0  0  0  0  0  0  0  0  0  0  0
   57.9820   29.0260   46.7730 C   0  0  0  0  0  0  0  0  0  0  0  0
   57.4100   28.1290   45.8590 C   0  0  0  0  0  0  0  0  0  0  0  0
   56.1620   28.4430   45.2170 N   0  0  0  0  0  0  0  0  0  0  0  0
   55.9520   29.4800   44.2440 C   0  0  0  0  0  0  0  0  0  0  0  0
   56.6100   29.4490   42.8920 C   0  0  0  0  0  0  0  0  0  0  0  0
   55.2130   30.4560   44.5470 O   0  0  0  0  0  0  0  0  0  0  0  0
   57.1384   23.9951   44.0133 H   0  0  0  0  0  0  0  0  0  0  0  0
   57.7741   24.2975   45.7837 H   0  0  0  0  0  0  0  0  0  0  0  0
   57.3761   26.3309   43.5106 H   0  0  0  0  0  0  0  0  0  0  0  0
   60.8781   27.3544   47.4283 H   0  0  0  0  0  0  0  0  0  0  0  0
   58.6850   31.4350   47.7570 H   0  0  0  0  0  0  0  0  0  0  0  0
   59.5439   32.8788   49.4254 H   0  0  0  0  0  0  0  0  0  0  0  0
   60.6484   31.5723   50.0018 H   0  0  0  0  0  0  0  0  0  0  0  0
   62.8312   32.3395   49.9008 H   0  0  0  0  0  0  0  0  0  0  0  0
   64.7242   33.3520   48.6277 H   0  0  0  0  0  0  0  0  0  0  0  0
   64.3148   34.2770   46.3471 H   0  0  0  0  0  0  0  0  0  0  0  0
   59.0679   34.4351   47.9082 H   0  0  0  0  0  0  0  0  0  0  0  0
   59.1120   35.1409   46.2242 H   0  0  0  0  0  0  0  0  0  0  0  0
   56.8565   34.1202   47.4739 H   0  0  0  0  0  0  0  0  0  0  0  0
   57.1068   34.3271   45.6813 H   0  0  0  0  0  0  0  0  0  0  0  0
   57.7402   31.0481   44.9440 H   0  0  0  0  0  0  0  0  0  0  0  0
   57.8804   32.7671   44.4500 H   0  0  0  0  0  0  0  0  0  0  0  0
   59.7408   31.1335   46.2252 H   0  0  0  0  0  0  0  0  0  0  0  0
   60.1140   32.0324   44.6984 H   0  0  0  0  0  0  0  0  0  0  0  0
   57.4439   29.9485   47.0366 H   0  0  0  0  0  0  0  0  0  0  0  0
   57.7017   29.3976   43.0166 H   0  0  0  0  0  0  0  0  0  0  0  0
   56.2625   28.5662   42.3352 H   0  0  0  0  0  0  0  0  0  0  0  0
   56.3470   30.3605   42.3352 H   0  0  0  0  0  0  0  0  0  0  0  0
  1  2  2  0
  2  3  1  0
  3  4  2  0
  4  5  1  0
  5  6  2  0
  6  7  1  0
  7  8  2  0
  7  9  1  0
  9 10  1  0
 10 11  1  0
 11 12  2  0
 12 13  1  0
 13 14  2  0
 14 15  1  0
 15 16  2  0
 16 17  1  0
 17 18  1  0
 18 19  1  0
 19 20  1  0
 20 21  1  0
 21 22  1  0
  6 23  1  0
 23 24  2  0
 24 25  1  0
 25 26  1  0
 26 27  1  0
 26 28  2  0
 24  3  1  0
 16 11  1  0
 22 17  1  0
  1 29  1  0
  1 30  1  0
  2 31  1  0
  5 32  1  0
  9 33  1  0
 10 34  1  0
 10 35  1  0
 12 36  1  0
 13 37  1  0
 14 38  1  0
 18 39  1  0
 18 40  1  0
 19 41  1  0
 19 42  1  0
 21 43  1  0
 21 44  1  0
 22 45  1  0
 22 46  1  0
 23 47  1  0
 27 48  1  0
 27 49  1  0
 27 50  1  0
M  CHG  1  25  -1
M  END
>  <UniqueID>  (11) 
11

>  <SMILES>  (11) 
C=Cc1ncc(C(=O)NCc2cccnc2N2CCOCC2)cc1[N-]C(C)=O

>  <Energy>  (11) 
71.38459533126246

>  <Genealogy>  (11) 
C=Cc1ncc(C(=O)NCc2cccnc2N2CCOCC2)cc1[N-]C(C)=O (protonated)
C=Cc1ncc(C(=O)NCc2cccnc2N2CCOCC2)cc1[N-]C(C)=O (3D coordinates assigned)
C=Cc1ncc(C(=O)NCc2cccnc2N2CCOCC2)cc1[N-]C(C)=O (nonaromatic ring conformer: 71.38459533126246 kcal/mol)

>  <smiles>  (11) 
C=Cc1ncc(C(=O)NCc2cccnc2N2CCOCC2)cc1NC(C)=O

>  <score_type>  (11) 
oracle

>  <origin>  (11) 
adg

>  <m_score__min__energy>  (11) 
-9.7200000000000006

>  <m_primary>  (11) 
energy

$$$$
11:0
     RDKit          3D

 58 62  0  0  0  0  0  0  0  0999 V2000
   58.7340   30.5190   47.5060 C   0  0  0  0  0  0  0  0  0  0  0  0
   58.4780   30.3890   46.1930 C   0  0  0  0  0  0  0  0  0  0  0  0
   58.4690   29.1940   45.4550 C   0  0  0  0  0  0  0  0  0  0  0  0
   58.4880   27.9080   45.8560 C   0  0  0  0  0  0  0  0  0  0  0  0
   57.3080   27.0310   45.9610 C   0  0  0  0  0  0  0  0  0  0  0  0
   57.3100   25.8220   46.5540 N   0  0  0  0  0  0  0  0  0  0  0  0
   56.0090   25.4600   46.5250 C   0  0  0  0  0  0  0  0  0  0  0  0
   55.6020   24.3600   46.9830 O   0  0  0  0  0  0  0  0  0  0  0  0
   55.1780   26.3720   45.9760 N   0  0  0  0  0  0  0  0  0  0  0  0
   56.0130   27.3670   45.6360 C   0  0  0  0  0  0  0  0  0  0  0  0
   55.5910   28.5530   45.0410 O   0  0  0  0  0  0  0  0  0  0  0  0
   58.3790   29.5600   44.1250 C   0  0  0  0  0  0  0  0  0  0  0  0
   58.2560   30.9330   44.0950 C   0  0  0  0  0  0  0  0  0  0  0  0
   58.0520   31.7360   42.8470 C   0  0  0  0  0  0  0  0  0  0  0  0
   58.3170   31.4430   45.3480 N   0  0  0  0  0  0  0  0  0  0  0  0
   58.1270   32.8580   45.7070 C   0  0  0  0  0  0  0  0  0  0  0  0
   59.2340   33.2970   46.6210 C   0  0  0  0  0  0  0  0  0  0  0  0
   59.0060   34.2460   47.6280 C   0  0  0  0  0  0  0  0  0  0  0  0
   60.0260   34.5530   48.5300 C   0  0  0  0  0  0  0  0  0  0  0  0
   61.2630   33.9040   48.4320 C   0  0  0  0  0  0  0  0  0  0  0  0
   62.2870   34.1430   49.3590 C   0  0  0  0  0  0  0  0  0  0  0  0
   63.4910   33.4270   49.2740 C   0  0  0  0  0  0  0  0  0  0  0  0
   64.5180   33.5650   50.3200 C   0  0  0  0  0  0  0  0  0  0  0  0
   65.7330   33.5130   49.9990 O   0  0  0  0  0  0  0  0  0  0  0  0
   64.1710   33.6910   51.7070 N   0  0  0  0  0  0  0  0  0  0  0  0
   63.4440   32.7010   52.5030 C   0  0  0  0  0  0  0  0  0  0  0  0
   62.0520   32.4800   51.9640 C   0  0  0  0  0  0  0  0  0  0  0  0
   61.7590   31.3440   51.1870 C   0  0  0  0  0  0  0  0  0  0  0  0
   60.4600   31.1280   50.7170 C   0  0  0  0  0  0  0  0  0  0  0  0
   59.4490   32.0500   51.0000 C   0  0  0  0  0  0  0  0  0  0  0  0
   58.1930   31.8450   50.5350 F   0  0  0  0  0  0  0  0  0  0  0  0
   59.7360   33.1900   51.7580 C   0  0  0  0  0  0  0  0  0  0  0  0
   61.0320   33.4070   52.2360 C   0  0  0  0  0  0  0  0  0  0  0  0
   63.6930   32.5260   48.2190 C   0  0  0  0  0  0  0  0  0  0  0  0
   62.6800   32.2940   47.2850 C   0  0  0  0  0  0  0  0  0  0  0  0
   61.4590   32.9650   47.3970 C   0  0  0  0  0  0  0  0  0  0  0  0
   60.4480   32.6880   46.5320 N   0  0  0  0  0  0  0  0  0  0  0  0
   58.7114   31.5138   47.9749 H   0  0  0  0  0  0  0  0  0  0  0  0
   58.9661   29.6306   48.1117 H   0  0  0  0  0  0  0  0  0  0  0  0
   59.4633   27.4775   46.1271 H   0  0  0  0  0  0  0  0  0  0  0  0
   55.8110   28.7650   44.0750 H   0  0  0  0  0  0  0  0  0  0  0  0
   58.4013   28.8850   43.2567 H   0  0  0  0  0  0  0  0  0  0  0  0
   57.7893   32.7700   43.1151 H   0  0  0  0  0  0  0  0  0  0  0  0
   58.9789   31.7350   42.2547 H   0  0  0  0  0  0  0  0  0  0  0  0
   57.2379   31.2927   42.2547 H   0  0  0  0  0  0  0  0  0  0  0  0
   58.1398   33.4724   44.7946 H   0  0  0  0  0  0  0  0  0  0  0  0
   57.1606   32.9793   46.2181 H   0  0  0  0  0  0  0  0  0  0  0  0
   58.0291   34.7455   47.7066 H   0  0  0  0  0  0  0  0  0  0  0  0
   59.8584   35.3035   49.3165 H   0  0  0  0  0  0  0  0  0  0  0  0
   62.1469   34.8915   50.1528 H   0  0  0  0  0  0  0  0  0  0  0  0
   63.9932   31.7482   52.4787 H   0  0  0  0  0  0  0  0  0  0  0  0
   63.3619   33.0764   53.5337 H   0  0  0  0  0  0  0  0  0  0  0  0
   62.5549   30.6232   50.9485 H   0  0  0  0  0  0  0  0  0  0  0  0
   60.2335   30.2302   50.1231 H   0  0  0  0  0  0  0  0  0  0  0  0
   58.9406   33.9172   51.9785 H   0  0  0  0  0  0  0  0  0  0  0  0
   61.2539   34.3075   52.8276 H   0  0  0  0  0  0  0  0  0  0  0  0
   64.6540   31.9990   48.1261 H   0  0  0  0  0  0  0  0  0  0  0  0
   62.8434   31.5832   46.4615 H   0  0  0  0  0  0  0  0  0  0  0  0
  1  2  2  0
  2  3  1  0
  3  4  2  3
  4  5  1  0
  5  6  1  0
  6  7  1  0
  7  8  2  0
  7  9  1  0
  9 10  1  0
 10 11  1  0
  3 12  1  0
 12 13  2  0
 13 14  1  0
 13 15  1  0
 15 16  1  0
 16 17  1  0
 17 18  2  0
 18 19  1  0
 19 20  2  0
 20 21  1  0
 21 22  2  0
 22 23  1  0
 23 24  2  0
 23 25  1  0
 25 26  1  0
 26 27  1  0
 27 28  2  0
 28 29  1  0
 29 30  2  0
 30 31  1  0
 30 32  1  0
 32 33  2  0
 22 34  1  0
 34 35  2  0
 35 36  1  0
 36 37  2  0
 15  2  1  0
 37 17  1  0
 10  5  2  0
 36 20  1  0
 33 27  1  0
  1 38  1  0
  1 39  1  0
  4 40  1  0
 11 41  1  0
 12 42  1  0
 14 43  1  0
 14 44  1  0
 14 45  1  0
 16 46  1  0
 16 47  1  0
 18 48  1  0
 19 49  1  0
 21 50  1  0
 26 51  1  0
 26 52  1  0
 28 53  1  0
 29 54  1  0
 32 55  1  0
 33 56  1  0
 34 57  1  0
 35 58  1  0
M  CHG  3   6  -1   9  -1  25  -1
M  END
>  <UniqueID>  (12) 
12

>  <SMILES>  (12) 
C=c1c(=Cc2[n-]c(=O)[n-]c2O)cc(C)n1Cc1ccc2cc(C(=O)[N-]Cc3ccc(F)cc3)ccc2n1

>  <Energy>  (12) 
134.45448835216885

>  <Genealogy>  (12) 
C=c1c(=Cc2[n-]c(=O)[n-]c2O)cc(C)n1Cc1ccc2cc(C(=O)[N-]Cc3ccc(F)cc3)ccc2n1 (protonated)
C=c1c(=Cc2[n-]c(=O)[n-]c2O)cc(C)n1Cc1ccc2cc(C(=O)[N-]Cc3ccc(F)cc3)ccc2n1 (3D coordinates assigned)
C=c1c(=Cc2[n-]c(=O)[n-]c2O)cc(C)n1Cc1ccc2cc(C(=O)[N-]Cc3ccc(F)cc3)ccc2n1 (optimized conformer: 134.45448835216885 kcal/mol)

>  <smiles>  (12) 
C=c1c(=Cc2[nH]c(=O)[nH]c2O)cc(C)n1Cc1ccc2cc(C(=O)NCc3ccc(F)cc3)ccc2n1

>  <score_type>  (12) 
oracle

>  <origin>  (12) 
adg

>  <m_score__min__energy>  (12) 
-14.539999999999999

>  <m_primary>  (12) 
energy

$$$$
12:0
     RDKit          3D

 38 40  0  0  0  0  0  0  0  0999 V2000
   57.0570   20.0290   43.4890 H   0  0  0  0  0  0  0  0  0  0  0  0
   56.2720   20.6250   43.2520 O   0  0  0  0  0  0  0  0  0  0  0  0
   56.2460   21.9550   43.6570 C   0  0  0  0  0  0  0  0  0  0  0  0
   55.4990   22.4050   44.6820 N   0  0  0  0  0  0  0  0  0  0  0  0
   55.7580   23.7270   44.7420 C   0  0  0  0  0  0  0  0  0  0  0  0
   55.1530   24.6230   45.7340 C   0  0  0  0  0  0  0  0  0  0  0  0
   53.9450   24.9660   45.6180 O   0  0  0  0  0  0  0  0  0  0  0  0
   55.9410   25.1060   46.8280 N   0  0  0  0  0  0  0  0  0  0  0  0
   56.8360   26.2570   46.7450 C   0  0  0  0  0  0  0  0  0  0  0  0
   56.4168   26.9870   46.0369 H   0  0  0  0  0  0  0  0  0  0  0  0
   56.9290   26.6984   47.7482 H   0  0  0  0  0  0  0  0  0  0  0  0
   58.2340   25.8410   46.2660 C   0  0  0  0  0  0  0  0  0  0  0  0
   58.9252   25.8979   47.1198 H   0  0  0  0  0  0  0  0  0  0  0  0
   58.1468   24.8204   45.8651 H   0  0  0  0  0  0  0  0  0  0  0  0
   58.7840   26.7210   45.1380 C   0  0  0  0  0  0  0  0  0  0  0  0
   59.7943   26.3796   44.8682 H   0  0  0  0  0  0  0  0  0  0  0  0
   58.1213   26.6462   44.2632 H   0  0  0  0  0  0  0  0  0  0  0  0
   58.8440   28.1100   45.5790 N   0  0  0  0  0  0  0  0  0  0  0  0
   58.0550   29.1340   45.3760 C   0  0  0  0  0  0  0  0  0  0  0  0
   56.8050   28.8230   44.8230 C   0  0  0  0  0  0  0  0  0  0  0  0
   56.4999   27.7703   44.7293 H   0  0  0  0  0  0  0  0  0  0  0  0
   55.9450   29.8280   44.3910 C   0  0  0  0  0  0  0  0  0  0  0  0
   54.9715   29.5665   43.9507 H   0  0  0  0  0  0  0  0  0  0  0  0
   56.3050   31.1260   44.5120 N   0  0  0  0  0  0  0  0  0  0  0  0
   57.4790   31.4980   45.0830 C   0  0  0  0  0  0  0  0  0  0  0  0
   57.7640   32.8630   45.1940 C   0  0  0  0  0  0  0  0  0  0  0  0
   57.0671   33.6029   44.7734 H   0  0  0  0  0  0  0  0  0  0  0  0
   58.9250   33.2910   45.8340 C   0  0  0  0  0  0  0  0  0  0  0  0
   59.2710   35.0050   45.9770 Cl  0  0  0  0  0  0  0  0  0  0  0  0
   59.7910   32.3540   46.3940 C   0  0  0  0  0  0  0  0  0  0  0  0
   60.6935   32.6926   46.9240 H   0  0  0  0  0  0  0  0  0  0  0  0
   59.5210   30.9870   46.2870 C   0  0  0  0  0  0  0  0  0  0  0  0
   60.2014   30.2633   46.7596 H   0  0  0  0  0  0  0  0  0  0  0  0
   58.3870   30.5170   45.5810 C   0  0  0  0  0  0  0  0  0  0  0  0
   56.6620   24.1060   43.7650 C   0  0  0  0  0  0  0  0  0  0  0  0
   57.0522   25.1184   43.5836 H   0  0  0  0  0  0  0  0  0  0  0  0
   56.9750   22.9630   43.0660 C   0  0  0  0  0  0  0  0  0  0  0  0
   57.6638   22.8730   42.2131 H   0  0  0  0  0  0  0  0  0  0  0  0
  1  2  1  0
  2  3  1  0
  3  4  1  0
  4  5  1  0
  5  6  1  0
  6  7  2  0
  6  8  1  0
  8  9  1  0
  9 10  1  0
  9 11  1  0
  9 12  1  0
 12 13  1  0
 12 14  1  0
 12 15  1  0
 15 16  1  0
 15 17  1  0
 15 18  1  0
 18 19  2  0
 19 20  1  0
 20 21  1  0
 20 22  2  0
 22 23  1  0
 22 24  1  0
 24 25  1  0
 25 26  2  0
 26 27  1  0
 26 28  1  0
 28 29  1  0
 28 30  2  0
 30 31  1  0
 30 32  1  0
 32 33  1  0
 32 34  2  0
  5 35  2  0
 35 36  1  0
 35 37  1  0
 37 38  1  0
 37  3  2  0
 34 19  1  0
 34 25  1  0
M  CHG  3   4  -1   8  -1  24  -1
M  END
>  <UniqueID>  (13) 
13

>  <SMILES>  (13) 
O=C([N-]CCC/N=c1/cc[n-]c2cc(Cl)ccc12)c1ccc(O)[n-]1

>  <Energy>  (13) 
76.449656256579

>  <Genealogy>  (13) 
O=C([N-]CCCN=c1cc[n-]c2cc(Cl)ccc12)c1ccc(O)[n-]1 (protonated)
O=C([N-]CCC/N=c1/cc[n-]c2cc(Cl)ccc12)c1ccc(O)[n-]1 (cis-trans isomerization)
O=C([N-]CCC/N=c1/cc[n-]c2cc(Cl)ccc12)c1ccc(O)[n-]1 (3D coordinates assigned)
O=C([N-]CCC/N=c1/cc[n-]c2cc(Cl)ccc12)c1ccc(O)[n-]1 (optimized conformer: 76.449656256579 kcal/mol)

>  <smiles>  (13) 
O=C(NCCCN=c1cc[nH]c2cc(Cl)ccc12)c1ccc(O)[nH]1

>  <score_type>  (13) 
oracle

>  <origin>  (13) 
adg

>  <m_score__min__energy>  (13) 
-12.859999999999999

>  <m_primary>  (13) 
energy

$$$$
13:0
     RDKit          3D

 54 57  0  0  0  0  0  0  0  0999 V2000
   60.1150   25.8970   46.2710 C   0  0  0  0  0  0  0  0  0  0  0  0
   58.6360   26.1910   46.0590 C   0  0  0  0  0  0  0  0  0  0  0  0
   58.2550   27.5000   45.6430 C   0  0  0  0  0  0  0  0  0  0  0  0
   59.1990   28.5280   45.4320 C   0  0  0  0  0  0  0  0  0  0  0  0
   58.7980   29.8000   45.0260 C   0  0  0  0  0  0  0  0  0  0  0  0
   57.4440   30.0980   44.8200 C   0  0  0  0  0  0  0  0  0  0  0  0
   57.0560   31.4710   44.4000 C   0  0  0  0  0  0  0  0  0  0  0  0
   57.0340   31.7850   43.1780 O   0  0  0  0  0  0  0  0  0  0  0  0
   56.6990   32.4490   45.3850 N   0  0  0  0  0  0  0  0  0  0  0  0
   57.6440   33.3980   45.9640 C   0  0  0  0  0  0  0  0  0  0  0  0
   58.1650   32.8790   47.3060 C   0  0  0  0  0  0  0  0  0  0  0  0
   59.6370   32.5810   47.2240 C   0  0  0  0  0  0  0  0  0  0  0  0
   60.0990   31.2560   47.2930 C   0  0  0  0  0  0  0  0  0  0  0  0
   61.4690   30.9830   47.2460 C   0  0  0  0  0  0  0  0  0  0  0  0
   62.3890   32.0300   47.1410 C   0  0  0  0  0  0  0  0  0  0  0  0
   61.9390   33.3520   47.0860 C   0  0  0  0  0  0  0  0  0  0  0  0
   60.5690   33.6290   47.1320 C   0  0  0  0  0  0  0  0  0  0  0  0
   56.4860   29.0830   45.0260 C   0  0  0  0  0  0  0  0  0  0  0  0
   55.1340   29.3460   44.8150 O   0  0  0  0  0  0  0  0  0  0  0  0
   56.8890   27.7930   45.4380 C   0  0  0  0  0  0  0  0  0  0  0  0
   55.9420   26.7940   45.6540 C   0  0  0  0  0  0  0  0  0  0  0  0
   56.3340   25.5290   46.0780 C   0  0  0  0  0  0  0  0  0  0  0  0
   55.4350   24.6680   46.2810 O   0  0  0  0  0  0  0  0  0  0  0  0
   57.6620   25.2260   46.2780 N   0  0  0  0  0  0  0  0  0  0  0  0
   58.0140   23.8680   46.7630 C   0  0  0  0  0  0  0  0  0  0  0  0
   57.4700   22.7980   45.8460 C   0  0  0  0  0  0  0  0  0  0  0  0
   57.7140   22.8500   44.4630 C   0  0  0  0  0  0  0  0  0  0  0  0
   57.2180   21.8510   43.6200 C   0  0  0  0  0  0  0  0  0  0  0  0
   56.4890   20.7800   44.1500 C   0  0  0  0  0  0  0  0  0  0  0  0
   55.9840   19.7820   43.3180 O   0  0  0  0  0  0  0  0  0  0  0  0
   56.2670   20.7070   45.5300 C   0  0  0  0  0  0  0  0  0  0  0  0
   56.7600   21.7070   46.3750 C   0  0  0  0  0  0  0  0  0  0  0  0
   60.3295   25.8544   47.3490 H   0  0  0  0  0  0  0  0  0  0  0  0
   60.3668   24.9312   45.8086 H   0  0  0  0  0  0  0  0  0  0  0  0
   60.7170   26.6930   45.8086 H   0  0  0  0  0  0  0  0  0  0  0  0
   60.2679   28.3222   45.5904 H   0  0  0  0  0  0  0  0  0  0  0  0
   59.5554   30.5813   44.8650 H   0  0  0  0  0  0  0  0  0  0  0  0
   58.4902   33.5336   45.2744 H   0  0  0  0  0  0  0  0  0  0  0  0
   57.1320   34.3579   46.1266 H   0  0  0  0  0  0  0  0  0  0  0  0
   57.9933   33.6418   48.0797 H   0  0  0  0  0  0  0  0  0  0  0  0
   57.6295   31.9521   47.5594 H   0  0  0  0  0  0  0  0  0  0  0  0
   59.3790   30.4294   47.3845 H   0  0  0  0  0  0  0  0  0  0  0  0
   61.8236   29.9427   47.2917 H   0  0  0  0  0  0  0  0  0  0  0  0
   63.4668   31.8136   47.1017 H   0  0  0  0  0  0  0  0  0  0  0  0
   62.6635   34.1759   47.0064 H   0  0  0  0  0  0  0  0  0  0  0  0
   60.2194   34.6713   47.0960 H   0  0  0  0  0  0  0  0  0  0  0  0
   54.8758   27.0077   45.4878 H   0  0  0  0  0  0  0  0  0  0  0  0
   59.1093   23.7770   46.8092 H   0  0  0  0  0  0  0  0  0  0  0  0
   57.5689   23.7297   47.7594 H   0  0  0  0  0  0  0  0  0  0  0  0
   58.2984   23.6812   44.0415 H   0  0  0  0  0  0  0  0  0  0  0  0
   57.4012   21.9068   42.5368 H   0  0  0  0  0  0  0  0  0  0  0  0
   56.4990   18.9280   43.1460 H   0  0  0  0  0  0  0  0  0  0  0  0
   55.7035   19.8613   45.9511 H   0  0  0  0  0  0  0  0  0  0  0  0
   56.5908   21.6388   47.4598 H   0  0  0  0  0  0  0  0  0  0  0  0
  1  2  1  0
  2  3  2  0
  3  4  1  0
  4  5  2  0
  5  6  1  0
  6  7  1  0
  7  8  2  0
  7  9  1  0
  9 10  1  0
 10 11  1  0
 11 12  1  0
 12 13  2  0
 13 14  1  0
 14 15  2  0
 15 16  1  0
 16 17  2  0
  6 18  2  0
 18 19  1  0
 18 20  1  0
 20 21  2  0
 21 22  1  0
 22 23  2  0
 22 24  1  0
 24 25  1  0
 25 26  1  0
 26 27  2  0
 27 28  1  0
 28 29  2  0
 29 30  1  0
 29 31  1  0
 31 32  2  0
 24  2  1  0
 32 26  1  0
 20  3  1  0
 17 12  1  0
  1 33  1  0
  1 34  1  0
  1 35  1  0
  4 36  1  0
  5 37  1  0
 10 38  1  0
 10 39  1  0
 11 40  1  0
 11 41  1  0
 13 42  1  0
 14 43  1  0
 15 44  1  0
 16 45  1  0
 17 46  1  0
 21 47  1  0
 25 48  1  0
 25 49  1  0
 27 50  1  0
 28 51  1  0
 30 52  1  0
 31 53  1  0
 32 54  1  0
M  CHG  2   9  -1  19  -1
M  END
>  <UniqueID>  (14) 
14

>  <SMILES>  (14) 
Cc1c2ccc(C(=O)[N-]CCc3ccccc3)c([O-])c2cc(=O)n1Cc1ccc(O)cc1

>  <Energy>  (14) 
71.7163789791142

>  <Genealogy>  (14) 
Cc1c2ccc(C(=O)[N-]CCc3ccccc3)c([O-])c2cc(=O)n1Cc1ccc(O)cc1 (protonated)
Cc1c2ccc(C(=O)[N-]CCc3ccccc3)c([O-])c2cc(=O)n1Cc1ccc(O)cc1 (3D coordinates assigned)
Cc1c2ccc(C(=O)[N-]CCc3ccccc3)c([O-])c2cc(=O)n1Cc1ccc(O)cc1 (optimized conformer: 71.7163789791142 kcal/mol)

>  <smiles>  (14) 
Cc1c2ccc(C(=O)NCCc3ccccc3)c(O)c2cc(=O)n1Cc1ccc(O)cc1

>  <score_type>  (14) 
oracle

>  <origin>  (14) 
adg

>  <m_score__min__energy>  (14) 
-13.91

>  <m_primary>  (14) 
energy

$$$$
14:0
     RDKit          3D

 43 45  0  0  0  0  0  0  0  0999 V2000
   63.4920   31.9850   47.4190 C   0  0  0  0  0  0  0  0  0  0  0  0
   62.1850   32.6820   47.5940 C   0  0  0  0  0  0  0  0  0  0  0  0
   61.8460   33.9070   47.0530 C   0  0  0  0  0  0  0  0  0  0  0  0
   60.5280   34.0860   47.4240 C   0  0  0  0  0  0  0  0  0  0  0  0
   59.6720   35.2630   47.0440 C   0  0  0  0  0  0  0  0  0  0  0  0
   58.8980   34.9630   45.8240 N   0  0  0  0  0  0  0  0  0  0  0  0
   59.6500   34.1390   44.8730 C   0  0  0  0  0  0  0  0  0  0  0  0
   58.6160   33.4340   44.0270 C   0  0  0  0  0  0  0  0  0  0  0  0
   57.4360   33.2230   44.9730 C   0  0  1  0  0  0  0  0  0  0  0  0
   57.3890   31.8440   45.4780 N   0  0  0  0  0  0  0  0  0  0  0  0
   57.6590   30.7190   44.6250 C   0  0  0  0  0  0  0  0  0  0  0  0
   58.1260   30.9140   43.4680 O   0  0  0  0  0  0  0  0  0  0  0  0
   57.4130   29.3310   45.0830 C   0  0  0  0  0  0  0  0  0  0  0  0
   58.4910   28.4870   45.3990 C   0  0  0  0  0  0  0  0  0  0  0  0
   58.2580   27.1790   45.8270 C   0  0  0  0  0  0  0  0  0  0  0  0
   56.9450   26.7150   45.9290 C   0  0  0  0  0  0  0  0  0  0  0  0
   56.7160   25.5400   46.3160 O   0  0  0  0  0  0  0  0  0  0  0  0
   55.9100   27.5350   45.6060 N   0  0  0  0  0  0  0  0  0  0  0  0
   56.1080   28.8140   45.1890 C   0  0  0  0  0  0  0  0  0  0  0  0
   57.6700   34.2130   46.1220 C   0  0  0  0  0  0  0  0  0  0  0  0
   60.1270   33.0080   48.1340 N   0  0  0  0  0  0  0  0  0  0  0  0
   58.8020   32.7670   48.6960 C   0  0  0  0  0  0  0  0  0  0  0  0
   61.1270   32.1460   48.2330 N   0  0  0  0  0  0  0  0  0  0  0  0
   63.9207   31.7564   48.4059 H   0  0  0  0  0  0  0  0  0  0  0  0
   63.3370   31.0498   46.8610 H   0  0  0  0  0  0  0  0  0  0  0  0
   64.1822   32.6348   46.8610 H   0  0  0  0  0  0  0  0  0  0  0  0
   62.4803   34.5843   46.4623 H   0  0  0  0  0  0  0  0  0  0  0  0
   58.9781   35.4875   47.8675 H   0  0  0  0  0  0  0  0  0  0  0  0
   60.3217   36.1293   46.8506 H   0  0  0  0  0  0  0  0  0  0  0  0
   60.2926   34.7718   44.2432 H   0  0  0  0  0  0  0  0  0  0  0  0
   60.3053   33.4224   45.3899 H   0  0  0  0  0  0  0  0  0  0  0  0
   58.3220   34.0581   43.1702 H   0  0  0  0  0  0  0  0  0  0  0  0
   58.9907   32.4899   43.6048 H   0  0  0  0  0  0  0  0  0  0  0  0
   56.4751   33.3900   44.4643 H   0  0  0  0  0  0  0  0  0  0  0  0
   57.1990   31.6730   46.4900 H   0  0  0  0  0  0  0  0  0  0  0  0
   59.5224   28.8584   45.3088 H   0  0  0  0  0  0  0  0  0  0  0  0
   59.1010   26.5198   46.0816 H   0  0  0  0  0  0  0  0  0  0  0  0
   55.2453   29.4469   44.9336 H   0  0  0  0  0  0  0  0  0  0  0  0
   56.8183   34.9048   46.1995 H   0  0  0  0  0  0  0  0  0  0  0  0
   57.7688   33.6771   47.0775 H   0  0  0  0  0  0  0  0  0  0  0  0
   58.8620   32.7779   49.7943 H   0  0  0  0  0  0  0  0  0  0  0  0
   58.1119   33.5544   48.3587 H   0  0  0  0  0  0  0  0  0  0  0  0
   58.4333   31.7871   48.3587 H   0  0  0  0  0  0  0  0  0  0  0  0
  1  2  1  0
  2  3  1  0
  3  4  2  0
  4  5  1  0
  5  6  1  0
  6  7  1  0
  7  8  1  0
  8  9  1  0
  9 10  1  0
 10 11  1  0
 11 12  2  0
 11 13  1  0
 13 14  1  0
 14 15  2  0
 15 16  1  0
 16 17  2  0
 16 18  1  0
 18 19  1  0
  9 20  1  0
  4 21  1  0
 21 22  1  0
 21 23  1  0
 23  2  2  0
 20  6  1  0
 19 13  2  0
  1 24  1  0
  1 25  1  0
  1 26  1  0
  3 27  1  0
  5 28  1  0
  5 29  1  0
  7 30  1  0
  7 31  1  0
  8 32  1  0
  8 33  1  0
  9 34  1  6
 10 35  1  0
 14 36  1  0
 15 37  1  0
 19 38  1  0
 20 39  1  0
 20 40  1  0
 22 41  1  0
 22 42  1  0
 22 43  1  0
M  CHG  1  18  -1
M  END
>  <UniqueID>  (15) 
15

>  <SMILES>  (15) 
Cc1cc(CN2CC[C@@H](NC(=O)c3ccc(=O)[n-]c3)C2)n(C)n1

>  <Energy>  (15) 
76.30875531437215

>  <Genealogy>  (15) 
Cc1cc(CN2CCC(NC(=O)c3ccc(=O)[n-]c3)C2)n(C)n1 (protonated)
Cc1cc(CN2CC[C@@H](NC(=O)c3ccc(=O)[n-]c3)C2)n(C)n1 (chirality)
Cc1cc(CN2CC[C@@H](NC(=O)c3ccc(=O)[n-]c3)C2)n(C)n1 (3D coordinates assigned)
Cc1cc(CN2CC[C@@H](NC(=O)c3ccc(=O)[n-]c3)C2)n(C)n1 (nonaromatic ring conformer: 76.30875531437215 kcal/mol)

>  <smiles>  (15) 
Cc1cc(CN2CCC(NC(=O)c3ccc(=O)[nH]c3)C2)n(C)n1

>  <score_type>  (15) 
oracle

>  <origin>  (15) 
adg

>  <m_score__min__energy>  (15) 
-9.0099999999999998

>  <m_primary>  (15) 
energy

$$$$
15:0
     RDKit          3D

 42 44  0  0  0  0  0  0  0  0999 V2000
   57.9960   31.6090   42.6200 N   0  0  0  0  0  0  0  0  0  0  0  0
   57.9850   32.3570   43.8420 C   0  0  0  0  0  0  0  0  0  0  0  0
   58.8380   33.4620   43.9840 C   0  0  0  0  0  0  0  0  0  0  0  0
   58.8490   34.1990   45.1700 C   0  0  0  0  0  0  0  0  0  0  0  0
   59.6760   35.2670   45.2970 F   0  0  0  0  0  0  0  0  0  0  0  0
   58.0020   33.8440   46.2220 C   0  0  0  0  0  0  0  0  0  0  0  0
   57.1490   32.7460   46.0930 C   0  0  0  0  0  0  0  0  0  0  0  0
   57.1470   31.9820   44.9120 C   0  0  0  0  0  0  0  0  0  0  0  0
   56.2580   30.8660   44.7660 N   0  0  0  0  0  0  0  0  0  0  0  0
   56.5210   29.6650   44.0250 C   0  0  0  0  0  0  0  0  0  0  0  0
   56.3720   29.6820   42.7750 O   0  0  0  0  0  0  0  0  0  0  0  0
   57.0080   28.4000   44.6820 C   0  0  0  0  0  0  0  0  0  0  0  0
   56.0230   27.8750   45.6240 N   0  0  0  0  0  0  0  0  0  0  0  0
   55.8750   26.5040   46.0180 C   0  0  0  0  0  0  0  0  0  0  0  0
   54.8220   25.8940   45.6940 O   0  0  0  0  0  0  0  0  0  0  0  0
   56.9180   25.7730   46.8190 C   0  0  0  0  0  0  0  0  0  0  0  0
   58.0470   25.4140   45.9690 N   0  0  0  0  0  0  0  0  0  0  0  0
   59.3610   25.9590   46.1290 C   0  0  0  0  0  0  0  0  0  0  0  0
   60.3660   25.2000   46.0670 O   0  0  0  0  0  0  0  0  0  0  0  0
   59.5410   27.4100   46.3680 C   0  0  0  0  0  0  0  0  0  0  0  0
   60.1960   28.2210   45.4000 C   0  0  0  0  0  0  0  0  0  0  0  0
   60.3710   29.6000   45.6200 C   0  0  0  0  0  0  0  0  0  0  0  0
   59.8850   30.1360   46.8070 C   0  0  0  0  0  0  0  0  0  0  0  0
   59.2600   29.3730   47.7360 C   0  0  0  0  0  0  0  0  0  0  0  0
   59.0650   28.0050   47.5610 C   0  0  0  0  0  0  0  0  0  0  0  0
   58.8850   30.1630   48.8060 O   0  0  0  0  0  0  0  0  0  0  0  0
   59.3040   31.5080   48.5300 C   0  0  0  0  0  0  0  0  0  0  0  0
   59.9370   31.4460   47.2450 O   0  0  0  0  0  0  0  0  0  0  0  0
   58.1450   30.5760   42.6300 H   0  0  0  0  0  0  0  0  0  0  0  0
   57.8480   32.0700   41.6950 H   0  0  0  0  0  0  0  0  0  0  0  0
   59.5023   33.7495   43.1557 H   0  0  0  0  0  0  0  0  0  0  0  0
   58.0068   34.4298   47.1530 H   0  0  0  0  0  0  0  0  0  0  0  0
   56.4749   32.4770   46.9196 H   0  0  0  0  0  0  0  0  0  0  0  0
   57.1990   27.6443   43.9058 H   0  0  0  0  0  0  0  0  0  0  0  0
   57.9290   28.6310   45.2373 H   0  0  0  0  0  0  0  0  0  0  0  0
   57.2696   26.4214   47.6351 H   0  0  0  0  0  0  0  0  0  0  0  0
   56.4744   24.8552   47.2324 H   0  0  0  0  0  0  0  0  0  0  0  0
   60.5692   27.7659   44.4707 H   0  0  0  0  0  0  0  0  0  0  0  0
   60.8763   30.2336   44.8763 H   0  0  0  0  0  0  0  0  0  0  0  0
   58.5554   27.4038   48.3284 H   0  0  0  0  0  0  0  0  0  0  0  0
   58.4370   32.1843   48.5011 H   0  0  0  0  0  0  0  0  0  0  0  0
   59.9817   31.8957   49.3049 H   0  0  0  0  0  0  0  0  0  0  0  0
  1  2  1  0
  2  3  2  0
  3  4  1  0
  4  5  1  0
  4  6  2  0
  6  7  1  0
  7  8  2  0
  8  9  1  0
  9 10  1  0
 10 11  2  0
 10 12  1  0
 12 13  1  0
 13 14  1  0
 14 15  2  0
 14 16  1  0
 16 17  1  0
 17 18  1  0
 18 19  2  0
 18 20  1  0
 20 21  2  0
 21 22  1  0
 22 23  2  0
 23 24  1  0
 24 25  2  0
 24 26  1  0
 26 27  1  0
 27 28  1  0
  8  2  1  0
 25 20  1  0
 28 23  1  0
  1 29  1  0
  1 30  1  0
  3 31  1  0
  6 32  1  0
  7 33  1  0
 12 34  1  0
 12 35  1  0
 16 36  1  0
 16 37  1  0
 21 38  1  0
 22 39  1  0
 25 40  1  0
 27 41  1  0
 27 42  1  0
M  CHG  3   9  -1  13  -1  17  -1
M  END
>  <UniqueID>  (16) 
16

>  <SMILES>  (16) 
Nc1cc(F)ccc1[N-]C(=O)C[N-]C(=O)C[N-]C(=O)c1ccc2c(c1)OCO2

>  <Energy>  (16) 
73.02065571592905

>  <Genealogy>  (16) 
Nc1cc(F)ccc1[N-]C(=O)C[N-]C(=O)C[N-]C(=O)c1ccc2c(c1)OCO2 (protonated)
Nc1cc(F)ccc1[N-]C(=O)C[N-]C(=O)C[N-]C(=O)c1ccc2c(c1)OCO2 (3D coordinates assigned)
Nc1cc(F)ccc1[N-]C(=O)C[N-]C(=O)C[N-]C(=O)c1ccc2c(c1)OCO2 (nonaromatic ring conformer: 73.02065571592905 kcal/mol)

>  <smiles>  (16) 
Nc1cc(F)ccc1NC(=O)CNC(=O)CNC(=O)c1ccc2c(c1)OCO2

>  <score_type>  (16) 
oracle

>  <origin>  (16) 
adg

>  <m_score__min__energy>  (16) 
-12.779999999999999

>  <m_primary>  (16) 
energy

$$$$
16:0
     RDKit          3D

 21 22  0  0  0  0  0  0  0  0999 V2000
   57.4040   33.9050   45.3520 N   0  0  0  0  0  0  0  0  0  0  0  0
   57.4240   32.7560   45.2160 C   0  0  0  0  0  0  0  0  0  0  0  0
   57.4480   31.3270   45.0470 C   0  0  0  0  0  0  0  0  0  0  0  0
   58.2930   30.5400   45.8380 C   0  0  0  0  0  0  0  0  0  0  0  0
   58.3160   29.1520   45.6740 C   0  0  0  0  0  0  0  0  0  0  0  0
   57.4850   28.5320   44.7230 C   0  0  0  0  0  0  0  0  0  0  0  0
   57.5200   27.0660   44.5230 C   0  0  0  0  0  0  0  0  0  0  0  0
   57.8400   26.6100   43.3910 O   0  0  0  0  0  0  0  0  0  0  0  0
   57.2080   26.1130   45.6050 C   0  0  0  0  0  0  0  0  0  0  0  0
   58.2770   24.9450   46.1850 S   0  0  0  0  0  0  0  0  0  0  0  0
   57.1550   24.3270   47.2710 C   0  0  0  0  0  0  0  0  0  0  0  0
   57.3800   23.3720   48.0590 O   0  0  0  0  0  0  0  0  0  0  0  0
   55.9680   24.9640   47.2070 N   0  0  0  0  0  0  0  0  0  0  0  0
   55.9910   25.9520   46.2740 C   0  0  0  0  0  0  0  0  0  0  0  0
   54.8610   26.7110   45.9990 O   0  0  0  0  0  0  0  0  0  0  0  0
   56.6540   29.3320   43.9190 C   0  0  0  0  0  0  0  0  0  0  0  0
   56.6300   30.7200   44.0850 C   0  0  0  0  0  0  0  0  0  0  0  0
   58.9402   31.0147   46.5902 H   0  0  0  0  0  0  0  0  0  0  0  0
   58.9887   28.5401   46.2929 H   0  0  0  0  0  0  0  0  0  0  0  0
   56.0182   28.8625   43.1539 H   0  0  0  0  0  0  0  0  0  0  0  0
   55.9678   31.3365   43.4593 H   0  0  0  0  0  0  0  0  0  0  0  0
  1  2  3  0
  2  3  1  0
  3  4  2  0
  4  5  1  0
  5  6  2  0
  6  7  1  0
  7  8  2  0
  7  9  1  0
  9 10  1  0
 10 11  1  0
 11 12  2  0
 11 13  1  0
 13 14  1  0
 14 15  1  0
  6 16  1  0
 16 17  2  0
 17  3  1  0
 14  9  2  0
  4 18  1  0
  5 19  1  0
 16 20  1  0
 17 21  1  0
M  CHG  2  13  -1  15  -1
M  END
>  <UniqueID>  (17) 
17

>  <SMILES>  (17) 
N#Cc1ccc(C(=O)c2sc(=O)[n-]c2[O-])cc1

>  <Energy>  (17) 
57.79678999323002

>  <Genealogy>  (17) 
N#Cc1ccc(C(=O)c2sc(=O)[n-]c2[O-])cc1 (protonated)
N#Cc1ccc(C(=O)c2sc(=O)[n-]c2[O-])cc1 (3D coordinates assigned)
N#Cc1ccc(C(=O)c2sc(=O)[n-]c2[O-])cc1 (optimized conformer: 57.79678999323002 kcal/mol)

>  <smiles>  (17) 
N#Cc1ccc(C(=O)c2sc(=O)[nH]c2O)cc1

>  <score_type>  (17) 
oracle

>  <origin>  (17) 
adg

>  <m_score__min__energy>  (17) 
-12.880000000000001

>  <m_primary>  (17) 
energy

$$$$
17:0
     RDKit          3D

 49 51  0  0  0  0  0  0  0  0999 V2000
   59.4430   29.3210   44.4970 C   0  0  0  0  0  0  0  0  0  0  0  0
   58.8460   28.3330   45.1700 C   0  0  0  0  0  0  0  0  0  0  0  0
   59.6600   27.3630   45.9870 C   0  0  0  0  0  0  0  0  0  0  0  0
   59.9870   27.9510   47.3360 C   0  0  0  0  0  0  0  0  0  0  0  0
   60.3690   27.1220   48.4020 C   0  0  0  0  0  0  0  0  0  0  0  0
   60.7170   27.6760   49.6340 C   0  0  0  0  0  0  0  0  0  0  0  0
   60.6940   29.0600   49.8140 C   0  0  0  0  0  0  0  0  0  0  0  0
   60.3110   29.9060   48.7660 C   0  0  0  0  0  0  0  0  0  0  0  0
   60.3540   31.2930   48.9790 O   0  0  0  0  0  0  0  0  0  0  0  0
   61.3870   32.1530   48.5810 C   0  0  0  0  0  0  0  0  0  0  0  0
   61.6120   33.3890   49.2160 C   0  0  0  0  0  0  0  0  0  0  0  0
   62.6510   34.2200   48.7850 C   0  0  0  0  0  0  0  0  0  0  0  0
   63.4790   33.8190   47.7330 C   0  0  0  0  0  0  0  0  0  0  0  0
   63.2790   32.5790   47.1200 C   0  0  0  0  0  0  0  0  0  0  0  0
   62.2430   31.7450   47.5510 C   0  0  0  0  0  0  0  0  0  0  0  0
   59.9610   29.3440   47.5230 C   0  0  0  0  0  0  0  0  0  0  0  0
   57.3720   28.2280   45.1650 C   0  0  0  0  0  0  0  0  0  0  0  0
   56.7090   27.1020   45.8910 C   0  0  0  0  0  0  0  0  0  0  0  0
   56.6400   29.1740   44.6620 N   0  0  0  0  0  0  0  0  0  0  0  0
   56.6540   30.4490   45.1850 O   0  0  0  0  0  0  0  0  0  0  0  0
   57.2150   31.5150   44.4840 C   0  0  0  0  0  0  0  0  0  0  0  0
   57.1150   31.5630   43.2280 O   0  0  0  0  0  0  0  0  0  0  0  0
   57.9010   32.5960   45.2220 C   0  0  0  0  0  0  0  0  0  0  0  0
   58.5660   33.6190   44.5220 C   0  0  0  0  0  0  0  0  0  0  0  0
   59.2480   34.6230   45.2150 C   0  0  0  0  0  0  0  0  0  0  0  0
   59.2640   34.6240   46.6110 C   0  0  0  0  0  0  0  0  0  0  0  0
   58.5990   33.6190   47.3180 C   0  0  0  0  0  0  0  0  0  0  0  0
   57.9210   32.6090   46.6290 C   0  0  0  0  0  0  0  0  0  0  0  0
   58.8407   30.0243   43.9032 H   0  0  0  0  0  0  0  0  0  0  0  0
   60.5368   29.4310   44.5367 H   0  0  0  0  0  0  0  0  0  0  0  0
   59.0848   26.4358   46.1264 H   0  0  0  0  0  0  0  0  0  0  0  0
   60.5991   27.1512   45.4549 H   0  0  0  0  0  0  0  0  0  0  0  0
   60.3941   26.0308   48.2655 H   0  0  0  0  0  0  0  0  0  0  0  0
   61.0106   27.0199   50.4666 H   0  0  0  0  0  0  0  0  0  0  0  0
   60.9788   29.4891   50.7860 H   0  0  0  0  0  0  0  0  0  0  0  0
   60.9697   33.7017   50.0524 H   0  0  0  0  0  0  0  0  0  0  0  0
   62.8168   35.1909   49.2748 H   0  0  0  0  0  0  0  0  0  0  0  0
   64.2881   34.4793   47.3874 H   0  0  0  0  0  0  0  0  0  0  0  0
   63.9368   32.2592   46.2984 H   0  0  0  0  0  0  0  0  0  0  0  0
   62.0996   30.7623   47.0780 H   0  0  0  0  0  0  0  0  0  0  0  0
   59.6648   30.0005   46.6916 H   0  0  0  0  0  0  0  0  0  0  0  0
   56.8019   27.2598   46.9756 H   0  0  0  0  0  0  0  0  0  0  0  0
   55.6446   27.0645   45.6158 H   0  0  0  0  0  0  0  0  0  0  0  0
   57.1925   26.1531   45.6158 H   0  0  0  0  0  0  0  0  0  0  0  0
   58.5492   33.6288   43.4222 H   0  0  0  0  0  0  0  0  0  0  0  0
   59.7732   35.4139   44.6594 H   0  0  0  0  0  0  0  0  0  0  0  0
   59.8002   35.4160   47.1543 H   0  0  0  0  0  0  0  0  0  0  0  0
   58.6089   33.6225   48.4180 H   0  0  0  0  0  0  0  0  0  0  0  0
   57.3999   31.8195   47.1903 H   0  0  0  0  0  0  0  0  0  0  0  0
  1  2  2  0
  2  3  1  0
  3  4  1  0
  4  5  2  0
  5  6  1  0
  6  7  2  0
  7  8  1  0
  8  9  1  0
  9 10  1  0
 10 11  2  0
 11 12  1  0
 12 13  2  0
 13 14  1  0
 14 15  2  0
  8 16  2  0
  2 17  1  0
 17 18  1  0
 17 19  2  3
 19 20  1  0
 20 21  1  0
 21 22  2  0
 21 23  1  0
 23 24  2  0
 24 25  1  0
 25 26  2  0
 26 27  1  0
 27 28  2  0
 16  4  1  0
 28 23  1  0
 15 10  1  0
  1 29  1  0
  1 30  1  0
  3 31  1  0
  3 32  1  0
  5 33  1  0
  6 34  1  0
  7 35  1  0
 11 36  1  0
 12 37  1  0
 13 38  1  0
 14 39  1  0
 15 40  1  0
 16 41  1  0
 18 42  1  0
 18 43  1  0
 18 44  1  0
 24 45  1  0
 25 46  1  0
 26 47  1  0
 27 48  1  0
 28 49  1  0
M  END
>  <UniqueID>  (18) 
18

>  <SMILES>  (18) 
C=C(Cc1cccc(Oc2ccccc2)c1)C(C)=NOC(=O)c1ccccc1

>  <Energy>  (18) 
52.792930121249505

>  <Genealogy>  (18) 
C=C(Cc1cccc(Oc2ccccc2)c1)C(C)=NOC(=O)c1ccccc1 (3D coordinates assigned)
C=C(Cc1cccc(Oc2ccccc2)c1)C(C)=NOC(=O)c1ccccc1 (optimized conformer: 52.792930121249505 kcal/mol)

>  <smiles>  (18) 
C=C(Cc1cccc(Oc2ccccc2)c1)C(C)=NOC(=O)c1ccccc1

>  <score_type>  (18) 
oracle

>  <origin>  (18) 
adg

>  <m_score__min__energy>  (18) 
-9.3300000000000001

>  <m_primary>  (18) 
energy

$$$$
18:0
     RDKit          3D

 61 64  0  0  0  0  0  0  0  0999 V2000
   55.8500   25.1670   46.7360 O   0  0  0  0  0  0  0  0  0  0  0  0
   57.0750   25.1120   46.4470 C   0  0  0  0  0  0  0  0  0  0  0  0
   57.7810   23.8800   46.6570 N   0  0  0  0  0  0  0  0  0  0  0  0
   58.6140   23.2010   45.6680 C   0  0  0  0  0  0  0  0  0  0  0  0
   57.9840   21.8600   45.2810 C   0  0  0  0  0  0  0  0  0  0  0  0
   57.0930   21.9780   44.0390 C   0  0  0  0  0  0  0  0  0  0  0  0
   55.7720   22.5050   44.3840 N   0  0  0  0  0  0  0  0  0  0  0  0
   55.1350   23.5350   43.8030 C   0  0  0  0  0  0  0  0  0  0  0  0
   53.9460   23.7270   44.4720 C   0  0  0  0  0  0  0  0  0  0  0  0
   53.8380   22.8270   45.4710 N   0  0  0  0  0  0  0  0  0  0  0  0
   54.9710   22.0980   45.3880 C   0  0  0  0  0  0  0  0  0  0  0  0
   57.7260   26.3020   45.8700 C   0  0  0  0  0  0  0  0  0  0  0  0
   59.1200   26.3560   45.7210 C   0  0  0  0  0  0  0  0  0  0  0  0
   59.7250   27.4910   45.1760 C   0  0  0  0  0  0  0  0  0  0  0  0
   58.9460   28.5800   44.7800 C   0  0  0  0  0  0  0  0  0  0  0  0
   57.5540   28.5420   44.9340 C   0  0  0  0  0  0  0  0  0  0  0  0
   56.5760   29.9280   44.4590 S   0  0  0  0  0  0  0  0  0  0  0  0
   55.1470   29.7060   44.8720 O   0  0  0  0  0  0  0  0  0  0  0  0
   56.6220   30.0650   42.9620 O   0  0  0  0  0  0  0  0  0  0  0  0
   57.2030   31.3780   45.2010 N   0  0  0  0  0  0  0  0  0  0  0  0
   57.8670   32.2200   44.1850 C   0  0  0  0  0  0  0  0  0  0  0  0
   58.7260   33.3260   44.8290 C   0  0  0  0  0  0  0  0  0  0  0  0
   58.3370   33.5220   46.2370 N   0  0  0  0  0  0  0  0  0  0  0  0
   59.0490   34.6820   46.8120 C   0  0  0  0  0  0  0  0  0  0  0  0
   60.4200   34.2810   47.2900 C   0  0  0  0  0  0  0  0  0  0  0  0
   60.7260   34.2740   48.6610 C   0  0  0  0  0  0  0  0  0  0  0  0
   62.0060   33.9170   49.0940 C   0  0  0  0  0  0  0  0  0  0  0  0
   62.9890   33.5680   48.1630 C   0  0  0  0  0  0  0  0  0  0  0  0
   62.6950   33.5820   46.7960 C   0  0  0  0  0  0  0  0  0  0  0  0
   61.4170   33.9410   46.3590 C   0  0  0  0  0  0  0  0  0  0  0  0
   58.6070   32.2890   47.0180 C   0  0  0  0  0  0  0  0  0  0  0  0
   58.1470   31.0220   46.2720 C   0  0  0  0  0  0  0  0  0  0  0  0
   56.9480   27.4070   45.4910 C   0  0  0  0  0  0  0  0  0  0  0  0
   58.7034   23.8330   44.7721 H   0  0  0  0  0  0  0  0  0  0  0  0
   59.6096   23.0200   46.0992 H   0  0  0  0  0  0  0  0  0  0  0  0
   58.7872   21.1375   45.0739 H   0  0  0  0  0  0  0  0  0  0  0  0
   57.3541   21.5274   46.1192 H   0  0  0  0  0  0  0  0  0  0  0  0
   57.5721   22.6552   43.3166 H   0  0  0  0  0  0  0  0  0  0  0  0
   56.9657   20.9753   43.6049 H   0  0  0  0  0  0  0  0  0  0  0  0
   55.4980   24.1209   42.9457 H   0  0  0  0  0  0  0  0  0  0  0  0
   53.1988   24.4967   44.2286 H   0  0  0  0  0  0  0  0  0  0  0  0
   55.2132   21.2650   46.0643 H   0  0  0  0  0  0  0  0  0  0  0  0
   59.7384   25.5020   46.0343 H   0  0  0  0  0  0  0  0  0  0  0  0
   60.8181   27.5269   45.0585 H   0  0  0  0  0  0  0  0  0  0  0  0
   59.4262   29.4695   44.3462 H   0  0  0  0  0  0  0  0  0  0  0  0
   58.5139   31.5838   43.5631 H   0  0  0  0  0  0  0  0  0  0  0  0
   57.0865   32.7033   43.5790 H   0  0  0  0  0  0  0  0  0  0  0  0
   59.7859   33.0354   44.7826 H   0  0  0  0  0  0  0  0  0  0  0  0
   58.5683   34.2662   44.2803 H   0  0  0  0  0  0  0  0  0  0  0  0
   59.1485   35.4622   46.0430 H   0  0  0  0  0  0  0  0  0  0  0  0
   58.4727   35.0620   47.6685 H   0  0  0  0  0  0  0  0  0  0  0  0
   59.9558   34.5504   49.3961 H   0  0  0  0  0  0  0  0  0  0  0  0
   62.2404   33.9106   50.1687 H   0  0  0  0  0  0  0  0  0  0  0  0
   63.9943   33.2822   48.5061 H   0  0  0  0  0  0  0  0  0  0  0  0
   63.4700   33.3103   46.0642 H   0  0  0  0  0  0  0  0  0  0  0  0
   61.1904   33.9576   45.2827 H   0  0  0  0  0  0  0  0  0  0  0  0
   59.6884   32.2175   47.2064 H   0  0  0  0  0  0  0  0  0  0  0  0
   58.0427   32.3527   47.9601 H   0  0  0  0  0  0  0  0  0  0  0  0
   59.0223   30.5207   45.8332 H   0  0  0  0  0  0  0  0  0  0  0  0
   57.6461   30.3486   46.9830 H   0  0  0  0  0  0  0  0  0  0  0  0
   55.8573   27.3824   45.6317 H   0  0  0  0  0  0  0  0  0  0  0  0
  1  2  2  0
  2  3  1  0
  3  4  1  0
  4  5  1  0
  5  6  1  0
  6  7  1  0
  7  8  1  0
  8  9  2  0
  9 10  1  0
 10 11  2  0
  2 12  1  0
 12 13  2  0
 13 14  1  0
 14 15  2  0
 15 16  1  0
 16 17  1  0
 17 18  2  0
 17 19  2  0
 17 20  1  0
 20 21  1  0
 21 22  1  0
 22 23  1  0
 23 24  1  0
 24 25  1  0
 25 26  2  0
 26 27  1  0
 27 28  2  0
 28 29  1  0
 29 30  2  0
 23 31  1  0
 31 32  1  0
 16 33  2  0
 11  7  1  0
 33 12  1  0
 32 20  1  0
 30 25  1  0
  4 34  1  0
  4 35  1  0
  5 36  1  0
  5 37  1  0
  6 38  1  0
  6 39  1  0
  8 40  1  0
  9 41  1  0
 11 42  1  0
 13 43  1  0
 14 44  1  0
 15 45  1  0
 21 46  1  0
 21 47  1  0
 22 48  1  0
 22 49  1  0
 24 50  1  0
 24 51  1  0
 26 52  1  0
 27 53  1  0
 28 54  1  0
 29 55  1  0
 30 56  1  0
 31 57  1  0
 31 58  1  0
 32 59  1  0
 32 60  1  0
 33 61  1  0
M  CHG  1   3  -1
M  END
>  <UniqueID>  (19) 
19

>  <SMILES>  (19) 
O=C([N-]CCCn1ccnc1)c1cccc(S(=O)(=O)N2CCN(Cc3ccccc3)CC2)c1

>  <Energy>  (19) 
98.53208441035416

>  <Genealogy>  (19) 
O=C([N-]CCCn1ccnc1)c1cccc(S(=O)(=O)N2CCN(Cc3ccccc3)CC2)c1 (protonated)
O=C([N-]CCCn1ccnc1)c1cccc(S(=O)(=O)N2CCN(Cc3ccccc3)CC2)c1 (3D coordinates assigned)
O=C([N-]CCCn1ccnc1)c1cccc(S(=O)(=O)N2CCN(Cc3ccccc3)CC2)c1 (nonaromatic ring conformer: 98.53208441035416 kcal/mol)

>  <smiles>  (19) 
O=C(NCCCn1ccnc1)c1cccc(S(=O)(=O)N2CCN(Cc3ccccc3)CC2)c1

>  <score_type>  (19) 
oracle

>  <origin>  (19) 
adg

>  <m_score__min__energy>  (19) 
-13.16

>  <m_primary>  (19) 
energy

$$$$
19:0
     RDKit          3D

 42 44  0  0  0  0  0  0  0  0999 V2000
   58.6070   24.0143   45.3710 H   0  0  0  0  0  0  0  0  0  0  0  0
   57.8760   24.8260   45.2410 C   0  0  0  0  0  0  0  0  0  0  0  0
   56.5810   24.4770   45.0680 C   0  0  0  0  0  0  0  0  0  0  0  0
   56.1290   23.4270   44.1100 C   0  0  0  0  0  0  0  0  0  0  0  0
   56.9280   22.8900   43.2960 O   0  0  0  0  0  0  0  0  0  0  0  0
   54.7540   23.0400   44.0690 N   0  0  0  0  0  0  0  0  0  0  0  0
   53.7760   23.6910   44.8770 C   0  0  0  0  0  0  0  0  0  0  0  0
   52.5740   23.3260   44.8250 O   0  0  0  0  0  0  0  0  0  0  0  0
   54.1590   24.7630   45.7370 N   0  0  0  0  0  0  0  0  0  0  0  0
   55.5220   25.1770   45.8420 C   0  0  0  0  0  0  0  0  0  0  0  0
   55.8080   26.1350   46.6100 O   0  0  0  0  0  0  0  0  0  0  0  0
   58.3850   26.2110   45.2690 C   0  0  0  0  0  0  0  0  0  0  0  0
   57.6810   27.2130   44.5840 C   0  0  0  0  0  0  0  0  0  0  0  0
   56.7771   26.9514   44.0143 H   0  0  0  0  0  0  0  0  0  0  0  0
   58.1210   28.5510   44.6190 C   0  0  0  0  0  0  0  0  0  0  0  0
   57.4290   29.6440   43.8920 C   0  0  0  0  0  0  0  0  0  0  0  0
   57.3285   29.5546   42.8002 H   0  0  0  0  0  0  0  0  0  0  0  0
   56.9190   30.7330   44.4830 C   0  0  0  0  0  0  0  0  0  0  0  0
   56.0978   30.6129   45.2050 H   0  0  0  0  0  0  0  0  0  0  0  0
   57.4250   32.0870   44.1950 C   0  0  0  0  0  0  0  0  0  0  0  0
   58.2090   32.2410   43.2230 O   0  0  0  0  0  0  0  0  0  0  0  0
   57.0140   33.2430   44.9370 N   0  0  0  0  0  0  0  0  0  0  0  0
   57.2050   33.4350   46.3710 C   0  0  0  0  0  0  0  0  0  0  0  0
   57.1223   34.5049   46.6128 H   0  0  0  0  0  0  0  0  0  0  0  0
   56.4354   32.8760   46.9235 H   0  0  0  0  0  0  0  0  0  0  0  0
   58.5700   32.9350   46.7620 C   0  0  0  0  0  0  0  0  0  0  0  0
   58.7060   31.6450   47.3050 C   0  0  0  0  0  0  0  0  0  0  0  0
   57.8143   31.0189   47.4563 H   0  0  0  0  0  0  0  0  0  0  0  0
   59.9680   31.1530   47.6540 C   0  0  0  0  0  0  0  0  0  0  0  0
   60.0650   30.1453   48.0843 H   0  0  0  0  0  0  0  0  0  0  0  0
   61.1040   31.9390   47.4570 C   0  0  0  0  0  0  0  0  0  0  0  0
   62.0949   31.5520   47.7370 H   0  0  0  0  0  0  0  0  0  0  0  0
   60.9850   33.2160   46.9050 C   0  0  0  0  0  0  0  0  0  0  0  0
   61.8837   33.8303   46.7467 H   0  0  0  0  0  0  0  0  0  0  0  0
   59.7260   33.7180   46.5520 C   0  0  0  0  0  0  0  0  0  0  0  0
   59.6370   35.3280   45.8390 Cl  0  0  0  0  0  0  0  0  0  0  0  0
   59.2800   28.8650   45.3490 C   0  0  0  0  0  0  0  0  0  0  0  0
   59.6506   29.9006   45.3638 H   0  0  0  0  0  0  0  0  0  0  0  0
   59.9650   27.8760   46.0550 C   0  0  0  0  0  0  0  0  0  0  0  0
   60.8627   28.1392   46.6337 H   0  0  0  0  0  0  0  0  0  0  0  0
   59.5170   26.5530   46.0310 C   0  0  0  0  0  0  0  0  0  0  0  0
   60.1970   25.5870   46.7640 O   0  0  0  0  0  0  0  0  0  0  0  0
  1  2  1  0
  2  3  2  3
  3  4  1  0
  4  5  2  0
  4  6  1  0
  6  7  1  0
  7  8  2  0
  7  9  1  0
  9 10  1  0
 10 11  2  0
  2 12  1  0
 12 13  2  0
 13 14  1  0
 13 15  1  0
 15 16  1  0
 16 17  1  0
 16 18  2  0
 18 19  1  0
 18 20  1  0
 20 21  2  0
 20 22  1  0
 22 23  1  0
 23 24  1  0
 23 25  1  0
 23 26  1  0
 26 27  2  0
 27 28  1  0
 27 29  1  0
 29 30  1  0
 29 31  2  0
 31 32  1  0
 31 33  1  0
 33 34  1  0
 33 35  2  0
 35 36  1  0
 15 37  2  0
 37 38  1  0
 37 39  1  0
 39 40  1  0
 39 41  2  0
 41 42  1  0
 10  3  1  0
 41 12  1  0
 35 26  1  0
M  CHG  4   6  -1   9  -1  22  -1  42  -1
M  END
>  <UniqueID>  (20) 
20

>  <SMILES>  (20) 
O=C(/C=C/c1ccc([O-])c(C=C2C(=O)[N-]C(=O)[N-]C2=O)c1)[N-]Cc1ccccc1Cl

>  <Energy>  (20) 
59.756513816624164

>  <Genealogy>  (20) 
O=C(C=Cc1ccc([O-])c(C=C2C(=O)[N-]C(=O)[N-]C2=O)c1)[N-]Cc1ccccc1Cl (protonated)
O=C(/C=C/c1ccc([O-])c(C=C2C(=O)[N-]C(=O)[N-]C2=O)c1)[N-]Cc1ccccc1Cl (cis-trans isomerization)
O=C(/C=C/c1ccc([O-])c(C=C2C(=O)[N-]C(=O)[N-]C2=O)c1)[N-]Cc1ccccc1Cl (3D coordinates assigned)
O=C(/C=C/c1ccc([O-])c(C=C2C(=O)[N-]C(=O)[N-]C2=O)c1)[N-]Cc1ccccc1Cl (nonaromatic ring conformer: 59.756513816624164 kcal/mol)

>  <smiles>  (20) 
O=C(C=Cc1ccc(O)c(C=C2C(=O)NC(=O)NC2=O)c1)NCc1ccccc1Cl

>  <score_type>  (20) 
oracle

>  <origin>  (20) 
adg

>  <m_score__min__energy>  (20) 
-16.030000000000001

>  <m_primary>  (20) 
energy

$$$$
20:0
     RDKit          3D

 61 65  0  0  0  0  0  0  0  0999 V2000
   60.9320   27.1140   51.2920 O   0  0  0  0  0  0  0  0  0  0  0  0
   60.7400   27.5410   50.1220 C   0  0  0  0  0  0  0  0  0  0  0  0
   60.7250   26.6510   49.1010 N   0  0  0  0  0  0  0  0  0  0  0  0
   60.5680   27.0420   47.8170 C   0  0  0  0  0  0  0  0  0  0  0  0
   60.5800   26.0820   46.8130 O   0  0  0  0  0  0  0  0  0  0  0  0
   60.4150   28.4020   47.5170 C   0  0  0  0  0  0  0  0  0  0  0  0
   60.2810   28.8660   46.0810 C   0  0  0  0  0  0  0  0  0  0  0  0
   58.8420   28.8890   45.6420 C   0  0  0  0  0  0  0  0  0  0  0  0
   58.3420   29.9810   44.9130 C   0  0  0  0  0  0  0  0  0  0  0  0
   56.9990   30.0180   44.5270 C   0  0  0  0  0  0  0  0  0  0  0  0
   56.1400   28.9740   44.8770 C   0  0  0  0  0  0  0  0  0  0  0  0
   54.8050   29.0180   44.4940 O   0  0  0  0  0  0  0  0  0  0  0  0
   56.6250   27.8880   45.6130 C   0  0  0  0  0  0  0  0  0  0  0  0
   55.7930   26.8760   45.9580 F   0  0  0  0  0  0  0  0  0  0  0  0
   57.9750   27.8370   45.9820 C   0  0  0  0  0  0  0  0  0  0  0  0
   60.4090   29.3190   48.5850 C   0  0  0  0  0  0  0  0  0  0  0  0
   60.2690   30.5490   48.3380 O   0  0  0  0  0  0  0  0  0  0  0  0
   60.5670   28.8830   49.8820 N   0  0  0  0  0  0  0  0  0  0  0  0
   60.6280   29.8440   51.0060 C   0  0  0  0  0  0  0  0  0  0  0  0
   59.2460   30.3200   51.4090 C   0  0  0  0  0  0  0  0  0  0  0  0
   58.4170   29.4700   52.1670 C   0  0  0  0  0  0  0  0  0  0  0  0
   57.1270   29.8680   52.5260 C   0  0  0  0  0  0  0  0  0  0  0  0
   56.6480   31.1210   52.1450 C   0  0  0  0  0  0  0  0  0  0  0  0
   57.4640   31.9830   51.4120 C   0  0  0  0  0  0  0  0  0  0  0  0
   58.7600   31.5940   51.0390 C   0  0  0  0  0  0  0  0  0  0  0  0
   59.5910   32.5370   50.3500 N   0  0  0  0  0  0  0  0  0  0  0  0
   60.6510   33.1700   50.8870 C   0  0  0  0  0  0  0  0  0  0  0  0
   61.0890   34.1570   50.0280 C   0  0  0  0  0  0  0  0  0  0  0  0
   60.2490   34.1320   48.9300 C   0  0  0  0  0  0  0  0  0  0  0  0
   59.3440   33.1140   49.1540 C   0  0  0  0  0  0  0  0  0  0  0  0
   58.2420   32.7100   48.2170 C   0  0  0  0  0  0  0  0  0  0  0  0
   58.2800   33.5450   47.0020 N   0  0  0  0  0  0  0  0  0  0  0  0
   57.0270   33.4200   46.2380 C   0  0  0  0  0  0  0  0  0  0  0  0
   57.0910   34.2910   44.9640 C   0  0  0  0  0  0  0  0  0  0  0  0
   58.3380   34.9490   44.8320 O   0  0  0  0  0  0  0  0  0  0  0  0
   59.3820   33.9940   44.8220 C   0  0  0  0  0  0  0  0  0  0  0  0
   59.4310   33.2010   46.1440 C   0  0  0  0  0  0  0  0  0  0  0  0
   60.6982   29.8800   45.9924 H   0  0  0  0  0  0  0  0  0  0  0  0
   60.8274   28.1607   45.4375 H   0  0  0  0  0  0  0  0  0  0  0  0
   59.0112   30.8117   44.6444 H   0  0  0  0  0  0  0  0  0  0  0  0
   56.6180   30.8711   43.9464 H   0  0  0  0  0  0  0  0  0  0  0  0
   58.3580   26.9700   46.5402 H   0  0  0  0  0  0  0  0  0  0  0  0
   61.1026   29.3542   51.8691 H   0  0  0  0  0  0  0  0  0  0  0  0
   61.2114   30.7178   50.6803 H   0  0  0  0  0  0  0  0  0  0  0  0
   58.7891   28.4831   52.4793 H   0  0  0  0  0  0  0  0  0  0  0  0
   56.4871   29.1910   53.1110 H   0  0  0  0  0  0  0  0  0  0  0  0
   55.6289   31.4290   52.4218 H   0  0  0  0  0  0  0  0  0  0  0  0
   57.0885   32.9760   51.1239 H   0  0  0  0  0  0  0  0  0  0  0  0
   61.1002   32.9356   51.8634 H   0  0  0  0  0  0  0  0  0  0  0  0
   61.9420   34.8333   50.1862 H   0  0  0  0  0  0  0  0  0  0  0  0
   60.2932   34.7927   48.0516 H   0  0  0  0  0  0  0  0  0  0  0  0
   58.3709   31.6540   47.9372 H   0  0  0  0  0  0  0  0  0  0  0  0
   57.2731   32.8479   48.7191 H   0  0  0  0  0  0  0  0  0  0  0  0
   56.8789   32.3682   45.9522 H   0  0  0  0  0  0  0  0  0  0  0  0
   56.1890   33.7601   46.8641 H   0  0  0  0  0  0  0  0  0  0  0  0
   56.9346   33.6473   44.0858 H   0  0  0  0  0  0  0  0  0  0  0  0
   56.3080   35.0599   45.0390 H   0  0  0  0  0  0  0  0  0  0  0  0
   59.2183   33.2933   43.9900 H   0  0  0  0  0  0  0  0  0  0  0  0
   60.3372   34.5261   44.7015 H   0  0  0  0  0  0  0  0  0  0  0  0
   59.4055   32.1243   45.9203 H   0  0  0  0  0  0  0  0  0  0  0  0
   60.3584   33.4584   46.6766 H   0  0  0  0  0  0  0  0  0  0  0  0
  1  2  2  0
  2  3  1  0
  3  4  1  0
  4  5  1  0
  4  6  2  0
  6  7  1  0
  7  8  1  0
  8  9  2  0
  9 10  1  0
 10 11  2  0
 11 12  1  0
 11 13  1  0
 13 14  1  0
 13 15  2  0
  6 16  1  0
 16 17  2  0
 16 18  1  0
 18 19  1  0
 19 20  1  0
 20 21  2  0
 21 22  1  0
 22 23  2  0
 23 24  1  0
 24 25  2  0
 25 26  1  0
 26 27  1  0
 27 28  2  0
 28 29  1  0
 29 30  2  0
 30 31  1  0
 31 32  1  0
 32 33  1  0
 33 34  1  0
 34 35  1  0
 35 36  1  0
 36 37  1  0
 18  2  1  0
 25 20  1  0
 30 26  1  0
 37 32  1  0
 15  8  1  0
  7 38  1  0
  7 39  1  0
  9 40  1  0
 10 41  1  0
 15 42  1  0
 19 43  1  0
 19 44  1  0
 21 45  1  0
 22 46  1  0
 23 47  1  0
 24 48  1  0
 27 49  1  0
 28 50  1  0
 29 51  1  0
 31 52  1  0
 31 53  1  0
 33 54  1  0
 33 55  1  0
 34 56  1  0
 34 57  1  0
 36 58  1  0
 36 59  1  0
 37 60  1  0
 37 61  1  0
M  CHG  3   3  -1   5  -1  12  -1
M  END
>  <UniqueID>  (21) 
21

>  <SMILES>  (21) 
O=c1[n-]c([O-])c(Cc2ccc([O-])c(F)c2)c(=O)n1Cc1ccccc1-n1cccc1CN1CCOCC1

>  <Energy>  (21) 
107.3783939725021

>  <Genealogy>  (21) 
O=c1[n-]c([O-])c(Cc2ccc([O-])c(F)c2)c(=O)n1Cc1ccccc1-n1cccc1CN1CCOCC1 (protonated)
O=c1[n-]c([O-])c(Cc2ccc([O-])c(F)c2)c(=O)n1Cc1ccccc1-n1cccc1CN1CCOCC1 (3D coordinates assigned)
O=c1[n-]c([O-])c(Cc2ccc([O-])c(F)c2)c(=O)n1Cc1ccccc1-n1cccc1CN1CCOCC1 (nonaromatic ring conformer: 107.3783939725021 kcal/mol)

>  <smiles>  (21) 
O=c1[nH]c(O)c(Cc2ccc(O)c(F)c2)c(=O)n1Cc1ccccc1-n1cccc1CN1CCOCC1

>  <score_type>  (21) 
oracle

>  <origin>  (21) 
adg

>  <m_score__min__energy>  (21) 
-17.300000000000001

>  <m_primary>  (21) 
energy

$$$$
21:0
     RDKit          3D

 68 71  0  0  0  0  0  0  0  0999 V2000
   61.6710   30.9320   52.4140 C   0  0  0  0  0  0  0  0  0  0  0  0
   62.5650   29.6910   51.4270 S   0  0  0  0  0  0  0  0  0  0  0  0
   63.7350   30.8800   50.7640 C   0  0  0  0  0  0  0  0  0  0  0  0
   65.0470   30.9170   51.2490 C   0  0  0  0  0  0  0  0  0  0  0  0
   65.9540   31.8450   50.7360 C   0  0  0  0  0  0  0  0  0  0  0  0
   65.5530   32.7500   49.7490 C   0  0  0  0  0  0  0  0  0  0  0  0
   64.2310   32.7360   49.2670 C   0  0  0  0  0  0  0  0  0  0  0  0
   63.7970   33.6140   48.2120 N   0  0  0  0  0  0  0  0  0  0  0  0
   62.9700   33.2110   47.1050 C   0  0  0  0  0  0  0  0  0  0  0  0
   62.9110   32.0010   46.7600 O   0  0  0  0  0  0  0  0  0  0  0  0
   62.1470   34.1660   46.4260 N   0  0  0  0  0  0  0  0  0  0  0  0
   60.7150   34.1560   46.4520 C   0  0  0  0  0  0  0  0  0  0  0  0
   59.9900   34.2060   45.2490 C   0  0  0  0  0  0  0  0  0  0  0  0
   58.5950   34.1370   45.2620 C   0  0  0  0  0  0  0  0  0  0  0  0
   57.9130   34.0040   46.4710 C   0  0  0  0  0  0  0  0  0  0  0  0
   58.6250   33.9480   47.6720 C   0  0  0  0  0  0  0  0  0  0  0  0
   60.0240   34.0320   47.6730 C   0  0  0  0  0  0  0  0  0  0  0  0
   60.8920   34.0170   49.2540 S   0  0  0  0  0  0  0  0  0  0  0  0
   59.7290   32.8620   50.0120 C   0  0  0  0  0  0  0  0  0  0  0  0
   58.9470   33.3170   51.0870 C   0  0  0  0  0  0  0  0  0  0  0  0
   58.1330   32.4330   51.7970 C   0  0  0  0  0  0  0  0  0  0  0  0
   58.0930   31.0850   51.4430 C   0  0  0  0  0  0  0  0  0  0  0  0
   58.8340   30.6270   50.3520 C   0  0  0  0  0  0  0  0  0  0  0  0
   59.6110   31.5170   49.5830 C   0  0  0  0  0  0  0  0  0  0  0  0
   60.3050   31.0060   48.3340 C   0  0  0  0  0  0  0  0  0  0  0  0
   59.5390   29.8870   47.6970 C   0  0  0  0  0  0  0  0  0  0  0  0
   58.3580   30.0860   47.3010 O   0  0  0  0  0  0  0  0  0  0  0  0
   60.1540   28.6060   47.5140 N   0  0  0  0  0  0  0  0  0  0  0  0
   59.6470   27.4010   48.1610 C   0  0  0  0  0  0  0  0  0  0  0  0
   59.2570   26.3710   47.0980 C   0  0  0  0  0  0  0  0  0  0  0  0
   57.6250   26.7530   46.3680 S   0  0  0  0  0  0  0  0  0  0  0  0
   58.2360   27.3280   44.7360 C   0  0  0  0  0  0  0  0  0  0  0  0
   57.8600   28.7650   44.4760 C   0  0  0  0  0  0  0  0  0  0  0  0
   56.5110   29.1280   44.3100 C   0  0  0  0  0  0  0  0  0  0  0  0
   56.1610   30.4670   44.1160 C   0  0  0  0  0  0  0  0  0  0  0  0
   57.1530   31.4530   44.0650 C   0  0  0  0  0  0  0  0  0  0  0  0
   58.4980   31.0980   44.2060 C   0  0  0  0  0  0  0  0  0  0  0  0
   58.8520   29.7580   44.4080 C   0  0  0  0  0  0  0  0  0  0  0  0
   63.3320   31.7790   49.7700 C   0  0  0  0  0  0  0  0  0  0  0  0
   61.8196   30.7257   53.4842 H   0  0  0  0  0  0  0  0  0  0  0  0
   62.0553   31.9351   52.1771 H   0  0  0  0  0  0  0  0  0  0  0  0
   60.5978   30.8851   52.1771 H   0  0  0  0  0  0  0  0  0  0  0  0
   65.3633   30.2148   52.0344 H   0  0  0  0  0  0  0  0  0  0  0  0
   66.9884   31.8645   51.1097 H   0  0  0  0  0  0  0  0  0  0  0  0
   66.2744   33.4767   49.3471 H   0  0  0  0  0  0  0  0  0  0  0  0
   64.0500   34.6240   48.2990 H   0  0  0  0  0  0  0  0  0  0  0  0
   60.5241   34.3000   44.2920 H   0  0  0  0  0  0  0  0  0  0  0  0
   58.0337   34.1876   44.3174 H   0  0  0  0  0  0  0  0  0  0  0  0
   56.8147   33.9432   46.4792 H   0  0  0  0  0  0  0  0  0  0  0  0
   58.0838   33.8372   48.6232 H   0  0  0  0  0  0  0  0  0  0  0  0
   58.9765   34.3792   51.3715 H   0  0  0  0  0  0  0  0  0  0  0  0
   57.5231   32.7998   52.6358 H   0  0  0  0  0  0  0  0  0  0  0  0
   57.4774   30.3821   52.0235 H   0  0  0  0  0  0  0  0  0  0  0  0
   58.8113   29.5591   50.0894 H   0  0  0  0  0  0  0  0  0  0  0  0
   60.3966   31.8318   47.6131 H   0  0  0  0  0  0  0  0  0  0  0  0
   61.2958   30.6248   48.6221 H   0  0  0  0  0  0  0  0  0  0  0  0
   60.4277   26.9785   48.8107 H   0  0  0  0  0  0  0  0  0  0  0  0
   58.7629   27.6553   48.7641 H   0  0  0  0  0  0  0  0  0  0  0  0
   60.0153   26.3741   46.3011 H   0  0  0  0  0  0  0  0  0  0  0  0
   59.1995   25.3827   47.5775 H   0  0  0  0  0  0  0  0  0  0  0  0
   59.3319   27.2362   44.7128 H   0  0  0  0  0  0  0  0  0  0  0  0
   57.7724   26.7052   43.9568 H   0  0  0  0  0  0  0  0  0  0  0  0
   55.7288   28.3550   44.3330 H   0  0  0  0  0  0  0  0  0  0  0  0
   55.1032   30.7467   44.0031 H   0  0  0  0  0  0  0  0  0  0  0  0
   56.8747   32.5065   43.9141 H   0  0  0  0  0  0  0  0  0  0  0  0
   59.2786   31.8716   44.1583 H   0  0  0  0  0  0  0  0  0  0  0  0
   59.9114   29.4816   44.5139 H   0  0  0  0  0  0  0  0  0  0  0  0
   62.3045   31.7366   49.3794 H   0  0  0  0  0  0  0  0  0  0  0  0
  1  2  1  0
  2  3  1  0
  3  4  2  0
  4  5  1  0
  5  6  2  0
  6  7  1  0
  7  8  1  0
  8  9  1  0
  9 10  2  0
  9 11  1  0
 11 12  1  0
 12 13  2  0
 13 14  1  0
 14 15  2  0
 15 16  1  0
 16 17  2  0
 17 18  1  0
 18 19  1  0
 19 20  2  0
 20 21  1  0
 21 22  2  0
 22 23  1  0
 23 24  2  0
 24 25  1  0
 25 26  1  0
 26 27  2  0
 26 28  1  0
 28 29  1  0
 29 30  1  0
 30 31  1  0
 31 32  1  0
 32 33  1  0
 33 34  2  0
 34 35  1  0
 35 36  2  0
 36 37  1  0
 37 38  2  0
  7 39  2  0
 39  3  1  0
 17 12  1  0
 24 19  1  0
 38 33  1  0
  1 40  1  0
  1 41  1  0
  1 42  1  0
  4 43  1  0
  5 44  1  0
  6 45  1  0
  8 46  1  0
 13 47  1  0
 14 48  1  0
 15 49  1  0
 16 50  1  0
 20 51  1  0
 21 52  1  0
 22 53  1  0
 23 54  1  0
 25 55  1  0
 25 56  1  0
 29 57  1  0
 29 58  1  0
 30 59  1  0
 30 60  1  0
 32 61  1  0
 32 62  1  0
 34 63  1  0
 35 64  1  0
 36 65  1  0
 37 66  1  0
 38 67  1  0
 39 68  1  0
M  CHG  2  11  -1  28  -1
M  END
>  <UniqueID>  (22) 
22

>  <SMILES>  (22) 
CSc1cccc(NC(=O)[N-]c2ccccc2Sc2ccccc2CC(=O)[N-]CCSCc2ccccc2)c1

>  <Energy>  (22) 
63.10108723865822

>  <Genealogy>  (22) 
CSc1cccc(NC(=O)[N-]c2ccccc2Sc2ccccc2CC(=O)[N-]CCSCc2ccccc2)c1 (protonated)
CSc1cccc(NC(=O)[N-]c2ccccc2Sc2ccccc2CC(=O)[N-]CCSCc2ccccc2)c1 (3D coordinates assigned)
CSc1cccc(NC(=O)[N-]c2ccccc2Sc2ccccc2CC(=O)[N-]CCSCc2ccccc2)c1 (optimized conformer: 63.10108723865822 kcal/mol)

>  <smiles>  (22) 
CSc1cccc(NC(=O)Nc2ccccc2Sc2ccccc2CC(=O)NCCSCc2ccccc2)c1

>  <score_type>  (22) 
oracle

>  <origin>  (22) 
adg

>  <m_score__min__energy>  (22) 
-12.9

>  <m_primary>  (22) 
energy

$$$$
22:0
     RDKit          3D

 51 54  0  0  1  0  0  0  0  0999 V2000
   58.1670   21.0960   43.3480 N   0  0  0  0  0  0  0  0  0  0  0  0
   56.6110   21.7790   43.6220 S   0  0  0  0  0  0  0  0  0  0  0  0
   55.7840   20.9130   44.5250 O   0  0  0  0  0  0  0  0  0  0  0  0
   55.9620   21.9210   42.2680 O   0  0  0  0  0  0  0  0  0  0  0  0
   56.7300   23.3630   44.3590 C   0  0  0  0  0  0  0  0  0  0  0  0
   56.1960   23.5240   45.6230 C   0  0  0  0  0  0  0  0  0  0  0  0
   56.2630   24.7430   46.2450 C   0  0  0  0  0  0  0  0  0  0  0  0
   57.4640   33.2930   44.8090 C   0  0  0  0  0  0  0  0  0  0  0  0
   58.0190   32.2820   45.5620 C   0  0  0  0  0  0  0  0  0  0  0  0
   57.4070   30.9890   45.5200 N   0  0  0  0  0  0  0  0  0  0  0  0
   58.1130   29.9270   45.2210 C   0  0  0  0  0  0  0  0  0  0  0  0
   59.7320   27.8700   44.7170 N   0  0  0  0  0  0  0  0  0  0  0  0
   60.2220   28.9330   45.3710 C   0  0  0  0  0  0  0  0  0  0  0  0
   59.4000   29.9670   45.6220 N   0  0  0  0  0  0  0  0  0  0  0  0
   58.4340   27.8300   44.3120 C   0  0  0  0  0  0  0  0  0  0  0  0
   58.0280   26.7940   43.6960 N   0  0  0  0  0  0  0  0  0  0  0  0
   57.4160   25.6710   44.3200 C   0  0  0  0  0  0  0  0  0  0  0  0
   56.8690   25.7920   45.5860 C   0  0  0  0  0  0  0  0  0  0  0  0
   58.0730   34.5250   44.8700 C   0  0  0  0  0  0  0  0  0  0  0  0
   59.2100   34.7360   45.6640 C   0  0  0  0  0  0  0  0  0  0  0  0
   59.7660   33.7230   46.4170 C   0  0  0  0  0  0  0  0  0  0  0  0
   60.9220   33.9620   47.2040 N   0  0  0  0  0  0  0  0  0  0  0  0
   60.8650   34.3430   48.6090 C   0  0  0  0  0  0  0  0  0  0  0  0
   61.5730   33.1950   49.3360 C   0  0  0  0  0  0  0  0  0  0  0  0
   62.9010   33.2680   48.8940 O   0  0  0  0  0  0  0  0  0  0  0  0
   63.0660   32.8950   47.5850 C   0  0  0  0  0  0  0  0  0  0  0  0
   62.2830   33.8340   46.6630 C   0  0  0  0  0  0  0  0  0  0  0  0
   59.1550   32.4950   46.3550 C   0  0  0  0  0  0  0  0  0  0  0  0
   57.6000   28.8820   44.5680 N   0  0  0  0  0  0  0  0  0  0  0  0
   57.3360   24.4320   43.7140 C   0  0  0  0  0  0  0  0  0  0  0  0
   58.0530   20.3310   42.6450 H   0  0  0  0  0  0  0  0  0  0  0  0
   58.5820   20.7530   44.2400 H   0  0  0  0  0  0  0  0  0  0  0  0
   55.7170   22.6735   46.1301 H   0  0  0  0  0  0  0  0  0  0  0  0
   55.8413   24.8824   47.2513 H   0  0  0  0  0  0  0  0  0  0  0  0
   56.5732   33.1228   44.1864 H   0  0  0  0  0  0  0  0  0  0  0  0
   60.3770   27.0840   44.5310 H   0  0  0  0  0  0  0  0  0  0  0  0
   61.2729   28.9586   45.6949 H   0  0  0  0  0  0  0  0  0  0  0  0
   56.9200   26.7689   46.0890 H   0  0  0  0  0  0  0  0  0  0  0  0
   57.6606   35.3604   44.2851 H   0  0  0  0  0  0  0  0  0  0  0  0
   59.6700   35.7350   45.6867 H   0  0  0  0  0  0  0  0  0  0  0  0
   61.3902   35.2947   48.7772 H   0  0  0  0  0  0  0  0  0  0  0  0
   59.8351   34.4962   48.9637 H   0  0  0  0  0  0  0  0  0  0  0  0
   61.5176   33.3318   50.4261 H   0  0  0  0  0  0  0  0  0  0  0  0
   61.1139   32.2182   49.1238 H   0  0  0  0  0  0  0  0  0  0  0  0
   64.1343   32.9400   47.3266 H   0  0  0  0  0  0  0  0  0  0  0  0
   62.6901   31.8695   47.4547 H   0  0  0  0  0  0  0  0  0  0  0  0
   62.7685   34.8206   46.6338 H   0  0  0  0  0  0  0  0  0  0  0  0
   62.2537   33.4318   45.6396 H   0  0  0  0  0  0  0  0  0  0  0  0
   59.5662   31.6596   46.9408 H   0  0  0  0  0  0  0  0  0  0  0  0
   56.6170   28.8740   44.2730 H   0  0  0  0  0  0  0  0  0  0  0  0
   57.7578   24.2911   42.7079 H   0  0  0  0  0  0  0  0  0  0  0  0
  1  2  1  0
  2  3  2  0
  2  4  2  0
  2  5  1  0
  5  6  2  0
  6  7  1  0
  7  8  2  0
  8  9  1  0
  9 10  1  0
 10 11  2  0
 11 12  1  0
 12 13  1  0
 13 14  2  0
 14 15  1  0
 15 16  2  0
 16 17  1  0
 17 18  2  0
 18 19  1  0
 19 20  2  0
 20 21  1  0
 21 22  1  0
 22 23  1  0
 23 24  1  0
 24 25  1  0
 25 26  1  0
 26 27  1  0
 21 28  2  0
 15 29  1  0
  9 30  2  0
 30  5  1  0
 29 11  1  0
 28 17  1  0
 27 22  1  0
  1 31  1  0
  1 32  1  0
  6 33  1  0
  7 34  1  0
  8 35  1  0
 12 36  1  0
 13 37  1  0
 18 38  1  0
 19 39  1  0
 20 40  1  0
 23 41  1  0
 23 42  1  0
 24 43  1  0
 24 44  1  0
 26 45  1  0
 26 46  1  0
 27 47  1  0
 27 48  1  0
 28 49  1  0
 29 50  1  0
 30 51  1  0
M  END
>  <smiles>  (23) 
NS(=O)(=O)c1cccc(N=c2[nH]cnc(=Nc3cccc(N4CCOCC4)c3)[nH]2)c1

>  <score_type>  (23) 
oracle

>  <origin>  (23) 
adg

>  <m_score__min__energy>  (23) 
-10.07

>  <m_primary>  (23) 
energy

$$$$
23:0
     RDKit          3D

 31 33  0  0  0  0  0  0  0  0999 V2000
   54.3930   26.7140   44.9810 H   0  0  0  0  0  0  0  0  0  0  0  0
   54.4770   26.2460   45.8740 O   0  0  0  0  0  0  0  0  0  0  0  0
   55.6160   25.5240   46.2240 C   0  0  0  0  0  0  0  0  0  0  0  0
   55.5940   24.4890   47.0790 N   0  0  0  0  0  0  0  0  0  0  0  0
   56.8850   24.1060   47.1190 C   0  0  0  0  0  0  0  0  0  0  0  0
   57.2860   23.1450   47.8260 O   0  0  0  0  0  0  0  0  0  0  0  0
   57.7150   24.8350   46.3450 N   0  0  0  0  0  0  0  0  0  0  0  0
   56.9010   25.7350   45.7650 C   0  0  0  0  0  0  0  0  0  0  0  0
   57.3410   26.8240   44.8630 C   0  0  0  0  0  0  0  0  0  0  0  0
   57.1802   26.6863   43.7836 H   0  0  0  0  0  0  0  0  0  0  0  0
   57.9240   27.9720   45.2650 C   0  0  0  0  0  0  0  0  0  0  0  0
   57.4210   29.2620   45.1380 C   0  0  0  0  0  0  0  0  0  0  0  0
   56.4712   29.5532   44.6657 H   0  0  0  0  0  0  0  0  0  0  0  0
   58.3470   30.1080   45.7210 C   0  0  0  0  0  0  0  0  0  0  0  0
   58.2360   31.5820   45.7840 C   0  0  0  0  0  0  0  0  0  0  0  0
   58.4620   32.2310   47.0100 C   0  0  0  0  0  0  0  0  0  0  0  0
   58.7318   31.6403   47.8979 H   0  0  0  0  0  0  0  0  0  0  0  0
   58.3470   33.6200   47.1110 C   0  0  0  0  0  0  0  0  0  0  0  0
   58.5193   34.1168   48.0772 H   0  0  0  0  0  0  0  0  0  0  0  0
   58.0140   34.3770   45.9880 C   0  0  0  0  0  0  0  0  0  0  0  0
   57.9175   35.4696   46.0706 H   0  0  0  0  0  0  0  0  0  0  0  0
   57.8030   33.7490   44.7590 C   0  0  0  0  0  0  0  0  0  0  0  0
   57.5480   34.3510   43.8744 H   0  0  0  0  0  0  0  0  0  0  0  0
   57.9140   32.3560   44.6450 C   0  0  0  0  0  0  0  0  0  0  0  0
   57.7310   31.6420   43.0460 Cl  0  0  0  0  0  0  0  0  0  0  0  0
   59.3970   29.4040   46.1840 N   0  0  0  0  0  0  0  0  0  0  0  0
   60.2600   29.7940   46.6300 H   0  0  0  0  0  0  0  0  0  0  0  0
   59.1510   28.1050   45.9210 C   0  0  0  0  0  0  0  0  0  0  0  0
   60.0060   27.1310   46.2520 C   0  0  0  0  0  0  0  0  0  0  0  0
   59.7641   26.0838   46.0178 H   0  0  0  0  0  0  0  0  0  0  0  0
   60.9510   27.3773   46.7583 H   0  0  0  0  0  0  0  0  0  0  0  0
  1  2  1  0
  2  3  1  0
  3  4  1  0
  4  5  1  0
  5  6  2  0
  5  7  1  0
  7  8  1  0
  8  9  1  0
  9 10  1  0
  9 11  2  0
 11 12  1  0
 12 13  1  0
 12 14  2  0
 14 15  1  0
 15 16  2  0
 16 17  1  0
 16 18  1  0
 18 19  1  0
 18 20  2  0
 20 21  1  0
 20 22  1  0
 22 23  1  0
 22 24  2  0
 24 25  1  0
 14 26  1  0
 26 27  1  0
 26 28  1  0
 28 29  2  0
 29 30  1  0
 29 31  1  0
  8  3  2  0
 28 11  1  0
 24 15  1  0
M  CHG  2   4  -1   7  -1
M  END
>  <UniqueID>  (24) 
23

>  <SMILES>  (24) 
C=c1[nH]c(-c2ccccc2Cl)c/c1=C\c1[n-]c(=O)[n-]c1O

>  <Energy>  (24) 
99.75579934666094

>  <Genealogy>  (24) 
C=c1[nH]c(-c2ccccc2Cl)cc1=Cc1[n-]c(=O)[n-]c1O (protonated)
C=c1[nH]c(-c2ccccc2Cl)c/c1=C\c1[n-]c(=O)[n-]c1O (cis-trans isomerization)
C=c1[nH]c(-c2ccccc2Cl)c/c1=C\c1[n-]c(=O)[n-]c1O (3D coordinates assigned)
C=c1[nH]c(-c2ccccc2Cl)c/c1=C\c1[n-]c(=O)[n-]c1O (optimized conformer: 99.75579934666094 kcal/mol)

>  <smiles>  (24) 
C=c1[nH]c(-c2ccccc2Cl)cc1=Cc1[nH]c(=O)[nH]c1O

>  <score_type>  (24) 
oracle

>  <origin>  (24) 
adg

>  <m_score__min__energy>  (24) 
-12.48

>  <m_primary>  (24) 
energy

$$$$
24:0
     RDKit          3D

 42 44  0  0  0  0  0  0  0  0999 V2000
   60.0020   34.5100   49.1670 C   0  0  0  0  0  0  0  0  0  0  0  0
   60.5160   33.9000   48.0990 C   0  0  0  0  0  0  0  0  0  0  0  0
   59.8070   33.7550   46.8020 C   0  0  0  0  0  0  0  0  0  0  0  0
   59.4410   34.9170   46.1120 C   0  0  0  0  0  0  0  0  0  0  0  0
   58.7780   34.8330   44.8910 C   0  0  0  0  0  0  0  0  0  0  0  0
   58.4580   33.5900   44.3460 C   0  0  0  0  0  0  0  0  0  0  0  0
   58.7830   32.3890   45.0200 C   0  0  0  0  0  0  0  0  0  0  0  0
   58.4340   31.0830   44.4560 N   0  0  0  0  0  0  0  0  0  0  0  0
   59.2440   29.9050   44.8380 C   0  0  0  0  0  0  0  0  0  0  0  0
   58.8480   28.5880   44.1550 C   0  0  0  0  0  0  0  0  0  0  0  0
   57.4070   28.4680   43.8980 N   0  0  0  0  0  0  0  0  0  0  0  0
   56.6210   28.3280   45.1130 C   0  0  0  0  0  0  0  0  0  0  0  0
   55.5210   28.8560   45.2150 O   0  0  0  0  0  0  0  0  0  0  0  0
   57.1650   27.5690   46.2930 C   0  0  0  0  0  0  0  0  0  0  0  0
   56.8310   26.1160   46.1600 C   0  0  0  0  0  0  0  0  0  0  0  0
   57.9580   24.8640   46.1070 S   0  0  0  0  0  0  0  0  0  0  0  0
   56.7740   23.6990   45.8530 C   0  0  0  0  0  0  0  0  0  0  0  0
   57.0060   22.4690   45.7270 O   0  0  0  0  0  0  0  0  0  0  0  0
   55.5310   24.2240   45.7890 N   0  0  0  0  0  0  0  0  0  0  0  0
   55.5640   25.5720   45.9530 C   0  0  0  0  0  0  0  0  0  0  0  0
   54.4070   26.3390   45.9120 O   0  0  0  0  0  0  0  0  0  0  0  0
   56.9530   29.5720   43.0420 C   0  0  0  0  0  0  0  0  0  0  0  0
   57.2000   30.9600   43.6500 C   0  0  0  0  0  0  0  0  0  0  0  0
   59.4650   32.5000   46.2600 C   0  0  0  0  0  0  0  0  0  0  0  0
   60.5874   34.5791   50.0957 H   0  0  0  0  0  0  0  0  0  0  0  0
   58.9925   34.9443   49.1196 H   0  0  0  0  0  0  0  0  0  0  0  0
   61.5282   33.4778   48.1835 H   0  0  0  0  0  0  0  0  0  0  0  0
   59.6790   35.9030   46.5377 H   0  0  0  0  0  0  0  0  0  0  0  0
   58.5049   35.7526   44.3528 H   0  0  0  0  0  0  0  0  0  0  0  0
   57.9437   33.5422   43.3748 H   0  0  0  0  0  0  0  0  0  0  0  0
   60.2932   30.1172   44.5848 H   0  0  0  0  0  0  0  0  0  0  0  0
   59.0727   29.7536   45.9140 H   0  0  0  0  0  0  0  0  0  0  0  0
   59.3792   28.5214   43.1941 H   0  0  0  0  0  0  0  0  0  0  0  0
   59.1216   27.7738   44.8421 H   0  0  0  0  0  0  0  0  0  0  0  0
   57.2850   27.5940   43.3330 H   0  0  0  0  0  0  0  0  0  0  0  0
   58.2576   27.6902   46.3328 H   0  0  0  0  0  0  0  0  0  0  0  0
   56.7142   27.9619   47.2163 H   0  0  0  0  0  0  0  0  0  0  0  0
   57.4883   29.5117   42.0829 H   0  0  0  0  0  0  0  0  0  0  0  0
   55.8654   29.4609   42.9205 H   0  0  0  0  0  0  0  0  0  0  0  0
   57.2573   31.6871   42.8266 H   0  0  0  0  0  0  0  0  0  0  0  0
   56.3641   31.1442   44.3409 H   0  0  0  0  0  0  0  0  0  0  0  0
   59.7325   31.5858   46.8102 H   0  0  0  0  0  0  0  0  0  0  0  0
  1  2  2  0
  2  3  1  0
  3  4  2  0
  4  5  1  0
  5  6  2  0
  6  7  1  0
  7  8  1  0
  8  9  1  0
  9 10  1  0
 10 11  1  0
 11 12  1  0
 12 13  2  0
 12 14  1  0
 14 15  1  0
 15 16  1  0
 16 17  1  0
 17 18  2  0
 17 19  1  0
 19 20  1  0
 20 21  1  0
 11 22  1  0
 22 23  1  0
  7 24  2  0
 24  3  1  0
 23  8  1  0
 20 15  2  0
  1 25  1  0
  1 26  1  0
  2 27  1  0
  4 28  1  0
  5 29  1  0
  6 30  1  0
  9 31  1  0
  9 32  1  0
 10 33  1  0
 10 34  1  0
 11 35  1  0
 14 36  1  0
 14 37  1  0
 22 38  1  0
 22 39  1  0
 23 40  1  0
 23 41  1  0
 24 42  1  0
M  CHG  3  11   1  19  -1  21  -1
M  END
>  <UniqueID>  (25) 
24

>  <SMILES>  (25) 
C=Cc1cccc(N2CC[NH+](C(=O)Cc3sc(=O)[n-]c3[O-])CC2)c1

>  <Energy>  (25) 
86.15993757187049

>  <Genealogy>  (25) 
C=Cc1cccc(N2CC[NH+](C(=O)Cc3sc(=O)[n-]c3[O-])CC2)c1 (protonated)
C=Cc1cccc(N2CC[NH+](C(=O)Cc3sc(=O)[n-]c3[O-])CC2)c1 (3D coordinates assigned)
C=Cc1cccc(N2CC[NH+](C(=O)Cc3sc(=O)[n-]c3[O-])CC2)c1 (nonaromatic ring conformer: 86.15993757187049 kcal/mol)

>  <smiles>  (25) 
C=Cc1cccc(N2CCN(C(=O)Cc3sc(=O)[nH]c3O)CC2)c1

>  <score_type>  (25) 
oracle

>  <origin>  (25) 
adg

>  <m_score__min__energy>  (25) 
-12.52

>  <m_primary>  (25) 
energy

$$$$
25:0
     RDKit          3D

 72 74  0  0  0  0  0  0  0  0999 V2000
   63.9234   32.2876   46.0016 H   0  0  0  0  0  0  0  0  0  0  0  0
   63.4460   32.5470   46.9580 C   0  0  0  0  0  0  0  0  0  0  0  0
   63.5060   33.8550   47.4320 C   0  0  0  0  0  0  0  0  0  0  0  0
   64.0427   34.6228   46.8555 H   0  0  0  0  0  0  0  0  0  0  0  0
   62.8860   34.1960   48.6390 C   0  0  0  0  0  0  0  0  0  0  0  0
   62.9271   35.2341   49.0005 H   0  0  0  0  0  0  0  0  0  0  0  0
   62.2060   33.2130   49.3980 C   0  0  0  0  0  0  0  0  0  0  0  0
   61.5310   33.5140   50.7370 C   0  0  1  0  0  0  0  0  0  0  0  0
   61.9911   34.4594   51.0602 H   0  0  0  0  0  0  0  0  0  0  0  0
   60.0320   33.6980   50.5820 C   0  0  0  0  0  0  0  0  0  0  0  0
   59.6010   34.1840   49.4510 N   0  0  0  0  0  0  0  0  0  0  0  0
   58.8610   33.4780   48.4520 C   0  0  0  0  0  0  0  0  0  0  0  0
   58.2480   32.4170   48.7620 O   0  0  0  0  0  0  0  0  0  0  0  0
   58.6640   34.0730   47.0860 C   0  0  1  0  0  0  0  0  0  0  0  0
   57.9199   34.8358   47.3590 H   0  0  0  0  0  0  0  0  0  0  0  0
   59.8610   34.7610   46.4460 C   0  0  0  0  0  0  0  0  0  0  0  0
   60.0260   35.7566   46.8836 H   0  0  0  0  0  0  0  0  0  0  0  0
   60.8055   34.2168   46.5940 H   0  0  0  0  0  0  0  0  0  0  0  0
   59.4480   34.8670   44.9760 C   0  0  0  0  0  0  0  0  0  0  0  0
   59.2018   35.9080   44.7195 H   0  0  0  0  0  0  0  0  0  0  0  0
   60.2576   34.5544   44.3001 H   0  0  0  0  0  0  0  0  0  0  0  0
   58.2080   33.9710   44.8350 C   0  0  0  0  0  0  0  0  0  0  0  0
   57.3044   34.5902   44.7342 H   0  0  0  0  0  0  0  0  0  0  0  0
   58.2839   33.3350   43.9407 H   0  0  0  0  0  0  0  0  0  0  0  0
   58.1250   33.1480   46.0610 N   0  0  1  0  0  0  0  0  0  0  0  0
   57.1220   32.9240   46.2780 H   0  0  0  0  0  0  0  0  0  0  0  0
   58.9120   31.9080   45.9090 C   0  0  0  0  0  0  0  0  0  0  0  0
   60.0590   31.8390   46.3420 O   0  0  0  0  0  0  0  0  0  0  0  0
   58.3370   30.6740   45.2460 C   0  0  2  0  0  0  0  0  0  0  0  0
   58.8802   30.5363   44.2995 H   0  0  0  0  0  0  0  0  0  0  0  0
   56.8970   30.8540   45.0060 N   0  0  0  0  0  0  0  0  0  0  0  0
   56.0540   29.9460   44.2990 C   0  0  0  0  0  0  0  0  0  0  0  0
   55.1420   29.3210   44.9020 O   0  0  0  0  0  0  0  0  0  0  0  0
   56.2560   29.7520   42.8420 C   0  0  0  0  0  0  0  0  0  0  0  0
   57.0405   28.9986   42.6777 H   0  0  0  0  0  0  0  0  0  0  0  0
   55.3165   29.4090   42.3840 H   0  0  0  0  0  0  0  0  0  0  0  0
   56.5608   30.7046   42.3840 H   0  0  0  0  0  0  0  0  0  0  0  0
   58.5160   29.4110   46.1270 C   0  0  0  0  0  0  0  0  0  0  0  0
   57.6377   28.7686   45.9659 H   0  0  0  0  0  0  0  0  0  0  0  0
   59.7920   28.6390   45.6860 C   0  0  0  0  0  0  0  0  0  0  0  0
   59.5816   28.1138   44.7427 H   0  0  0  0  0  0  0  0  0  0  0  0
   60.6056   29.3687   45.5608 H   0  0  0  0  0  0  0  0  0  0  0  0
   60.2290   27.6190   46.7310 C   0  0  0  0  0  0  0  0  0  0  0  0
   59.4066   26.9090   46.9029 H   0  0  0  0  0  0  0  0  0  0  0  0
   61.1226   27.1003   46.3536 H   0  0  0  0  0  0  0  0  0  0  0  0
   60.5930   28.2980   48.0690 C   0  0  0  0  0  0  0  0  0  0  0  0
   60.2851   27.6346   48.8907 H   0  0  0  0  0  0  0  0  0  0  0  0
   61.6789   28.4729   48.0569 H   0  0  0  0  0  0  0  0  0  0  0  0
   59.9160   29.6700   48.2700 C   0  0  0  0  0  0  0  0  0  0  0  0
   59.8389   29.8728   49.3484 H   0  0  0  0  0  0  0  0  0  0  0  0
   60.5313   30.4285   47.7640 H   0  0  0  0  0  0  0  0  0  0  0  0
   58.5120   29.7160   47.6570 C   0  0  0  0  0  0  0  0  0  0  0  0
   57.8817   28.9702   48.1634 H   0  0  0  0  0  0  0  0  0  0  0  0
   58.1220   30.7355   47.7928 H   0  0  0  0  0  0  0  0  0  0  0  0
   59.1240   33.4780   51.7480 C   0  0  0  0  0  0  0  0  0  0  0  0
   58.6680   34.4580   52.4010 O   0  0  0  0  0  0  0  0  0  0  0  0
   58.8390   32.1720   52.1690 O   0  0  0  0  0  0  0  0  0  0  0  0
   58.8380   31.0520   51.2930 C   0  0  0  0  0  0  0  0  0  0  0  0
   59.8291   30.5752   51.3121 H   0  0  0  0  0  0  0  0  0  0  0  0
   58.6047   31.3944   50.2740 H   0  0  0  0  0  0  0  0  0  0  0  0
   57.7830   30.0390   51.7310 C   0  0  0  0  0  0  0  0  0  0  0  0
   57.7442   30.0018   52.8297 H   0  0  0  0  0  0  0  0  0  0  0  0
   56.8003   30.3405   51.3394 H   0  0  0  0  0  0  0  0  0  0  0  0
   58.0444   29.0448   51.3394 H   0  0  0  0  0  0  0  0  0  0  0  0
   61.8180   32.4950   51.8520 C   0  0  0  0  0  0  0  0  0  0  0  0
   61.6825   32.9759   52.8320 H   0  0  0  0  0  0  0  0  0  0  0  0
   61.1239   31.6465   51.7609 H   0  0  0  0  0  0  0  0  0  0  0  0
   62.8529   32.1335   51.7609 H   0  0  0  0  0  0  0  0  0  0  0  0
   62.1600   31.8950   48.9000 C   0  0  0  0  0  0  0  0  0  0  0  0
   61.6284   31.1174   49.4681 H   0  0  0  0  0  0  0  0  0  0  0  0
   62.7820   31.5650   47.6930 C   0  0  0  0  0  0  0  0  0  0  0  0
   62.7479   30.5299   47.3222 H   0  0  0  0  0  0  0  0  0  0  0  0
  1  2  1  0
  2  3  2  0
  3  4  1  0
  3  5  1  0
  5  6  1  0
  5  7  2  0
  7  8  1  0
  8  9  1  1
  8 10  1  0
 10 11  2  0
 11 12  1  0
 12 13  2  0
 12 14  1  0
 14 15  1  1
 14 16  1  0
 16 17  1  0
 16 18  1  0
 16 19  1  0
 19 20  1  0
 19 21  1  0
 19 22  1  0
 22 23  1  0
 22 24  1  0
 22 25  1  0
 25 26  1  1
 25 27  1  0
 27 28  2  0
 27 29  1  0
 29 30  1  6
 29 31  1  0
 31 32  1  0
 32 33  2  0
 32 34  1  0
 34 35  1  0
 34 36  1  0
 34 37  1  0
 29 38  1  0
 38 39  1  0
 38 40  1  0
 40 41  1  0
 40 42  1  0
 40 43  1  0
 43 44  1  0
 43 45  1  0
 43 46  1  0
 46 47  1  0
 46 48  1  0
 46 49  1  0
 49 50  1  0
 49 51  1  0
 49 52  1  0
 52 53  1  0
 52 54  1  0
 10 55  1  0
 55 56  2  0
 55 57  1  0
 57 58  1  0
 58 59  1  0
 58 60  1  0
 58 61  1  0
 61 62  1  0
 61 63  1  0
 61 64  1  0
  8 65  1  0
 65 66  1  0
 65 67  1  0
 65 68  1  0
  7 69  1  0
 69 70  1  0
 69 71  2  0
 71 72  1  0
 71  2  1  0
 25 14  1  0
 52 38  1  0
M  CHG  2  25   1  31  -1
M  END
>  <UniqueID>  (26) 
25

>  <SMILES>  (26) 
CCOC(=O)/C(=N\C(=O)[C@H]1CCC[N@H+]1C(=O)C([N-]C(C)=O)C1CCCCC1)C(C)c1ccccc1

>  <Energy>  (26) 
98.07911263627054

>  <Genealogy>  (26) 
CCOC(=O)C(=NC(=O)C1CCC[NH+]1C(=O)C([N-]C(C)=O)C1CCCCC1)C(C)c1ccccc1 (protonated)
CCOC(=O)C(=NC(=O)[C@H]1CCC[N@H+]1C(=O)C([N-]C(C)=O)C1CCCCC1)C(C)c1ccccc1 (chirality)
CCOC(=O)/C(=N\C(=O)[C@H]1CCC[N@H+]1C(=O)C([N-]C(C)=O)C1CCCCC1)C(C)c1ccccc1 (cis-trans isomerization)
CCOC(=O)/C(=N\C(=O)[C@H]1CCC[N@H+]1C(=O)C([N-]C(C)=O)C1CCCCC1)C(C)c1ccccc1 (3D coordinates assigned)
CCOC(=O)/C(=N\C(=O)[C@H]1CCC[N@H+]1C(=O)C([N-]C(C)=O)C1CCCCC1)C(C)c1ccccc1 (nonaromatic ring conformer: 98.07911263627054 kcal/mol)

>  <smiles>  (26) 
CCOC(=O)C(=NC(=O)C1CCCN1C(=O)C(NC(C)=O)C1CCCCC1)C(C)c1ccccc1

>  <score_type>  (26) 
oracle

>  <origin>  (26) 
adg

>  <m_score__min__energy>  (26) 
-10.17

>  <m_primary>  (26) 
energy

$$$$
26:0
     RDKit          3D

 58 62  0  0  0  0  0  0  0  0999 V2000
   65.2170   31.0120   50.5730 H   0  0  0  0  0  0  0  0  0  0  0  0
   66.0880   31.4900   50.5970 O   0  0  0  0  0  0  0  0  0  0  0  0
   65.8610   32.8220   50.1970 C   0  0  1  0  0  0  0  0  0  0  0  0
   66.8377   33.2199   49.8844 H   0  0  0  0  0  0  0  0  0  0  0  0
   64.8390   32.8880   49.0610 C   0  0  0  0  0  0  0  0  0  0  0  0
   65.1541   33.6192   48.3020 H   0  0  0  0  0  0  0  0  0  0  0  0
   64.7343   31.9203   48.5486 H   0  0  0  0  0  0  0  0  0  0  0  0
   63.5930   33.3070   49.6850 N   0  0  0  0  0  0  0  0  0  0  0  0
   62.3020   33.1630   49.0690 C   0  0  0  0  0  0  0  0  0  0  0  0
   61.6730   31.9560   49.0990 N   0  0  0  0  0  0  0  0  0  0  0  0
   60.4690   31.7630   48.5000 C   0  0  0  0  0  0  0  0  0  0  0  0
   59.8750   30.6020   48.5250 N   0  0  0  0  0  0  0  0  0  0  0  0
   60.1670   29.4480   47.7150 C   0  0  0  0  0  0  0  0  0  0  0  0
   60.0830   28.1300   48.2110 C   0  0  0  0  0  0  0  0  0  0  0  0
   59.7935   27.9565   49.2580 H   0  0  0  0  0  0  0  0  0  0  0  0
   60.3660   27.0430   47.3780 C   0  0  0  0  0  0  0  0  0  0  0  0
   60.3200   26.0190   47.7771 H   0  0  0  0  0  0  0  0  0  0  0  0
   60.7070   27.2550   46.0400 C   0  0  0  0  0  0  0  0  0  0  0  0
   60.9377   26.3990   45.3888 H   0  0  0  0  0  0  0  0  0  0  0  0
   60.7550   28.5550   45.5290 C   0  0  0  0  0  0  0  0  0  0  0  0
   61.0120   28.7219   44.4725 H   0  0  0  0  0  0  0  0  0  0  0  0
   60.4760   29.6440   46.3620 C   0  0  0  0  0  0  0  0  0  0  0  0
   60.4994   30.6641   45.9510 H   0  0  0  0  0  0  0  0  0  0  0  0
   59.8930   32.7820   47.8120 N   0  0  0  0  0  0  0  0  0  0  0  0
   60.4790   34.0060   47.7500 C   0  0  0  0  0  0  0  0  0  0  0  0
   59.7250   35.2940   46.7590 S   0  0  0  0  0  0  0  0  0  0  0  0
   58.6660   34.1140   45.9180 C   0  0  0  0  0  0  0  0  0  0  0  0
   57.3900   33.8240   46.4080 C   0  0  0  0  0  0  0  0  0  0  0  0
   56.9936   34.3773   47.2721 H   0  0  0  0  0  0  0  0  0  0  0  0
   56.6380   32.8570   45.8160 N   0  0  0  0  0  0  0  0  0  0  0  0
   57.0700   32.1620   44.7280 C   0  0  0  0  0  0  0  0  0  0  0  0
   56.3090   31.2160   44.2540 N   0  0  0  0  0  0  0  0  0  0  0  0
   56.2990   29.8410   44.6620 C   0  0  0  0  0  0  0  0  0  0  0  0
   55.2080   29.2340   44.8370 O   0  0  0  0  0  0  0  0  0  0  0  0
   57.5940   29.1050   44.8580 C   0  0  2  0  0  0  0  0  0  0  0  0
   58.3606   29.8246   45.1813 H   0  0  0  0  0  0  0  0  0  0  0  0
   57.9900   28.5040   43.6440 O   0  0  0  0  0  0  0  0  0  0  0  0
   58.1330   27.1220   43.8750 C   0  0  0  0  0  0  0  0  0  0  0  0
   59.1988   26.8744   43.9879 H   0  0  0  0  0  0  0  0  0  0  0  0
   57.7214   26.5566   43.0259 H   0  0  0  0  0  0  0  0  0  0  0  0
   57.3900   26.7600   45.1420 C   0  0  0  0  0  0  0  0  0  0  0  0
   57.8937   25.9408   45.6761 H   0  0  0  0  0  0  0  0  0  0  0  0
   56.3660   26.4025   44.9588 H   0  0  0  0  0  0  0  0  0  0  0  0
   57.4410   28.0300   45.9320 C   0  0  0  0  0  0  0  0  0  0  0  0
   58.3008   28.0331   46.6182 H   0  0  0  0  0  0  0  0  0  0  0  0
   56.5550   28.1783   46.5668 H   0  0  0  0  0  0  0  0  0  0  0  0
   58.3450   32.4470   44.1970 C   0  0  0  0  0  0  0  0  0  0  0  0
   58.7127   31.9026   43.3147 H   0  0  0  0  0  0  0  0  0  0  0  0
   59.1360   33.4250   44.8000 C   0  0  0  0  0  0  0  0  0  0  0  0
   60.1322   33.6533   44.3931 H   0  0  0  0  0  0  0  0  0  0  0  0
   61.6940   34.2310   48.3990 C   0  0  0  0  0  0  0  0  0  0  0  0
   62.1634   35.2257   48.3843 H   0  0  0  0  0  0  0  0  0  0  0  0
   63.7570   33.6770   51.0820 C   0  0  0  0  0  0  0  0  0  0  0  0
   63.3593   34.6869   51.2605 H   0  0  0  0  0  0  0  0  0  0  0  0
   63.2126   32.9930   51.7497 H   0  0  0  0  0  0  0  0  0  0  0  0
   65.2560   33.6430   51.3440 C   0  0  0  0  0  0  0  0  0  0  0  0
   65.6683   34.6628   51.3444 H   0  0  0  0  0  0  0  0  0  0  0  0
   65.4863   33.2008   52.3245 H   0  0  0  0  0  0  0  0  0  0  0  0
  1  2  1  0
  2  3  1  0
  3  4  1  6
  3  5  1  0
  5  6  1  0
  5  7  1  0
  5  8  1  0
  8  9  1  0
  9 10  1  0
 10 11  1  0
 11 12  2  0
 12 13  1  0
 13 14  2  0
 14 15  1  0
 14 16  1  0
 16 17  1  0
 16 18  2  0
 18 19  1  0
 18 20  1  0
 20 21  1  0
 20 22  2  0
 22 23  1  0
 11 24  1  0
 24 25  2  0
 25 26  1  0
 26 27  1  0
 27 28  2  0
 28 29  1  0
 28 30  1  0
 30 31  1  0
 31 32  2  3
 32 33  1  0
 33 34  2  0
 33 35  1  0
 35 36  1  1
 35 37  1  0
 37 38  1  0
 38 39  1  0
 38 40  1  0
 38 41  1  0
 41 42  1  0
 41 43  1  0
 41 44  1  0
 44 45  1  0
 44 46  1  0
 31 47  1  0
 47 48  1  0
 47 49  2  0
 49 50  1  0
 25 51  1  0
 51 52  1  0
  8 53  1  0
 53 54  1  0
 53 55  1  0
 53 56  1  0
 56 57  1  0
 56 58  1  0
 56  3  1  0
 51  9  2  0
 22 13  1  0
 49 27  1  0
 44 35  1  0
M  CHG  2  10  -1  30  -1
M  END
>  <UniqueID>  (27) 
26

>  <SMILES>  (27) 
O=C(N=c1ccc(Sc2cc(N3CC[C@@H](O)C3)[n-]/c(=N\c3ccccc3)n2)c[n-]1)[C@H]1CCCO1

>  <Energy>  (27) 
74.69109484669654

>  <Genealogy>  (27) 
O=C(N=c1ccc(Sc2cc(N3CCC(O)C3)[n-]c(=Nc3ccccc3)n2)c[n-]1)C1CCCO1 (protonated)
O=C(N=c1ccc(Sc2cc(N3CC[C@@H](O)C3)[n-]c(=Nc3ccccc3)n2)c[n-]1)[C@H]1CCCO1 (chirality)
O=C(N=c1ccc(Sc2cc(N3CC[C@@H](O)C3)[n-]/c(=N\c3ccccc3)n2)c[n-]1)[C@H]1CCCO1 (cis-trans isomerization)
O=C(N=c1ccc(Sc2cc(N3CC[C@@H](O)C3)[n-]/c(=N\c3ccccc3)n2)c[n-]1)[C@H]1CCCO1 (3D coordinates assigned)
O=C(N=c1ccc(Sc2cc(N3CC[C@@H](O)C3)[n-]/c(=N\c3ccccc3)n2)c[n-]1)[C@H]1CCCO1 (nonaromatic ring conformer: 74.69109484669654 kcal/mol)

>  <smiles>  (27) 
O=C(N=c1ccc(Sc2cc(N3CCC(O)C3)[nH]c(=Nc3ccccc3)n2)c[nH]1)C1CCCO1

>  <score_type>  (27) 
oracle

>  <origin>  (27) 
adg

>  <m_score__min__energy>  (27) 
-12.48

>  <m_primary>  (27) 
energy

$$$$
27:0
     RDKit          3D

 46 48  0  0  0  0  0  0  0  0999 V2000
   58.8510   29.1670   48.4740 O   0  0  0  0  0  0  0  0  0  0  0  0
   59.7510   29.0670   47.5950 C   0  0  0  0  0  0  0  0  0  0  0  0
   60.8500   29.9890   47.5950 N   0  0  0  0  0  0  0  0  0  0  0  0
   60.7620   31.2890   48.2520 C   0  0  0  0  0  0  0  0  0  0  0  0
   61.9250   32.1370   47.8460 C   0  0  0  0  0  0  0  0  0  0  0  0
   62.0710   33.4860   48.0970 C   0  0  0  0  0  0  0  0  0  0  0  0
   63.2550   33.8490   47.4950 C   0  0  0  0  0  0  0  0  0  0  0  0
   63.7570   32.7020   46.9120 C   0  0  0  0  0  0  0  0  0  0  0  0
   62.9400   31.6980   47.1370 O   0  0  0  0  0  0  0  0  0  0  0  0
   59.6480   28.0300   46.4980 C   0  0  0  0  0  0  0  0  0  0  0  0
   60.2520   28.5820   45.1900 C   0  0  0  0  0  0  0  0  0  0  0  0
   59.3960   29.7110   44.5700 C   0  0  0  0  0  0  0  0  0  0  0  0
   58.0500   29.7570   45.1660 N   0  0  0  0  0  0  0  0  0  0  0  0
   57.0180   31.0150   44.5080 S   0  0  0  0  0  0  0  0  0  0  0  0
   55.6040   30.5010   44.5150 O   0  0  0  0  0  0  0  0  0  0  0  0
   57.4040   31.2490   43.0750 O   0  0  0  0  0  0  0  0  0  0  0  0
   57.0370   32.5670   45.3300 N   0  0  0  0  0  0  0  0  0  0  0  0
   57.8080   32.5670   46.5790 C   0  0  0  0  0  0  0  0  0  0  0  0
   58.8240   33.7000   46.5070 C   0  0  0  0  0  0  0  0  0  0  0  0
   58.8290   34.1530   45.0620 C   0  0  0  0  0  0  0  0  0  0  0  0
   57.5020   33.6790   44.5000 C   0  0  0  0  0  0  0  0  0  0  0  0
   57.4290   28.4270   45.2400 C   0  0  0  0  0  0  0  0  0  0  0  0
   58.1930   27.5460   46.2520 C   0  0  0  0  0  0  0  0  0  0  0  0
   61.6780   29.7920   46.9900 H   0  0  0  0  0  0  0  0  0  0  0  0
   59.8261   31.7857   47.9565 H   0  0  0  0  0  0  0  0  0  0  0  0
   60.7762   31.1483   49.3429 H   0  0  0  0  0  0  0  0  0  0  0  0
   61.3849   34.1356   48.6603 H   0  0  0  0  0  0  0  0  0  0  0  0
   63.7094   34.8506   47.4812 H   0  0  0  0  0  0  0  0  0  0  0  0
   64.6978   32.6387   46.3455 H   0  0  0  0  0  0  0  0  0  0  0  0
   60.2202   27.1531   46.8351 H   0  0  0  0  0  0  0  0  0  0  0  0
   61.2554   28.9782   45.4049 H   0  0  0  0  0  0  0  0  0  0  0  0
   60.2890   27.7554   44.4651 H   0  0  0  0  0  0  0  0  0  0  0  0
   59.8966   30.6751   44.7428 H   0  0  0  0  0  0  0  0  0  0  0  0
   59.2901   29.5123   43.4933 H   0  0  0  0  0  0  0  0  0  0  0  0
   57.1336   32.7245   47.4336 H   0  0  0  0  0  0  0  0  0  0  0  0
   58.3206   31.6027   46.7108 H   0  0  0  0  0  0  0  0  0  0  0  0
   58.5240   34.5270   47.1674 H   0  0  0  0  0  0  0  0  0  0  0  0
   59.8220   33.3725   46.8338 H   0  0  0  0  0  0  0  0  0  0  0  0
   58.9064   35.2485   45.0001 H   0  0  0  0  0  0  0  0  0  0  0  0
   59.6846   33.7458   44.5032 H   0  0  0  0  0  0  0  0  0  0  0  0
   56.7693   34.4990   44.5281 H   0  0  0  0  0  0  0  0  0  0  0  0
   57.6204   33.3557   43.4553 H   0  0  0  0  0  0  0  0  0  0  0  0
   56.3827   28.5305   45.5634 H   0  0  0  0  0  0  0  0  0  0  0  0
   57.4663   27.9541   44.2475 H   0  0  0  0  0  0  0  0  0  0  0  0
   57.6516   27.5613   47.2094 H   0  0  0  0  0  0  0  0  0  0  0  0
   58.2497   26.5319   45.8295 H   0  0  0  0  0  0  0  0  0  0  0  0
  1  2  2  0
  2  3  1  0
  3  4  1  0
  4  5  1  0
  5  6  2  0
  6  7  1  0
  7  8  2  0
  8  9  1  0
  2 10  1  0
 10 11  1  0
 11 12  1  0
 12 13  1  0
 13 14  1  0
 14 15  2  0
 14 16  2  0
 14 17  1  0
 17 18  1  0
 18 19  1  0
 19 20  1  0
 20 21  1  0
 13 22  1  0
 22 23  1  0
  9  5  1  0
 23 10  1  0
 21 17  1  0
  3 24  1  0
  4 25  1  0
  4 26  1  0
  6 27  1  0
  7 28  1  0
  8 29  1  0
 10 30  1  0
 11 31  1  0
 11 32  1  0
 12 33  1  0
 12 34  1  0
 18 35  1  0
 18 36  1  0
 19 37  1  0
 19 38  1  0
 20 39  1  0
 20 40  1  0
 21 41  1  0
 21 42  1  0
 22 43  1  0
 22 44  1  0
 23 45  1  0
 23 46  1  0
M  END
>  <UniqueID>  (28) 
27

>  <SMILES>  (28) 
O=C(NCc1ccco1)C1CCN(S(=O)(=O)N2CCCC2)CC1

>  <Energy>  (28) 
78.64333566487002

>  <Genealogy>  (28) 
O=C(NCc1ccco1)C1CCN(S(=O)(=O)N2CCCC2)CC1 (3D coordinates assigned)
O=C(NCc1ccco1)C1CCN(S(=O)(=O)N2CCCC2)CC1 (nonaromatic ring conformer: 78.64333566487002 kcal/mol)

>  <smiles>  (28) 
O=C(NCc1ccco1)C1CCN(S(=O)(=O)N2CCCC2)CC1

>  <score_type>  (28) 
oracle

>  <origin>  (28) 
adg

>  <m_score__min__energy>  (28) 
-7.8399999999999999

>  <m_primary>  (28) 
energy

$$$$
28:0
     RDKit          3D

 38 40  0  0  0  0  0  0  0  0999 V2000
   55.7204   29.0659   42.5429 H   0  0  0  0  0  0  0  0  0  0  0  0
   56.2680   30.0000   42.3490 C   0  0  0  0  0  0  0  0  0  0  0  0
   56.2811   30.4299   41.3366 H   0  0  0  0  0  0  0  0  0  0  0  0
   56.9210   30.6160   43.3490 C   0  0  0  0  0  0  0  0  0  0  0  0
   57.5700   31.7620   43.0230 N   0  0  0  0  0  0  0  0  0  0  0  0
   58.3010   32.4680   43.9120 C   0  0  0  0  0  0  0  0  0  0  0  0
   58.8890   33.5150   43.5270 O   0  0  0  0  0  0  0  0  0  0  0  0
   58.4000   32.0480   45.2050 N   0  0  0  0  0  0  0  0  0  0  0  0
   59.1770   32.8150   46.1470 C   0  0  0  0  0  0  0  0  0  0  0  0
   58.8110   34.1430   46.4200 C   0  0  0  0  0  0  0  0  0  0  0  0
   57.9491   34.5905   45.9034 H   0  0  0  0  0  0  0  0  0  0  0  0
   59.5360   34.8980   47.3440 C   0  0  0  0  0  0  0  0  0  0  0  0
   59.2451   35.9382   47.5520 H   0  0  0  0  0  0  0  0  0  0  0  0
   60.6290   34.3350   48.0040 C   0  0  0  0  0  0  0  0  0  0  0  0
   61.1955   34.9307   48.7349 H   0  0  0  0  0  0  0  0  0  0  0  0
   61.0050   33.0160   47.7380 C   0  0  0  0  0  0  0  0  0  0  0  0
   61.8625   32.5754   48.2677 H   0  0  0  0  0  0  0  0  0  0  0  0
   60.2960   32.2480   46.7990 C   0  0  0  0  0  0  0  0  0  0  0  0
   60.7070   30.8260   46.5390 C   0  0  0  0  0  0  0  0  0  0  0  0
   60.8571   30.3067   47.4970 H   0  0  0  0  0  0  0  0  0  0  0  0
   59.9195   30.3159   45.9648 H   0  0  0  0  0  0  0  0  0  0  0  0
   61.6452   30.8146   45.9648 H   0  0  0  0  0  0  0  0  0  0  0  0
   57.7440   30.9190   45.6170 C   0  0  0  0  0  0  0  0  0  0  0  0
   57.7740   30.6160   46.8440 O   0  0  0  0  0  0  0  0  0  0  0  0
   57.0000   30.1250   44.6920 C   0  0  0  0  0  0  0  0  0  0  0  0
   56.3690   28.9760   45.0740 C   0  0  0  0  0  0  0  0  0  0  0  0
   55.2698   28.9710   45.0320 H   0  0  0  0  0  0  0  0  0  0  0  0
   57.0300   27.7380   45.5390 C   0  0  0  0  0  0  0  0  0  0  0  0
   58.4310   27.6910   45.6040 C   0  0  0  0  0  0  0  0  0  0  0  0
   59.0238   28.5611   45.2854 H   0  0  0  0  0  0  0  0  0  0  0  0
   59.0760   26.5430   46.0720 C   0  0  0  0  0  0  0  0  0  0  0  0
   60.1748   26.5056   46.1068 H   0  0  0  0  0  0  0  0  0  0  0  0
   58.3260   25.4420   46.4960 C   0  0  0  0  0  0  0  0  0  0  0  0
   58.8354   24.5369   46.8584 H   0  0  0  0  0  0  0  0  0  0  0  0
   56.9300   25.4900   46.4600 C   0  0  0  0  0  0  0  0  0  0  0  0
   56.3423   24.6238   46.7981 H   0  0  0  0  0  0  0  0  0  0  0  0
   56.2780   26.6370   45.9950 C   0  0  0  0  0  0  0  0  0  0  0  0
   54.8880   26.6790   45.9930 O   0  0  0  0  0  0  0  0  0  0  0  0
  1  2  1  0
  2  3  1  0
  2  4  2  0
  4  5  1  0
  5  6  1  0
  6  7  2  0
  6  8  1  0
  8  9  1  0
  9 10  2  0
 10 11  1  0
 10 12  1  0
 12 13  1  0
 12 14  2  0
 14 15  1  0
 14 16  1  0
 16 17  1  0
 16 18  2  0
 18 19  1  0
 19 20  1  0
 19 21  1  0
 19 22  1  0
  8 23  1  0
 23 24  2  0
 23 25  1  0
 25 26  2  0
 26 27  1  0
 26 28  1  0
 28 29  2  0
 29 30  1  0
 29 31  1  0
 31 32  1  0
 31 33  2  0
 33 34  1  0
 33 35  1  0
 35 36  1  0
 35 37  2  0
 37 38  1  0
 25  4  1  0
 37 28  1  0
 18  9  1  0
M  CHG  2   5  -1  38  -1
M  END
>  <UniqueID>  (29) 
28

>  <SMILES>  (29) 
C=c1[n-]c(=O)n(-c2ccccc2C)c(=O)/c1=C\c1ccccc1[O-]

>  <Energy>  (29) 
72.46725777873876

>  <Genealogy>  (29) 
C=c1[n-]c(=O)n(-c2ccccc2C)c(=O)c1=Cc1ccccc1[O-] (protonated)
C=c1[n-]c(=O)n(-c2ccccc2C)c(=O)/c1=C\c1ccccc1[O-] (cis-trans isomerization)
C=c1[n-]c(=O)n(-c2ccccc2C)c(=O)/c1=C\c1ccccc1[O-] (3D coordinates assigned)
C=c1[n-]c(=O)n(-c2ccccc2C)c(=O)/c1=C\c1ccccc1[O-] (optimized conformer: 72.46725777873876 kcal/mol)

>  <smiles>  (29) 
C=c1[nH]c(=O)n(-c2ccccc2C)c(=O)c1=Cc1ccccc1O

>  <score_type>  (29) 
oracle

>  <origin>  (29) 
adg

>  <m_score__min__energy>  (29) 
-13.01

>  <m_primary>  (29) 
energy

$$$$
29:0
     RDKit          3D

 46 49  0  0  0  0  0  0  0  0999 V2000
   57.0900   34.6110   44.9740 N   0  0  0  0  0  0  0  0  0  0  0  0
   57.3550   33.4850   44.9640 C   0  0  0  0  0  0  0  0  0  0  0  0
   57.6840   32.0830   44.9520 C   0  0  0  0  0  0  0  0  0  0  0  0
   57.0070   31.2100   44.0900 C   0  0  0  0  0  0  0  0  0  0  0  0
   57.3240   29.8480   44.0810 C   0  0  0  0  0  0  0  0  0  0  0  0
   58.3200   29.3510   44.9340 C   0  0  0  0  0  0  0  0  0  0  0  0
   58.7160   27.6350   44.9420 S   0  0  0  0  0  0  0  0  0  0  0  0
   60.0970   27.4620   45.5050 O   0  0  0  0  0  0  0  0  0  0  0  0
   58.6820   27.0740   43.5470 O   0  0  0  0  0  0  0  0  0  0  0  0
   57.5820   26.7690   45.9300 N   0  0  0  0  0  0  0  0  0  0  0  0
   56.8180   25.6390   45.4660 C   0  0  0  0  0  0  0  0  0  0  0  0
   57.4440   24.5360   44.8580 C   0  0  0  0  0  0  0  0  0  0  0  0
   56.6890   23.4530   44.4070 C   0  0  0  0  0  0  0  0  0  0  0  0
   55.3040   23.4480   44.5660 C   0  0  0  0  0  0  0  0  0  0  0  0
   54.6550   24.5280   45.1840 C   0  0  0  0  0  0  0  0  0  0  0  0
   53.1510   24.4980   45.3570 C   0  0  0  0  0  0  0  0  0  0  0  0
   52.6930   23.1840   45.8720 N   0  0  0  0  0  0  0  0  0  0  0  0
   51.6680   22.4720   45.2770 C   0  0  0  0  0  0  0  0  0  0  0  0
   50.8970   22.9840   43.9180 S   0  0  0  0  0  0  0  0  0  0  0  0
   51.2660   21.2860   45.7990 N   0  0  0  0  0  0  0  0  0  0  0  0
   51.8480   20.7530   46.8970 C   0  0  0  0  0  0  0  0  0  0  0  0
   51.3970   19.5280   47.4040 C   0  0  0  0  0  0  0  0  0  0  0  0
   52.0060   18.9720   48.5330 C   0  0  0  0  0  0  0  0  0  0  0  0
   53.0660   19.6360   49.1560 C   0  0  0  0  0  0  0  0  0  0  0  0
   53.5200   20.8600   48.6530 C   0  0  0  0  0  0  0  0  0  0  0  0
   52.9110   21.4270   47.5170 C   0  0  0  0  0  0  0  0  0  0  0  0
   53.3290   22.6540   46.9740 C   0  0  0  0  0  0  0  0  0  0  0  0
   54.2990   23.2660   47.5040 O   0  0  0  0  0  0  0  0  0  0  0  0
   55.4180   25.6270   45.6290 C   0  0  0  0  0  0  0  0  0  0  0  0
   54.7860   26.7140   46.2230 O   0  0  0  0  0  0  0  0  0  0  0  0
   59.0000   30.2280   45.7910 C   0  0  0  0  0  0  0  0  0  0  0  0
   58.6830   31.5890   45.8010 C   0  0  0  0  0  0  0  0  0  0  0  0
   56.2252   31.5965   43.4196 H   0  0  0  0  0  0  0  0  0  0  0  0
   56.7909   29.1650   43.4033 H   0  0  0  0  0  0  0  0  0  0  0  0
   57.3930   27.1660   46.8770 H   0  0  0  0  0  0  0  0  0  0  0  0
   58.5373   24.5272   44.7372 H   0  0  0  0  0  0  0  0  0  0  0  0
   57.1883   22.6000   43.9242 H   0  0  0  0  0  0  0  0  0  0  0  0
   54.7158   22.5916   44.2046 H   0  0  0  0  0  0  0  0  0  0  0  0
   52.8565   25.2838   46.0681 H   0  0  0  0  0  0  0  0  0  0  0  0
   52.6854   24.6671   44.3748 H   0  0  0  0  0  0  0  0  0  0  0  0
   50.5636   19.0032   46.9140 H   0  0  0  0  0  0  0  0  0  0  0  0
   51.6502   18.0104   48.9315 H   0  0  0  0  0  0  0  0  0  0  0  0
   53.5442   19.1956   50.0433 H   0  0  0  0  0  0  0  0  0  0  0  0
   54.3543   21.3805   49.1459 H   0  0  0  0  0  0  0  0  0  0  0  0
   59.7858   29.8434   46.4578 H   0  0  0  0  0  0  0  0  0  0  0  0
   59.2183   32.2730   46.4760 H   0  0  0  0  0  0  0  0  0  0  0  0
  1  2  3  0
  2  3  1  0
  3  4  2  0
  4  5  1  0
  5  6  2  0
  6  7  1  0
  7  8  2  0
  7  9  2  0
  7 10  1  0
 10 11  1  0
 11 12  2  0
 12 13  1  0
 13 14  2  0
 14 15  1  0
 15 16  1  0
 16 17  1  0
 17 18  1  0
 18 19  2  0
 18 20  1  0
 20 21  1  0
 21 22  2  0
 22 23  1  0
 23 24  2  0
 24 25  1  0
 25 26  2  0
 26 27  1  0
 27 28  2  0
 15 29  2  0
 29 30  1  0
  6 31  1  0
 31 32  2  0
 32  3  1  0
 29 11  1  0
 27 17  1  0
 26 21  1  0
  4 33  1  0
  5 34  1  0
 10 35  1  0
 12 36  1  0
 13 37  1  0
 14 38  1  0
 16 39  1  0
 16 40  1  0
 22 41  1  0
 23 42  1  0
 24 43  1  0
 25 44  1  0
 31 45  1  0
 32 46  1  0
M  CHG  2  20  -1  30  -1
M  END
>  <UniqueID>  (30) 
29

>  <SMILES>  (30) 
N#Cc1ccc(S(=O)(=O)Nc2cccc(Cn3c(=S)[n-]c4ccccc4c3=O)c2[O-])cc1

>  <Energy>  (30) 
66.10732771796239

>  <Genealogy>  (30) 
N#Cc1ccc(S(=O)(=O)Nc2cccc(Cn3c(=S)[n-]c4ccccc4c3=O)c2[O-])cc1 (protonated)
N#Cc1ccc(S(=O)(=O)Nc2cccc(Cn3c(=S)[n-]c4ccccc4c3=O)c2[O-])cc1 (3D coordinates assigned)
N#Cc1ccc(S(=O)(=O)Nc2cccc(Cn3c(=S)[n-]c4ccccc4c3=O)c2[O-])cc1 (optimized conformer: 66.10732771796239 kcal/mol)

>  <smiles>  (30) 
N#Cc1ccc(S(=O)(=O)Nc2cccc(Cn3c(=S)[nH]c4ccccc4c3=O)c2O)cc1

>  <score_type>  (30) 
oracle

>  <origin>  (30) 
adg

>  <m_score__min__energy>  (30) 
-13.75

>  <m_primary>  (30) 
energy

$$$$
30:0
     RDKit          3D

 50 53  0  0  0  0  0  0  0  0999 V2000
   52.5789   28.3433   52.8980 H   0  0  0  0  0  0  0  0  0  0  0  0
   53.6530   28.1630   53.0520 C   0  0  0  0  0  0  0  0  0  0  0  0
   54.0094   27.1563   53.3156 H   0  0  0  0  0  0  0  0  0  0  0  0
   54.5310   29.1740   52.9180 C   0  0  0  0  0  0  0  0  0  0  0  0
   55.8910   28.8790   53.1280 C   0  0  0  0  0  0  0  0  0  0  0  0
   56.1708   27.9194   53.5872 H   0  0  0  0  0  0  0  0  0  0  0  0
   56.8890   29.7800   52.7650 C   0  0  0  0  0  0  0  0  0  0  0  0
   57.9438   29.5328   52.9554 H   0  0  0  0  0  0  0  0  0  0  0  0
   56.5590   30.9970   52.1600 C   0  0  0  0  0  0  0  0  0  0  0  0
   57.6180   31.9430   51.7330 C   0  0  0  0  0  0  0  0  0  0  0  0
   57.9220   32.9150   52.4790 O   0  0  0  0  0  0  0  0  0  0  0  0
   58.2950   31.7750   50.4770 N   0  0  0  0  0  0  0  0  0  0  0  0
   57.8680   31.1500   49.7570 H   0  0  0  0  0  0  0  0  0  0  0  0
   59.5670   32.4500   50.1770 C   0  0  0  0  0  0  0  0  0  0  0  0
   60.0396   32.7409   51.1267 H   0  0  0  0  0  0  0  0  0  0  0  0
   59.3250   33.7330   49.3470 C   0  0  0  0  0  0  0  0  0  0  0  0
   58.3160   34.1070   49.5749 H   0  0  0  0  0  0  0  0  0  0  0  0
   60.1146   34.4461   49.6264 H   0  0  0  0  0  0  0  0  0  0  0  0
   59.4320   33.5240   47.8210 C   0  0  0  0  0  0  0  0  0  0  0  0
   58.7058   34.1814   47.3205 H   0  0  0  0  0  0  0  0  0  0  0  0
   60.4612   33.7640   47.5159 H   0  0  0  0  0  0  0  0  0  0  0  0
   59.1560   32.1300   47.4360 N   0  0  0  0  0  0  0  0  0  0  0  0
   58.3440   31.8410   46.2800 C   0  0  0  0  0  0  0  0  0  0  0  0
   57.8600   30.6120   45.9940 N   0  0  0  0  0  0  0  0  0  0  0  0
   57.1280   30.6070   44.8470 C   0  0  0  0  0  0  0  0  0  0  0  0
   56.4670   29.3660   44.3310 C   0  0  0  0  0  0  0  0  0  0  0  0
   57.1250   28.2540   44.8260 F   0  0  0  0  0  0  0  0  0  0  0  0
   56.5080   29.3380   42.9490 F   0  0  0  0  0  0  0  0  0  0  0  0
   55.1470   29.3340   44.7410 F   0  0  0  0  0  0  0  0  0  0  0  0
   57.0120   31.8430   44.2130 C   0  0  0  0  0  0  0  0  0  0  0  0
   56.4585   32.0452   43.2841 H   0  0  0  0  0  0  0  0  0  0  0  0
   57.8680   32.9690   45.1200 S   0  0  0  0  0  0  0  0  0  0  0  0
   59.8610   31.0310   48.1160 C   0  0  0  0  0  0  0  0  0  0  0  0
   59.1409   30.2297   48.3384 H   0  0  0  0  0  0  0  0  0  0  0  0
   60.6586   30.6718   47.4490 H   0  0  0  0  0  0  0  0  0  0  0  0
   60.5090   31.4950   49.4280 C   0  0  0  0  0  0  0  0  0  0  0  0
   60.7163   30.6191   50.0604 H   0  0  0  0  0  0  0  0  0  0  0  0
   61.4463   32.0228   49.1981 H   0  0  0  0  0  0  0  0  0  0  0  0
   55.2050   31.3370   52.0100 C   0  0  0  0  0  0  0  0  0  0  0  0
   54.9421   32.2946   51.5369 H   0  0  0  0  0  0  0  0  0  0  0  0
   54.1720   30.4810   52.4510 C   0  0  0  0  0  0  0  0  0  0  0  0
   52.9080   30.9780   52.4130 C   0  0  0  0  0  0  0  0  0  0  0  0
   52.4695   31.2946   53.3708 H   0  0  0  0  0  0  0  0  0  0  0  0
   52.0670   31.1340   51.2110 C   0  0  0  0  0  0  0  0  0  0  0  0
   52.0870   30.2760   50.1760 N   0  0  0  0  0  0  0  0  0  0  0  0
   51.2560   30.8490   49.2790 C   0  0  0  0  0  0  0  0  0  0  0  0
   50.9990   30.3260   48.1640 O   0  0  0  0  0  0  0  0  0  0  0  0
   50.7270   32.0290   49.6680 N   0  0  0  0  0  0  0  0  0  0  0  0
   51.2600   32.2030   50.8880 C   0  0  0  0  0  0  0  0  0  0  0  0
   51.0360   33.3270   51.6740 O   0  0  0  0  0  0  0  0  0  0  0  0
  1  2  1  0
  2  3  1  0
  2  4  2  0
  4  5  1  0
  5  6  1  0
  5  7  2  0
  7  8  1  0
  7  9  1  0
  9 10  1  0
 10 11  2  0
 10 12  1  0
 12 13  1  0
 12 14  1  0
 14 15  1  0
 14 16  1  0
 16 17  1  0
 16 18  1  0
 16 19  1  0
 19 20  1  0
 19 21  1  0
 19 22  1  0
 22 23  1  0
 23 24  2  0
 24 25  1  0
 25 26  1  0
 26 27  1  0
 26 28  1  0
 26 29  1  0
 25 30  2  0
 30 31  1  0
 30 32  1  0
 22 33  1  0
 33 34  1  0
 33 35  1  0
 33 36  1  0
 36 37  1  0
 36 38  1  0
  9 39  2  0
 39 40  1  0
 39 41  1  0
 41 42  2  0
 42 43  1  0
 42 44  1  0
 44 45  1  0
 45 46  1  0
 46 47  2  0
 46 48  1  0
 48 49  1  0
 49 50  1  0
 41  4  1  0
 49 44  2  0
 36 14  1  0
 32 23  1  0
M  CHG  3  45  -1  48  -1  50  -1
M  END
>  <UniqueID>  (31) 
30

>  <SMILES>  (31) 
C=c1ccc(C(=O)NC2CCN(c3nc(C(F)(F)F)cs3)CC2)c/c1=C/c1[n-]c(=O)[n-]c1[O-]

>  <Energy>  (31) 
135.9418002083071

>  <Genealogy>  (31) 
C=c1ccc(C(=O)NC2CCN(c3nc(C(F)(F)F)cs3)CC2)cc1=Cc1[n-]c(=O)[n-]c1[O-] (protonated)
C=c1ccc(C(=O)NC2CCN(c3nc(C(F)(F)F)cs3)CC2)c/c1=C/c1[n-]c(=O)[n-]c1[O-] (cis-trans isomerization)
C=c1ccc(C(=O)NC2CCN(c3nc(C(F)(F)F)cs3)CC2)c/c1=C/c1[n-]c(=O)[n-]c1[O-] (3D coordinates assigned)
C=c1ccc(C(=O)NC2CCN(c3nc(C(F)(F)F)cs3)CC2)c/c1=C/c1[n-]c(=O)[n-]c1[O-] (nonaromatic ring conformer: 135.9418002083071 kcal/mol)

>  <smiles>  (31) 
C=c1ccc(C(=O)NC2CCN(c3nc(C(F)(F)F)cs3)CC2)cc1=Cc1[nH]c(=O)[nH]c1O

>  <score_type>  (31) 
oracle

>  <origin>  (31) 
adg

>  <m_score__min__energy>  (31) 
-18.640000000000001

>  <m_primary>  (31) 
energy

$$$$
31:0
     RDKit          3D

 39 41  0  0  0  0  0  0  0  0999 V2000
   60.0130   33.8420   49.6670 C   0  0  0  0  0  0  0  0  0  0  0  0
   61.2070   33.7210   48.7560 C   0  0  0  0  0  0  0  0  0  0  0  0
   62.4770   33.5220   49.3270 C   0  0  0  0  0  0  0  0  0  0  0  0
   63.6120   33.4230   48.5210 C   0  0  0  0  0  0  0  0  0  0  0  0
   64.8590   33.2180   49.0990 O   0  0  0  0  0  0  0  0  0  0  0  0
   63.4970   33.5300   47.1360 C   0  0  0  0  0  0  0  0  0  0  0  0
   62.2480   33.7420   46.5530 C   0  0  0  0  0  0  0  0  0  0  0  0
   61.0940   33.8480   47.3480 C   0  0  0  0  0  0  0  0  0  0  0  0
   59.5370   34.1440   46.5550 S   0  0  0  0  0  0  0  0  0  0  0  0
   59.7710   34.3760   45.0900 O   0  0  0  0  0  0  0  0  0  0  0  0
   58.8660   35.3610   47.1310 O   0  0  0  0  0  0  0  0  0  0  0  0
   58.4840   32.7810   46.7560 N   0  0  0  0  0  0  0  0  0  0  0  0
   58.2240   31.7850   45.7570 C   0  0  0  0  0  0  0  0  0  0  0  0
   57.5860   32.1740   44.5740 C   0  0  0  0  0  0  0  0  0  0  0  0
   57.3060   31.2350   43.5770 C   0  0  0  0  0  0  0  0  0  0  0  0
   57.6680   29.8970   43.7550 C   0  0  0  0  0  0  0  0  0  0  0  0
   58.3210   29.4910   44.9280 C   0  0  0  0  0  0  0  0  0  0  0  0
   58.6970   28.0500   45.1330 C   0  0  0  0  0  0  0  0  0  0  0  0
   57.4980   27.2530   45.5400 C   0  0  0  0  0  0  0  0  0  0  0  0
   57.5490   25.9800   45.9680 N   0  0  0  0  0  0  0  0  0  0  0  0
   56.2620   25.7030   46.2700 C   0  0  0  0  0  0  0  0  0  0  0  0
   55.8960   24.5810   46.7020 O   0  0  0  0  0  0  0  0  0  0  0  0
   55.4020   26.7240   46.0740 N   0  0  0  0  0  0  0  0  0  0  0  0
   56.2020   27.7000   45.6160 C   0  0  0  0  0  0  0  0  0  0  0  0
   55.7610   28.9760   45.2790 O   0  0  0  0  0  0  0  0  0  0  0  0
   58.5850   30.4360   45.9340 C   0  0  0  0  0  0  0  0  0  0  0  0
   60.3463   33.8082   50.7147 H   0  0  0  0  0  0  0  0  0  0  0  0
   59.5011   34.7966   49.4757 H   0  0  0  0  0  0  0  0  0  0  0  0
   59.3200   33.0095   49.4757 H   0  0  0  0  0  0  0  0  0  0  0  0
   62.5766   33.4436   50.4197 H   0  0  0  0  0  0  0  0  0  0  0  0
   64.3923   33.4471   46.5023 H   0  0  0  0  0  0  0  0  0  0  0  0
   62.1652   33.8271   45.4594 H   0  0  0  0  0  0  0  0  0  0  0  0
   57.3026   33.2267   44.4274 H   0  0  0  0  0  0  0  0  0  0  0  0
   56.8005   31.5494   42.6520 H   0  0  0  0  0  0  0  0  0  0  0  0
   57.4398   29.1591   42.9718 H   0  0  0  0  0  0  0  0  0  0  0  0
   59.1013   27.6435   44.1942 H   0  0  0  0  0  0  0  0  0  0  0  0
   59.4546   27.9877   45.9281 H   0  0  0  0  0  0  0  0  0  0  0  0
   55.7080   29.7050   45.9790 H   0  0  0  0  0  0  0  0  0  0  0  0
   59.0768   30.1196   46.8656 H   0  0  0  0  0  0  0  0  0  0  0  0
  1  2  1  0
  2  3  2  0
  3  4  1  0
  4  5  1  0
  4  6  2  0
  6  7  1  0
  7  8  2  0
  8  9  1  0
  9 10  2  0
  9 11  2  0
  9 12  1  0
 12 13  1  0
 13 14  2  0
 14 15  1  0
 15 16  2  0
 16 17  1  0
 17 18  1  0
 18 19  1  0
 19 20  1  0
 20 21  1  0
 21 22  2  0
 21 23  1  0
 23 24  1  0
 24 25  1  0
 17 26  2  0
  8  2  1  0
 26 13  1  0
 24 19  2  0
  1 27  1  0
  1 28  1  0
  1 29  1  0
  3 30  1  0
  6 31  1  0
  7 32  1  0
 14 33  1  0
 15 34  1  0
 16 35  1  0
 18 36  1  0
 18 37  1  0
 25 38  1  0
 26 39  1  0
M  CHG  4   5  -1  12  -1  20  -1  23  -1
M  END
>  <UniqueID>  (32) 
31

>  <SMILES>  (32) 
Cc1cc([O-])ccc1S(=O)(=O)[N-]c1cccc(Cc2[n-]c(=O)[n-]c2O)c1

>  <Energy>  (32) 
71.8950995930755

>  <Genealogy>  (32) 
Cc1cc([O-])ccc1S(=O)(=O)[N-]c1cccc(Cc2[n-]c(=O)[n-]c2O)c1 (protonated)
Cc1cc([O-])ccc1S(=O)(=O)[N-]c1cccc(Cc2[n-]c(=O)[n-]c2O)c1 (3D coordinates assigned)
Cc1cc([O-])ccc1S(=O)(=O)[N-]c1cccc(Cc2[n-]c(=O)[n-]c2O)c1 (optimized conformer: 71.8950995930755 kcal/mol)

>  <smiles>  (32) 
Cc1cc(O)ccc1S(=O)(=O)Nc1cccc(Cc2[nH]c(=O)[nH]c2O)c1

>  <score_type>  (32) 
oracle

>  <origin>  (32) 
adg

>  <m_score__min__energy>  (32) 
-15.06

>  <m_primary>  (32) 
energy

$$$$
32:0
     RDKit          3D

 58 60  0  0  0  0  0  0  0  0999 V2000
   63.9770   33.1030   46.7930 C   0  0  0  0  0  0  0  0  0  0  0  0
   62.6320   33.4230   47.4560 C   0  0  0  0  0  0  0  0  0  0  0  0
   61.6070   33.8950   46.4200 C   0  0  0  0  0  0  0  0  0  0  0  0
   62.1120   32.2280   48.2170 C   0  0  0  0  0  0  0  0  0  0  0  0
   62.6310   31.7970   49.4390 C   0  0  0  0  0  0  0  0  0  0  0  0
   61.7790   30.4330   49.9280 S   0  0  0  0  0  0  0  0  0  0  0  0
   60.7450   30.3790   48.6050 C   0  0  0  0  0  0  0  0  0  0  0  0
   59.6920   29.3390   48.3690 C   0  0  0  0  0  0  0  0  0  0  0  0
   60.2440   28.1590   47.6640 N   0  0  0  0  0  0  0  0  0  0  0  0
   59.4040   26.9480   47.7950 C   0  0  0  0  0  0  0  0  0  0  0  0
   58.0570   27.1120   47.0760 C   0  0  0  0  0  0  0  0  0  0  0  0
   58.2200   27.7980   45.7860 N   0  0  0  0  0  0  0  0  0  0  0  0
   57.0280   28.1630   45.0480 C   0  0  0  0  0  0  0  0  0  0  0  0
   55.8930   27.8670   45.5170 O   0  0  0  0  0  0  0  0  0  0  0  0
   57.0730   28.8700   43.7180 C   0  0  0  0  0  0  0  0  0  0  0  0
   57.0880   30.4000   43.8910 C   0  0  1  0  0  0  0  0  0  0  0  0
   56.0620   30.7970   44.8610 N   0  0  0  0  0  0  0  0  0  0  0  0
   58.4930   30.8740   44.3270 C   0  0  0  0  0  0  0  0  0  0  0  0
   58.4320   32.1610   45.1120 C   0  0  0  0  0  0  0  0  0  0  0  0
   58.7010   33.3870   44.4790 C   0  0  0  0  0  0  0  0  0  0  0  0
   58.6700   34.5800   45.2090 C   0  0  0  0  0  0  0  0  0  0  0  0
   58.9290   35.7590   44.5920 F   0  0  0  0  0  0  0  0  0  0  0  0
   58.3750   34.5570   46.5750 C   0  0  0  0  0  0  0  0  0  0  0  0
   58.1140   33.3420   47.2140 C   0  0  0  0  0  0  0  0  0  0  0  0
   58.1440   32.1460   46.4900 C   0  0  0  0  0  0  0  0  0  0  0  0
   57.8930   30.9760   47.1310 F   0  0  0  0  0  0  0  0  0  0  0  0
   59.5740   27.8960   45.2200 C   0  0  0  0  0  0  0  0  0  0  0  0
   60.5730   28.4680   46.2480 C   0  0  0  0  0  0  0  0  0  0  0  0
   61.0540   31.4290   47.7510 C   0  0  0  0  0  0  0  0  0  0  0  0
   64.7349   32.9227   47.5696 H   0  0  0  0  0  0  0  0  0  0  0  0
   63.8726   32.2046   46.1669 H   0  0  0  0  0  0  0  0  0  0  0  0
   64.2884   33.9521   46.1669 H   0  0  0  0  0  0  0  0  0  0  0  0
   62.7936   34.2427   48.1715 H   0  0  0  0  0  0  0  0  0  0  0  0
   60.7246   34.3013   46.9360 H   0  0  0  0  0  0  0  0  0  0  0  0
   62.0559   34.6771   45.7900 H   0  0  0  0  0  0  0  0  0  0  0  0
   61.3045   33.0455   45.7900 H   0  0  0  0  0  0  0  0  0  0  0  0
   63.4578   32.2700   49.9891 H   0  0  0  0  0  0  0  0  0  0  0  0
   59.2833   29.0176   49.3383 H   0  0  0  0  0  0  0  0  0  0  0  0
   58.9052   29.7806   47.7398 H   0  0  0  0  0  0  0  0  0  0  0  0
   59.9401   26.0930   47.3574 H   0  0  0  0  0  0  0  0  0  0  0  0
   59.2047   26.7823   48.8640 H   0  0  0  0  0  0  0  0  0  0  0  0
   57.6212   26.1174   46.9004 H   0  0  0  0  0  0  0  0  0  0  0  0
   57.3961   27.7199   47.7114 H   0  0  0  0  0  0  0  0  0  0  0  0
   57.9821   28.5624   43.1805 H   0  0  0  0  0  0  0  0  0  0  0  0
   56.1708   28.5961   43.1515 H   0  0  0  0  0  0  0  0  0  0  0  0
   56.8569   30.8816   42.9294 H   0  0  0  0  0  0  0  0  0  0  0  0
   55.1250   30.8180   44.3950 H   0  0  0  0  0  0  0  0  0  0  0  0
   56.0210   30.0880   45.6280 H   0  0  0  0  0  0  0  0  0  0  0  0
   58.9525   30.0959   44.9542 H   0  0  0  0  0  0  0  0  0  0  0  0
   59.0893   31.0546   43.4205 H   0  0  0  0  0  0  0  0  0  0  0  0
   58.9369   33.4084   43.4048 H   0  0  0  0  0  0  0  0  0  0  0  0
   58.3483   35.4959   47.1474 H   0  0  0  0  0  0  0  0  0  0  0  0
   57.8843   33.3263   48.2896 H   0  0  0  0  0  0  0  0  0  0  0  0
   59.9083   26.8932   44.9156 H   0  0  0  0  0  0  0  0  0  0  0  0
   59.5398   28.5749   44.3551 H   0  0  0  0  0  0  0  0  0  0  0  0
   61.5678   28.0534   46.0279 H   0  0  0  0  0  0  0  0  0  0  0  0
   60.5321   29.5627   46.1487 H   0  0  0  0  0  0  0  0  0  0  0  0
   60.5243   31.6166   46.8053 H   0  0  0  0  0  0  0  0  0  0  0  0
  1  2  1  0
  2  3  1  0
  2  4  1  0
  4  5  2  0
  5  6  1  0
  6  7  1  0
  7  8  1  0
  8  9  1  0
  9 10  1  0
 10 11  1  0
 11 12  1  0
 12 13  1  0
 13 14  2  0
 13 15  1  0
 15 16  1  0
 16 17  1  0
 16 18  1  0
 18 19  1  0
 19 20  2  0
 20 21  1  0
 21 22  1  0
 21 23  2  0
 23 24  1  0
 24 25  2  0
 25 26  1  0
 12 27  1  0
 27 28  1  0
  7 29  2  0
 29  4  1  0
 28  9  1  0
 25 19  1  0
  1 30  1  0
  1 31  1  0
  1 32  1  0
  2 33  1  0
  3 34  1  0
  3 35  1  0
  3 36  1  0
  5 37  1  0
  8 38  1  0
  8 39  1  0
 10 40  1  0
 10 41  1  0
 11 42  1  0
 11 43  1  0
 15 44  1  0
 15 45  1  0
 16 46  1  6
 17 47  1  0
 17 48  1  0
 18 49  1  0
 18 50  1  0
 20 51  1  0
 23 52  1  0
 24 53  1  0
 27 54  1  0
 27 55  1  0
 28 56  1  0
 28 57  1  0
 29 58  1  0
M  END
>  <UniqueID>  (33) 
32

>  <SMILES>  (33) 
CC(C)c1csc(CN2CCN(C(=O)C[C@@H](N)Cc3cc(F)ccc3F)CC2)c1

>  <Energy>  (33) 
84.89860567372662

>  <Genealogy>  (33) 
CC(C)c1csc(CN2CCN(C(=O)C[C@@H](N)Cc3cc(F)ccc3F)CC2)c1 (chirality)
CC(C)c1csc(CN2CCN(C(=O)C[C@@H](N)Cc3cc(F)ccc3F)CC2)c1 (3D coordinates assigned)
CC(C)c1csc(CN2CCN(C(=O)C[C@@H](N)Cc3cc(F)ccc3F)CC2)c1 (nonaromatic ring conformer: 84.89860567372662 kcal/mol)

>  <smiles>  (33) 
CC(C)c1csc(CN2CCN(C(=O)CC(N)Cc3cc(F)ccc3F)CC2)c1

>  <score_type>  (33) 
oracle

>  <origin>  (33) 
adg

>  <m_score__min__energy>  (33) 
-9.6500000000000004

>  <m_primary>  (33) 
energy

$$$$
33:0
     RDKit          3D

 40 41  0  0  0  0  0  0  0  0999 V2000
   55.6390   23.4030   47.4520 C   0  0  0  0  0  0  0  0  0  0  0  0
   55.2080   24.4460   46.5330 N   0  0  0  0  0  0  0  0  0  0  0  0
   55.8660   25.6890   46.2470 C   0  0  0  0  0  0  0  0  0  0  0  0
   55.1520   26.6950   46.0020 O   0  0  0  0  0  0  0  0  0  0  0  0
   57.2930   25.8510   46.2260 N   0  0  0  0  0  0  0  0  0  0  0  0
   58.0810   26.9020   46.8550 C   0  0  0  0  0  0  0  0  0  0  0  0
   58.8210   27.7070   45.7890 C   0  0  0  0  0  0  0  0  0  0  0  0
   59.0460   29.4510   46.2930 S   0  0  0  0  0  0  0  0  0  0  0  0
   57.5830   30.0500   45.4420 C   0  0  0  0  0  0  0  0  0  0  0  0
   56.4660   29.3260   45.2540 N   0  0  0  0  0  0  0  0  0  0  0  0
   55.6300   30.1440   44.6280 N   0  0  0  0  0  0  0  0  0  0  0  0
   56.2010   31.3250   44.4400 N   0  0  0  0  0  0  0  0  0  0  0  0
   57.4260   31.2840   44.9330 N   0  0  0  0  0  0  0  0  0  0  0  0
   58.3440   32.4170   44.9860 C   0  0  0  0  0  0  0  0  0  0  0  0
   57.6500   33.6070   45.5640 C   0  0  0  0  0  0  0  0  0  0  0  0
   56.6530   34.0970   44.9680 O   0  0  0  0  0  0  0  0  0  0  0  0
   58.1900   34.2380   46.7310 N   0  0  0  0  0  0  0  0  0  0  0  0
   59.4160   33.8980   47.3970 C   0  0  0  0  0  0  0  0  0  0  0  0
   59.3630   33.5040   48.7380 C   0  0  0  0  0  0  0  0  0  0  0  0
   60.5330   33.1800   49.4290 C   0  0  0  0  0  0  0  0  0  0  0  0
   61.7820   33.2600   48.7910 C   0  0  0  0  0  0  0  0  0  0  0  0
   63.0340   32.9130   49.5480 C   0  0  0  0  0  0  0  0  0  0  0  0
   61.8420   33.6850   47.4490 C   0  0  0  0  0  0  0  0  0  0  0  0
   63.3790   33.8380   46.6030 Cl  0  0  0  0  0  0  0  0  0  0  0  0
   60.6650   34.0070   46.7610 C   0  0  0  0  0  0  0  0  0  0  0  0
   55.4975   23.7455   48.4877 H   0  0  0  0  0  0  0  0  0  0  0  0
   55.0426   22.4946   47.2814 H   0  0  0  0  0  0  0  0  0  0  0  0
   56.7027   23.1806   47.2814 H   0  0  0  0  0  0  0  0  0  0  0  0
   57.4134   27.5704   47.4185 H   0  0  0  0  0  0  0  0  0  0  0  0
   58.8135   26.4457   47.5371 H   0  0  0  0  0  0  0  0  0  0  0  0
   59.8093   27.2538   45.6222 H   0  0  0  0  0  0  0  0  0  0  0  0
   58.2195   27.6910   44.8682 H   0  0  0  0  0  0  0  0  0  0  0  0
   59.2080   32.1573   45.6153 H   0  0  0  0  0  0  0  0  0  0  0  0
   58.6842   32.6554   43.9675 H   0  0  0  0  0  0  0  0  0  0  0  0
   58.3923   33.4488   49.2526 H   0  0  0  0  0  0  0  0  0  0  0  0
   60.4759   32.8600   50.4799 H   0  0  0  0  0  0  0  0  0  0  0  0
   62.8362   32.9678   50.6287 H   0  0  0  0  0  0  0  0  0  0  0  0
   63.3510   31.8931   49.2846 H   0  0  0  0  0  0  0  0  0  0  0  0
   63.8308   33.6242   49.2846 H   0  0  0  0  0  0  0  0  0  0  0  0
   60.7184   34.3473   45.7163 H   0  0  0  0  0  0  0  0  0  0  0  0
  1  2  1  0
  2  3  1  0
  3  4  2  0
  3  5  1  0
  5  6  1  0
  6  7  1  0
  7  8  1  0
  8  9  1  0
  9 10  2  0
 10 11  1  0
 11 12  2  0
 12 13  1  0
 13 14  1  0
 14 15  1  0
 15 16  2  0
 15 17  1  0
 17 18  1  0
 18 19  2  0
 19 20  1  0
 20 21  2  0
 21 22  1  0
 21 23  1  0
 23 24  1  0
 23 25  2  0
 13  9  1  0
 25 18  1  0
  1 26  1  0
  1 27  1  0
  1 28  1  0
  6 29  1  0
  6 30  1  0
  7 31  1  0
  7 32  1  0
 14 33  1  0
 14 34  1  0
 19 35  1  0
 20 36  1  0
 22 37  1  0
 22 38  1  0
 22 39  1  0
 25 40  1  0
M  CHG  3   2  -1   5  -1  17  -1
M  END
>  <UniqueID>  (34) 
33

>  <SMILES>  (34) 
C[N-]C(=O)[N-]CCSc1nnnn1CC(=O)[N-]c1ccc(C)c(Cl)c1

>  <Energy>  (34) 
76.6232702724033

>  <Genealogy>  (34) 
C[N-]C(=O)[N-]CCSc1nnnn1CC(=O)[N-]c1ccc(C)c(Cl)c1 (protonated)
C[N-]C(=O)[N-]CCSc1nnnn1CC(=O)[N-]c1ccc(C)c(Cl)c1 (3D coordinates assigned)
C[N-]C(=O)[N-]CCSc1nnnn1CC(=O)[N-]c1ccc(C)c(Cl)c1 (optimized conformer: 76.6232702724033 kcal/mol)

>  <smiles>  (34) 
CNC(=O)NCCSc1nnnn1CC(=O)Nc1ccc(C)c(Cl)c1

>  <score_type>  (34) 
oracle

>  <origin>  (34) 
adg

>  <m_score__min__energy>  (34) 
-13.81

>  <m_primary>  (34) 
energy

$$$$
34:0
     RDKit          3D

 42 45  0  0  0  0  0  0  0  0999 V2000
   58.6970   31.1500   43.3110 O   0  0  0  0  0  0  0  0  0  0  0  0
   57.4330   30.9360   44.0960 S   0  0  0  0  0  0  0  0  0  0  0  0
   56.2610   30.9670   43.1560 O   0  0  0  0  0  0  0  0  0  0  0  0
   57.2680   32.2110   45.2600 N   0  0  0  0  0  0  0  0  0  0  0  0
   58.3470   33.0030   45.7740 C   0  0  0  0  0  0  0  0  0  0  0  0
   58.3800   34.3680   45.4700 C   0  0  0  0  0  0  0  0  0  0  0  0
   59.4030   35.1770   45.9640 C   0  0  0  0  0  0  0  0  0  0  0  0
   60.4030   34.6300   46.7720 C   0  0  0  0  0  0  0  0  0  0  0  0
   60.3940   33.2610   47.0930 C   0  0  0  0  0  0  0  0  0  0  0  0
   61.4530   32.6860   47.9600 C   0  0  0  0  0  0  0  0  0  0  0  0
   61.4220   31.4560   48.6220 C   0  0  0  0  0  0  0  0  0  0  0  0
   62.5280   31.1710   49.3620 N   0  0  0  0  0  0  0  0  0  0  0  0
   63.4550   32.1540   49.3100 C   0  0  0  0  0  0  0  0  0  0  0  0
   64.7510   32.0960   50.0250 C   0  0  0  0  0  0  0  0  0  0  0  0
   65.0300   31.0590   50.9350 C   0  0  0  0  0  0  0  0  0  0  0  0
   66.2580   31.0140   51.6030 C   0  0  0  0  0  0  0  0  0  0  0  0
   67.2180   32.0020   51.3720 C   0  0  0  0  0  0  0  0  0  0  0  0
   66.9530   33.0360   50.4710 C   0  0  0  0  0  0  0  0  0  0  0  0
   65.7280   33.0840   49.7980 C   0  0  0  0  0  0  0  0  0  0  0  0
   62.9230   33.4210   48.3360 S   0  0  0  0  0  0  0  0  0  0  0  0
   59.3660   32.4510   46.5720 C   0  0  0  0  0  0  0  0  0  0  0  0
   57.4620   29.3770   44.9170 C   0  0  0  0  0  0  0  0  0  0  0  0
   58.6880   28.8230   45.3110 C   0  0  0  0  0  0  0  0  0  0  0  0
   58.7260   27.5710   45.9320 C   0  0  0  0  0  0  0  0  0  0  0  0
   57.5400   26.8670   46.1610 C   0  0  0  0  0  0  0  0  0  0  0  0
   56.3140   27.4150   45.7710 C   0  0  0  0  0  0  0  0  0  0  0  0
   55.1370   26.7140   45.9970 O   0  0  0  0  0  0  0  0  0  0  0  0
   56.2730   28.6680   45.1510 C   0  0  0  0  0  0  0  0  0  0  0  0
   57.5941   34.8061   44.8373 H   0  0  0  0  0  0  0  0  0  0  0  0
   59.4226   36.2487   45.7168 H   0  0  0  0  0  0  0  0  0  0  0  0
   61.2043   35.2759   47.1604 H   0  0  0  0  0  0  0  0  0  0  0  0
   60.5664   30.7684   48.5503 H   0  0  0  0  0  0  0  0  0  0  0  0
   64.2773   30.2789   51.1220 H   0  0  0  0  0  0  0  0  0  0  0  0
   66.4681   30.1992   52.3115 H   0  0  0  0  0  0  0  0  0  0  0  0
   68.1826   31.9658   51.8995 H   0  0  0  0  0  0  0  0  0  0  0  0
   67.7093   33.8140   50.2905 H   0  0  0  0  0  0  0  0  0  0  0  0
   65.5266   33.8987   49.0869 H   0  0  0  0  0  0  0  0  0  0  0  0
   59.3598   31.3732   46.7918 H   0  0  0  0  0  0  0  0  0  0  0  0
   59.6225   29.3748   45.1311 H   0  0  0  0  0  0  0  0  0  0  0  0
   59.6896   27.1395   46.2406 H   0  0  0  0  0  0  0  0  0  0  0  0
   57.5713   25.8813   46.6483 H   0  0  0  0  0  0  0  0  0  0  0  0
   55.3078   29.0986   44.8463 H   0  0  0  0  0  0  0  0  0  0  0  0
  1  2  2  0
  2  3  2  0
  2  4  1  0
  4  5  1  0
  5  6  2  0
  6  7  1  0
  7  8  2  0
  8  9  1  0
  9 10  1  0
 10 11  2  0
 11 12  1  0
 12 13  2  0
 13 14  1  0
 14 15  2  0
 15 16  1  0
 16 17  2  0
 17 18  1  0
 18 19  2  0
 13 20  1  0
  9 21  2  0
  2 22  1  0
 22 23  2  0
 23 24  1  0
 24 25  2  0
 25 26  1  0
 26 27  1  0
 26 28  2  0
 21  5  1  0
 28 22  1  0
 20 10  1  0
 19 14  1  0
  6 29  1  0
  7 30  1  0
  8 31  1  0
 11 32  1  0
 15 33  1  0
 16 34  1  0
 17 35  1  0
 18 36  1  0
 19 37  1  0
 21 38  1  0
 23 39  1  0
 24 40  1  0
 25 41  1  0
 28 42  1  0
M  CHG  2   4  -1  27  -1
M  END
>  <UniqueID>  (35) 
34

>  <SMILES>  (35) 
O=S(=O)([N-]c1cccc(-c2cnc(-c3ccccc3)s2)c1)c1cccc([O-])c1

>  <Energy>  (35) 
82.66528544857815

>  <Genealogy>  (35) 
O=S(=O)([N-]c1cccc(-c2cnc(-c3ccccc3)s2)c1)c1cccc([O-])c1 (protonated)
O=S(=O)([N-]c1cccc(-c2cnc(-c3ccccc3)s2)c1)c1cccc([O-])c1 (3D coordinates assigned)
O=S(=O)([N-]c1cccc(-c2cnc(-c3ccccc3)s2)c1)c1cccc([O-])c1 (optimized conformer: 82.66528544857815 kcal/mol)

>  <smiles>  (35) 
O=S(=O)(Nc1cccc(-c2cnc(-c3ccccc3)s2)c1)c1cccc(O)c1

>  <score_type>  (35) 
oracle

>  <origin>  (35) 
adg

>  <m_score__min__energy>  (35) 
-13.800000000000001

>  <m_primary>  (35) 
energy

$$$$
35:0
     RDKit          3D

 27 28  0  0  0  0  0  0  0  0999 V2000
   54.6710   29.6300   43.4300 O   0  0  0  0  0  0  0  0  0  0  0  0
   55.8120   29.4480   43.9300 C   0  0  0  0  0  0  0  0  0  0  0  0
   57.0190   29.7920   43.0960 C   0  0  0  0  0  0  0  0  0  0  0  0
   57.4010   31.2380   43.2690 C   0  0  0  0  0  0  0  0  0  0  0  0
   57.5020   31.9720   42.2480 O   0  0  0  0  0  0  0  0  0  0  0  0
   57.6760   31.8180   44.6040 C   0  0  0  0  0  0  0  0  0  0  0  0
   57.2580   33.1330   44.8690 C   0  0  0  0  0  0  0  0  0  0  0  0
   57.5340   33.7300   46.0990 C   0  0  0  0  0  0  0  0  0  0  0  0
   58.2200   33.0190   47.0830 C   0  0  0  0  0  0  0  0  0  0  0  0
   58.6260   31.7020   46.8490 C   0  0  0  0  0  0  0  0  0  0  0  0
   59.4730   30.8490   48.1330 Cl  0  0  0  0  0  0  0  0  0  0  0  0
   58.3470   31.0860   45.6100 C   0  0  0  0  0  0  0  0  0  0  0  0
   58.7030   29.7570   45.3750 O   0  0  0  0  0  0  0  0  0  0  0  0
   55.8930   28.8690   45.2450 N   0  0  0  0  0  0  0  0  0  0  0  0
   56.2990   27.6820   45.5920 C   0  0  0  0  0  0  0  0  0  0  0  0
   57.5910   27.2950   45.6120 N   0  0  0  0  0  0  0  0  0  0  0  0
   57.5390   26.0190   46.0290 C   0  0  0  0  0  0  0  0  0  0  0  0
   56.2290   25.6710   46.2560 C   0  0  0  0  0  0  0  0  0  0  0  0
   55.4360   26.7220   45.9840 N   0  0  0  0  0  0  0  0  0  0  0  0
   57.8627   29.1577   43.4057 H   0  0  0  0  0  0  0  0  0  0  0  0
   56.7742   29.6187   42.0377 H   0  0  0  0  0  0  0  0  0  0  0  0
   56.7087   33.6962   44.1002 H   0  0  0  0  0  0  0  0  0  0  0  0
   57.2100   34.7631   46.2931 H   0  0  0  0  0  0  0  0  0  0  0  0
   58.4428   33.4969   48.0484 H   0  0  0  0  0  0  0  0  0  0  0  0
   58.0550   28.9860   45.4720 H   0  0  0  0  0  0  0  0  0  0  0  0
   58.4072   25.3577   46.1669 H   0  0  0  0  0  0  0  0  0  0  0  0
   55.8835   24.6869   46.6054 H   0  0  0  0  0  0  0  0  0  0  0  0
  1  2  2  0
  2  3  1  0
  3  4  1  0
  4  5  2  0
  4  6  1  0
  6  7  2  0
  7  8  1  0
  8  9  2  0
  9 10  1  0
 10 11  1  0
 10 12  2  0
 12 13  1  0
  2 14  1  0
 14 15  2  3
 15 16  1  0
 16 17  1  0
 17 18  2  0
 18 19  1  0
 12  6  1  0
 19 15  1  0
  3 20  1  0
  3 21  1  0
  7 22  1  0
  8 23  1  0
  9 24  1  0
 13 25  1  0
 17 26  1  0
 18 27  1  0
M  CHG  2  16  -1  19  -1
M  END
>  <UniqueID>  (36) 
35

>  <SMILES>  (36) 
O=C(CC(=O)c1cccc(Cl)c1O)N=c1[n-]cc[n-]1

>  <Energy>  (36) 
62.77979308451507

>  <Genealogy>  (36) 
O=C(CC(=O)c1cccc(Cl)c1O)N=c1[n-]cc[n-]1 (protonated)
O=C(CC(=O)c1cccc(Cl)c1O)N=c1[n-]cc[n-]1 (3D coordinates assigned)
O=C(CC(=O)c1cccc(Cl)c1O)N=c1[n-]cc[n-]1 (optimized conformer: 62.77979308451507 kcal/mol)

>  <smiles>  (36) 
O=C(CC(=O)c1cccc(Cl)c1O)N=c1[nH]cc[nH]1

>  <score_type>  (36) 
oracle

>  <origin>  (36) 
adg

>  <m_score__min__energy>  (36) 
-10.4

>  <m_primary>  (36) 
energy

$$$$
36:0
     RDKit          3D

 44 47  0  0  0  0  0  0  0  0999 V2000
   60.7330   27.4530   50.0120 C   0  0  0  0  0  0  0  0  0  0  0  0
   60.3640   28.4760   48.9790 C   0  0  0  0  0  0  0  0  0  0  0  0
   60.8280   29.8070   49.0650 C   0  0  0  0  0  0  0  0  0  0  0  0
   60.4630   30.7690   48.0850 C   0  0  0  0  0  0  0  0  0  0  0  0
   60.9260   32.1250   48.1580 N   0  0  0  0  0  0  0  0  0  0  0  0
   60.1020   33.3000   48.1510 C   0  0  0  0  0  0  0  0  0  0  0  0
   60.1880   34.1010   49.1190 O   0  0  0  0  0  0  0  0  0  0  0  0
   59.2000   33.6220   47.0200 C   0  0  0  0  0  0  0  0  0  0  0  0
   59.6470   34.4040   45.9390 C   0  0  0  0  0  0  0  0  0  0  0  0
   58.7880   34.6990   44.8770 C   0  0  0  0  0  0  0  0  0  0  0  0
   57.4730   34.2290   44.8880 C   0  0  0  0  0  0  0  0  0  0  0  0
   57.0140   33.4660   45.9640 C   0  0  0  0  0  0  0  0  0  0  0  0
   57.8700   33.1660   47.0280 C   0  0  0  0  0  0  0  0  0  0  0  0
   59.6660   30.3850   46.9900 C   0  0  0  0  0  0  0  0  0  0  0  0
   59.2260   29.0620   46.9280 C   0  0  0  0  0  0  0  0  0  0  0  0
   59.5590   28.1480   47.8850 C   0  0  0  0  0  0  0  0  0  0  0  0
   59.0040   26.9610   47.5820 N   0  0  0  0  0  0  0  0  0  0  0  0
   58.3210   27.1850   46.4330 C   0  0  0  0  0  0  0  0  0  0  0  0
   57.5470   26.1210   45.7620 C   0  0  0  0  0  0  0  0  0  0  0  0
   57.7990   25.5510   44.5180 C   0  0  0  0  0  0  0  0  0  0  0  0
   56.8360   24.6110   44.1320 C   0  0  0  0  0  0  0  0  0  0  0  0
   55.8140   24.4450   45.0580 C   0  0  0  0  0  0  0  0  0  0  0  0
   56.1100   25.4750   46.3520 S   0  0  0  0  0  0  0  0  0  0  0  0
   58.4520   28.4710   45.9930 N   0  0  0  0  0  0  0  0  0  0  0  0
   57.9380   29.0860   44.7640 C   0  0  0  0  0  0  0  0  0  0  0  0
   56.5160   29.5340   44.9260 C   0  0  0  0  0  0  0  0  0  0  0  0
   56.1990   30.7470   44.8060 O   0  0  0  0  0  0  0  0  0  0  0  0
   55.5330   28.5960   45.2140 O   0  0  0  0  0  0  0  0  0  0  0  0
   60.5809   27.8748   51.0165 H   0  0  0  0  0  0  0  0  0  0  0  0
   60.0995   26.5622   49.8886 H   0  0  0  0  0  0  0  0  0  0  0  0
   61.7892   27.1717   49.8886 H   0  0  0  0  0  0  0  0  0  0  0  0
   61.4797   30.1025   49.9005 H   0  0  0  0  0  0  0  0  0  0  0  0
   60.6787   34.7854   45.9298 H   0  0  0  0  0  0  0  0  0  0  0  0
   59.1483   35.3025   44.0308 H   0  0  0  0  0  0  0  0  0  0  0  0
   56.7991   34.4596   44.0497 H   0  0  0  0  0  0  0  0  0  0  0  0
   55.9766   33.1002   45.9744 H   0  0  0  0  0  0  0  0  0  0  0  0
   57.5010   32.5701   47.8758 H   0  0  0  0  0  0  0  0  0  0  0  0
   59.3975   31.1075   46.2052 H   0  0  0  0  0  0  0  0  0  0  0  0
   59.0700   26.0700   48.1220 H   0  0  0  0  0  0  0  0  0  0  0  0
   58.6694   25.8132   43.8986 H   0  0  0  0  0  0  0  0  0  0  0  0
   56.8842   24.0556   43.1837 H   0  0  0  0  0  0  0  0  0  0  0  0
   54.9598   23.7588   44.9610 H   0  0  0  0  0  0  0  0  0  0  0  0
   58.5607   29.9573   44.5130 H   0  0  0  0  0  0  0  0  0  0  0  0
   57.9735   28.3346   43.9614 H   0  0  0  0  0  0  0  0  0  0  0  0
  1  2  1  0
  2  3  2  0
  3  4  1  0
  4  5  1  0
  5  6  1  0
  6  7  2  0
  6  8  1  0
  8  9  2  0
  9 10  1  0
 10 11  2  0
 11 12  1  0
 12 13  2  0
  4 14  2  0
 14 15  1  0
 15 16  2  0
 16 17  1  0
 17 18  2  0
 18 19  1  0
 19 20  2  0
 20 21  1  0
 21 22  2  0
 22 23  1  0
 18 24  1  0
 24 25  1  0
 25 26  1  0
 26 27  2  0
 26 28  1  0
 16  2  1  0
 23 19  1  0
 13  8  1  0
 24 15  1  0
  1 29  1  0
  1 30  1  0
  1 31  1  0
  3 32  1  0
  9 33  1  0
 10 34  1  0
 11 35  1  0
 12 36  1  0
 13 37  1  0
 14 38  1  0
 17 39  1  0
 20 40  1  0
 21 41  1  0
 22 42  1  0
 25 43  1  0
 25 44  1  0
M  CHG  3   5  -1  17   1  28  -1
M  END
>  <UniqueID>  (37) 
36

>  <SMILES>  (37) 
Cc1cc([N-]C(=O)c2ccccc2)cc2c1[nH+]c(-c1cccs1)n2CC(=O)[O-]

>  <Energy>  (37) 
121.81559097072984

>  <Genealogy>  (37) 
Cc1cc([N-]C(=O)c2ccccc2)cc2c1[nH+]c(-c1cccs1)n2CC(=O)[O-] (protonated)
Cc1cc([N-]C(=O)c2ccccc2)cc2c1[nH+]c(-c1cccs1)n2CC(=O)[O-] (3D coordinates assigned)
Cc1cc([N-]C(=O)c2ccccc2)cc2c1[nH+]c(-c1cccs1)n2CC(=O)[O-] (optimized conformer: 121.81559097072984 kcal/mol)

>  <smiles>  (37) 
Cc1cc(NC(=O)c2ccccc2)cc2c1nc(-c1cccs1)n2CC(=O)O

>  <score_type>  (37) 
oracle

>  <origin>  (37) 
adg

>  <m_score__min__energy>  (37) 
-11.49

>  <m_primary>  (37) 
energy

$$$$
37:0
     RDKit          3D

 51 53  0  0  0  0  0  0  0  0999 V2000
   58.8810   34.5380   45.9310 C   0  0  0  0  0  0  0  0  0  0  0  0
   58.4470   33.3570   46.7970 C   0  0  0  0  0  0  0  0  0  0  0  0
   58.8090   32.0840   46.1550 N   0  0  0  0  0  0  0  0  0  0  0  0
   59.9380   31.3140   46.6980 C   0  0  0  0  0  0  0  0  0  0  0  0
   59.5770   29.8610   46.7720 C   0  0  0  0  0  0  0  0  0  0  0  0
   59.0960   29.3970   47.8400 O   0  0  0  0  0  0  0  0  0  0  0  0
   59.7760   29.0130   45.6290 N   0  0  0  0  0  0  0  0  0  0  0  0
   59.1390   27.7350   45.4520 C   0  0  0  0  0  0  0  0  0  0  0  0
   58.3840   27.4400   44.3030 C   0  0  0  0  0  0  0  0  0  0  0  0
   57.8050   26.1780   44.1400 C   0  0  0  0  0  0  0  0  0  0  0  0
   57.9830   25.1820   45.1140 C   0  0  0  0  0  0  0  0  0  0  0  0
   57.3850   23.8820   44.9430 N   0  0  0  0  0  0  0  0  0  0  0  0
   58.1920   22.7400   44.4940 C   0  0  0  0  0  0  0  0  0  0  0  0
   57.3940   21.8630   43.5000 C   0  0  0  0  0  0  0  0  0  0  0  0
   56.0070   22.1660   43.4530 O   0  0  0  0  0  0  0  0  0  0  0  0
   55.4910   22.3270   44.7580 C   0  0  0  0  0  0  0  0  0  0  0  0
   55.9920   23.6510   45.3430 C   0  0  0  0  0  0  0  0  0  0  0  0
   58.7460   25.4750   46.2580 C   0  0  0  0  0  0  0  0  0  0  0  0
   59.3290   26.7360   46.4170 C   0  0  0  0  0  0  0  0  0  0  0  0
   57.9700   31.5260   45.1190 C   0  0  0  0  0  0  0  0  0  0  0  0
   58.0780   31.9660   43.8330 N   0  0  0  0  0  0  0  0  0  0  0  0
   57.2970   31.4610   42.8410 C   0  0  0  0  0  0  0  0  0  0  0  0
   57.4510   31.9670   41.4420 C   0  0  0  0  0  0  0  0  0  0  0  0
   56.3660   30.4590   43.1360 C   0  0  0  0  0  0  0  0  0  0  0  0
   56.2660   30.0120   44.4540 C   0  0  0  0  0  0  0  0  0  0  0  0
   55.4440   29.1070   44.7540 O   0  0  0  0  0  0  0  0  0  0  0  0
   57.0640   30.5510   45.4130 N   0  0  0  0  0  0  0  0  0  0  0  0
   59.1880   35.3734   46.5774 H   0  0  0  0  0  0  0  0  0  0  0  0
   59.7268   34.2357   45.2960 H   0  0  0  0  0  0  0  0  0  0  0  0
   58.0408   34.8553   45.2960 H   0  0  0  0  0  0  0  0  0  0  0  0
   58.9458   33.4233   47.7752 H   0  0  0  0  0  0  0  0  0  0  0  0
   57.3549   33.3924   46.9238 H   0  0  0  0  0  0  0  0  0  0  0  0
   60.8132   31.4394   46.0435 H   0  0  0  0  0  0  0  0  0  0  0  0
   60.1732   31.6803   47.7082 H   0  0  0  0  0  0  0  0  0  0  0  0
   60.4760   29.3180   44.9120 H   0  0  0  0  0  0  0  0  0  0  0  0
   58.2480   28.2076   43.5269 H   0  0  0  0  0  0  0  0  0  0  0  0
   57.2059   25.9637   43.2427 H   0  0  0  0  0  0  0  0  0  0  0  0
   59.1003   23.1126   43.9979 H   0  0  0  0  0  0  0  0  0  0  0  0
   58.4581   22.1293   45.3694 H   0  0  0  0  0  0  0  0  0  0  0  0
   57.8149   22.0084   42.4942 H   0  0  0  0  0  0  0  0  0  0  0  0
   57.4829   20.8232   43.8477 H   0  0  0  0  0  0  0  0  0  0  0  0
   54.3917   22.3353   44.7196 H   0  0  0  0  0  0  0  0  0  0  0  0
   55.8284   21.4939   45.3921 H   0  0  0  0  0  0  0  0  0  0  0  0
   55.3648   24.4743   44.9704 H   0  0  0  0  0  0  0  0  0  0  0  0
   55.9346   23.6052   46.4405 H   0  0  0  0  0  0  0  0  0  0  0  0
   58.8853   24.7071   47.0332 H   0  0  0  0  0  0  0  0  0  0  0  0
   59.9415   26.9458   47.3063 H   0  0  0  0  0  0  0  0  0  0  0  0
   57.7712   33.0191   41.4658 H   0  0  0  0  0  0  0  0  0  0  0  0
   58.2068   31.3655   40.9156 H   0  0  0  0  0  0  0  0  0  0  0  0
   56.4883   31.8885   40.9156 H   0  0  0  0  0  0  0  0  0  0  0  0
   55.7279   30.0336   42.3474 H   0  0  0  0  0  0  0  0  0  0  0  0
  1  2  1  0
  2  3  1  0
  3  4  1  0
  4  5  1  0
  5  6  2  0
  5  7  1  0
  7  8  1  0
  8  9  2  0
  9 10  1  0
 10 11  2  0
 11 12  1  0
 12 13  1  0
 13 14  1  0
 14 15  1  0
 15 16  1  0
 16 17  1  0
 11 18  1  0
 18 19  2  0
  3 20  1  0
 20 21  2  0
 21 22  1  0
 22 23  1  0
 22 24  2  0
 24 25  1  0
 25 26  2  0
 25 27  1  0
 19  8  1  0
 27 20  1  0
 17 12  1  0
  1 28  1  0
  1 29  1  0
  1 30  1  0
  2 31  1  0
  2 32  1  0
  4 33  1  0
  4 34  1  0
  7 35  1  0
  9 36  1  0
 10 37  1  0
 13 38  1  0
 13 39  1  0
 14 40  1  0
 14 41  1  0
 16 42  1  0
 16 43  1  0
 17 44  1  0
 17 45  1  0
 18 46  1  0
 19 47  1  0
 23 48  1  0
 23 49  1  0
 23 50  1  0
 24 51  1  0
M  CHG  1  27  -1
M  END
>  <UniqueID>  (38) 
37

>  <SMILES>  (38) 
CCN(CC(=O)Nc1ccc(N2CCOCC2)cc1)c1nc(C)cc(=O)[n-]1

>  <Energy>  (38) 
60.31756940784377

>  <Genealogy>  (38) 
CCN(CC(=O)Nc1ccc(N2CCOCC2)cc1)c1nc(C)cc(=O)[n-]1 (protonated)
CCN(CC(=O)Nc1ccc(N2CCOCC2)cc1)c1nc(C)cc(=O)[n-]1 (3D coordinates assigned)
CCN(CC(=O)Nc1ccc(N2CCOCC2)cc1)c1nc(C)cc(=O)[n-]1 (nonaromatic ring conformer: 60.31756940784377 kcal/mol)

>  <smiles>  (38) 
CCN(CC(=O)Nc1ccc(N2CCOCC2)cc1)c1nc(C)cc(=O)[nH]1

>  <score_type>  (38) 
oracle

>  <origin>  (38) 
adg

>  <m_score__min__energy>  (38) 
-9.5600000000000005

>  <m_primary>  (38) 
energy

$$$$
38:0
     RDKit          3D

 47 49  0  0  0  0  0  0  0  0999 V2000
   60.4610   27.5630   49.4160 C   0  0  0  0  0  0  0  0  0  0  0  0
   59.5960   28.0830   48.5400 C   0  0  0  0  0  0  0  0  0  0  0  0
   58.8380   27.3120   47.7310 N   0  0  0  0  0  0  0  0  0  0  0  0
   58.1070   28.1480   46.9610 C   0  0  0  0  0  0  0  0  0  0  0  0
   57.2080   27.7880   46.0280 C   0  0  0  0  0  0  0  0  0  0  0  0
   56.4350   26.5270   46.0150 C   0  0  0  0  0  0  0  0  0  0  0  0
   55.1160   26.4120   45.7790 N   0  0  0  0  0  0  0  0  0  0  0  0
   54.8820   25.0910   45.9300 C   0  0  0  0  0  0  0  0  0  0  0  0
   53.7400   24.5830   45.7810 O   0  0  0  0  0  0  0  0  0  0  0  0
   55.9660   24.3570   46.2580 N   0  0  0  0  0  0  0  0  0  0  0  0
   56.9380   25.2820   46.3130 C   0  0  0  0  0  0  0  0  0  0  0  0
   58.2610   24.9930   46.6240 O   0  0  0  0  0  0  0  0  0  0  0  0
   58.3900   29.4630   47.2850 C   0  0  0  0  0  0  0  0  0  0  0  0
   59.3400   29.4340   48.2930 C   0  0  0  0  0  0  0  0  0  0  0  0
   59.9010   30.6430   48.9350 C   0  0  0  0  0  0  0  0  0  0  0  0
   59.9240   31.7290   48.2950 O   0  0  0  0  0  0  0  0  0  0  0  0
   60.3960   30.6030   50.2760 N   0  0  0  0  0  0  0  0  0  0  0  0
   59.8670   31.4390   51.3450 C   0  0  0  0  0  0  0  0  0  0  0  0
   58.4940   30.9600   51.7160 C   0  0  0  0  0  0  0  0  0  0  0  0
   57.3630   31.6730   51.2880 C   0  0  0  0  0  0  0  0  0  0  0  0
   56.0820   31.2580   51.6610 C   0  0  0  0  0  0  0  0  0  0  0  0
   55.9050   30.1280   52.4790 C   0  0  0  0  0  0  0  0  0  0  0  0
   54.5470   29.6850   52.8720 C   0  0  0  0  0  0  0  0  0  0  0  0
   54.1700   28.5070   52.6250 O   0  0  0  0  0  0  0  0  0  0  0  0
   53.6580   30.5890   53.5360 N   0  0  0  0  0  0  0  0  0  0  0  0
   52.3610   30.9660   52.9910 C   0  0  0  0  0  0  0  0  0  0  0  0
   52.5230   31.4000   51.5370 C   0  0  0  0  0  0  0  0  0  0  0  0
   51.4290   32.3410   51.1420 C   0  0  0  0  0  0  0  0  0  0  0  0
   50.5600   32.6910   51.9830 O   0  0  0  0  0  0  0  0  0  0  0  0
   51.3940   32.8650   49.8550 O   0  0  0  0  0  0  0  0  0  0  0  0
   57.0420   29.4280   52.9230 C   0  0  0  0  0  0  0  0  0  0  0  0
   58.3250   29.8430   52.5530 C   0  0  0  0  0  0  0  0  0  0  0  0
   59.4020   29.1560   53.0130 F   0  0  0  0  0  0  0  0  0  0  0  0
   61.0601   28.2263   50.0572 H   0  0  0  0  0  0  0  0  0  0  0  0
   60.5739   26.4717   49.4958 H   0  0  0  0  0  0  0  0  0  0  0  0
   58.8270   26.2710   47.7390 H   0  0  0  0  0  0  0  0  0  0  0  0
   57.0321   28.4930   45.2022 H   0  0  0  0  0  0  0  0  0  0  0  0
   57.9456   30.3601   46.8293 H   0  0  0  0  0  0  0  0  0  0  0  0
   60.5277   31.3757   52.2222 H   0  0  0  0  0  0  0  0  0  0  0  0
   59.8132   32.4833   51.0037 H   0  0  0  0  0  0  0  0  0  0  0  0
   57.4860   32.5641   50.6549 H   0  0  0  0  0  0  0  0  0  0  0  0
   55.2037   31.8205   51.3115 H   0  0  0  0  0  0  0  0  0  0  0  0
   51.6782   30.1051   53.0421 H   0  0  0  0  0  0  0  0  0  0  0  0
   51.9470   31.7998   53.5770 H   0  0  0  0  0  0  0  0  0  0  0  0
   53.4936   31.9033   51.4162 H   0  0  0  0  0  0  0  0  0  0  0  0
   52.4730   30.5090   50.8939 H   0  0  0  0  0  0  0  0  0  0  0  0
   56.9203   28.5452   53.5678 H   0  0  0  0  0  0  0  0  0  0  0  0
  1  2  2  0
  2  3  1  0
  3  4  1  0
  4  5  2  3
  5  6  1  0
  6  7  1  0
  7  8  1  0
  8  9  2  0
  8 10  1  0
 10 11  1  0
 11 12  1  0
  4 13  1  0
 13 14  2  0
 14 15  1  0
 15 16  2  0
 15 17  1  0
 17 18  1  0
 18 19  1  0
 19 20  2  0
 20 21  1  0
 21 22  2  0
 22 23  1  0
 23 24  2  0
 23 25  1  0
 25 26  1  0
 26 27  1  0
 27 28  1  0
 28 29  2  0
 28 30  1  0
 22 31  1  0
 31 32  2  0
 32 33  1  0
 14  2  1  0
 32 19  1  0
 11  6  2  0
  1 34  1  0
  1 35  1  0
  3 36  1  0
  5 37  1  0
 13 38  1  0
 18 39  1  0
 18 40  1  0
 20 41  1  0
 21 42  1  0
 26 43  1  0
 26 44  1  0
 27 45  1  0
 27 46  1  0
 31 47  1  0
M  CHG  6   7  -1  10  -1  12  -1  17  -1  25  -1  30  -1
M  END
>  <UniqueID>  (39) 
38

>  <SMILES>  (39) 
C=c1[nH]c(=Cc2[n-]c(=O)[n-]c2[O-])cc1C(=O)[N-]Cc1ccc(C(=O)[N-]CCC(=O)[O-])cc1F

>  <Energy>  (39) 
102.97379823770676

>  <Genealogy>  (39) 
C=c1[nH]c(=Cc2[n-]c(=O)[n-]c2[O-])cc1C(=O)[N-]Cc1ccc(C(=O)[N-]CCC(=O)[O-])cc1F (protonated)
C=c1[nH]c(=Cc2[n-]c(=O)[n-]c2[O-])cc1C(=O)[N-]Cc1ccc(C(=O)[N-]CCC(=O)[O-])cc1F (3D coordinates assigned)
C=c1[nH]c(=Cc2[n-]c(=O)[n-]c2[O-])cc1C(=O)[N-]Cc1ccc(C(=O)[N-]CCC(=O)[O-])cc1F (optimized conformer: 102.97379823770676 kcal/mol)

>  <smiles>  (39) 
C=c1[nH]c(=Cc2[nH]c(=O)[nH]c2O)cc1C(=O)NCc1ccc(C(=O)NCCC(=O)O)cc1F

>  <score_type>  (39) 
oracle

>  <origin>  (39) 
adg

>  <m_score__min__energy>  (39) 
-22.27

>  <m_primary>  (39) 
energy

$$$$
39:0
     RDKit          3D

 43 45  0  0  0  0  0  0  0  0999 V2000
   57.6630   32.0260   50.4470 N   0  0  0  0  0  0  0  0  0  0  0  0
   58.8850   32.4050   49.8070 C   0  0  0  0  0  0  0  0  0  0  0  0
   59.9780   32.1300   50.3740 O   0  0  0  0  0  0  0  0  0  0  0  0
   58.8940   33.1180   48.5060 C   0  0  0  0  0  0  0  0  0  0  0  0
   59.7160   34.2460   48.3280 C   0  0  0  0  0  0  0  0  0  0  0  0
   59.7440   34.9170   47.1040 C   0  0  0  0  0  0  0  0  0  0  0  0
   58.9610   34.4690   46.0380 C   0  0  0  0  0  0  0  0  0  0  0  0
   58.1430   33.3400   46.1910 C   0  0  0  0  0  0  0  0  0  0  0  0
   57.3290   32.8190   45.0350 C   0  0  0  0  0  0  0  0  0  0  0  0
   57.1740   31.3530   45.1360 N   0  0  0  0  0  0  0  0  0  0  0  0
   58.4780   30.6720   45.1130 C   0  0  0  0  0  0  0  0  0  0  0  0
   58.2860   29.2330   45.5820 C   0  0  0  0  0  0  0  0  0  0  0  0
   57.2040   28.4920   44.7600 C   0  0  0  0  0  0  0  0  0  0  0  0
   56.2530   27.7660   45.6130 N   0  0  0  0  0  0  0  0  0  0  0  0
   56.3170   26.5320   46.0210 C   0  0  0  0  0  0  0  0  0  0  0  0
   57.4820   26.0700   46.5470 N   0  0  0  0  0  0  0  0  0  0  0  0
   57.5960   24.7910   46.9910 C   0  0  0  0  0  0  0  0  0  0  0  0
   56.5030   23.9290   46.9100 C   0  0  0  0  0  0  0  0  0  0  0  0
   55.3150   24.4150   46.3710 C   0  0  0  0  0  0  0  0  0  0  0  0
   55.2410   25.7010   45.9400 N   0  0  0  0  0  0  0  0  0  0  0  0
   56.4870   29.3620   43.6990 C   0  0  0  0  0  0  0  0  0  0  0  0
   56.2680   30.8470   44.0760 C   0  0  0  0  0  0  0  0  0  0  0  0
   58.1130   32.6710   47.4240 C   0  0  0  0  0  0  0  0  0  0  0  0
   57.6890   31.4660   51.3280 H   0  0  0  0  0  0  0  0  0  0  0  0
   56.7360   32.3670   50.1110 H   0  0  0  0  0  0  0  0  0  0  0  0
   60.3415   34.6020   49.1598 H   0  0  0  0  0  0  0  0  0  0  0  0
   60.3853   35.8019   46.9788 H   0  0  0  0  0  0  0  0  0  0  0  0
   58.9858   35.0026   45.0764 H   0  0  0  0  0  0  0  0  0  0  0  0
   56.3354   33.2907   45.0492 H   0  0  0  0  0  0  0  0  0  0  0  0
   57.8474   33.0600   44.0952 H   0  0  0  0  0  0  0  0  0  0  0  0
   58.8804   30.6772   44.0893 H   0  0  0  0  0  0  0  0  0  0  0  0
   59.1843   31.1918   45.7770 H   0  0  0  0  0  0  0  0  0  0  0  0
   59.2402   28.6958   45.4780 H   0  0  0  0  0  0  0  0  0  0  0  0
   57.9553   29.2599   46.6308 H   0  0  0  0  0  0  0  0  0  0  0  0
   57.7653   27.7460   44.1783 H   0  0  0  0  0  0  0  0  0  0  0  0
   58.5479   24.4365   47.4132 H   0  0  0  0  0  0  0  0  0  0  0  0
   56.5776   22.8900   47.2635 H   0  0  0  0  0  0  0  0  0  0  0  0
   54.4364   23.7577   46.2942 H   0  0  0  0  0  0  0  0  0  0  0  0
   57.0880   29.3335   42.7782 H   0  0  0  0  0  0  0  0  0  0  0  0
   55.4805   28.9311   43.5926 H   0  0  0  0  0  0  0  0  0  0  0  0
   56.4211   31.4567   43.1734 H   0  0  0  0  0  0  0  0  0  0  0  0
   55.2462   30.9205   44.4767 H   0  0  0  0  0  0  0  0  0  0  0  0
   57.4711   31.7862   47.5464 H   0  0  0  0  0  0  0  0  0  0  0  0
  1  2  1  0
  2  3  2  0
  2  4  1  0
  4  5  2  0
  5  6  1  0
  6  7  2  0
  7  8  1  0
  8  9  1  0
  9 10  1  0
 10 11  1  0
 11 12  1  0
 12 13  1  0
 13 14  1  0
 14 15  2  3
 15 16  1  0
 16 17  2  0
 17 18  1  0
 18 19  2  0
 19 20  1  0
 13 21  1  0
 21 22  1  0
  8 23  2  0
 23  4  1  0
 22 10  1  0
 20 15  1  0
  1 24  1  0
  1 25  1  0
  5 26  1  0
  6 27  1  0
  7 28  1  0
  9 29  1  0
  9 30  1  0
 11 31  1  0
 11 32  1  0
 12 33  1  0
 12 34  1  0
 13 35  1  0
 17 36  1  0
 18 37  1  0
 19 38  1  0
 21 39  1  0
 21 40  1  0
 22 41  1  0
 22 42  1  0
 23 43  1  0
M  CHG  1  20  -1
M  END
>  <UniqueID>  (40) 
39

>  <SMILES>  (40) 
NC(=O)c1cccc(CN2CCC(N=c3nccc[n-]3)CC2)c1

>  <Energy>  (40) 
57.12398686159523

>  <Genealogy>  (40) 
NC(=O)c1cccc(CN2CCC(N=c3nccc[n-]3)CC2)c1 (protonated)
NC(=O)c1cccc(CN2CCC(N=c3nccc[n-]3)CC2)c1 (3D coordinates assigned)
NC(=O)c1cccc(CN2CCC(N=c3nccc[n-]3)CC2)c1 (nonaromatic ring conformer: 57.12398686159523 kcal/mol)

>  <smiles>  (40) 
NC(=O)c1cccc(CN2CCC(N=c3nccc[nH]3)CC2)c1

>  <score_type>  (40) 
oracle

>  <origin>  (40) 
adg

>  <m_score__min__energy>  (40) 
-10.23

>  <m_primary>  (40) 
energy

$$$$
40:0
     RDKit          3D

 53 56  0  0  0  0  0  0  0  0999 V2000
   57.3700   30.2740   43.4280 C   0  0  0  0  0  0  0  0  0  0  0  0
   58.0020   30.6080   44.5640 C   0  0  0  0  0  0  0  0  0  0  0  0
   58.4660   29.7350   45.5620 C   0  0  0  0  0  0  0  0  0  0  0  0
   58.5900   28.3940   45.5770 C   0  0  0  0  0  0  0  0  0  0  0  0
   57.4860   27.4330   45.7280 C   0  0  0  0  0  0  0  0  0  0  0  0
   57.6330   26.1670   46.1600 N   0  0  0  0  0  0  0  0  0  0  0  0
   56.3630   25.7240   46.2680 C   0  0  0  0  0  0  0  0  0  0  0  0
   56.0800   24.5550   46.6390 O   0  0  0  0  0  0  0  0  0  0  0  0
   55.4160   26.6350   45.9560 N   0  0  0  0  0  0  0  0  0  0  0  0
   56.1430   27.7170   45.6290 C   0  0  0  0  0  0  0  0  0  0  0  0
   55.5800   28.9320   45.2470 O   0  0  0  0  0  0  0  0  0  0  0  0
   58.8180   30.5300   46.6370 C   0  0  0  0  0  0  0  0  0  0  0  0
   58.6230   31.8390   46.2510 C   0  0  0  0  0  0  0  0  0  0  0  0
   58.8600   33.0030   47.1260 C   0  0  0  0  0  0  0  0  0  0  0  0
   57.8800   33.7250   47.4570 O   0  0  0  0  0  0  0  0  0  0  0  0
   60.1870   33.3330   47.5940 N   0  0  0  0  0  0  0  0  0  0  0  0
   60.9940   34.3150   46.8630 C   0  0  0  0  0  0  0  0  0  0  0  0
   62.4390   33.8120   46.7830 C   0  0  0  0  0  0  0  0  0  0  0  0
   63.0390   33.5600   48.1200 N   0  0  0  0  0  0  0  0  0  0  0  0
   63.9670   32.4170   48.0750 C   0  0  0  0  0  0  0  0  0  0  0  0
   62.0630   33.4230   49.2280 C   0  0  0  0  0  0  0  0  0  0  0  0
   60.7650   32.7040   48.8010 C   0  0  1  0  0  0  0  0  0  0  0  0
   59.7760   32.7090   49.9530 C   0  0  0  0  0  0  0  0  0  0  0  0
   59.7600   33.7660   50.8820 C   0  0  0  0  0  0  0  0  0  0  0  0
   58.8270   33.7760   51.9220 C   0  0  0  0  0  0  0  0  0  0  0  0
   57.9040   32.7340   52.0480 C   0  0  0  0  0  0  0  0  0  0  0  0
   56.9940   32.7510   53.0520 F   0  0  0  0  0  0  0  0  0  0  0  0
   57.9180   31.6760   51.1350 C   0  0  0  0  0  0  0  0  0  0  0  0
   58.8530   31.6580   50.0960 C   0  0  0  0  0  0  0  0  0  0  0  0
   58.1400   31.8930   44.9880 N   0  0  0  0  0  0  0  0  0  0  0  0
   57.6740   33.0920   44.2800 C   0  0  0  0  0  0  0  0  0  0  0  0
   57.0552   31.0575   42.7229 H   0  0  0  0  0  0  0  0  0  0  0  0
   57.1668   29.2168   43.2020 H   0  0  0  0  0  0  0  0  0  0  0  0
   59.6038   27.9817   45.4669 H   0  0  0  0  0  0  0  0  0  0  0  0
   55.5340   29.7160   45.8880 H   0  0  0  0  0  0  0  0  0  0  0  0
   59.1842   30.1837   47.6148 H   0  0  0  0  0  0  0  0  0  0  0  0
   60.5906   34.4413   45.8475 H   0  0  0  0  0  0  0  0  0  0  0  0
   60.9655   35.2826   47.3855 H   0  0  0  0  0  0  0  0  0  0  0  0
   62.4526   32.8733   46.2096 H   0  0  0  0  0  0  0  0  0  0  0  0
   63.0355   34.5977   46.2964 H   0  0  0  0  0  0  0  0  0  0  0  0
   64.2180   32.1079   49.1004 H   0  0  0  0  0  0  0  0  0  0  0  0
   63.4908   31.5787   47.5455 H   0  0  0  0  0  0  0  0  0  0  0  0
   64.8853   32.7109   47.5455 H   0  0  0  0  0  0  0  0  0  0  0  0
   62.5321   32.8475   50.0396 H   0  0  0  0  0  0  0  0  0  0  0  0
   61.7869   34.4374   49.5515 H   0  0  0  0  0  0  0  0  0  0  0  0
   61.0003   31.6603   48.5454 H   0  0  0  0  0  0  0  0  0  0  0  0
   60.4852   34.5879   50.7890 H   0  0  0  0  0  0  0  0  0  0  0  0
   58.8188   34.6062   52.6436 H   0  0  0  0  0  0  0  0  0  0  0  0
   57.1918   30.8558   51.2342 H   0  0  0  0  0  0  0  0  0  0  0  0
   58.8667   30.8174   49.3867 H   0  0  0  0  0  0  0  0  0  0  0  0
   57.3765   33.8575   45.0118 H   0  0  0  0  0  0  0  0  0  0  0  0
   58.4853   33.4837   43.6489 H   0  0  0  0  0  0  0  0  0  0  0  0
   56.8111   32.8330   43.6489 H   0  0  0  0  0  0  0  0  0  0  0  0
  1  2  2  0
  2  3  1  0
  3  4  2  3
  4  5  1  0
  5  6  1  0
  6  7  1  0
  7  8  2  0
  7  9  1  0
  9 10  1  0
 10 11  1  0
  3 12  1  0
 12 13  2  0
 13 14  1  0
 14 15  2  0
 14 16  1  0
 16 17  1  0
 17 18  1  0
 18 19  1  0
 19 20  1  0
 19 21  1  0
 21 22  1  0
 22 23  1  0
 23 24  2  0
 24 25  1  0
 25 26  2  0
 26 27  1  0
 26 28  1  0
 28 29  2  0
 13 30  1  0
 30 31  1  0
 30  2  1  0
 10  5  2  0
 22 16  1  0
 29 23  1  0
  1 32  1  0
  1 33  1  0
  4 34  1  0
 11 35  1  0
 12 36  1  0
 17 37  1  0
 17 38  1  0
 18 39  1  0
 18 40  1  0
 20 41  1  0
 20 42  1  0
 20 43  1  0
 21 44  1  0
 21 45  1  0
 22 46  1  6
 24 47  1  0
 25 48  1  0
 28 49  1  0
 29 50  1  0
 31 51  1  0
 31 52  1  0
 31 53  1  0
M  CHG  2   6  -1   9  -1
M  END
>  <UniqueID>  (41) 
40

>  <SMILES>  (41) 
C=c1c(=Cc2[n-]c(=O)[n-]c2O)cc(C(=O)N2CCN(C)C[C@H]2c2ccc(F)cc2)n1C

>  <Energy>  (41) 
135.30305960380093

>  <Genealogy>  (41) 
C=c1c(=Cc2[n-]c(=O)[n-]c2O)cc(C(=O)N2CCN(C)CC2c2ccc(F)cc2)n1C (protonated)
C=c1c(=Cc2[n-]c(=O)[n-]c2O)cc(C(=O)N2CCN(C)C[C@H]2c2ccc(F)cc2)n1C (chirality)
C=c1c(=Cc2[n-]c(=O)[n-]c2O)cc(C(=O)N2CCN(C)C[C@H]2c2ccc(F)cc2)n1C (3D coordinates assigned)
C=c1c(=Cc2[n-]c(=O)[n-]c2O)cc(C(=O)N2CCN(C)C[C@H]2c2ccc(F)cc2)n1C (nonaromatic ring conformer: 135.30305960380093 kcal/mol)

>  <smiles>  (41) 
C=c1c(=Cc2[nH]c(=O)[nH]c2O)cc(C(=O)N2CCN(C)CC2c2ccc(F)cc2)n1C

>  <score_type>  (41) 
oracle

>  <origin>  (41) 
adg

>  <m_score__min__energy>  (41) 
-13.59

>  <m_primary>  (41) 
energy

$$$$
41:0
     RDKit          3D

 42 44  0  0  0  0  0  0  0  0999 V2000
   62.8550   33.7630   52.2190 C   0  0  0  0  0  0  0  0  0  0  0  0
   63.2460   33.4630   50.8290 C   0  0  0  0  0  0  0  0  0  0  0  0
   64.5610   33.1670   50.5400 C   0  0  0  0  0  0  0  0  0  0  0  0
   64.8850   32.8940   49.2480 C   0  0  0  0  0  0  0  0  0  0  0  0
   63.9250   32.9120   48.2490 C   0  0  0  0  0  0  0  0  0  0  0  0
   62.5840   33.2110   48.5230 C   0  0  0  0  0  0  0  0  0  0  0  0
   61.6890   33.1610   47.4410 N   0  0  0  0  0  0  0  0  0  0  0  0
   60.7910   31.9940   47.2700 C   0  0  0  0  0  0  0  0  0  0  0  0
   59.4020   32.5660   47.4470 C   0  0  0  0  0  0  0  0  0  0  0  0
   59.1640   33.4420   46.3670 N   0  0  0  0  0  0  0  0  0  0  0  0
   57.6260   33.4800   45.7180 S   0  0  0  0  0  0  0  0  0  0  0  0
   56.6060   33.4570   46.8410 O   0  0  0  0  0  0  0  0  0  0  0  0
   57.3350   34.6200   44.8220 O   0  0  0  0  0  0  0  0  0  0  0  0
   57.3620   32.0100   44.7780 C   0  0  0  0  0  0  0  0  0  0  0  0
   58.1760   31.4300   43.8440 C   0  0  0  0  0  0  0  0  0  0  0  0
   57.5950   30.3260   43.3710 N   0  0  0  0  0  0  0  0  0  0  0  0
   56.4080   30.1800   43.9900 C   0  0  0  0  0  0  0  0  0  0  0  0
   56.2720   31.2240   44.8570 N   0  0  0  0  0  0  0  0  0  0  0  0
   60.2490   33.9250   45.6190 C   0  0  0  0  0  0  0  0  0  0  0  0
   61.5010   34.1950   46.4430 C   0  0  0  0  0  0  0  0  0  0  0  0
   62.2610   33.4860   49.8280 C   0  0  0  0  0  0  0  0  0  0  0  0
   60.8920   33.8370   50.2070 C   0  0  0  0  0  0  0  0  0  0  0  0
   63.5333   33.2426   52.9112 H   0  0  0  0  0  0  0  0  0  0  0  0
   62.9168   34.8477   52.3913 H   0  0  0  0  0  0  0  0  0  0  0  0
   61.8233   33.4225   52.3913 H   0  0  0  0  0  0  0  0  0  0  0  0
   65.3253   33.1521   51.3310 H   0  0  0  0  0  0  0  0  0  0  0  0
   65.9275   32.6547   48.9913 H   0  0  0  0  0  0  0  0  0  0  0  0
   64.2233   32.6858   47.2147 H   0  0  0  0  0  0  0  0  0  0  0  0
   60.9076   31.5555   46.2680 H   0  0  0  0  0  0  0  0  0  0  0  0
   61.0085   31.1865   47.9846 H   0  0  0  0  0  0  0  0  0  0  0  0
   58.6586   31.7552   47.4439 H   0  0  0  0  0  0  0  0  0  0  0  0
   59.3221   33.1009   48.4049 H   0  0  0  0  0  0  0  0  0  0  0  0
   59.1580   31.8145   43.5312 H   0  0  0  0  0  0  0  0  0  0  0  0
   58.0300   29.7170   42.6480 H   0  0  0  0  0  0  0  0  0  0  0  0
   55.6827   29.3692   43.8267 H   0  0  0  0  0  0  0  0  0  0  0  0
   60.4965   33.1799   44.8486 H   0  0  0  0  0  0  0  0  0  0  0  0
   59.9360   34.8893   45.1922 H   0  0  0  0  0  0  0  0  0  0  0  0
   62.3752   34.2162   45.7756 H   0  0  0  0  0  0  0  0  0  0  0  0
   61.3874   35.1630   46.9530 H   0  0  0  0  0  0  0  0  0  0  0  0
   60.8092   33.8582   51.3037 H   0  0  0  0  0  0  0  0  0  0  0  0
   60.6419   34.8283   49.8011 H   0  0  0  0  0  0  0  0  0  0  0  0
   60.1958   33.0883   49.8011 H   0  0  0  0  0  0  0  0  0  0  0  0
  1  2  1  0
  2  3  2  0
  3  4  1  0
  4  5  2  0
  5  6  1  0
  6  7  1  0
  7  8  1  0
  8  9  1  0
  9 10  1  0
 10 11  1  0
 11 12  2  0
 11 13  2  0
 11 14  1  0
 14 15  2  0
 15 16  1  0
 16 17  1  0
 17 18  2  0
 10 19  1  0
 19 20  1  0
  6 21  2  0
 21 22  1  0
 21  2  1  0
 20  7  1  0
 18 14  1  0
  1 23  1  0
  1 24  1  0
  1 25  1  0
  3 26  1  0
  4 27  1  0
  5 28  1  0
  8 29  1  0
  8 30  1  0
  9 31  1  0
  9 32  1  0
 15 33  1  0
 16 34  1  0
 17 35  1  0
 19 36  1  0
 19 37  1  0
 20 38  1  0
 20 39  1  0
 22 40  1  0
 22 41  1  0
 22 42  1  0
M  END
>  <smiles>  (42) 
Cc1cccc(N2CCN(S(=O)(=O)c3c[nH]cn3)CC2)c1C

>  <score_type>  (42) 
oracle

>  <origin>  (42) 
adg

>  <m_score__min__energy>  (42) 
-7.6299999999999999

>  <m_primary>  (42) 
energy

$$$$
42:0
     RDKit          3D

 43 46  0  0  0  0  0  0  0  0999 V2000
   59.5740   35.2790   45.2490 O   0  0  0  0  0  0  0  0  0  0  0  0
   59.1370   34.4250   46.0650 C   0  0  0  0  0  0  0  0  0  0  0  0
   59.2880   34.6800   47.4690 N   0  0  0  0  0  0  0  0  0  0  0  0
   60.3650   34.2190   48.2960 C   0  0  0  0  0  0  0  0  0  0  0  0
   60.1440   34.0150   49.6730 C   0  0  0  0  0  0  0  0  0  0  0  0
   61.1960   33.6030   50.5170 C   0  0  0  0  0  0  0  0  0  0  0  0
   62.4790   33.3700   49.9960 C   0  0  0  0  0  0  0  0  0  0  0  0
   62.6670   33.5470   48.6280 C   0  0  0  0  0  0  0  0  0  0  0  0
   63.7850   33.3400   47.8500 C   0  0  0  0  0  0  0  0  0  0  0  0
   63.3780   33.6120   46.5510 C   0  0  0  0  0  0  0  0  0  0  0  0
   62.0750   33.9730   46.5200 N   0  0  0  0  0  0  0  0  0  0  0  0
   61.6500   33.9470   47.7980 C   0  0  0  0  0  0  0  0  0  0  0  0
   58.5140   33.1830   45.5520 C   0  0  0  0  0  0  0  0  0  0  0  0
   58.0140   33.1390   44.2400 C   0  0  0  0  0  0  0  0  0  0  0  0
   57.4070   31.9790   43.7520 C   0  0  0  0  0  0  0  0  0  0  0  0
   57.3060   30.8410   44.5620 C   0  0  0  0  0  0  0  0  0  0  0  0
   56.5460   29.3810   43.9390 S   0  0  0  0  0  0  0  0  0  0  0  0
   55.4020   29.7250   43.0260 O   0  0  0  0  0  0  0  0  0  0  0  0
   57.5660   28.5910   43.1710 O   0  0  0  0  0  0  0  0  0  0  0  0
   55.9490   28.4130   45.2490 N   0  0  0  0  0  0  0  0  0  0  0  0
   56.6670   27.3450   45.8810 C   0  0  0  0  0  0  0  0  0  0  0  0
   57.9780   27.5080   46.3680 C   0  0  0  0  0  0  0  0  0  0  0  0
   58.6410   26.4350   46.9730 C   0  0  0  0  0  0  0  0  0  0  0  0
   58.0060   25.1980   47.0980 C   0  0  0  0  0  0  0  0  0  0  0  0
   56.7040   25.0310   46.6190 C   0  0  0  0  0  0  0  0  0  0  0  0
   56.0370   26.1000   46.0130 C   0  0  0  0  0  0  0  0  0  0  0  0
   57.8180   30.8720   45.8650 C   0  0  0  0  0  0  0  0  0  0  0  0
   58.4250   32.0320   46.3550 C   0  0  0  0  0  0  0  0  0  0  0  0
   59.1409   34.1788   50.0936 H   0  0  0  0  0  0  0  0  0  0  0  0
   61.0100   33.4630   51.5921 H   0  0  0  0  0  0  0  0  0  0  0  0
   63.3085   33.0578   50.6475 H   0  0  0  0  0  0  0  0  0  0  0  0
   64.7846   33.0268   48.1857 H   0  0  0  0  0  0  0  0  0  0  0  0
   64.0278   33.5432   45.6661 H   0  0  0  0  0  0  0  0  0  0  0  0
   61.5200   34.1860   45.6630 H   0  0  0  0  0  0  0  0  0  0  0  0
   58.1009   34.0239   43.5924 H   0  0  0  0  0  0  0  0  0  0  0  0
   57.0069   31.9595   42.7275 H   0  0  0  0  0  0  0  0  0  0  0  0
   58.4819   28.4811   46.2725 H   0  0  0  0  0  0  0  0  0  0  0  0
   59.6655   26.5663   47.3513 H   0  0  0  0  0  0  0  0  0  0  0  0
   58.5301   24.3556   47.5731 H   0  0  0  0  0  0  0  0  0  0  0  0
   56.2029   24.0568   46.7189 H   0  0  0  0  0  0  0  0  0  0  0  0
   55.0121   25.9631   45.6377 H   0  0  0  0  0  0  0  0  0  0  0  0
   57.7423   29.9806   46.5051 H   0  0  0  0  0  0  0  0  0  0  0  0
   58.8357   32.0445   47.3754 H   0  0  0  0  0  0  0  0  0  0  0  0
  1  2  2  0
  2  3  1  0
  3  4  1  0
  4  5  2  0
  5  6  1  0
  6  7  2  0
  7  8  1  0
  8  9  1  0
  9 10  2  0
 10 11  1  0
 11 12  1  0
  2 13  1  0
 13 14  2  0
 14 15  1  0
 15 16  2  0
 16 17  1  0
 17 18  2  0
 17 19  2  0
 17 20  1  0
 20 21  1  0
 21 22  2  0
 22 23  1  0
 23 24  2  0
 24 25  1  0
 25 26  2  0
 16 27  1  0
 27 28  2  0
 12  4  1  0
 28 13  1  0
 12  8  2  0
 26 21  1  0
  5 29  1  0
  6 30  1  0
  7 31  1  0
  9 32  1  0
 10 33  1  0
 11 34  1  0
 14 35  1  0
 15 36  1  0
 22 37  1  0
 23 38  1  0
 24 39  1  0
 25 40  1  0
 26 41  1  0
 27 42  1  0
 28 43  1  0
M  CHG  2   3  -1  20  -1
M  END
>  <UniqueID>  (43) 
41

>  <SMILES>  (43) 
O=C([N-]c1cccc2cc[nH]c12)c1ccc(S(=O)(=O)[N-]c2ccccc2)cc1

>  <Energy>  (43) 
91.19065552952932

>  <Genealogy>  (43) 
O=C([N-]c1cccc2cc[nH]c12)c1ccc(S(=O)(=O)[N-]c2ccccc2)cc1 (protonated)
O=C([N-]c1cccc2cc[nH]c12)c1ccc(S(=O)(=O)[N-]c2ccccc2)cc1 (3D coordinates assigned)
O=C([N-]c1cccc2cc[nH]c12)c1ccc(S(=O)(=O)[N-]c2ccccc2)cc1 (optimized conformer: 91.19065552952932 kcal/mol)

>  <smiles>  (43) 
O=C(Nc1cccc2cc[nH]c12)c1ccc(S(=O)(=O)Nc2ccccc2)cc1

>  <score_type>  (43) 
oracle

>  <origin>  (43) 
adg

>  <m_score__min__energy>  (43) 
-11.56

>  <m_primary>  (43) 
energy

$$$$
43:0
     RDKit          3D

 63 66  0  0  0  0  0  0  0  0999 V2000
   57.0220   24.2740   43.1730 C   0  0  0  0  0  0  0  0  0  0  0  0
   56.2440   22.7320   43.6090 S   0  0  0  0  0  0  0  0  0  0  0  0
   56.1720   21.8470   42.3960 O   0  0  0  0  0  0  0  0  0  0  0  0
   57.0710   22.0510   44.6620 O   0  0  0  0  0  0  0  0  0  0  0  0
   54.6450   22.9970   44.2390 N   0  0  0  0  0  0  0  0  0  0  0  0
   54.5190   22.3960   45.5670 C   0  0  0  0  0  0  0  0  0  0  0  0
   54.6660   23.4860   46.6510 C   0  0  1  0  0  0  0  0  0  0  0  0
   55.6710   23.0850   47.7180 C   0  0  0  0  0  0  0  0  0  0  0  0
   56.8700   23.7720   47.4690 O   0  0  0  0  0  0  0  0  0  0  0  0
   56.6290   24.6550   46.3940 C   0  0  2  0  0  0  0  0  0  0  0  0
   57.1440   26.0200   46.7330 C   0  0  0  0  0  0  0  0  0  0  0  0
   57.7940   26.1910   47.8010 O   0  0  0  0  0  0  0  0  0  0  0  0
   56.8230   27.1370   45.8880 N   0  0  0  0  0  0  0  0  0  0  0  0
   57.4920   28.4100   45.9430 C   0  0  0  0  0  0  0  0  0  0  0  0
   58.4130   28.7140   46.9610 C   0  0  0  0  0  0  0  0  0  0  0  0
   59.0740   29.9450   46.9720 C   0  0  0  0  0  0  0  0  0  0  0  0
   58.8370   30.8940   45.9660 C   0  0  0  0  0  0  0  0  0  0  0  0
   59.5720   32.1780   46.0080 C   0  0  0  0  0  0  0  0  0  0  0  0
   59.1250   33.1540   45.3390 O   0  0  0  0  0  0  0  0  0  0  0  0
   60.7950   32.3320   46.7550 N   0  0  0  0  0  0  0  0  0  0  0  0
   61.0740   33.6080   47.4340 C   0  0  0  0  0  0  0  0  0  0  0  0
   62.5800   33.9020   47.4670 C   0  0  0  0  0  0  0  0  0  0  0  0
   63.4280   32.7310   48.0340 C   0  0  0  0  0  0  0  0  0  0  0  0
   63.9550   33.0380   49.4270 C   0  0  0  0  0  0  0  0  0  0  0  0
   63.2290   33.8880   50.2830 C   0  0  0  0  0  0  0  0  0  0  0  0
   63.7060   34.1760   51.5660 C   0  0  0  0  0  0  0  0  0  0  0  0
   64.9140   33.6310   52.0040 C   0  0  0  0  0  0  0  0  0  0  0  0
   65.3830   33.9250   53.2420 F   0  0  0  0  0  0  0  0  0  0  0  0
   65.6410   32.7850   51.1650 C   0  0  0  0  0  0  0  0  0  0  0  0
   65.1660   32.4860   49.8860 C   0  0  0  0  0  0  0  0  0  0  0  0
   62.6920   31.3740   48.0090 C   0  0  0  0  0  0  0  0  0  0  0  0
   61.7930   31.2490   46.7780 C   0  0  0  0  0  0  0  0  0  0  0  0
   57.9470   30.5740   44.9160 C   0  0  0  0  0  0  0  0  0  0  0  0
   57.7010   31.6480   43.5410 Cl  0  0  0  0  0  0  0  0  0  0  0  0
   57.2820   29.3410   44.9150 C   0  0  0  0  0  0  0  0  0  0  0  0
   55.1960   24.7270   46.1160 N   0  0  0  0  0  0  0  0  0  0  0  0
   57.2965   24.8180   44.0888 H   0  0  0  0  0  0  0  0  0  0  0  0
   57.9268   24.0735   42.5805 H   0  0  0  0  0  0  0  0  0  0  0  0
   56.3231   24.8827   42.5805 H   0  0  0  0  0  0  0  0  0  0  0  0
   53.5320   21.9194   45.6599 H   0  0  0  0  0  0  0  0  0  0  0  0
   55.3088   21.6422   45.7007 H   0  0  0  0  0  0  0  0  0  0  0  0
   53.6498   23.6113   47.0530 H   0  0  0  0  0  0  0  0  0  0  0  0
   55.2864   23.3549   48.7126 H   0  0  0  0  0  0  0  0  0  0  0  0
   55.8419   21.9987   47.6911 H   0  0  0  0  0  0  0  0  0  0  0  0
   57.1506   24.2798   45.5012 H   0  0  0  0  0  0  0  0  0  0  0  0
   56.0000   27.0330   45.2470 H   0  0  0  0  0  0  0  0  0  0  0  0
   58.6144   27.9783   47.7536 H   0  0  0  0  0  0  0  0  0  0  0  0
   59.7876   30.1725   47.7777 H   0  0  0  0  0  0  0  0  0  0  0  0
   60.5617   34.4197   46.8967 H   0  0  0  0  0  0  0  0  0  0  0  0
   60.7102   33.5380   48.4697 H   0  0  0  0  0  0  0  0  0  0  0  0
   62.9165   34.1104   46.4407 H   0  0  0  0  0  0  0  0  0  0  0  0
   62.7270   34.7618   48.1372 H   0  0  0  0  0  0  0  0  0  0  0  0
   64.2874   32.6332   47.3544 H   0  0  0  0  0  0  0  0  0  0  0  0
   62.2809   34.3283   49.9407 H   0  0  0  0  0  0  0  0  0  0  0  0
   63.1276   34.8337   52.2315 H   0  0  0  0  0  0  0  0  0  0  0  0
   66.5909   32.3524   51.5121 H   0  0  0  0  0  0  0  0  0  0  0  0
   65.7423   31.8144   49.2327 H   0  0  0  0  0  0  0  0  0  0  0  0
   63.4358   30.5638   47.9927 H   0  0  0  0  0  0  0  0  0  0  0  0
   62.0604   31.3063   48.9071 H   0  0  0  0  0  0  0  0  0  0  0  0
   62.4118   31.3079   45.8705 H   0  0  0  0  0  0  0  0  0  0  0  0
   61.2683   30.2830   46.8177 H   0  0  0  0  0  0  0  0  0  0  0  0
   56.5864   29.0999   44.0977 H   0  0  0  0  0  0  0  0  0  0  0  0
   55.0410   24.8100   45.0850 H   0  0  0  0  0  0  0  0  0  0  0  0
  1  2  1  0
  2  3  2  0
  2  4  2  0
  2  5  1  0
  5  6  1  0
  6  7  1  0
  7  8  1  0
  8  9  1  0
  9 10  1  0
 10 11  1  0
 11 12  2  0
 11 13  1  0
 13 14  1  0
 14 15  2  0
 15 16  1  0
 16 17  2  0
 17 18  1  0
 18 19  2  0
 18 20  1  0
 20 21  1  0
 21 22  1  0
 22 23  1  0
 23 24  1  0
 24 25  2  0
 25 26  1  0
 26 27  2  0
 27 28  1  0
 27 29  1  0
 29 30  2  0
 23 31  1  0
 31 32  1  0
 17 33  1  0
 33 34  1  0
 33 35  2  0
 10 36  1  0
 36  7  1  0
 35 14  1  0
 32 20  1  0
 30 24  1  0
  1 37  1  0
  1 38  1  0
  1 39  1  0
  6 40  1  0
  6 41  1  0
  7 42  1  1
  8 43  1  0
  8 44  1  0
 10 45  1  6
 13 46  1  0
 15 47  1  0
 16 48  1  0
 21 49  1  0
 21 50  1  0
 22 51  1  0
 22 52  1  0
 23 53  1  0
 25 54  1  0
 26 55  1  0
 29 56  1  0
 30 57  1  0
 31 58  1  0
 31 59  1  0
 32 60  1  0
 32 61  1  0
 35 62  1  0
 36 63  1  0
M  CHG  1   5  -1
M  END
>  <UniqueID>  (44) 
42

>  <SMILES>  (44) 
CS(=O)(=O)[N-]C[C@H]1CO[C@H](C(=O)Nc2ccc(C(=O)N3CCC(c4ccc(F)cc4)CC3)c(Cl)c2)N1

>  <Energy>  (44) 
71.86300620921253

>  <Genealogy>  (44) 
CS(=O)(=O)[N-]CC1COC(C(=O)Nc2ccc(C(=O)N3CCC(c4ccc(F)cc4)CC3)c(Cl)c2)N1 (protonated)
CS(=O)(=O)[N-]C[C@H]1CO[C@H](C(=O)Nc2ccc(C(=O)N3CCC(c4ccc(F)cc4)CC3)c(Cl)c2)N1 (chirality)
CS(=O)(=O)[N-]C[C@H]1CO[C@H](C(=O)Nc2ccc(C(=O)N3CCC(c4ccc(F)cc4)CC3)c(Cl)c2)N1 (3D coordinates assigned)
CS(=O)(=O)[N-]C[C@H]1CO[C@H](C(=O)Nc2ccc(C(=O)N3CCC(c4ccc(F)cc4)CC3)c(Cl)c2)N1 (nonaromatic ring conformer: 71.86300620921253 kcal/mol)

>  <smiles>  (44) 
CS(=O)(=O)NCC1COC(C(=O)Nc2ccc(C(=O)N3CCC(c4ccc(F)cc4)CC3)c(Cl)c2)N1

>  <score_type>  (44) 
oracle

>  <origin>  (44) 
adg

>  <m_score__min__energy>  (44) 
-11.109999999999999

>  <m_primary>  (44) 
energy

$$$$
44:0
     RDKit          3D

 56 58  0  0  0  0  0  0  0  0999 V2000
   52.6860   24.0880   45.1840 C   0  0  0  0  0  0  0  0  0  0  0  0
   53.7680   23.7570   45.8990 C   0  0  0  0  0  0  0  0  0  0  0  0
   53.5140   22.2990   47.1410 Br  0  0  0  0  0  0  0  0  0  0  0  0
   55.1070   24.4380   45.7370 C   0  0  0  0  0  0  0  0  0  0  0  0
   55.2850   25.7080   45.9150 N   0  0  0  0  0  0  0  0  0  0  0  0
   56.2220   26.2920   46.7320 O   0  0  0  0  0  0  0  0  0  0  0  0
   57.0570   27.3010   46.2610 C   0  0  0  0  0  0  0  0  0  0  0  0
   57.9110   27.8380   47.0290 O   0  0  0  0  0  0  0  0  0  0  0  0
   56.9070   27.7410   44.9130 N   0  0  0  0  0  0  0  0  0  0  0  0
   57.1120   29.0930   44.4530 C   0  0  0  0  0  0  0  0  0  0  0  0
   56.9070   29.3870   43.0960 C   0  0  0  0  0  0  0  0  0  0  0  0
   57.0320   30.6850   42.6230 C   0  0  0  0  0  0  0  0  0  0  0  0
   57.2360   31.7350   43.5110 C   0  0  0  0  0  0  0  0  0  0  0  0
   57.4010   31.4840   44.8820 C   0  0  0  0  0  0  0  0  0  0  0  0
   57.5930   32.6340   45.8100 C   0  0  0  0  0  0  0  0  0  0  0  0
   56.6430   33.4570   45.9270 O   0  0  0  0  0  0  0  0  0  0  0  0
   58.7800   32.8220   46.6310 N   0  0  0  0  0  0  0  0  0  0  0  0
   59.6310   31.6640   46.9840 C   0  0  0  0  0  0  0  0  0  0  0  0
   60.5220   31.9590   48.1850 C   0  0  0  0  0  0  0  0  0  0  0  0
   61.1870   33.2560   47.9820 N   0  0  0  0  0  0  0  0  0  0  0  0
   62.5900   33.4180   48.2550 C   0  0  0  0  0  0  0  0  0  0  0  0
   62.9890   34.4270   48.8970 O   0  0  0  0  0  0  0  0  0  0  0  0
   63.5820   32.3880   47.7970 C   0  0  0  0  0  0  0  0  0  0  0  0
   64.0300   32.7000   46.5080 O   0  0  0  0  0  0  0  0  0  0  0  0
   60.3730   34.4350   47.6550 C   0  0  0  0  0  0  0  0  0  0  0  0
   58.8990   34.0560   47.4330 C   0  0  0  0  0  0  0  0  0  0  0  0
   57.3560   30.1540   45.3440 C   0  0  0  0  0  0  0  0  0  0  0  0
   56.2460   23.7360   45.1020 C   0  0  0  0  0  0  0  0  0  0  0  0
   57.4950   23.7320   45.7650 C   0  0  0  0  0  0  0  0  0  0  0  0
   58.5650   22.9970   45.2440 C   0  0  0  0  0  0  0  0  0  0  0  0
   58.3720   22.2020   44.1220 C   0  0  0  0  0  0  0  0  0  0  0  0
   57.1470   22.2030   43.4440 C   0  0  0  0  0  0  0  0  0  0  0  0
   56.0800   22.9530   43.9470 C   0  0  0  0  0  0  0  0  0  0  0  0
   52.7399   24.9075   44.4522 H   0  0  0  0  0  0  0  0  0  0  0  0
   51.7429   23.5406   45.3282 H   0  0  0  0  0  0  0  0  0  0  0  0
   56.8250   26.9760   44.1920 H   0  0  0  0  0  0  0  0  0  0  0  0
   56.6439   28.5779   42.3988 H   0  0  0  0  0  0  0  0  0  0  0  0
   56.9696   30.8839   41.5429 H   0  0  0  0  0  0  0  0  0  0  0  0
   57.2683   32.7689   43.1368 H   0  0  0  0  0  0  0  0  0  0  0  0
   58.9842   30.8070   47.2230 H   0  0  0  0  0  0  0  0  0  0  0  0
   60.2801   31.4430   46.1239 H   0  0  0  0  0  0  0  0  0  0  0  0
   59.9094   31.9976   49.0978 H   0  0  0  0  0  0  0  0  0  0  0  0
   61.2777   31.1667   48.2902 H   0  0  0  0  0  0  0  0  0  0  0  0
   64.4382   32.3735   48.4874 H   0  0  0  0  0  0  0  0  0  0  0  0
   63.0990   31.3998   47.7839 H   0  0  0  0  0  0  0  0  0  0  0  0
   65.0220   32.7600   46.5760 H   0  0  0  0  0  0  0  0  0  0  0  0
   60.4363   35.1547   48.4844 H   0  0  0  0  0  0  0  0  0  0  0  0
   60.7607   34.8759   46.7248 H   0  0  0  0  0  0  0  0  0  0  0  0
   58.4184   33.8970   48.4096 H   0  0  0  0  0  0  0  0  0  0  0  0
   58.4071   34.8748   46.8874 H   0  0  0  0  0  0  0  0  0  0  0  0
   57.5132   29.9429   46.4121 H   0  0  0  0  0  0  0  0  0  0  0  0
   57.6255   24.3083   46.6928 H   0  0  0  0  0  0  0  0  0  0  0  0
   59.5549   23.0485   45.7210 H   0  0  0  0  0  0  0  0  0  0  0  0
   59.1918   21.5634   43.7613 H   0  0  0  0  0  0  0  0  0  0  0  0
   57.0250   21.6171   42.5210 H   0  0  0  0  0  0  0  0  0  0  0  0
   55.1060   22.9302   43.4364 H   0  0  0  0  0  0  0  0  0  0  0  0
  1  2  2  0
  2  3  1  0
  2  4  1  0
  4  5  2  3
  5  6  1  0
  6  7  1  0
  7  8  2  0
  7  9  1  0
  9 10  1  0
 10 11  2  0
 11 12  1  0
 12 13  2  0
 13 14  1  0
 14 15  1  0
 15 16  2  0
 15 17  1  0
 17 18  1  0
 18 19  1  0
 19 20  1  0
 20 21  1  0
 21 22  2  0
 21 23  1  0
 23 24  1  0
 20 25  1  0
 25 26  1  0
 14 27  2  0
  4 28  1  0
 28 29  2  0
 29 30  1  0
 30 31  2  0
 31 32  1  0
 32 33  2  0
 27 10  1  0
 33 28  1  0
 26 17  1  0
  1 34  1  0
  1 35  1  0
  9 36  1  0
 11 37  1  0
 12 38  1  0
 13 39  1  0
 18 40  1  0
 18 41  1  0
 19 42  1  0
 19 43  1  0
 23 44  1  0
 23 45  1  0
 24 46  1  0
 25 47  1  0
 25 48  1  0
 26 49  1  0
 26 50  1  0
 27 51  1  0
 29 52  1  0
 30 53  1  0
 31 54  1  0
 32 55  1  0
 33 56  1  0
M  END
>  <UniqueID>  (45) 
43

>  <SMILES>  (45) 
C=C(Br)C(=NOC(=O)Nc1cccc(C(=O)N2CCN(C(=O)CO)CC2)c1)c1ccccc1

>  <Energy>  (45) 
85.31745319981736

>  <Genealogy>  (45) 
C=C(Br)C(=NOC(=O)Nc1cccc(C(=O)N2CCN(C(=O)CO)CC2)c1)c1ccccc1 (3D coordinates assigned)
C=C(Br)C(=NOC(=O)Nc1cccc(C(=O)N2CCN(C(=O)CO)CC2)c1)c1ccccc1 (nonaromatic ring conformer: 85.31745319981736 kcal/mol)

>  <smiles>  (45) 
C=C(Br)C(=NOC(=O)Nc1cccc(C(=O)N2CCN(C(=O)CO)CC2)c1)c1ccccc1

>  <score_type>  (45) 
oracle

>  <origin>  (45) 
adg

>  <m_score__min__energy>  (45) 
-10.039999999999999

>  <m_primary>  (45) 
energy

$$$$
45:0
     RDKit          3D

 71 75  0  0  0  0  0  0  0  0999 V2000
   57.0060   29.8760   45.0210 O   0  0  0  0  0  0  0  0  0  0  0  0
   57.8200   30.3400   45.8680 C   0  0  0  0  0  0  0  0  0  0  0  0
   58.5370   29.4420   46.7310 N   0  0  0  0  0  0  0  0  0  0  0  0
   58.6610   28.0320   46.4750 C   0  0  0  0  0  0  0  0  0  0  0  0
   57.5320   27.1980   46.4260 C   0  0  0  0  0  0  0  0  0  0  0  0
   57.6740   25.8280   46.1830 C   0  0  0  0  0  0  0  0  0  0  0  0
   58.9460   25.2740   45.9750 C   0  0  0  0  0  0  0  0  0  0  0  0
   59.1000   23.7880   45.7920 C   0  0  0  0  0  0  0  0  0  0  0  0
   57.9410   23.2450   44.9990 C   0  0  0  0  0  0  0  0  0  0  0  0
   57.6140   23.7940   43.7520 C   0  0  0  0  0  0  0  0  0  0  0  0
   56.4890   23.3280   43.0690 C   0  0  0  0  0  0  0  0  0  0  0  0
   55.7200   22.3480   43.6110 N   0  0  0  0  0  0  0  0  0  0  0  0
   56.0180   21.7830   44.8130 C   0  0  0  0  0  0  0  0  0  0  0  0
   55.1420   20.7300   45.3490 C   0  0  0  0  0  0  0  0  0  0  0  0
   55.5440   19.5380   45.3340 O   0  0  0  0  0  0  0  0  0  0  0  0
   53.8550   21.0210   45.9160 N   0  0  0  0  0  0  0  0  0  0  0  0
   53.5110   22.2280   46.6670 C   0  0  2  0  0  0  0  0  0  0  0  0
   52.1650   22.0380   47.3940 C   0  0  0  0  0  0  0  0  0  0  0  0
   52.3030   22.2500   48.8780 C   0  0  0  0  0  0  0  0  0  0  0  0
   53.5610   22.1260   49.4930 C   0  0  0  0  0  0  0  0  0  0  0  0
   53.6950   22.3340   50.8700 C   0  0  0  0  0  0  0  0  0  0  0  0
   52.5780   22.6720   51.6390 C   0  0  0  0  0  0  0  0  0  0  0  0
   51.3250   22.8070   51.0340 C   0  0  0  0  0  0  0  0  0  0  0  0
   51.1880   22.6020   49.6560 C   0  0  0  0  0  0  0  0  0  0  0  0
   53.4340   23.3870   45.7180 C   0  0  0  0  0  0  0  0  0  0  0  0
   54.0250   24.4670   45.9880 O   0  0  0  0  0  0  0  0  0  0  0  0
   52.6690   23.2980   44.5620 O   0  0  0  0  0  0  0  0  0  0  0  0
   57.1280   22.2370   45.5370 C   0  0  0  0  0  0  0  0  0  0  0  0
   60.0720   26.1100   46.0010 C   0  0  0  0  0  0  0  0  0  0  0  0
   59.9280   27.4800   46.2360 C   0  0  0  0  0  0  0  0  0  0  0  0
   57.9800   31.8080   45.9920 C   0  0  0  0  0  0  0  0  0  0  0  0
   57.2800   32.6680   45.1260 C   0  0  0  0  0  0  0  0  0  0  0  0
   57.4110   34.0520   45.2460 C   0  0  0  0  0  0  0  0  0  0  0  0
   58.2520   34.5980   46.2170 C   0  0  0  0  0  0  0  0  0  0  0  0
   58.9910   33.7580   47.0670 C   0  0  0  0  0  0  0  0  0  0  0  0
   59.8560   34.2940   48.0850 N   0  0  0  0  0  0  0  0  0  0  0  0
   61.1710   33.7990   48.3810 C   0  0  0  0  0  0  0  0  0  0  0  0
   61.5670   32.6380   47.9690 N   0  0  0  0  0  0  0  0  0  0  0  0
   63.1590   32.3100   48.4920 S   0  0  0  0  0  0  0  0  0  0  0  0
   64.0910   32.1450   47.3250 O   0  0  0  0  0  0  0  0  0  0  0  0
   63.2000   31.1150   49.4030 O   0  0  0  0  0  0  0  0  0  0  0  0
   63.4460   33.8180   49.3600 C   0  0  0  0  0  0  0  0  0  0  0  0
   62.1190   34.5890   49.2500 C   0  0  0  0  0  0  0  0  0  0  0  0
   58.8360   32.3670   46.9600 C   0  0  0  0  0  0  0  0  0  0  0  0
   58.8570   29.7980   47.6600 H   0  0  0  0  0  0  0  0  0  0  0  0
   56.5299   27.6249   46.5797 H   0  0  0  0  0  0  0  0  0  0  0  0
   56.7842   25.1819   46.1548 H   0  0  0  0  0  0  0  0  0  0  0  0
   60.0375   23.5822   45.2547 H   0  0  0  0  0  0  0  0  0  0  0  0
   59.1219   23.3026   46.7789 H   0  0  0  0  0  0  0  0  0  0  0  0
   58.2391   24.5863   43.3144 H   0  0  0  0  0  0  0  0  0  0  0  0
   56.2249   23.7551   42.0903 H   0  0  0  0  0  0  0  0  0  0  0  0
   54.2844   22.4253   47.4239 H   0  0  0  0  0  0  0  0  0  0  0  0
   51.4387   22.7619   46.9958 H   0  0  0  0  0  0  0  0  0  0  0  0
   51.8242   21.0061   47.2237 H   0  0  0  0  0  0  0  0  0  0  0  0
   54.4428   21.8646   48.8896 H   0  0  0  0  0  0  0  0  0  0  0  0
   54.6805   22.2314   51.3479 H   0  0  0  0  0  0  0  0  0  0  0  0
   52.6850   22.8321   52.7220 H   0  0  0  0  0  0  0  0  0  0  0  0
   50.4471   23.0742   51.6405 H   0  0  0  0  0  0  0  0  0  0  0  0
   50.2028   22.7171   49.1805 H   0  0  0  0  0  0  0  0  0  0  0  0
   57.3605   21.8054   46.5217 H   0  0  0  0  0  0  0  0  0  0  0  0
   61.0731   25.6852   45.8356 H   0  0  0  0  0  0  0  0  0  0  0  0
   60.8151   28.1304   46.2335 H   0  0  0  0  0  0  0  0  0  0  0  0
   56.6251   32.2465   44.3492 H   0  0  0  0  0  0  0  0  0  0  0  0
   56.8490   34.7157   44.5724 H   0  0  0  0  0  0  0  0  0  0  0  0
   58.3366   35.6902   46.3172 H   0  0  0  0  0  0  0  0  0  0  0  0
   59.4880   35.0650   48.6860 H   0  0  0  0  0  0  0  0  0  0  0  0
   63.6929   33.6187   50.4132 H   0  0  0  0  0  0  0  0  0  0  0  0
   64.2925   34.3839   48.9437 H   0  0  0  0  0  0  0  0  0  0  0  0
   61.6823   34.7189   50.2512 H   0  0  0  0  0  0  0  0  0  0  0  0
   62.2968   35.5797   48.8063 H   0  0  0  0  0  0  0  0  0  0  0  0
   59.3906   31.7050   47.6414 H   0  0  0  0  0  0  0  0  0  0  0  0
  1  2  2  0
  2  3  1  0
  3  4  1  0
  4  5  2  0
  5  6  1  0
  6  7  2  0
  7  8  1  0
  8  9  1  0
  9 10  2  0
 10 11  1  0
 11 12  2  0
 12 13  1  0
 13 14  1  0
 14 15  2  0
 14 16  1  0
 16 17  1  0
 17 18  1  0
 18 19  1  0
 19 20  2  0
 20 21  1  0
 21 22  2  0
 22 23  1  0
 23 24  2  0
 17 25  1  0
 25 26  2  0
 25 27  1  0
 13 28  2  0
  7 29  1  0
 29 30  2  0
  2 31  1  0
 31 32  2  0
 32 33  1  0
 33 34  2  0
 34 35  1  0
 35 36  1  0
 36 37  1  0
 37 38  2  0
 38 39  1  0
 39 40  2  0
 39 41  2  0
 39 42  1  0
 42 43  1  0
 35 44  2  0
 30  4  1  0
 44 31  1  0
 28  9  1  0
 43 37  1  0
 24 19  1  0
  3 45  1  0
  5 46  1  0
  6 47  1  0
  8 48  1  0
  8 49  1  0
 10 50  1  0
 11 51  1  0
 17 52  1  1
 18 53  1  0
 18 54  1  0
 20 55  1  0
 21 56  1  0
 22 57  1  0
 23 58  1  0
 24 59  1  0
 28 60  1  0
 29 61  1  0
 30 62  1  0
 32 63  1  0
 33 64  1  0
 34 65  1  0
 36 66  1  0
 42 67  1  0
 42 68  1  0
 43 69  1  0
 43 70  1  0
 44 71  1  0
M  CHG  2  16  -1  27  -1
M  END
>  <UniqueID>  (46) 
44

>  <SMILES>  (46) 
O=C(Nc1ccc(Cc2ccnc(C(=O)[N-][C@H](Cc3ccccc3)C(=O)[O-])c2)cc1)c1cccc(NC2=NS(=O)(=O)CC2)c1

>  <Energy>  (46) 
92.61115333142725

>  <Genealogy>  (46) 
O=C(Nc1ccc(Cc2ccnc(C(=O)[N-]C(Cc3ccccc3)C(=O)[O-])c2)cc1)c1cccc(NC2=NS(=O)(=O)CC2)c1 (protonated)
O=C(Nc1ccc(Cc2ccnc(C(=O)[N-][C@H](Cc3ccccc3)C(=O)[O-])c2)cc1)c1cccc(NC2=NS(=O)(=O)CC2)c1 (chirality)
O=C(Nc1ccc(Cc2ccnc(C(=O)[N-][C@H](Cc3ccccc3)C(=O)[O-])c2)cc1)c1cccc(NC2=NS(=O)(=O)CC2)c1 (3D coordinates assigned)
O=C(Nc1ccc(Cc2ccnc(C(=O)[N-][C@H](Cc3ccccc3)C(=O)[O-])c2)cc1)c1cccc(NC2=NS(=O)(=O)CC2)c1 (nonaromatic ring conformer: 92.61115333142725 kcal/mol)

>  <smiles>  (46) 
O=C(Nc1ccc(Cc2ccnc(C(=O)NC(Cc3ccccc3)C(=O)O)c2)cc1)c1cccc(NC2=NS(=O)(=O)CC2)c1

>  <score_type>  (46) 
oracle

>  <origin>  (46) 
adg

>  <m_score__min__energy>  (46) 
-17.149999999999999

>  <m_primary>  (46) 
energy

$$$$
46:0
     RDKit          3D

 54 57  0  0  0  0  0  0  0  0999 V2000
   56.6850   31.3700   51.9560 C   0  0  0  0  0  0  0  0  0  0  0  0
   57.4060   31.9100   50.8110 N   0  0  0  0  0  0  0  0  0  0  0  0
   58.6650   31.3600   50.3900 C   0  0  0  0  0  0  0  0  0  0  0  0
   59.1020   30.3130   50.9430 O   0  0  0  0  0  0  0  0  0  0  0  0
   59.4560   31.9910   49.3040 C   0  0  0  0  0  0  0  0  0  0  0  0
   58.7870   32.5930   48.2040 C   0  0  0  0  0  0  0  0  0  0  0  0
   59.5140   33.1940   47.1500 C   0  0  0  0  0  0  0  0  0  0  0  0
   58.8740   33.8430   46.0410 N   0  0  0  0  0  0  0  0  0  0  0  0
   57.7760   33.3320   45.2790 C   0  0  0  0  0  0  0  0  0  0  0  0
   56.6430   33.8780   45.3460 O   0  0  0  0  0  0  0  0  0  0  0  0
   57.9610   32.1340   44.5190 N   0  0  0  0  0  0  0  0  0  0  0  0
   57.8930   30.7870   45.0110 C   0  0  0  0  0  0  0  0  0  0  0  0
   56.8350   29.9720   44.5900 C   0  0  0  0  0  0  0  0  0  0  0  0
   56.7180   28.6610   45.0610 C   0  0  0  0  0  0  0  0  0  0  0  0
   57.6570   28.1480   45.9690 C   0  0  0  0  0  0  0  0  0  0  0  0
   57.5100   26.7460   46.4960 C   0  0  0  0  0  0  0  0  0  0  0  0
   56.3320   26.0670   45.8500 C   0  0  0  0  0  0  0  0  0  0  0  0
   55.1830   26.5580   46.0290 O   0  0  0  0  0  0  0  0  0  0  0  0
   56.4750   24.8600   45.0770 N   0  0  0  0  0  0  0  0  0  0  0  0
   55.3340   24.0910   44.6140 C   0  0  0  0  0  0  0  0  0  0  0  0
   55.9140   22.8290   43.9890 C   0  0  0  0  0  0  0  0  0  0  0  0
   57.3900   23.1290   43.7370 C   0  0  0  0  0  0  0  0  0  0  0  0
   57.7440   24.2870   44.6600 C   0  0  0  0  0  0  0  0  0  0  0  0
   58.7010   28.9720   46.4150 C   0  0  0  0  0  0  0  0  0  0  0  0
   58.8170   30.2840   45.9450 C   0  0  0  0  0  0  0  0  0  0  0  0
   60.9040   33.1950   47.2480 C   0  0  0  0  0  0  0  0  0  0  0  0
   61.7870   33.7150   46.3760 N   0  0  0  0  0  0  0  0  0  0  0  0
   63.0120   33.4520   46.8860 C   0  0  0  0  0  0  0  0  0  0  0  0
   62.9080   32.7610   48.0880 C   0  0  0  0  0  0  0  0  0  0  0  0
   61.5550   32.6100   48.3000 C   0  0  0  0  0  0  0  0  0  0  0  0
   60.8690   31.9900   49.3400 C   0  0  0  0  0  0  0  0  0  0  0  0
   57.1559   31.7227   52.8854 H   0  0  0  0  0  0  0  0  0  0  0  0
   55.6389   31.7087   51.9236 H   0  0  0  0  0  0  0  0  0  0  0  0
   56.7158   30.2709   51.9236 H   0  0  0  0  0  0  0  0  0  0  0  0
   56.9630   32.6860   50.2720 H   0  0  0  0  0  0  0  0  0  0  0  0
   57.6875   32.5915   48.1718 H   0  0  0  0  0  0  0  0  0  0  0  0
   56.0902   30.3664   43.8832 H   0  0  0  0  0  0  0  0  0  0  0  0
   55.8859   28.0285   44.7182 H   0  0  0  0  0  0  0  0  0  0  0  0
   58.4244   26.1766   46.2731 H   0  0  0  0  0  0  0  0  0  0  0  0
   57.3479   26.7871   47.5832 H   0  0  0  0  0  0  0  0  0  0  0  0
   54.6768   23.8340   45.4578 H   0  0  0  0  0  0  0  0  0  0  0  0
   54.7270   24.6589   43.8936 H   0  0  0  0  0  0  0  0  0  0  0  0
   55.8084   21.9775   44.6773 H   0  0  0  0  0  0  0  0  0  0  0  0
   55.3912   22.5611   43.0590 H   0  0  0  0  0  0  0  0  0  0  0  0
   58.0053   22.2486   43.9744 H   0  0  0  0  0  0  0  0  0  0  0  0
   57.5765   23.3813   42.6827 H   0  0  0  0  0  0  0  0  0  0  0  0
   58.3060   23.9236   45.5330 H   0  0  0  0  0  0  0  0  0  0  0  0
   58.3782   25.0300   44.1542 H   0  0  0  0  0  0  0  0  0  0  0  0
   59.4328   28.5838   47.1388 H   0  0  0  0  0  0  0  0  0  0  0  0
   59.6341   30.9253   46.3071 H   0  0  0  0  0  0  0  0  0  0  0  0
   61.5780   34.2140   45.4830 H   0  0  0  0  0  0  0  0  0  0  0  0
   63.9614   33.7450   46.4139 H   0  0  0  0  0  0  0  0  0  0  0  0
   63.7288   32.4105   48.7310 H   0  0  0  0  0  0  0  0  0  0  0  0
   61.4122   31.5117   50.1684 H   0  0  0  0  0  0  0  0  0  0  0  0
  1  2  1  0
  2  3  1  0
  3  4  2  0
  3  5  1  0
  5  6  2  0
  6  7  1  0
  7  8  1  0
  8  9  1  0
  9 10  2  0
  9 11  1  0
 11 12  1  0
 12 13  2  0
 13 14  1  0
 14 15  2  0
 15 16  1  0
 16 17  1  0
 17 18  2  0
 17 19  1  0
 19 20  1  0
 20 21  1  0
 21 22  1  0
 22 23  1  0
 15 24  1  0
 24 25  2  0
  7 26  2  0
 26 27  1  0
 27 28  1  0
 28 29  2  0
 29 30  1  0
 30 31  2  0
 31  5  1  0
 25 12  1  0
 30 26  1  0
 23 19  1  0
  1 32  1  0
  1 33  1  0
  1 34  1  0
  2 35  1  0
  6 36  1  0
 13 37  1  0
 14 38  1  0
 16 39  1  0
 16 40  1  0
 20 41  1  0
 20 42  1  0
 21 43  1  0
 21 44  1  0
 22 45  1  0
 22 46  1  0
 23 47  1  0
 23 48  1  0
 24 49  1  0
 25 50  1  0
 27 51  1  0
 28 52  1  0
 29 53  1  0
 31 54  1  0
M  CHG  2   8  -1  11  -1
M  END
>  <UniqueID>  (47) 
45

>  <SMILES>  (47) 
CNC(=O)c1cc([N-]C(=O)[N-]c2ccc(CC(=O)N3CCCC3)cc2)c2[nH]ccc2c1

>  <Energy>  (47) 
93.04292039361108

>  <Genealogy>  (47) 
CNC(=O)c1cc([N-]C(=O)[N-]c2ccc(CC(=O)N3CCCC3)cc2)c2[nH]ccc2c1 (protonated)
CNC(=O)c1cc([N-]C(=O)[N-]c2ccc(CC(=O)N3CCCC3)cc2)c2[nH]ccc2c1 (3D coordinates assigned)
CNC(=O)c1cc([N-]C(=O)[N-]c2ccc(CC(=O)N3CCCC3)cc2)c2[nH]ccc2c1 (nonaromatic ring conformer: 93.04292039361108 kcal/mol)

>  <smiles>  (47) 
CNC(=O)c1cc(NC(=O)Nc2ccc(CC(=O)N3CCCC3)cc2)c2[nH]ccc2c1

>  <score_type>  (47) 
oracle

>  <origin>  (47) 
adg

>  <m_score__min__energy>  (47) 
-12.550000000000001

>  <m_primary>  (47) 
energy

$$$$
47:0
     RDKit          3D

 54 56  0  0  0  0  0  0  0  0999 V2000
   57.9105   33.7868   43.1638 H   0  0  0  0  0  0  0  0  0  0  0  0
   58.1430   33.0800   43.9740 C   0  0  0  0  0  0  0  0  0  0  0  0
   58.8070   33.5330   45.1200 C   0  0  0  0  0  0  0  0  0  0  0  0
   59.2010   34.9750   45.2540 C   0  0  0  0  0  0  0  0  0  0  0  0
   59.2729   35.2380   46.3197 H   0  0  0  0  0  0  0  0  0  0  0  0
   60.1758   35.1352   44.7703 H   0  0  0  0  0  0  0  0  0  0  0  0
   58.4431   35.6087   44.7703 H   0  0  0  0  0  0  0  0  0  0  0  0
   59.0380   32.6480   46.1760 C   0  0  0  0  0  0  0  0  0  0  0  0
   59.5157   33.0145   47.0966 H   0  0  0  0  0  0  0  0  0  0  0  0
   58.6690   31.2990   46.0780 C   0  0  0  0  0  0  0  0  0  0  0  0
   58.8430   30.4340   47.2970 C   0  0  0  0  0  0  0  0  0  0  0  0
   58.7197   31.0469   48.2021 H   0  0  0  0  0  0  0  0  0  0  0  0
   58.0877   29.6343   47.2900 H   0  0  0  0  0  0  0  0  0  0  0  0
   59.8487   29.9885   47.2900 H   0  0  0  0  0  0  0  0  0  0  0  0
   58.1140   30.8130   44.8650 C   0  0  0  0  0  0  0  0  0  0  0  0
   57.8640   29.4130   44.6470 N   0  0  0  0  0  0  0  0  0  0  0  0
   56.7090   28.6730   45.0740 C   0  0  0  0  0  0  0  0  0  0  0  0
   55.5680   29.1640   44.8690 O   0  0  0  0  0  0  0  0  0  0  0  0
   56.8110   27.3780   45.7730 C   0  0  0  0  0  0  0  0  0  0  0  0
   55.5040   26.3320   45.9960 S   0  0  0  0  0  0  0  0  0  0  0  0
   56.3960   25.2750   46.9440 C   0  0  0  0  0  0  0  0  0  0  0  0
   55.8950   24.2380   47.5450 N   0  0  0  0  0  0  0  0  0  0  0  0
   56.7070   23.1110   48.0020 C   0  0  0  0  0  0  0  0  0  0  0  0
   57.7110   23.4723   48.2694 H   0  0  0  0  0  0  0  0  0  0  0  0
   56.2240   22.6549   48.8788 H   0  0  0  0  0  0  0  0  0  0  0  0
   56.8280   22.0510   46.8890 C   0  0  0  0  0  0  0  0  0  0  0  0
   57.0867   21.0858   47.3489 H   0  0  0  0  0  0  0  0  0  0  0  0
   55.8612   22.0064   46.3662 H   0  0  0  0  0  0  0  0  0  0  0  0
   57.9010   22.4030   45.8500 C   0  0  0  0  0  0  0  0  0  0  0  0
   58.1719   23.4634   45.9603 H   0  0  0  0  0  0  0  0  0  0  0  0
   58.7748   21.7573   46.0219 H   0  0  0  0  0  0  0  0  0  0  0  0
   57.4180   22.1730   44.4830 N   0  0  0  0  0  0  0  0  0  0  0  0
   57.1960   20.9710   43.9170 C   0  0  0  0  0  0  0  0  0  0  0  0
   57.3714   19.9944   44.3919 H   0  0  0  0  0  0  0  0  0  0  0  0
   56.7110   21.1720   42.6400 C   0  0  0  0  0  0  0  0  0  0  0  0
   56.4318   20.3804   41.9291 H   0  0  0  0  0  0  0  0  0  0  0  0
   56.6360   22.4950   42.4080 N   0  0  0  0  0  0  0  0  0  0  0  0
   56.2920   22.9620   41.5390 H   0  0  0  0  0  0  0  0  0  0  0  0
   57.0750   23.0860   43.5380 C   0  0  0  0  0  0  0  0  0  0  0  0
   57.0810   24.5700   43.7290 C   0  0  0  0  0  0  0  0  0  0  0  0
   57.0819   24.8013   44.8044 H   0  0  0  0  0  0  0  0  0  0  0  0
   57.9809   24.9962   43.2615 H   0  0  0  0  0  0  0  0  0  0  0  0
   56.1846   25.0035   43.2615 H   0  0  0  0  0  0  0  0  0  0  0  0
   57.6850   25.6620   47.0680 N   0  0  0  0  0  0  0  0  0  0  0  0
   57.9320   26.8200   46.4040 C   0  0  0  0  0  0  0  0  0  0  0  0
   59.3160   27.3810   46.3500 C   0  0  0  0  0  0  0  0  0  0  0  0
   59.6903   27.5327   47.3732 H   0  0  0  0  0  0  0  0  0  0  0  0
   59.9756   26.6793   45.8185 H   0  0  0  0  0  0  0  0  0  0  0  0
   59.3008   28.3440   45.8185 H   0  0  0  0  0  0  0  0  0  0  0  0
   57.7710   31.7320   43.8490 C   0  0  0  0  0  0  0  0  0  0  0  0
   57.0990   31.2750   42.5810 C   0  0  0  0  0  0  0  0  0  0  0  0
   56.2134   30.6727   42.8319 H   0  0  0  0  0  0  0  0  0  0  0  0
   56.7913   32.1519   41.9925 H   0  0  0  0  0  0  0  0  0  0  0  0
   57.8015   30.6666   41.9925 H   0  0  0  0  0  0  0  0  0  0  0  0
  1  2  1  0
  2  3  2  0
  3  4  1  0
  4  5  1  0
  4  6  1  0
  4  7  1  0
  3  8  1  0
  8  9  1  0
  8 10  2  0
 10 11  1  0
 11 12  1  0
 11 13  1  0
 11 14  1  0
 10 15  1  0
 15 16  1  0
 16 17  1  0
 17 18  2  0
 17 19  1  0
 19 20  1  0
 20 21  1  0
 21 22  2  0
 22 23  1  0
 23 24  1  0
 23 25  1  0
 23 26  1  0
 26 27  1  0
 26 28  1  0
 26 29  1  0
 29 30  1  0
 29 31  1  0
 29 32  1  0
 32 33  1  0
 33 34  1  0
 33 35  2  0
 35 36  1  0
 35 37  1  0
 37 38  1  0
 37 39  2  0
 39 40  1  0
 40 41  1  0
 40 42  1  0
 40 43  1  0
 21 44  1  0
 44 45  1  0
 45 46  1  0
 46 47  1  0
 46 48  1  0
 46 49  1  0
 15 50  2  0
 50 51  1  0
 51 52  1  0
 51 53  1  0
 51 54  1  0
 50  2  1  0
 45 19  2  0
 39 32  1  0
M  CHG  3  16  -1  37   1  44  -1
M  END
>  <UniqueID>  (48) 
46

>  <SMILES>  (48) 
Cc1cc(C)c([N-]C(=O)c2s/c(=N/CCCn3cc[nH+]c3C)[n-]c2C)c(C)c1

>  <Energy>  (48) 
115.70387130324842

>  <Genealogy>  (48) 
Cc1cc(C)c([N-]C(=O)c2sc(=NCCCn3cc[nH+]c3C)[n-]c2C)c(C)c1 (protonated)
Cc1cc(C)c([N-]C(=O)c2s/c(=N/CCCn3cc[nH+]c3C)[n-]c2C)c(C)c1 (cis-trans isomerization)
Cc1cc(C)c([N-]C(=O)c2s/c(=N/CCCn3cc[nH+]c3C)[n-]c2C)c(C)c1 (3D coordinates assigned)
Cc1cc(C)c([N-]C(=O)c2s/c(=N/CCCn3cc[nH+]c3C)[n-]c2C)c(C)c1 (optimized conformer: 115.70387130324842 kcal/mol)

>  <smiles>  (48) 
Cc1cc(C)c(NC(=O)c2sc(=NCCCn3ccnc3C)[nH]c2C)c(C)c1

>  <score_type>  (48) 
oracle

>  <origin>  (48) 
adg

>  <m_score__min__energy>  (48) 
-9.5199999999999996

>  <m_primary>  (48) 
energy

$$$$
48:0
     RDKit          3D

 47 49  0  0  0  0  0  0  0  0999 V2000
   55.5120   29.1480   44.8480 N   0  0  0  0  0  0  0  0  0  0  0  0
   57.2000   29.4120   45.1170 S   0  0  0  0  0  0  0  0  0  0  0  0
   57.3950   30.3600   46.2670 O   0  0  0  0  0  0  0  0  0  0  0  0
   57.7820   30.0350   43.8790 O   0  0  0  0  0  0  0  0  0  0  0  0
   58.0100   27.8720   45.4590 C   0  0  0  0  0  0  0  0  0  0  0  0
   57.5660   26.7080   44.8100 C   0  0  0  0  0  0  0  0  0  0  0  0
   58.1530   25.4710   45.0840 C   0  0  0  0  0  0  0  0  0  0  0  0
   59.1910   25.3800   46.0120 C   0  0  0  0  0  0  0  0  0  0  0  0
   59.6490   26.5260   46.6640 C   0  0  0  0  0  0  0  0  0  0  0  0
   59.0740   27.7780   46.3900 C   0  0  0  0  0  0  0  0  0  0  0  0
   59.6040   28.9610   47.0910 C   0  0  0  0  0  0  0  0  0  0  0  0
   59.0040   29.4010   48.2790 C   0  0  0  0  0  0  0  0  0  0  0  0
   59.4830   30.5450   48.9240 C   0  0  0  0  0  0  0  0  0  0  0  0
   60.5590   31.2600   48.3850 C   0  0  0  0  0  0  0  0  0  0  0  0
   61.0060   32.4490   49.0450 N   0  0  0  0  0  0  0  0  0  0  0  0
   61.3360   33.6820   48.3890 C   0  0  0  0  0  0  0  0  0  0  0  0
   61.7670   34.6400   49.0820 O   0  0  0  0  0  0  0  0  0  0  0  0
   61.1060   33.8910   46.9120 C   0  0  0  0  0  0  0  0  0  0  0  0
   59.8480   34.7520   46.6340 C   0  0  0  0  0  0  0  0  0  0  0  0
   59.5330   34.8680   45.1180 C   0  0  0  0  0  0  0  0  0  0  0  0
   58.4620   33.8650   44.6490 C   0  0  0  0  0  0  0  0  0  0  0  0
   58.5390   32.6300   45.4350 N   0  0  0  0  0  0  0  0  0  0  0  0
   58.1310   32.8540   46.8320 C   0  0  0  0  0  0  0  0  0  0  0  0
   58.6280   34.2040   47.3990 C   0  0  0  0  0  0  0  0  0  0  0  0
   61.2050   30.7790   47.2340 C   0  0  0  0  0  0  0  0  0  0  0  0
   62.3180   31.3940   46.7590 F   0  0  0  0  0  0  0  0  0  0  0  0
   60.7230   29.6380   46.5870 C   0  0  0  0  0  0  0  0  0  0  0  0
   55.1460   28.6090   45.6620 H   0  0  0  0  0  0  0  0  0  0  0  0
   56.7472   26.7716   44.0782 H   0  0  0  0  0  0  0  0  0  0  0  0
   57.7967   24.5674   44.5677 H   0  0  0  0  0  0  0  0  0  0  0  0
   59.6489   24.4039   46.2300 H   0  0  0  0  0  0  0  0  0  0  0  0
   60.4654   26.4482   47.3971 H   0  0  0  0  0  0  0  0  0  0  0  0
   58.1552   28.8454   48.7042 H   0  0  0  0  0  0  0  0  0  0  0  0
   59.0126   30.8846   49.8586 H   0  0  0  0  0  0  0  0  0  0  0  0
   61.9839   34.3974   46.4845 H   0  0  0  0  0  0  0  0  0  0  0  0
   60.9501   32.9047   46.4506 H   0  0  0  0  0  0  0  0  0  0  0  0
   60.0696   35.7660   46.9982 H   0  0  0  0  0  0  0  0  0  0  0  0
   59.1739   35.8870   44.9113 H   0  0  0  0  0  0  0  0  0  0  0  0
   60.4596   34.6411   44.5704 H   0  0  0  0  0  0  0  0  0  0  0  0
   57.4655   34.3134   44.7753 H   0  0  0  0  0  0  0  0  0  0  0  0
   58.6373   33.6252   43.5899 H   0  0  0  0  0  0  0  0  0  0  0  0
   57.8840   31.9320   45.0110 H   0  0  0  0  0  0  0  0  0  0  0  0
   57.0323   32.8357   46.8833 H   0  0  0  0  0  0  0  0  0  0  0  0
   58.5844   32.0562   47.4385 H   0  0  0  0  0  0  0  0  0  0  0  0
   57.8108   34.9372   47.3315 H   0  0  0  0  0  0  0  0  0  0  0  0
   58.9353   34.0357   48.4417 H   0  0  0  0  0  0  0  0  0  0  0  0
   61.2234   29.2700   45.6792 H   0  0  0  0  0  0  0  0  0  0  0  0
  1  2  1  0
  2  3  2  0
  2  4  2  0
  2  5  1  0
  5  6  2  0
  6  7  1  0
  7  8  2  0
  8  9  1  0
  9 10  2  0
 10 11  1  0
 11 12  2  0
 12 13  1  0
 13 14  2  0
 14 15  1  0
 15 16  1  0
 16 17  2  0
 16 18  1  0
 18 19  1  0
 19 20  1  0
 20 21  1  0
 21 22  1  0
 22 23  1  0
 23 24  1  0
 14 25  1  0
 25 26  1  0
 25 27  2  0
 10  5  1  0
 27 11  1  0
 24 19  1  0
  1 28  1  0
  6 29  1  0
  7 30  1  0
  8 31  1  0
  9 32  1  0
 12 33  1  0
 13 34  1  0
 18 35  1  0
 18 36  1  0
 19 37  1  0
 20 38  1  0
 20 39  1  0
 21 40  1  0
 21 41  1  0
 22 42  1  0
 23 43  1  0
 23 44  1  0
 24 45  1  0
 24 46  1  0
 27 47  1  0
M  CHG  2   1  -1  15  -1
M  END
>  <UniqueID>  (49) 
47

>  <SMILES>  (49) 
[NH-]S(=O)(=O)c1ccccc1-c1ccc([N-]C(=O)CC2CCNCC2)c(F)c1

>  <Energy>  (49) 
65.03838779268769

>  <Genealogy>  (49) 
[NH-]S(=O)(=O)c1ccccc1-c1ccc([N-]C(=O)CC2CCNCC2)c(F)c1 (protonated)
[NH-]S(=O)(=O)c1ccccc1-c1ccc([N-]C(=O)CC2CCNCC2)c(F)c1 (3D coordinates assigned)
[NH-]S(=O)(=O)c1ccccc1-c1ccc([N-]C(=O)CC2CCNCC2)c(F)c1 (nonaromatic ring conformer: 65.03838779268769 kcal/mol)

>  <smiles>  (49) 
NS(=O)(=O)c1ccccc1-c1ccc(NC(=O)CC2CCNCC2)c(F)c1

>  <score_type>  (49) 
oracle

>  <origin>  (49) 
adg

>  <m_score__min__energy>  (49) 
-12.199999999999999

>  <m_primary>  (49) 
energy

$$$$
49:0
     RDKit          3D

 68 73  0  0  0  0  0  0  0  0999 V2000
   57.7280   28.9810   52.0030 O   0  0  0  0  0  0  0  0  0  0  0  0
   58.6910   29.5100   51.3820 C   0  0  0  0  0  0  0  0  0  0  0  0
   59.6060   28.6900   50.6470 N   0  0  0  0  0  0  0  0  0  0  0  0
   59.6460   28.6050   49.2170 C   0  0  0  0  0  0  0  0  0  0  0  0
   60.2370   27.4900   48.6130 C   0  0  0  0  0  0  0  0  0  0  0  0
   60.2660   27.3780   47.2210 C   0  0  0  0  0  0  0  0  0  0  0  0
   59.6750   28.3630   46.4230 C   0  0  0  0  0  0  0  0  0  0  0  0
   59.0360   29.4650   47.0150 C   0  0  0  0  0  0  0  0  0  0  0  0
   58.3440   30.4740   46.1830 C   0  0  0  0  0  0  0  0  0  0  0  0
   57.4290   30.1190   45.3910 O   0  0  0  0  0  0  0  0  0  0  0  0
   58.6810   31.8680   46.2940 N   0  0  0  0  0  0  0  0  0  0  0  0
   57.6460   32.8420   45.9170 C   0  0  0  0  0  0  0  0  0  0  0  0
   57.9300   34.2120   46.5320 C   0  0  0  0  0  0  0  0  0  0  0  0
   59.3160   34.6970   46.1180 C   0  0  0  0  0  0  0  0  0  0  0  0
   60.3710   33.6770   46.4610 C   0  0  0  0  0  0  0  0  0  0  0  0
   61.6940   34.0960   46.6700 C   0  0  0  0  0  0  0  0  0  0  0  0
   62.6860   33.1690   46.9910 C   0  0  0  0  0  0  0  0  0  0  0  0
   62.3650   31.8160   47.1080 C   0  0  0  0  0  0  0  0  0  0  0  0
   61.0570   31.3820   46.8820 C   0  0  0  0  0  0  0  0  0  0  0  0
   60.0460   32.3000   46.5270 C   0  0  0  0  0  0  0  0  0  0  0  0
   59.0370   29.5850   48.4160 C   0  0  0  0  0  0  0  0  0  0  0  0
   58.8840   30.9720   51.4200 C   0  0  0  0  0  0  0  0  0  0  0  0
   60.1140   31.4940   50.9860 C   0  0  0  0  0  0  0  0  0  0  0  0
   60.3830   32.8640   51.0830 C   0  0  0  0  0  0  0  0  0  0  0  0
   61.9670   33.4920   50.6260 S   0  0  0  0  0  0  0  0  0  0  0  0
   61.7920   34.5580   49.5810 O   0  0  0  0  0  0  0  0  0  0  0  0
   62.5980   34.1330   51.8290 O   0  0  0  0  0  0  0  0  0  0  0  0
   63.0350   32.2450   50.0150 N   0  0  0  0  0  0  0  0  0  0  0  0
   64.3550   32.7720   49.6060 C   0  0  0  0  0  0  0  0  0  0  0  0
   65.4570   32.5010   50.6440 C   0  0  0  0  0  0  0  0  0  0  0  0
   64.9100   32.4570   51.9420 O   0  0  0  0  0  0  0  0  0  0  0  0
   64.1140   31.2980   52.0880 C   0  0  0  0  0  0  0  0  0  0  0  0
   63.1260   31.0820   50.9160 C   0  0  0  0  0  0  0  0  0  0  0  0
   59.3970   33.7280   51.5740 C   0  0  0  0  0  0  0  0  0  0  0  0
   58.1620   33.2240   51.9840 C   0  0  0  0  0  0  0  0  0  0  0  0
   57.8960   31.8510   51.9150 C   0  0  0  0  0  0  0  0  0  0  0  0
   56.5950   31.3880   52.2820 N   0  0  0  0  0  0  0  0  0  0  0  0
   55.1280   31.1930   52.0740 C   0  0  0  0  0  0  0  0  0  0  0  0
   55.6640   30.7580   53.2660 C   0  0  0  0  0  0  0  0  0  0  0  0
   60.6801   26.6992   49.2361 H   0  0  0  0  0  0  0  0  0  0  0  0
   60.7553   26.5122   46.7508 H   0  0  0  0  0  0  0  0  0  0  0  0
   59.7107   28.2743   45.3272 H   0  0  0  0  0  0  0  0  0  0  0  0
   57.6245   32.9375   44.8214 H   0  0  0  0  0  0  0  0  0  0  0  0
   56.6760   32.4844   46.2929 H   0  0  0  0  0  0  0  0  0  0  0  0
   57.1740   34.9309   46.1831 H   0  0  0  0  0  0  0  0  0  0  0  0
   57.8908   34.1290   47.6282 H   0  0  0  0  0  0  0  0  0  0  0  0
   59.3258   34.8732   45.0322 H   0  0  0  0  0  0  0  0  0  0  0  0
   59.5383   35.6269   46.6619 H   0  0  0  0  0  0  0  0  0  0  0  0
   61.9504   35.1619   46.5802 H   0  0  0  0  0  0  0  0  0  0  0  0
   63.7211   33.5046   47.1519 H   0  0  0  0  0  0  0  0  0  0  0  0
   63.1447   31.0890   47.3791 H   0  0  0  0  0  0  0  0  0  0  0  0
   60.8125   30.3142   46.9817 H   0  0  0  0  0  0  0  0  0  0  0  0
   58.5565   30.4542   48.8889 H   0  0  0  0  0  0  0  0  0  0  0  0
   60.8737   30.8187   50.5655 H   0  0  0  0  0  0  0  0  0  0  0  0
   64.6432   32.2974   48.6564 H   0  0  0  0  0  0  0  0  0  0  0  0
   64.2576   33.8631   49.5061 H   0  0  0  0  0  0  0  0  0  0  0  0
   65.9365   31.5367   50.4200 H   0  0  0  0  0  0  0  0  0  0  0  0
   66.1985   33.3122   50.5969 H   0  0  0  0  0  0  0  0  0  0  0  0
   64.7785   30.4236   52.1501 H   0  0  0  0  0  0  0  0  0  0  0  0
   63.5136   31.4280   53.0005 H   0  0  0  0  0  0  0  0  0  0  0  0
   63.4604   30.2119   50.3319 H   0  0  0  0  0  0  0  0  0  0  0  0
   62.1284   30.9261   51.3524 H   0  0  0  0  0  0  0  0  0  0  0  0
   59.5964   34.8079   51.6368 H   0  0  0  0  0  0  0  0  0  0  0  0
   57.3914   33.9107   52.3644 H   0  0  0  0  0  0  0  0  0  0  0  0
   54.4600   32.0669   52.0660 H   0  0  0  0  0  0  0  0  0  0  0  0
   54.5264   30.7130   51.2881 H   0  0  0  0  0  0  0  0  0  0  0  0
   55.4182   31.2890   54.1975 H   0  0  0  0  0  0  0  0  0  0  0  0
   55.6556   29.7962   53.7998 H   0  0  0  0  0  0  0  0  0  0  0  0
  1  2  2  0
  2  3  1  0
  3  4  1  0
  4  5  2  0
  5  6  1  0
  6  7  2  0
  7  8  1  0
  8  9  1  0
  9 10  2  0
  9 11  1  0
 11 12  1  0
 12 13  1  0
 13 14  1  0
 14 15  1  0
 15 16  2  0
 16 17  1  0
 17 18  2  0
 18 19  1  0
 19 20  2  0
  8 21  2  0
  2 22  1  0
 22 23  2  0
 23 24  1  0
 24 25  1  0
 25 26  2  0
 25 27  2  0
 25 28  1  0
 28 29  1  0
 29 30  1  0
 30 31  1  0
 31 32  1  0
 32 33  1  0
 24 34  2  0
 34 35  1  0
 35 36  2  0
 36 37  1  0
 37 38  1  0
 38 39  1  0
 21  4  1  0
 36 22  1  0
 39 37  1  0
 20 11  1  0
 33 28  1  0
 20 15  1  0
  5 40  1  0
  6 41  1  0
  7 42  1  0
 12 43  1  0
 12 44  1  0
 13 45  1  0
 13 46  1  0
 14 47  1  0
 14 48  1  0
 16 49  1  0
 17 50  1  0
 18 51  1  0
 19 52  1  0
 21 53  1  0
 23 54  1  0
 29 55  1  0
 29 56  1  0
 30 57  1  0
 30 58  1  0
 32 59  1  0
 32 60  1  0
 33 61  1  0
 33 62  1  0
 34 63  1  0
 35 64  1  0
 38 65  1  0
 38 66  1  0
 39 67  1  0
 39 68  1  0
M  CHG  1   3  -1
M  END
>  <UniqueID>  (50) 
48

>  <SMILES>  (50) 
O=C([N-]c1cccc(C(=O)N2CCCc3ccccc32)c1)c1cc(S(=O)(=O)N2CCOCC2)ccc1N1CC1

>  <Energy>  (50) 
330.39760434437414

>  <Genealogy>  (50) 
O=C([N-]c1cccc(C(=O)N2CCCc3ccccc32)c1)c1cc(S(=O)(=O)N2CCOCC2)ccc1N1CC1 (protonated)
O=C([N-]c1cccc(C(=O)N2CCCc3ccccc32)c1)c1cc(S(=O)(=O)N2CCOCC2)ccc1N1CC1 (3D coordinates assigned)
O=C([N-]c1cccc(C(=O)N2CCCc3ccccc32)c1)c1cc(S(=O)(=O)N2CCOCC2)ccc1N1CC1 (nonaromatic ring conformer: 330.39760434437414 kcal/mol)

>  <smiles>  (50) 
O=C(Nc1cccc(C(=O)N2CCCc3ccccc32)c1)c1cc(S(=O)(=O)N2CCOCC2)ccc1N1CC1

>  <score_type>  (50) 
oracle

>  <origin>  (50) 
adg

>  <m_score__min__energy>  (50) 
-12.9

>  <m_primary>  (50) 
energy

$$$$
50:0
     RDKit          3D

 46 49  0  0  0  0  0  0  0  0999 V2000
   57.6920   31.1810   52.4350 C   0  0  0  0  0  0  0  0  0  0  0  0
   56.4050   30.8310   52.4860 C   0  0  0  0  0  0  0  0  0  0  0  0
   55.5000   31.2230   51.5660 N   0  0  0  0  0  0  0  0  0  0  0  0
   54.3020   30.7500   51.9730 C   0  0  0  0  0  0  0  0  0  0  0  0
   53.1420   30.9040   51.3160 C   0  0  0  0  0  0  0  0  0  0  0  0
   51.9400   31.5230   51.8980 C   0  0  0  0  0  0  0  0  0  0  0  0
   51.6450   31.4730   53.2090 N   0  0  0  0  0  0  0  0  0  0  0  0
   50.5300   32.2290   53.3090 C   0  0  0  0  0  0  0  0  0  0  0  0
   49.9350   32.4170   54.4020 O   0  0  0  0  0  0  0  0  0  0  0  0
   50.1130   32.7790   52.1500 N   0  0  0  0  0  0  0  0  0  0  0  0
   51.0210   32.3340   51.2680 C   0  0  0  0  0  0  0  0  0  0  0  0
   51.0360   32.7000   49.9270 O   0  0  0  0  0  0  0  0  0  0  0  0
   54.4400   30.0340   53.1510 C   0  0  0  0  0  0  0  0  0  0  0  0
   55.7840   30.0770   53.4770 C   0  0  0  0  0  0  0  0  0  0  0  0
   56.3870   29.4260   54.6570 C   0  0  0  0  0  0  0  0  0  0  0  0
   55.7500   29.4280   55.7450 O   0  0  0  0  0  0  0  0  0  0  0  0
   57.6640   28.7670   54.5800 N   0  0  0  0  0  0  0  0  0  0  0  0
   57.8980   27.7750   53.5220 C   0  0  0  0  0  0  0  0  0  0  0  0
   59.3790   27.7330   53.1370 C   0  0  0  0  0  0  0  0  0  0  0  0
   60.2130   27.6790   54.3420 N   0  0  0  0  0  0  0  0  0  0  0  0
   61.4170   26.8860   54.3620 C   0  0  0  0  0  0  0  0  0  0  0  0
   62.0340   26.5120   53.1570 C   0  0  0  0  0  0  0  0  0  0  0  0
   63.2040   25.7460   53.1710 C   0  0  0  0  0  0  0  0  0  0  0  0
   63.7660   25.3480   54.3870 C   0  0  0  0  0  0  0  0  0  0  0  0
   63.1600   25.7160   55.5910 C   0  0  0  0  0  0  0  0  0  0  0  0
   61.9910   26.4840   55.5810 C   0  0  0  0  0  0  0  0  0  0  0  0
   59.9840   28.6890   55.3790 C   0  0  0  0  0  0  0  0  0  0  0  0
   58.5080   28.7030   55.7770 C   0  0  0  0  0  0  0  0  0  0  0  0
   58.3879   30.8328   53.2125 H   0  0  0  0  0  0  0  0  0  0  0  0
   58.0568   31.8176   51.6155 H   0  0  0  0  0  0  0  0  0  0  0  0
   55.7080   31.7640   50.6970 H   0  0  0  0  0  0  0  0  0  0  0  0
   53.0859   30.5452   50.2777 H   0  0  0  0  0  0  0  0  0  0  0  0
   53.6403   29.5314   53.7149 H   0  0  0  0  0  0  0  0  0  0  0  0
   57.5906   26.7825   53.8833 H   0  0  0  0  0  0  0  0  0  0  0  0
   57.3104   28.0577   52.6361 H   0  0  0  0  0  0  0  0  0  0  0  0
   59.5698   26.8408   52.5225 H   0  0  0  0  0  0  0  0  0  0  0  0
   59.6283   28.6406   52.5677 H   0  0  0  0  0  0  0  0  0  0  0  0
   61.5949   26.8231   52.1976 H   0  0  0  0  0  0  0  0  0  0  0  0
   63.6824   25.4565   52.2238 H   0  0  0  0  0  0  0  0  0  0  0  0
   64.6858   24.7448   54.3963 H   0  0  0  0  0  0  0  0  0  0  0  0
   63.6027   25.4015   56.5476 H   0  0  0  0  0  0  0  0  0  0  0  0
   61.5187   26.7747   56.5309 H   0  0  0  0  0  0  0  0  0  0  0  0
   60.5970   28.4514   56.2609 H   0  0  0  0  0  0  0  0  0  0  0  0
   60.2622   29.6786   54.9875 H   0  0  0  0  0  0  0  0  0  0  0  0
   58.2739   27.7866   56.3386 H   0  0  0  0  0  0  0  0  0  0  0  0
   58.3123   29.5860   56.4031 H   0  0  0  0  0  0  0  0  0  0  0  0
  1  2  2  0
  2  3  1  0
  3  4  1  0
  4  5  2  3
  5  6  1  0
  6  7  1  0
  7  8  1  0
  8  9  2  0
  8 10  1  0
 10 11  1  0
 11 12  1  0
  4 13  1  0
 13 14  2  0
 14 15  1  0
 15 16  2  0
 15 17  1  0
 17 18  1  0
 18 19  1  0
 19 20  1  0
 20 21  1  0
 21 22  2  0
 22 23  1  0
 23 24  2  0
 24 25  1  0
 25 26  2  0
 20 27  1  0
 27 28  1  0
 14  2  1  0
 28 17  1  0
 11  6  2  0
 26 21  1  0
  1 29  1  0
  1 30  1  0
  3 31  1  0
  5 32  1  0
 13 33  1  0
 18 34  1  0
 18 35  1  0
 19 36  1  0
 19 37  1  0
 22 38  1  0
 23 39  1  0
 24 40  1  0
 25 41  1  0
 26 42  1  0
 27 43  1  0
 27 44  1  0
 28 45  1  0
 28 46  1  0
M  CHG  3   7  -1  10  -1  12  -1
M  END
>  <UniqueID>  (51) 
49

>  <SMILES>  (51) 
C=c1[nH]c(=Cc2[n-]c(=O)[n-]c2[O-])cc1C(=O)N1CCN(c2ccccc2)CC1

>  <Energy>  (51) 
118.73005770041323

>  <Genealogy>  (51) 
C=c1[nH]c(=Cc2[n-]c(=O)[n-]c2[O-])cc1C(=O)N1CCN(c2ccccc2)CC1 (protonated)
C=c1[nH]c(=Cc2[n-]c(=O)[n-]c2[O-])cc1C(=O)N1CCN(c2ccccc2)CC1 (3D coordinates assigned)
C=c1[nH]c(=Cc2[n-]c(=O)[n-]c2[O-])cc1C(=O)N1CCN(c2ccccc2)CC1 (nonaromatic ring conformer: 118.73005770041323 kcal/mol)

>  <smiles>  (51) 
C=c1[nH]c(=Cc2[nH]c(=O)[nH]c2O)cc1C(=O)N1CCN(c2ccccc2)CC1

>  <score_type>  (51) 
oracle

>  <origin>  (51) 
adg

>  <m_score__min__energy>  (51) 
-17.719999999999999

>  <m_primary>  (51) 
energy

$$$$
51:0
     RDKit          3D

 28 29  0  0  0  0  0  0  0  0999 V2000
   55.1920   29.4870   44.8370 O   0  0  0  0  0  0  0  0  0  0  0  0
   56.3610   29.6550   44.3950 C   0  0  0  0  0  0  0  0  0  0  0  0
   57.1330   28.5300   43.9630 N   0  0  0  0  0  0  0  0  0  0  0  0
   58.5610   28.4080   44.2230 C   0  0  0  0  0  0  0  0  0  0  0  0
   58.8050   27.2700   45.2160 C   0  0  0  0  0  0  0  0  0  0  0  0
   57.8730   27.3480   46.4330 C   0  0  0  0  0  0  0  0  0  0  0  0
   57.1900   26.0370   46.6980 C   0  0  0  0  0  0  0  0  0  0  0  0
   57.7870   24.9880   47.2910 N   0  0  0  0  0  0  0  0  0  0  0  0
   56.8020   24.0680   47.3630 C   0  0  0  0  0  0  0  0  0  0  0  0
   56.9750   22.9270   47.8640 O   0  0  0  0  0  0  0  0  0  0  0  0
   55.6140   24.4690   46.8620 N   0  0  0  0  0  0  0  0  0  0  0  0
   55.8720   25.7190   46.4460 C   0  0  0  0  0  0  0  0  0  0  0  0
   54.9180   26.5430   45.8560 O   0  0  0  0  0  0  0  0  0  0  0  0
   56.9120   30.9740   44.3270 N   0  0  0  0  0  0  0  0  0  0  0  0
   57.3970   31.5790   43.2260 C   0  0  0  0  0  0  0  0  0  0  0  0
   57.8320   32.8380   43.5800 C   0  0  0  0  0  0  0  0  0  0  0  0
   57.5760   32.9310   44.9340 C   0  0  0  0  0  0  0  0  0  0  0  0
   57.0170   31.7850   45.3680 N   0  0  0  0  0  0  0  0  0  0  0  0
   59.0876   28.1921   43.2817 H   0  0  0  0  0  0  0  0  0  0  0  0
   58.9376   29.3506   44.6469 H   0  0  0  0  0  0  0  0  0  0  0  0
   58.6376   26.3113   44.7033 H   0  0  0  0  0  0  0  0  0  0  0  0
   59.8398   27.3566   45.5789 H   0  0  0  0  0  0  0  0  0  0  0  0
   58.4650   27.6261   47.3174 H   0  0  0  0  0  0  0  0  0  0  0  0
   57.0986   28.1004   46.2226 H   0  0  0  0  0  0  0  0  0  0  0  0
   55.1290   27.5010   45.6040 H   0  0  0  0  0  0  0  0  0  0  0  0
   57.4388   31.1430   42.2169 H   0  0  0  0  0  0  0  0  0  0  0  0
   58.2834   33.6004   42.9281 H   0  0  0  0  0  0  0  0  0  0  0  0
   57.7952   33.8071   45.5620 H   0  0  0  0  0  0  0  0  0  0  0  0
  1  2  2  0
  2  3  1  0
  3  4  1  0
  4  5  1  0
  5  6  1  0
  6  7  1  0
  7  8  1  0
  8  9  1  0
  9 10  2  0
  9 11  1  0
 11 12  1  0
 12 13  1  0
  2 14  1  0
 14 15  1  0
 15 16  2  0
 16 17  1  0
 17 18  2  0
 12  7  2  0
 18 14  1  0
  4 19  1  0
  4 20  1  0
  5 21  1  0
  5 22  1  0
  6 23  1  0
  6 24  1  0
 13 25  1  0
 15 26  1  0
 16 27  1  0
 17 28  1  0
M  CHG  3   3  -1   8  -1  11  -1
M  END
>  <UniqueID>  (52) 
50

>  <SMILES>  (52) 
O=C([N-]CCCc1[n-]c(=O)[n-]c1O)n1cccn1

>  <Energy>  (52) 
78.47454404004745

>  <Genealogy>  (52) 
O=C([N-]CCCc1[n-]c(=O)[n-]c1O)n1cccn1 (protonated)
O=C([N-]CCCc1[n-]c(=O)[n-]c1O)n1cccn1 (3D coordinates assigned)
O=C([N-]CCCc1[n-]c(=O)[n-]c1O)n1cccn1 (optimized conformer: 78.47454404004745 kcal/mol)

>  <smiles>  (52) 
O=C(NCCCc1[nH]c(=O)[nH]c1O)n1cccn1

>  <score_type>  (52) 
oracle

>  <origin>  (52) 
adg

>  <m_score__min__energy>  (52) 
-12.48

>  <m_primary>  (52) 
energy

$$$$
52:0
     RDKit          3D

 59 62  0  0  0  0  0  0  0  0999 V2000
   56.1310   29.8860   44.9000 O   0  0  0  0  0  0  0  0  0  0  0  0
   56.8640   29.7580   43.8810 C   0  0  0  0  0  0  0  0  0  0  0  0
   56.3230   30.1390   42.5340 C   0  0  0  0  0  0  0  0  0  0  0  0
   56.9730   31.4220   42.0040 C   0  0  0  0  0  0  0  0  0  0  0  0
   58.2060   31.8330   42.8220 C   0  0  0  0  0  0  0  0  0  0  0  0
   57.9090   32.9960   43.6530 N   0  0  0  0  0  0  0  0  0  0  0  0
   57.4540   32.9630   45.0140 C   0  0  0  0  0  0  0  0  0  0  0  0
   56.2890   32.5490   45.2520 O   0  0  0  0  0  0  0  0  0  0  0  0
   58.2930   33.4220   46.1370 C   0  0  0  0  0  0  0  0  0  0  0  0
   58.3110   32.6940   47.3370 C   0  0  0  0  0  0  0  0  0  0  0  0
   59.1090   33.1140   48.4050 C   0  0  0  0  0  0  0  0  0  0  0  0
   59.9100   34.2510   48.2750 C   0  0  0  0  0  0  0  0  0  0  0  0
   59.9140   34.9690   47.0760 C   0  0  0  0  0  0  0  0  0  0  0  0
   59.1100   34.5570   46.0080 C   0  0  0  0  0  0  0  0  0  0  0  0
   58.2090   29.2690   44.0060 N   0  0  0  0  0  0  0  0  0  0  0  0
   58.7340   28.6870   45.2100 C   0  0  0  0  0  0  0  0  0  0  0  0
   59.8620   29.2590   45.8150 C   0  0  0  0  0  0  0  0  0  0  0  0
   60.3930   28.7060   46.9830 C   0  0  0  0  0  0  0  0  0  0  0  0
   59.8070   27.5740   47.5520 C   0  0  0  0  0  0  0  0  0  0  0  0
   58.6880   26.9750   46.9500 C   0  0  0  0  0  0  0  0  0  0  0  0
   58.0650   25.7510   47.5710 C   0  0  0  0  0  0  0  0  0  0  0  0
   56.9120   25.2530   46.7360 C   0  0  0  0  0  0  0  0  0  0  0  0
   55.7830   26.0120   46.6960 N   0  0  0  0  0  0  0  0  0  0  0  0
   54.7200   25.6640   45.9740 N   0  0  0  0  0  0  0  0  0  0  0  0
   54.7050   24.5330   45.2280 C   0  0  0  0  0  0  0  0  0  0  0  0
   53.6710   24.2360   44.5720 O   0  0  0  0  0  0  0  0  0  0  0  0
   55.8400   23.7100   45.2000 C   0  0  0  0  0  0  0  0  0  0  0  0
   56.9650   24.0710   45.9610 C   0  0  0  0  0  0  0  0  0  0  0  0
   58.1380   23.1170   45.9580 C   0  0  0  0  0  0  0  0  0  0  0  0
   58.4610   22.6420   44.5320 C   0  0  0  0  0  0  0  0  0  0  0  0
   57.2180   22.2630   43.6860 C   0  0  0  0  0  0  0  0  0  0  0  0
   55.8780   22.4160   44.4230 C   0  0  0  0  0  0  0  0  0  0  0  0
   58.1690   27.5260   45.7650 C   0  0  0  0  0  0  0  0  0  0  0  0
   56.5206   29.3206   41.8260 H   0  0  0  0  0  0  0  0  0  0  0  0
   55.2428   30.3192   42.6369 H   0  0  0  0  0  0  0  0  0  0  0  0
   57.2797   31.2579   40.9605 H   0  0  0  0  0  0  0  0  0  0  0  0
   56.2323   32.2314   42.0831 H   0  0  0  0  0  0  0  0  0  0  0  0
   58.5068   30.9949   43.4679 H   0  0  0  0  0  0  0  0  0  0  0  0
   59.0202   32.0918   42.1291 H   0  0  0  0  0  0  0  0  0  0  0  0
   57.6942   31.7887   47.4374 H   0  0  0  0  0  0  0  0  0  0  0  0
   59.1062   32.5487   49.3486 H   0  0  0  0  0  0  0  0  0  0  0  0
   60.5374   34.5811   49.1161 H   0  0  0  0  0  0  0  0  0  0  0  0
   60.5507   35.8599   46.9719 H   0  0  0  0  0  0  0  0  0  0  0  0
   59.1177   35.1233   45.0650 H   0  0  0  0  0  0  0  0  0  0  0  0
   58.8700   29.4360   43.2140 H   0  0  0  0  0  0  0  0  0  0  0  0
   60.3313   30.1477   45.3678 H   0  0  0  0  0  0  0  0  0  0  0  0
   61.2748   29.1636   47.4553 H   0  0  0  0  0  0  0  0  0  0  0  0
   60.2238   27.1487   48.4769 H   0  0  0  0  0  0  0  0  0  0  0  0
   58.8244   24.9587   47.6459 H   0  0  0  0  0  0  0  0  0  0  0  0
   57.6876   26.0163   48.5696 H   0  0  0  0  0  0  0  0  0  0  0  0
   59.0183   23.6286   46.3744 H   0  0  0  0  0  0  0  0  0  0  0  0
   57.8765   22.2397   46.5678 H   0  0  0  0  0  0  0  0  0  0  0  0
   58.9967   23.4506   44.0131 H   0  0  0  0  0  0  0  0  0  0  0  0
   59.0618   21.7263   44.6347 H   0  0  0  0  0  0  0  0  0  0  0  0
   57.1971   22.9096   42.7963 H   0  0  0  0  0  0  0  0  0  0  0  0
   57.3201   21.1961   43.4383 H   0  0  0  0  0  0  0  0  0  0  0  0
   55.0594   22.4121   43.6882 H   0  0  0  0  0  0  0  0  0  0  0  0
   55.7640   21.5780   45.1265 H   0  0  0  0  0  0  0  0  0  0  0  0
   57.3138   27.0444   45.2683 H   0  0  0  0  0  0  0  0  0  0  0  0
  1  2  2  0
  2  3  1  0
  3  4  1  0
  4  5  1  0
  5  6  1  0
  6  7  1  0
  7  8  2  0
  7  9  1  0
  9 10  2  0
 10 11  1  0
 11 12  2  0
 12 13  1  0
 13 14  2  0
  2 15  1  0
 15 16  1  0
 16 17  2  0
 17 18  1  0
 18 19  2  0
 19 20  1  0
 20 21  1  0
 21 22  1  0
 22 23  2  0
 23 24  1  0
 24 25  1  0
 25 26  2  0
 25 27  1  0
 27 28  2  0
 28 29  1  0
 29 30  1  0
 30 31  1  0
 31 32  1  0
 20 33  2  0
 14  9  1  0
 33 16  1  0
 28 22  1  0
 32 27  1  0
  3 34  1  0
  3 35  1  0
  4 36  1  0
  4 37  1  0
  5 38  1  0
  5 39  1  0
 10 40  1  0
 11 41  1  0
 12 42  1  0
 13 43  1  0
 14 44  1  0
 15 45  1  0
 17 46  1  0
 18 47  1  0
 19 48  1  0
 21 49  1  0
 21 50  1  0
 29 51  1  0
 29 52  1  0
 30 53  1  0
 30 54  1  0
 31 55  1  0
 31 56  1  0
 32 57  1  0
 32 58  1  0
 33 59  1  0
M  CHG  2   6  -1  24  -1
M  END
>  <UniqueID>  (53) 
51

>  <SMILES>  (53) 
O=C(CCC[N-]C(=O)c1ccccc1)Nc1cccc(Cc2n[n-]c(=O)c3c2CCCC3)c1

>  <Energy>  (53) 
67.9815071176124

>  <Genealogy>  (53) 
O=C(CCC[N-]C(=O)c1ccccc1)Nc1cccc(Cc2n[n-]c(=O)c3c2CCCC3)c1 (protonated)
O=C(CCC[N-]C(=O)c1ccccc1)Nc1cccc(Cc2n[n-]c(=O)c3c2CCCC3)c1 (3D coordinates assigned)
O=C(CCC[N-]C(=O)c1ccccc1)Nc1cccc(Cc2n[n-]c(=O)c3c2CCCC3)c1 (nonaromatic ring conformer: 67.9815071176124 kcal/mol)

>  <smiles>  (53) 
O=C(CCCNC(=O)c1ccccc1)Nc1cccc(Cc2n[nH]c(=O)c3c2CCCC3)c1

>  <score_type>  (53) 
oracle

>  <origin>  (53) 
adg

>  <m_score__min__energy>  (53) 
-14.119999999999999

>  <m_primary>  (53) 
energy

$$$$
53:0
     RDKit          3D

 55 57  0  0  0  0  0  0  0  0999 V2000
   56.7230   23.5500   48.1000 C   0  0  0  0  0  0  0  0  0  0  0  0
   56.3290   24.2690   46.8170 C   0  0  0  0  0  0  0  0  0  0  0  0
   57.5170   24.5020   46.0060 N   0  0  0  0  0  0  0  0  0  0  0  0
   58.4030   25.6340   46.0570 C   0  0  0  0  0  0  0  0  0  0  0  0
   59.6000   25.4320   46.3880 O   0  0  0  0  0  0  0  0  0  0  0  0
   57.9850   27.0550   45.7290 C   0  0  0  0  0  0  0  0  0  0  0  0
   58.6280   27.5760   44.4290 C   0  0  0  0  0  0  0  0  0  0  0  0
   58.0620   28.9600   44.0930 C   0  0  0  0  0  0  0  0  0  0  0  0
   58.0930   29.8500   45.2620 N   0  0  0  0  0  0  0  0  0  0  0  0
   57.4560   31.1330   45.1650 C   0  0  0  0  0  0  0  0  0  0  0  0
   56.2730   31.1950   44.7310 O   0  0  0  0  0  0  0  0  0  0  0  0
   58.1680   32.3870   45.5210 C   0  0  0  0  0  0  0  0  0  0  0  0
   58.3260   33.4220   44.5830 C   0  0  0  0  0  0  0  0  0  0  0  0
   58.9590   34.6130   44.9440 C   0  0  0  0  0  0  0  0  0  0  0  0
   59.4360   34.7890   46.2450 C   0  0  0  0  0  0  0  0  0  0  0  0
   59.2910   33.7730   47.1950 C   0  0  0  0  0  0  0  0  0  0  0  0
   59.7790   34.0060   48.4910 O   0  0  0  0  0  0  0  0  0  0  0  0
   60.5010   33.0700   49.2930 C   0  0  0  0  0  0  0  0  0  0  0  0
   61.9340   33.0090   48.8510 C   0  0  0  0  0  0  0  0  0  0  0  0
   62.4640   32.1920   47.8660 C   0  0  0  0  0  0  0  0  0  0  0  0
   61.7240   31.1930   47.0350 C   0  0  0  0  0  0  0  0  0  0  0  0
   63.7950   32.3770   47.8230 N   0  0  0  0  0  0  0  0  0  0  0  0
   64.1100   33.2660   48.7190 O   0  0  0  0  0  0  0  0  0  0  0  0
   63.0390   33.6770   49.3610 C   0  0  0  0  0  0  0  0  0  0  0  0
   63.0740   34.6740   50.4740 C   0  0  0  0  0  0  0  0  0  0  0  0
   58.6430   32.5790   46.8310 C   0  0  0  0  0  0  0  0  0  0  0  0
   58.6970   29.4030   46.5270 C   0  0  0  0  0  0  0  0  0  0  0  0
   58.1470   28.0250   46.9310 C   0  0  0  0  0  0  0  0  0  0  0  0
   56.3979   24.1432   48.9674 H   0  0  0  0  0  0  0  0  0  0  0  0
   56.2402   22.5621   48.1297 H   0  0  0  0  0  0  0  0  0  0  0  0
   57.8155   23.4253   48.1297 H   0  0  0  0  0  0  0  0  0  0  0  0
   55.6162   23.6491   46.2534 H   0  0  0  0  0  0  0  0  0  0  0  0
   55.8603   25.2325   47.0659 H   0  0  0  0  0  0  0  0  0  0  0  0
   56.9037   27.0197   45.5301 H   0  0  0  0  0  0  0  0  0  0  0  0
   59.7173   27.6489   44.5633 H   0  0  0  0  0  0  0  0  0  0  0  0
   58.4036   26.8806   43.6068 H   0  0  0  0  0  0  0  0  0  0  0  0
   58.6630   29.4065   43.2872 H   0  0  0  0  0  0  0  0  0  0  0  0
   57.0151   28.8388   43.7777 H   0  0  0  0  0  0  0  0  0  0  0  0
   57.9485   33.2928   43.5579 H   0  0  0  0  0  0  0  0  0  0  0  0
   59.0824   35.4152   44.2016 H   0  0  0  0  0  0  0  0  0  0  0  0
   59.9285   35.7322   46.5239 H   0  0  0  0  0  0  0  0  0  0  0  0
   60.4583   33.3844   50.3463 H   0  0  0  0  0  0  0  0  0  0  0  0
   60.0470   32.0744   49.1807 H   0  0  0  0  0  0  0  0  0  0  0  0
   61.1995   30.4849   47.6935 H   0  0  0  0  0  0  0  0  0  0  0  0
   60.9924   31.7142   46.4001 H   0  0  0  0  0  0  0  0  0  0  0  0
   62.4358   30.6450   46.4001 H   0  0  0  0  0  0  0  0  0  0  0  0
   64.4770   31.8950   47.1940 H   0  0  0  0  0  0  0  0  0  0  0  0
   63.0555   34.1468   51.4392 H   0  0  0  0  0  0  0  0  0  0  0  0
   63.9937   35.2730   50.4009 H   0  0  0  0  0  0  0  0  0  0  0  0
   62.1985   35.3360   50.4009 H   0  0  0  0  0  0  0  0  0  0  0  0
   58.5059   31.7853   47.5802 H   0  0  0  0  0  0  0  0  0  0  0  0
   59.7878   29.3348   46.4028 H   0  0  0  0  0  0  0  0  0  0  0  0
   58.4489   30.1293   47.3150 H   0  0  0  0  0  0  0  0  0  0  0  0
   58.8389   27.5711   47.6558 H   0  0  0  0  0  0  0  0  0  0  0  0
   57.1465   28.1849   47.3594 H   0  0  0  0  0  0  0  0  0  0  0  0
  1  2  1  0
  2  3  1  0
  3  4  1  0
  4  5  2  0
  4  6  1  0
  6  7  1  0
  7  8  1  0
  8  9  1  0
  9 10  1  0
 10 11  2  0
 10 12  1  0
 12 13  2  0
 13 14  1  0
 14 15  2  0
 15 16  1  0
 16 17  1  0
 17 18  1  0
 18 19  1  0
 19 20  1  0
 20 21  1  0
 20 22  2  0
 22 23  1  0
 23 24  1  0
 24 25  1  0
 16 26  2  0
  9 27  1  0
 27 28  1  0
 28  6  1  0
 26 12  1  0
 24 19  2  0
  1 29  1  0
  1 30  1  0
  1 31  1  0
  2 32  1  0
  2 33  1  0
  6 34  1  0
  7 35  1  0
  7 36  1  0
  8 37  1  0
  8 38  1  0
 13 39  1  0
 14 40  1  0
 15 41  1  0
 18 42  1  0
 18 43  1  0
 21 44  1  0
 21 45  1  0
 21 46  1  0
 22 47  1  0
 25 48  1  0
 25 49  1  0
 25 50  1  0
 26 51  1  0
 27 52  1  0
 27 53  1  0
 28 54  1  0
 28 55  1  0
M  CHG  2   3  -1  22   1
M  END
>  <UniqueID>  (54) 
52

>  <SMILES>  (54) 
CC[N-]C(=O)C1CCN(C(=O)c2cccc(OCc3c(C)[nH+]oc3C)c2)CC1

>  <Energy>  (54) 
90.64093704641272

>  <Genealogy>  (54) 
CC[N-]C(=O)C1CCN(C(=O)c2cccc(OCc3c(C)[nH+]oc3C)c2)CC1 (protonated)
CC[N-]C(=O)C1CCN(C(=O)c2cccc(OCc3c(C)[nH+]oc3C)c2)CC1 (3D coordinates assigned)
CC[N-]C(=O)C1CCN(C(=O)c2cccc(OCc3c(C)[nH+]oc3C)c2)CC1 (nonaromatic ring conformer: 90.64093704641272 kcal/mol)

>  <smiles>  (54) 
CCNC(=O)C1CCN(C(=O)c2cccc(OCc3c(C)noc3C)c2)CC1

>  <score_type>  (54) 
oracle

>  <origin>  (54) 
adg

>  <m_score__min__energy>  (54) 
-8.9100000000000001

>  <m_primary>  (54) 
energy

$$$$
54:0
     RDKit          3D

 53 55  0  0  0  0  0  0  0  0999 V2000
   55.0390   30.8340   52.2730 C   0  0  0  0  0  0  0  0  0  0  0  0
   56.4610   30.9090   51.8080 C   0  0  0  0  0  0  0  0  0  0  0  0
   57.1040   29.8390   51.6380 O   0  0  0  0  0  0  0  0  0  0  0  0
   57.1010   32.1570   51.5110 N   0  0  0  0  0  0  0  0  0  0  0  0
   58.4980   32.3630   51.2550 C   0  0  0  0  0  0  0  0  0  0  0  0
   59.2220   33.3830   51.8970 C   0  0  0  0  0  0  0  0  0  0  0  0
   60.5880   33.5360   51.6500 C   0  0  0  0  0  0  0  0  0  0  0  0
   61.2460   32.6660   50.7780 C   0  0  0  0  0  0  0  0  0  0  0  0
   60.5410   31.6280   50.1480 C   0  0  0  0  0  0  0  0  0  0  0  0
   61.2630   30.6580   49.2500 C   0  0  0  0  0  0  0  0  0  0  0  0
   60.3480   30.1370   48.2230 N   0  0  0  0  0  0  0  0  0  0  0  0
   59.4590   29.0430   48.5340 C   0  0  0  0  0  0  0  0  0  0  0  0
   59.4020   28.5790   49.7040 O   0  0  0  0  0  0  0  0  0  0  0  0
   58.6270   28.4030   47.4590 C   0  0  0  0  0  0  0  0  0  0  0  0
   58.2670   29.4210   46.3620 C   0  0  0  0  0  0  0  0  0  0  0  0
   57.4540   28.7590   45.2270 C   0  0  0  0  0  0  0  0  0  0  0  0
   56.2640   29.5790   44.7850 C   0  0  0  0  0  0  0  0  0  0  0  0
   55.1760   29.0040   44.5160 O   0  0  0  0  0  0  0  0  0  0  0  0
   56.3080   31.0120   44.7380 N   0  0  0  0  0  0  0  0  0  0  0  0
   57.3600   31.8180   44.1270 C   0  0  0  0  0  0  0  0  0  0  0  0
   57.9720   32.7560   45.1360 C   0  0  0  0  0  0  0  0  0  0  0  0
   57.6260   32.6600   46.4950 C   0  0  0  0  0  0  0  0  0  0  0  0
   58.1880   33.5360   47.4290 C   0  0  0  0  0  0  0  0  0  0  0  0
   59.1040   34.5070   47.0170 C   0  0  0  0  0  0  0  0  0  0  0  0
   59.4610   34.6040   45.6700 C   0  0  0  0  0  0  0  0  0  0  0  0
   58.9030   33.7320   44.7300 C   0  0  0  0  0  0  0  0  0  0  0  0
   59.2660   33.8380   43.4260 F   0  0  0  0  0  0  0  0  0  0  0  0
   59.5510   30.0480   45.7920 C   0  0  0  0  0  0  0  0  0  0  0  0
   60.3740   30.6710   46.8820 C   0  0  0  0  0  0  0  0  0  0  0  0
   61.1250   31.6420   46.5950 O   0  0  0  0  0  0  0  0  0  0  0  0
   59.1680   31.4750   50.4050 C   0  0  0  0  0  0  0  0  0  0  0  0
   55.0124   30.8326   53.3727 H   0  0  0  0  0  0  0  0  0  0  0  0
   54.4829   31.7041   51.8939 H   0  0  0  0  0  0  0  0  0  0  0  0
   54.5775   29.9103   51.8939 H   0  0  0  0  0  0  0  0  0  0  0  0
   58.7113   34.0622   52.5955 H   0  0  0  0  0  0  0  0  0  0  0  0
   61.1474   34.3443   52.1438 H   0  0  0  0  0  0  0  0  0  0  0  0
   62.3211   32.7945   50.5839 H   0  0  0  0  0  0  0  0  0  0  0  0
   62.1030   31.1726   48.7606 H   0  0  0  0  0  0  0  0  0  0  0  0
   61.6369   29.8193   49.8556 H   0  0  0  0  0  0  0  0  0  0  0  0
   59.1948   27.5751   47.0094 H   0  0  0  0  0  0  0  0  0  0  0  0
   57.6960   28.0303   47.9110 H   0  0  0  0  0  0  0  0  0  0  0  0
   57.6428   30.2062   46.8136 H   0  0  0  0  0  0  0  0  0  0  0  0
   58.1176   28.6129   44.3620 H   0  0  0  0  0  0  0  0  0  0  0  0
   57.0656   27.8070   45.6180 H   0  0  0  0  0  0  0  0  0  0  0  0
   58.1419   31.1517   43.7337 H   0  0  0  0  0  0  0  0  0  0  0  0
   56.9195   32.4141   43.3142 H   0  0  0  0  0  0  0  0  0  0  0  0
   56.9103   31.8927   46.8251 H   0  0  0  0  0  0  0  0  0  0  0  0
   57.9083   33.4604   48.4901 H   0  0  0  0  0  0  0  0  0  0  0  0
   59.5442   35.1953   47.7535 H   0  0  0  0  0  0  0  0  0  0  0  0
   60.1832   35.3686   45.3478 H   0  0  0  0  0  0  0  0  0  0  0  0
   60.1440   29.2656   45.2958 H   0  0  0  0  0  0  0  0  0  0  0  0
   59.2696   30.8317   45.0732 H   0  0  0  0  0  0  0  0  0  0  0  0
   58.6143   30.6496   49.9338 H   0  0  0  0  0  0  0  0  0  0  0  0
  1  2  1  0
  2  3  2  0
  2  4  1  0
  4  5  1  0
  5  6  2  0
  6  7  1  0
  7  8  2  0
  8  9  1  0
  9 10  1  0
 10 11  1  0
 11 12  1  0
 12 13  2  0
 12 14  1  0
 14 15  1  0
 15 16  1  0
 16 17  1  0
 17 18  2  0
 17 19  1  0
 19 20  1  0
 20 21  1  0
 21 22  2  0
 22 23  1  0
 23 24  2  0
 24 25  1  0
 25 26  2  0
 26 27  1  0
 15 28  1  0
 28 29  1  0
 29 30  2  0
  9 31  2  0
 31  5  1  0
 29 11  1  0
 26 21  1  0
  1 32  1  0
  1 33  1  0
  1 34  1  0
  6 35  1  0
  7 36  1  0
  8 37  1  0
 10 38  1  0
 10 39  1  0
 14 40  1  0
 14 41  1  0
 15 42  1  0
 16 43  1  0
 16 44  1  0
 20 45  1  0
 20 46  1  0
 22 47  1  0
 23 48  1  0
 24 49  1  0
 25 50  1  0
 28 51  1  0
 28 52  1  0
 31 53  1  0
M  CHG  2   4  -1  19  -1
M  END
>  <UniqueID>  (55) 
53

>  <SMILES>  (55) 
CC(=O)[N-]c1cccc(CN2C(=O)CC(CC(=O)[N-]Cc3ccccc3F)CC2=O)c1

>  <Energy>  (55) 
52.71206025103083

>  <Genealogy>  (55) 
CC(=O)[N-]c1cccc(CN2C(=O)CC(CC(=O)[N-]Cc3ccccc3F)CC2=O)c1 (protonated)
CC(=O)[N-]c1cccc(CN2C(=O)CC(CC(=O)[N-]Cc3ccccc3F)CC2=O)c1 (3D coordinates assigned)
CC(=O)[N-]c1cccc(CN2C(=O)CC(CC(=O)[N-]Cc3ccccc3F)CC2=O)c1 (nonaromatic ring conformer: 52.71206025103083 kcal/mol)

>  <smiles>  (55) 
CC(=O)Nc1cccc(CN2C(=O)CC(CC(=O)NCc3ccccc3F)CC2=O)c1

>  <score_type>  (55) 
oracle

>  <origin>  (55) 
adg

>  <m_score__min__energy>  (55) 
-12.09

>  <m_primary>  (55) 
energy

$$$$
55:0
     RDKit          3D

 53 56  0  0  0  0  0  0  0  0999 V2000
   58.9658   34.0618   52.5405 H   0  0  0  0  0  0  0  0  0  0  0  0
   58.4680   33.2260   52.0270 C   0  0  0  0  0  0  0  0  0  0  0  0
   58.5775   33.1053   50.9391 H   0  0  0  0  0  0  0  0  0  0  0  0
   57.7300   32.3570   52.7250 C   0  0  0  0  0  0  0  0  0  0  0  0
   57.6291   32.4897   53.8123 H   0  0  0  0  0  0  0  0  0  0  0  0
   57.0350   31.2030   52.0590 C   0  0  0  0  0  0  0  0  0  0  0  0
   56.3552   30.7267   52.7808 H   0  0  0  0  0  0  0  0  0  0  0  0
   56.4716   31.5835   51.1943 H   0  0  0  0  0  0  0  0  0  0  0  0
   58.0040   30.2120   51.5870 N   0  0  0  0  0  0  0  0  0  0  0  0
   58.5190   30.1890   50.3940 C   0  0  0  0  0  0  0  0  0  0  0  0
   58.3940   31.2780   49.5930 N   0  0  0  0  0  0  0  0  0  0  0  0
   58.9320   31.2810   48.3450 C   0  0  0  0  0  0  0  0  0  0  0  0
   58.7710   32.4270   47.4830 N   0  0  0  0  0  0  0  0  0  0  0  0
   58.4360   32.2740   46.0780 C   0  0  0  0  0  0  0  0  0  0  0  0
   57.7420   31.1400   45.6080 C   0  0  0  0  0  0  0  0  0  0  0  0
   57.4341   30.3567   46.3162 H   0  0  0  0  0  0  0  0  0  0  0  0
   57.4420   31.0030   44.2490 C   0  0  0  0  0  0  0  0  0  0  0  0
   56.9132   30.1072   43.8913 H   0  0  0  0  0  0  0  0  0  0  0  0
   57.8120   32.0000   43.3460 C   0  0  0  0  0  0  0  0  0  0  0  0
   57.5939   31.8800   42.2745 H   0  0  0  0  0  0  0  0  0  0  0  0
   58.4590   33.1500   43.8020 C   0  0  0  0  0  0  0  0  0  0  0  0
   58.7433   33.9378   43.0889 H   0  0  0  0  0  0  0  0  0  0  0  0
   58.7480   33.3050   45.1660 C   0  0  0  0  0  0  0  0  0  0  0  0
   59.4090   34.5610   45.6590 C   0  0  0  0  0  0  0  0  0  0  0  0
   59.1662   35.3924   44.9809 H   0  0  0  0  0  0  0  0  0  0  0  0
   60.4986   34.4127   45.6862 H   0  0  0  0  0  0  0  0  0  0  0  0
   58.9080   34.8890   47.0640 C   0  0  0  0  0  0  0  0  0  0  0  0
   57.8226   35.0640   47.0297 H   0  0  0  0  0  0  0  0  0  0  0  0
   59.4258   35.7897   47.4254 H   0  0  0  0  0  0  0  0  0  0  0  0
   59.2020   33.7300   48.0220 C   0  0  0  0  0  0  0  0  0  0  0  0
   58.6726   33.9123   48.9688 H   0  0  0  0  0  0  0  0  0  0  0  0
   60.2913   33.6865   48.1687 H   0  0  0  0  0  0  0  0  0  0  0  0
   59.5770   30.1750   47.8920 N   0  0  0  0  0  0  0  0  0  0  0  0
   59.7080   29.0790   48.6880 C   0  0  0  0  0  0  0  0  0  0  0  0
   60.3280   28.0190   48.2660 N   0  0  0  0  0  0  0  0  0  0  0  0
   60.6630   27.7730   46.8660 C   0  0  0  0  0  0  0  0  0  0  0  0
   60.1698   28.5262   46.2340 H   0  0  0  0  0  0  0  0  0  0  0  0
   61.7532   27.8382   46.7350 H   0  0  0  0  0  0  0  0  0  0  0  0
   60.1870   26.3800   46.4610 C   0  0  0  0  0  0  0  0  0  0  0  0
   60.6575   26.1005   45.5068 H   0  0  0  0  0  0  0  0  0  0  0  0
   60.4697   25.6659   47.2485 H   0  0  0  0  0  0  0  0  0  0  0  0
   58.6910   26.3570   46.3000 C   0  0  0  0  0  0  0  0  0  0  0  0
   57.9500   25.2420   46.7280 C   0  0  0  0  0  0  0  0  0  0  0  0
   58.4682   24.3715   47.1566 H   0  0  0  0  0  0  0  0  0  0  0  0
   56.5560   25.2350   46.6110 C   0  0  0  0  0  0  0  0  0  0  0  0
   55.9810   24.3574   46.9416 H   0  0  0  0  0  0  0  0  0  0  0  0
   55.8930   26.3430   46.0740 C   0  0  0  0  0  0  0  0  0  0  0  0
   54.5080   26.3350   45.9580 O   0  0  0  0  0  0  0  0  0  0  0  0
   56.6230   27.4620   45.6590 C   0  0  0  0  0  0  0  0  0  0  0  0
   56.1004   28.3347   45.2403 H   0  0  0  0  0  0  0  0  0  0  0  0
   58.0170   27.4720   45.7760 C   0  0  0  0  0  0  0  0  0  0  0  0
   58.5873   28.3566   45.4563 H   0  0  0  0  0  0  0  0  0  0  0  0
   59.1810   29.0920   49.9370 N   0  0  0  0  0  0  0  0  0  0  0  0
  1  2  1  0
  2  3  1  0
  2  4  2  0
  4  5  1  0
  4  6  1  0
  6  7  1  0
  6  8  1  0
  6  9  1  0
  9 10  2  0
 10 11  1  0
 11 12  1  0
 12 13  1  0
 13 14  1  0
 14 15  2  0
 15 16  1  0
 15 17  1  0
 17 18  1  0
 17 19  2  0
 19 20  1  0
 19 21  1  0
 21 22  1  0
 21 23  2  0
 23 24  1  0
 24 25  1  0
 24 26  1  0
 24 27  1  0
 27 28  1  0
 27 29  1  0
 27 30  1  0
 30 31  1  0
 30 32  1  0
 12 33  2  0
 33 34  1  0
 34 35  2  3
 35 36  1  0
 36 37  1  0
 36 38  1  0
 36 39  1  0
 39 40  1  0
 39 41  1  0
 39 42  1  0
 42 43  2  0
 43 44  1  0
 43 45  1  0
 45 46  1  0
 45 47  2  0
 47 48  1  0
 47 49  1  0
 49 50  1  0
 49 51  2  0
 51 52  1  0
 34 53  1  0
 53 10  1  0
 30 13  1  0
 51 42  1  0
 23 14  1  0
M  CHG  3  11  -1  48  -1  53  -1
M  END
>  <UniqueID>  (56) 
54

>  <SMILES>  (56) 
C=CC/N=c1/[n-]c(N2CCCc3ccccc32)nc(=NCCc2ccc([O-])cc2)[n-]1

>  <Energy>  (56) 
56.301188765276144

>  <Genealogy>  (56) 
C=CCN=c1[n-]c(N2CCCc3ccccc32)nc(=NCCc2ccc([O-])cc2)[n-]1 (protonated)
C=CC/N=c1/[n-]c(N2CCCc3ccccc32)nc(=NCCc2ccc([O-])cc2)[n-]1 (cis-trans isomerization)
C=CC/N=c1/[n-]c(N2CCCc3ccccc32)nc(=NCCc2ccc([O-])cc2)[n-]1 (3D coordinates assigned)
C=CC/N=c1/[n-]c(N2CCCc3ccccc32)nc(=NCCc2ccc([O-])cc2)[n-]1 (nonaromatic ring conformer: 56.301188765276144 kcal/mol)

>  <smiles>  (56) 
C=CCN=c1[nH]c(N2CCCc3ccccc32)nc(=NCCc2ccc(O)cc2)[nH]1

>  <score_type>  (56) 
oracle

>  <origin>  (56) 
adg

>  <m_score__min__energy>  (56) 
-15.19

>  <m_primary>  (56) 
energy

$$$$
56:0
     RDKit          3D

 72 76  0  0  0  0  0  0  0  0999 V2000
   57.0490   29.0340   53.1440 C   0  0  0  0  0  0  0  0  0  0  0  0
   56.6420   30.1500   52.1890 C   0  0  0  0  0  0  0  0  0  0  0  0
   57.7790   30.5040   51.2770 C   0  0  0  0  0  0  0  0  0  0  0  0
   58.5480   31.6530   51.5020 C   0  0  0  0  0  0  0  0  0  0  0  0
   59.6170   31.9470   50.6530 C   0  0  0  0  0  0  0  0  0  0  0  0
   60.3050   32.9860   50.8640 O   0  0  0  0  0  0  0  0  0  0  0  0
   59.9180   31.0840   49.5820 C   0  0  0  0  0  0  0  0  0  0  0  0
   60.9820   31.3460   48.7000 C   0  0  0  0  0  0  0  0  0  0  0  0
   61.2660   30.4570   47.6600 C   0  0  0  0  0  0  0  0  0  0  0  0
   60.5010   29.3030   47.4910 C   0  0  0  0  0  0  0  0  0  0  0  0
   59.4250   29.0230   48.3500 C   0  0  0  0  0  0  0  0  0  0  0  0
   58.6740   27.7230   48.1880 C   0  0  0  0  0  0  0  0  0  0  0  0
   59.6080   26.6540   47.7140 C   0  0  0  0  0  0  0  0  0  0  0  0
   60.7440   26.5350   48.2470 O   0  0  0  0  0  0  0  0  0  0  0  0
   59.2220   25.8090   46.6230 N   0  0  0  0  0  0  0  0  0  0  0  0
   58.0380   26.0330   45.8050 C   0  0  0  0  0  0  0  0  0  0  0  0
   57.9550   27.4680   45.3620 C   0  0  0  0  0  0  0  0  0  0  0  0
   59.1180   28.1710   45.0150 C   0  0  0  0  0  0  0  0  0  0  0  0
   59.0370   29.4870   44.5490 C   0  0  0  0  0  0  0  0  0  0  0  0
   57.7890   30.1180   44.4160 C   0  0  0  0  0  0  0  0  0  0  0  0
   57.6910   31.4870   43.8590 C   0  0  0  0  0  0  0  0  0  0  0  0
   57.3660   31.6460   42.6520 O   0  0  0  0  0  0  0  0  0  0  0  0
   57.9650   32.6410   44.6750 N   0  0  0  0  0  0  0  0  0  0  0  0
   58.6970   33.7780   44.0980 C   0  0  0  0  0  0  0  0  0  0  0  0
   59.2270   34.7190   45.1930 C   0  0  0  0  0  0  0  0  0  0  0  0
   59.6610   33.9020   46.4240 C   0  0  0  0  0  0  0  0  0  0  0  0
   60.3920   34.7910   47.4510 C   0  0  0  0  0  0  0  0  0  0  0  0
   61.7460   34.2270   47.8020 C   0  0  0  0  0  0  0  0  0  0  0  0
   62.2270   34.2980   49.1220 C   0  0  0  0  0  0  0  0  0  0  0  0
   63.4490   33.7080   49.4580 C   0  0  0  0  0  0  0  0  0  0  0  0
   64.1990   33.0450   48.4820 C   0  0  0  0  0  0  0  0  0  0  0  0
   63.7290   32.9720   47.1680 C   0  0  0  0  0  0  0  0  0  0  0  0
   62.5060   33.5540   46.8290 C   0  0  0  0  0  0  0  0  0  0  0  0
   58.4400   33.1810   47.0540 C   0  0  0  0  0  0  0  0  0  0  0  0
   57.3780   32.7660   46.0180 C   0  0  0  0  0  0  0  0  0  0  0  0
   56.6320   29.4280   44.8140 C   0  0  0  0  0  0  0  0  0  0  0  0
   56.7130   28.1140   45.2750 C   0  0  0  0  0  0  0  0  0  0  0  0
   59.1320   29.9190   49.4010 C   0  0  0  0  0  0  0  0  0  0  0  0
   58.0970   29.6690   50.2520 N   0  0  0  0  0  0  0  0  0  0  0  0
   56.9243   29.3760   54.1820 H   0  0  0  0  0  0  0  0  0  0  0  0
   56.4144   28.1526   52.9696 H   0  0  0  0  0  0  0  0  0  0  0  0
   58.1020   28.7680   52.9696 H   0  0  0  0  0  0  0  0  0  0  0  0
   55.7852   29.8153   51.5858 H   0  0  0  0  0  0  0  0  0  0  0  0
   56.3688   31.0385   52.7771 H   0  0  0  0  0  0  0  0  0  0  0  0
   58.3109   32.3206   52.3435 H   0  0  0  0  0  0  0  0  0  0  0  0
   61.5916   32.2524   48.8292 H   0  0  0  0  0  0  0  0  0  0  0  0
   62.0971   30.6683   46.9711 H   0  0  0  0  0  0  0  0  0  0  0  0
   60.7427   28.6045   46.6763 H   0  0  0  0  0  0  0  0  0  0  0  0
   58.2419   27.4278   49.1556 H   0  0  0  0  0  0  0  0  0  0  0  0
   57.8704   27.8573   47.4489 H   0  0  0  0  0  0  0  0  0  0  0  0
   58.0853   25.3844   44.9178 H   0  0  0  0  0  0  0  0  0  0  0  0
   57.1466   25.7986   46.4054 H   0  0  0  0  0  0  0  0  0  0  0  0
   60.0998   27.6842   45.1100 H   0  0  0  0  0  0  0  0  0  0  0  0
   59.9558   30.0312   44.2851 H   0  0  0  0  0  0  0  0  0  0  0  0
   59.5463   33.3965   43.5122 H   0  0  0  0  0  0  0  0  0  0  0  0
   58.0053   34.3462   43.4587 H   0  0  0  0  0  0  0  0  0  0  0  0
   60.0902   35.2798   44.8051 H   0  0  0  0  0  0  0  0  0  0  0  0
   58.4296   35.4178   45.4859 H   0  0  0  0  0  0  0  0  0  0  0  0
   60.3747   33.1314   46.0972 H   0  0  0  0  0  0  0  0  0  0  0  0
   60.5227   35.7967   47.0250 H   0  0  0  0  0  0  0  0  0  0  0  0
   59.7855   34.8313   48.3678 H   0  0  0  0  0  0  0  0  0  0  0  0
   61.6397   34.8194   49.8922 H   0  0  0  0  0  0  0  0  0  0  0  0
   63.8209   33.7655   50.4916 H   0  0  0  0  0  0  0  0  0  0  0  0
   65.1598   32.5805   48.7486 H   0  0  0  0  0  0  0  0  0  0  0  0
   64.3233   32.4554   46.3999 H   0  0  0  0  0  0  0  0  0  0  0  0
   62.1352   33.4857   45.7956 H   0  0  0  0  0  0  0  0  0  0  0  0
   58.7960   32.2775   47.5706 H   0  0  0  0  0  0  0  0  0  0  0  0
   57.9621   33.8913   47.7448 H   0  0  0  0  0  0  0  0  0  0  0  0
   56.9481   31.7975   46.3132 H   0  0  0  0  0  0  0  0  0  0  0  0
   56.5997   33.5427   45.9869 H   0  0  0  0  0  0  0  0  0  0  0  0
   55.6537   29.9282   44.7617 H   0  0  0  0  0  0  0  0  0  0  0  0
   55.7976   27.5813   45.5720 H   0  0  0  0  0  0  0  0  0  0  0  0
  1  2  1  0
  2  3  1  0
  3  4  2  0
  4  5  1  0
  5  6  2  0
  5  7  1  0
  7  8  2  0
  8  9  1  0
  9 10  2  0
 10 11  1  0
 11 12  1  0
 12 13  1  0
 13 14  2  0
 13 15  1  0
 15 16  1  0
 16 17  1  0
 17 18  2  0
 18 19  1  0
 19 20  2  0
 20 21  1  0
 21 22  2  0
 21 23  1  0
 23 24  1  0
 24 25  1  0
 25 26  1  0
 26 27  1  0
 27 28  1  0
 28 29  2  0
 29 30  1  0
 30 31  2  0
 31 32  1  0
 32 33  2  0
 26 34  1  0
 34 35  1  0
 20 36  1  0
 36 37  2  0
 11 38  2  0
 38 39  1  0
 39  3  1  0
 38  7  1  0
 37 17  1  0
 35 23  1  0
 33 28  1  0
  1 40  1  0
  1 41  1  0
  1 42  1  0
  2 43  1  0
  2 44  1  0
  4 45  1  0
  8 46  1  0
  9 47  1  0
 10 48  1  0
 12 49  1  0
 12 50  1  0
 16 51  1  0
 16 52  1  0
 18 53  1  0
 19 54  1  0
 24 55  1  0
 24 56  1  0
 25 57  1  0
 25 58  1  0
 26 59  1  0
 27 60  1  0
 27 61  1  0
 29 62  1  0
 30 63  1  0
 31 64  1  0
 32 65  1  0
 33 66  1  0
 34 67  1  0
 34 68  1  0
 35 69  1  0
 35 70  1  0
 36 71  1  0
 37 72  1  0
M  CHG  2  15  -1  39  -1
M  END
>  <UniqueID>  (57) 
55

>  <SMILES>  (57) 
CCc1cc(=O)c2cccc(CC(=O)[N-]Cc3ccc(C(=O)N4CCC(Cc5ccccc5)CC4)cc3)c2[n-]1

>  <Energy>  (57) 
79.79491866638398

>  <Genealogy>  (57) 
CCc1cc(=O)c2cccc(CC(=O)[N-]Cc3ccc(C(=O)N4CCC(Cc5ccccc5)CC4)cc3)c2[n-]1 (protonated)
CCc1cc(=O)c2cccc(CC(=O)[N-]Cc3ccc(C(=O)N4CCC(Cc5ccccc5)CC4)cc3)c2[n-]1 (3D coordinates assigned)
CCc1cc(=O)c2cccc(CC(=O)[N-]Cc3ccc(C(=O)N4CCC(Cc5ccccc5)CC4)cc3)c2[n-]1 (nonaromatic ring conformer: 79.79491866638398 kcal/mol)

>  <smiles>  (57) 
CCc1cc(=O)c2cccc(CC(=O)NCc3ccc(C(=O)N4CCC(Cc5ccccc5)CC4)cc3)c2[nH]1

>  <score_type>  (57) 
oracle

>  <origin>  (57) 
adg

>  <m_score__min__energy>  (57) 
-14.25

>  <m_primary>  (57) 
energy

$$$$
57:0
     RDKit          3D

 62 65  0  0  0  0  0  0  0  0999 V2000
   57.3720   32.3470   41.1220 C   0  0  0  0  0  0  0  0  0  0  0  0
   57.4040   31.6140   42.4300 C   0  0  0  0  0  0  0  0  0  0  0  0
   56.6100   30.4730   42.6160 C   0  0  0  0  0  0  0  0  0  0  0  0
   56.6060   29.8110   43.8480 C   0  0  0  0  0  0  0  0  0  0  0  0
   57.3840   30.2910   44.9050 C   0  0  0  0  0  0  0  0  0  0  0  0
   58.1700   31.4440   44.7410 C   0  0  0  0  0  0  0  0  0  0  0  0
   58.9580   31.9580   45.8380 N   0  0  0  0  0  0  0  0  0  0  0  0
   59.8000   31.0440   46.6150 C   0  0  0  0  0  0  0  0  0  0  0  0
   61.1920   31.6630   46.7920 C   0  0  0  0  0  0  0  0  0  0  0  0
   61.1710   33.0760   47.2610 N   0  0  0  0  0  0  0  0  0  0  0  0
   62.0580   33.2360   48.7600 S   0  0  0  0  0  0  0  0  0  0  0  0
   63.2640   32.3370   48.7160 O   0  0  0  0  0  0  0  0  0  0  0  0
   62.5210   34.6550   48.9320 O   0  0  0  0  0  0  0  0  0  0  0  0
   61.0300   32.7980   50.1330 C   0  0  0  0  0  0  0  0  0  0  0  0
   60.5450   33.8130   50.9700 C   0  0  0  0  0  0  0  0  0  0  0  0
   59.7730   33.5010   52.0890 C   0  0  0  0  0  0  0  0  0  0  0  0
   59.4750   32.1730   52.3830 C   0  0  0  0  0  0  0  0  0  0  0  0
   59.9510   31.1500   51.5600 C   0  0  0  0  0  0  0  0  0  0  0  0
   60.7390   31.4470   50.4320 C   0  0  0  0  0  0  0  0  0  0  0  0
   61.1960   30.3860   49.5730 N   0  0  0  0  0  0  0  0  0  0  0  0
   60.8220   29.0090   49.7500 C   0  0  0  0  0  0  0  0  0  0  0  0
   60.4700   28.5870   50.8830 O   0  0  0  0  0  0  0  0  0  0  0  0
   60.9080   28.0840   48.6650 N   0  0  0  0  0  0  0  0  0  0  0  0
   59.7920   27.5350   47.9500 C   0  0  0  0  0  0  0  0  0  0  0  0
   59.8570   26.2730   47.3340 C   0  0  0  0  0  0  0  0  0  0  0  0
   58.7590   25.7770   46.6250 C   0  0  0  0  0  0  0  0  0  0  0  0
   57.5850   26.5410   46.4990 C   0  0  0  0  0  0  0  0  0  0  0  0
   56.4230   26.0220   45.7410 C   0  0  0  0  0  0  0  0  0  0  0  0
   56.5730   25.1170   44.8810 O   0  0  0  0  0  0  0  0  0  0  0  0
   55.1520   26.5350   45.9610 O   0  0  0  0  0  0  0  0  0  0  0  0
   57.5360   27.8150   47.0880 C   0  0  0  0  0  0  0  0  0  0  0  0
   58.6350   28.3080   47.8010 C   0  0  0  0  0  0  0  0  0  0  0  0
   59.8200   33.6460   47.4300 C   0  0  0  0  0  0  0  0  0  0  0  0
   58.9460   33.3900   46.1860 C   0  0  2  0  0  0  0  0  0  0  0  0
   57.5130   33.8690   46.4490 C   0  0  0  0  0  0  0  0  0  0  0  0
   58.1720   32.1030   43.4980 C   0  0  0  0  0  0  0  0  0  0  0  0
   57.3247   33.4299   41.3096 H   0  0  0  0  0  0  0  0  0  0  0  0
   58.2812   32.1136   40.5485 H   0  0  0  0  0  0  0  0  0  0  0  0
   56.4866   32.0352   40.5485 H   0  0  0  0  0  0  0  0  0  0  0  0
   55.9882   30.0974   41.7900 H   0  0  0  0  0  0  0  0  0  0  0  0
   55.9892   28.9106   43.9853 H   0  0  0  0  0  0  0  0  0  0  0  0
   57.3810   29.7635   45.8703 H   0  0  0  0  0  0  0  0  0  0  0  0
   59.3450   30.8749   47.6021 H   0  0  0  0  0  0  0  0  0  0  0  0
   59.8885   30.0843   46.0848 H   0  0  0  0  0  0  0  0  0  0  0  0
   61.7466   31.0624   47.5280 H   0  0  0  0  0  0  0  0  0  0  0  0
   61.6685   31.6637   45.8006 H   0  0  0  0  0  0  0  0  0  0  0  0
   60.7753   34.8642   50.7422 H   0  0  0  0  0  0  0  0  0  0  0  0
   59.3991   34.3050   52.7400 H   0  0  0  0  0  0  0  0  0  0  0  0
   58.8639   31.9293   53.2646 H   0  0  0  0  0  0  0  0  0  0  0  0
   59.7081   30.1033   51.7952 H   0  0  0  0  0  0  0  0  0  0  0  0
   61.8430   30.6140   48.7860 H   0  0  0  0  0  0  0  0  0  0  0  0
   60.7759   25.6732   47.4102 H   0  0  0  0  0  0  0  0  0  0  0  0
   58.8137   24.7808   46.1618 H   0  0  0  0  0  0  0  0  0  0  0  0
   56.6287   28.4290   46.9884 H   0  0  0  0  0  0  0  0  0  0  0  0
   58.5888   29.3119   48.2482 H   0  0  0  0  0  0  0  0  0  0  0  0
   59.3421   33.1823   48.3056 H   0  0  0  0  0  0  0  0  0  0  0  0
   59.9160   34.7328   47.5700 H   0  0  0  0  0  0  0  0  0  0  0  0
   59.3573   33.9547   45.3363 H   0  0  0  0  0  0  0  0  0  0  0  0
   57.3391   33.9271   47.5336 H   0  0  0  0  0  0  0  0  0  0  0  0
   57.3708   34.8635   46.0010 H   0  0  0  0  0  0  0  0  0  0  0  0
   56.8013   33.1599   46.0010 H   0  0  0  0  0  0  0  0  0  0  0  0
   58.7806   33.0091   43.3621 H   0  0  0  0  0  0  0  0  0  0  0  0
  1  2  1  0
  2  3  2  0
  3  4  1  0
  4  5  2  0
  5  6  1  0
  6  7  1  0
  7  8  1  0
  8  9  1  0
  9 10  1  0
 10 11  1  0
 11 12  2  0
 11 13  2  0
 11 14  1  0
 14 15  2  0
 15 16  1  0
 16 17  2  0
 17 18  1  0
 18 19  2  0
 19 20  1  0
 20 21  1  0
 21 22  2  0
 21 23  1  0
 23 24  1  0
 24 25  2  0
 25 26  1  0
 26 27  2  0
 27 28  1  0
 28 29  2  0
 28 30  1  0
 27 31  1  0
 31 32  2  0
 10 33  1  0
 33 34  1  0
 34 35  1  0
  6 36  2  0
 36  2  1  0
 34  7  1  0
 19 14  1  0
 32 24  1  0
  1 37  1  0
  1 38  1  0
  1 39  1  0
  3 40  1  0
  4 41  1  0
  5 42  1  0
  8 43  1  0
  8 44  1  0
  9 45  1  0
  9 46  1  0
 15 47  1  0
 16 48  1  0
 17 49  1  0
 18 50  1  0
 20 51  1  0
 25 52  1  0
 26 53  1  0
 31 54  1  0
 32 55  1  0
 33 56  1  0
 33 57  1  0
 34 58  1  6
 35 59  1  0
 35 60  1  0
 35 61  1  0
 36 62  1  0
M  CHG  2  23  -1  30  -1
M  END
>  <UniqueID>  (58) 
56

>  <SMILES>  (58) 
Cc1cccc(N2CCN(S(=O)(=O)c3ccccc3NC(=O)[N-]c3ccc(C(=O)[O-])cc3)C[C@@H]2C)c1

>  <Energy>  (58) 
80.41859545269689

>  <Genealogy>  (58) 
Cc1cccc(N2CCN(S(=O)(=O)c3ccccc3NC(=O)[N-]c3ccc(C(=O)[O-])cc3)CC2C)c1 (protonated)
Cc1cccc(N2CCN(S(=O)(=O)c3ccccc3NC(=O)[N-]c3ccc(C(=O)[O-])cc3)C[C@@H]2C)c1 (chirality)
Cc1cccc(N2CCN(S(=O)(=O)c3ccccc3NC(=O)[N-]c3ccc(C(=O)[O-])cc3)C[C@@H]2C)c1 (3D coordinates assigned)
Cc1cccc(N2CCN(S(=O)(=O)c3ccccc3NC(=O)[N-]c3ccc(C(=O)[O-])cc3)C[C@@H]2C)c1 (nonaromatic ring conformer: 80.41859545269689 kcal/mol)

>  <smiles>  (58) 
Cc1cccc(N2CCN(S(=O)(=O)c3ccccc3NC(=O)Nc3ccc(C(=O)O)cc3)CC2C)c1

>  <score_type>  (58) 
oracle

>  <origin>  (58) 
adg

>  <m_score__min__energy>  (58) 
-13.84

>  <m_primary>  (58) 
energy

$$$$
58:0
     RDKit          3D

 73 76  0  0  0  0  0  0  0  0999 V2000
   59.2770   33.4350   49.7380 C   0  0  0  0  0  0  0  0  0  0  0  0
   59.7480   34.5720   48.8340 C   0  0  0  0  0  0  0  0  0  0  0  0
   59.0470   34.5200   47.5280 N   0  0  0  0  0  0  0  0  0  0  0  0
   59.9750   34.4120   46.3830 C   0  0  0  0  0  0  0  0  0  0  0  0
   60.7370   33.0710   46.3730 C   0  0  0  0  0  0  0  0  0  0  0  0
   60.0110   32.0420   47.1410 N   0  0  0  0  0  0  0  0  0  0  0  0
   60.6500   30.7130   47.2730 C   0  0  0  0  0  0  0  0  0  0  0  0
   61.2510   30.3570   48.6360 C   0  0  0  0  0  0  0  0  0  0  0  0
   62.2610   31.1500   49.2230 C   0  0  0  0  0  0  0  0  0  0  0  0
   62.8220   30.8270   50.4690 C   0  0  0  0  0  0  0  0  0  0  0  0
   63.8540   31.7010   51.0760 C   0  0  0  0  0  0  0  0  0  0  0  0
   64.1200   31.5850   52.3040 O   0  0  0  0  0  0  0  0  0  0  0  0
   64.5050   32.7200   50.2960 N   0  0  0  0  0  0  0  0  0  0  0  0
   65.7350   33.3580   50.6840 C   0  0  0  0  0  0  0  0  0  0  0  0
   66.9470   32.9130   50.1290 C   0  0  0  0  0  0  0  0  0  0  0  0
   68.1580   33.5090   50.5020 C   0  0  0  0  0  0  0  0  0  0  0  0
   68.1680   34.5350   51.4530 C   0  0  0  0  0  0  0  0  0  0  0  0
   66.9700   34.9670   52.0310 C   0  0  0  0  0  0  0  0  0  0  0  0
   65.7580   34.3790   51.6530 C   0  0  0  0  0  0  0  0  0  0  0  0
   62.3810   29.6760   51.1330 C   0  0  0  0  0  0  0  0  0  0  0  0
   61.4290   28.8430   50.5490 C   0  0  0  0  0  0  0  0  0  0  0  0
   60.8730   29.1500   49.2950 C   0  0  0  0  0  0  0  0  0  0  0  0
   59.9630   28.1490   48.6760 C   0  0  0  0  0  0  0  0  0  0  0  0
   60.1450   26.9220   48.8960 O   0  0  0  0  0  0  0  0  0  0  0  0
   58.8040   28.5370   47.9240 N   0  0  0  0  0  0  0  0  0  0  0  0
   58.5700   28.3350   46.5210 C   0  0  0  0  0  0  0  0  0  0  0  0
   58.8750   27.1190   45.8800 C   0  0  0  0  0  0  0  0  0  0  0  0
   58.5630   26.9450   44.5280 C   0  0  0  0  0  0  0  0  0  0  0  0
   57.9330   27.9680   43.8130 C   0  0  0  0  0  0  0  0  0  0  0  0
   57.6090   29.1750   44.4490 C   0  0  0  0  0  0  0  0  0  0  0  0
   56.7740   30.4560   43.5610 S   0  0  0  0  0  0  0  0  0  0  0  0
   55.8730   31.2040   44.5030 O   0  0  0  0  0  0  0  0  0  0  0  0
   55.9140   29.8400   42.4930 O   0  0  0  0  0  0  0  0  0  0  0  0
   57.9020   31.5770   42.8320 N   0  0  0  0  0  0  0  0  0  0  0  0
   57.4000   32.0050   41.5190 C   0  0  0  0  0  0  0  0  0  0  0  0
   58.0840   32.7460   43.7010 C   0  0  0  0  0  0  0  0  0  0  0  0
   57.9310   29.3520   45.8010 C   0  0  0  0  0  0  0  0  0  0  0  0
   58.5440   32.0830   47.0340 C   0  0  0  0  0  0  0  0  0  0  0  0
   58.0020   33.4670   47.4680 C   0  0  0  0  0  0  0  0  0  0  0  0
   59.3989   33.7292   50.7909 H   0  0  0  0  0  0  0  0  0  0  0  0
   58.2167   33.2221   49.5372 H   0  0  0  0  0  0  0  0  0  0  0  0
   59.8762   32.5346   49.5372 H   0  0  0  0  0  0  0  0  0  0  0  0
   59.5345   35.5346   49.3216 H   0  0  0  0  0  0  0  0  0  0  0  0
   60.8294   34.4661   48.6624 H   0  0  0  0  0  0  0  0  0  0  0  0
   59.3980   34.4982   45.4504 H   0  0  0  0  0  0  0  0  0  0  0  0
   60.7160   35.2200   46.4724 H   0  0  0  0  0  0  0  0  0  0  0  0
   60.8505   32.7300   45.3334 H   0  0  0  0  0  0  0  0  0  0  0  0
   61.7215   33.2251   46.8390 H   0  0  0  0  0  0  0  0  0  0  0  0
   59.8880   29.9549   47.0393 H   0  0  0  0  0  0  0  0  0  0  0  0
   61.5071   30.7411   46.5841 H   0  0  0  0  0  0  0  0  0  0  0  0
   62.6176   32.0440   48.6904 H   0  0  0  0  0  0  0  0  0  0  0  0
   64.0000   33.0960   49.4630 H   0  0  0  0  0  0  0  0  0  0  0  0
   66.9444   32.0917   49.3973 H   0  0  0  0  0  0  0  0  0  0  0  0
   69.1009   33.1707   50.0475 H   0  0  0  0  0  0  0  0  0  0  0  0
   69.1194   35.0026   51.7465 H   0  0  0  0  0  0  0  0  0  0  0  0
   66.9806   35.7695   52.7832 H   0  0  0  0  0  0  0  0  0  0  0  0
   64.8185   34.7161   52.1152 H   0  0  0  0  0  0  0  0  0  0  0  0
   62.7894   29.4274   52.1237 H   0  0  0  0  0  0  0  0  0  0  0  0
   61.1081   27.9326   51.0765 H   0  0  0  0  0  0  0  0  0  0  0  0
   59.3583   26.3065   46.4423 H   0  0  0  0  0  0  0  0  0  0  0  0
   58.8142   25.9995   44.0251 H   0  0  0  0  0  0  0  0  0  0  0  0
   57.6910   27.8258   42.7494 H   0  0  0  0  0  0  0  0  0  0  0  0
   56.5696   32.7130   41.6570 H   0  0  0  0  0  0  0  0  0  0  0  0
   58.2100   32.4946   40.9586 H   0  0  0  0  0  0  0  0  0  0  0  0
   57.0446   31.1277   40.9586 H   0  0  0  0  0  0  0  0  0  0  0  0
   58.0350   32.4314   44.7539 H   0  0  0  0  0  0  0  0  0  0  0  0
   59.0641   33.2031   43.5001 H   0  0  0  0  0  0  0  0  0  0  0  0
   57.2892   33.4795   43.5001 H   0  0  0  0  0  0  0  0  0  0  0  0
   57.6795   30.2987   46.3016 H   0  0  0  0  0  0  0  0  0  0  0  0
   58.2526   31.8921   45.9906 H   0  0  0  0  0  0  0  0  0  0  0  0
   58.1195   31.3136   47.6957 H   0  0  0  0  0  0  0  0  0  0  0  0
   57.2323   33.7810   46.7476 H   0  0  0  0  0  0  0  0  0  0  0  0
   57.5994   33.3523   48.4852 H   0  0  0  0  0  0  0  0  0  0  0  0
  1  2  1  0
  2  3  1  0
  3  4  1  0
  4  5  1  0
  5  6  1  0
  6  7  1  0
  7  8  1  0
  8  9  2  0
  9 10  1  0
 10 11  1  0
 11 12  2  0
 11 13  1  0
 13 14  1  0
 14 15  2  0
 15 16  1  0
 16 17  2  0
 17 18  1  0
 18 19  2  0
 10 20  2  0
 20 21  1  0
 21 22  2  0
 22 23  1  0
 23 24  2  0
 23 25  1  0
 25 26  1  0
 26 27  2  0
 27 28  1  0
 28 29  2  0
 29 30  1  0
 30 31  1  0
 31 32  2  0
 31 33  2  0
 31 34  1  0
 34 35  1  0
 34 36  1  0
 30 37  2  0
  6 38  1  0
 38 39  1  0
 39  3  1  0
 22  8  1  0
 37 26  1  0
 19 14  1  0
  1 40  1  0
  1 41  1  0
  1 42  1  0
  2 43  1  0
  2 44  1  0
  4 45  1  0
  4 46  1  0
  5 47  1  0
  5 48  1  0
  7 49  1  0
  7 50  1  0
  9 51  1  0
 13 52  1  0
 15 53  1  0
 16 54  1  0
 17 55  1  0
 18 56  1  0
 19 57  1  0
 20 58  1  0
 21 59  1  0
 27 60  1  0
 28 61  1  0
 29 62  1  0
 35 63  1  0
 35 64  1  0
 35 65  1  0
 36 66  1  0
 36 67  1  0
 36 68  1  0
 37 69  1  0
 38 70  1  0
 38 71  1  0
 39 72  1  0
 39 73  1  0
M  CHG  1  25  -1
M  END
>  <UniqueID>  (59) 
57

>  <SMILES>  (59) 
CCN1CCN(Cc2cc(C(=O)Nc3ccccc3)ccc2C(=O)[N-]c2cccc(S(=O)(=O)N(C)C)c2)CC1

>  <Energy>  (59) 
110.90460318054949

>  <Genealogy>  (59) 
CCN1CCN(Cc2cc(C(=O)Nc3ccccc3)ccc2C(=O)[N-]c2cccc(S(=O)(=O)N(C)C)c2)CC1 (protonated)
CCN1CCN(Cc2cc(C(=O)Nc3ccccc3)ccc2C(=O)[N-]c2cccc(S(=O)(=O)N(C)C)c2)CC1 (3D coordinates assigned)
CCN1CCN(Cc2cc(C(=O)Nc3ccccc3)ccc2C(=O)[N-]c2cccc(S(=O)(=O)N(C)C)c2)CC1 (nonaromatic ring conformer: 110.90460318054949 kcal/mol)

>  <smiles>  (59) 
CCN1CCN(Cc2cc(C(=O)Nc3ccccc3)ccc2C(=O)Nc2cccc(S(=O)(=O)N(C)C)c2)CC1

>  <score_type>  (59) 
oracle

>  <origin>  (59) 
adg

>  <m_score__min__energy>  (59) 
-11.02

>  <m_primary>  (59) 
energy

$$$$
59:0
     RDKit          3D

 61 63  0  0  0  0  0  0  0  0999 V2000
   57.4140   26.5400   44.4910 O   0  0  0  0  0  0  0  0  0  0  0  0
   57.0320   26.9300   45.6270 C   0  0  0  0  0  0  0  0  0  0  0  0
   56.4570   25.9770   46.5270 N   0  0  0  0  0  0  0  0  0  0  0  0
   57.2210   25.0750   47.3910 C   0  0  1  0  0  0  0  0  0  0  0  0
   56.4500   23.8090   47.6350 C   0  0  0  0  0  0  0  0  0  0  0  0
   55.2390   23.7220   47.2920 O   0  0  0  0  0  0  0  0  0  0  0  0
   57.0850   22.7100   48.2000 O   0  0  0  0  0  0  0  0  0  0  0  0
   58.5350   24.7360   46.7540 C   0  0  0  0  0  0  0  0  0  0  0  0
   58.7000   23.6200   46.1880 O   0  0  0  0  0  0  0  0  0  0  0  0
   59.6240   25.6640   46.8600 N   0  0  0  0  0  0  0  0  0  0  0  0
   59.9580   26.3900   48.0800 C   0  0  0  0  0  0  0  0  0  0  0  0
   59.2830   27.7670   48.1000 C   0  0  0  0  0  0  0  0  0  0  0  0
   60.0660   28.7950   47.2700 C   0  0  0  0  0  0  0  0  0  0  0  0
   60.7410   29.7970   48.1280 N   0  0  0  0  0  0  0  0  0  0  0  0
   59.7800   30.4670   49.0420 C   0  0  0  0  0  0  0  0  0  0  0  0
   60.3850   31.7450   49.6450 C   0  0  0  0  0  0  0  0  0  0  0  0
   60.7790   32.7390   48.6110 N   0  0  0  0  0  0  0  0  0  0  0  0
   59.8650   33.9010   48.5880 C   0  0  0  0  0  0  0  0  0  0  0  0
   59.1190   33.9620   47.2800 C   0  0  0  0  0  0  0  0  0  0  0  0
   57.8810   33.3090   47.1460 C   0  0  0  0  0  0  0  0  0  0  0  0
   57.1600   33.4030   45.9510 C   0  0  0  0  0  0  0  0  0  0  0  0
   57.6650   34.1540   44.8840 C   0  0  0  0  0  0  0  0  0  0  0  0
   58.8930   34.8090   45.0110 C   0  0  0  0  0  0  0  0  0  0  0  0
   59.6200   34.7160   46.2040 C   0  0  0  0  0  0  0  0  0  0  0  0
   60.9330   32.1510   47.2570 C   0  0  0  0  0  0  0  0  0  0  0  0
   61.5590   30.7510   47.3330 C   0  0  0  0  0  0  0  0  0  0  0  0
   57.1820   28.3080   46.0020 N   0  0  0  0  0  0  0  0  0  0  0  0
   57.2270   29.3860   45.0520 C   0  0  0  0  0  0  0  0  0  0  0  0
   58.4230   30.0900   44.8150 C   0  0  0  0  0  0  0  0  0  0  0  0
   58.4750   31.0910   43.8410 C   0  0  0  0  0  0  0  0  0  0  0  0
   57.3390   31.3900   43.0860 C   0  0  0  0  0  0  0  0  0  0  0  0
   56.1460   30.6970   43.3100 C   0  0  0  0  0  0  0  0  0  0  0  0
   56.0870   29.6950   44.2850 C   0  0  0  0  0  0  0  0  0  0  0  0
   54.8900   29.0140   44.4910 O   0  0  0  0  0  0  0  0  0  0  0  0
   57.3992   25.5842   48.3496 H   0  0  0  0  0  0  0  0  0  0  0  0
   59.6168   25.8091   48.9496 H   0  0  0  0  0  0  0  0  0  0  0  0
   61.0481   26.5326   48.1167 H   0  0  0  0  0  0  0  0  0  0  0  0
   58.2683   27.6728   47.6858 H   0  0  0  0  0  0  0  0  0  0  0  0
   59.2522   28.1189   49.1417 H   0  0  0  0  0  0  0  0  0  0  0  0
   60.8253   28.2673   46.6742 H   0  0  0  0  0  0  0  0  0  0  0  0
   59.3527   29.3253   46.6220 H   0  0  0  0  0  0  0  0  0  0  0  0
   58.8730   30.7308   48.4783 H   0  0  0  0  0  0  0  0  0  0  0  0
   59.5392   29.7749   49.8624 H   0  0  0  0  0  0  0  0  0  0  0  0
   59.6405   32.2063   50.3105 H   0  0  0  0  0  0  0  0  0  0  0  0
   61.2954   31.4554   50.1903 H   0  0  0  0  0  0  0  0  0  0  0  0
   59.1426   33.8093   49.4125 H   0  0  0  0  0  0  0  0  0  0  0  0
   60.4573   34.8209   48.7022 H   0  0  0  0  0  0  0  0  0  0  0  0
   57.4778   32.7218   47.9843 H   0  0  0  0  0  0  0  0  0  0  0  0
   56.1945   32.8857   45.8500 H   0  0  0  0  0  0  0  0  0  0  0  0
   57.0958   34.2289   43.9457 H   0  0  0  0  0  0  0  0  0  0  0  0
   59.2894   35.3991   44.1716 H   0  0  0  0  0  0  0  0  0  0  0  0
   60.5856   35.2341   46.2998 H   0  0  0  0  0  0  0  0  0  0  0  0
   59.9435   32.0773   46.7822 H   0  0  0  0  0  0  0  0  0  0  0  0
   61.5964   32.8000   46.6665 H   0  0  0  0  0  0  0  0  0  0  0  0
   61.6645   30.3571   46.3114 H   0  0  0  0  0  0  0  0  0  0  0  0
   62.5330   30.8503   47.8344 H   0  0  0  0  0  0  0  0  0  0  0  0
   57.3100   28.5350   47.0120 H   0  0  0  0  0  0  0  0  0  0  0  0
   59.3229   29.8505   45.4006 H   0  0  0  0  0  0  0  0  0  0  0  0
   59.4107   31.6432   43.6692 H   0  0  0  0  0  0  0  0  0  0  0  0
   57.3831   32.1721   42.3138 H   0  0  0  0  0  0  0  0  0  0  0  0
   55.2511   30.9399   42.7183 H   0  0  0  0  0  0  0  0  0  0  0  0
  1  2  2  0
  2  3  1  0
  3  4  1  0
  4  5  1  0
  5  6  2  0
  5  7  1  0
  4  8  1  0
  8  9  2  0
  8 10  1  0
 10 11  1  0
 11 12  1  0
 12 13  1  0
 13 14  1  0
 14 15  1  0
 15 16  1  0
 16 17  1  0
 17 18  1  0
 18 19  1  0
 19 20  2  0
 20 21  1  0
 21 22  2  0
 22 23  1  0
 23 24  2  0
 17 25  1  0
 25 26  1  0
  2 27  1  0
 27 28  1  0
 28 29  2  0
 29 30  1  0
 30 31  2  0
 31 32  1  0
 32 33  2  0
 33 34  1  0
 26 14  1  0
 33 28  1  0
 24 19  1  0
  4 35  1  1
 11 36  1  0
 11 37  1  0
 12 38  1  0
 12 39  1  0
 13 40  1  0
 13 41  1  0
 15 42  1  0
 15 43  1  0
 16 44  1  0
 16 45  1  0
 18 46  1  0
 18 47  1  0
 20 48  1  0
 21 49  1  0
 22 50  1  0
 23 51  1  0
 24 52  1  0
 25 53  1  0
 25 54  1  0
 26 55  1  0
 26 56  1  0
 27 57  1  0
 29 58  1  0
 30 59  1  0
 31 60  1  0
 32 61  1  0
M  CHG  4   3  -1   7  -1  10  -1  34  -1
M  END
>  <UniqueID>  (60) 
58

>  <SMILES>  (60) 
O=C([N-][C@@H](C(=O)[O-])C(=O)[N-]CCCN1CCN(Cc2ccccc2)CC1)Nc1ccccc1[O-]

>  <Energy>  (60) 
73.07625558094577

>  <Genealogy>  (60) 
O=C([N-]C(C(=O)[O-])C(=O)[N-]CCCN1CCN(Cc2ccccc2)CC1)Nc1ccccc1[O-] (protonated)
O=C([N-][C@@H](C(=O)[O-])C(=O)[N-]CCCN1CCN(Cc2ccccc2)CC1)Nc1ccccc1[O-] (chirality)
O=C([N-][C@@H](C(=O)[O-])C(=O)[N-]CCCN1CCN(Cc2ccccc2)CC1)Nc1ccccc1[O-] (3D coordinates assigned)
O=C([N-][C@@H](C(=O)[O-])C(=O)[N-]CCCN1CCN(Cc2ccccc2)CC1)Nc1ccccc1[O-] (nonaromatic ring conformer: 73.07625558094577 kcal/mol)

>  <smiles>  (60) 
O=C(Nc1ccccc1O)NC(C(=O)O)C(=O)NCCCN1CCN(Cc2ccccc2)CC1

>  <score_type>  (60) 
oracle

>  <origin>  (60) 
adg

>  <m_score__min__energy>  (60) 
-16.920000000000002

>  <m_primary>  (60) 
energy

$$$$
60:0
     RDKit          3D

 52 55  0  0  0  0  0  0  0  0999 V2000
   57.8940   27.6470   46.8840 C   0  0  0  0  0  0  0  0  0  0  0  0
   56.6890   27.3130   45.6160 S   0  0  0  0  0  0  0  0  0  0  0  0
   57.4000   26.7700   44.4100 O   0  0  0  0  0  0  0  0  0  0  0  0
   55.6940   26.2920   46.0930 O   0  0  0  0  0  0  0  0  0  0  0  0
   55.8720   28.7760   45.1690 N   0  0  0  0  0  0  0  0  0  0  0  0
   56.4530   29.8740   44.4540 C   0  0  0  0  0  0  0  0  0  0  0  0
   56.4550   29.8330   43.0570 C   0  0  0  0  0  0  0  0  0  0  0  0
   57.0160   30.8780   42.3200 C   0  0  0  0  0  0  0  0  0  0  0  0
   57.5870   31.9700   42.9730 C   0  0  0  0  0  0  0  0  0  0  0  0
   57.6010   32.0330   44.3780 C   0  0  0  0  0  0  0  0  0  0  0  0
   58.2510   33.1800   45.0590 C   0  0  0  0  0  0  0  0  0  0  0  0
   59.3400   33.6860   44.5720 N   0  0  0  0  0  0  0  0  0  0  0  0
   60.0090   34.7010   45.2310 O   0  0  0  0  0  0  0  0  0  0  0  0
   59.9910   34.8330   46.6600 C   0  0  2  0  0  0  0  0  0  0  0  0
   61.2100   34.1310   47.2290 C   0  0  0  0  0  0  0  0  0  0  0  0
   60.7000   32.7570   47.5990 C   0  0  0  0  0  0  0  0  0  0  0  0
   59.3250   32.9500   48.0630 N   0  0  0  0  0  0  0  0  0  0  0  0
   58.5260   31.7050   48.0550 C   0  0  0  0  0  0  0  0  0  0  0  0
   59.1850   30.6220   48.8890 C   0  0  0  0  0  0  0  0  0  0  0  0
   59.9300   29.6410   48.2080 C   0  0  0  0  0  0  0  0  0  0  0  0
   60.5650   28.6140   48.9030 C   0  0  0  0  0  0  0  0  0  0  0  0
   60.4770   28.5530   50.2900 C   0  0  0  0  0  0  0  0  0  0  0  0
   59.7590   29.5230   50.9900 C   0  0  0  0  0  0  0  0  0  0  0  0
   59.1090   30.5760   50.3130 C   0  0  0  0  0  0  0  0  0  0  0  0
   58.3590   31.6270   51.1150 C   0  0  0  0  0  0  0  0  0  0  0  0
   58.8280   32.8870   50.7920 F   0  0  0  0  0  0  0  0  0  0  0  0
   57.0000   31.5990   50.8570 F   0  0  0  0  0  0  0  0  0  0  0  0
   58.5370   31.3990   52.4680 F   0  0  0  0  0  0  0  0  0  0  0  0
   58.7840   34.1210   47.3230 C   0  0  2  0  0  0  0  0  0  0  0  0
   57.6710   33.8220   46.2890 C   0  0  0  0  0  0  0  0  0  0  0  0
   57.0160   30.9840   45.1120 C   0  0  0  0  0  0  0  0  0  0  0  0
   57.4305   27.5185   47.8733 H   0  0  0  0  0  0  0  0  0  0  0  0
   58.7378   26.9489   46.7810 H   0  0  0  0  0  0  0  0  0  0  0  0
   58.2580   28.6799   46.7810 H   0  0  0  0  0  0  0  0  0  0  0  0
   56.0119   28.9722   42.5348 H   0  0  0  0  0  0  0  0  0  0  0  0
   57.0075   30.8397   41.2207 H   0  0  0  0  0  0  0  0  0  0  0  0
   58.0295   32.7877   42.3852 H   0  0  0  0  0  0  0  0  0  0  0  0
   59.9513   35.9129   46.8656 H   0  0  0  0  0  0  0  0  0  0  0  0
   62.0088   34.0620   46.4759 H   0  0  0  0  0  0  0  0  0  0  0  0
   61.6458   34.6661   48.0856 H   0  0  0  0  0  0  0  0  0  0  0  0
   60.7181   32.0933   46.7219 H   0  0  0  0  0  0  0  0  0  0  0  0
   61.3255   32.2896   48.3738 H   0  0  0  0  0  0  0  0  0  0  0  0
   57.5281   31.9169   48.4666 H   0  0  0  0  0  0  0  0  0  0  0  0
   58.4509   31.3471   47.0176 H   0  0  0  0  0  0  0  0  0  0  0  0
   60.0120   29.6858   47.1120 H   0  0  0  0  0  0  0  0  0  0  0  0
   61.1364   27.8507   48.3545 H   0  0  0  0  0  0  0  0  0  0  0  0
   60.9747   27.7381   50.8361 H   0  0  0  0  0  0  0  0  0  0  0  0
   59.6989   29.4657   52.0869 H   0  0  0  0  0  0  0  0  0  0  0  0
   58.2659   34.7587   48.0544 H   0  0  0  0  0  0  0  0  0  0  0  0
   56.9331   33.1412   46.7386 H   0  0  0  0  0  0  0  0  0  0  0  0
   57.1896   34.7685   46.0020 H   0  0  0  0  0  0  0  0  0  0  0  0
   56.9986   31.0320   46.2108 H   0  0  0  0  0  0  0  0  0  0  0  0
  1  2  1  0
  2  3  2  0
  2  4  2  0
  2  5  1  0
  5  6  1  0
  6  7  2  0
  7  8  1  0
  8  9  2  0
  9 10  1  0
 10 11  1  0
 11 12  2  0
 12 13  1  0
 13 14  1  0
 14 15  1  0
 15 16  1  0
 16 17  1  0
 17 18  1  0
 18 19  1  0
 19 20  2  0
 20 21  1  0
 21 22  2  0
 22 23  1  0
 23 24  2  0
 24 25  1  0
 25 26  1  0
 25 27  1  0
 25 28  1  0
 17 29  1  0
 29 30  1  0
 10 31  2  0
 31  6  1  0
 30 11  1  0
 29 14  1  0
 24 19  1  0
  1 32  1  0
  1 33  1  0
  1 34  1  0
  7 35  1  0
  8 36  1  0
  9 37  1  0
 14 38  1  6
 15 39  1  0
 15 40  1  0
 16 41  1  0
 16 42  1  0
 18 43  1  0
 18 44  1  0
 20 45  1  0
 21 46  1  0
 22 47  1  0
 23 48  1  0
 29 49  1  1
 30 50  1  0
 30 51  1  0
 31 52  1  0
M  CHG  1   5  -1
M  END
>  <UniqueID>  (61) 
59

>  <SMILES>  (61) 
CS(=O)(=O)[N-]c1cccc(C2=NO[C@@H]3CCN(Cc4ccccc4C(F)(F)F)[C@@H]3C2)c1

>  <Energy>  (61) 
73.85458378870723

>  <Genealogy>  (61) 
CS(=O)(=O)[N-]c1cccc(C2=NOC3CCN(Cc4ccccc4C(F)(F)F)C3C2)c1 (protonated)
CS(=O)(=O)[N-]c1cccc(C2=NO[C@@H]3CCN(Cc4ccccc4C(F)(F)F)[C@@H]3C2)c1 (chirality)
CS(=O)(=O)[N-]c1cccc(C2=NO[C@@H]3CCN(Cc4ccccc4C(F)(F)F)[C@@H]3C2)c1 (3D coordinates assigned)
CS(=O)(=O)[N-]c1cccc(C2=NO[C@@H]3CCN(Cc4ccccc4C(F)(F)F)[C@@H]3C2)c1 (nonaromatic ring conformer: 73.85458378870723 kcal/mol)

>  <smiles>  (61) 
CS(=O)(=O)Nc1cccc(C2=NOC3CCN(Cc4ccccc4C(F)(F)F)C3C2)c1

>  <score_type>  (61) 
oracle

>  <origin>  (61) 
adg

>  <m_score__min__energy>  (61) 
-11.029999999999999

>  <m_primary>  (61) 
energy

$$$$
61:0
     RDKit          3D

 48 50  0  0  0  0  0  0  0  0999 V2000
   57.9890   27.5220   43.1260 C   0  0  0  0  0  0  0  0  0  0  0  0
   58.5570   27.8840   44.4740 C   0  0  0  0  0  0  0  0  0  0  0  0
   59.9430   28.1040   44.5770 C   0  0  0  0  0  0  0  0  0  0  0  0
   60.5270   28.4230   45.8010 C   0  0  0  0  0  0  0  0  0  0  0  0
   59.7370   28.5340   46.9450 C   0  0  0  0  0  0  0  0  0  0  0  0
   60.4870   28.9970   48.5110 S   0  0  0  0  0  0  0  0  0  0  0  0
   59.0080   29.8670   49.1440 C   0  0  0  0  0  0  0  0  0  0  0  0
   58.8630   31.2110   48.5040 C   0  0  0  0  0  0  0  0  0  0  0  0
   58.3080   32.1430   49.1440 O   0  0  0  0  0  0  0  0  0  0  0  0
   59.4050   31.4500   47.1990 N   0  0  0  0  0  0  0  0  0  0  0  0
   59.1600   32.6500   46.4520 C   0  0  0  0  0  0  0  0  0  0  0  0
   57.9930   32.7320   45.6800 C   0  0  0  0  0  0  0  0  0  0  0  0
   57.7180   33.8770   44.9280 C   0  0  0  0  0  0  0  0  0  0  0  0
   58.6010   34.9570   44.9530 C   0  0  0  0  0  0  0  0  0  0  0  0
   59.7540   34.9010   45.7410 C   0  0  0  0  0  0  0  0  0  0  0  0
   60.0430   33.7580   46.5040 C   0  0  0  0  0  0  0  0  0  0  0  0
   61.2060   33.7540   47.3520 N   0  0  0  0  0  0  0  0  0  0  0  0
   61.0410   34.0190   48.7920 C   0  0  0  0  0  0  0  0  0  0  0  0
   62.3160   33.7270   49.6000 C   0  0  0  0  0  0  0  0  0  0  0  0
   63.1570   32.8100   48.9330 O   0  0  0  0  0  0  0  0  0  0  0  0
   63.6440   33.4180   47.7570 C   0  0  0  0  0  0  0  0  0  0  0  0
   62.5260   33.5630   46.7240 C   0  0  0  0  0  0  0  0  0  0  0  0
   58.3590   28.3120   46.8660 C   0  0  0  0  0  0  0  0  0  0  0  0
   57.7440   28.0020   45.6370 C   0  0  0  0  0  0  0  0  0  0  0  0
   56.2660   27.8250   45.6140 C   0  0  0  0  0  0  0  0  0  0  0  0
   55.5330   28.7060   45.0900 O   0  0  0  0  0  0  0  0  0  0  0  0
   55.6680   26.6790   46.1230 O   0  0  0  0  0  0  0  0  0  0  0  0
   57.0684   26.9353   43.2616 H   0  0  0  0  0  0  0  0  0  0  0  0
   57.7593   28.4406   42.5662 H   0  0  0  0  0  0  0  0  0  0  0  0
   58.7247   26.9258   42.5662 H   0  0  0  0  0  0  0  0  0  0  0  0
   60.5736   28.0231   43.6794 H   0  0  0  0  0  0  0  0  0  0  0  0
   61.6127   28.5876   45.8652 H   0  0  0  0  0  0  0  0  0  0  0  0
   58.1143   29.2649   48.9232 H   0  0  0  0  0  0  0  0  0  0  0  0
   59.1202   30.0055   50.2295 H   0  0  0  0  0  0  0  0  0  0  0  0
   60.0850   30.7600   46.8060 H   0  0  0  0  0  0  0  0  0  0  0  0
   57.2878   31.8879   45.6661 H   0  0  0  0  0  0  0  0  0  0  0  0
   56.8052   33.9270   44.3162 H   0  0  0  0  0  0  0  0  0  0  0  0
   58.3895   35.8536   44.3518 H   0  0  0  0  0  0  0  0  0  0  0  0
   60.4411   35.7597   45.7637 H   0  0  0  0  0  0  0  0  0  0  0  0
   60.7741   35.0776   48.9265 H   0  0  0  0  0  0  0  0  0  0  0  0
   60.2516   33.3494   49.1643 H   0  0  0  0  0  0  0  0  0  0  0  0
   62.8647   34.6680   49.7530 H   0  0  0  0  0  0  0  0  0  0  0  0
   62.0190   33.2837   50.5619 H   0  0  0  0  0  0  0  0  0  0  0  0
   64.0408   34.4141   48.0026 H   0  0  0  0  0  0  0  0  0  0  0  0
   64.4385   32.7859   47.3336 H   0  0  0  0  0  0  0  0  0  0  0  0
   62.7438   34.4327   46.0866 H   0  0  0  0  0  0  0  0  0  0  0  0
   62.4880   32.6340   46.1363 H   0  0  0  0  0  0  0  0  0  0  0  0
   57.7460   28.3804   47.7768 H   0  0  0  0  0  0  0  0  0  0  0  0
  1  2  1  0
  2  3  2  0
  3  4  1  0
  4  5  2  0
  5  6  1  0
  6  7  1  0
  7  8  1  0
  8  9  2  0
  8 10  1  0
 10 11  1  0
 11 12  2  0
 12 13  1  0
 13 14  2  0
 14 15  1  0
 15 16  2  0
 16 17  1  0
 17 18  1  0
 18 19  1  0
 19 20  1  0
 20 21  1  0
 21 22  1  0
  5 23  1  0
 23 24  2  0
 24 25  1  0
 25 26  2  0
 25 27  1  0
 24  2  1  0
 16 11  1  0
 22 17  1  0
  1 28  1  0
  1 29  1  0
  1 30  1  0
  3 31  1  0
  4 32  1  0
  7 33  1  0
  7 34  1  0
 10 35  1  0
 12 36  1  0
 13 37  1  0
 14 38  1  0
 15 39  1  0
 18 40  1  0
 18 41  1  0
 19 42  1  0
 19 43  1  0
 21 44  1  0
 21 45  1  0
 22 46  1  0
 22 47  1  0
 23 48  1  0
M  CHG  1  27  -1
M  END
>  <UniqueID>  (62) 
60

>  <SMILES>  (62) 
Cc1ccc(SCC(=O)Nc2ccccc2N2CCOCC2)cc1C(=O)[O-]

>  <Energy>  (62) 
61.54947155889184

>  <Genealogy>  (62) 
Cc1ccc(SCC(=O)Nc2ccccc2N2CCOCC2)cc1C(=O)[O-] (protonated)
Cc1ccc(SCC(=O)Nc2ccccc2N2CCOCC2)cc1C(=O)[O-] (3D coordinates assigned)
Cc1ccc(SCC(=O)Nc2ccccc2N2CCOCC2)cc1C(=O)[O-] (nonaromatic ring conformer: 61.54947155889184 kcal/mol)

>  <smiles>  (62) 
Cc1ccc(SCC(=O)Nc2ccccc2N2CCOCC2)cc1C(=O)O

>  <score_type>  (62) 
oracle

>  <origin>  (62) 
adg

>  <m_score__min__energy>  (62) 
-11.27

>  <m_primary>  (62) 
energy

$$$$
62:0
     RDKit          3D

 60 63  0  0  0  0  0  0  0  0999 V2000
   55.1590   29.3560   44.8740 O   0  0  0  0  0  0  0  0  0  0  0  0
   56.3460   29.7800   44.8600 C   0  0  0  0  0  0  0  0  0  0  0  0
   56.5750   31.1440   44.4870 N   0  0  0  0  0  0  0  0  0  0  0  0
   57.4830   32.0620   45.1190 C   0  0  0  0  0  0  0  0  0  0  0  0
   58.0550   33.0860   44.3580 C   0  0  0  0  0  0  0  0  0  0  0  0
   58.9430   33.9940   44.9480 C   0  0  0  0  0  0  0  0  0  0  0  0
   59.2860   33.8680   46.2990 C   0  0  0  0  0  0  0  0  0  0  0  0
   58.7230   32.8400   47.0820 C   0  0  0  0  0  0  0  0  0  0  0  0
   59.1160   32.6560   48.4590 N   0  0  0  0  0  0  0  0  0  0  0  0
   59.4230   33.8400   49.2720 C   0  0  0  0  0  0  0  0  0  0  0  0
   60.2250   33.5020   50.5400 C   0  0  0  0  0  0  0  0  0  0  0  0
   60.8110   32.1570   50.5280 N   0  0  0  0  0  0  0  0  0  0  0  0
   62.1910   32.0110   50.0160 C   0  0  0  0  0  0  0  0  0  0  0  0
   62.7150   33.2410   49.2340 C   0  0  1  0  0  0  0  0  0  0  0  0
   63.0040   34.3120   50.0970 O   0  0  0  0  0  0  0  0  0  0  0  0
   63.9580   32.8950   48.3960 C   0  0  0  0  0  0  0  0  0  0  0  0
   65.1380   33.4400   48.9930 O   0  0  0  0  0  0  0  0  0  0  0  0
   65.9130   32.8050   49.9870 C   0  0  0  0  0  0  0  0  0  0  0  0
   67.1080   33.3630   50.4870 C   0  0  0  0  0  0  0  0  0  0  0  0
   67.8670   32.6670   51.4370 C   0  0  0  0  0  0  0  0  0  0  0  0
   67.4390   31.4280   51.9070 C   0  0  0  0  0  0  0  0  0  0  0  0
   66.2450   30.8740   51.4330 C   0  0  0  0  0  0  0  0  0  0  0  0
   65.6740   29.1610   52.0620 Br  0  0  0  0  0  0  0  0  0  0  0  0
   65.4820   31.5630   50.4810 C   0  0  0  0  0  0  0  0  0  0  0  0
   59.8750   31.0580   50.2400 C   0  0  0  0  0  0  0  0  0  0  0  0
   58.8750   31.3590   49.1060 C   0  0  0  0  0  0  0  0  0  0  0  0
   57.7810   31.9790   46.4910 C   0  0  0  0  0  0  0  0  0  0  0  0
   57.4600   28.8410   45.1590 C   0  0  0  0  0  0  0  0  0  0  0  0
   58.7950   29.2050   44.8830 C   0  0  0  0  0  0  0  0  0  0  0  0
   59.8430   28.3270   45.1780 C   0  0  0  0  0  0  0  0  0  0  0  0
   59.5740   27.0650   45.7140 C   0  0  0  0  0  0  0  0  0  0  0  0
   58.2520   26.6820   45.9710 C   0  0  0  0  0  0  0  0  0  0  0  0
   57.1970   27.5630   45.7000 C   0  0  0  0  0  0  0  0  0  0  0  0
   55.9250   27.1650   45.9540 F   0  0  0  0  0  0  0  0  0  0  0  0
   57.8063   33.1789   43.2905 H   0  0  0  0  0  0  0  0  0  0  0  0
   59.3725   34.8093   44.3474 H   0  0  0  0  0  0  0  0  0  0  0  0
   59.9978   34.5740   46.7516 H   0  0  0  0  0  0  0  0  0  0  0  0
   60.0099   34.5424   48.6620 H   0  0  0  0  0  0  0  0  0  0  0  0
   58.4663   34.2781   49.5927 H   0  0  0  0  0  0  0  0  0  0  0  0
   61.0395   34.2344   50.6410 H   0  0  0  0  0  0  0  0  0  0  0  0
   59.5205   33.5374   51.3841 H   0  0  0  0  0  0  0  0  0  0  0  0
   62.8593   31.8370   50.8722 H   0  0  0  0  0  0  0  0  0  0  0  0
   62.1762   31.1702   49.3069 H   0  0  0  0  0  0  0  0  0  0  0  0
   61.9102   33.5473   48.5496 H   0  0  0  0  0  0  0  0  0  0  0  0
   63.9960   34.4320   50.1040 H   0  0  0  0  0  0  0  0  0  0  0  0
   64.0576   31.8014   48.3324 H   0  0  0  0  0  0  0  0  0  0  0  0
   63.8384   33.3265   47.3912 H   0  0  0  0  0  0  0  0  0  0  0  0
   67.4450   34.3474   50.1301 H   0  0  0  0  0  0  0  0  0  0  0  0
   68.8051   33.1012   51.8132 H   0  0  0  0  0  0  0  0  0  0  0  0
   68.0399   30.8847   52.6512 H   0  0  0  0  0  0  0  0  0  0  0  0
   64.5390   31.1282   50.1181 H   0  0  0  0  0  0  0  0  0  0  0  0
   60.4611   30.1714   49.9565 H   0  0  0  0  0  0  0  0  0  0  0  0
   59.2803   30.9027   51.1523 H   0  0  0  0  0  0  0  0  0  0  0  0
   58.9572   30.5675   48.3466 H   0  0  0  0  0  0  0  0  0  0  0  0
   57.8707   31.3953   49.5532 H   0  0  0  0  0  0  0  0  0  0  0  0
   57.2692   31.2288   47.1117 H   0  0  0  0  0  0  0  0  0  0  0  0
   59.0128   30.1849   44.4332 H   0  0  0  0  0  0  0  0  0  0  0  0
   60.8828   28.6311   44.9873 H   0  0  0  0  0  0  0  0  0  0  0  0
   60.4002   26.3729   45.9339 H   0  0  0  0  0  0  0  0  0  0  0  0
   58.0410   25.6859   46.3872 H   0  0  0  0  0  0  0  0  0  0  0  0
  1  2  2  0
  2  3  1  0
  3  4  1  0
  4  5  2  0
  5  6  1  0
  6  7  2  0
  7  8  1  0
  8  9  1  0
  9 10  1  0
 10 11  1  0
 11 12  1  0
 12 13  1  0
 13 14  1  0
 14 15  1  0
 14 16  1  0
 16 17  1  0
 17 18  1  0
 18 19  2  0
 19 20  1  0
 20 21  2  0
 21 22  1  0
 22 23  1  0
 22 24  2  0
 12 25  1  0
 25 26  1  0
  8 27  2  0
  2 28  1  0
 28 29  2  0
 29 30  1  0
 30 31  2  0
 31 32  1  0
 32 33  2  0
 33 34  1  0
 27  4  1  0
 33 28  1  0
 26  9  1  0
 24 18  1  0
  5 35  1  0
  6 36  1  0
  7 37  1  0
 10 38  1  0
 10 39  1  0
 11 40  1  0
 11 41  1  0
 13 42  1  0
 13 43  1  0
 14 44  1  6
 15 45  1  0
 16 46  1  0
 16 47  1  0
 19 48  1  0
 20 49  1  0
 21 50  1  0
 24 51  1  0
 25 52  1  0
 25 53  1  0
 26 54  1  0
 26 55  1  0
 27 56  1  0
 29 57  1  0
 30 58  1  0
 31 59  1  0
 32 60  1  0
M  CHG  1   3  -1
M  END
>  <UniqueID>  (63) 
61

>  <SMILES>  (63) 
O=C([N-]c1cccc(N2CCN(C[C@@H](O)COc3cccc(Br)c3)CC2)c1)c1ccccc1F

>  <Energy>  (63) 
86.24998458464269

>  <Genealogy>  (63) 
O=C([N-]c1cccc(N2CCN(CC(O)COc3cccc(Br)c3)CC2)c1)c1ccccc1F (protonated)
O=C([N-]c1cccc(N2CCN(C[C@@H](O)COc3cccc(Br)c3)CC2)c1)c1ccccc1F (chirality)
O=C([N-]c1cccc(N2CCN(C[C@@H](O)COc3cccc(Br)c3)CC2)c1)c1ccccc1F (3D coordinates assigned)
O=C([N-]c1cccc(N2CCN(C[C@@H](O)COc3cccc(Br)c3)CC2)c1)c1ccccc1F (nonaromatic ring conformer: 86.24998458464269 kcal/mol)

>  <smiles>  (63) 
O=C(Nc1cccc(N2CCN(CC(O)COc3cccc(Br)c3)CC2)c1)c1ccccc1F

>  <score_type>  (63) 
oracle

>  <origin>  (63) 
adg

>  <m_score__min__energy>  (63) 
-11.5

>  <m_primary>  (63) 
energy

$$$$
63:0
     RDKit          3D

 53 55  0  0  0  0  0  0  0  0999 V2000
   65.2920   32.5520   49.7510 C   0  0  0  0  0  0  0  0  0  0  0  0
   64.4560   32.2100   48.6490 O   0  0  0  0  0  0  0  0  0  0  0  0
   63.1340   32.6470   48.4710 C   0  0  0  0  0  0  0  0  0  0  0  0
   62.7630   33.3420   47.3100 C   0  0  0  0  0  0  0  0  0  0  0  0
   61.4540   33.7590   47.1150 C   0  0  0  0  0  0  0  0  0  0  0  0
   60.4580   33.4850   48.0640 C   0  0  0  0  0  0  0  0  0  0  0  0
   59.0150   33.9700   47.8730 C   0  0  1  0  0  0  0  0  0  0  0  0
   58.9500   35.1640   46.9000 C   0  0  0  0  0  0  0  0  0  0  0  0
   59.0670   34.7240   45.4720 C   0  0  0  0  0  0  0  0  0  0  0  0
   59.6160   35.4840   44.6300 O   0  0  0  0  0  0  0  0  0  0  0  0
   58.4770   33.4380   45.0510 C   0  0  0  0  0  0  0  0  0  0  0  0
   58.4150   33.0620   43.7040 C   0  0  0  0  0  0  0  0  0  0  0  0
   57.8690   31.8680   43.3560 N   0  0  0  0  0  0  0  0  0  0  0  0
   57.3830   31.0150   44.2940 C   0  0  0  0  0  0  0  0  0  0  0  0
   56.8490   29.8920   43.9120 N   0  0  0  0  0  0  0  0  0  0  0  0
   56.9320   28.6170   44.5720 C   0  0  0  0  0  0  0  0  0  0  0  0
   55.9410   28.2300   45.2490 O   0  0  0  0  0  0  0  0  0  0  0  0
   58.1250   27.6970   44.4220 C   0  0  0  0  0  0  0  0  0  0  0  0
   59.4270   28.4480   44.7250 C   0  0  0  0  0  0  0  0  0  0  0  0
   58.1650   27.0960   43.0130 C   0  0  0  0  0  0  0  0  0  0  0  0
   57.4290   31.3670   45.6070 N   0  0  0  0  0  0  0  0  0  0  0  0
   57.9720   32.5450   46.0100 C   0  0  0  0  0  0  0  0  0  0  0  0
   57.9950   32.8680   47.4840 C   0  0  0  0  0  0  0  0  0  0  0  0
   60.8120   32.8080   49.2580 C   0  0  0  0  0  0  0  0  0  0  0  0
   59.7830   32.6000   50.2020 O   0  0  0  0  0  0  0  0  0  0  0  0
   59.4610   33.4120   51.3250 C   0  0  0  0  0  0  0  0  0  0  0  0
   62.1560   32.3830   49.4660 C   0  0  0  0  0  0  0  0  0  0  0  0
   62.4660   31.7090   50.6640 O   0  0  0  0  0  0  0  0  0  0  0  0
   62.5400   30.3030   50.8700 C   0  0  0  0  0  0  0  0  0  0  0  0
   64.7648   32.3363   50.6920 H   0  0  0  0  0  0  0  0  0  0  0  0
   66.2184   31.9606   49.7059 H   0  0  0  0  0  0  0  0  0  0  0  0
   65.5382   33.6231   49.7059 H   0  0  0  0  0  0  0  0  0  0  0  0
   63.5210   33.5595   46.5431 H   0  0  0  0  0  0  0  0  0  0  0  0
   61.1931   34.3134   46.2015 H   0  0  0  0  0  0  0  0  0  0  0  0
   58.6973   34.3025   48.8723 H   0  0  0  0  0  0  0  0  0  0  0  0
   57.9892   35.6821   47.0356 H   0  0  0  0  0  0  0  0  0  0  0  0
   59.7943   35.8332   47.1223 H   0  0  0  0  0  0  0  0  0  0  0  0
   58.8086   33.7338   42.9270 H   0  0  0  0  0  0  0  0  0  0  0  0
   58.0234   26.8760   45.1470 H   0  0  0  0  0  0  0  0  0  0  0  0
   59.5608   28.5252   45.8141 H   0  0  0  0  0  0  0  0  0  0  0  0
   60.2759   27.9008   44.2891 H   0  0  0  0  0  0  0  0  0  0  0  0
   59.3784   29.4568   44.2891 H   0  0  0  0  0  0  0  0  0  0  0  0
   58.2379   26.0007   43.0835 H   0  0  0  0  0  0  0  0  0  0  0  0
   57.2467   27.3683   42.4720 H   0  0  0  0  0  0  0  0  0  0  0  0
   59.0391   27.4876   42.4720 H   0  0  0  0  0  0  0  0  0  0  0  0
   56.9909   33.2063   47.7796 H   0  0  0  0  0  0  0  0  0  0  0  0
   58.3038   31.9503   48.0059 H   0  0  0  0  0  0  0  0  0  0  0  0
   59.6798   32.8603   52.2512 H   0  0  0  0  0  0  0  0  0  0  0  0
   60.0620   34.3328   51.2961 H   0  0  0  0  0  0  0  0  0  0  0  0
   58.3922   33.6707   51.2961 H   0  0  0  0  0  0  0  0  0  0  0  0
   62.5512   30.0906   51.9492 H   0  0  0  0  0  0  0  0  0  0  0  0
   61.6661   29.8185   50.4100 H   0  0  0  0  0  0  0  0  0  0  0  0
   63.4599   29.9129   50.4100 H   0  0  0  0  0  0  0  0  0  0  0  0
  1  2  1  0
  2  3  1  0
  3  4  2  0
  4  5  1  0
  5  6  2  0
  6  7  1  0
  7  8  1  0
  8  9  1  0
  9 10  2  0
  9 11  1  0
 11 12  2  0
 12 13  1  0
 13 14  1  0
 14 15  2  3
 15 16  1  0
 16 17  2  0
 16 18  1  0
 18 19  1  0
 18 20  1  0
 14 21  1  0
 21 22  2  0
 22 23  1  0
  6 24  1  0
 24 25  1  0
 25 26  1  0
 24 27  2  0
 27 28  1  0
 28 29  1  0
 27  3  1  0
 23  7  1  0
 22 11  1  0
  1 30  1  0
  1 31  1  0
  1 32  1  0
  4 33  1  0
  5 34  1  0
  7 35  1  1
  8 36  1  0
  8 37  1  0
 12 38  1  0
 18 39  1  0
 19 40  1  0
 19 41  1  0
 19 42  1  0
 20 43  1  0
 20 44  1  0
 20 45  1  0
 23 46  1  0
 23 47  1  0
 26 48  1  0
 26 49  1  0
 26 50  1  0
 29 51  1  0
 29 52  1  0
 29 53  1  0
M  CHG  1  13  -1
M  END
>  <UniqueID>  (64) 
62

>  <SMILES>  (64) 
COc1ccc([C@H]2CC(=O)c3c[n-]c(=NC(=O)C(C)C)nc3C2)c(OC)c1OC

>  <Energy>  (64) 
66.347193827322

>  <Genealogy>  (64) 
COc1ccc(C2CC(=O)c3c[n-]c(=NC(=O)C(C)C)nc3C2)c(OC)c1OC (protonated)
COc1ccc([C@H]2CC(=O)c3c[n-]c(=NC(=O)C(C)C)nc3C2)c(OC)c1OC (chirality)
COc1ccc([C@H]2CC(=O)c3c[n-]c(=NC(=O)C(C)C)nc3C2)c(OC)c1OC (3D coordinates assigned)
COc1ccc([C@H]2CC(=O)c3c[n-]c(=NC(=O)C(C)C)nc3C2)c(OC)c1OC (nonaromatic ring conformer: 66.347193827322 kcal/mol)

>  <smiles>  (64) 
COc1ccc(C2CC(=O)c3c[nH]c(=NC(=O)C(C)C)nc3C2)c(OC)c1OC

>  <score_type>  (64) 
oracle

>  <origin>  (64) 
adg

>  <m_score__min__energy>  (64) 
-9.4800000000000004

>  <m_primary>  (64) 
energy

$$$$
64:0
     RDKit          3D

 56 59  0  0  0  0  0  0  0  0999 V2000
   50.9770   23.1140   45.8440 N   0  0  0  0  0  0  0  0  0  0  0  0
   52.0560   22.4060   45.9560 C   0  0  0  0  0  0  0  0  0  0  0  0
   52.0220   21.1270   46.5420 C   0  0  0  0  0  0  0  0  0  0  0  0
   53.2050   20.3940   46.6530 C   0  0  0  0  0  0  0  0  0  0  0  0
   54.4150   20.9400   46.1960 C   0  0  0  0  0  0  0  0  0  0  0  0
   55.6930   20.1510   46.2890 C   0  0  0  0  0  0  0  0  0  0  0  0
   56.8860   21.0630   46.1240 C   0  0  0  0  0  0  0  0  0  0  0  0
   57.2100   21.7760   47.0640 O   0  0  0  0  0  0  0  0  0  0  0  0
   57.6440   21.0830   44.8810 N   0  0  0  0  0  0  0  0  0  0  0  0
   57.0200   21.9200   43.8470 C   0  0  0  0  0  0  0  0  0  0  0  0
   56.9960   23.4050   44.2180 C   0  0  0  0  0  0  0  0  0  0  0  0
   58.2240   23.8890   44.8830 N   0  0  0  0  0  0  0  0  0  0  0  0
   58.3630   25.3220   45.1430 C   0  0  0  0  0  0  0  0  0  0  0  0
   58.7060   25.8080   46.4270 C   0  0  0  0  0  0  0  0  0  0  0  0
   58.8600   27.1770   46.6630 C   0  0  0  0  0  0  0  0  0  0  0  0
   58.6760   28.1010   45.6290 C   0  0  0  0  0  0  0  0  0  0  0  0
   58.8520   29.5460   45.8750 C   0  0  0  0  0  0  0  0  0  0  0  0
   59.9520   29.9650   46.6440 C   0  0  0  0  0  0  0  0  0  0  0  0
   60.1870   31.3230   46.8700 C   0  0  0  0  0  0  0  0  0  0  0  0
   59.3240   32.2770   46.3330 C   0  0  0  0  0  0  0  0  0  0  0  0
   58.2160   31.8780   45.5820 C   0  0  0  0  0  0  0  0  0  0  0  0
   57.9570   30.5150   45.3560 C   0  0  0  0  0  0  0  0  0  0  0  0
   56.4900   30.0640   44.4680 S   0  0  0  0  0  0  0  0  0  0  0  0
   55.7540   28.6830   45.2020 N   0  0  0  0  0  0  0  0  0  0  0  0
   56.8280   29.7160   43.0470 O   0  0  0  0  0  0  0  0  0  0  0  0
   55.5140   31.2080   44.4870 O   0  0  0  0  0  0  0  0  0  0  0  0
   58.3030   27.6440   44.3620 C   0  0  0  0  0  0  0  0  0  0  0  0
   58.1520   26.2770   44.1170 C   0  0  0  0  0  0  0  0  0  0  0  0
   59.2520   22.9620   45.4100 C   0  0  0  0  0  0  0  0  0  0  0  0
   59.0490   21.4730   45.0680 C   0  0  0  0  0  0  0  0  0  0  0  0
   54.4040   22.2150   45.6010 C   0  0  0  0  0  0  0  0  0  0  0  0
   53.2380   22.9100   45.4990 N   0  0  0  0  0  0  0  0  0  0  0  0
   50.2380   23.1260   46.5810 H   0  0  0  0  0  0  0  0  0  0  0  0
   51.0729   20.7090   46.9089 H   0  0  0  0  0  0  0  0  0  0  0  0
   53.1891   19.3884   47.0986 H   0  0  0  0  0  0  0  0  0  0  0  0
   55.7452   19.6595   47.2717 H   0  0  0  0  0  0  0  0  0  0  0  0
   55.7064   19.3964   45.4888 H   0  0  0  0  0  0  0  0  0  0  0  0
   57.6630   20.1090   44.4940 H   0  0  0  0  0  0  0  0  0  0  0  0
   57.5851   21.8011   42.9108 H   0  0  0  0  0  0  0  0  0  0  0  0
   55.9764   21.5894   43.7396 H   0  0  0  0  0  0  0  0  0  0  0  0
   56.8518   23.9875   43.2961 H   0  0  0  0  0  0  0  0  0  0  0  0
   56.1765   23.5345   44.9402 H   0  0  0  0  0  0  0  0  0  0  0  0
   58.8539   25.0967   47.2529 H   0  0  0  0  0  0  0  0  0  0  0  0
   59.1280   27.5305   47.6696 H   0  0  0  0  0  0  0  0  0  0  0  0
   60.6343   29.2157   47.0719 H   0  0  0  0  0  0  0  0  0  0  0  0
   61.0522   31.6395   47.4711 H   0  0  0  0  0  0  0  0  0  0  0  0
   59.5161   33.3470   46.5012 H   0  0  0  0  0  0  0  0  0  0  0  0
   57.5395   32.6377   45.1634 H   0  0  0  0  0  0  0  0  0  0  0  0
   55.1590   28.2270   44.4720 H   0  0  0  0  0  0  0  0  0  0  0  0
   58.1269   28.3664   43.5513 H   0  0  0  0  0  0  0  0  0  0  0  0
   57.8647   25.9361   43.1114 H   0  0  0  0  0  0  0  0  0  0  0  0
   60.2263   23.2720   45.0041 H   0  0  0  0  0  0  0  0  0  0  0  0
   59.1826   23.0297   46.5057 H   0  0  0  0  0  0  0  0  0  0  0  0
   59.5940   21.2555   44.1376 H   0  0  0  0  0  0  0  0  0  0  0  0
   59.4247   20.8977   45.9270 H   0  0  0  0  0  0  0  0  0  0  0  0
   55.3386   22.6506   45.2179 H   0  0  0  0  0  0  0  0  0  0  0  0
  1  2  2  3
  2  3  1  0
  3  4  2  0
  4  5  1  0
  5  6  1  0
  6  7  1  0
  7  8  2  0
  7  9  1  0
  9 10  1  0
 10 11  1  0
 11 12  1  0
 12 13  1  0
 13 14  2  0
 14 15  1  0
 15 16  2  0
 16 17  1  0
 17 18  2  0
 18 19  1  0
 19 20  2  0
 20 21  1  0
 21 22  2  0
 22 23  1  0
 23 24  1  0
 23 25  2  0
 23 26  2  0
 16 27  1  0
 27 28  2  0
 12 29  1  0
 29 30  1  0
  5 31  2  0
 31 32  1  0
 32  2  1  0
 30  9  1  0
 28 13  1  0
 22 17  1  0
  1 33  1  0
  3 34  1  0
  4 35  1  0
  6 36  1  0
  6 37  1  0
  9 38  1  0
 10 39  1  0
 10 40  1  0
 11 41  1  0
 11 42  1  0
 14 43  1  0
 15 44  1  0
 18 45  1  0
 19 46  1  0
 20 47  1  0
 21 48  1  0
 24 49  1  0
 27 50  1  0
 28 51  1  0
 29 52  1  0
 29 53  1  0
 30 54  1  0
 30 55  1  0
 31 56  1  0
M  CHG  3   9   1  24  -1  32  -1
M  END
>  <UniqueID>  (65) 
63

>  <SMILES>  (65) 
N=c1ccc(CC(=O)[NH+]2CCN(c3ccc(-c4ccccc4S([NH-])(=O)=O)cc3)CC2)c[n-]1

>  <Energy>  (65) 
80.01856579697586

>  <Genealogy>  (65) 
N=c1ccc(CC(=O)[NH+]2CCN(c3ccc(-c4ccccc4S([NH-])(=O)=O)cc3)CC2)c[n-]1 (protonated)
N=c1ccc(CC(=O)[NH+]2CCN(c3ccc(-c4ccccc4S([NH-])(=O)=O)cc3)CC2)c[n-]1 (3D coordinates assigned)
N=c1ccc(CC(=O)[NH+]2CCN(c3ccc(-c4ccccc4S([NH-])(=O)=O)cc3)CC2)c[n-]1 (nonaromatic ring conformer: 80.01856579697586 kcal/mol)

>  <smiles>  (65) 
N=c1ccc(CC(=O)N2CCN(c3ccc(-c4ccccc4S(N)(=O)=O)cc3)CC2)c[nH]1

>  <score_type>  (65) 
oracle

>  <origin>  (65) 
adg

>  <m_score__min__energy>  (65) 
-11.41

>  <m_primary>  (65) 
energy

$$$$
65:0
     RDKit          3D

 54 57  0  0  0  0  0  0  0  0999 V2000
   59.6270   26.0640   45.9740 C   0  0  0  0  0  0  0  0  0  0  0  0
   58.3020   26.7360   45.7270 C   0  0  0  0  0  0  0  0  0  0  0  0
   58.2850   28.0580   45.2600 C   0  0  0  0  0  0  0  0  0  0  0  0
   57.0660   28.7070   45.0410 C   0  0  0  0  0  0  0  0  0  0  0  0
   57.0190   30.1330   44.5690 C   0  0  0  0  0  0  0  0  0  0  0  0
   58.2460   30.8470   44.9740 N   0  0  0  0  0  0  0  0  0  0  0  0
   58.4610   32.0890   44.1850 C   0  0  0  0  0  0  0  0  0  0  0  0
   58.0490   33.3560   44.9550 C   0  0  0  0  0  0  0  0  0  0  0  0
   58.7660   33.4790   46.2460 N   0  0  0  0  0  0  0  0  0  0  0  0
   59.7880   34.5500   46.2890 C   0  0  0  0  0  0  0  0  0  0  0  0
   61.0270   34.1870   47.0840 C   0  0  0  0  0  0  0  0  0  0  0  0
   62.2030   33.7870   46.4230 C   0  0  0  0  0  0  0  0  0  0  0  0
   63.3480   33.4550   47.1530 C   0  0  0  0  0  0  0  0  0  0  0  0
   63.3260   33.5020   48.5490 C   0  0  0  0  0  0  0  0  0  0  0  0
   62.1570   33.8710   49.2170 C   0  0  0  0  0  0  0  0  0  0  0  0
   61.0090   34.2050   48.4900 C   0  0  0  0  0  0  0  0  0  0  0  0
   59.2220   32.1950   46.8220 C   0  0  0  0  0  0  0  0  0  0  0  0
   58.2640   31.0620   46.4400 C   0  0  0  0  0  0  0  0  0  0  0  0
   55.9010   28.0450   45.2710 N   0  0  0  0  0  0  0  0  0  0  0  0
   55.8720   26.7600   45.7060 C   0  0  0  0  0  0  0  0  0  0  0  0
   54.7590   26.1980   45.8870 O   0  0  0  0  0  0  0  0  0  0  0  0
   57.0750   26.0630   45.9380 C   0  0  0  0  0  0  0  0  0  0  0  0
   57.0350   24.6540   46.3970 C   0  0  0  0  0  0  0  0  0  0  0  0
   57.3690   23.6140   45.5120 C   0  0  0  0  0  0  0  0  0  0  0  0
   57.3340   22.2850   45.9440 C   0  0  0  0  0  0  0  0  0  0  0  0
   56.9710   21.9860   47.2600 C   0  0  0  0  0  0  0  0  0  0  0  0
   56.6440   23.0160   48.1470 C   0  0  0  0  0  0  0  0  0  0  0  0
   56.6770   24.3460   47.7190 C   0  0  0  0  0  0  0  0  0  0  0  0
   59.7979   25.9773   47.0572 H   0  0  0  0  0  0  0  0  0  0  0  0
   59.6192   25.0609   45.5226 H   0  0  0  0  0  0  0  0  0  0  0  0
   60.4317   26.6629   45.5226 H   0  0  0  0  0  0  0  0  0  0  0  0
   59.2310   28.5847   45.0659 H   0  0  0  0  0  0  0  0  0  0  0  0
   56.9345   30.1497   43.4724 H   0  0  0  0  0  0  0  0  0  0  0  0
   56.1490   30.6314   45.0214 H   0  0  0  0  0  0  0  0  0  0  0  0
   59.5281   32.1636   43.9286 H   0  0  0  0  0  0  0  0  0  0  0  0
   57.8318   32.0259   43.2849 H   0  0  0  0  0  0  0  0  0  0  0  0
   58.2768   34.2370   44.3369 H   0  0  0  0  0  0  0  0  0  0  0  0
   56.9723   33.2880   45.1696 H   0  0  0  0  0  0  0  0  0  0  0  0
   60.0934   34.7786   45.2573 H   0  0  0  0  0  0  0  0  0  0  0  0
   59.3262   35.4112   46.7941 H   0  0  0  0  0  0  0  0  0  0  0  0
   62.2215   33.7352   45.3244 H   0  0  0  0  0  0  0  0  0  0  0  0
   64.2672   33.1565   46.6277 H   0  0  0  0  0  0  0  0  0  0  0  0
   64.2300   33.2482   49.1220 H   0  0  0  0  0  0  0  0  0  0  0  0
   62.1383   33.8992   50.3165 H   0  0  0  0  0  0  0  0  0  0  0  0
   60.0870   34.4833   49.0215 H   0  0  0  0  0  0  0  0  0  0  0  0
   60.2268   31.9635   46.4388 H   0  0  0  0  0  0  0  0  0  0  0  0
   59.2443   32.2861   47.9180 H   0  0  0  0  0  0  0  0  0  0  0  0
   58.5893   30.1349   46.9347 H   0  0  0  0  0  0  0  0  0  0  0  0
   57.2500   31.3391   46.7639 H   0  0  0  0  0  0  0  0  0  0  0  0
   57.6587   23.8467   44.4767 H   0  0  0  0  0  0  0  0  0  0  0  0
   57.5924   21.4738   45.2475 H   0  0  0  0  0  0  0  0  0  0  0  0
   56.9425   20.9397   47.5981 H   0  0  0  0  0  0  0  0  0  0  0  0
   56.3604   22.7793   49.1831 H   0  0  0  0  0  0  0  0  0  0  0  0
   56.4216   25.1541   48.4203 H   0  0  0  0  0  0  0  0  0  0  0  0
  1  2  1  0
  2  3  1  0
  3  4  2  0
  4  5  1  0
  5  6  1  0
  6  7  1  0
  7  8  1  0
  8  9  1  0
  9 10  1  0
 10 11  1  0
 11 12  2  0
 12 13  1  0
 13 14  2  0
 14 15  1  0
 15 16  2  0
  9 17  1  0
 17 18  1  0
  4 19  1  0
 19 20  1  0
 20 21  2  0
 20 22  1  0
 22 23  1  0
 23 24  2  0
 24 25  1  0
 25 26  2  0
 26 27  1  0
 27 28  2  0
 22  2  2  0
 28 23  1  0
 18  6  1  0
 16 11  1  0
  1 29  1  0
  1 30  1  0
  1 31  1  0
  3 32  1  0
  5 33  1  0
  5 34  1  0
  7 35  1  0
  7 36  1  0
  8 37  1  0
  8 38  1  0
 10 39  1  0
 10 40  1  0
 12 41  1  0
 13 42  1  0
 14 43  1  0
 15 44  1  0
 16 45  1  0
 17 46  1  0
 17 47  1  0
 18 48  1  0
 18 49  1  0
 24 50  1  0
 25 51  1  0
 26 52  1  0
 27 53  1  0
 28 54  1  0
M  CHG  1  19  -1
M  END
>  <UniqueID>  (66) 
64

>  <SMILES>  (66) 
Cc1cc(CN2CCN(Cc3ccccc3)CC2)[n-]c(=O)c1-c1ccccc1

>  <Energy>  (66) 
81.50844973801853

>  <Genealogy>  (66) 
Cc1cc(CN2CCN(Cc3ccccc3)CC2)[n-]c(=O)c1-c1ccccc1 (protonated)
Cc1cc(CN2CCN(Cc3ccccc3)CC2)[n-]c(=O)c1-c1ccccc1 (3D coordinates assigned)
Cc1cc(CN2CCN(Cc3ccccc3)CC2)[n-]c(=O)c1-c1ccccc1 (nonaromatic ring conformer: 81.50844973801853 kcal/mol)

>  <smiles>  (66) 
Cc1cc(CN2CCN(Cc3ccccc3)CC2)[nH]c(=O)c1-c1ccccc1

>  <score_type>  (66) 
oracle

>  <origin>  (66) 
adg

>  <m_score__min__energy>  (66) 
-11.6

>  <m_primary>  (66) 
energy

$$$$
66:0
     RDKit          3D

 55 57  0  0  0  0  0  0  0  0999 V2000
   61.1680   29.2750   50.1710 C   0  0  0  0  0  0  0  0  0  0  0  0
   61.1100   30.4400   49.1840 C   0  0  0  0  0  0  0  0  0  0  0  0
   60.5100   30.0350   47.9570 O   0  0  0  0  0  0  0  0  0  0  0  0
   59.2990   29.3300   47.8770 C   0  0  0  0  0  0  0  0  0  0  0  0
   58.5230   29.3040   48.8640 O   0  0  0  0  0  0  0  0  0  0  0  0
   58.9590   28.6170   46.6720 N   0  0  0  0  0  0  0  0  0  0  0  0
   57.8000   27.7150   46.6710 C   0  0  0  0  0  0  0  0  0  0  0  0
   57.5070   27.1720   45.2650 C   0  0  0  0  0  0  0  0  0  0  0  0
   57.8110   28.1550   44.2050 N   0  0  0  0  0  0  0  0  0  0  0  0
   56.6560   29.4800   44.1060 S   0  0  0  0  0  0  0  0  0  0  0  0
   55.6720   29.3660   45.2470 O   0  0  0  0  0  0  0  0  0  0  0  0
   55.8820   29.3540   42.8240 O   0  0  0  0  0  0  0  0  0  0  0  0
   57.4080   31.0820   44.1480 C   0  0  0  0  0  0  0  0  0  0  0  0
   57.9110   31.6670   42.9750 C   0  0  0  0  0  0  0  0  0  0  0  0
   58.5120   32.9310   43.0160 C   0  0  0  0  0  0  0  0  0  0  0  0
   58.5820   33.6300   44.2230 C   0  0  0  0  0  0  0  0  0  0  0  0
   58.0490   33.0780   45.3930 C   0  0  0  0  0  0  0  0  0  0  0  0
   58.1580   33.7960   46.6320 N   0  0  0  0  0  0  0  0  0  0  0  0
   58.7200   33.2180   47.8210 C   0  0  0  0  0  0  0  0  0  0  0  0
   58.5620   31.9920   48.0690 O   0  0  0  0  0  0  0  0  0  0  0  0
   59.5950   34.0460   48.7120 C   0  0  0  0  0  0  0  0  0  0  0  0
   61.0280   33.8740   48.2880 C   0  0  0  0  0  0  0  0  0  0  0  0
   61.3530   33.7830   46.9270 C   0  0  0  0  0  0  0  0  0  0  0  0
   62.6750   33.5410   46.5330 C   0  0  0  0  0  0  0  0  0  0  0  0
   63.6790   33.3850   47.4960 C   0  0  0  0  0  0  0  0  0  0  0  0
   63.3620   33.4630   48.8530 C   0  0  0  0  0  0  0  0  0  0  0  0
   62.0410   33.7000   49.2500 C   0  0  0  0  0  0  0  0  0  0  0  0
   57.4650   31.7980   45.3500 C   0  0  0  0  0  0  0  0  0  0  0  0
   59.2240   28.6120   44.1870 C   0  0  0  0  0  0  0  0  0  0  0  0
   59.9260   28.5490   45.5650 C   0  0  0  0  0  0  0  0  0  0  0  0
   61.1486   29.6645   51.1995 H   0  0  0  0  0  0  0  0  0  0  0  0
   60.3015   28.6162   50.0120 H   0  0  0  0  0  0  0  0  0  0  0  0
   62.0956   28.7056   50.0120 H   0  0  0  0  0  0  0  0  0  0  0  0
   60.5169   31.2556   49.6234 H   0  0  0  0  0  0  0  0  0  0  0  0
   62.1360   30.7796   48.9792 H   0  0  0  0  0  0  0  0  0  0  0  0
   58.0050   26.8698   47.3445 H   0  0  0  0  0  0  0  0  0  0  0  0
   56.9215   28.2836   47.0100 H   0  0  0  0  0  0  0  0  0  0  0  0
   58.1193   26.2734   45.0991 H   0  0  0  0  0  0  0  0  0  0  0  0
   56.4322   26.9441   45.2116 H   0  0  0  0  0  0  0  0  0  0  0  0
   57.8325   31.1294   42.0185 H   0  0  0  0  0  0  0  0  0  0  0  0
   58.9285   33.3728   42.0987 H   0  0  0  0  0  0  0  0  0  0  0  0
   59.0591   34.6207   44.2541 H   0  0  0  0  0  0  0  0  0  0  0  0
   57.8580   34.8000   46.6570 H   0  0  0  0  0  0  0  0  0  0  0  0
   59.3101   35.1051   48.6278 H   0  0  0  0  0  0  0  0  0  0  0  0
   59.4749   33.7218   49.7563 H   0  0  0  0  0  0  0  0  0  0  0  0
   60.5672   33.9020   46.1665 H   0  0  0  0  0  0  0  0  0  0  0  0
   62.9251   33.4733   45.4639 H   0  0  0  0  0  0  0  0  0  0  0  0
   64.7174   33.2010   47.1833 H   0  0  0  0  0  0  0  0  0  0  0  0
   64.1501   33.3383   49.6102 H   0  0  0  0  0  0  0  0  0  0  0  0
   61.7927   33.7506   50.3204 H   0  0  0  0  0  0  0  0  0  0  0  0
   57.0500   31.3566   46.2681 H   0  0  0  0  0  0  0  0  0  0  0  0
   59.7837   27.9766   43.4848 H   0  0  0  0  0  0  0  0  0  0  0  0
   59.2115   29.6698   43.8854 H   0  0  0  0  0  0  0  0  0  0  0  0
   60.4850   27.6044   45.6375 H   0  0  0  0  0  0  0  0  0  0  0  0
   60.6011   29.4137   45.6458 H   0  0  0  0  0  0  0  0  0  0  0  0
  1  2  1  0
  2  3  1  0
  3  4  1  0
  4  5  2  0
  4  6  1  0
  6  7  1  0
  7  8  1  0
  8  9  1  0
  9 10  1  0
 10 11  2  0
 10 12  2  0
 10 13  1  0
 13 14  2  0
 14 15  1  0
 15 16  2  0
 16 17  1  0
 17 18  1  0
 18 19  1  0
 19 20  2  0
 19 21  1  0
 21 22  1  0
 22 23  2  0
 23 24  1  0
 24 25  2  0
 25 26  1  0
 26 27  2  0
 17 28  2  0
  9 29  1  0
 29 30  1  0
 30  6  1  0
 28 13  1  0
 27 22  1  0
  1 31  1  0
  1 32  1  0
  1 33  1  0
  2 34  1  0
  2 35  1  0
  7 36  1  0
  7 37  1  0
  8 38  1  0
  8 39  1  0
 14 40  1  0
 15 41  1  0
 16 42  1  0
 18 43  1  0
 21 44  1  0
 21 45  1  0
 23 46  1  0
 24 47  1  0
 25 48  1  0
 26 49  1  0
 27 50  1  0
 28 51  1  0
 29 52  1  0
 29 53  1  0
 30 54  1  0
 30 55  1  0
M  END
>  <UniqueID>  (67) 
65

>  <SMILES>  (67) 
CCOC(=O)N1CCN(S(=O)(=O)c2cccc(NC(=O)Cc3ccccc3)c2)CC1

>  <Energy>  (67) 
55.916184022407165

>  <Genealogy>  (67) 
CCOC(=O)N1CCN(S(=O)(=O)c2cccc(NC(=O)Cc3ccccc3)c2)CC1 (3D coordinates assigned)
CCOC(=O)N1CCN(S(=O)(=O)c2cccc(NC(=O)Cc3ccccc3)c2)CC1 (nonaromatic ring conformer: 55.916184022407165 kcal/mol)

>  <smiles>  (67) 
CCOC(=O)N1CCN(S(=O)(=O)c2cccc(NC(=O)Cc3ccccc3)c2)CC1

>  <score_type>  (67) 
oracle

>  <origin>  (67) 
adg

>  <m_score__min__energy>  (67) 
-9.6600000000000001

>  <m_primary>  (67) 
energy

$$$$
67:0
     RDKit          3D

 42 44  0  0  0  0  0  0  0  0999 V2000
   55.1580   29.2190   44.5120 N   0  0  0  0  0  0  0  0  0  0  0  0
   56.7520   28.7780   45.0160 S   0  0  0  0  0  0  0  0  0  0  0  0
   57.6380   28.5930   43.8150 O   0  0  0  0  0  0  0  0  0  0  0  0
   57.3130   29.8820   45.8670 O   0  0  0  0  0  0  0  0  0  0  0  0
   56.7030   27.3410   45.9450 O   0  0  0  0  0  0  0  0  0  0  0  0
   57.5670   26.2410   45.8090 C   0  0  0  0  0  0  0  0  0  0  0  0
   57.1050   24.9760   45.3950 C   0  0  0  0  0  0  0  0  0  0  0  0
   57.9800   23.8930   45.3130 C   0  0  0  0  0  0  0  0  0  0  0  0
   59.3300   24.0480   45.6400 C   0  0  0  0  0  0  0  0  0  0  0  0
   60.2230   22.9330   45.5610 N   0  0  0  0  0  0  0  0  0  0  0  0
   59.8040   25.3030   46.0400 C   0  0  0  0  0  0  0  0  0  0  0  0
   58.9390   26.4100   46.1100 C   0  0  0  0  0  0  0  0  0  0  0  0
   59.4810   27.7250   46.5250 C   0  0  0  0  0  0  0  0  0  0  0  0
   60.5720   28.1280   46.0340 O   0  0  0  0  0  0  0  0  0  0  0  0
   58.7430   28.5720   47.4200 N   0  0  0  0  0  0  0  0  0  0  0  0
   59.3360   29.5800   48.2520 C   0  0  0  0  0  0  0  0  0  0  0  0
   60.0790   29.3070   49.4030 C   0  0  0  0  0  0  0  0  0  0  0  0
   60.5010   30.7790   50.1000 S   0  0  0  0  0  0  0  0  0  0  0  0
   59.7370   31.6900   48.9130 C   0  0  0  0  0  0  0  0  0  0  0  0
   59.6110   33.1790   48.9260 C   0  0  0  0  0  0  0  0  0  0  0  0
   59.1970   33.6700   47.5670 C   0  0  0  0  0  0  0  0  0  0  0  0
   57.9200   33.3650   47.0630 C   0  0  0  0  0  0  0  0  0  0  0  0
   57.5200   33.8560   45.8170 C   0  0  0  0  0  0  0  0  0  0  0  0
   58.3850   34.6610   45.0700 C   0  0  0  0  0  0  0  0  0  0  0  0
   59.6500   34.9800   45.5700 C   0  0  0  0  0  0  0  0  0  0  0  0
   60.0550   34.4900   46.8170 C   0  0  0  0  0  0  0  0  0  0  0  0
   59.1350   30.9000   47.9970 N   0  0  0  0  0  0  0  0  0  0  0  0
   54.5820   29.3690   45.3680 H   0  0  0  0  0  0  0  0  0  0  0  0
   56.0449   24.8413   45.1342 H   0  0  0  0  0  0  0  0  0  0  0  0
   57.6053   22.9108   44.9890 H   0  0  0  0  0  0  0  0  0  0  0  0
   59.9730   22.0170   45.9950 H   0  0  0  0  0  0  0  0  0  0  0  0
   61.1390   23.0160   45.0680 H   0  0  0  0  0  0  0  0  0  0  0  0
   60.8652   25.4249   46.3026 H   0  0  0  0  0  0  0  0  0  0  0  0
   57.7040   28.4750   47.4450 H   0  0  0  0  0  0  0  0  0  0  0  0
   60.3410   28.3092   49.7849 H   0  0  0  0  0  0  0  0  0  0  0  0
   58.8534   33.4743   49.6668 H   0  0  0  0  0  0  0  0  0  0  0  0
   60.5825   33.6220   49.1903 H   0  0  0  0  0  0  0  0  0  0  0  0
   57.2338   32.7380   47.6512 H   0  0  0  0  0  0  0  0  0  0  0  0
   56.5230   33.6086   45.4236 H   0  0  0  0  0  0  0  0  0  0  0  0
   58.0695   35.0435   44.0881 H   0  0  0  0  0  0  0  0  0  0  0  0
   60.3283   35.6168   44.9831 H   0  0  0  0  0  0  0  0  0  0  0  0
   61.0491   34.7483   47.2108 H   0  0  0  0  0  0  0  0  0  0  0  0
  1  2  1  0
  2  3  2  0
  2  4  2  0
  2  5  1  0
  5  6  1  0
  6  7  2  0
  7  8  1  0
  8  9  2  0
  9 10  1  0
  9 11  1  0
 11 12  2  0
 12 13  1  0
 13 14  2  0
 13 15  1  0
 15 16  1  0
 16 17  2  0
 17 18  1  0
 18 19  1  0
 19 20  1  0
 20 21  1  0
 21 22  2  0
 22 23  1  0
 23 24  2  0
 24 25  1  0
 25 26  2  0
 19 27  2  0
 12  6  1  0
 27 16  1  0
 26 21  1  0
  1 28  1  0
  7 29  1  0
  8 30  1  0
 10 31  1  0
 10 32  1  0
 11 33  1  0
 15 34  1  0
 17 35  1  0
 20 36  1  0
 20 37  1  0
 22 38  1  0
 23 39  1  0
 24 40  1  0
 25 41  1  0
 26 42  1  0
M  CHG  1   1  -1
M  END
>  <UniqueID>  (68) 
66

>  <SMILES>  (68) 
[NH-]S(=O)(=O)Oc1ccc(N)cc1C(=O)Nc1csc(Cc2ccccc2)n1

>  <Energy>  (68) 
75.21763091674005

>  <Genealogy>  (68) 
[NH-]S(=O)(=O)Oc1ccc(N)cc1C(=O)Nc1csc(Cc2ccccc2)n1 (protonated)
[NH-]S(=O)(=O)Oc1ccc(N)cc1C(=O)Nc1csc(Cc2ccccc2)n1 (3D coordinates assigned)
[NH-]S(=O)(=O)Oc1ccc(N)cc1C(=O)Nc1csc(Cc2ccccc2)n1 (optimized conformer: 75.21763091674005 kcal/mol)

>  <smiles>  (68) 
Nc1ccc(OS(N)(=O)=O)c(C(=O)Nc2csc(Cc3ccccc3)n2)c1

>  <score_type>  (68) 
oracle

>  <origin>  (68) 
adg

>  <m_score__min__energy>  (68) 
-10.890000000000001

>  <m_primary>  (68) 
energy

$$$$
68:0
     RDKit          3D

 51 54  0  0  0  0  0  0  0  0999 V2000
   61.0860   30.3780   48.0340 N   0  0  0  0  0  0  0  0  0  0  0  0
   60.5840   30.7110   46.7410 C   0  0  0  0  0  0  0  0  0  0  0  0
   60.8150   29.9510   45.7630 O   0  0  0  0  0  0  0  0  0  0  0  0
   59.7520   31.9120   46.5540 C   0  0  0  0  0  0  0  0  0  0  0  0
   60.1610   33.1790   47.0290 C   0  0  0  0  0  0  0  0  0  0  0  0
   61.4430   33.3910   47.6380 N   0  0  0  0  0  0  0  0  0  0  0  0
   61.9240   33.9730   48.9090 C   0  0  0  0  0  0  0  0  0  0  0  0
   63.3840   33.8690   48.5940 C   0  0  0  0  0  0  0  0  0  0  0  0
   64.1660   32.9080   49.4740 C   0  0  0  0  0  0  0  0  0  0  0  0
   65.5460   33.0690   49.7220 C   0  0  0  0  0  0  0  0  0  0  0  0
   66.2310   32.1620   50.5360 C   0  0  0  0  0  0  0  0  0  0  0  0
   65.5500   31.0870   51.1110 C   0  0  0  0  0  0  0  0  0  0  0  0
   64.1840   30.9160   50.8740 C   0  0  0  0  0  0  0  0  0  0  0  0
   63.4950   31.8210   50.0600 C   0  0  0  0  0  0  0  0  0  0  0  0
   62.8800   33.2900   47.3060 C   0  0  0  0  0  0  0  0  0  0  0  0
   59.3130   34.2800   46.8510 C   0  0  0  0  0  0  0  0  0  0  0  0
   58.0940   34.1200   46.1950 C   0  0  0  0  0  0  0  0  0  0  0  0
   57.7270   32.9000   45.7300 N   0  0  0  0  0  0  0  0  0  0  0  0
   58.5120   31.8020   45.8910 C   0  0  0  0  0  0  0  0  0  0  0  0
   58.0550   30.5420   45.3820 N   0  0  0  0  0  0  0  0  0  0  0  0
   57.8750   30.3730   43.9350 C   0  0  0  0  0  0  0  0  0  0  0  0
   57.2840   28.9970   43.6110 C   0  0  0  0  0  0  0  0  0  0  0  0
   58.1060   27.8660   44.2720 C   0  0  0  0  0  0  0  0  0  0  0  0
   57.4010   26.5860   44.1630 N   0  0  0  0  0  0  0  0  0  0  0  0
   58.4700   28.1520   45.7560 C   0  0  0  0  0  0  0  0  0  0  0  0
   57.8220   29.4280   46.3040 C   0  0  0  0  0  0  0  0  0  0  0  0
   60.8780   30.9870   48.8560 H   0  0  0  0  0  0  0  0  0  0  0  0
   61.6660   29.5210   48.1700 H   0  0  0  0  0  0  0  0  0  0  0  0
   61.5940   35.0127   49.0508 H   0  0  0  0  0  0  0  0  0  0  0  0
   61.5786   33.4969   49.8385 H   0  0  0  0  0  0  0  0  0  0  0  0
   64.0901   34.7102   48.6557 H   0  0  0  0  0  0  0  0  0  0  0  0
   66.0866   33.9144   49.2715 H   0  0  0  0  0  0  0  0  0  0  0  0
   67.3067   32.2952   50.7236 H   0  0  0  0  0  0  0  0  0  0  0  0
   66.0899   30.3740   51.7514 H   0  0  0  0  0  0  0  0  0  0  0  0
   63.6495   30.0686   51.3281 H   0  0  0  0  0  0  0  0  0  0  0  0
   62.4194   31.6808   49.8770 H   0  0  0  0  0  0  0  0  0  0  0  0
   63.1570   33.8965   46.4311 H   0  0  0  0  0  0  0  0  0  0  0  0
   63.2591   32.2973   47.0216 H   0  0  0  0  0  0  0  0  0  0  0  0
   59.6092   35.2698   47.2287 H   0  0  0  0  0  0  0  0  0  0  0  0
   57.4285   34.9844   46.0541 H   0  0  0  0  0  0  0  0  0  0  0  0
   57.1941   31.1531   43.5639 H   0  0  0  0  0  0  0  0  0  0  0  0
   58.8580   30.4551   43.4481 H   0  0  0  0  0  0  0  0  0  0  0  0
   56.2499   28.9538   43.9835 H   0  0  0  0  0  0  0  0  0  0  0  0
   57.3095   28.8548   42.5205 H   0  0  0  0  0  0  0  0  0  0  0  0
   59.0558   27.8150   43.7195 H   0  0  0  0  0  0  0  0  0  0  0  0
   56.5830   26.5870   44.8150 H   0  0  0  0  0  0  0  0  0  0  0  0
   57.0270   26.4890   43.1910 H   0  0  0  0  0  0  0  0  0  0  0  0
   58.1365   27.3007   46.3676 H   0  0  0  0  0  0  0  0  0  0  0  0
   59.5598   28.2942   45.8026 H   0  0  0  0  0  0  0  0  0  0  0  0
   56.7395   29.2679   46.4162 H   0  0  0  0  0  0  0  0  0  0  0  0
   58.2660   29.6683   47.2813 H   0  0  0  0  0  0  0  0  0  0  0  0
  1  2  1  0
  2  3  2  0
  2  4  1  0
  4  5  2  0
  5  6  1  0
  6  7  1  0
  7  8  1  0
  8  9  1  0
  9 10  2  0
 10 11  1  0
 11 12  2  0
 12 13  1  0
 13 14  2  0
  8 15  1  0
  5 16  1  0
 16 17  2  0
 17 18  1  0
 18 19  2  0
 19 20  1  0
 20 21  1  0
 21 22  1  0
 22 23  1  0
 23 24  1  0
 23 25  1  0
 25 26  1  0
 19  4  1  0
 26 20  1  0
 15  6  1  0
 14  9  1  0
  1 27  1  0
  1 28  1  0
  7 29  1  0
  7 30  1  0
  8 31  1  0
 10 32  1  0
 11 33  1  0
 12 34  1  0
 13 35  1  0
 14 36  1  0
 15 37  1  0
 15 38  1  0
 16 39  1  0
 17 40  1  0
 21 41  1  0
 21 42  1  0
 22 43  1  0
 22 44  1  0
 23 45  1  0
 24 46  1  0
 24 47  1  0
 25 48  1  0
 25 49  1  0
 26 50  1  0
 26 51  1  0
M  END
>  <UniqueID>  (69) 
67

>  <SMILES>  (69) 
NC(=O)c1c(N2CC(c3ccccc3)C2)ccnc1N1CCC(N)CC1

>  <Energy>  (69) 
114.94846839280196

>  <Genealogy>  (69) 
NC(=O)c1c(N2CC(c3ccccc3)C2)ccnc1N1CCC(N)CC1 (3D coordinates assigned)
NC(=O)c1c(N2CC(c3ccccc3)C2)ccnc1N1CCC(N)CC1 (nonaromatic ring conformer: 114.94846839280196 kcal/mol)

>  <smiles>  (69) 
NC(=O)c1c(N2CC(c3ccccc3)C2)ccnc1N1CCC(N)CC1

>  <score_type>  (69) 
oracle

>  <origin>  (69) 
adg

>  <m_score__min__energy>  (69) 
-7.7199999999999998

>  <m_primary>  (69) 
energy

$$$$
69:0
     RDKit          3D

 66 70  0  0  0  0  0  0  0  0999 V2000
   59.9490   33.4630   50.5930 O   0  0  0  0  0  0  0  0  0  0  0  0
   59.9510   33.7310   49.4020 C   0  0  0  0  0  0  0  0  0  0  0  0
   58.8060   33.2950   48.5280 C   0  0  0  0  0  0  0  0  0  0  0  0
   58.5910   34.3230   47.4100 C   0  0  0  0  0  0  0  0  0  0  0  0
   59.8670   34.5700   46.5530 C   0  0  0  0  0  0  0  0  0  0  0  0
   59.8010   33.9000   45.1540 C   0  0  0  0  0  0  0  0  0  0  0  0
   58.8230   32.7500   45.0640 C   0  0  0  0  0  0  0  0  0  0  0  0
   59.2360   31.4370   45.3440 C   0  0  0  0  0  0  0  0  0  0  0  0
   58.3610   30.3650   45.1550 C   0  0  0  0  0  0  0  0  0  0  0  0
   57.0570   30.5890   44.6880 C   0  0  0  0  0  0  0  0  0  0  0  0
   56.1750   29.4480   44.3760 C   0  0  0  0  0  0  0  0  0  0  0  0
   55.5200   29.4520   43.2990 O   0  0  0  0  0  0  0  0  0  0  0  0
   56.0860   28.3000   45.2310 N   0  0  0  0  0  0  0  0  0  0  0  0
   57.1760   27.6040   45.8610 C   0  0  0  0  0  0  0  0  0  0  0  0
   57.7330   26.4330   45.3130 C   0  0  0  0  0  0  0  0  0  0  0  0
   58.7990   25.7960   45.9510 C   0  0  0  0  0  0  0  0  0  0  0  0
   59.3490   26.3410   47.1110 C   0  0  0  0  0  0  0  0  0  0  0  0
   58.8370   27.5330   47.6490 C   0  0  0  0  0  0  0  0  0  0  0  0
   59.4700   28.1450   48.7910 N   0  0  0  0  0  0  0  0  0  0  0  0
   60.8530   27.7730   49.1320 C   0  0  0  0  0  0  0  0  0  0  0  0
   61.4950   28.8090   50.0610 C   0  0  0  0  0  0  0  0  0  0  0  0
   61.1310   30.1650   49.6210 N   0  0  0  0  0  0  0  0  0  0  0  0
   62.1510   31.0970   49.1920 C   0  0  0  0  0  0  0  0  0  0  0  0
   62.4710   31.2540   47.8290 C   0  0  0  0  0  0  0  0  0  0  0  0
   63.4770   32.1470   47.4550 C   0  0  0  0  0  0  0  0  0  0  0  0
   64.1640   32.8700   48.4300 C   0  0  0  0  0  0  0  0  0  0  0  0
   63.8250   32.6980   49.7720 C   0  0  0  0  0  0  0  0  0  0  0  0
   62.8400   31.8260   50.1180 N   0  0  0  0  0  0  0  0  0  0  0  0
   59.7040   30.4960   49.4520 C   0  0  0  0  0  0  0  0  0  0  0  0
   58.8230   29.2420   49.5250 C   0  0  0  0  0  0  0  0  0  0  0  0
   57.7460   28.1570   47.0160 C   0  0  0  0  0  0  0  0  0  0  0  0
   56.6160   31.9060   44.4930 C   0  0  0  0  0  0  0  0  0  0  0  0
   57.4900   32.9790   44.6830 C   0  0  0  0  0  0  0  0  0  0  0  0
   61.1870   34.2410   47.3030 C   0  0  0  0  0  0  0  0  0  0  0  0
   61.0890   34.5170   48.8080 C   0  0  0  0  0  0  0  0  0  0  0  0
   59.0365   32.3150   48.0847 H   0  0  0  0  0  0  0  0  0  0  0  0
   57.8917   33.2190   49.1349 H   0  0  0  0  0  0  0  0  0  0  0  0
   57.7906   33.9590   46.7491 H   0  0  0  0  0  0  0  0  0  0  0  0
   58.3279   35.2777   47.8888 H   0  0  0  0  0  0  0  0  0  0  0  0
   59.8838   35.6552   46.3741 H   0  0  0  0  0  0  0  0  0  0  0  0
   59.5048   34.6633   44.4194 H   0  0  0  0  0  0  0  0  0  0  0  0
   60.7993   33.4828   44.9554 H   0  0  0  0  0  0  0  0  0  0  0  0
   60.2551   31.2519   45.7145 H   0  0  0  0  0  0  0  0  0  0  0  0
   58.6957   29.3402   45.3733 H   0  0  0  0  0  0  0  0  0  0  0  0
   57.3268   26.0183   44.3786 H   0  0  0  0  0  0  0  0  0  0  0  0
   59.2063   24.8616   45.5376 H   0  0  0  0  0  0  0  0  0  0  0  0
   60.1893   25.8339   47.6078 H   0  0  0  0  0  0  0  0  0  0  0  0
   60.8473   26.7950   49.6354 H   0  0  0  0  0  0  0  0  0  0  0  0
   61.4400   27.7288   48.2027 H   0  0  0  0  0  0  0  0  0  0  0  0
   61.1367   28.6499   51.0888 H   0  0  0  0  0  0  0  0  0  0  0  0
   62.5889   28.6977   50.0289 H   0  0  0  0  0  0  0  0  0  0  0  0
   61.9314   30.6764   47.0640 H   0  0  0  0  0  0  0  0  0  0  0  0
   63.7276   32.2802   46.3922 H   0  0  0  0  0  0  0  0  0  0  0  0
   64.9644   33.5682   48.1437 H   0  0  0  0  0  0  0  0  0  0  0  0
   64.3541   33.2674   50.5504 H   0  0  0  0  0  0  0  0  0  0  0  0
   59.4018   31.1919   50.2485 H   0  0  0  0  0  0  0  0  0  0  0  0
   59.5711   30.9537   48.4606 H   0  0  0  0  0  0  0  0  0  0  0  0
   58.6877   28.9497   50.5768 H   0  0  0  0  0  0  0  0  0  0  0  0
   57.8425   29.4561   49.0748 H   0  0  0  0  0  0  0  0  0  0  0  0
   57.3360   29.0890   47.4322 H   0  0  0  0  0  0  0  0  0  0  0  0
   55.5760   32.0951   44.1887 H   0  0  0  0  0  0  0  0  0  0  0  0
   57.1329   34.0086   44.5336 H   0  0  0  0  0  0  0  0  0  0  0  0
   61.4223   33.1769   47.1537 H   0  0  0  0  0  0  0  0  0  0  0  0
   61.9756   34.8896   46.8939 H   0  0  0  0  0  0  0  0  0  0  0  0
   62.0298   34.2205   49.2948 H   0  0  0  0  0  0  0  0  0  0  0  0
   60.9088   35.5903   48.9675 H   0  0  0  0  0  0  0  0  0  0  0  0
  1  2  2  0
  2  3  1  0
  3  4  1  0
  4  5  1  0
  5  6  1  0
  6  7  1  0
  7  8  2  0
  8  9  1  0
  9 10  2  0
 10 11  1  0
 11 12  2  0
 11 13  1  0
 13 14  1  0
 14 15  2  0
 15 16  1  0
 16 17  2  0
 17 18  1  0
 18 19  1  0
 19 20  1  0
 20 21  1  0
 21 22  1  0
 22 23  1  0
 23 24  2  0
 24 25  1  0
 25 26  2  0
 26 27  1  0
 27 28  2  0
 22 29  1  0
 29 30  1  0
 18 31  2  0
 10 32  1  0
 32 33  2  0
  5 34  1  0
 34 35  1  0
 35  2  1  0
 33  7  1  0
 31 14  1  0
 30 19  1  0
 28 23  1  0
  3 36  1  0
  3 37  1  0
  4 38  1  0
  4 39  1  0
  5 40  1  0
  6 41  1  0
  6 42  1  0
  8 43  1  0
  9 44  1  0
 15 45  1  0
 16 46  1  0
 17 47  1  0
 20 48  1  0
 20 49  1  0
 21 50  1  0
 21 51  1  0
 24 52  1  0
 25 53  1  0
 26 54  1  0
 27 55  1  0
 29 56  1  0
 29 57  1  0
 30 58  1  0
 30 59  1  0
 31 60  1  0
 32 61  1  0
 33 62  1  0
 34 63  1  0
 34 64  1  0
 35 65  1  0
 35 66  1  0
M  CHG  1  13  -1
M  END
>  <UniqueID>  (70) 
68

>  <SMILES>  (70) 
O=C1CCC(Cc2ccc(C(=O)[N-]c3cccc(N4CCN(c5ccccn5)CC4)c3)cc2)CC1

>  <Energy>  (70) 
85.9847525307022

>  <Genealogy>  (70) 
O=C1CCC(Cc2ccc(C(=O)[N-]c3cccc(N4CCN(c5ccccn5)CC4)c3)cc2)CC1 (protonated)
O=C1CCC(Cc2ccc(C(=O)[N-]c3cccc(N4CCN(c5ccccn5)CC4)c3)cc2)CC1 (3D coordinates assigned)
O=C1CCC(Cc2ccc(C(=O)[N-]c3cccc(N4CCN(c5ccccn5)CC4)c3)cc2)CC1 (nonaromatic ring conformer: 85.9847525307022 kcal/mol)

>  <smiles>  (70) 
O=C1CCC(Cc2ccc(C(=O)Nc3cccc(N4CCN(c5ccccn5)CC4)c3)cc2)CC1

>  <score_type>  (70) 
oracle

>  <origin>  (70) 
adg

>  <m_score__min__energy>  (70) 
-12.18

>  <m_primary>  (70) 
energy

$$$$
70:0
     RDKit          3D

 67 70  0  0  0  0  0  0  0  0999 V2000
   56.8230   29.7040   52.3470 C   0  0  0  0  0  0  0  0  0  0  0  0
   57.2920   30.4220   51.2100 O   0  0  0  0  0  0  0  0  0  0  0  0
   57.9460   31.6600   51.2700 C   0  0  0  0  0  0  0  0  0  0  0  0
   57.8300   32.5230   52.3780 C   0  0  0  0  0  0  0  0  0  0  0  0
   58.4940   33.7530   52.3840 C   0  0  0  0  0  0  0  0  0  0  0  0
   59.2810   34.1320   51.2950 C   0  0  0  0  0  0  0  0  0  0  0  0
   59.4210   33.2750   50.1920 C   0  0  0  0  0  0  0  0  0  0  0  0
   60.2330   33.6980   49.0000 C   0  0  0  0  0  0  0  0  0  0  0  0
   59.5320   34.7630   48.2800 N   0  0  0  0  0  0  0  0  0  0  0  0
   59.7080   34.5330   46.5670 S   0  0  0  0  0  0  0  0  0  0  0  0
   59.5920   35.8540   45.8590 O   0  0  0  0  0  0  0  0  0  0  0  0
   61.0650   33.9560   46.2820 O   0  0  0  0  0  0  0  0  0  0  0  0
   58.4820   33.4330   45.9640 C   0  0  0  0  0  0  0  0  0  0  0  0
   57.1550   33.7310   45.7430 C   0  0  0  0  0  0  0  0  0  0  0  0
   56.5550   32.6720   45.2510 O   0  0  0  0  0  0  0  0  0  0  0  0
   57.4310   31.6950   45.1460 C   0  0  0  0  0  0  0  0  0  0  0  0
   57.0920   30.3690   44.6070 C   0  0  0  0  0  0  0  0  0  0  0  0
   55.8790   30.0890   44.4260 O   0  0  0  0  0  0  0  0  0  0  0  0
   58.0770   29.3680   44.3080 N   0  0  0  0  0  0  0  0  0  0  0  0
   57.9410   27.9220   44.4840 C   0  0  0  0  0  0  0  0  0  0  0  0
   57.4950   27.5670   45.9080 C   0  0  0  0  0  0  0  0  0  0  0  0
   58.5840   27.8050   46.8790 N   0  0  0  0  0  0  0  0  0  0  0  0
   59.9230   27.4750   46.3220 C   0  0  0  0  0  0  0  0  0  0  0  0
   60.7340   28.7280   45.9650 C   0  0  0  0  0  0  0  0  0  0  0  0
   60.9620   29.5810   47.1530 N   0  0  0  0  0  0  0  0  0  0  0  0
   61.3530   30.9450   46.7430 C   0  0  0  0  0  0  0  0  0  0  0  0
   62.3290   31.5310   47.7290 C   0  0  0  0  0  0  0  0  0  0  0  0
   63.2600   32.5040   47.3260 C   0  0  0  0  0  0  0  0  0  0  0  0
   64.1550   33.0480   48.2520 C   0  0  0  0  0  0  0  0  0  0  0  0
   64.1280   32.6250   49.5840 C   0  0  0  0  0  0  0  0  0  0  0  0
   63.2060   31.6580   49.9930 C   0  0  0  0  0  0  0  0  0  0  0  0
   62.3070   31.1130   49.0710 C   0  0  0  0  0  0  0  0  0  0  0  0
   59.8180   29.5870   48.1040 C   0  0  0  0  0  0  0  0  0  0  0  0
   58.4990   29.1760   47.4340 C   0  0  0  0  0  0  0  0  0  0  0  0
   58.6740   32.1280   45.5720 C   0  0  0  0  0  0  0  0  0  0  0  0
   58.7400   32.0480   50.1830 C   0  0  0  0  0  0  0  0  0  0  0  0
   57.1550   30.2123   53.2642 H   0  0  0  0  0  0  0  0  0  0  0  0
   55.7239   29.6637   52.3275 H   0  0  0  0  0  0  0  0  0  0  0  0
   57.2278   28.6814   52.3275 H   0  0  0  0  0  0  0  0  0  0  0  0
   57.2150   32.2277   53.2409 H   0  0  0  0  0  0  0  0  0  0  0  0
   58.3961   34.4246   53.2497 H   0  0  0  0  0  0  0  0  0  0  0  0
   59.7931   35.1055   51.3012 H   0  0  0  0  0  0  0  0  0  0  0  0
   61.2127   34.0676   49.3371 H   0  0  0  0  0  0  0  0  0  0  0  0
   60.3744   32.8367   48.3305 H   0  0  0  0  0  0  0  0  0  0  0  0
   59.9950   35.6730   48.5110 H   0  0  0  0  0  0  0  0  0  0  0  0
   56.6756   34.7000   45.9461 H   0  0  0  0  0  0  0  0  0  0  0  0
   57.1935   27.5442   43.7710 H   0  0  0  0  0  0  0  0  0  0  0  0
   58.9228   27.4594   44.3051 H   0  0  0  0  0  0  0  0  0  0  0  0
   56.6290   28.1887   46.1792 H   0  0  0  0  0  0  0  0  0  0  0  0
   57.2275   26.5004   45.9358 H   0  0  0  0  0  0  0  0  0  0  0  0
   60.4826   26.8932   47.0692 H   0  0  0  0  0  0  0  0  0  0  0  0
   59.7687   26.9009   45.3965 H   0  0  0  0  0  0  0  0  0  0  0  0
   61.7066   28.4196   45.5540 H   0  0  0  0  0  0  0  0  0  0  0  0
   60.1642   29.3098   45.2255 H   0  0  0  0  0  0  0  0  0  0  0  0
   61.8227   30.9039   45.7491 H   0  0  0  0  0  0  0  0  0  0  0  0
   60.4546   31.5789   46.7111 H   0  0  0  0  0  0  0  0  0  0  0  0
   63.2844   32.8385   46.2784 H   0  0  0  0  0  0  0  0  0  0  0  0
   64.8812   33.8097   47.9321 H   0  0  0  0  0  0  0  0  0  0  0  0
   64.8334   33.0538   50.3110 H   0  0  0  0  0  0  0  0  0  0  0  0
   63.1874   31.3252   51.0413 H   0  0  0  0  0  0  0  0  0  0  0  0
   61.5800   30.3545   49.3970 H   0  0  0  0  0  0  0  0  0  0  0  0
   60.0339   28.8828   48.9210 H   0  0  0  0  0  0  0  0  0  0  0  0
   59.6984   30.6142   48.4790 H   0  0  0  0  0  0  0  0  0  0  0  0
   57.6914   29.2116   48.1800 H   0  0  0  0  0  0  0  0  0  0  0  0
   58.2957   29.8738   46.6084 H   0  0  0  0  0  0  0  0  0  0  0  0
   59.6120   31.5538   45.5928 H   0  0  0  0  0  0  0  0  0  0  0  0
   58.8308   31.3827   49.3117 H   0  0  0  0  0  0  0  0  0  0  0  0
  1  2  1  0
  2  3  1  0
  3  4  2  0
  4  5  1  0
  5  6  2  0
  6  7  1  0
  7  8  1  0
  8  9  1  0
  9 10  1  0
 10 11  2  0
 10 12  2  0
 10 13  1  0
 13 14  2  0
 14 15  1  0
 15 16  1  0
 16 17  1  0
 17 18  2  0
 17 19  1  0
 19 20  1  0
 20 21  1  0
 21 22  1  0
 22 23  1  0
 23 24  1  0
 24 25  1  0
 25 26  1  0
 26 27  1  0
 27 28  2  0
 28 29  1  0
 29 30  2  0
 30 31  1  0
 31 32  2  0
 25 33  1  0
 33 34  1  0
 16 35  2  0
  7 36  2  0
 36  3  1  0
 35 13  1  0
 34 22  1  0
 32 27  1  0
  1 37  1  0
  1 38  1  0
  1 39  1  0
  4 40  1  0
  5 41  1  0
  6 42  1  0
  8 43  1  0
  8 44  1  0
  9 45  1  0
 14 46  1  0
 20 47  1  0
 20 48  1  0
 21 49  1  0
 21 50  1  0
 23 51  1  0
 23 52  1  0
 24 53  1  0
 24 54  1  0
 26 55  1  0
 26 56  1  0
 28 57  1  0
 29 58  1  0
 30 59  1  0
 31 60  1  0
 32 61  1  0
 33 62  1  0
 33 63  1  0
 34 64  1  0
 34 65  1  0
 35 66  1  0
 36 67  1  0
M  CHG  1  19  -1
M  END
>  <UniqueID>  (71) 
69

>  <SMILES>  (71) 
COc1cccc(CNS(=O)(=O)c2coc(C(=O)[N-]CCN3CCN(Cc4ccccc4)CC3)c2)c1

>  <Energy>  (71) 
106.3326469215164

>  <Genealogy>  (71) 
COc1cccc(CNS(=O)(=O)c2coc(C(=O)[N-]CCN3CCN(Cc4ccccc4)CC3)c2)c1 (protonated)
COc1cccc(CNS(=O)(=O)c2coc(C(=O)[N-]CCN3CCN(Cc4ccccc4)CC3)c2)c1 (3D coordinates assigned)
COc1cccc(CNS(=O)(=O)c2coc(C(=O)[N-]CCN3CCN(Cc4ccccc4)CC3)c2)c1 (nonaromatic ring conformer: 106.3326469215164 kcal/mol)

>  <smiles>  (71) 
COc1cccc(CNS(=O)(=O)c2coc(C(=O)NCCN3CCN(Cc4ccccc4)CC3)c2)c1

>  <score_type>  (71) 
oracle

>  <origin>  (71) 
adg

>  <m_score__min__energy>  (71) 
-10.630000000000001

>  <m_primary>  (71) 
energy

$$$$
71:0
     RDKit          3D

 50 54  0  0  0  0  0  0  0  0999 V2000
   59.4300   29.9290   50.6840 C   0  0  0  0  0  0  0  0  0  0  0  0
   60.4350   30.6310   50.1600 C   0  0  0  0  0  0  0  0  0  0  0  0
   60.1300   31.7560   49.3300 N   0  0  0  0  0  0  0  0  0  0  0  0
   61.0450   32.5750   48.9150 C   0  0  0  0  0  0  0  0  0  0  0  0
   60.6770   33.6190   48.0020 N   0  0  0  0  0  0  0  0  0  0  0  0
   61.1880   33.6140   46.6290 C   0  0  0  0  0  0  0  0  0  0  0  0
   60.0260   33.5270   45.6180 C   0  0  0  0  0  0  0  0  0  0  0  0
   58.7610   34.1590   46.0840 N   0  0  0  0  0  0  0  0  0  0  0  0
   57.7510   33.1440   46.4670 C   0  0  0  0  0  0  0  0  0  0  0  0
   58.1250   31.7740   45.9600 C   0  0  0  0  0  0  0  0  0  0  0  0
   57.7400   31.3730   44.6550 C   0  0  0  0  0  0  0  0  0  0  0  0
   58.0660   30.0910   44.1780 C   0  0  0  0  0  0  0  0  0  0  0  0
   58.7700   29.2410   45.0270 C   0  0  0  0  0  0  0  0  0  0  0  0
   59.1380   29.6180   46.2770 C   0  0  0  0  0  0  0  0  0  0  0  0
   58.8370   30.8770   46.7880 C   0  0  0  0  0  0  0  0  0  0  0  0
   59.8160   28.5810   46.8890 O   0  0  0  0  0  0  0  0  0  0  0  0
   59.8780   27.4850   45.9650 C   0  0  0  0  0  0  0  0  0  0  0  0
   59.1970   27.9490   44.7900 O   0  0  0  0  0  0  0  0  0  0  0  0
   58.9860   35.1860   47.1290 C   0  0  0  0  0  0  0  0  0  0  0  0
   59.6470   34.5900   48.3800 C   0  0  0  0  0  0  0  0  0  0  0  0
   62.4460   32.3920   49.3680 C   0  0  0  0  0  0  0  0  0  0  0  0
   63.4320   33.3860   49.1890 C   0  0  0  0  0  0  0  0  0  0  0  0
   63.1360   34.5820   48.6220 F   0  0  0  0  0  0  0  0  0  0  0  0
   64.7360   33.1720   49.6430 C   0  0  0  0  0  0  0  0  0  0  0  0
   65.0710   31.9820   50.2880 C   0  0  0  0  0  0  0  0  0  0  0  0
   66.7130   31.7170   50.8450 Cl  0  0  0  0  0  0  0  0  0  0  0  0
   64.0940   31.0060   50.5010 C   0  0  0  0  0  0  0  0  0  0  0  0
   62.7720   31.2090   50.0700 C   0  0  0  0  0  0  0  0  0  0  0  0
   61.7960   30.1640   50.2870 N   0  0  0  0  0  0  0  0  0  0  0  0
   59.6413   29.0604   51.3250 H   0  0  0  0  0  0  0  0  0  0  0  0
   58.3895   30.2184   50.4754 H   0  0  0  0  0  0  0  0  0  0  0  0
   61.7541   34.5401   46.4505 H   0  0  0  0  0  0  0  0  0  0  0  0
   61.8401   32.7381   46.4963 H   0  0  0  0  0  0  0  0  0  0  0  0
   60.3391   34.0264   44.6893 H   0  0  0  0  0  0  0  0  0  0  0  0
   59.8107   32.4576   45.4761 H   0  0  0  0  0  0  0  0  0  0  0  0
   57.6755   33.1109   47.5639 H   0  0  0  0  0  0  0  0  0  0  0  0
   56.7883   33.4278   46.0168 H   0  0  0  0  0  0  0  0  0  0  0  0
   57.1826   32.0697   44.0117 H   0  0  0  0  0  0  0  0  0  0  0  0
   57.7744   29.7701   43.1671 H   0  0  0  0  0  0  0  0  0  0  0  0
   59.1436   31.1649   47.8044 H   0  0  0  0  0  0  0  0  0  0  0  0
   60.9235   27.2347   45.7321 H   0  0  0  0  0  0  0  0  0  0  0  0
   59.4190   26.5733   46.3749 H   0  0  0  0  0  0  0  0  0  0  0  0
   59.6388   35.9719   46.7214 H   0  0  0  0  0  0  0  0  0  0  0  0
   58.0084   35.5968   47.4212 H   0  0  0  0  0  0  0  0  0  0  0  0
   60.1090   35.3985   48.9655 H   0  0  0  0  0  0  0  0  0  0  0  0
   58.8790   34.0793   48.9795 H   0  0  0  0  0  0  0  0  0  0  0  0
   65.5023   33.9463   49.4908 H   0  0  0  0  0  0  0  0  0  0  0  0
   64.3625   30.0692   51.0113 H   0  0  0  0  0  0  0  0  0  0  0  0
   61.9360   29.7660   51.2460 H   0  0  0  0  0  0  0  0  0  0  0  0
   61.9550   29.4110   49.5780 H   0  0  0  0  0  0  0  0  0  0  0  0
  1  2  2  0
  2  3  1  0
  3  4  2  0
  4  5  1  0
  5  6  1  0
  6  7  1  0
  7  8  1  0
  8  9  1  0
  9 10  1  0
 10 11  2  0
 11 12  1  0
 12 13  2  0
 13 14  1  0
 14 15  2  0
 14 16  1  0
 16 17  1  0
 17 18  1  0
  8 19  1  0
 19 20  1  0
  4 21  1  0
 21 22  2  0
 22 23  1  0
 22 24  1  0
 24 25  2  0
 25 26  1  0
 25 27  1  0
 27 28  2  0
 28 29  1  0
 29  2  1  0
 20  5  1  0
 28 21  1  0
 15 10  1  0
 18 13  1  0
  1 30  1  0
  1 31  1  0
  6 32  1  0
  6 33  1  0
  7 34  1  0
  7 35  1  0
  9 36  1  0
  9 37  1  0
 11 38  1  0
 12 39  1  0
 15 40  1  0
 17 41  1  0
 17 42  1  0
 19 43  1  0
 19 44  1  0
 20 45  1  0
 20 46  1  0
 24 47  1  0
 27 48  1  0
 29 49  1  0
 29 50  1  0
M  CHG  1  29   1
M  END
>  <UniqueID>  (72) 
70

>  <SMILES>  (72) 
C=C1N=C(N2CCN(Cc3ccc4c(c3)OCO4)CC2)c2c(F)cc(Cl)cc2[NH2+]1

>  <Energy>  (72) 
102.14603452670546

>  <Genealogy>  (72) 
C=C1N=C(N2CCN(Cc3ccc4c(c3)OCO4)CC2)c2c(F)cc(Cl)cc2[NH2+]1 (protonated)
C=C1N=C(N2CCN(Cc3ccc4c(c3)OCO4)CC2)c2c(F)cc(Cl)cc2[NH2+]1 (3D coordinates assigned)
C=C1N=C(N2CCN(Cc3ccc4c(c3)OCO4)CC2)c2c(F)cc(Cl)cc2[NH2+]1 (nonaromatic ring conformer: 102.14603452670546 kcal/mol)

>  <smiles>  (72) 
C=C1N=C(N2CCN(Cc3ccc4c(c3)OCO4)CC2)c2c(F)cc(Cl)cc2N1

>  <score_type>  (72) 
oracle

>  <origin>  (72) 
adg

>  <m_score__min__energy>  (72) 
-6.1900000000000004

>  <m_primary>  (72) 
energy

$$$$
72:0
     RDKit          3D

 61 64  0  0  0  0  0  0  0  0999 V2000
   57.5880   32.8640   43.7350 O   0  0  0  0  0  0  0  0  0  0  0  0
   57.3130   32.0530   44.6610 C   0  0  0  0  0  0  0  0  0  0  0  0
   56.2000   31.2290   44.5440 O   0  0  0  0  0  0  0  0  0  0  0  0
   58.2030   31.9470   45.8690 C   0  0  1  0  0  0  0  0  0  0  0  0
   59.2560   30.8380   45.6550 C   0  0  0  0  0  0  0  0  0  0  0  0
   58.6110   29.4850   45.4800 C   0  0  0  0  0  0  0  0  0  0  0  0
   58.5920   28.8720   44.2180 C   0  0  0  0  0  0  0  0  0  0  0  0
   58.0370   27.6000   44.0580 C   0  0  0  0  0  0  0  0  0  0  0  0
   57.4920   26.9150   45.1610 C   0  0  0  0  0  0  0  0  0  0  0  0
   56.9190   25.6010   45.0350 N   0  0  0  0  0  0  0  0  0  0  0  0
   55.5000   25.0740   45.8860 S   0  0  0  0  0  0  0  0  0  0  0  0
   54.8790   23.9100   45.1660 O   0  0  0  0  0  0  0  0  0  0  0  0
   55.8860   24.6440   47.2720 O   0  0  0  0  0  0  0  0  0  0  0  0
   54.3970   26.3380   45.9950 O   0  0  0  0  0  0  0  0  0  0  0  0
   57.5190   27.5310   46.4220 C   0  0  0  0  0  0  0  0  0  0  0  0
   58.0770   28.8030   46.5830 C   0  0  0  0  0  0  0  0  0  0  0  0
   58.8570   33.2460   46.1080 N   0  0  0  0  0  0  0  0  0  0  0  0
   59.4220   33.3960   47.7530 S   0  0  0  0  0  0  0  0  0  0  0  0
   58.7990   32.2860   48.5480 O   0  0  0  0  0  0  0  0  0  0  0  0
   58.9340   34.7240   48.2470 O   0  0  0  0  0  0  0  0  0  0  0  0
   61.2000   33.3260   47.9160 C   0  0  0  0  0  0  0  0  0  0  0  0
   61.9270   33.5510   46.7290 C   0  0  0  0  0  0  0  0  0  0  0  0
   63.3100   33.4960   46.6920 C   0  0  0  0  0  0  0  0  0  0  0  0
   64.0220   33.2210   47.8400 C   0  0  0  0  0  0  0  0  0  0  0  0
   63.3600   33.0060   49.0530 C   0  0  0  0  0  0  0  0  0  0  0  0
   64.1510   32.7460   50.1780 C   0  0  0  0  0  0  0  0  0  0  0  0
   63.5700   32.5340   51.4120 C   0  0  0  0  0  0  0  0  0  0  0  0
   62.1940   32.5790   51.5430 C   0  0  0  0  0  0  0  0  0  0  0  0
   61.3470   32.8350   50.4480 C   0  0  0  0  0  0  0  0  0  0  0  0
   59.9330   32.8810   50.7340 N   0  0  0  0  0  0  0  0  0  0  0  0
   59.3310   34.1610   51.1440 C   0  0  0  0  0  0  0  0  0  0  0  0
   59.1950   34.2350   52.6710 C   0  0  0  0  0  0  0  0  0  0  0  0
   58.4580   33.0030   53.2150 C   0  0  0  0  0  0  0  0  0  0  0  0
   59.1180   31.6960   52.7540 C   0  0  0  0  0  0  0  0  0  0  0  0
   59.2660   31.6640   51.2260 C   0  0  0  0  0  0  0  0  0  0  0  0
   61.9250   33.0570   49.1410 C   0  0  0  0  0  0  0  0  0  0  0  0
   57.5995   31.6829   46.7500 H   0  0  0  0  0  0  0  0  0  0  0  0
   59.8433   31.0724   44.7550 H   0  0  0  0  0  0  0  0  0  0  0  0
   59.9002   30.7991   46.5458 H   0  0  0  0  0  0  0  0  0  0  0  0
   59.0167   29.3963   43.3492 H   0  0  0  0  0  0  0  0  0  0  0  0
   58.0256   27.1302   43.0634 H   0  0  0  0  0  0  0  0  0  0  0  0
   57.3690   24.9110   44.3920 H   0  0  0  0  0  0  0  0  0  0  0  0
   57.0968   27.0077   47.2926 H   0  0  0  0  0  0  0  0  0  0  0  0
   58.0972   29.2705   47.5785 H   0  0  0  0  0  0  0  0  0  0  0  0
   59.6670   33.4070   45.4670 H   0  0  0  0  0  0  0  0  0  0  0  0
   61.3780   33.7774   45.8030 H   0  0  0  0  0  0  0  0  0  0  0  0
   63.8414   33.6720   45.7451 H   0  0  0  0  0  0  0  0  0  0  0  0
   65.1202   33.1702   47.8016 H   0  0  0  0  0  0  0  0  0  0  0  0
   65.2458   32.7103   50.0778 H   0  0  0  0  0  0  0  0  0  0  0  0
   64.2005   32.3296   52.2899 H   0  0  0  0  0  0  0  0  0  0  0  0
   61.7473   32.4095   52.5338 H   0  0  0  0  0  0  0  0  0  0  0  0
   59.9698   34.9871   50.7984 H   0  0  0  0  0  0  0  0  0  0  0  0
   58.3291   34.2388   50.6966 H   0  0  0  0  0  0  0  0  0  0  0  0
   60.1980   34.2823   53.1202 H   0  0  0  0  0  0  0  0  0  0  0  0
   58.6159   35.1338   52.9294 H   0  0  0  0  0  0  0  0  0  0  0  0
   58.4677   33.0386   54.3144 H   0  0  0  0  0  0  0  0  0  0  0  0
   57.4283   33.0216   52.8286 H   0  0  0  0  0  0  0  0  0  0  0  0
   60.1140   31.6142   53.2138 H   0  0  0  0  0  0  0  0  0  0  0  0
   58.4811   30.8538   53.0623 H   0  0  0  0  0  0  0  0  0  0  0  0
   59.8642   30.7859   50.9410 H   0  0  0  0  0  0  0  0  0  0  0  0
   58.2628   31.6093   50.7782 H   0  0  0  0  0  0  0  0  0  0  0  0
  1  2  2  0
  2  3  1  0
  2  4  1  0
  4  5  1  0
  5  6  1  0
  6  7  2  0
  7  8  1  0
  8  9  2  0
  9 10  1  0
 10 11  1  0
 11 12  2  0
 11 13  2  0
 11 14  1  0
  9 15  1  0
 15 16  2  0
  4 17  1  0
 17 18  1  0
 18 19  2  0
 18 20  2  0
 18 21  1  0
 21 22  2  0
 22 23  1  0
 23 24  2  0
 24 25  1  0
 25 26  2  0
 26 27  1  0
 27 28  2  0
 28 29  1  0
 29 30  1  0
 30 31  1  0
 31 32  1  0
 32 33  1  0
 33 34  1  0
 34 35  1  0
 29 36  2  0
 16  6  1  0
 36 21  1  0
 36 25  1  0
 35 30  1  0
  4 37  1  1
  5 38  1  0
  5 39  1  0
  7 40  1  0
  8 41  1  0
 10 42  1  0
 15 43  1  0
 16 44  1  0
 17 45  1  0
 22 46  1  0
 23 47  1  0
 24 48  1  0
 26 49  1  0
 27 50  1  0
 28 51  1  0
 31 52  1  0
 31 53  1  0
 32 54  1  0
 32 55  1  0
 33 56  1  0
 33 57  1  0
 34 58  1  0
 34 59  1  0
 35 60  1  0
 35 61  1  0
M  CHG  2   3  -1  14  -1
M  END
>  <UniqueID>  (73) 
71

>  <SMILES>  (73) 
O=C([O-])[C@@H](Cc1ccc(NS(=O)(=O)[O-])cc1)NS(=O)(=O)c1cccc2cccc(N3CCCCC3)c12

>  <Energy>  (73) 
86.0159443016771

>  <Genealogy>  (73) 
O=C([O-])C(Cc1ccc(NS(=O)(=O)[O-])cc1)NS(=O)(=O)c1cccc2cccc(N3CCCCC3)c12 (protonated)
O=C([O-])[C@@H](Cc1ccc(NS(=O)(=O)[O-])cc1)NS(=O)(=O)c1cccc2cccc(N3CCCCC3)c12 (chirality)
O=C([O-])[C@@H](Cc1ccc(NS(=O)(=O)[O-])cc1)NS(=O)(=O)c1cccc2cccc(N3CCCCC3)c12 (3D coordinates assigned)
O=C([O-])[C@@H](Cc1ccc(NS(=O)(=O)[O-])cc1)NS(=O)(=O)c1cccc2cccc(N3CCCCC3)c12 (nonaromatic ring conformer: 86.0159443016771 kcal/mol)

>  <smiles>  (73) 
O=C(O)C(Cc1ccc(NS(=O)(=O)O)cc1)NS(=O)(=O)c1cccc2cccc(N3CCCCC3)c12

>  <score_type>  (73) 
oracle

>  <origin>  (73) 
adg

>  <m_score__min__energy>  (73) 
-14.52

>  <m_primary>  (73) 
energy

$$$$
73:0
     RDKit          3D

 82 86  0  0  0  0  0  0  0  0999 V2000
   50.5410   31.9660   48.2270 C   0  0  0  0  0  0  0  0  0  0  0  0
   50.6480   32.2780   49.6120 O   0  0  0  0  0  0  0  0  0  0  0  0
   51.4300   31.5600   50.5300 C   0  0  0  0  0  0  0  0  0  0  0  0
   52.2150   30.4590   50.1390 C   0  0  0  0  0  0  0  0  0  0  0  0
   52.9560   29.7500   51.0810 C   0  0  0  0  0  0  0  0  0  0  0  0
   52.9230   30.1140   52.4340 C   0  0  0  0  0  0  0  0  0  0  0  0
   53.7100   29.3280   53.4530 C   0  0  0  0  0  0  0  0  0  0  0  0
   54.9290   30.0910   54.0110 C   0  0  0  0  0  0  0  0  0  0  0  0
   56.2010   29.4010   53.7820 N   0  0  0  0  0  0  0  0  0  0  0  0
   57.4930   30.0000   53.5920 C   0  0  0  0  0  0  0  0  0  0  0  0
   58.3200   29.9710   54.5410 O   0  0  0  0  0  0  0  0  0  0  0  0
   57.9150   30.5610   52.2990 C   0  0  0  0  0  0  0  0  0  0  0  0
   57.6550   31.9000   51.9690 C   0  0  0  0  0  0  0  0  0  0  0  0
   57.9020   32.3630   50.6740 C   0  0  0  0  0  0  0  0  0  0  0  0
   58.4140   31.4930   49.7010 C   0  0  0  0  0  0  0  0  0  0  0  0
   58.4970   31.9180   48.3360 N   0  0  0  0  0  0  0  0  0  0  0  0
   58.6030   30.9600   47.2730 C   0  0  0  0  0  0  0  0  0  0  0  0
   58.8680   29.7540   47.5340 O   0  0  0  0  0  0  0  0  0  0  0  0
   58.4890   31.3660   45.8610 C   0  0  0  0  0  0  0  0  0  0  0  0
   57.9940   30.4080   44.9610 C   0  0  0  0  0  0  0  0  0  0  0  0
   57.7740   30.7290   43.6210 C   0  0  0  0  0  0  0  0  0  0  0  0
   58.0330   32.0160   43.1640 C   0  0  0  0  0  0  0  0  0  0  0  0
   58.5150   32.9870   44.0420 C   0  0  0  0  0  0  0  0  0  0  0  0
   58.7500   32.6870   45.3970 C   0  0  0  0  0  0  0  0  0  0  0  0
   59.3180   34.0170   46.4380 S   0  0  0  0  0  0  0  0  0  0  0  0
   58.1240   34.6390   47.1070 O   0  0  0  0  0  0  0  0  0  0  0  0
   59.9680   35.0960   45.6230 O   0  0  0  0  0  0  0  0  0  0  0  0
   60.4220   33.4860   47.6830 N   0  0  0  0  0  0  0  0  0  0  0  0
   60.2660   34.3030   48.8950 C   0  0  0  0  0  0  0  0  0  0  0  0
   61.1280   33.7280   50.0170 C   0  0  0  0  0  0  0  0  0  0  0  0
   62.5100   33.5780   49.5510 N   0  0  0  0  0  0  0  0  0  0  0  0
   63.5920   33.7730   50.4790 C   0  0  0  0  0  0  0  0  0  0  0  0
   63.6290   34.8260   51.1760 O   0  0  0  0  0  0  0  0  0  0  0  0
   64.6610   32.7660   50.6390 C   0  0  0  0  0  0  0  0  0  0  0  0
   64.3610   31.4860   51.1360 C   0  0  0  0  0  0  0  0  0  0  0  0
   65.3710   30.5290   51.2820 C   0  0  0  0  0  0  0  0  0  0  0  0
   66.6830   30.8350   50.9150 C   0  0  0  0  0  0  0  0  0  0  0  0
   66.9870   32.0980   50.3980 C   0  0  0  0  0  0  0  0  0  0  0  0
   65.9810   33.0590   50.2590 C   0  0  0  0  0  0  0  0  0  0  0  0
   62.7550   32.9600   48.2410 C   0  0  0  0  0  0  0  0  0  0  0  0
   61.8100   33.5550   47.1950 C   0  0  0  0  0  0  0  0  0  0  0  0
   58.7630   30.1860   50.0590 C   0  0  0  0  0  0  0  0  0  0  0  0
   58.5300   29.7260   51.3550 C   0  0  0  0  0  0  0  0  0  0  0  0
   52.1760   31.2380   52.8210 C   0  0  0  0  0  0  0  0  0  0  0  0
   51.4240   31.9610   51.8750 C   0  0  0  0  0  0  0  0  0  0  0  0
   50.6600   33.0830   52.2310 O   0  0  0  0  0  0  0  0  0  0  0  0
   50.2470   33.3870   53.5580 C   0  0  0  0  0  0  0  0  0  0  0  0
   50.1862   30.9313   48.1106 H   0  0  0  0  0  0  0  0  0  0  0  0
   49.8275   32.6542   47.7502 H   0  0  0  0  0  0  0  0  0  0  0  0
   51.5267   32.0714   47.7502 H   0  0  0  0  0  0  0  0  0  0  0  0
   52.2433   30.1565   49.0818 H   0  0  0  0  0  0  0  0  0  0  0  0
   53.5724   28.8971   50.7605 H   0  0  0  0  0  0  0  0  0  0  0  0
   53.0426   29.0777   54.2908 H   0  0  0  0  0  0  0  0  0  0  0  0
   54.0945   28.4320   52.9438 H   0  0  0  0  0  0  0  0  0  0  0  0
   54.9750   31.0773   53.5262 H   0  0  0  0  0  0  0  0  0  0  0  0
   54.7930   30.1693   55.0998 H   0  0  0  0  0  0  0  0  0  0  0  0
   57.2562   32.5860   52.7308 H   0  0  0  0  0  0  0  0  0  0  0  0
   57.6943   33.4123   50.4174 H   0  0  0  0  0  0  0  0  0  0  0  0
   58.3440   32.9270   48.1120 H   0  0  0  0  0  0  0  0  0  0  0  0
   57.7767   29.3903   45.3175 H   0  0  0  0  0  0  0  0  0  0  0  0
   57.3959   29.9641   42.9267 H   0  0  0  0  0  0  0  0  0  0  0  0
   57.8576   32.2693   42.1080 H   0  0  0  0  0  0  0  0  0  0  0  0
   58.7145   34.0027   43.6697 H   0  0  0  0  0  0  0  0  0  0  0  0
   60.5818   35.3352   48.6835 H   0  0  0  0  0  0  0  0  0  0  0  0
   59.2109   34.2963   49.2059 H   0  0  0  0  0  0  0  0  0  0  0  0
   61.1053   34.4085   50.8809 H   0  0  0  0  0  0  0  0  0  0  0  0
   60.7340   32.7441   50.3113 H   0  0  0  0  0  0  0  0  0  0  0  0
   63.3261   31.2352   51.4118 H   0  0  0  0  0  0  0  0  0  0  0  0
   65.1313   29.5345   51.6863 H   0  0  0  0  0  0  0  0  0  0  0  0
   67.4770   30.0828   51.0326 H   0  0  0  0  0  0  0  0  0  0  0  0
   68.0189   32.3359   50.1003 H   0  0  0  0  0  0  0  0  0  0  0  0
   66.2248   34.0504   49.8496 H   0  0  0  0  0  0  0  0  0  0  0  0
   63.7961   33.1471   47.9393 H   0  0  0  0  0  0  0  0  0  0  0  0
   62.5758   31.8772   48.3141 H   0  0  0  0  0  0  0  0  0  0  0  0
   62.0815   34.6052   47.0123 H   0  0  0  0  0  0  0  0  0  0  0  0
   61.8959   32.9830   46.2594 H   0  0  0  0  0  0  0  0  0  0  0  0
   59.2230   29.5187   49.3153 H   0  0  0  0  0  0  0  0  0  0  0  0
   58.8294   28.7058   51.6373 H   0  0  0  0  0  0  0  0  0  0  0  0
   52.1782   31.5571   53.8737 H   0  0  0  0  0  0  0  0  0  0  0  0
   50.9196   32.8919   54.2739 H   0  0  0  0  0  0  0  0  0  0  0  0
   50.2834   34.4754   53.7131 H   0  0  0  0  0  0  0  0  0  0  0  0
   49.2186   33.0288   53.7131 H   0  0  0  0  0  0  0  0  0  0  0  0
  1  2  1  0
  2  3  1  0
  3  4  2  0
  4  5  1  0
  5  6  2  0
  6  7  1  0
  7  8  1  0
  8  9  1  0
  9 10  1  0
 10 11  2  0
 10 12  1  0
 12 13  2  0
 13 14  1  0
 14 15  2  0
 15 16  1  0
 16 17  1  0
 17 18  2  0
 17 19  1  0
 19 20  2  0
 20 21  1  0
 21 22  2  0
 22 23  1  0
 23 24  2  0
 24 25  1  0
 25 26  2  0
 25 27  2  0
 25 28  1  0
 28 29  1  0
 29 30  1  0
 30 31  1  0
 31 32  1  0
 32 33  2  0
 32 34  1  0
 34 35  2  0
 35 36  1  0
 36 37  2  0
 37 38  1  0
 38 39  2  0
 31 40  1  0
 40 41  1  0
 15 42  1  0
 42 43  2  0
  6 44  1  0
 44 45  2  0
 45 46  1  0
 46 47  1  0
 45  3  1  0
 43 12  1  0
 24 19  1  0
 41 28  1  0
 39 34  1  0
  1 48  1  0
  1 49  1  0
  1 50  1  0
  4 51  1  0
  5 52  1  0
  7 53  1  0
  7 54  1  0
  8 55  1  0
  8 56  1  0
 13 57  1  0
 14 58  1  0
 16 59  1  0
 20 60  1  0
 21 61  1  0
 22 62  1  0
 23 63  1  0
 29 64  1  0
 29 65  1  0
 30 66  1  0
 30 67  1  0
 35 68  1  0
 36 69  1  0
 37 70  1  0
 38 71  1  0
 39 72  1  0
 40 73  1  0
 40 74  1  0
 41 75  1  0
 41 76  1  0
 42 77  1  0
 43 78  1  0
 44 79  1  0
 47 80  1  0
 47 81  1  0
 47 82  1  0
M  CHG  1   9  -1
M  END
>  <UniqueID>  (74) 
72

>  <SMILES>  (74) 
COc1ccc(CC[N-]C(=O)c2ccc(NC(=O)c3ccccc3S(=O)(=O)N3CCN(C(=O)c4ccccc4)CC3)cc2)cc1OC

>  <Energy>  (74) 
106.79514903794811

>  <Genealogy>  (74) 
COc1ccc(CC[N-]C(=O)c2ccc(NC(=O)c3ccccc3S(=O)(=O)N3CCN(C(=O)c4ccccc4)CC3)cc2)cc1OC (protonated)
COc1ccc(CC[N-]C(=O)c2ccc(NC(=O)c3ccccc3S(=O)(=O)N3CCN(C(=O)c4ccccc4)CC3)cc2)cc1OC (3D coordinates assigned)
COc1ccc(CC[N-]C(=O)c2ccc(NC(=O)c3ccccc3S(=O)(=O)N3CCN(C(=O)c4ccccc4)CC3)cc2)cc1OC (nonaromatic ring conformer: 106.79514903794811 kcal/mol)

>  <smiles>  (74) 
COc1ccc(CCNC(=O)c2ccc(NC(=O)c3ccccc3S(=O)(=O)N3CCN(C(=O)c4ccccc4)CC3)cc2)cc1OC

>  <score_type>  (74) 
oracle

>  <origin>  (74) 
adg

>  <m_score__min__energy>  (74) 
-13.35

>  <m_primary>  (74) 
energy

$$$$
74:0
     RDKit          3D

 48 50  0  0  0  0  0  0  0  0999 V2000
   63.1510   33.0020   47.1130 C   0  0  0  0  0  0  0  0  0  0  0  0
   62.2940   31.8880   47.6100 C   0  0  0  0  0  0  0  0  0  0  0  0
   61.5720   31.1430   46.7330 N   0  0  0  0  0  0  0  0  0  0  0  0
   60.8120   30.1030   47.1580 C   0  0  0  0  0  0  0  0  0  0  0  0
   60.7670   29.7640   48.5190 C   0  0  0  0  0  0  0  0  0  0  0  0
   59.9540   28.5630   48.9520 C   0  0  0  0  0  0  0  0  0  0  0  0
   59.4580   27.7920   47.7560 C   0  0  0  0  0  0  0  0  0  0  0  0
   60.2680   26.8130   47.1560 C   0  0  0  0  0  0  0  0  0  0  0  0
   59.7860   26.0540   46.0860 C   0  0  0  0  0  0  0  0  0  0  0  0
   58.4870   26.2550   45.6090 C   0  0  0  0  0  0  0  0  0  0  0  0
   57.6620   27.2370   46.1860 C   0  0  0  0  0  0  0  0  0  0  0  0
   56.2690   27.4160   45.7260 C   0  0  0  0  0  0  0  0  0  0  0  0
   55.4030   26.5290   45.9640 O   0  0  0  0  0  0  0  0  0  0  0  0
   55.8960   28.6100   45.0300 N   0  0  0  0  0  0  0  0  0  0  0  0
   56.7940   29.2480   43.6980 S   0  0  0  0  0  0  0  0  0  0  0  0
   57.9290   28.3210   43.3630 O   0  0  0  0  0  0  0  0  0  0  0  0
   55.9120   29.3780   42.4850 O   0  0  0  0  0  0  0  0  0  0  0  0
   57.4270   30.8180   44.1840 C   0  0  0  0  0  0  0  0  0  0  0  0
   57.7620   31.7600   43.2000 C   0  0  0  0  0  0  0  0  0  0  0  0
   58.3190   32.9890   43.5640 C   0  0  0  0  0  0  0  0  0  0  0  0
   58.5570   33.2800   44.9110 C   0  0  0  0  0  0  0  0  0  0  0  0
   58.2570   32.3340   45.9090 C   0  0  0  0  0  0  0  0  0  0  0  0
   58.5040   32.6690   47.3600 C   0  0  0  0  0  0  0  0  0  0  0  0
   59.6860   33.3740   47.5190 F   0  0  0  0  0  0  0  0  0  0  0  0
   58.5750   31.4970   48.0910 F   0  0  0  0  0  0  0  0  0  0  0  0
   57.4730   33.4470   47.8480 F   0  0  0  0  0  0  0  0  0  0  0  0
   57.6710   31.1070   45.5360 C   0  0  0  0  0  0  0  0  0  0  0  0
   58.1660   28.0140   47.2500 C   0  0  0  0  0  0  0  0  0  0  0  0
   61.5380   30.5460   49.4180 C   0  0  0  0  0  0  0  0  0  0  0  0
   61.6080   30.2560   50.8900 C   0  0  0  0  0  0  0  0  0  0  0  0
   62.2790   31.5780   48.9320 N   0  0  0  0  0  0  0  0  0  0  0  0
   63.5726   33.5500   47.9685 H   0  0  0  0  0  0  0  0  0  0  0  0
   63.9682   32.5913   46.5019 H   0  0  0  0  0  0  0  0  0  0  0  0
   62.5445   33.6866   46.5019 H   0  0  0  0  0  0  0  0  0  0  0  0
   60.2268   29.5212   46.4307 H   0  0  0  0  0  0  0  0  0  0  0  0
   60.5835   27.9051   49.5692 H   0  0  0  0  0  0  0  0  0  0  0  0
   59.0860   28.9147   49.5289 H   0  0  0  0  0  0  0  0  0  0  0  0
   61.2881   26.6429   47.5309 H   0  0  0  0  0  0  0  0  0  0  0  0
   60.4307   25.2959   45.6174 H   0  0  0  0  0  0  0  0  0  0  0  0
   58.1084   25.6417   44.7780 H   0  0  0  0  0  0  0  0  0  0  0  0
   57.5858   31.5307   42.1387 H   0  0  0  0  0  0  0  0  0  0  0  0
   58.5706   33.7287   42.7897 H   0  0  0  0  0  0  0  0  0  0  0  0
   58.9816   34.2549   45.1925 H   0  0  0  0  0  0  0  0  0  0  0  0
   57.4034   30.3717   46.3091 H   0  0  0  0  0  0  0  0  0  0  0  0
   57.5394   28.8041   47.6894 H   0  0  0  0  0  0  0  0  0  0  0  0
   61.3866   31.1733   51.4554 H   0  0  0  0  0  0  0  0  0  0  0  0
   60.8713   29.4804   51.1464 H   0  0  0  0  0  0  0  0  0  0  0  0
   62.6174   29.9019   51.1464 H   0  0  0  0  0  0  0  0  0  0  0  0
  1  2  1  0
  2  3  2  0
  3  4  1  0
  4  5  2  0
  5  6  1  0
  6  7  1  0
  7  8  2  0
  8  9  1  0
  9 10  2  0
 10 11  1  0
 11 12  1  0
 12 13  2  0
 12 14  1  0
 14 15  1  0
 15 16  2  0
 15 17  2  0
 15 18  1  0
 18 19  2  0
 19 20  1  0
 20 21  2  0
 21 22  1  0
 22 23  1  0
 23 24  1  0
 23 25  1  0
 23 26  1  0
 22 27  2  0
 11 28  2  0
  5 29  1  0
 29 30  1  0
 29 31  2  0
 31  2  1  0
 28  7  1  0
 27 18  1  0
  1 32  1  0
  1 33  1  0
  1 34  1  0
  4 35  1  0
  6 36  1  0
  6 37  1  0
  8 38  1  0
  9 39  1  0
 10 40  1  0
 19 41  1  0
 20 42  1  0
 21 43  1  0
 27 44  1  0
 28 45  1  0
 30 46  1  0
 30 47  1  0
 30 48  1  0
M  CHG  1  14  -1
M  END
>  <UniqueID>  (75) 
73

>  <SMILES>  (75) 
Cc1ncc(Cc2cccc(C(=O)[N-]S(=O)(=O)c3cccc(C(F)(F)F)c3)c2)c(C)n1

>  <Energy>  (75) 
54.2509001627829

>  <Genealogy>  (75) 
Cc1ncc(Cc2cccc(C(=O)[N-]S(=O)(=O)c3cccc(C(F)(F)F)c3)c2)c(C)n1 (protonated)
Cc1ncc(Cc2cccc(C(=O)[N-]S(=O)(=O)c3cccc(C(F)(F)F)c3)c2)c(C)n1 (3D coordinates assigned)
Cc1ncc(Cc2cccc(C(=O)[N-]S(=O)(=O)c3cccc(C(F)(F)F)c3)c2)c(C)n1 (optimized conformer: 54.2509001627829 kcal/mol)

>  <smiles>  (75) 
Cc1ncc(Cc2cccc(C(=O)NS(=O)(=O)c3cccc(C(F)(F)F)c3)c2)c(C)n1

>  <score_type>  (75) 
oracle

>  <origin>  (75) 
adg

>  <m_score__min__energy>  (75) 
-11.279999999999999

>  <m_primary>  (75) 
energy

$$$$
75:0
     RDKit          3D

 42 44  0  0  0  0  0  0  0  0999 V2000
   59.4680   25.6250   46.6720 C   0  0  0  0  0  0  0  0  0  0  0  0
   58.7710   26.7290   46.3700 C   0  0  0  0  0  0  0  0  0  0  0  0
   59.0510   27.8440   47.1000 N   0  0  0  0  0  0  0  0  0  0  0  0
   58.5800   29.0740   46.7780 C   0  0  0  0  0  0  0  0  0  0  0  0
   57.8070   29.2500   45.6310 C   0  0  0  0  0  0  0  0  0  0  0  0
   57.3530   30.6010   45.2350 C   0  0  0  0  0  0  0  0  0  0  0  0
   56.4580   30.7140   44.3530 O   0  0  0  0  0  0  0  0  0  0  0  0
   57.9150   31.7860   45.8290 N   0  0  0  0  0  0  0  0  0  0  0  0
   57.0680   32.9600   46.0740 C   0  0  0  0  0  0  0  0  0  0  0  0
   57.5730   34.1700   45.2740 C   0  0  0  0  0  0  0  0  0  0  0  0
   59.1260   34.2660   45.2130 C   0  0  0  0  0  0  0  0  0  0  0  0
   59.6210   35.7170   45.3520 C   0  0  0  0  0  0  0  0  0  0  0  0
   59.6830   36.1030   46.7020 O   0  0  0  0  0  0  0  0  0  0  0  0
   59.8140   33.3400   46.2380 C   0  0  0  0  0  0  0  0  0  0  0  0
   59.3710   31.8860   46.0260 C   0  0  0  0  0  0  0  0  0  0  0  0
   57.4950   28.1290   44.8530 C   0  0  0  0  0  0  0  0  0  0  0  0
   57.8870   26.8340   45.2500 C   0  0  0  0  0  0  0  0  0  0  0  0
   57.3700   25.7920   44.5490 C   0  0  0  0  0  0  0  0  0  0  0  0
   56.2160   24.9640   44.9470 C   0  0  0  0  0  0  0  0  0  0  0  0
   56.1500   23.6240   44.8240 N   0  0  0  0  0  0  0  0  0  0  0  0
   54.9790   23.3130   45.4210 C   0  0  0  0  0  0  0  0  0  0  0  0
   54.5490   22.1330   45.4980 O   0  0  0  0  0  0  0  0  0  0  0  0
   54.3090   24.3660   45.9360 N   0  0  0  0  0  0  0  0  0  0  0  0
   55.1120   25.3990   45.6380 C   0  0  0  0  0  0  0  0  0  0  0  0
   54.8440   26.7150   45.9950 O   0  0  0  0  0  0  0  0  0  0  0  0
   59.2877   24.6920   46.1179 H   0  0  0  0  0  0  0  0  0  0  0  0
   60.2204   25.6518   47.4740 H   0  0  0  0  0  0  0  0  0  0  0  0
   58.8083   29.9351   47.4232 H   0  0  0  0  0  0  0  0  0  0  0  0
   56.0362   32.7308   45.7693 H   0  0  0  0  0  0  0  0  0  0  0  0
   57.1039   33.2046   47.1459 H   0  0  0  0  0  0  0  0  0  0  0  0
   57.1876   34.0942   44.2465 H   0  0  0  0  0  0  0  0  0  0  0  0
   57.2116   35.0730   45.7878 H   0  0  0  0  0  0  0  0  0  0  0  0
   59.4158   33.9120   44.2127 H   0  0  0  0  0  0  0  0  0  0  0  0
   60.6244   35.7984   44.9086 H   0  0  0  0  0  0  0  0  0  0  0  0
   58.9135   36.3791   44.8313 H   0  0  0  0  0  0  0  0  0  0  0  0
   59.3140   37.0220   46.7630 H   0  0  0  0  0  0  0  0  0  0  0  0
   60.9048   33.4085   46.1136 H   0  0  0  0  0  0  0  0  0  0  0  0
   59.5290   33.6559   47.2524 H   0  0  0  0  0  0  0  0  0  0  0  0
   59.8799   31.4837   45.1376 H   0  0  0  0  0  0  0  0  0  0  0  0
   59.6368   31.3108   46.9252 H   0  0  0  0  0  0  0  0  0  0  0  0
   56.9344   28.2605   43.9158 H   0  0  0  0  0  0  0  0  0  0  0  0
   57.8575   25.5421   43.5951 H   0  0  0  0  0  0  0  0  0  0  0  0
  1  2  2  0
  2  3  1  0
  3  4  2  0
  4  5  1  0
  5  6  1  0
  6  7  2  0
  6  8  1  0
  8  9  1  0
  9 10  1  0
 10 11  1  0
 11 12  1  0
 12 13  1  0
 11 14  1  0
 14 15  1  0
  5 16  2  0
 16 17  1  0
 17 18  2  3
 18 19  1  0
 19 20  1  0
 20 21  1  0
 21 22  2  0
 21 23  1  0
 23 24  1  0
 24 25  1  0
 17  2  1  0
 24 19  2  0
 15  8  1  0
  1 26  1  0
  1 27  1  0
  4 28  1  0
  9 29  1  0
  9 30  1  0
 10 31  1  0
 10 32  1  0
 11 33  1  0
 12 34  1  0
 12 35  1  0
 13 36  1  0
 14 37  1  0
 14 38  1  0
 15 39  1  0
 15 40  1  0
 16 41  1  0
 18 42  1  0
M  CHG  3  20  -1  23  -1  25  -1
M  END
>  <UniqueID>  (76) 
74

>  <SMILES>  (76) 
C=c1ncc(C(=O)N2CCC(CO)CC2)cc1=Cc1[n-]c(=O)[n-]c1[O-]

>  <Energy>  (76) 
99.06069940418888

>  <Genealogy>  (76) 
C=c1ncc(C(=O)N2CCC(CO)CC2)cc1=Cc1[n-]c(=O)[n-]c1[O-] (protonated)
C=c1ncc(C(=O)N2CCC(CO)CC2)cc1=Cc1[n-]c(=O)[n-]c1[O-] (3D coordinates assigned)
C=c1ncc(C(=O)N2CCC(CO)CC2)cc1=Cc1[n-]c(=O)[n-]c1[O-] (nonaromatic ring conformer: 99.06069940418888 kcal/mol)

>  <smiles>  (76) 
C=c1ncc(C(=O)N2CCC(CO)CC2)cc1=Cc1[nH]c(=O)[nH]c1O

>  <score_type>  (76) 
oracle

>  <origin>  (76) 
adg

>  <m_score__min__energy>  (76) 
-16.469999999999999

>  <m_primary>  (76) 
energy

$$$$
76:0
     RDKit          3D

 41 43  0  0  0  0  0  0  0  0999 V2000
   58.1490   26.9280   43.1700 C   0  0  0  0  0  0  0  0  0  0  0  0
   58.2690   26.7450   44.4950 C   0  0  0  0  0  0  0  0  0  0  0  0
   57.8140   25.6520   45.2520 C   0  0  0  0  0  0  0  0  0  0  0  0
   57.0490   24.5950   44.9160 C   0  0  0  0  0  0  0  0  0  0  0  0
   55.5900   24.5060   45.0770 C   0  0  0  0  0  0  0  0  0  0  0  0
   54.8890   23.3760   44.8800 N   0  0  0  0  0  0  0  0  0  0  0  0
   53.6390   23.7140   45.2650 C   0  0  0  0  0  0  0  0  0  0  0  0
   52.6720   22.9090   45.2110 O   0  0  0  0  0  0  0  0  0  0  0  0
   53.5090   24.9770   45.7250 N   0  0  0  0  0  0  0  0  0  0  0  0
   54.7560   25.4600   45.6140 C   0  0  0  0  0  0  0  0  0  0  0  0
   55.1290   26.7350   46.0190 O   0  0  0  0  0  0  0  0  0  0  0  0
   58.3060   25.8400   46.5350 C   0  0  0  0  0  0  0  0  0  0  0  0
   58.9800   27.0440   46.5350 C   0  0  0  0  0  0  0  0  0  0  0  0
   59.6800   27.6370   47.7180 C   0  0  0  0  0  0  0  0  0  0  0  0
   58.9610   27.5900   45.3000 N   0  0  0  0  0  0  0  0  0  0  0  0
   59.6210   28.8090   44.9250 C   0  0  0  0  0  0  0  0  0  0  0  0
   60.8220   28.7640   44.5420 O   0  0  0  0  0  0  0  0  0  0  0  0
   58.9190   30.0680   44.9590 N   0  0  0  0  0  0  0  0  0  0  0  0
   59.1160   30.9650   46.1140 C   0  0  0  0  0  0  0  0  0  0  0  0
   57.9710   31.9690   46.2600 C   0  0  0  0  0  0  0  0  0  0  0  0
   57.7420   32.6490   44.9850 N   0  0  0  0  0  0  0  0  0  0  0  0
   57.5950   34.1040   44.9090 C   0  0  0  0  0  0  0  0  0  0  0  0
   57.6820   31.8470   43.7980 C   0  0  0  0  0  0  0  0  0  0  0  0
   57.3680   32.3620   42.6910 O   0  0  0  0  0  0  0  0  0  0  0  0
   57.9600   30.3750   43.8840 C   0  0  0  0  0  0  0  0  0  0  0  0
   58.5538   27.8372   42.7014 H   0  0  0  0  0  0  0  0  0  0  0  0
   57.6459   26.1687   42.5533 H   0  0  0  0  0  0  0  0  0  0  0  0
   57.5605   23.7224   44.4835 H   0  0  0  0  0  0  0  0  0  0  0  0
   58.1824   25.1589   47.3899 H   0  0  0  0  0  0  0  0  0  0  0  0
   59.2261   27.2525   48.6433 H   0  0  0  0  0  0  0  0  0  0  0  0
   60.7447   27.3618   47.6900 H   0  0  0  0  0  0  0  0  0  0  0  0
   59.5836   28.7324   47.6900 H   0  0  0  0  0  0  0  0  0  0  0  0
   59.1752   30.3579   47.0294 H   0  0  0  0  0  0  0  0  0  0  0  0
   60.0456   31.5302   45.9513 H   0  0  0  0  0  0  0  0  0  0  0  0
   57.0557   31.4378   46.5600 H   0  0  0  0  0  0  0  0  0  0  0  0
   58.2360   32.7129   47.0257 H   0  0  0  0  0  0  0  0  0  0  0  0
   57.5528   34.5219   45.9257 H   0  0  0  0  0  0  0  0  0  0  0  0
   58.4545   34.5318   44.3721 H   0  0  0  0  0  0  0  0  0  0  0  0
   56.6673   34.3513   44.3721 H   0  0  0  0  0  0  0  0  0  0  0  0
   57.0174   29.8444   44.0838 H   0  0  0  0  0  0  0  0  0  0  0  0
   58.3976   30.0503   42.9284 H   0  0  0  0  0  0  0  0  0  0  0  0
  1  2  2  0
  2  3  1  0
  3  4  2  3
  4  5  1  0
  5  6  1  0
  6  7  1  0
  7  8  2  0
  7  9  1  0
  9 10  1  0
 10 11  1  0
  3 12  1  0
 12 13  2  0
 13 14  1  0
 13 15  1  0
 15 16  1  0
 16 17  2  0
 16 18  1  0
 18 19  1  0
 19 20  1  0
 20 21  1  0
 21 22  1  0
 21 23  1  0
 23 24  2  0
 23 25  1  0
 15  2  1  0
 25 18  1  0
 10  5  2  0
  1 26  1  0
  1 27  1  0
  4 28  1  0
 12 29  1  0
 14 30  1  0
 14 31  1  0
 14 32  1  0
 19 33  1  0
 19 34  1  0
 20 35  1  0
 20 36  1  0
 22 37  1  0
 22 38  1  0
 22 39  1  0
 25 40  1  0
 25 41  1  0
M  CHG  3   6  -1   9  -1  11  -1
M  END
>  <UniqueID>  (77) 
75

>  <SMILES>  (77) 
C=c1c(=Cc2[n-]c(=O)[n-]c2[O-])cc(C)n1C(=O)N1CCN(C)C(=O)C1

>  <Energy>  (77) 
115.42538222047175

>  <Genealogy>  (77) 
C=c1c(=Cc2[n-]c(=O)[n-]c2[O-])cc(C)n1C(=O)N1CCN(C)C(=O)C1 (protonated)
C=c1c(=Cc2[n-]c(=O)[n-]c2[O-])cc(C)n1C(=O)N1CCN(C)C(=O)C1 (3D coordinates assigned)
C=c1c(=Cc2[n-]c(=O)[n-]c2[O-])cc(C)n1C(=O)N1CCN(C)C(=O)C1 (nonaromatic ring conformer: 115.42538222047175 kcal/mol)

>  <smiles>  (77) 
C=c1c(=Cc2[nH]c(=O)[nH]c2O)cc(C)n1C(=O)N1CCN(C)C(=O)C1

>  <score_type>  (77) 
oracle

>  <origin>  (77) 
adg

>  <m_score__min__energy>  (77) 
-15.81

>  <m_primary>  (77) 
energy

$$$$
77:0
     RDKit          3D

 53 55  0  0  1  0  0  0  0  0999 V2000
   59.0840   24.0400   45.7450 C   0  0  0  0  0  0  0  0  0  0  0  0
   57.9790   25.0360   45.7240 C   0  0  0  0  0  0  0  0  0  0  0  0
   56.7030   24.5720   45.9730 C   0  0  0  0  0  0  0  0  0  0  0  0
   55.6780   25.5140   45.9450 C   0  0  0  0  0  0  0  0  0  0  0  0
   55.9410   26.8170   45.6830 N   0  0  0  0  0  0  0  0  0  0  0  0
   57.1810   27.2310   45.4470 C   0  0  0  0  0  0  0  0  0  0  0  0
   57.3720   28.4630   45.2230 N   0  0  0  0  0  0  0  0  0  0  0  0
   56.5050   29.4370   44.7270 C   0  0  0  0  0  0  0  0  0  0  0  0
   55.2120   29.3850   44.7910 O   0  0  0  0  0  0  0  0  0  0  0  0
   56.9760   30.6510   44.0680 C   0  0  0  0  0  0  0  0  0  0  0  0
   56.9660   30.6270   42.6730 C   0  0  0  0  0  0  0  0  0  0  0  0
   57.4410   31.6840   41.9540 C   0  0  0  0  0  0  0  0  0  0  0  0
   57.9330   32.7740   42.6360 C   0  0  0  0  0  0  0  0  0  0  0  0
   57.9630   32.8380   44.0240 C   0  0  0  0  0  0  0  0  0  0  0  0
   58.5620   34.0360   44.6130 C   0  0  0  0  0  0  0  0  0  0  0  0
   59.1110   33.9200   45.9150 N   0  0  0  0  0  0  0  0  0  0  0  0
   59.8590   34.9490   46.6080 C   0  0  0  0  0  0  0  0  0  0  0  0
   60.0160   36.0100   45.9840 O   0  0  0  0  0  0  0  0  0  0  0  0
   60.3240   34.5920   47.9620 C   0  0  0  0  0  0  0  0  0  0  0  0
   61.4130   33.6340   48.0770 C   0  0  0  0  0  0  0  0  0  0  0  0
   62.6870   34.2060   48.3080 C   0  0  0  0  0  0  0  0  0  0  0  0
   63.8160   33.4330   48.4020 C   0  0  0  0  0  0  0  0  0  0  0  0
   63.7530   32.0640   48.2750 C   0  0  0  0  0  0  0  0  0  0  0  0
   62.5070   31.5110   48.0500 C   0  0  0  0  0  0  0  0  0  0  0  0
   61.3470   32.2740   47.9520 C   0  0  0  0  0  0  0  0  0  0  0  0
   59.8430   31.4400   47.7420 S   0  0  0  0  0  0  0  0  0  0  0  0
   59.8440   29.9700   48.7820 C   0  0  0  0  0  0  0  0  0  0  0  0
   59.6000   30.9170   46.3540 O   0  0  0  0  0  0  0  0  0  0  0  0
   58.6470   32.2470   48.2180 O   0  0  0  0  0  0  0  0  0  0  0  0
   57.4740   31.7600   44.7390 C   0  0  0  0  0  0  0  0  0  0  0  0
   58.1780   26.3540   45.4670 N   0  0  0  0  0  0  0  0  0  0  0  0
   59.3455   23.8043   46.7872 H   0  0  0  0  0  0  0  0  0  0  0  0
   58.7604   23.1225   45.2317 H   0  0  0  0  0  0  0  0  0  0  0  0
   59.9631   24.4568   45.2317 H   0  0  0  0  0  0  0  0  0  0  0  0
   56.5057   23.5104   46.1832 H   0  0  0  0  0  0  0  0  0  0  0  0
   54.6426   25.1966   46.1379 H   0  0  0  0  0  0  0  0  0  0  0  0
   55.1450   27.4500   45.6810 H   0  0  0  0  0  0  0  0  0  0  0  0
   56.5705   29.7455   42.1472 H   0  0  0  0  0  0  0  0  0  0  0  0
   57.4312   31.6661   40.8542 H   0  0  0  0  0  0  0  0  0  0  0  0
   58.3176   33.6282   42.0595 H   0  0  0  0  0  0  0  0  0  0  0  0
   59.3700   34.3642   43.9426 H   0  0  0  0  0  0  0  0  0  0  0  0
   57.7261   34.7426   44.7229 H   0  0  0  0  0  0  0  0  0  0  0  0
   58.9450   32.9730   46.4070 H   0  0  0  0  0  0  0  0  0  0  0  0
   60.6518   35.5210   48.4514 H   0  0  0  0  0  0  0  0  0  0  0  0
   59.4631   34.0881   48.4255 H   0  0  0  0  0  0  0  0  0  0  0  0
   62.7737   35.2974   48.4147 H   0  0  0  0  0  0  0  0  0  0  0  0
   64.7881   33.9152   48.5819 H   0  0  0  0  0  0  0  0  0  0  0  0
   64.6545   31.4380   48.3493 H   0  0  0  0  0  0  0  0  0  0  0  0
   62.4282   30.4190   47.9436 H   0  0  0  0  0  0  0  0  0  0  0  0
   59.8438   30.2697   49.8404 H   0  0  0  0  0  0  0  0  0  0  0  0
   58.9463   29.3706   48.5705 H   0  0  0  0  0  0  0  0  0  0  0  0
   60.7426   29.3718   48.5705 H   0  0  0  0  0  0  0  0  0  0  0  0
   57.4795   31.7811   45.8388 H   0  0  0  0  0  0  0  0  0  0  0  0
  1  2  1  0
  2  3  1  0
  3  4  2  0
  4  5  1  0
  5  6  1  0
  6  7  2  0
  7  8  1  0
  8  9  2  0
  8 10  1  0
 10 11  2  0
 11 12  1  0
 12 13  2  0
 13 14  1  0
 14 15  1  0
 15 16  1  0
 16 17  1  0
 17 18  2  0
 17 19  1  0
 19 20  1  0
 20 21  2  0
 21 22  1  0
 22 23  2  0
 23 24  1  0
 24 25  2  0
 25 26  1  0
 26 27  1  0
 26 28  2  0
 26 29  2  0
 14 30  2  0
  6 31  1  0
 31  2  2  0
 30 10  1  0
 25 20  1  0
  1 32  1  0
  1 33  1  0
  1 34  1  0
  3 35  1  0
  4 36  1  0
  5 37  1  0
 11 38  1  0
 12 39  1  0
 13 40  1  0
 15 41  1  0
 15 42  1  0
 16 43  1  0
 19 44  1  0
 19 45  1  0
 21 46  1  0
 22 47  1  0
 23 48  1  0
 24 49  1  0
 27 50  1  0
 27 51  1  0
 27 52  1  0
 30 53  1  0
M  END
>  <smiles>  (78) 
Cc1cc[nH]c(=NC(=O)c2cccc(CNC(=O)Cc3ccccc3S(C)(=O)=O)c2)n1

>  <score_type>  (78) 
oracle

>  <origin>  (78) 
adg

>  <m_score__min__energy>  (78) 
-10.720000000000001

>  <m_primary>  (78) 
energy

$$$$
78:0
     RDKit          3D

 41 42  0  0  0  0  0  0  0  0999 V2000
   59.5151   31.3894   47.5278 H   0  0  0  0  0  0  0  0  0  0  0  0
   59.0020   31.8860   46.6910 C   0  0  0  0  0  0  0  0  0  0  0  0
   57.9490   31.2750   46.0860 N   0  0  0  0  0  0  0  0  0  0  0  0
   57.2730   31.8490   45.0530 C   0  0  0  0  0  0  0  0  0  0  0  0
   56.2780   31.2430   44.4690 N   0  0  0  0  0  0  0  0  0  0  0  0
   56.0630   29.8280   44.3300 C   0  0  0  0  0  0  0  0  0  0  0  0
   54.9050   29.3790   44.5490 O   0  0  0  0  0  0  0  0  0  0  0  0
   57.1660   28.8750   43.9420 C   0  0  0  0  0  0  0  0  0  0  0  0
   56.7693   28.1479   43.2182 H   0  0  0  0  0  0  0  0  0  0  0  0
   57.9862   29.4633   43.5048 H   0  0  0  0  0  0  0  0  0  0  0  0
   57.7110   28.1280   45.1350 C   0  0  0  0  0  0  0  0  0  0  0  0
   59.0810   28.2060   45.4460 C   0  0  0  0  0  0  0  0  0  0  0  0
   59.7475   28.8281   44.8305 H   0  0  0  0  0  0  0  0  0  0  0  0
   59.5990   27.4970   46.5330 C   0  0  0  0  0  0  0  0  0  0  0  0
   60.6697   27.5683   46.7749 H   0  0  0  0  0  0  0  0  0  0  0  0
   58.7600   26.6980   47.3130 C   0  0  0  0  0  0  0  0  0  0  0  0
   59.1700   26.1431   48.1698 H   0  0  0  0  0  0  0  0  0  0  0  0
   57.4010   26.6030   47.0060 C   0  0  0  0  0  0  0  0  0  0  0  0
   56.7427   25.9716   47.6208 H   0  0  0  0  0  0  0  0  0  0  0  0
   56.8740   27.3090   45.9180 C   0  0  0  0  0  0  0  0  0  0  0  0
   55.5200   27.1900   45.6210 O   0  0  0  0  0  0  0  0  0  0  0  0
   57.6770   33.1030   44.5840 C   0  0  0  0  0  0  0  0  0  0  0  0
   57.1477   33.5749   43.7431 H   0  0  0  0  0  0  0  0  0  0  0  0
   58.7540   33.7530   45.1870 C   0  0  0  0  0  0  0  0  0  0  0  0
   59.0690   34.7433   44.8264 H   0  0  0  0  0  0  0  0  0  0  0  0
   59.4380   33.1450   46.2550 C   0  0  0  0  0  0  0  0  0  0  0  0
   60.5540   33.7740   46.9140 N   0  0  0  0  0  0  0  0  0  0  0  0
   60.3870   34.2390   47.8360 H   0  0  0  0  0  0  0  0  0  0  0  0
   61.9230   33.7970   46.3970 C   0  0  0  0  0  0  0  0  0  0  0  0
   62.3427   34.8033   46.5427 H   0  0  0  0  0  0  0  0  0  0  0  0
   61.8917   33.5350   45.3291 H   0  0  0  0  0  0  0  0  0  0  0  0
   62.8180   32.7740   47.1170 C   0  0  0  0  0  0  0  0  0  0  0  0
   63.3486   32.1813   46.3572 H   0  0  0  0  0  0  0  0  0  0  0  0
   62.1593   32.1572   47.7460 H   0  0  0  0  0  0  0  0  0  0  0  0
   63.8610   33.4130   48.0500 C   0  0  0  0  0  0  0  0  0  0  0  0
   63.4827   34.3910   48.3823 H   0  0  0  0  0  0  0  0  0  0  0  0
   64.7982   33.5091   47.4821 H   0  0  0  0  0  0  0  0  0  0  0  0
   64.1560   32.5590   49.2830 C   0  0  0  0  0  0  0  0  0  0  0  0
   63.9536   33.1448   50.1918 H   0  0  0  0  0  0  0  0  0  0  0  0
   63.5144   31.6656   49.2723 H   0  0  0  0  0  0  0  0  0  0  0  0
   65.2122   32.2520   49.2723 H   0  0  0  0  0  0  0  0  0  0  0  0
  1  2  1  0
  2  3  1  0
  3  4  1  0
  4  5  2  0
  5  6  1  0
  6  7  2  0
  6  8  1  0
  8  9  1  0
  8 10  1  0
  8 11  1  0
 11 12  2  0
 12 13  1  0
 12 14  1  0
 14 15  1  0
 14 16  2  0
 16 17  1  0
 16 18  1  0
 18 19  1  0
 18 20  2  0
 20 21  1  0
  4 22  1  0
 22 23  1  0
 22 24  2  0
 24 25  1  0
 24 26  1  0
 26 27  1  0
 27 28  1  0
 27 29  1  0
 29 30  1  0
 29 31  1  0
 29 32  1  0
 32 33  1  0
 32 34  1  0
 32 35  1  0
 35 36  1  0
 35 37  1  0
 35 38  1  0
 38 39  1  0
 38 40  1  0
 38 41  1  0
 26  2  2  0
 20 11  1  0
M  CHG  2   3  -1  21  -1
M  END
>  <UniqueID>  (79) 
76

>  <SMILES>  (79) 
CCCCNc1cc/c(=N/C(=O)Cc2ccccc2[O-])[n-]c1

>  <Energy>  (79) 
41.088904660083344

>  <Genealogy>  (79) 
CCCCNc1ccc(=NC(=O)Cc2ccccc2[O-])[n-]c1 (protonated)
CCCCNc1cc/c(=N/C(=O)Cc2ccccc2[O-])[n-]c1 (cis-trans isomerization)
CCCCNc1cc/c(=N/C(=O)Cc2ccccc2[O-])[n-]c1 (3D coordinates assigned)
CCCCNc1cc/c(=N/C(=O)Cc2ccccc2[O-])[n-]c1 (optimized conformer: 41.088904660083344 kcal/mol)

>  <smiles>  (79) 
CCCCNc1ccc(=NC(=O)Cc2ccccc2O)[nH]c1

>  <score_type>  (79) 
oracle

>  <origin>  (79) 
adg

>  <m_score__min__energy>  (79) 
-12.68

>  <m_primary>  (79) 
energy

$$$$
79:0
     RDKit          3D

 34 36  0  0  0  0  0  0  0  0999 V2000
   55.7941   31.1838   43.5802 H   0  0  0  0  0  0  0  0  0  0  0  0
   55.4910   30.2410   44.0590 C   0  0  0  0  0  0  0  0  0  0  0  0
   54.4317   29.9447   44.0686 H   0  0  0  0  0  0  0  0  0  0  0  0
   56.4080   29.4570   44.6280 C   0  0  0  0  0  0  0  0  0  0  0  0
   57.7730   29.7060   44.7110 C   0  0  0  0  0  0  0  0  0  0  0  0
   58.5270   30.9220   44.2530 C   0  0  0  0  0  0  0  0  0  0  0  0
   59.4663   30.6072   43.7749 H   0  0  0  0  0  0  0  0  0  0  0  0
   57.9054   31.4779   43.5356 H   0  0  0  0  0  0  0  0  0  0  0  0
   58.8410   31.8160   45.4220 C   0  0  0  0  0  0  0  0  0  0  0  0
   59.7600   31.4130   46.4050 C   0  0  0  0  0  0  0  0  0  0  0  0
   60.2401   30.4259   46.3340 H   0  0  0  0  0  0  0  0  0  0  0  0
   60.0670   32.2610   47.4730 C   0  0  0  0  0  0  0  0  0  0  0  0
   60.7852   31.9382   48.2412 H   0  0  0  0  0  0  0  0  0  0  0  0
   59.4630   33.5190   47.5670 C   0  0  0  0  0  0  0  0  0  0  0  0
   59.8510   34.5830   48.9070 Cl  0  0  0  0  0  0  0  0  0  0  0  0
   58.5500   33.9290   46.5910 C   0  0  0  0  0  0  0  0  0  0  0  0
   58.0746   34.9182   46.6649 H   0  0  0  0  0  0  0  0  0  0  0  0
   58.2400   33.0840   45.5210 C   0  0  0  0  0  0  0  0  0  0  0  0
   57.5234   33.4120   44.7536 H   0  0  0  0  0  0  0  0  0  0  0  0
   58.3190   28.6500   45.4170 C   0  0  0  0  0  0  0  0  0  0  0  0
   59.3758   28.5183   45.6924 H   0  0  0  0  0  0  0  0  0  0  0  0
   57.2730   27.7910   45.7090 C   0  0  0  0  0  0  0  0  0  0  0  0
   57.4040   26.6590   46.4150 C   0  0  0  0  0  0  0  0  0  0  0  0
   58.1017   26.6613   47.2655 H   0  0  0  0  0  0  0  0  0  0  0  0
   56.6740   25.4110   46.1260 C   0  0  0  0  0  0  0  0  0  0  0  0
   55.3140   25.2900   45.9550 C   0  0  0  0  0  0  0  0  0  0  0  0
   54.4040   26.3400   45.9350 O   0  0  0  0  0  0  0  0  0  0  0  0
   54.9670   23.9970   45.8120 N   0  0  0  0  0  0  0  0  0  0  0  0
   56.1500   23.3560   45.9230 C   0  0  0  0  0  0  0  0  0  0  0  0
   56.2570   22.1040   45.8610 O   0  0  0  0  0  0  0  0  0  0  0  0
   57.2030   24.1740   46.1220 N   0  0  0  0  0  0  0  0  0  0  0  0
   58.1930   23.8930   46.2990 H   0  0  0  0  0  0  0  0  0  0  0  0
   56.1100   28.2900   45.2320 N   0  0  0  0  0  0  0  0  0  0  0  0
   55.1500   27.8980   45.3570 H   0  0  0  0  0  0  0  0  0  0  0  0
  1  2  1  0
  2  3  1  0
  2  4  2  0
  4  5  1  0
  5  6  1  0
  6  7  1  0
  6  8  1  0
  6  9  1  0
  9 10  2  0
 10 11  1  0
 10 12  1  0
 12 13  1  0
 12 14  2  0
 14 15  1  0
 14 16  1  0
 16 17  1  0
 16 18  2  0
 18 19  1  0
  5 20  2  0
 20 21  1  0
 20 22  1  0
 22 23  2  0
 23 24  1  0
 23 25  1  0
 25 26  2  0
 26 27  1  0
 26 28  1  0
 28 29  1  0
 29 30  2  0
 29 31  1  0
 31 32  1  0
 22 33  1  0
 33 34  1  0
 33  4  1  0
 18  9  1  0
 31 25  1  0
M  CHG  2  27  -1  28  -1
M  END
>  <UniqueID>  (80) 
77

>  <SMILES>  (80) 
C=c1[nH]/c(=C\c2[nH]c(=O)[n-]c2[O-])cc1Cc1ccc(Cl)cc1

>  <Energy>  (80) 
96.19898611228705

>  <Genealogy>  (80) 
C=c1[nH]c(=Cc2[nH]c(=O)[n-]c2[O-])cc1Cc1ccc(Cl)cc1 (protonated)
C=c1[nH]/c(=C\c2[nH]c(=O)[n-]c2[O-])cc1Cc1ccc(Cl)cc1 (cis-trans isomerization)
C=c1[nH]/c(=C\c2[nH]c(=O)[n-]c2[O-])cc1Cc1ccc(Cl)cc1 (3D coordinates assigned)
C=c1[nH]/c(=C\c2[nH]c(=O)[n-]c2[O-])cc1Cc1ccc(Cl)cc1 (optimized conformer: 96.19898611228705 kcal/mol)

>  <smiles>  (80) 
C=c1[nH]c(=Cc2[nH]c(=O)[nH]c2O)cc1Cc1ccc(Cl)cc1

>  <score_type>  (80) 
oracle

>  <origin>  (80) 
adg

>  <m_score__min__energy>  (80) 
-13.92

>  <m_primary>  (80) 
energy

$$$$
80:0
     RDKit          3D

 56 58  0  0  0  0  0  0  0  0999 V2000
   60.5680   28.2590   45.3910 C   0  0  0  0  0  0  0  0  0  0  0  0
   60.2860   27.1280   46.3740 C   0  0  0  0  0  0  0  0  0  0  0  0
   60.3760   27.5970   47.7180 O   0  0  0  0  0  0  0  0  0  0  0  0
   59.4570   28.4850   48.2910 C   0  0  0  0  0  0  0  0  0  0  0  0
   58.2490   28.4650   47.9270 O   0  0  0  0  0  0  0  0  0  0  0  0
   59.8950   29.4100   49.3040 N   0  0  0  0  0  0  0  0  0  0  0  0
   61.2730   29.3070   49.8080 C   0  0  0  0  0  0  0  0  0  0  0  0
   61.5240   30.2770   50.9650 C   0  0  0  0  0  0  0  0  0  0  0  0
   61.0000   31.6060   50.6240 N   0  0  0  0  0  0  0  0  0  0  0  0
   61.7480   32.8010   50.9260 C   0  0  0  0  0  0  0  0  0  0  0  0
   61.1320   33.8450   51.2720 O   0  0  0  0  0  0  0  0  0  0  0  0
   63.2220   32.8430   50.7750 C   0  0  0  0  0  0  0  0  0  0  0  0
   64.0090   33.2170   51.8750 C   0  0  0  0  0  0  0  0  0  0  0  0
   65.3980   33.2720   51.7620 C   0  0  0  0  0  0  0  0  0  0  0  0
   65.9960   32.9530   50.5440 C   0  0  0  0  0  0  0  0  0  0  0  0
   65.2300   32.5840   49.4860 N   0  0  0  0  0  0  0  0  0  0  0  0
   63.8730   32.5080   49.5650 C   0  0  0  0  0  0  0  0  0  0  0  0
   62.9670   32.0270   48.0880 S   0  0  0  0  0  0  0  0  0  0  0  0
   62.0730   33.6160   47.9200 C   0  0  0  0  0  0  0  0  0  0  0  0
   61.1050   33.5980   46.7660 C   0  0  0  0  0  0  0  0  0  0  0  0
   61.5280   33.8400   45.6040 O   0  0  0  0  0  0  0  0  0  0  0  0
   59.6890   33.4930   46.9720 N   0  0  0  0  0  0  0  0  0  0  0  0
   58.7940   32.6060   46.2890 C   0  0  0  0  0  0  0  0  0  0  0  0
   57.8530   33.1370   45.4000 C   0  0  0  0  0  0  0  0  0  0  0  0
   56.9910   32.2910   44.6950 C   0  0  0  0  0  0  0  0  0  0  0  0
   57.0710   30.8960   44.8520 C   0  0  0  0  0  0  0  0  0  0  0  0
   56.1570   30.0010   44.1050 C   0  0  0  0  0  0  0  0  0  0  0  0
   55.3200   29.0770   44.7980 N   0  0  0  0  0  0  0  0  0  0  0  0
   56.1080   30.0480   42.8470 O   0  0  0  0  0  0  0  0  0  0  0  0
   58.0400   30.3660   45.7230 C   0  0  0  0  0  0  0  0  0  0  0  0
   58.9000   31.2140   46.4250 C   0  0  0  0  0  0  0  0  0  0  0  0
   59.6370   31.7360   50.0890 C   0  0  0  0  0  0  0  0  0  0  0  0
   58.9590   30.3720   49.9060 C   0  0  0  0  0  0  0  0  0  0  0  0
   60.7976   29.1797   45.9474 H   0  0  0  0  0  0  0  0  0  0  0  0
   61.4264   27.9893   44.7582 H   0  0  0  0  0  0  0  0  0  0  0  0
   59.6835   28.4239   44.7582 H   0  0  0  0  0  0  0  0  0  0  0  0
   59.2736   26.7371   46.1945 H   0  0  0  0  0  0  0  0  0  0  0  0
   61.0325   26.3340   46.2247 H   0  0  0  0  0  0  0  0  0  0  0  0
   61.4487   28.2795   50.1592 H   0  0  0  0  0  0  0  0  0  0  0  0
   61.9593   29.5648   48.9880 H   0  0  0  0  0  0  0  0  0  0  0  0
   61.0181   29.9060   51.8686 H   0  0  0  0  0  0  0  0  0  0  0  0
   62.6061   30.3500   51.1489 H   0  0  0  0  0  0  0  0  0  0  0  0
   63.5277   33.4682   52.8317 H   0  0  0  0  0  0  0  0  0  0  0  0
   66.0149   33.5639   52.6247 H   0  0  0  0  0  0  0  0  0  0  0  0
   67.0901   33.0004   50.4401 H   0  0  0  0  0  0  0  0  0  0  0  0
   61.5157   33.8101   48.8483 H   0  0  0  0  0  0  0  0  0  0  0  0
   62.8149   34.4055   47.7296 H   0  0  0  0  0  0  0  0  0  0  0  0
   57.7909   34.2256   45.2549 H   0  0  0  0  0  0  0  0  0  0  0  0
   56.2438   32.7207   44.0116 H   0  0  0  0  0  0  0  0  0  0  0  0
   54.4360   29.3920   45.2570 H   0  0  0  0  0  0  0  0  0  0  0  0
   58.1211   29.2766   45.8522 H   0  0  0  0  0  0  0  0  0  0  0  0
   59.6658   30.7870   47.0892 H   0  0  0  0  0  0  0  0  0  0  0  0
   59.0378   32.3397   50.7865 H   0  0  0  0  0  0  0  0  0  0  0  0
   59.7038   32.2174   49.1022 H   0  0  0  0  0  0  0  0  0  0  0  0
   58.6328   29.9951   50.8866 H   0  0  0  0  0  0  0  0  0  0  0  0
   58.0923   30.4912   49.2391 H   0  0  0  0  0  0  0  0  0  0  0  0
  1  2  1  0
  2  3  1  0
  3  4  1  0
  4  5  2  0
  4  6  1  0
  6  7  1  0
  7  8  1  0
  8  9  1  0
  9 10  1  0
 10 11  2  0
 10 12  1  0
 12 13  2  0
 13 14  1  0
 14 15  2  0
 15 16  1  0
 16 17  2  0
 17 18  1  0
 18 19  1  0
 19 20  1  0
 20 21  2  0
 20 22  1  0
 22 23  1  0
 23 24  2  0
 24 25  1  0
 25 26  2  0
 26 27  1  0
 27 28  1  0
 27 29  2  0
 26 30  1  0
 30 31  2  0
  9 32  1  0
 32 33  1  0
 33  6  1  0
 17 12  1  0
 31 23  1  0
  1 34  1  0
  1 35  1  0
  1 36  1  0
  2 37  1  0
  2 38  1  0
  7 39  1  0
  7 40  1  0
  8 41  1  0
  8 42  1  0
 13 43  1  0
 14 44  1  0
 15 45  1  0
 19 46  1  0
 19 47  1  0
 24 48  1  0
 25 49  1  0
 28 50  1  0
 30 51  1  0
 31 52  1  0
 32 53  1  0
 32 54  1  0
 33 55  1  0
 33 56  1  0
M  CHG  2  22  -1  28  -1
M  END
>  <UniqueID>  (81) 
78

>  <SMILES>  (81) 
CCOC(=O)N1CCN(C(=O)c2cccnc2SCC(=O)[N-]c2ccc(C([NH-])=O)cc2)CC1

>  <Energy>  (81) 
60.66712321693031

>  <Genealogy>  (81) 
CCOC(=O)N1CCN(C(=O)c2cccnc2SCC(=O)[N-]c2ccc(C([NH-])=O)cc2)CC1 (protonated)
CCOC(=O)N1CCN(C(=O)c2cccnc2SCC(=O)[N-]c2ccc(C([NH-])=O)cc2)CC1 (3D coordinates assigned)
CCOC(=O)N1CCN(C(=O)c2cccnc2SCC(=O)[N-]c2ccc(C([NH-])=O)cc2)CC1 (nonaromatic ring conformer: 60.66712321693031 kcal/mol)

>  <smiles>  (81) 
CCOC(=O)N1CCN(C(=O)c2cccnc2SCC(=O)Nc2ccc(C(N)=O)cc2)CC1

>  <score_type>  (81) 
oracle

>  <origin>  (81) 
adg

>  <m_score__min__energy>  (81) 
-12.35

>  <m_primary>  (81) 
energy

$$$$
81:0
     RDKit          3D

 47 50  0  0  0  0  0  0  0  0999 V2000
   65.4460   32.7120   50.3080 O   0  0  0  0  0  0  0  0  0  0  0  0
   64.3310   33.0320   49.8190 C   0  0  0  0  0  0  0  0  0  0  0  0
   63.2150   33.2530   50.6700 N   0  0  0  0  0  0  0  0  0  0  0  0
   61.9240   33.5450   50.1290 C   0  0  0  0  0  0  0  0  0  0  0  0
   61.0080   33.8950   50.9200 O   0  0  0  0  0  0  0  0  0  0  0  0
   61.6320   33.3790   48.6380 C   0  0  0  0  0  0  0  0  0  0  0  0
   60.7090   34.4620   48.2260 N   0  0  0  0  0  0  0  0  0  0  0  0
   59.6870   34.4060   47.2020 C   0  0  0  0  0  0  0  0  0  0  0  0
   58.4360   33.7840   47.4020 C   0  0  0  0  0  0  0  0  0  0  0  0
   57.4860   33.7540   46.3760 C   0  0  0  0  0  0  0  0  0  0  0  0
   57.7650   34.3470   45.1440 C   0  0  0  0  0  0  0  0  0  0  0  0
   58.9950   34.9740   44.9350 C   0  0  0  0  0  0  0  0  0  0  0  0
   59.9470   35.0050   45.9570 C   0  0  0  0  0  0  0  0  0  0  0  0
   61.0620   31.9950   48.2980 C   0  0  0  0  0  0  0  0  0  0  0  0
   61.4700   31.3410   47.1170 C   0  0  0  0  0  0  0  0  0  0  0  0
   60.9950   30.0670   46.8010 C   0  0  0  0  0  0  0  0  0  0  0  0
   60.1260   29.3970   47.6660 C   0  0  0  0  0  0  0  0  0  0  0  0
   59.6840   28.1140   47.3010 O   0  0  0  0  0  0  0  0  0  0  0  0
   59.1410   27.7600   46.0290 C   0  0  0  0  0  0  0  0  0  0  0  0
   58.0790   26.7020   46.1750 C   0  0  0  0  0  0  0  0  0  0  0  0
   58.4400   25.3830   46.4960 C   0  0  0  0  0  0  0  0  0  0  0  0
   57.4580   24.3950   46.6250 C   0  0  0  0  0  0  0  0  0  0  0  0
   57.8210   23.0940   46.9500 O   0  0  0  0  0  0  0  0  0  0  0  0
   56.1120   24.7160   46.4260 C   0  0  0  0  0  0  0  0  0  0  0  0
   55.7460   26.0240   46.0940 C   0  0  0  0  0  0  0  0  0  0  0  0
   54.4080   26.3410   45.8930 O   0  0  0  0  0  0  0  0  0  0  0  0
   56.7250   27.0140   45.9640 C   0  0  0  0  0  0  0  0  0  0  0  0
   59.7330   30.0240   48.8610 C   0  0  0  0  0  0  0  0  0  0  0  0
   60.2060   31.3000   49.1800 C   0  0  0  0  0  0  0  0  0  0  0  0
   62.9210   33.5050   47.8350 C   0  0  0  0  0  0  0  0  0  0  0  0
   62.8680   33.7920   46.6090 O   0  0  0  0  0  0  0  0  0  0  0  0
   64.1930   33.2110   48.4140 N   0  0  0  0  0  0  0  0  0  0  0  0
   60.7310   35.3390   48.7980 H   0  0  0  0  0  0  0  0  0  0  0  0
   58.2064   33.3193   48.3722 H   0  0  0  0  0  0  0  0  0  0  0  0
   56.5162   33.2616   46.5406 H   0  0  0  0  0  0  0  0  0  0  0  0
   57.0166   34.3205   44.3382 H   0  0  0  0  0  0  0  0  0  0  0  0
   59.2146   35.4439   43.9649 H   0  0  0  0  0  0  0  0  0  0  0  0
   60.9120   35.5043   45.7854 H   0  0  0  0  0  0  0  0  0  0  0  0
   62.1727   31.8421   46.4350 H   0  0  0  0  0  0  0  0  0  0  0  0
   61.3077   29.5861   45.8624 H   0  0  0  0  0  0  0  0  0  0  0  0
   58.6981   28.6536   45.5649 H   0  0  0  0  0  0  0  0  0  0  0  0
   59.9503   27.3619   45.3993 H   0  0  0  0  0  0  0  0  0  0  0  0
   59.4989   25.1260   46.6465 H   0  0  0  0  0  0  0  0  0  0  0  0
   55.3404   23.9391   46.5307 H   0  0  0  0  0  0  0  0  0  0  0  0
   56.4344   28.0404   45.6957 H   0  0  0  0  0  0  0  0  0  0  0  0
   59.0486   29.5070   49.5498 H   0  0  0  0  0  0  0  0  0  0  0  0
   59.9078   31.7684   50.1296 H   0  0  0  0  0  0  0  0  0  0  0  0
  1  2  2  0
  2  3  1  0
  3  4  1  0
  4  5  2  0
  4  6  1  0
  6  7  1  0
  7  8  1  0
  8  9  2  0
  9 10  1  0
 10 11  2  0
 11 12  1  0
 12 13  2  0
  6 14  1  0
 14 15  2  0
 15 16  1  0
 16 17  2  0
 17 18  1  0
 18 19  1  0
 19 20  1  0
 20 21  2  0
 21 22  1  0
 22 23  1  0
 22 24  2  0
 24 25  1  0
 25 26  1  0
 25 27  2  0
 17 28  1  0
 28 29  2  0
  6 30  1  0
 30 31  2  0
 30 32  1  0
 32  2  1  0
 13  8  1  0
 29 14  1  0
 27 20  1  0
  7 33  1  0
  9 34  1  0
 10 35  1  0
 11 36  1  0
 12 37  1  0
 13 38  1  0
 15 39  1  0
 16 40  1  0
 19 41  1  0
 19 42  1  0
 21 43  1  0
 24 44  1  0
 27 45  1  0
 28 46  1  0
 29 47  1  0
M  CHG  4   3  -1  23  -1  26  -1  32  -1
M  END
>  <UniqueID>  (82) 
79

>  <SMILES>  (82) 
O=C1[N-]C(=O)C(Nc2ccccc2)(c2ccc(OCc3cc([O-])cc([O-])c3)cc2)C(=O)[N-]1

>  <Energy>  (82) 
60.549068247575605

>  <Genealogy>  (82) 
O=C1[N-]C(=O)C(Nc2ccccc2)(c2ccc(OCc3cc([O-])cc([O-])c3)cc2)C(=O)[N-]1 (protonated)
O=C1[N-]C(=O)C(Nc2ccccc2)(c2ccc(OCc3cc([O-])cc([O-])c3)cc2)C(=O)[N-]1 (3D coordinates assigned)
O=C1[N-]C(=O)C(Nc2ccccc2)(c2ccc(OCc3cc([O-])cc([O-])c3)cc2)C(=O)[N-]1 (nonaromatic ring conformer: 60.549068247575605 kcal/mol)

>  <smiles>  (82) 
O=C1NC(=O)C(Nc2ccccc2)(c2ccc(OCc3cc(O)cc(O)c3)cc2)C(=O)N1

>  <score_type>  (82) 
oracle

>  <origin>  (82) 
adg

>  <m_score__min__energy>  (82) 
-16.120000000000001

>  <m_primary>  (82) 
energy

$$$$
82:0
     RDKit          3D

 50 53  0  0  0  0  0  0  0  0999 V2000
   58.8740   28.4370   45.0280 O   0  0  0  0  0  0  0  0  0  0  0  0
   57.8680   28.6990   45.7400 C   0  0  0  0  0  0  0  0  0  0  0  0
   57.4230   27.7250   46.7820 C   0  0  0  0  0  0  0  0  0  0  0  0
   57.1990   26.4160   46.1720 N   0  0  0  0  0  0  0  0  0  0  0  0
   56.0120   25.8900   45.7940 C   0  0  0  0  0  0  0  0  0  0  0  0
   54.7820   26.5090   45.9950 O   0  0  0  0  0  0  0  0  0  0  0  0
   56.2020   24.6710   45.1760 C   0  0  0  0  0  0  0  0  0  0  0  0
   57.5560   24.4470   45.1590 C   0  0  0  0  0  0  0  0  0  0  0  0
   58.1450   25.5400   45.7700 C   0  0  0  0  0  0  0  0  0  0  0  0
   59.5130   25.7400   45.9440 O   0  0  0  0  0  0  0  0  0  0  0  0
   58.1980   23.2440   44.5470 C   0  0  0  0  0  0  0  0  0  0  0  0
   57.1690   22.2710   44.0080 C   0  0  0  0  0  0  0  0  0  0  0  0
   55.8340   22.4900   44.0280 C   0  0  0  0  0  0  0  0  0  0  0  0
   55.1880   23.7450   44.5860 C   0  0  0  0  0  0  0  0  0  0  0  0
   57.1420   29.9230   45.5660 N   0  0  0  0  0  0  0  0  0  0  0  0
   57.3350   30.8810   44.5110 C   0  0  0  0  0  0  0  0  0  0  0  0
   57.0490   30.5480   43.1730 C   0  0  0  0  0  0  0  0  0  0  0  0
   57.2900   31.4660   42.1500 C   0  0  0  0  0  0  0  0  0  0  0  0
   57.8320   32.7180   42.4450 C   0  0  0  0  0  0  0  0  0  0  0  0
   58.1390   33.0550   43.7640 C   0  0  0  0  0  0  0  0  0  0  0  0
   57.9100   32.1380   44.8060 C   0  0  0  0  0  0  0  0  0  0  0  0
   58.2320   32.5250   46.1990 C   0  0  0  0  0  0  0  0  0  0  0  0
   57.3780   33.1650   46.8690 O   0  0  0  0  0  0  0  0  0  0  0  0
   59.5000   32.1920   46.8010 N   0  0  0  0  0  0  0  0  0  0  0  0
   60.2570   31.0060   46.3860 C   0  0  0  0  0  0  0  0  0  0  0  0
   60.9260   30.3730   47.6100 C   0  0  0  0  0  0  0  0  0  0  0  0
   61.6810   31.3350   48.3260 O   0  0  0  0  0  0  0  0  0  0  0  0
   60.8170   32.3190   48.8630 C   0  0  0  0  0  0  0  0  0  0  0  0
   60.1390   33.1160   47.7440 C   0  0  0  0  0  0  0  0  0  0  0  0
   58.1991   27.6389   47.5568 H   0  0  0  0  0  0  0  0  0  0  0  0
   56.4855   28.0802   47.2347 H   0  0  0  0  0  0  0  0  0  0  0  0
   59.9460   26.6260   45.7140 H   0  0  0  0  0  0  0  0  0  0  0  0
   58.8482   23.5685   43.7212 H   0  0  0  0  0  0  0  0  0  0  0  0
   58.7781   22.7309   45.3282 H   0  0  0  0  0  0  0  0  0  0  0  0
   57.5301   21.3273   43.5731 H   0  0  0  0  0  0  0  0  0  0  0  0
   55.1766   21.7109   43.6146 H   0  0  0  0  0  0  0  0  0  0  0  0
   54.6593   24.2655   43.7739 H   0  0  0  0  0  0  0  0  0  0  0  0
   54.4900   23.4473   45.3823 H   0  0  0  0  0  0  0  0  0  0  0  0
   56.6331   29.5584   42.9328 H   0  0  0  0  0  0  0  0  0  0  0  0
   57.0523   31.2024   41.1088 H   0  0  0  0  0  0  0  0  0  0  0  0
   58.0175   33.4403   41.6364 H   0  0  0  0  0  0  0  0  0  0  0  0
   58.5629   34.0444   43.9905 H   0  0  0  0  0  0  0  0  0  0  0  0
   59.5738   30.2781   45.9241 H   0  0  0  0  0  0  0  0  0  0  0  0
   61.0275   31.2992   45.6577 H   0  0  0  0  0  0  0  0  0  0  0  0
   60.1503   29.9590   48.2709 H   0  0  0  0  0  0  0  0  0  0  0  0
   61.6037   29.5767   47.2684 H   0  0  0  0  0  0  0  0  0  0  0  0
   60.0457   31.8272   49.4739 H   0  0  0  0  0  0  0  0  0  0  0  0
   61.4099   33.0107   49.4795 H   0  0  0  0  0  0  0  0  0  0  0  0
   59.3779   33.7813   48.1776 H   0  0  0  0  0  0  0  0  0  0  0  0
   60.8931   33.7163   47.2138 H   0  0  0  0  0  0  0  0  0  0  0  0
  1  2  2  0
  2  3  1  0
  3  4  1  0
  4  5  1  0
  5  6  1  0
  5  7  2  0
  7  8  1  0
  8  9  2  0
  9 10  1  0
  8 11  1  0
 11 12  1  0
 12 13  2  0
 13 14  1  0
  2 15  1  0
 15 16  1  0
 16 17  2  0
 17 18  1  0
 18 19  2  0
 19 20  1  0
 20 21  2  0
 21 22  1  0
 22 23  2  0
 22 24  1  0
 24 25  1  0
 25 26  1  0
 26 27  1  0
 27 28  1  0
 28 29  1  0
  9  4  1  0
 21 16  1  0
 29 24  1  0
 14  7  1  0
  3 30  1  0
  3 31  1  0
 10 32  1  0
 11 33  1  0
 11 34  1  0
 12 35  1  0
 13 36  1  0
 14 37  1  0
 14 38  1  0
 17 39  1  0
 18 40  1  0
 19 41  1  0
 20 42  1  0
 25 43  1  0
 25 44  1  0
 26 45  1  0
 26 46  1  0
 28 47  1  0
 28 48  1  0
 29 49  1  0
 29 50  1  0
M  CHG  2   6  -1  15  -1
M  END
>  <UniqueID>  (83) 
80

>  <SMILES>  (83) 
O=C(Cn1c([O-])c2c(c1O)CC=CC2)[N-]c1ccccc1C(=O)N1CCOCC1

>  <Energy>  (83) 
93.83673247810371

>  <Genealogy>  (83) 
O=C(Cn1c([O-])c2c(c1O)CC=CC2)[N-]c1ccccc1C(=O)N1CCOCC1 (protonated)
O=C(Cn1c([O-])c2c(c1O)CC=CC2)[N-]c1ccccc1C(=O)N1CCOCC1 (3D coordinates assigned)
O=C(Cn1c([O-])c2c(c1O)CC=CC2)[N-]c1ccccc1C(=O)N1CCOCC1 (nonaromatic ring conformer: 93.83673247810371 kcal/mol)

>  <smiles>  (83) 
O=C(Cn1c(O)c2c(c1O)CC=CC2)Nc1ccccc1C(=O)N1CCOCC1

>  <score_type>  (83) 
oracle

>  <origin>  (83) 
adg

>  <m_score__min__energy>  (83) 
-12.83

>  <m_primary>  (83) 
energy

$$$$
